data_PCOD8256572
_publ_section_title
;
Structure prediction by ZEFSAII (Michael W. Deem and Ramdas Pophale) SiO2 
 PCOD8256572
Probable space group: C M C M
;
_chemical_formula_sum "Si O2"
_cell_formula_units_Z 76
_cell_length_a 10.998169
_cell_length_b 13.178524
_cell_length_c 28.044055
_cell_angle_alpha 90.000000
_cell_angle_beta 90.000000
_cell_angle_gamma 90.000000
_cell_volume 4064.695071
_symmetry_space_group_name_H-M "C M C M"
_symmetry_group_IT_number 63
_symmetry_cell_setting 'orthorhombic'
loop_
_space_group_symop_operation_xyz
x,y,z
-x,-y,1/2+z
x,-y,-z
-x,y,1/2-z
-x,-y,-z
x,y,1/2-z
-x,y,z
x,-y,1/2+z
1/2+x,1/2+y,z
1/2-x,1/2-y,1/2+z
1/2+x,1/2-y,-z
1/2-x,1/2+y,1/2-z
1/2-x,1/2-y,-z
1/2+x,1/2+y,1/2-z
1/2-x,1/2+y,z
1/2+x,1/2-y,1/2+z
loop_
_atom_site_type_symbol
_atom_site_label
_atom_site_fract_x
_atom_site_fract_y
_atom_site_fract_z
Si Si1 0.140809 0.668787 0.999967
Si Si2 0.000000 0.140321 0.696236
Si Si3 0.861489 0.656765 0.750000
Si Si4 0.000000 0.668145 0.250000
Si Si5 0.769665 0.031643 0.826702
Si Si6 0.762202 0.878653 0.750000
Si Si7 0.636807 0.999823 0.422723
O O1 0.157787 0.602205 0.952665
O O2 0.000000 0.712502 0.000991
O O3 0.250000 0.750000 0.000000
O O4 0.162331 0.598886 0.045891
O O5 0.116459 0.105828 0.666399
O O6 0.000000 0.091695 0.750000
O O7 0.000000 0.262300 0.701888
O O8 0.832503 0.592468 0.702823
O O9 0.781329 0.758696 0.750000
O O10 0.000000 0.691051 0.750000
O O11 0.117522 0.597448 0.250000
O O12 0.814289 0.931734 0.797638
O O13 0.726191 0.997634 0.878191
O O14 0.500000 0.002331 0.403221
#
# Coordination Sequence:
#
# PCOD8256572 Si02
#       7
#    16   8   8   4  16   8  16
#     4   9  19  41  64  84 114 146 181 232 286 341
#     4  10  18  42  52  68 123 154 176 232 289 310
#     4  11  22  35  53  79 111 146 187 235 271 323
#     4  10  18  38  52  72 104 148 190 226 268 320
#     4  11  22  37  55  81 110 151 189 228 272 333
#     4  11  22  33  56  75 108 148 188 225 270 323
#     4   9  20  39  60  82 113 148 184 227 281 336
#
# _framework density 18.697589000000001
#
# number of rings (size 3 to 8) (size 9 to 14) (size 15 to 20)
#    0.316    1.684    4.211    1.895    5.895    1.684 
#    3.789    1.053    0.000    0.000    0.000    0.000 
#    0.000    0.000    0.000    0.000    0.000    0.000 
#
# Total GULP energy -470997.690675 kJ/mol
# GULP energy per Si atom -12394.676070 kJ/mol
# Density = 1.865503 g / cm^3
# Si number density = 18.697589 Si / 1000 Ang^3
#
#
#
# Elastic Constant Matrix: (Units=GPa)
#
#
# Indices 1 2 3 4 5 6 
#
# 1 102.8258 24.1394 28.1407 0.0000 0.0000 0.0000
# 2 24.1394 79.1841 21.5678 0.0000 0.0000 0.0000
# 3 28.1407 21.5678 109.1387 0.0000 0.0000 0.0000
# 4 0.0000 0.0000 0.0000 8.0755 0.0000 0.0000
# 5 0.0000 0.0000 0.0000 0.0000 28.3436 0.0000
# 6 0.0000 0.0000 0.0000 0.0000 0.0000 32.9865
#
#
#
# Elastic Compliance Matrix: (Units=1/GPa)
#
#
# Indices 1 2 3 4 5 6 
#
# 1 0.010993 -0.002726 -0.002296 0.000000 0.000000 0.000000
# 2 -0.002726 0.014023 -0.002068 0.000000 0.000000 0.000000
# 3 -0.002296 -0.002068 0.010163 0.000000 0.000000 0.000000
# 4 0.000000 0.000000 0.000000 0.123832 0.000000 0.000000
# 5 0.000000 0.000000 0.000000 0.000000 0.035281 0.000000
# 6 0.000000 0.000000 0.000000 0.000000 0.000000 0.030315
#
#
# Mechanical properties :
#
#
# Convention : Reuss Voigt Hill
#
# Bulk Modulus (GPa) = 47.62013 48.76047 48.19030
# Shear Modulus (GPa) = 20.34264 28.36783 24.35523
#
# Velocity S-wave (km/s) = 3.30204 3.89934 3.61305
# Velocity P-wave (km/s) = 6.32944 6.81236 6.57533
#
# Compressibility (1/GPa) = 0.02099952
#
# Stress axis : x y z
#
# Youngs Moduli (GPa) = 90.96313 71.31042 98.39255
#
# Poissons Ratio (x) = 0.19439 0.22590
# Poissons Ratio (y) = 0.24797 0.20351
# Poissons Ratio (z) = 0.20884 0.14749
#
# Static dielectric constant tensor:
#      x y z
#    x 3.417530 0.000000 0.000000 
#    y 0.000000 3.311360 0.000000 
#    z 0.000000 0.000000 3.180900 
# 
# 
# High freq. dielectric constant tensor:
#      x y z
#    x 1.730120 0.000000 0.000000 
#    y 0.000000 1.722190 0.000000 
#    z 0.000000 0.000000 1.707850 
# 
# From -- ./inp_files/68142.got.cif
#   From: 2010.03.12/outbox.cif.g09.slc.cpg/sg63_35_cif.got.tgz:68142.got - 2010.04.10 19:34:48.
