data_PCOD8256423
_publ_section_title
;
Structure prediction by ZEFSAII (Michael W. Deem and Ramdas Pophale) SiO2 
 PCOD8256423
Probable space group: C M C M
;
_chemical_formula_sum "Si O2"
_cell_formula_units_Z 104
_cell_length_a 17.408366
_cell_length_b 13.992184
_cell_length_c 21.214113
_cell_angle_alpha 90.000000
_cell_angle_beta 90.000000
_cell_angle_gamma 90.000000
_cell_volume 5167.356136
_symmetry_space_group_name_H-M "C M C M"
_symmetry_group_IT_number 63
_symmetry_cell_setting 'orthorhombic'
loop_
_space_group_symop_operation_xyz
x,y,z
-x,-y,1/2+z
x,-y,-z
-x,y,1/2-z
-x,-y,-z
x,y,1/2-z
-x,y,z
x,-y,1/2+z
1/2+x,1/2+y,z
1/2-x,1/2-y,1/2+z
1/2+x,1/2-y,-z
1/2-x,1/2+y,1/2-z
1/2-x,1/2-y,-z
1/2+x,1/2+y,1/2-z
1/2-x,1/2+y,z
1/2+x,1/2-y,1/2+z
loop_
_atom_site_type_symbol
_atom_site_label
_atom_site_fract_x
_atom_site_fract_y
_atom_site_fract_z
Si Si1 0.846312 0.606066 0.497346
Si Si2 0.591654 0.119255 0.250000
Si Si3 0.588311 0.386760 0.682440
Si Si4 0.090751 0.595391 0.750000
Si Si5 0.412277 0.566592 0.894130
Si Si6 0.800603 0.000000 0.000000
Si Si7 0.909189 0.699743 0.877976
Si Si8 0.090552 0.716238 0.122756
O O1 0.885478 0.500000 0.500000
O O2 0.754082 0.592800 0.489555
O O3 0.863988 0.660259 0.562091
O O4 0.875046 0.665224 0.437989
O O5 0.500000 0.122523 0.250000
O O6 0.623495 0.170860 0.187153
O O7 0.624034 0.011815 0.250000
O O8 0.630030 0.371329 0.750000
O O9 0.500000 0.358434 0.691075
O O10 0.595982 0.498192 0.666049
O O11 0.617577 0.310799 0.630029
O O12 0.118412 0.646656 0.685927
O O13 0.000000 0.592772 0.750000
O O14 0.500000 0.566707 0.919954
O O15 0.355526 0.518406 0.942366
O O16 0.385984 0.672753 0.876378
O O17 0.000000 0.687014 0.890632
O O18 0.000000 0.702875 0.119334
#
# Coordination Sequence:
#
# PCOD8256423 Si02
#       8
#    16   8  16   8  16   8  16  16
#     4  10  23  39  58  85 121 171 194 250 297 359
#     4   9  18  32  55  88 126 156 192 248 300 358
#     4   9  18  34  60  93 121 150 197 257 309 348
#     4   9  16  28  53  84 124 164 196 248 292 348
#     4  10  22  40  66  88 115 151 203 262 300 360
#     4  10  25  44  59  84 120 162 204 244 313 356
#     4  10  18  32  57  92 126 160 203 244 296 352
#     4  10  21  37  62  94 120 159 205 244 304 359
#
# _framework density 20.126346000000002
#
# number of rings (size 3 to 8) (size 9 to 14) (size 15 to 20)
#    0.462    1.846    0.769    1.615    3.231    3.077 
#    0.000    0.000    3.385    0.000    0.000    0.000 
#    0.000    0.000    0.000    0.000    0.000    0.000 
#
# Total GULP energy -644379.725056 kJ/mol
# GULP energy per Si atom -12391.917790 kJ/mol
# Density = 2.008054 g / cm^3
# Si number density = 20.126346 Si / 1000 Ang^3
#
#
#
# Elastic Constant Matrix: (Units=GPa)
#
#
# Indices 1 2 3 4 5 6 
#
# 1 37.4911 30.5845 31.1788 0.0000 0.0000 0.0000
# 2 30.5845 167.3982 80.6269 0.0000 0.0000 0.0000
# 3 31.1788 80.6269 159.7104 0.0000 0.0000 0.0000
# 4 0.0000 0.0000 0.0000 15.8291 0.0000 0.0000
# 5 0.0000 0.0000 0.0000 0.0000 57.7962 0.0000
# 6 0.0000 0.0000 0.0000 0.0000 0.0000 16.4785
#
#
#
# Elastic Compliance Matrix: (Units=1/GPa)
#
#
# Indices 1 2 3 4 5 6 
#
# 1 0.033710 -0.003950 -0.004587 0.000000 0.000000 0.000000
# 2 -0.003950 0.008356 -0.003447 0.000000 0.000000 0.000000
# 3 -0.004587 -0.003447 0.008897 0.000000 0.000000 0.000000
# 4 0.000000 0.000000 0.000000 0.063175 0.000000 0.000000
# 5 0.000000 0.000000 0.000000 0.000000 0.017302 0.000000
# 6 0.000000 0.000000 0.000000 0.000000 0.000000 0.060685
#
#
# Mechanical properties :
#
#
# Convention : Reuss Voigt Hill
#
# Bulk Modulus (GPa) = 37.04396 72.15333 54.59865
# Shear Modulus (GPa) = 22.21330 32.83473 27.52401
#
# Velocity S-wave (km/s) = 3.32579 4.04348 3.70207
# Velocity P-wave (km/s) = 5.76138 7.59787 6.74245
#
# Compressibility (1/GPa) = 0.02699495
#
# Stress axis : x y z
#
# Youngs Moduli (GPa) = 29.66506 119.67833 112.39680
#
# Poissons Ratio (x) = 0.47269 0.51556
# Poissons Ratio (y) = 0.11717 0.38745
# Poissons Ratio (z) = 0.13607 0.41255
#
# Static dielectric constant tensor:
#      x y z
#    x 3.263410 0.000000 0.000000 
#    y 0.000000 3.954530 0.000000 
#    z 0.000000 0.000000 3.504760 
# 
# 
# High freq. dielectric constant tensor:
#      x y z
#    x 1.738900 0.000000 0.000000 
#    y 0.000000 1.802360 0.000000 
#    z 0.000000 0.000000 1.792970 
# 
# From -- ./inp_files/55658.got.cif
#   From: 2010.03.12/outbox.cif.g09.slc.cpg/sg63_28_cif.got.tgz:55658.got - 2010.04.10 19:34:48.
