data_PCOD8256878
_publ_section_title
;
Structure prediction by ZEFSAII (Michael W. Deem and Ramdas Pophale) SiO2 
 PCOD8256878
Probable space group: C M C M
;
_chemical_formula_sum "Si O2"
_cell_formula_units_Z 80
_cell_length_a 7.705434
_cell_length_b 26.928811
_cell_length_c 21.578073
_cell_angle_alpha 90.000000
_cell_angle_beta 90.000000
_cell_angle_gamma 90.000000
_cell_volume 4477.410786
_symmetry_space_group_name_H-M "C M C M"
_symmetry_group_IT_number 63
_symmetry_cell_setting 'orthorhombic'
loop_
_space_group_symop_operation_xyz
x,y,z
-x,-y,1/2+z
x,-y,-z
-x,y,1/2-z
-x,-y,-z
x,y,1/2-z
-x,y,z
x,-y,1/2+z
1/2+x,1/2+y,z
1/2-x,1/2-y,1/2+z
1/2+x,1/2-y,-z
1/2-x,1/2+y,1/2-z
1/2-x,1/2-y,-z
1/2+x,1/2+y,1/2-z
1/2-x,1/2+y,z
1/2+x,1/2-y,1/2+z
loop_
_atom_site_type_symbol
_atom_site_label
_atom_site_fract_x
_atom_site_fract_y
_atom_site_fract_z
Si Si1 0.796737 0.524629 0.096493
Si Si2 0.804675 0.274984 0.598655
Si Si3 0.304700 0.681795 0.976425
Si Si4 0.500000 0.317941 0.677075
Si Si5 0.500000 0.567130 0.177218
Si Si6 0.700863 0.925229 0.468591
O O1 0.675607 0.541700 0.152455
O O2 0.757925 0.466648 0.083036
O O3 0.000000 0.532648 0.113018
O O4 0.741445 0.555711 0.036044
O O5 0.806021 0.311588 0.539031
O O6 0.743901 0.219853 0.577141
O O7 0.674166 0.293013 0.651259
O O8 0.000000 0.274721 0.626287
O O9 0.500000 0.695973 0.994868
O O10 0.297382 0.625627 0.951211
O O11 0.500000 0.310236 0.750000
O O12 0.500000 0.375466 0.657998
O O13 0.500000 0.559607 0.250000
O O14 0.500000 0.913210 0.469727
#
# Coordination Sequence:
#
# PCOD8256878 Si02
#       6
#    16  16  16   8   8  16
#     4   9  20  36  52  80 114 139 172 220 267 322
#     4  10  21  36  53  80 115 144 176 223 274 319
#     4  10  19  30  53  87 114 141 175 218 274 331
#     4  11  24  40  57  79 107 144 190 226 263 324
#     4  11  24  37  55  79 101 144 190 220 265 311
#     4   9  18  31  53  84 111 141 172 209 276 331
#
# _framework density 17.867467999999999
#
# number of rings (size 3 to 8) (size 9 to 14) (size 15 to 20)
#    0.000    2.200    1.000    3.000    5.600    4.000 
#    0.000    2.000    0.000    1.200    0.000    0.000 
#    0.000    0.000    0.000    0.000    0.000    0.000 
#
# Total GULP energy -495967.199537 kJ/mol
# GULP energy per Si atom -12399.179988 kJ/mol
# Density = 1.782680 g / cm^3
# Si number density = 17.867468 Si / 1000 Ang^3
#
#
#
# Elastic Constant Matrix: (Units=GPa)
#
#
# Indices 1 2 3 4 5 6 
#
# 1 95.4180 41.8082 48.9271 0.0000 0.0000 0.0000
# 2 41.8082 138.3212 45.7384 0.0000 0.0000 0.0000
# 3 48.9271 45.7384 70.4825 0.0000 0.0000 0.0000
# 4 0.0000 0.0000 0.0000 23.1050 0.0000 0.0000
# 5 0.0000 0.0000 0.0000 0.0000 19.5786 0.0000
# 6 0.0000 0.0000 0.0000 0.0000 0.0000 26.6359
#
#
#
# Elastic Compliance Matrix: (Units=1/GPa)
#
#
# Indices 1 2 3 4 5 6 
#
# 1 0.016523 -0.001530 -0.010477 0.000000 0.000000 0.000000
# 2 -0.001530 0.009346 -0.005003 0.000000 0.000000 0.000000
# 3 -0.010477 -0.005003 0.024708 0.000000 0.000000 0.000000
# 4 0.000000 0.000000 0.000000 0.043281 0.000000 0.000000
# 5 0.000000 0.000000 0.000000 0.000000 0.051076 0.000000
# 6 0.000000 0.000000 0.000000 0.000000 0.000000 0.037543
#
#
# Mechanical properties :
#
#
# Convention : Reuss Voigt Hill
#
# Bulk Modulus (GPa) = 60.39842 64.12991 62.26417
# Shear Modulus (GPa) = 22.52095 25.04709 23.78402
#
# Velocity S-wave (km/s) = 3.55413 3.74816 3.65243
# Velocity P-wave (km/s) = 7.12175 7.39605 7.26020
#
# Compressibility (1/GPa) = 0.01655672
#
# Stress axis : x y z
#
# Youngs Moduli (GPa) = 60.52293 106.99391 40.47347
#
# Poissons Ratio (x) = 0.16366 0.42404
# Poissons Ratio (y) = 0.09258 0.20250
# Poissons Ratio (z) = 0.63410 0.53532
#
# Static dielectric constant tensor:
#      x y z
#    x 3.319790 0.000000 0.000000 
#    y 0.000000 3.501430 0.000000 
#    z 0.000000 0.000000 2.896850 
# 
# 
# High freq. dielectric constant tensor:
#      x y z
#    x 1.705500 0.000000 0.000000 
#    y 0.000000 1.703120 0.000000 
#    z 0.000000 0.000000 1.643170 
# 
# From -- ./inp_files/40581.got.cif
#   From: 2010.03.12/outbox.cif.g09.slc.cpg/sg63_21_cif.got.tgz:40581.got - 2010.04.10 19:34:48.
