data_PCOD8256804
_publ_section_title
;
Structure prediction by ZEFSAII (Michael W. Deem and Ramdas Pophale) SiO2 
 PCOD8256804
Probable space group: C M C M
;
_chemical_formula_sum "Si O2"
_cell_formula_units_Z 96
_cell_length_a 12.668252
_cell_length_b 23.714424
_cell_length_c 18.570808
_cell_angle_alpha 90.000000
_cell_angle_beta 90.000000
_cell_angle_gamma 90.000000
_cell_volume 5579.047697
_symmetry_space_group_name_H-M "C M C M"
_symmetry_group_IT_number 63
_symmetry_cell_setting 'orthorhombic'
loop_
_space_group_symop_operation_xyz
x,y,z
-x,-y,1/2+z
x,-y,-z
-x,y,1/2-z
-x,-y,-z
x,y,1/2-z
-x,y,z
x,-y,1/2+z
1/2+x,1/2+y,z
1/2-x,1/2-y,1/2+z
1/2+x,1/2-y,-z
1/2-x,1/2+y,1/2-z
1/2-x,1/2-y,-z
1/2+x,1/2+y,1/2-z
1/2-x,1/2+y,z
1/2+x,1/2-y,1/2+z
loop_
_atom_site_type_symbol
_atom_site_label
_atom_site_fract_x
_atom_site_fract_y
_atom_site_fract_z
Si Si1 0.202334 0.113447 0.078318
Si Si2 0.123354 0.900441 0.418384
Si Si3 0.735458 0.289915 0.102374
Si Si4 0.123049 0.987436 0.834063
Si Si5 0.617458 0.288664 0.671136
Si Si6 0.876725 0.690235 0.034705
O O1 0.195299 0.062361 0.134392
O O2 0.135908 0.166331 0.108025
O O3 0.323292 0.134665 0.070955
O O4 0.155105 0.094469 0.001855
O O5 0.182167 0.849173 0.378005
O O6 0.000000 0.889744 0.412098
O O7 0.156433 0.956559 0.376380
O O8 0.800621 0.263426 0.168424
O O9 0.642310 0.246538 0.081226
O O10 0.822349 0.298969 0.041141
O O11 0.147772 0.995382 0.750000
O O12 0.000000 0.972728 0.846899
O O13 0.630028 0.317396 0.750000
O O14 0.500000 0.264445 0.661147
O O15 0.000000 0.678105 0.026177
#
# Coordination Sequence:
#
# PCOD8256804 Si02
#       6
#    16  16  16  16  16  16
#     4  10  19  31  51  74  96 125 160 204 245 281
#     4  10  19  31  50  75 100 127 159 196 242 293
#     4   9  18  29  47  71  98 128 156 192 237 286
#     4  10  20  33  50  72  98 127 158 197 246 296
#     4  10  19  30  47  71  98 129 163 199 240 283
#     4   9  17  30  49  73  97 123 158 198 241 285
#
# _framework density 17.207238
#
# number of rings (size 3 to 8) (size 9 to 14) (size 15 to 20)
#    0.000    2.333    0.000    4.500    0.000    3.333 
#    0.000    0.000    0.000   25.500    0.000    0.000 
#    0.000    0.000    0.000    0.000    0.000    0.000 
#
# Total GULP energy -595038.183103 kJ/mol
# GULP energy per Si atom -12396.628815 kJ/mol
# Density = 1.716807 g / cm^3
# Si number density = 17.207238 Si / 1000 Ang^3
#
#
#
# Elastic Constant Matrix: (Units=GPa)
#
#
# Indices 1 2 3 4 5 6 
#
# 1 99.6818 47.8218 27.2842 0.0000 0.0000 0.0000
# 2 47.8218 110.6445 42.3412 0.0000 0.0000 0.0000
# 3 27.2842 42.3412 84.4105 0.0000 0.0000 0.0000
# 4 0.0000 0.0000 0.0000 28.0782 0.0000 0.0000
# 5 0.0000 0.0000 0.0000 0.0000 18.7703 0.0000
# 6 0.0000 0.0000 0.0000 0.0000 0.0000 23.9938
#
#
#
# Elastic Compliance Matrix: (Units=1/GPa)
#
#
# Indices 1 2 3 4 5 6 
#
# 1 0.012849 -0.004906 -0.001692 0.000000 0.000000 0.000000
# 2 -0.004906 0.013058 -0.004964 0.000000 0.000000 0.000000
# 3 -0.001692 -0.004964 0.014884 0.000000 0.000000 0.000000
# 4 0.000000 0.000000 0.000000 0.035615 0.000000 0.000000
# 5 0.000000 0.000000 0.000000 0.000000 0.053276 0.000000
# 6 0.000000 0.000000 0.000000 0.000000 0.000000 0.041677
#
#
# Mechanical properties :
#
#
# Convention : Reuss Voigt Hill
#
# Bulk Modulus (GPa) = 56.60621 58.84790 57.72706
# Shear Modulus (GPa) = 24.95360 25.98777 25.47068
#
# Velocity S-wave (km/s) = 3.81225 3.89045 3.85155
# Velocity P-wave (km/s) = 7.23504 7.37933 7.30754
#
# Compressibility (1/GPa) = 0.01766591
#
# Stress axis : x y z
#
# Youngs Moduli (GPa) = 77.82935 76.58141 67.18595
#
# Poissons Ratio (x) = 0.37569 0.11370
# Poissons Ratio (y) = 0.38181 0.33354
# Poissons Ratio (z) = 0.13171 0.38018
#
# Static dielectric constant tensor:
#      x y z
#    x 3.109990 0.000000 0.000000 
#    y 0.000000 3.317960 0.000000 
#    z 0.000000 0.000000 3.233380 
# 
# 
# High freq. dielectric constant tensor:
#      x y z
#    x 1.647140 0.000000 0.000000 
#    y 0.000000 1.662150 0.000000 
#    z 0.000000 0.000000 1.661210 
# 
# From -- ./inp_files/42466.got.cif
#   From: 2010.03.12/outbox.cif.g09.slc.cpg/sg63_22_cif.got.tgz:42466.got - 2010.04.10 19:34:48.
