data_PCOD8256817
_publ_section_title
;
Structure prediction by ZEFSAII (Michael W. Deem and Ramdas Pophale) SiO2 
 PCOD8256817
Probable space group: C M C M
;
_chemical_formula_sum "Si O2"
_cell_formula_units_Z 96
_cell_length_a 23.568000
_cell_length_b 25.480603
_cell_length_c 9.104516
_cell_angle_alpha 90.000000
_cell_angle_beta 90.000000
_cell_angle_gamma 90.000000
_cell_volume 5467.506328
_symmetry_space_group_name_H-M "C M C M"
_symmetry_group_IT_number 63
_symmetry_cell_setting 'orthorhombic'
loop_
_space_group_symop_operation_xyz
x,y,z
-x,-y,1/2+z
x,-y,-z
-x,y,1/2-z
-x,-y,-z
x,y,1/2-z
-x,y,z
x,-y,1/2+z
1/2+x,1/2+y,z
1/2-x,1/2-y,1/2+z
1/2+x,1/2-y,-z
1/2-x,1/2+y,1/2-z
1/2-x,1/2-y,-z
1/2+x,1/2+y,1/2-z
1/2-x,1/2+y,z
1/2+x,1/2-y,1/2+z
loop_
_atom_site_type_symbol
_atom_site_label
_atom_site_fract_x
_atom_site_fract_y
_atom_site_fract_z
Si Si1 0.618176 0.352301 0.421843
Si Si2 0.191098 0.553362 0.422306
Si Si3 0.120440 0.651751 0.075329
Si Si4 0.821351 0.053862 0.422645
Si Si5 0.000000 0.805003 0.423922
Si Si6 0.500000 0.813392 0.574870
Si Si7 0.309315 0.749507 0.578549
O O1 0.619187 0.366720 0.250000
O O2 0.637805 0.401536 0.516050
O O3 0.555303 0.336743 0.475863
O O4 0.659449 0.304360 0.457285
O O5 0.172126 0.500000 0.500000
O O6 0.182899 0.545370 0.250000
O O7 0.150836 0.599416 0.485072
O O8 0.256086 0.567990 0.460078
O O9 0.122221 0.651640 0.250000
O O10 0.055497 0.655149 0.018798
O O11 0.153318 0.702693 0.015780
O O12 0.830897 0.047864 0.250000
O O13 0.838998 0.000000 0.500000
O O14 0.000000 0.745923 0.489401
O O15 0.000000 0.799430 0.250000
O O16 0.500000 0.810202 0.750000
O O17 0.298841 0.756880 0.750000
O O18 0.250000 0.750000 0.500000
#
# Coordination Sequence:
#
# PCOD8256817 Si02
#       7
#    16  16  16  16   8   8  16
#     4  10  19  32  52  77 103 130 165 208 255 303
#     4   9  18  32  50  72  99 131 166 206 249 295
#     4   9  16  28  47  72  99 128 166 206 243 288
#     4  10  20  35  54  75 102 134 169 207 251 301
#     4   9  16  30  50  75 102 132 167 206 249 296
#     4   9  14  26  49  73  97 130 170 206 239 284
#     4  10  19  30  47  73 103 130 161 205 254 302
#
# _framework density 17.558278999999999
#
# number of rings (size 3 to 8) (size 9 to 14) (size 15 to 20)
#    0.000    2.500    1.667    1.500    0.000    2.667 
#    0.000    2.083    0.000    0.000    0.000    1.750 
#    0.000    0.000    0.000    0.000    0.000    0.000 
#
# Total GULP energy -595182.463177 kJ/mol
# GULP energy per Si atom -12399.634650 kJ/mol
# Density = 1.751832 g / cm^3
# Si number density = 17.558279 Si / 1000 Ang^3
#
#
#
# Elastic Constant Matrix: (Units=GPa)
#
#
# Indices 1 2 3 4 5 6 
#
# 1 145.8838 75.4728 36.5706 0.0000 0.0000 0.0000
# 2 75.4728 137.3080 43.5464 0.0000 0.0000 0.0000
# 3 36.5706 43.5464 36.5249 0.0000 0.0000 0.0000
# 4 0.0000 0.0000 0.0000 26.7170 0.0000 0.0000
# 5 0.0000 0.0000 0.0000 0.0000 18.1870 0.0000
# 6 0.0000 0.0000 0.0000 0.0000 0.0000 20.4319
#
#
#
# Elastic Compliance Matrix: (Units=1/GPa)
#
#
# Indices 1 2 3 4 5 6 
#
# 1 0.010270 -0.003833 -0.005713 0.000000 0.000000 0.000000
# 2 -0.003833 0.013142 -0.011830 0.000000 0.000000 0.000000
# 3 -0.005713 -0.011830 0.047203 0.000000 0.000000 0.000000
# 4 0.000000 0.000000 0.000000 0.037429 0.000000 0.000000
# 5 0.000000 0.000000 0.000000 0.000000 0.054984 0.000000
# 6 0.000000 0.000000 0.000000 0.000000 0.000000 0.048943
#
#
# Mechanical properties :
#
#
# Convention : Reuss Voigt Hill
#
# Bulk Modulus (GPa) = 35.89060 70.09960 52.99510
# Shear Modulus (GPa) = 18.93865 24.00897 21.47381
#
# Velocity S-wave (km/s) = 3.28779 3.70183 3.50094
# Velocity P-wave (km/s) = 5.90745 7.63427 6.82569
#
# Compressibility (1/GPa) = 0.02786245
#
# Stress axis : x y z
#
# Youngs Moduli (GPa) = 97.37121 76.09365 21.18525
#
# Poissons Ratio (x) = 0.29169 0.12102
# Poissons Ratio (y) = 0.37325 0.25062
# Poissons Ratio (z) = 0.55625 0.90019
#
# Static dielectric constant tensor:
#      x y z
#    x 3.473320 0.000000 0.000000 
#    y 0.000000 3.355260 0.000000 
#    z 0.000000 0.000000 2.900270 
# 
# 
# High freq. dielectric constant tensor:
#      x y z
#    x 1.683680 0.000000 0.000000 
#    y 0.000000 1.684410 0.000000 
#    z 0.000000 0.000000 1.641170 
# 
# From -- ./inp_files/10541.got.cif
#   From: 2010.03.12/outbox.cif.g09.slc.cpg/sg63_6_cif.got.tgz:10541.got - 2010.04.10 19:34:48.
