data_PCOD8256129
_publ_section_title
;
Structure prediction by ZEFSAII (Michael W. Deem and Ramdas Pophale) SiO2 
 PCOD8256129
Probable space group: C M C M
;
_chemical_formula_sum "Si O2"
_cell_formula_units_Z 96
_cell_length_a 11.940827
_cell_length_b 25.361990
_cell_length_c 18.319879
_cell_angle_alpha 90.000000
_cell_angle_beta 90.000000
_cell_angle_gamma 90.000000
_cell_volume 5548.049589
_symmetry_space_group_name_H-M "C M C M"
_symmetry_group_IT_number 63
_symmetry_cell_setting 'orthorhombic'
loop_
_space_group_symop_operation_xyz
x,y,z
-x,-y,1/2+z
x,-y,-z
-x,y,1/2-z
-x,-y,-z
x,y,1/2-z
-x,y,z
x,-y,1/2+z
1/2+x,1/2+y,z
1/2-x,1/2-y,1/2+z
1/2+x,1/2-y,-z
1/2-x,1/2+y,1/2-z
1/2-x,1/2-y,-z
1/2+x,1/2+y,1/2-z
1/2-x,1/2+y,z
1/2+x,1/2-y,1/2+z
loop_
_atom_site_type_symbol
_atom_site_label
_atom_site_fract_x
_atom_site_fract_y
_atom_site_fract_z
Si Si1 0.128901 0.792085 0.835790
Si Si2 0.500000 0.013962 0.584658
Si Si3 0.775607 0.317397 0.333493
Si Si4 0.500000 0.881890 0.332605
Si Si5 0.243435 0.502311 0.412743
Si Si6 0.370404 0.601908 0.913670
Si Si7 0.871659 0.104119 0.414540
O O1 0.137772 0.802084 0.750000
O O2 0.205816 0.742763 0.859772
O O3 0.176904 0.843192 0.877517
O O4 0.000000 0.781241 0.858167
O O5 0.500000 0.075923 0.602265
O O6 0.616233 0.991917 0.618138
O O7 0.500000 0.000000 0.500000
O O8 0.737248 0.318594 0.250000
O O9 0.892310 0.346465 0.344587
O O10 0.677278 0.344641 0.379096
O O11 0.500000 0.906253 0.250000
O O12 0.245068 0.500000 0.500000
O O13 0.302776 0.449035 0.383317
O O14 0.307851 0.553247 0.382930
O O15 0.500000 0.594991 0.892150
O O16 0.355187 0.608057 0.999517
O O17 0.000000 0.096554 0.392324
#
# Coordination Sequence:
#
# PCOD8256129 Si02
#       7
#    16   8  16   8  16  16  16
#     4   9  17  32  53  74  95 125 166 208 247 289
#     4  10  18  30  52  76 100 128 164 200 248 298
#     4  10  19  32  52  74  97 125 161 207 256 293
#     4  10  18  32  52  78 100 122 159 210 260 295
#     4   9  17  30  49  73  99 129 160 198 242 291
#     4  10  19  31  49  72 103 133 163 197 243 296
#     4   9  18  32  50  72 100 132 167 200 240 292
#
# _framework density 17.303379
#
# number of rings (size 3 to 8) (size 9 to 14) (size 15 to 20)
#    0.000    2.500    2.500    0.500    0.000    3.000 
#    0.000    1.667    1.833    2.000    0.000    0.000 
#    0.000    0.000    0.000    0.000    0.000    0.000 
#
# Total GULP energy -594992.733453 kJ/mol
# GULP energy per Si atom -12395.681947 kJ/mol
# Density = 1.726400 g / cm^3
# Si number density = 17.303379 Si / 1000 Ang^3
#
#
#
# Elastic Constant Matrix: (Units=GPa)
#
#
# Indices 1 2 3 4 5 6 
#
# 1 108.8350 67.9488 27.6041 0.0000 0.0000 0.0000
# 2 67.9488 158.2856 40.3656 0.0000 0.0000 0.0000
# 3 27.6041 40.3656 24.7094 0.0000 0.0000 0.0000
# 4 0.0000 0.0000 0.0000 29.5499 0.0000 0.0000
# 5 0.0000 0.0000 0.0000 0.0000 34.8613 0.0000
# 6 0.0000 0.0000 0.0000 0.0000 0.0000 10.4099
#
#
#
# Elastic Compliance Matrix: (Units=1/GPa)
#
#
# Indices 1 2 3 4 5 6 
#
# 1 0.013823 -0.003421 -0.009854 0.000000 0.000000 0.000000
# 2 -0.003421 0.011676 -0.015252 0.000000 0.000000 0.000000
# 3 -0.009854 -0.015252 0.076394 0.000000 0.000000 0.000000
# 4 0.000000 0.000000 0.000000 0.033841 0.000000 0.000000
# 5 0.000000 0.000000 0.000000 0.000000 0.028685 0.000000
# 6 0.000000 0.000000 0.000000 0.000000 0.000000 0.096062
#
#
# Mechanical properties :
#
#
# Convention : Reuss Voigt Hill
#
# Bulk Modulus (GPa) = 22.30165 62.62964 42.46564
# Shear Modulus (GPa) = 15.03840 25.35833 20.19836
#
# Velocity S-wave (km/s) = 2.95125 3.83235 3.42029
# Velocity P-wave (km/s) = 4.95275 7.47370 6.33979
#
# Compressibility (1/GPa) = 0.04483974
#
# Stress axis : x y z
#
# Youngs Moduli (GPa) = 72.34079 85.64706 13.08998
#
# Poissons Ratio (x) = 0.29302 0.12899
# Poissons Ratio (y) = 0.24749 0.19965
# Poissons Ratio (z) = 0.71284 1.30627
#
# Static dielectric constant tensor:
#      x y z
#    x 3.339800 0.000000 0.000000 
#    y 0.000000 3.408440 0.000000 
#    z 0.000000 0.000000 2.956620 
# 
# 
# High freq. dielectric constant tensor:
#      x y z
#    x 1.665440 0.000000 0.000000 
#    y 0.000000 1.673050 0.000000 
#    z 0.000000 0.000000 1.637250 
# 
# From -- ./inp_files/42748.got.cif
#   From: 2010.03.12/outbox.cif.g09.slc.cpg/sg63_22_cif.got.tgz:42748.got - 2010.04.10 19:34:48.
