data_PCOD8256546
_publ_section_title
;
Structure prediction by ZEFSAII (Michael W. Deem and Ramdas Pophale) SiO2 
 PCOD8256546
Probable space group: C M C M
;
_chemical_formula_sum "Si O2"
_cell_formula_units_Z 96
_cell_length_a 9.039928
_cell_length_b 29.027800
_cell_length_c 20.180283
_cell_angle_alpha 90.000000
_cell_angle_beta 90.000000
_cell_angle_gamma 90.000000
_cell_volume 5295.492362
_symmetry_space_group_name_H-M "C M C M"
_symmetry_group_IT_number 63
_symmetry_cell_setting 'orthorhombic'
loop_
_space_group_symop_operation_xyz
x,y,z
-x,-y,1/2+z
x,-y,-z
-x,y,1/2-z
-x,-y,-z
x,y,1/2-z
-x,y,z
x,-y,1/2+z
1/2+x,1/2+y,z
1/2-x,1/2-y,1/2+z
1/2+x,1/2-y,-z
1/2-x,1/2+y,1/2-z
1/2-x,1/2-y,-z
1/2+x,1/2+y,1/2-z
1/2-x,1/2+y,z
1/2+x,1/2-y,1/2+z
loop_
_atom_site_type_symbol
_atom_site_label
_atom_site_fract_x
_atom_site_fract_y
_atom_site_fract_z
Si Si1 0.325371 0.875705 0.020458
Si Si2 0.174028 0.526667 0.933139
Si Si3 0.675023 0.776079 0.060527
Si Si4 0.330098 0.223504 0.325978
Si Si5 0.830490 0.966845 0.674631
Si Si6 0.325821 0.122678 0.371180
O O1 0.500000 0.877697 0.014099
O O2 0.269953 0.920584 0.060189
O O3 0.275304 0.829557 0.058328
O O4 0.262119 0.875857 0.945855
O O5 0.255676 0.505134 0.870895
O O6 0.000000 0.523283 0.920035
O O7 0.217080 0.500000 0.000000
O O8 0.500000 0.770767 0.053232
O O9 0.727017 0.756179 0.130421
O O10 0.750000 0.750000 0.000000
O O11 0.305178 0.237461 0.250000
O O12 0.500000 0.230636 0.347900
O O13 0.285323 0.170485 0.335853
O O14 0.815049 0.983961 0.750000
O O15 0.753211 0.917557 0.668594
O O16 0.000000 0.961495 0.653317
O O17 0.500000 0.112849 0.369577
#
# Coordination Sequence:
#
# PCOD8256546 Si02
#       6
#    16  16  16  16  16  16
#     4   9  18  34  57  85 111 136 181 236 274 320
#     4  10  19  36  61  83 104 140 187 231 272 322
#     4  11  21  36  58  83 115 150 186 230 280 332
#     4  10  21  37  57  83 115 150 189 231 277 332
#     4  11  24  38  52  80 120 151 179 223 278 334
#     4  10  18  35  60  83 110 145 185 229 276 328
#
# _framework density 18.128625
#
# number of rings (size 3 to 8) (size 9 to 14) (size 15 to 20)
#    0.000    1.833    3.333    1.500    0.000    3.333 
#    0.000    2.500    0.000    5.000    0.000    0.000 
#    0.000    0.000    0.000    0.000    0.000    0.000 
#
# Total GULP energy -595296.096017 kJ/mol
# GULP energy per Si atom -12402.002000 kJ/mol
# Density = 1.808736 g / cm^3
# Si number density = 18.128625 Si / 1000 Ang^3
#
#
#
# Elastic Constant Matrix: (Units=GPa)
#
#
# Indices 1 2 3 4 5 6 
#
# 1 64.2579 53.0560 46.1888 0.0000 0.0000 0.0000
# 2 53.0560 150.2336 61.8871 0.0000 0.0000 0.0000
# 3 46.1888 61.8871 108.6289 0.0000 0.0000 0.0000
# 4 0.0000 0.0000 0.0000 31.3660 0.0000 0.0000
# 5 0.0000 0.0000 0.0000 0.0000 31.0669 0.0000
# 6 0.0000 0.0000 0.0000 0.0000 0.0000 26.5181
#
#
#
# Elastic Compliance Matrix: (Units=1/GPa)
#
#
# Indices 1 2 3 4 5 6 
#
# 1 0.026042 -0.006057 -0.007622 0.000000 0.000000 0.000000
# 2 -0.006057 0.010106 -0.003182 0.000000 0.000000 0.000000
# 3 -0.007622 -0.003182 0.014260 0.000000 0.000000 0.000000
# 4 0.000000 0.000000 0.000000 0.031882 0.000000 0.000000
# 5 0.000000 0.000000 0.000000 0.000000 0.032189 0.000000
# 6 0.000000 0.000000 0.000000 0.000000 0.000000 0.037710
#
#
# Mechanical properties :
#
#
# Convention : Reuss Voigt Hill
#
# Bulk Modulus (GPa) = 59.93423 71.70937 65.82180
# Shear Modulus (GPa) = 26.11324 28.58944 27.35134
#
# Velocity S-wave (km/s) = 3.79943 3.97550 3.88846
# Velocity P-wave (km/s) = 7.23740 7.79195 7.51979
#
# Compressibility (1/GPa) = 0.01668496
#
# Stress axis : x y z
#
# Youngs Moduli (GPa) = 38.39883 98.94846 70.12807
#
# Poissons Ratio (x) = 0.59934 0.53455
# Poissons Ratio (y) = 0.23259 0.22316
# Poissons Ratio (z) = 0.29269 0.31487
#
# Static dielectric constant tensor:
#      x y z
#    x 3.203060 0.000000 0.000000 
#    y 0.000000 3.614010 0.000000 
#    z 0.000000 0.000000 3.352210 
# 
# 
# High freq. dielectric constant tensor:
#      x y z
#    x 1.685640 0.000000 0.000000 
#    y 0.000000 1.708030 0.000000 
#    z 0.000000 0.000000 1.701750 
# 
# From -- ./inp_files/51311.got.cif
#   From: 2010.03.12/outbox.cif.g09.slc.cpg/sg63_26_cif.got.tgz:51311.got - 2010.04.10 19:34:48.
