data_PCOD8256511
_publ_section_title
;
Structure prediction by ZEFSAII (Michael W. Deem and Ramdas Pophale) SiO2 
 PCOD8256511
Probable space group: C M C M
;
_chemical_formula_sum "Si O2"
_cell_formula_units_Z 96
_cell_length_a 14.110933
_cell_length_b 22.687471
_cell_length_c 14.682645
_cell_angle_alpha 90.000000
_cell_angle_beta 90.000000
_cell_angle_gamma 90.000000
_cell_volume 4700.522280
_symmetry_space_group_name_H-M "C M C M"
_symmetry_group_IT_number 63
_symmetry_cell_setting 'orthorhombic'
loop_
_space_group_symop_operation_xyz
x,y,z
-x,-y,1/2+z
x,-y,-z
-x,y,1/2-z
-x,-y,-z
x,y,1/2-z
-x,y,z
x,-y,1/2+z
1/2+x,1/2+y,z
1/2-x,1/2-y,1/2+z
1/2+x,1/2-y,-z
1/2-x,1/2+y,1/2-z
1/2-x,1/2-y,-z
1/2+x,1/2+y,1/2-z
1/2-x,1/2+y,z
1/2+x,1/2-y,1/2+z
loop_
_atom_site_type_symbol
_atom_site_label
_atom_site_fract_x
_atom_site_fract_y
_atom_site_fract_z
Si Si1 0.895491 0.487320 0.893849
Si Si2 0.391455 0.733605 0.647970
Si Si3 0.888418 0.910501 0.855024
Si Si4 0.393939 0.142376 0.433362
Si Si5 0.795287 0.141862 0.976861
Si Si6 0.701422 0.533858 0.850368
O O1 0.878483 0.417696 0.876201
O O2 0.814798 0.524136 0.843274
O O3 0.000000 0.505858 0.857808
O O4 0.886242 0.500000 0.000000
O O5 0.356917 0.717879 0.750000
O O6 0.500000 0.714223 0.634507
O O7 0.379708 0.803487 0.635131
O O8 0.328971 0.700750 0.572929
O O9 0.862118 0.895774 0.750000
O O10 0.000000 0.909095 0.870140
O O11 0.849630 0.974561 0.883811
O O12 0.840422 0.862476 0.921833
O O13 0.500000 0.142763 0.476520
O O14 0.318585 0.145526 0.515755
O O15 0.827374 0.085390 0.918775
O O16 0.664872 0.551673 0.750000
#
# Coordination Sequence:
#
# PCOD8256511 Si02
#       6
#    16  16  16  16  16  16
#     4  10  18  34  58  85 116 153 194 241 295 350
#     4  10  23  41  60  88 120 154 204 254 295 351
#     4  10  22  38  57  85 118 153 200 250 296 356
#     4  10  21  37  61  86 115 155 199 247 297 349
#     4  12  21  38  62  87 117 160 195 247 304 358
#     4  11  22  35  54  85 120 157 198 238 292 357
#
# _framework density 20.423262000000001
#
# number of rings (size 3 to 8) (size 9 to 14) (size 15 to 20)
#    0.000    1.500    3.333    2.000    0.000    3.667 
#    0.000    3.333    0.000    1.500    0.000    2.333 
#    0.000    0.000    0.000    0.000    0.000    0.000 
#
# Total GULP energy -595217.089000 kJ/mol
# GULP energy per Si atom -12400.356021 kJ/mol
# Density = 2.037678 g / cm^3
# Si number density = 20.423262 Si / 1000 Ang^3
#
#
#
# Elastic Constant Matrix: (Units=GPa)
#
#
# Indices 1 2 3 4 5 6 
#
# 1 79.0479 15.6317 21.9247 0.0000 0.0000 0.0000
# 2 15.6317 72.1549 27.1272 0.0000 0.0000 0.0000
# 3 21.9247 27.1272 89.1403 0.0000 0.0000 0.0000
# 4 0.0000 0.0000 0.0000 28.5591 0.0000 0.0000
# 5 0.0000 0.0000 0.0000 0.0000 20.2720 0.0000
# 6 0.0000 0.0000 0.0000 0.0000 0.0000 26.7065
#
#
#
# Elastic Compliance Matrix: (Units=1/GPa)
#
#
# Indices 1 2 3 4 5 6 
#
# 1 0.013812 -0.001937 -0.002808 0.000000 0.000000 0.000000
# 2 -0.001937 0.015921 -0.004369 0.000000 0.000000 0.000000
# 3 -0.002808 -0.004369 0.013238 0.000000 0.000000 0.000000
# 4 0.000000 0.000000 0.000000 0.035015 0.000000 0.000000
# 5 0.000000 0.000000 0.000000 0.000000 0.049329 0.000000
# 6 0.000000 0.000000 0.000000 0.000000 0.000000 0.037444
#
#
# Mechanical properties :
#
#
# Convention : Reuss Voigt Hill
#
# Bulk Modulus (GPa) = 40.41189 41.07892 40.74541
# Shear Modulus (GPa) = 26.14582 26.81816 26.48199
#
# Velocity S-wave (km/s) = 3.58187 3.62763 3.60482
# Velocity P-wave (km/s) = 6.07754 6.14033 6.10902
#
# Compressibility (1/GPa) = 0.02474519
#
# Stress axis : x y z
#
# Youngs Moduli (GPa) = 72.39909 62.80966 75.53786
#
# Poissons Ratio (x) = 0.12164 0.21210
# Poissons Ratio (y) = 0.14021 0.33001
# Poissons Ratio (z) = 0.20329 0.27440
#
# Static dielectric constant tensor:
#      x y z
#    x 3.894430 0.000000 0.000000 
#    y 0.000000 3.613790 0.000000 
#    z 0.000000 0.000000 3.634070 
# 
# 
# High freq. dielectric constant tensor:
#      x y z
#    x 1.805890 0.000000 0.000000 
#    y 0.000000 1.785940 0.000000 
#    z 0.000000 0.000000 1.786720 
# 
# From -- ./inp_files/31848.got.cif
#   From: 2010.03.12/outbox.cif.g09.slc.cpg/sg63_16_cif.got.tgz:31848.got - 2010.04.10 19:34:48.
