data_PCOD8256213
_publ_section_title
;
Structure prediction by ZEFSAII (Michael W. Deem and Ramdas Pophale) SiO2 
 PCOD8256213
Probable space group: C M C M
;
_chemical_formula_sum "Si O2"
_cell_formula_units_Z 96
_cell_length_a 12.278016
_cell_length_b 22.503400
_cell_length_c 19.247981
_cell_angle_alpha 90.000000
_cell_angle_beta 90.000000
_cell_angle_gamma 90.000000
_cell_volume 5318.161432
_symmetry_space_group_name_H-M "C M C M"
_symmetry_group_IT_number 63
_symmetry_cell_setting 'orthorhombic'
loop_
_space_group_symop_operation_xyz
x,y,z
-x,-y,1/2+z
x,-y,-z
-x,y,1/2-z
-x,-y,-z
x,y,1/2-z
-x,y,z
x,-y,1/2+z
1/2+x,1/2+y,z
1/2-x,1/2-y,1/2+z
1/2+x,1/2-y,-z
1/2-x,1/2+y,1/2-z
1/2-x,1/2-y,-z
1/2+x,1/2+y,1/2-z
1/2-x,1/2+y,z
1/2+x,1/2-y,1/2+z
loop_
_atom_site_type_symbol
_atom_site_label
_atom_site_fract_x
_atom_site_fract_y
_atom_site_fract_z
Si Si1 0.500000 0.391228 0.332280
Si Si2 0.500000 0.474160 0.667542
Si Si3 0.376960 0.928262 0.923865
Si Si4 0.120179 0.756793 0.667687
Si Si5 0.376597 0.932515 0.080555
Si Si6 0.767703 0.849187 0.167538
Si Si7 0.311467 0.613215 0.167646
O O1 0.500000 0.397081 0.250000
O O2 0.500000 0.458736 0.363057
O O3 0.606491 0.354621 0.357182
O O4 0.500000 0.474737 0.750000
O O5 0.607016 0.438707 0.641973
O O6 0.500000 0.906342 0.912000
O O7 0.303744 0.893251 0.869475
O O8 0.367802 0.997635 0.909219
O O9 0.340616 0.914144 0.002773
O O10 0.121825 0.754785 0.750000
O O11 0.213345 0.711894 0.639308
O O12 0.141990 0.823582 0.642702
O O13 0.000000 0.737394 0.640626
O O14 0.500000 0.911339 0.094467
O O15 0.297577 0.904328 0.136866
O O16 0.759424 0.853901 0.250000
O O17 0.293771 0.611141 0.250000
#
# Coordination Sequence:
#
# PCOD8256213 Si02
#       7
#     8   8  16  16  16  16  16
#     4   9  18  30  45  73 107 135 158 195 256 308
#     4   9  16  28  49  73 101 131 162 205 252 296
#     4   9  19  34  50  72 103 135 165 203 261 314
#     4   9  17  31  50  74 101 129 168 214 256 292
#     4   9  18  34  53  72 100 134 166 208 259 304
#     4  10  19  32  52  76 101 131 169 209 250 303
#     4  10  18  31  51  75 101 132 172 212 246 295
#
# _framework density 18.051351
#
# number of rings (size 3 to 8) (size 9 to 14) (size 15 to 20)
#    0.000    2.667    0.833    2.500    0.000    3.333 
#    1.500    3.333    0.000    3.000    0.000    0.000 
#    0.000    0.000    0.000    0.000    0.000    0.000 
#
# Total GULP energy -595031.996257 kJ/mol
# GULP energy per Si atom -12396.499922 kJ/mol
# Density = 1.801027 g / cm^3
# Si number density = 18.051351 Si / 1000 Ang^3
#
#
#
# Elastic Constant Matrix: (Units=GPa)
#
#
# Indices 1 2 3 4 5 6 
#
# 1 141.6254 69.0182 31.6695 0.0000 0.0000 0.0000
# 2 69.0182 95.4486 16.9315 0.0000 0.0000 0.0000
# 3 31.6695 16.9315 28.0918 0.0000 0.0000 0.0000
# 4 0.0000 0.0000 0.0000 15.3727 0.0000 0.0000
# 5 0.0000 0.0000 0.0000 0.0000 18.3677 0.0000
# 6 0.0000 0.0000 0.0000 0.0000 0.0000 30.2203
#
#
#
# Elastic Compliance Matrix: (Units=1/GPa)
#
#
# Indices 1 2 3 4 5 6 
#
# 1 0.013042 -0.007639 -0.010099 0.000000 0.000000 0.000000
# 2 -0.007639 0.016206 -0.001155 0.000000 0.000000 0.000000
# 3 -0.010099 -0.001155 0.047679 0.000000 0.000000 0.000000
# 4 0.000000 0.000000 0.000000 0.065050 0.000000 0.000000
# 5 0.000000 0.000000 0.000000 0.000000 0.054443 0.000000
# 6 0.000000 0.000000 0.000000 0.000000 0.000000 0.033090
#
#
# Mechanical properties :
#
#
# Convention : Reuss Voigt Hill
#
# Bulk Modulus (GPa) = 25.54935 55.60047 40.57491
# Shear Modulus (GPa) = 17.83529 22.62859 20.23194
#
# Velocity S-wave (km/s) = 3.14671 3.54442 3.35147
# Velocity P-wave (km/s) = 5.23324 6.90063 6.12395
#
# Compressibility (1/GPa) = 0.03913994
#
# Stress axis : x y z
#
# Youngs Moduli (GPa) = 76.67648 61.70723 20.97369
#
# Poissons Ratio (x) = 0.47139 0.21180
# Poissons Ratio (y) = 0.58574 0.02423
# Poissons Ratio (z) = 0.77432 0.07130
#
# Static dielectric constant tensor:
#      x y z
#    x 3.593030 0.000000 0.000000 
#    y 0.000000 3.402120 0.000000 
#    z 0.000000 0.000000 2.952650 
# 
# 
# High freq. dielectric constant tensor:
#      x y z
#    x 1.709730 0.000000 0.000000 
#    y 0.000000 1.695570 0.000000 
#    z 0.000000 0.000000 1.656910 
# 
# From -- ./inp_files/42588.got.cif
#   From: 2010.03.12/outbox.cif.g09.slc.cpg/sg63_22_cif.got.tgz:42588.got - 2010.04.10 19:34:48.
