data_PCOD8256923
_publ_section_title
;
Structure prediction by ZEFSAII (Michael W. Deem and Ramdas Pophale) SiO2 
 PCOD8256923
Probable space group: C M C M
;
_chemical_formula_sum "Si O2"
_cell_formula_units_Z 80
_cell_length_a 21.080791
_cell_length_b 11.654249
_cell_length_c 14.681078
_cell_angle_alpha 90.000000
_cell_angle_beta 90.000000
_cell_angle_gamma 90.000000
_cell_volume 3606.858803
_symmetry_space_group_name_H-M "C M C M"
_symmetry_group_IT_number 63
_symmetry_cell_setting 'orthorhombic'
loop_
_space_group_symop_operation_xyz
x,y,z
-x,-y,1/2+z
x,-y,-z
-x,y,1/2-z
-x,-y,-z
x,y,1/2-z
-x,y,z
x,-y,1/2+z
1/2+x,1/2+y,z
1/2-x,1/2-y,1/2+z
1/2+x,1/2-y,-z
1/2-x,1/2+y,1/2-z
1/2-x,1/2-y,-z
1/2+x,1/2+y,1/2-z
1/2-x,1/2+y,z
1/2+x,1/2-y,1/2+z
loop_
_atom_site_type_symbol
_atom_site_label
_atom_site_fract_x
_atom_site_fract_y
_atom_site_fract_z
Si Si1 0.196091 0.840479 0.481343
Si Si2 0.784493 0.458181 0.145812
Si Si3 0.630936 0.267977 0.647219
Si Si4 0.135510 0.323388 0.849727
Si Si5 0.000000 0.337853 0.092304
Si Si6 0.500000 0.905732 0.617021
O O1 0.250000 0.750000 0.500000
O O2 0.225546 0.949097 0.425965
O O3 0.160497 0.864508 0.578270
O O4 0.143377 0.783247 0.416348
O O5 0.760383 0.473008 0.250000
O O6 0.828589 0.347504 0.138577
O O7 0.824571 0.567871 0.112462
O O8 0.633634 0.317184 0.750000
O O9 0.559587 0.239236 0.619423
O O10 0.162269 0.290289 0.750000
O O11 0.062068 0.352598 0.838137
O O12 0.000000 0.459598 0.143794
O O13 0.000000 0.373773 0.988090
#
# Coordination Sequence:
#
# PCOD8256923 Si02
#       6
#    16  16  16  16   8   8
#     4  10  21  34  51  72 108 146 188 233 269 320
#     4   9  19  34  53  75 105 144 185 225 275 327
#     4  10  19  31  47  69  99 142 184 221 267 321
#     4  11  21  35  56  83 114 150 186 223 275 337
#     4  11  19  29  49  72 109 144 180 219 273 335
#     4  11  21  31  53  82 115 148 181 220 280 342
#
# _framework density 22.179964999999999
#
# number of rings (size 3 to 8) (size 9 to 14) (size 15 to 20)
#    0.000    1.800    4.000    1.200    0.000    4.800 
#    0.000    0.000    0.000    1.200    0.000    0.000 
#    0.000   33.600    0.000   82.800    0.000    0.000 
#
# Total GULP energy -495773.130286 kJ/mol
# GULP energy per Si atom -12394.328257 kJ/mol
# Density = 2.212948 g / cm^3
# Si number density = 22.179965 Si / 1000 Ang^3
#
#
#
# Elastic Constant Matrix: (Units=GPa)
#
#
# Indices 1 2 3 4 5 6 
#
# 1 120.8623 32.7801 64.4038 0.0000 0.0000 0.0000
# 2 32.7801 38.1643 31.9222 0.0000 0.0000 0.0000
# 3 64.4038 31.9222 158.9337 0.0000 0.0000 0.0000
# 4 0.0000 0.0000 0.0000 15.0508 0.0000 0.0000
# 5 0.0000 0.0000 0.0000 0.0000 23.2871 0.0000
# 6 0.0000 0.0000 0.0000 0.0000 0.0000 18.5118
#
#
#
# Elastic Compliance Matrix: (Units=1/GPa)
#
#
# Indices 1 2 3 4 5 6 
#
# 1 0.012142 -0.007588 -0.003396 0.000000 0.000000 0.000000
# 2 -0.007588 0.036236 -0.004203 0.000000 0.000000 0.000000
# 3 -0.003396 -0.004203 0.008512 0.000000 0.000000 0.000000
# 4 0.000000 0.000000 0.000000 0.066442 0.000000 0.000000
# 5 0.000000 0.000000 0.000000 0.000000 0.042942 0.000000
# 6 0.000000 0.000000 0.000000 0.000000 0.000000 0.054020
#
#
# Mechanical properties :
#
#
# Convention : Reuss Voigt Hill
#
# Bulk Modulus (GPa) = 37.71428 64.01917 50.86673
# Shear Modulus (GPa) = 19.26739 23.96022 21.61380
#
# Velocity S-wave (km/s) = 2.95054 3.29030 3.12504
# Velocity P-wave (km/s) = 5.35241 6.58490 6.00039
#
# Compressibility (1/GPa) = 0.02651516
#
# Stress axis : x y z
#
# Youngs Moduli (GPa) = 82.36204 27.59701 117.47742
#
# Poissons Ratio (x) = 0.20941 0.39895
# Poissons Ratio (y) = 0.62497 0.49378
# Poissons Ratio (z) = 0.27970 0.11600
#
# Static dielectric constant tensor:
#      x y z
#    x 4.007840 0.000000 0.000000 
#    y 0.000000 3.705780 0.000000 
#    z 0.000000 0.000000 4.677640 
# 
# 
# High freq. dielectric constant tensor:
#      x y z
#    x 1.866640 0.000000 0.000000 
#    y 0.000000 1.825780 0.000000 
#    z 0.000000 0.000000 1.904690 
# 
# From -- ./inp_files/36526.got.cif
#   From: 2010.03.12/outbox.cif.g09.slc.cpg/sg63_19_cif.got.tgz:36526.got - 2010.04.10 19:34:48.
