data_PCOD8256217
_publ_section_title
;
Structure prediction by ZEFSAII (Michael W. Deem and Ramdas Pophale) SiO2 
 PCOD8256217
Probable space group: C M C M
;
_chemical_formula_sum "Si O2"
_cell_formula_units_Z 96
_cell_length_a 15.414035
_cell_length_b 19.706090
_cell_length_c 17.518911
_cell_angle_alpha 90.000000
_cell_angle_beta 90.000000
_cell_angle_gamma 90.000000
_cell_volume 5321.375540
_symmetry_space_group_name_H-M "C M C M"
_symmetry_group_IT_number 63
_symmetry_cell_setting 'orthorhombic'
loop_
_space_group_symop_operation_xyz
x,y,z
-x,-y,1/2+z
x,-y,-z
-x,y,1/2-z
-x,-y,-z
x,y,1/2-z
-x,y,z
x,-y,1/2+z
1/2+x,1/2+y,z
1/2-x,1/2-y,1/2+z
1/2+x,1/2-y,-z
1/2-x,1/2+y,1/2-z
1/2-x,1/2-y,-z
1/2+x,1/2+y,1/2-z
1/2-x,1/2+y,z
1/2+x,1/2-y,1/2+z
loop_
_atom_site_type_symbol
_atom_site_label
_atom_site_fract_x
_atom_site_fract_y
_atom_site_fract_z
Si Si1 0.206692 0.338856 0.162616
Si Si2 0.211075 0.822804 0.488734
Si Si3 0.596351 0.564582 0.335431
Si Si4 0.904009 0.211031 0.114081
Si Si5 0.098339 0.526616 0.838578
Si Si6 0.737702 0.048250 0.070862
O O1 0.241805 0.341040 0.250000
O O2 0.286302 0.344412 0.101116
O O3 0.158621 0.268374 0.147095
O O4 0.140801 0.400099 0.146217
O O5 0.250000 0.750000 0.500000
O O6 0.116109 0.815928 0.527163
O O7 0.267063 0.874773 0.540785
O O8 0.607276 0.536318 0.250000
O O9 0.500000 0.544926 0.367305
O O10 0.604724 0.646130 0.331369
O O11 0.672509 0.531564 0.385306
O O12 0.000000 0.241823 0.114242
O O13 0.096869 0.509473 0.750000
O O14 0.153723 0.466660 0.877468
O O15 0.000000 0.527138 0.871326
O O16 0.735655 0.000000 0.000000
#
# Coordination Sequence:
#
# PCOD8256217 Si02
#       6
#    16  16  16  16  16  16
#     4  10  18  31  51  76 106 138 174 217 265 314
#     4   9  19  35  51  76 103 134 175 214 261 316
#     4   9  18  32  51  75  99 128 170 217 267 317
#     4   9  17  30  52  77 102 129 166 221 272 314
#     4  10  21  35  52  77 108 142 181 221 262 314
#     4  11  20  34  52  75 106 139 173 215 264 316
#
# _framework density 18.040447
#
# number of rings (size 3 to 8) (size 9 to 14) (size 15 to 20)
#    0.000    2.333    1.667    1.500    0.000    2.333 
#    0.000    1.667    0.000    0.500    0.000    0.000 
#    0.000    0.000    0.000    0.000    0.000    0.000 
#
# Total GULP energy -594686.515740 kJ/mol
# GULP energy per Si atom -12389.302411 kJ/mol
# Density = 1.799939 g / cm^3
# Si number density = 18.040447 Si / 1000 Ang^3
#
#
#
# Elastic Constant Matrix: (Units=GPa)
#
#
# Indices 1 2 3 4 5 6 
#
# 1 58.4016 10.0256 32.7397 0.0000 0.0000 0.0000
# 2 10.0256 55.2431 7.5539 0.0000 0.0000 0.0000
# 3 32.7397 7.5539 92.5935 0.0000 0.0000 0.0000
# 4 0.0000 0.0000 0.0000 -162.4697 0.0000 0.0000
# 5 0.0000 0.0000 0.0000 0.0000 22.3389 0.0000
# 6 0.0000 0.0000 0.0000 0.0000 0.0000 20.4670
#
#
#
# Elastic Compliance Matrix: (Units=1/GPa)
#
#
# Indices 1 2 3 4 5 6 
#
# 1 0.021817 -0.002937 -0.007475 0.000000 0.000000 0.000000
# 2 -0.002937 0.018701 -0.000487 0.000000 0.000000 0.000000
# 3 -0.007475 -0.000487 0.013483 0.000000 0.000000 0.000000
# 4 0.000000 0.000000 0.000000 -0.006155 0.000000 0.000000
# 5 0.000000 0.000000 0.000000 0.000000 0.044765 0.000000
# 6 0.000000 0.000000 0.000000 0.000000 0.000000 0.048859
#
#
# Mechanical properties :
#
#
# Convention : Reuss Voigt Hill
#
# Bulk Modulus (GPa) = 31.05287 34.09743 32.57515
# Shear Modulus (GPa) = 28.73514 -13.53815 7.59849
#
# Velocity S-wave (km/s) = 3.99534 -2.74238 2.05452
# Velocity P-wave (km/s) = 6.20757 2.98565 4.87073
#
# Compressibility (1/GPa) = 0.03220315
#
# Stress axis : x y z
#
# Youngs Moduli (GPa) = 45.83505 53.47170 74.16988
#
# Poissons Ratio (x) = 0.15707 0.55440
# Poissons Ratio (y) = 0.13463 0.03613
# Poissons Ratio (z) = 0.34260 0.02605
#
# Static dielectric constant tensor:
#      x y z
#    x 3.719230 0.000000 0.000000 
#    y 0.000000 3.665980 0.000000 
#    z 0.000000 0.000000 3.774620 
# 
# 
# High freq. dielectric constant tensor:
#      x y z
#    x 1.676510 0.000000 0.000000 
#    y 0.000000 1.696010 0.000000 
#    z 0.000000 0.000000 1.704960 
# 
# From -- ./inp_files/45752.got.cif
#   From: 2010.03.12/outbox.cif.g09.slc.cpg/sg63_23_cif.got.tgz:45752.got - 2010.04.10 19:34:48.
