data_PCOD8256720
_publ_section_title
;
Structure prediction by ZEFSAII (Michael W. Deem and Ramdas Pophale) SiO2 
 PCOD8256720
Probable space group: C M C M
;
_chemical_formula_sum "Si O2"
_cell_formula_units_Z 80
_cell_length_a 17.926820
_cell_length_b 32.215950
_cell_length_c 9.165322
_cell_angle_alpha 90.000000
_cell_angle_beta 90.000000
_cell_angle_gamma 90.000000
_cell_volume 5293.244169
_symmetry_space_group_name_H-M "C M C M"
_symmetry_group_IT_number 63
_symmetry_cell_setting 'orthorhombic'
loop_
_space_group_symop_operation_xyz
x,y,z
-x,-y,1/2+z
x,-y,-z
-x,y,1/2-z
-x,-y,-z
x,y,1/2-z
-x,y,z
x,-y,1/2+z
1/2+x,1/2+y,z
1/2-x,1/2-y,1/2+z
1/2+x,1/2-y,-z
1/2-x,1/2+y,1/2-z
1/2-x,1/2-y,-z
1/2+x,1/2+y,1/2-z
1/2-x,1/2+y,z
1/2+x,1/2-y,1/2+z
loop_
_atom_site_type_symbol
_atom_site_label
_atom_site_fract_x
_atom_site_fract_y
_atom_site_fract_z
Si Si1 0.328572 0.377148 0.422725
Si Si2 0.143273 0.199984 0.085678
Si Si3 0.706298 0.836445 0.914392
Si Si4 0.413369 0.787842 0.080423
Si Si5 0.914692 0.959019 0.079216
O O1 0.321859 0.373053 0.250000
O O2 0.380273 0.339174 0.483911
O O3 0.245998 0.374190 0.496275
O O4 0.365298 0.420204 0.471706
O O5 0.112565 0.192716 0.250000
O O6 0.234238 0.201904 0.087689
O O7 0.109383 0.242331 0.021122
O O8 0.687735 0.851163 0.750000
O O9 0.630391 0.822989 0.992308
O O10 0.391809 0.791340 0.250000
O O11 0.500000 0.795643 0.052676
O O12 0.907337 0.966491 0.250000
O O13 0.000000 0.950187 0.033704
O O14 0.883904 0.000000 0.000000
#
# Coordination Sequence:
#
# PCOD8256720 Si02
#       5
#    16  16  16  16  16
#     4   9  17  29  46  63  83 113 148 181 212 253
#     4   8  17  30  43  61  84 112 146 182 218 256
#     4   9  18  31  45  61  83 112 147 183 219 257
#     4  10  19  30  44  62  85 113 146 183 222 261
#     4   9  18  31  46  66  91 117 144 176 215 256
#
# _framework density 15.113604
#
# number of rings (size 3 to 8) (size 9 to 14) (size 15 to 20)
#    1.200    1.800    0.000    1.200    0.000    3.600 
#    0.000    0.000    0.000    0.000    0.000    0.000 
#    0.000    0.800    0.000    2.600    0.000    3.200 
#
# Total GULP energy -495622.901838 kJ/mol
# GULP energy per Si atom -12390.572546 kJ/mol
# Density = 1.507921 g / cm^3
# Si number density = 15.113604 Si / 1000 Ang^3
#
#
#
# Elastic Constant Matrix: (Units=GPa)
#
#
# Indices 1 2 3 4 5 6 
#
# 1 69.4614 52.5705 38.7023 0.0000 0.0000 0.0000
# 2 52.5705 94.8952 48.3447 0.0000 0.0000 0.0000
# 3 38.7023 48.3447 72.3437 0.0000 0.0000 0.0000
# 4 0.0000 0.0000 0.0000 23.7581 0.0000 0.0000
# 5 0.0000 0.0000 0.0000 0.0000 20.3791 0.0000
# 6 0.0000 0.0000 0.0000 0.0000 0.0000 21.5811
#
#
#
# Elastic Compliance Matrix: (Units=1/GPa)
#
#
# Indices 1 2 3 4 5 6 
#
# 1 0.026766 -0.011422 -0.006687 0.000000 0.000000 0.000000
# 2 -0.011422 0.020851 -0.007824 0.000000 0.000000 0.000000
# 3 -0.006687 -0.007824 0.022629 0.000000 0.000000 0.000000
# 4 0.000000 0.000000 0.000000 0.042091 0.000000 0.000000
# 5 0.000000 0.000000 0.000000 0.000000 0.049070 0.000000
# 6 0.000000 0.000000 0.000000 0.000000 0.000000 0.046337
#
#
# Mechanical properties :
#
#
# Convention : Reuss Voigt Hill
#
# Bulk Modulus (GPa) = 54.40170 57.32614 55.86392
# Shear Modulus (GPa) = 18.81570 19.61585 19.21577
#
# Velocity S-wave (km/s) = 3.53221 3.60654 3.56957
# Velocity P-wave (km/s) = 7.26008 7.44012 7.35065
#
# Compressibility (1/GPa) = 0.01838178
#
# Stress axis : x y z
#
# Youngs Moduli (GPa) = 37.36020 47.95894 44.19184
#
# Poissons Ratio (x) = 0.54777 0.29551
# Poissons Ratio (y) = 0.42671 0.34575
# Poissons Ratio (z) = 0.24982 0.37522
#
# Static dielectric constant tensor:
#      x y z
#    x 2.682990 0.000000 0.000000 
#    y 0.000000 2.699810 0.000000 
#    z 0.000000 0.000000 2.895060 
# 
# 
# High freq. dielectric constant tensor:
#      x y z
#    x 1.553960 0.000000 0.000000 
#    y 0.000000 1.548280 0.000000 
#    z 0.000000 0.000000 1.586550 
# 
# From -- ./inp_files/6402.got.cif
#   From: 2010.03.12/outbox.cif.g09.slc.cpg/sg63_4_cif.got.tgz:6402.got - 2010.04.10 19:34:48.
