data_PCOD8256221
_publ_section_title
;
Structure prediction by ZEFSAII (Michael W. Deem and Ramdas Pophale) SiO2 
 PCOD8256221
Probable space group: C M C M
;
_chemical_formula_sum "Si O2"
_cell_formula_units_Z 112
_cell_length_a 22.201140
_cell_length_b 14.951818
_cell_length_c 13.921167
_cell_angle_alpha 90.000000
_cell_angle_beta 90.000000
_cell_angle_gamma 90.000000
_cell_volume 4621.095256
_symmetry_space_group_name_H-M "C M C M"
_symmetry_group_IT_number 63
_symmetry_cell_setting 'orthorhombic'
loop_
_space_group_symop_operation_xyz
x,y,z
-x,-y,1/2+z
x,-y,-z
-x,y,1/2-z
-x,-y,-z
x,y,1/2-z
-x,y,z
x,-y,1/2+z
1/2+x,1/2+y,z
1/2-x,1/2-y,1/2+z
1/2+x,1/2-y,-z
1/2-x,1/2+y,1/2-z
1/2-x,1/2-y,-z
1/2+x,1/2+y,1/2-z
1/2-x,1/2+y,z
1/2+x,1/2-y,1/2+z
loop_
_atom_site_type_symbol
_atom_site_label
_atom_site_fract_x
_atom_site_fract_y
_atom_site_fract_z
Si Si1 0.170051 0.594486 0.365482
Si Si2 0.772038 0.967082 0.358743
Si Si3 0.595794 0.515702 0.641848
Si Si4 0.774030 0.225075 0.858738
Si Si5 0.931601 0.465634 0.137297
Si Si6 0.632537 0.781152 0.141505
Si Si7 0.934517 0.857491 0.983268
O O1 0.174992 0.596807 0.250000
O O2 0.221078 0.527417 0.407894
O O3 0.187092 0.693503 0.407531
O O4 0.104541 0.555499 0.399138
O O5 0.750506 0.945496 0.250000
O O6 0.835188 0.019513 0.360580
O O7 0.783661 0.870954 0.410914
O O8 0.572647 0.530351 0.750000
O O9 0.590696 0.610081 0.586181
O O10 0.557218 0.440636 0.589527
O O11 0.797914 0.219447 0.750000
O O12 0.702845 0.239950 0.862359
O O13 0.938924 0.472857 0.250000
O O14 0.888506 0.381397 0.112292
O O15 0.000000 0.460615 0.092657
O O16 0.608712 0.760511 0.250000
O O17 0.605882 0.718032 0.061458
O O18 0.000000 0.815386 0.000007
#
# Coordination Sequence:
#
# PCOD8256221 Si02
#       7
#    16  16  16  16  16  16  16
#     4   9  15  25  44  73 106 144 189 235 288 345
#     4   9  16  30  51  77 107 142 187 234 288 350
#     4  10  21  37  56  77 110 152 188 232 288 342
#     4   9  16  27  49  78 111 150 191 239 293 348
#     4   9  16  26  43  69 106 149 187 230 289 350
#     4  10  18  31  51  81 115 147 185 233 292 347
#     4  11  23  36  54  83 113 147 194 235 280 349
#
# _framework density 24.236678999999999
#
# number of rings (size 3 to 8) (size 9 to 14) (size 15 to 20)
#    0.000    2.429    1.429    2.571    0.000    4.857 
#    0.000    0.714    0.000    1.714    0.000    8.000 
#    0.000    2.286    0.000    0.143    0.000    0.000 
#
# Total GULP energy -693750.902401 kJ/mol
# GULP energy per Si atom -12388.408971 kJ/mol
# Density = 2.418152 g / cm^3
# Si number density = 24.236679 Si / 1000 Ang^3
#
#
#
# Elastic Constant Matrix: (Units=GPa)
#
#
# Indices 1 2 3 4 5 6 
#
# 1 96.0418 15.8026 -10.3201 0.0000 0.0000 0.0000
# 2 15.8026 104.4584 8.3844 0.0000 0.0000 0.0000
# 3 -10.3201 8.3844 74.3583 0.0000 0.0000 0.0000
# 4 0.0000 0.0000 0.0000 23.3876 0.0000 0.0000
# 5 0.0000 0.0000 0.0000 0.0000 -7.3234 0.0000
# 6 0.0000 0.0000 0.0000 0.0000 0.0000 16.8726
#
#
#
# Elastic Compliance Matrix: (Units=1/GPa)
#
#
# Indices 1 2 3 4 5 6 
#
# 1 0.010890 -0.001785 0.001713 0.000000 0.000000 0.000000
# 2 -0.001785 0.009953 -0.001370 0.000000 0.000000 0.000000
# 3 0.001713 -0.001370 0.013841 0.000000 0.000000 0.000000
# 4 0.000000 0.000000 0.000000 0.042758 0.000000 0.000000
# 5 0.000000 0.000000 0.000000 0.000000 -0.136548 0.000000
# 6 0.000000 0.000000 0.000000 0.000000 0.000000 0.059268
#
#
# Mechanical properties :
#
#
# Convention : Reuss Voigt Hill
#
# Bulk Modulus (GPa) = 31.44746 33.62137 32.53442
# Shear Modulus (GPa) = 366.43808 23.98679 195.21243
#
# Velocity S-wave (km/s) = 12.30934 3.14935 8.98438
# Velocity P-wave (km/s) = 14.66389 5.20833 11.00355
#
# Compressibility (1/GPa) = 0.03179907
#
# Stress axis : x y z
#
# Youngs Moduli (GPa) = 91.82861 100.47044 72.25131
#
# Poissons Ratio (x) = 0.17933 -0.12374
# Poissons Ratio (y) = 0.16390 0.09899
# Poissons Ratio (z) = -0.15727 0.13765
#
# Static dielectric constant tensor:
#      x y z
#    x 4.454130 0.000000 0.000000 
#    y 0.000000 4.537130 0.000000 
#    z 0.000000 0.000000 4.046200 
# 
# 
# High freq. dielectric constant tensor:
#      x y z
#    x 1.961540 0.000000 0.000000 
#    y 0.000000 1.954050 0.000000 
#    z 0.000000 0.000000 1.940620 
# 
# From -- ./inp_files/36907.got.cif
#   From: 2010.03.12/outbox.cif.g09.slc.cpg/sg63_19_cif.got.tgz:36907.got - 2010.04.10 19:34:48.
