data_PCOD8256543
_publ_section_title
;
Structure prediction by ZEFSAII (Michael W. Deem and Ramdas Pophale) SiO2 
 PCOD8256543
Probable space group: C M C M
;
_chemical_formula_sum "Si O2"
_cell_formula_units_Z 80
_cell_length_a 9.048088
_cell_length_b 20.481544
_cell_length_c 22.987250
_cell_angle_alpha 90.000000
_cell_angle_beta 90.000000
_cell_angle_gamma 90.000000
_cell_volume 4259.969872
_symmetry_space_group_name_H-M "C M C M"
_symmetry_group_IT_number 63
_symmetry_cell_setting 'orthorhombic'
loop_
_space_group_symop_operation_xyz
x,y,z
-x,-y,1/2+z
x,-y,-z
-x,y,1/2-z
-x,-y,-z
x,y,1/2-z
-x,y,z
x,-y,1/2+z
1/2+x,1/2+y,z
1/2-x,1/2-y,1/2+z
1/2+x,1/2-y,-z
1/2-x,1/2+y,1/2-z
1/2-x,1/2-y,-z
1/2+x,1/2+y,1/2-z
1/2-x,1/2+y,z
1/2+x,1/2-y,1/2+z
loop_
_atom_site_type_symbol
_atom_site_label
_atom_site_fract_x
_atom_site_fract_y
_atom_site_fract_z
Si Si1 0.331063 0.506892 0.373982
Si Si2 0.824410 0.740097 0.126432
Si Si3 0.324577 0.196292 0.250000
Si Si4 0.669144 0.439973 0.750000
Si Si5 0.175056 0.384096 0.554185
Si Si6 0.827989 0.127931 0.931815
O O1 0.500000 0.525803 0.388771
O O2 0.295884 0.515980 0.306057
O O3 0.225224 0.551303 0.412598
O O4 0.300334 0.431491 0.387875
O O5 0.764130 0.732897 0.192447
O O6 0.765343 0.679562 0.088249
O O7 0.764334 0.807159 0.099072
O O8 0.000000 0.740377 0.127184
O O9 0.500000 0.195045 0.250000
O O10 0.273894 0.121995 0.250000
O O11 0.500000 0.415795 0.750000
O O12 0.239450 0.384849 0.490110
O O13 0.000000 0.384062 0.550313
O O14 0.000000 0.135897 0.947456
#
# Coordination Sequence:
#
# PCOD8256543 Si02
#       6
#    16  16   8   8  16  16
#     4  10  21  36  56  80 108 142 178 220 268 317
#     4   9  19  34  56  82 106 138 179 221 265 315
#     4  10  18  35  59  81 105 137 178 220 266 320
#     4  10  20  35  55  81 107 135 176 220 266 318
#     4  11  21  35  56  81 109 143 183 221 262 316
#     4  10  21  37  54  78 111 143 178 220 268 316
#
# _framework density 18.779474
#
# number of rings (size 3 to 8) (size 9 to 14) (size 15 to 20)
#    0.000    2.000    2.000    1.800    0.000    4.000 
#    0.000    6.000    0.000    0.000    0.000    2.800 
#    0.000    0.000    0.000    0.000    0.000    0.000 
#
# Total GULP energy -496095.716648 kJ/mol
# GULP energy per Si atom -12402.392916 kJ/mol
# Density = 1.873673 g / cm^3
# Si number density = 18.779474 Si / 1000 Ang^3
#
#
#
# Elastic Constant Matrix: (Units=GPa)
#
#
# Indices 1 2 3 4 5 6 
#
# 1 42.2619 29.3317 36.5065 0.0000 0.0000 0.0000
# 2 29.3317 110.2326 47.0467 0.0000 0.0000 0.0000
# 3 36.5065 47.0467 148.3328 0.0000 0.0000 0.0000
# 4 0.0000 0.0000 0.0000 -181.8724 0.0000 0.0000
# 5 0.0000 0.0000 0.0000 0.0000 7.0151 0.0000
# 6 0.0000 0.0000 0.0000 0.0000 0.0000 24.2128
#
#
#
# Elastic Compliance Matrix: (Units=1/GPa)
#
#
# Indices 1 2 3 4 5 6 
#
# 1 0.033366 -0.006215 -0.006241 0.000000 0.000000 0.000000
# 2 -0.006215 0.011650 -0.002165 0.000000 0.000000 0.000000
# 3 -0.006241 -0.002165 0.008964 0.000000 0.000000 0.000000
# 4 0.000000 0.000000 0.000000 -0.005498 0.000000 0.000000
# 5 0.000000 0.000000 0.000000 0.000000 0.142550 0.000000
# 6 0.000000 0.000000 0.000000 0.000000 0.000000 0.041300
#
#
# Mechanical properties :
#
#
# Convention : Reuss Voigt Hill
#
# Bulk Modulus (GPa) = 40.42317 58.51077 49.46697
# Shear Modulus (GPa) = 18.53089 -17.59940 0.46574
#
# Velocity S-wave (km/s) = 3.14469 -3.06463 0.49854
# Velocity P-wave (km/s) = 5.89553 4.32456 5.17006
#
# Compressibility (1/GPa) = 0.02473829
#
# Stress axis : x y z
#
# Youngs Moduli (GPa) = 29.97045 85.83986 111.55384
#
# Poissons Ratio (x) = 0.53349 0.69617
# Poissons Ratio (y) = 0.18626 0.24155
# Poissons Ratio (z) = 0.18704 0.18587
#
# Static dielectric constant tensor:
#      x y z
#    x 3.230870 0.000000 0.000000 
#    y 0.000000 3.644620 0.000000 
#    z 0.000000 0.000000 3.785140 
# 
# 
# High freq. dielectric constant tensor:
#      x y z
#    x 1.704150 0.000000 0.000000 
#    y 0.000000 1.734420 0.000000 
#    z 0.000000 0.000000 1.746220 
# 
# From -- ./inp_files/50898.got.cif
#   From: 2010.03.12/outbox.cif.g09.slc.cpg/sg63_26_cif.got.tgz:50898.got - 2010.04.10 19:34:48.
