data_PCOD8256659
_publ_section_title
;
Structure prediction by ZEFSAII (Michael W. Deem and Ramdas Pophale) SiO2 
 PCOD8256659
Probable space group: C M C M
;
_chemical_formula_sum "Si O2"
_cell_formula_units_Z 80
_cell_length_a 8.911717
_cell_length_b 19.401628
_cell_length_c 26.145742
_cell_angle_alpha 90.000000
_cell_angle_beta 90.000000
_cell_angle_gamma 90.000000
_cell_volume 4520.646327
_symmetry_space_group_name_H-M "C M C M"
_symmetry_group_IT_number 63
_symmetry_cell_setting 'orthorhombic'
loop_
_space_group_symop_operation_xyz
x,y,z
-x,-y,1/2+z
x,-y,-z
-x,y,1/2-z
-x,-y,-z
x,y,1/2-z
-x,y,z
x,-y,1/2+z
1/2+x,1/2+y,z
1/2-x,1/2-y,1/2+z
1/2+x,1/2-y,-z
1/2-x,1/2+y,1/2-z
1/2-x,1/2-y,-z
1/2+x,1/2+y,1/2-z
1/2-x,1/2+y,z
1/2+x,1/2-y,1/2+z
loop_
_atom_site_type_symbol
_atom_site_label
_atom_site_fract_x
_atom_site_fract_y
_atom_site_fract_z
Si Si1 0.321451 0.129221 0.191907
Si Si2 0.324016 0.270453 0.882692
Si Si3 0.173340 0.520742 0.387860
Si Si4 0.674419 0.138248 0.034574
Si Si5 0.676935 0.123987 0.920285
O O1 0.265715 0.122700 0.250000
O O2 0.500000 0.133712 0.187926
O O3 0.256380 0.198894 0.167252
O O4 0.257956 0.063331 0.160168
O O5 0.500000 0.283264 0.878029
O O6 0.266972 0.304462 0.934971
O O7 0.284998 0.189176 0.884715
O O8 0.197357 0.563497 0.439854
O O9 0.248324 0.445129 0.394777
O O10 0.000000 0.510207 0.375439
O O11 0.500000 0.159849 0.036041
O O12 0.741022 0.135001 0.977426
O O13 0.500000 0.113105 0.926545
#
# Coordination Sequence:
#
# PCOD8256659 Si02
#       5
#    16  16  16  16  16
#     4   9  18  34  54  69  82 110 153 194 229 270
#     4  10  19  29  44  69  98 123 147 180 223 268
#     4   8  14  26  46  70  90 111 148 193 227 256
#     4   9  16  28  47  67  91 127 160 181 208 255
#     4   9  16  26  43  70  99 121 146 184 225 262
#
# _framework density 17.696584000000001
#
# number of rings (size 3 to 8) (size 9 to 14) (size 15 to 20)
#    0.000    3.000    0.000    3.000    0.000    2.800 
#    0.000    2.000    0.000   22.800    0.000    0.000 
#    0.000    0.000    0.000    0.000    0.000    0.000 
#
# Total GULP energy -495809.307693 kJ/mol
# GULP energy per Si atom -12395.232692 kJ/mol
# Density = 1.765631 g / cm^3
# Si number density = 17.696584 Si / 1000 Ang^3
#
#
#
# Elastic Constant Matrix: (Units=GPa)
#
#
# Indices 1 2 3 4 5 6 
#
# 1 23.0088 25.2069 21.0058 0.0000 0.0000 0.0000
# 2 25.2069 124.8325 56.2220 0.0000 0.0000 0.0000
# 3 21.0058 56.2220 133.2593 0.0000 0.0000 0.0000
# 4 0.0000 0.0000 0.0000 13.7357 0.0000 0.0000
# 5 0.0000 0.0000 0.0000 0.0000 18.4388 0.0000
# 6 0.0000 0.0000 0.0000 0.0000 0.0000 19.3667
#
#
#
# Elastic Compliance Matrix: (Units=1/GPa)
#
#
# Indices 1 2 3 4 5 6 
#
# 1 0.058632 -0.009478 -0.005244 0.000000 0.000000 0.000000
# 2 -0.009478 0.011422 -0.003325 0.000000 0.000000 0.000000
# 3 -0.005244 -0.003325 0.009734 0.000000 0.000000 0.000000
# 4 0.000000 0.000000 0.000000 0.072803 0.000000 0.000000
# 5 0.000000 0.000000 0.000000 0.000000 0.054233 0.000000
# 6 0.000000 0.000000 0.000000 0.000000 0.000000 0.051635
#
#
# Mechanical properties :
#
#
# Convention : Reuss Voigt Hill
#
# Bulk Modulus (GPa) = 22.88597 53.99668 38.44133
# Shear Modulus (GPa) = 16.17514 22.21929 19.19722
#
# Velocity S-wave (km/s) = 3.02657 3.54725 3.29720
# Velocity P-wave (km/s) = 5.01737 6.88157 6.02204
#
# Compressibility (1/GPa) = 0.04369488
#
# Stress axis : x y z
#
# Youngs Moduli (GPa) = 17.05560 87.55024 102.73782
#
# Poissons Ratio (x) = 0.82977 0.53871
# Poissons Ratio (y) = 0.16165 0.34160
# Poissons Ratio (z) = 0.08943 0.29110
#
# Static dielectric constant tensor:
#      x y z
#    x 2.894900 0.000000 0.000000 
#    y 0.000000 3.524160 0.000000 
#    z 0.000000 0.000000 3.339920 
# 
# 
# High freq. dielectric constant tensor:
#      x y z
#    x 1.641110 0.000000 0.000000 
#    y 0.000000 1.691450 0.000000 
#    z 0.000000 0.000000 1.673720 
# 
# From -- ./inp_files/66552.got.cif
#   From: 2010.03.12/outbox.cif.g09.slc.cpg/sg63_34_cif.got.tgz:66552.got - 2010.04.10 19:34:48.
