data_PCOD8256524
_publ_section_title
;
Structure prediction by ZEFSAII (Michael W. Deem and Ramdas Pophale) SiO2 
 PCOD8256524
Probable space group: C M C M
;
_chemical_formula_sum "Si O2"
_cell_formula_units_Z 88
_cell_length_a 17.993841
_cell_length_b 29.897661
_cell_length_c 8.637849
_cell_angle_alpha 90.000000
_cell_angle_beta 90.000000
_cell_angle_gamma 90.000000
_cell_volume 4646.936090
_symmetry_space_group_name_H-M "C M C M"
_symmetry_group_IT_number 63
_symmetry_cell_setting 'orthorhombic'
loop_
_space_group_symop_operation_xyz
x,y,z
-x,-y,1/2+z
x,-y,-z
-x,y,1/2-z
-x,-y,-z
x,y,1/2-z
-x,y,z
x,-y,1/2+z
1/2+x,1/2+y,z
1/2-x,1/2-y,1/2+z
1/2+x,1/2-y,-z
1/2-x,1/2+y,1/2-z
1/2-x,1/2-y,-z
1/2+x,1/2+y,1/2-z
1/2-x,1/2+y,z
1/2+x,1/2-y,1/2+z
loop_
_atom_site_type_symbol
_atom_site_label
_atom_site_fract_x
_atom_site_fract_y
_atom_site_fract_z
Si Si1 0.585342 0.740311 0.923002
Si Si2 0.770306 0.114849 0.567491
Si Si3 0.795545 0.290947 0.067808
Si Si4 0.151748 0.450657 0.566727
Si Si5 0.000000 0.450210 0.065746
Si Si6 0.584388 0.354559 0.932061
O O1 0.616883 0.731437 0.750000
O O2 0.500000 0.752174 0.917149
O O3 0.621943 0.784090 0.000057
O O4 0.602610 0.696362 0.022761
O O5 0.763691 0.107519 0.750000
O O6 0.737244 0.162153 0.511130
O O7 0.724453 0.076784 0.480776
O O8 0.857104 0.112679 0.517080
O O9 0.797057 0.288809 0.250000
O O10 0.750000 0.250000 0.000000
O O11 0.162042 0.500000 0.500000
O O12 0.144510 0.452916 0.750000
O O13 0.076334 0.427598 0.497152
O O14 0.000000 0.449330 0.250000
O O15 0.000000 0.500000 0.000000
O O16 0.593689 0.360054 0.750000
O O17 0.500000 0.366907 0.984290
#
# Coordination Sequence:
#
# PCOD8256524 Si02
#       6
#    16  16  16  16   8  16
#     4  10  20  34  52  74 104 145 189 232 278 329
#     4  11  23  38  57  84 114 150 190 233 285 340
#     4  11  22  35  54  78 110 148 187 231 280 331
#     4  11  22  39  63  89 117 150 188 234 282 335
#     4  10  18  34  60  88 118 150 188 230 276 334
#     4  10  20  34  55  82 110 145 190 236 280 333
#
# _framework density 18.937207999999998
#
# number of rings (size 3 to 8) (size 9 to 14) (size 15 to 20)
#    0.000    1.455    1.818    5.727    0.000    4.364 
#    1.636    0.000    0.000    0.545    0.000    0.000 
#    0.000    0.000    0.000    0.000    0.000    0.000 
#
# Total GULP energy -545560.523620 kJ/mol
# GULP energy per Si atom -12399.102810 kJ/mol
# Density = 1.889411 g / cm^3
# Si number density = 18.937208 Si / 1000 Ang^3
#
#
#
# Elastic Constant Matrix: (Units=GPa)
#
#
# Indices 1 2 3 4 5 6 
#
# 1 136.8607 50.7493 51.2446 0.0000 0.0000 0.0000
# 2 50.7493 66.9773 38.3982 0.0000 0.0000 0.0000
# 3 51.2446 38.3982 113.9549 0.0000 0.0000 0.0000
# 4 0.0000 0.0000 0.0000 26.1823 0.0000 0.0000
# 5 0.0000 0.0000 0.0000 0.0000 36.6818 0.0000
# 6 0.0000 0.0000 0.0000 0.0000 0.0000 28.4170
#
#
#
# Elastic Compliance Matrix: (Units=1/GPa)
#
#
# Indices 1 2 3 4 5 6 
#
# 1 0.010744 -0.006657 -0.002588 0.000000 0.000000 0.000000
# 2 -0.006657 0.022630 -0.004632 0.000000 0.000000 0.000000
# 3 -0.002588 -0.004632 0.011500 0.000000 0.000000 0.000000
# 4 0.000000 0.000000 0.000000 0.038194 0.000000 0.000000
# 5 0.000000 0.000000 0.000000 0.000000 0.027261 0.000000
# 6 0.000000 0.000000 0.000000 0.000000 0.000000 0.035190
#
#
# Mechanical properties :
#
#
# Convention : Reuss Voigt Hill
#
# Bulk Modulus (GPa) = 58.41186 66.50856 62.46021
# Shear Modulus (GPa) = 27.93587 30.08295 29.00941
#
# Velocity S-wave (km/s) = 3.84498 3.99000 3.91816
# Velocity P-wave (km/s) = 7.11504 7.51157 7.31599
#
# Compressibility (1/GPa) = 0.01711981
#
# Stress axis : x y z
#
# Youngs Moduli (GPa) = 93.07124 44.18909 86.95556
#
# Poissons Ratio (x) = 0.29418 0.22508
# Poissons Ratio (y) = 0.61959 0.40275
# Poissons Ratio (z) = 0.24091 0.20467
#
# Static dielectric constant tensor:
#      x y z
#    x 4.122980 0.000000 0.000000 
#    y 0.000000 3.174530 0.000000 
#    z 0.000000 0.000000 3.725760 
# 
# 
# High freq. dielectric constant tensor:
#      x y z
#    x 1.757240 0.000000 0.000000 
#    y 0.000000 1.690420 0.000000 
#    z 0.000000 0.000000 1.754610 
# 
# From -- ./inp_files/6792.got.cif
#   From: 2010.03.12/outbox.cif.g09.slc.cpg/sg63_4_cif.got.tgz:6792.got - 2010.04.10 19:34:48.
