data_PCOD8256944
_publ_section_title
;
Structure prediction by ZEFSAII (Michael W. Deem and Ramdas Pophale) SiO2 
 PCOD8256944
Probable space group: C M C M
;
_chemical_formula_sum "Si O2"
_cell_formula_units_Z 96
_cell_length_a 14.346012
_cell_length_b 27.391710
_cell_length_c 14.479795
_cell_angle_alpha 90.000000
_cell_angle_beta 90.000000
_cell_angle_gamma 90.000000
_cell_volume 5690.006312
_symmetry_space_group_name_H-M "C M C M"
_symmetry_group_IT_number 63
_symmetry_cell_setting 'orthorhombic'
loop_
_space_group_symop_operation_xyz
x,y,z
-x,-y,1/2+z
x,-y,-z
-x,y,1/2-z
-x,-y,-z
x,y,1/2-z
-x,y,z
x,-y,1/2+z
1/2+x,1/2+y,z
1/2-x,1/2-y,1/2+z
1/2+x,1/2-y,-z
1/2-x,1/2+y,1/2-z
1/2-x,1/2-y,-z
1/2+x,1/2+y,1/2-z
1/2-x,1/2+y,z
1/2+x,1/2-y,1/2+z
loop_
_atom_site_type_symbol
_atom_site_label
_atom_site_fract_x
_atom_site_fract_y
_atom_site_fract_z
Si Si1 0.105193 0.329506 0.858823
Si Si2 0.390257 0.365548 0.146315
Si Si3 0.608604 0.294098 0.849878
Si Si4 0.605000 0.557629 0.494167
Si Si5 0.610359 0.267984 0.047418
Si Si6 0.774040 0.891156 0.852391
O O1 0.108344 0.321075 0.750000
O O2 0.148825 0.280231 0.902449
O O3 0.171097 0.374721 0.887292
O O4 0.000000 0.340451 0.893363
O O5 0.347289 0.369565 0.250000
O O6 0.500000 0.359699 0.154888
O O7 0.349084 0.317645 0.093693
O O8 0.365566 0.414633 0.088782
O O9 0.629294 0.267970 0.750000
O O10 0.500000 0.305600 0.860019
O O11 0.658460 0.345407 0.852230
O O12 0.640772 0.263110 0.939373
O O13 0.606514 0.500000 0.500000
O O14 0.500000 0.574844 0.466353
O O15 0.682267 0.568405 0.417598
O O16 0.500000 0.268418 0.058913
O O17 0.766079 0.913771 0.750000
#
# Coordination Sequence:
#
# PCOD8256944 Si02
#       6
#    16  16  16  16  16  16
#     4   9  18  31  47  69  94 121 156 197 238 276
#     4   9  16  27  43  63  89 121 154 186 224 273
#     4   9  16  26  41  63  93 125 155 186 223 273
#     4  10  20  33  48  68  95 124 154 189 231 281
#     4   9  15  26  45  65  89 124 157 189 230 274
#     4  10  19  31  48  69  93 123 157 195 234 277
#
# _framework density 16.871686
#
# number of rings (size 3 to 8) (size 9 to 14) (size 15 to 20)
#    0.000    2.667    1.667    1.000    0.000    4.333 
#    0.000    1.667    0.000    0.500    0.000    0.000 
#    0.000    0.000    0.000    0.000    0.000    0.000 
#
# Total GULP energy -594756.991858 kJ/mol
# GULP energy per Si atom -12390.770664 kJ/mol
# Density = 1.683329 g / cm^3
# Si number density = 16.871686 Si / 1000 Ang^3
#
#
#
# Elastic Constant Matrix: (Units=GPa)
#
#
# Indices 1 2 3 4 5 6 
#
# 1 49.1317 34.2953 34.4317 0.0000 0.0000 0.0000
# 2 34.2953 63.7736 46.1540 0.0000 0.0000 0.0000
# 3 34.4317 46.1540 110.6637 0.0000 0.0000 0.0000
# 4 0.0000 0.0000 0.0000 20.0774 0.0000 0.0000
# 5 0.0000 0.0000 0.0000 0.0000 15.6151 0.0000
# 6 0.0000 0.0000 0.0000 0.0000 0.0000 15.7308
#
#
#
# Elastic Compliance Matrix: (Units=1/GPa)
#
#
# Indices 1 2 3 4 5 6 
#
# 1 0.033906 -0.015181 -0.004218 0.000000 0.000000 0.000000
# 2 -0.015181 0.029257 -0.007479 0.000000 0.000000 0.000000
# 3 -0.004218 -0.007479 0.013468 0.000000 0.000000 0.000000
# 4 0.000000 0.000000 0.000000 0.049807 0.000000 0.000000
# 5 0.000000 0.000000 0.000000 0.000000 0.064041 0.000000
# 6 0.000000 0.000000 0.000000 0.000000 0.000000 0.063570
#
#
# Mechanical properties :
#
#
# Convention : Reuss Voigt Hill
#
# Bulk Modulus (GPa) = 43.71484 50.37014 47.04249
# Shear Modulus (GPa) = 15.85145 17.53052 16.69099
#
# Velocity S-wave (km/s) = 3.06850 3.22693 3.14871
# Velocity P-wave (km/s) = 6.20650 6.61844 6.41578
#
# Compressibility (1/GPa) = 0.02287553
#
# Stress axis : x y z
#
# Youngs Moduli (GPa) = 29.49311 34.18026 74.25091
#
# Poissons Ratio (x) = 0.51889 0.31320
# Poissons Ratio (y) = 0.44773 0.55529
# Poissons Ratio (z) = 0.12440 0.25562
#
# Static dielectric constant tensor:
#      x y z
#    x 3.238010 0.000000 0.000000 
#    y 0.000000 2.911920 0.000000 
#    z 0.000000 0.000000 3.618110 
# 
# 
# High freq. dielectric constant tensor:
#      x y z
#    x 1.626980 0.000000 0.000000 
#    y 0.000000 1.611810 0.000000 
#    z 0.000000 0.000000 1.661390 
# 
# From -- ./inp_files/32692.got.cif
#   From: 2010.03.12/outbox.cif.g09.slc.cpg/sg63_17_cif.got.tgz:32692.got - 2010.04.10 19:34:48.
