data_PCOD8256471
_publ_section_title
;
Structure prediction by ZEFSAII (Michael W. Deem and Ramdas Pophale) SiO2 
 PCOD8256471
Probable space group: C M C M
;
_chemical_formula_sum "Si O2"
_cell_formula_units_Z 64
_cell_length_a 8.844644
_cell_length_b 20.157145
_cell_length_c 19.360770
_cell_angle_alpha 90.000000
_cell_angle_beta 90.000000
_cell_angle_gamma 90.000000
_cell_volume 3451.691736
_symmetry_space_group_name_H-M "C M C M"
_symmetry_group_IT_number 63
_symmetry_cell_setting 'orthorhombic'
loop_
_space_group_symop_operation_xyz
x,y,z
-x,-y,1/2+z
x,-y,-z
-x,y,1/2-z
-x,-y,-z
x,y,1/2-z
-x,y,z
x,-y,1/2+z
1/2+x,1/2+y,z
1/2-x,1/2-y,1/2+z
1/2+x,1/2-y,-z
1/2-x,1/2+y,1/2-z
1/2-x,1/2-y,-z
1/2+x,1/2+y,1/2-z
1/2-x,1/2+y,z
1/2+x,1/2-y,1/2+z
loop_
_atom_site_type_symbol
_atom_site_label
_atom_site_fract_x
_atom_site_fract_y
_atom_site_fract_z
Si Si1 0.177481 0.310961 0.039367
Si Si2 0.320391 0.491056 0.825231
Si Si3 0.172223 0.929826 0.537028
Si Si4 0.823272 0.859176 0.171601
O O1 0.235168 0.311974 0.118454
O O2 0.000000 0.301625 0.039578
O O3 0.250000 0.250000 0.000000
O O4 0.219787 0.378656 0.000711
O O5 0.263709 0.465528 0.750000
O O6 0.500000 0.495417 0.826461
O O7 0.265937 0.440530 0.884637
O O8 0.261294 0.565813 0.838139
O O9 0.000000 0.902704 0.536453
O O10 0.179381 0.000000 0.500000
O O11 0.792678 0.834918 0.250000
O O12 0.000000 0.855584 0.153780
#
# Coordination Sequence:
#
# PCOD8256471 Si02
#       4
#    16  16  16  16
#     4  12  25  39  56  80 115 153 196 239 284 336
#     4   8  14  27  52  84 113 143 180 223 274 336
#     4  10  18  33  58  84 112 145 185 229 282 343
#     4   9  17  34  60  86 112 144 184 228 280 341
#
# _framework density 18.541633000000001
#
# number of rings (size 3 to 8) (size 9 to 14) (size 15 to 20)
#    0.000    2.250    2.500    3.750    0.000    1.000 
#    0.000    1.250    0.000    5.250    0.000    0.000 
#    0.000    0.000    0.000    0.000    0.000    0.000 
#
# Total GULP energy -396682.017533 kJ/mol
# GULP energy per Si atom -12396.313048 kJ/mol
# Density = 1.849943 g / cm^3
# Si number density = 18.541633 Si / 1000 Ang^3
#
#
#
# Elastic Constant Matrix: (Units=GPa)
#
#
# Indices 1 2 3 4 5 6 
#
# 1 92.5237 36.3212 54.7701 0.0000 0.0000 0.0000
# 2 36.3212 61.9521 47.6572 0.0000 0.0000 0.0000
# 3 54.7701 47.6572 162.6554 0.0000 0.0000 0.0000
# 4 0.0000 0.0000 0.0000 29.7612 0.0000 0.0000
# 5 0.0000 0.0000 0.0000 0.0000 25.7039 0.0000
# 6 0.0000 0.0000 0.0000 0.0000 0.0000 21.8073
#
#
#
# Elastic Compliance Matrix: (Units=1/GPa)
#
#
# Indices 1 2 3 4 5 6 
#
# 1 0.015263 -0.006448 -0.003250 0.000000 0.000000 0.000000
# 2 -0.006448 0.023562 -0.004732 0.000000 0.000000 0.000000
# 3 -0.003250 -0.004732 0.008629 0.000000 0.000000 0.000000
# 4 0.000000 0.000000 0.000000 0.033601 0.000000 0.000000
# 5 0.000000 0.000000 0.000000 0.000000 0.038905 0.000000
# 6 0.000000 0.000000 0.000000 0.000000 0.000000 0.045856
#
#
# Mechanical properties :
#
#
# Convention : Reuss Voigt Hill
#
# Bulk Modulus (GPa) = 53.78386 66.06980 59.92683
# Shear Modulus (GPa) = 24.89099 27.34666 26.11883
#
# Velocity S-wave (km/s) = 3.66790 3.84458 3.75728
# Velocity P-wave (km/s) = 6.85624 7.44435 7.15634
#
# Compressibility (1/GPa) = 0.01859294
#
# Stress axis : x y z
#
# Youngs Moduli (GPa) = 65.51616 42.44043 115.88882
#
# Poissons Ratio (x) = 0.27367 0.37667
# Poissons Ratio (y) = 0.42247 0.54843
# Poissons Ratio (z) = 0.21294 0.20084
#
# Static dielectric constant tensor:
#      x y z
#    x 3.118160 0.000000 0.000000 
#    y 0.000000 -11.659560 0.000000 
#    z 0.000000 0.000000 2.415670 
# 
# 
# High freq. dielectric constant tensor:
#      x y z
#    x 1.684730 0.000000 0.000000 
#    y 0.000000 1.688120 0.000000 
#    z 0.000000 0.000000 1.745580 
# 
# From -- ./inp_files/39836.got.cif
#   From: 2010.03.12/outbox.cif.g09.slc.cpg/sg63_20_cif.got.tgz:39836.got - 2010.04.10 19:34:48.
