data_PCOD8256308
_publ_section_title
;
Structure prediction by ZEFSAII (Michael W. Deem and Ramdas Pophale) SiO2 
 PCOD8256308
Probable space group: C M C M
;
_chemical_formula_sum "Si O2"
_cell_formula_units_Z 96
_cell_length_a 8.982358
_cell_length_b 25.637687
_cell_length_c 27.744361
_cell_angle_alpha 90.000000
_cell_angle_beta 90.000000
_cell_angle_gamma 90.000000
_cell_volume 6389.162413
_symmetry_space_group_name_H-M "C M C M"
_symmetry_group_IT_number 63
_symmetry_cell_setting 'orthorhombic'
loop_
_space_group_symop_operation_xyz
x,y,z
-x,-y,1/2+z
x,-y,-z
-x,y,1/2-z
-x,-y,-z
x,y,1/2-z
-x,y,z
x,-y,1/2+z
1/2+x,1/2+y,z
1/2-x,1/2-y,1/2+z
1/2+x,1/2-y,-z
1/2-x,1/2+y,1/2-z
1/2-x,1/2-y,-z
1/2+x,1/2+y,1/2-z
1/2-x,1/2+y,z
1/2+x,1/2-y,1/2+z
loop_
_atom_site_type_symbol
_atom_site_label
_atom_site_fract_x
_atom_site_fract_y
_atom_site_fract_z
Si Si1 0.164712 0.989516 0.192778
Si Si2 0.329618 0.111845 0.806828
Si Si3 0.175365 0.894814 0.694835
Si Si4 0.823044 0.751746 0.948166
Si Si5 0.331854 0.697110 0.868679
Si Si6 0.168264 0.688562 0.371665
O O1 0.156958 0.990028 0.250000
O O2 0.276313 0.944826 0.174203
O O3 0.000000 0.977582 0.172071
O O4 0.218176 0.047004 0.176278
O O5 0.304430 0.116630 0.750000
O O6 0.500000 0.118680 0.821463
O O7 0.235663 0.156912 0.831290
O O8 0.226096 0.886889 0.750000
O O9 0.261798 0.854313 0.662357
O O10 0.000000 0.885582 0.689908
O O11 0.765883 0.700864 0.917972
O O12 0.765105 0.804336 0.920831
O O13 0.000000 0.751770 0.952135
O O14 0.750000 0.750000 0.000000
O O15 0.500000 0.679937 0.881740
O O16 0.331821 0.755048 0.844438
O O17 0.000000 0.672074 0.385285
#
# Coordination Sequence:
#
# PCOD8256308 Si02
#       6
#    16  16  16  16  16  16
#     4   8  15  28  44  61  84 119 159 192 224 263
#     4  10  19  29  43  65  92 123 157 192 228 264
#     4   9  17  29  45  65  91 124 158 191 227 265
#     4  10  18  32  51  69  91 115 144 183 225 271
#     4   9  19  32  45  66  92 119 153 185 223 271
#     4   9  19  31  44  67  93 119 153 185 223 270
#
# _framework density 15.025442999999999
#
# number of rings (size 3 to 8) (size 9 to 14) (size 15 to 20)
#    1.000    1.833    0.000    3.500    0.000    2.667 
#    0.000    5.000    0.000    0.000    0.000    1.167 
#    0.000    9.333    0.000    0.000    0.000    0.000 
#
# Total GULP energy -594688.560068 kJ/mol
# GULP energy per Si atom -12389.345001 kJ/mol
# Density = 1.499124 g / cm^3
# Si number density = 15.025443 Si / 1000 Ang^3
#
#
#
# Elastic Constant Matrix: (Units=GPa)
#
#
# Indices 1 2 3 4 5 6 
#
# 1 123.4658 54.3830 49.1347 0.0000 0.0000 0.0000
# 2 54.3830 89.7560 38.3285 0.0000 0.0000 0.0000
# 3 49.1347 38.3285 54.1600 0.0000 0.0000 0.0000
# 4 0.0000 0.0000 0.0000 -3.1693 0.0000 0.0000
# 5 0.0000 0.0000 0.0000 0.0000 26.8533 0.0000
# 6 0.0000 0.0000 0.0000 0.0000 0.0000 28.7754
#
#
#
# Elastic Compliance Matrix: (Units=1/GPa)
#
#
# Indices 1 2 3 4 5 6 
#
# 1 0.013746 -0.004304 -0.009424 0.000000 0.000000 0.000000
# 2 -0.004304 0.017314 -0.008348 0.000000 0.000000 0.000000
# 3 -0.009424 -0.008348 0.032922 0.000000 0.000000 0.000000
# 4 0.000000 0.000000 0.000000 -0.315526 0.000000 0.000000
# 5 0.000000 0.000000 0.000000 0.000000 0.037239 0.000000
# 6 0.000000 0.000000 0.000000 0.000000 0.000000 0.034752
#
#
# Mechanical properties :
#
#
# Convention : Reuss Voigt Hill
#
# Bulk Modulus (GPa) = 50.43348 61.23048 55.83198
# Shear Modulus (GPa) = -38.82289 18.86092 -9.98098
#
# Velocity S-wave (km/s) = -5.08863 3.54682 -2.58014
# Velocity P-wave (km/s) = 0.94198 7.59031 5.32567
#
# Compressibility (1/GPa) = 0.01982810
#
# Stress axis : x y z
#
# Youngs Moduli (GPa) = 72.74954 57.75638 30.37494
#
# Poissons Ratio (x) = 0.24859 0.28627
# Poissons Ratio (y) = 0.31312 0.25358
# Poissons Ratio (z) = 0.68563 0.48217
#
# Static dielectric constant tensor:
#      x y z
#    x 3.047740 0.000000 0.000000 
#    y 0.000000 2.932490 0.000000 
#    z 0.000000 0.000000 2.565150 
# 
# 
# High freq. dielectric constant tensor:
#      x y z
#    x 1.591100 0.000000 0.000000 
#    y 0.000000 1.567380 0.000000 
#    z 0.000000 0.000000 1.535860 
# 
# From -- ./inp_files/67508.got.cif
#   From: 2010.03.12/outbox.cif.g09.slc.cpg/sg63_34_cif.got.tgz:67508.got - 2010.04.10 19:34:48.
