data_PCOD8256864
_publ_section_title
;
Structure prediction by ZEFSAII (Michael W. Deem and Ramdas Pophale) SiO2 
 PCOD8256864
Probable space group: C M C M
;
_chemical_formula_sum "Si O2"
_cell_formula_units_Z 96
_cell_length_a 25.164608
_cell_length_b 9.441506
_cell_length_c 20.557286
_cell_angle_alpha 90.000000
_cell_angle_beta 90.000000
_cell_angle_gamma 90.000000
_cell_volume 4884.242531
_symmetry_space_group_name_H-M "C M C M"
_symmetry_group_IT_number 63
_symmetry_cell_setting 'orthorhombic'
loop_
_space_group_symop_operation_xyz
x,y,z
-x,-y,1/2+z
x,-y,-z
-x,y,1/2-z
-x,-y,-z
x,y,1/2-z
-x,y,z
x,-y,1/2+z
1/2+x,1/2+y,z
1/2-x,1/2-y,1/2+z
1/2+x,1/2-y,-z
1/2-x,1/2+y,1/2-z
1/2-x,1/2-y,-z
1/2+x,1/2+y,1/2-z
1/2-x,1/2+y,z
1/2+x,1/2-y,1/2+z
loop_
_atom_site_type_symbol
_atom_site_label
_atom_site_fract_x
_atom_site_fract_y
_atom_site_fract_z
Si Si1 0.776197 0.000791 0.179905
Si Si2 0.755672 0.250889 0.898754
Si Si3 0.142027 0.655411 0.571870
Si Si4 0.367762 0.828481 0.928743
Si Si5 0.939292 0.836804 0.325063
Si Si6 0.890695 0.878595 0.822226
O O1 0.752731 0.043538 0.250000
O O2 0.750124 0.087038 0.121660
O O3 0.838821 0.023640 0.177930
O O4 0.760977 0.838407 0.167738
O O5 0.704302 0.197182 0.938603
O O6 0.811656 0.244023 0.935808
O O7 0.111061 0.678170 0.503309
O O8 0.138546 0.491771 0.593519
O O9 0.113133 0.750622 0.626509
O O10 0.405587 0.753261 0.876867
O O11 0.920728 0.807906 0.250000
O O12 0.000000 0.789857 0.334136
O O13 0.935869 0.006134 0.340103
O O14 0.900244 0.812844 0.750000
#
# Coordination Sequence:
#
# PCOD8256864 Si02
#       6
#    16  16  16  16  16  16
#     4  10  19  30  50  80 114 151 192 235 286 345
#     4  11  19  35  51  81 120 160 196 234 284 346
#     4  10  23  38  55  87 122 162 198 234 287 355
#     4  11  22  39  58  84 122 159 201 244 289 344
#     4  10  22  42  67  91 113 145 195 253 306 353
#     4   9  19  38  58  82 115 149 191 243 294 348
#
# _framework density 19.655042999999999
#
# number of rings (size 3 to 8) (size 9 to 14) (size 15 to 20)
#    0.000    1.833    3.333    1.000    0.000    2.667 
#    0.000    4.167    0.000    2.000    0.000    0.000 
#    0.000    0.000    0.000    0.000    0.000    0.000 
#
# Total GULP energy -594675.607586 kJ/mol
# GULP energy per Si atom -12389.075158 kJ/mol
# Density = 1.961031 g / cm^3
# Si number density = 19.655043 Si / 1000 Ang^3
#
#
#
# Elastic Constant Matrix: (Units=GPa)
#
#
# Indices 1 2 3 4 5 6 
#
# 1 64.4868 35.1911 49.3640 0.0000 0.0000 0.0000
# 2 35.1911 107.7167 66.3138 0.0000 0.0000 0.0000
# 3 49.3640 66.3138 131.2246 0.0000 0.0000 0.0000
# 4 0.0000 0.0000 0.0000 34.6326 0.0000 0.0000
# 5 0.0000 0.0000 0.0000 0.0000 18.3645 0.0000
# 6 0.0000 0.0000 0.0000 0.0000 0.0000 22.2071
#
#
#
# Elastic Compliance Matrix: (Units=1/GPa)
#
#
# Indices 1 2 3 4 5 6 
#
# 1 0.022471 -0.003102 -0.006885 0.000000 0.000000 0.000000
# 2 -0.003102 0.013904 -0.005859 0.000000 0.000000 0.000000
# 3 -0.006885 -0.005859 0.013172 0.000000 0.000000 0.000000
# 4 0.000000 0.000000 0.000000 0.028875 0.000000 0.000000
# 5 0.000000 0.000000 0.000000 0.000000 0.054453 0.000000
# 6 0.000000 0.000000 0.000000 0.000000 0.000000 0.045031
#
#
# Mechanical properties :
#
#
# Convention : Reuss Voigt Hill
#
# Bulk Modulus (GPa) = 56.01448 67.24065 61.62757
# Shear Modulus (GPa) = 23.19649 25.21145 24.20397
#
# Velocity S-wave (km/s) = 3.43910 3.58536 3.51299
# Velocity P-wave (km/s) = 6.65812 7.17108 6.91935
#
# Compressibility (1/GPa) = 0.01785253
#
# Stress axis : x y z
#
# Youngs Moduli (GPa) = 44.50257 71.91933 75.92066
#
# Poissons Ratio (x) = 0.22313 0.52273
# Poissons Ratio (y) = 0.13807 0.44486
# Poissons Ratio (z) = 0.30641 0.42141
#
# Static dielectric constant tensor:
#      x y z
#    x 3.364980 0.000000 0.000000 
#    y 0.000000 3.472730 0.000000 
#    z 0.000000 0.000000 3.558220 
# 
# 
# High freq. dielectric constant tensor:
#      x y z
#    x 1.733510 0.000000 0.000000 
#    y 0.000000 1.766920 0.000000 
#    z 0.000000 0.000000 1.770460 
# 
# From -- ./inp_files/58063.got.cif
#   From: 2010.03.12/outbox.cif.g09.slc.cpg/sg63_30_cif.got.tgz:58063.got - 2010.04.10 19:34:48.
