data_PCOD8256891
_publ_section_title
;
Structure prediction by ZEFSAII (Michael W. Deem and Ramdas Pophale) SiO2 
 PCOD8256891
Probable space group: C M C M
;
_chemical_formula_sum "Si O2"
_cell_formula_units_Z 104
_cell_length_a 26.349603
_cell_length_b 24.489346
_cell_length_c 9.185065
_cell_angle_alpha 90.000000
_cell_angle_beta 90.000000
_cell_angle_gamma 90.000000
_cell_volume 5926.980488
_symmetry_space_group_name_H-M "C M C M"
_symmetry_group_IT_number 63
_symmetry_cell_setting 'orthorhombic'
loop_
_space_group_symop_operation_xyz
x,y,z
-x,-y,1/2+z
x,-y,-z
-x,y,1/2-z
-x,-y,-z
x,y,1/2-z
-x,y,z
x,-y,1/2+z
1/2+x,1/2+y,z
1/2-x,1/2-y,1/2+z
1/2+x,1/2-y,-z
1/2-x,1/2+y,1/2-z
1/2-x,1/2-y,-z
1/2+x,1/2+y,1/2-z
1/2-x,1/2+y,z
1/2+x,1/2-y,1/2+z
loop_
_atom_site_type_symbol
_atom_site_label
_atom_site_fract_x
_atom_site_fract_y
_atom_site_fract_z
Si Si1 0.556248 0.840270 0.913970
Si Si2 0.277981 0.159582 0.420590
Si Si3 0.722101 0.052351 0.584706
Si Si4 0.500000 0.943627 0.916618
Si Si5 0.839328 0.843069 0.584143
Si Si6 0.140493 0.723054 0.919019
Si Si7 0.843091 0.052248 0.586369
O O1 0.578082 0.832689 0.750000
O O2 0.500000 0.813119 0.923300
O O3 0.549731 0.905446 0.949619
O O4 0.592466 0.811783 0.029700
O O5 0.288983 0.154652 0.250000
O O6 0.298144 0.104988 0.499287
O O7 0.219129 0.169505 0.454359
O O8 0.309491 0.209243 0.488465
O O9 0.701602 0.052798 0.750000
O O10 0.782658 0.051102 0.582906
O O11 0.700290 0.000000 0.500000
O O12 0.500000 0.960653 0.750000
O O13 0.500000 0.000000 0.000000
O O14 0.843364 0.863292 0.750000
O O15 0.870758 0.787473 0.557459
O O16 0.862335 0.891346 0.485718
O O17 0.151218 0.710708 0.750000
O O18 0.864143 0.049735 0.750000
O O19 0.864976 0.000000 0.500000
#
# Coordination Sequence:
#
# PCOD8256891 Si02
#       7
#    16  16  16   8  16  16  16
#     4   8  18  36  54  73  97 124 154 193 244 300
#     4  10  19  31  46  63  91 131 166 199 241 288
#     4   9  16  27  42  60  83 113 154 199 240 281
#     4   8  16  32  56  80 100 122 153 196 247 302
#     4   9  19  32  45  66  96 129 165 202 240 284
#     4  11  21  32  48  71  97 124 159 203 245 291
#     4   9  16  26  43  64  87 119 157 196 235 274
#
# _framework density 17.546878
#
# number of rings (size 3 to 8) (size 9 to 14) (size 15 to 20)
#    0.462    2.308    0.000    2.308    0.000    6.462 
#    0.000    0.769    0.000    1.846    0.000    0.000 
#    0.000    0.615    0.000    2.000    0.000    2.923 
#
# Total GULP energy -644503.648103 kJ/mol
# GULP energy per Si atom -12394.300925 kJ/mol
# Density = 1.750694 g / cm^3
# Si number density = 17.546878 Si / 1000 Ang^3
#
#
#
# Elastic Constant Matrix: (Units=GPa)
#
#
# Indices 1 2 3 4 5 6 
#
# 1 28.1076 23.9452 21.0465 0.0000 0.0000 0.0000
# 2 23.9452 126.7536 74.0956 0.0000 0.0000 0.0000
# 3 21.0465 74.0956 129.2179 0.0000 0.0000 0.0000
# 4 0.0000 0.0000 0.0000 36.2315 0.0000 0.0000
# 5 0.0000 0.0000 0.0000 0.0000 19.3964 0.0000
# 6 0.0000 0.0000 0.0000 0.0000 0.0000 13.6141
#
#
#
# Elastic Compliance Matrix: (Units=1/GPa)
#
#
# Indices 1 2 3 4 5 6 
#
# 1 0.043468 -0.006127 -0.003567 0.000000 0.000000 0.000000
# 2 -0.006127 0.012731 -0.006302 0.000000 0.000000 0.000000
# 3 -0.003567 -0.006302 0.011934 0.000000 0.000000 0.000000
# 4 0.000000 0.000000 0.000000 0.027600 0.000000 0.000000
# 5 0.000000 0.000000 0.000000 0.000000 0.051556 0.000000
# 6 0.000000 0.000000 0.000000 0.000000 0.000000 0.073453
#
#
# Mechanical properties :
#
#
# Convention : Reuss Voigt Hill
#
# Bulk Modulus (GPa) = 27.66945 58.02821 42.84883
# Shear Modulus (GPa) = 18.88368 24.84785 21.86577
#
# Velocity S-wave (km/s) = 3.28408 3.76717 3.53389
# Velocity P-wave (km/s) = 5.49394 7.21556 6.41279
#
# Compressibility (1/GPa) = 0.03614094
#
# Stress axis : x y z
#
# Youngs Moduli (GPa) = 23.00566 78.55034 83.79737
#
# Poissons Ratio (x) = 0.48124 0.29889
# Poissons Ratio (y) = 0.14094 0.52810
# Poissons Ratio (z) = 0.08206 0.49503
#
# Static dielectric constant tensor:
#      x y z
#    x 2.656090 0.000000 0.000000 
#    y 0.000000 3.335570 0.000000 
#    z 0.000000 0.000000 3.339720 
# 
# 
# High freq. dielectric constant tensor:
#      x y z
#    x 1.609560 0.000000 0.000000 
#    y 0.000000 1.684940 0.000000 
#    z 0.000000 0.000000 1.690880 
# 
# From -- ./inp_files/14683.got.cif
#   From: 2010.03.12/outbox.cif.g09.slc.cpg/sg63_8_cif.got.tgz:14683.got - 2010.04.10 19:34:48.
