data_PCOD8256574
_publ_section_title
;
Structure prediction by ZEFSAII (Michael W. Deem and Ramdas Pophale) SiO2 
 PCOD8256574
Probable space group: C M C M
;
_chemical_formula_sum "Si O2"
_cell_formula_units_Z 84
_cell_length_a 11.974496
_cell_length_b 29.231560
_cell_length_c 10.855711
_cell_angle_alpha 90.000000
_cell_angle_beta 90.000000
_cell_angle_gamma 90.000000
_cell_volume 3799.859241
_symmetry_space_group_name_H-M "C M C M"
_symmetry_group_IT_number 63
_symmetry_cell_setting 'orthorhombic'
loop_
_space_group_symop_operation_xyz
x,y,z
-x,-y,1/2+z
x,-y,-z
-x,y,1/2-z
-x,-y,-z
x,y,1/2-z
-x,y,z
x,-y,1/2+z
1/2+x,1/2+y,z
1/2-x,1/2-y,1/2+z
1/2+x,1/2-y,-z
1/2-x,1/2+y,1/2-z
1/2-x,1/2-y,-z
1/2+x,1/2+y,1/2-z
1/2-x,1/2+y,z
1/2+x,1/2-y,1/2+z
loop_
_atom_site_type_symbol
_atom_site_label
_atom_site_fract_x
_atom_site_fract_y
_atom_site_fract_z
Si Si1 0.264511 0.966512 0.109596
Si Si2 0.838876 0.333246 0.750000
Si Si3 0.704926 0.199366 0.999686
Si Si4 0.500000 0.934178 0.481909
Si Si5 0.621362 0.377493 0.750000
Si Si6 0.870868 0.885037 0.017136
Si Si7 0.000000 0.415361 0.750000
Si Si8 0.500000 0.837341 0.384640
O O1 0.253894 0.986679 0.250000
O O2 0.392771 0.954363 0.084926
O O3 0.188542 0.921010 0.106577
O O4 0.222289 0.000000 0.000000
O O5 0.868397 0.306915 0.625240
O O6 0.704864 0.335196 0.750000
O O7 0.889344 0.384135 0.750000
O O8 0.750000 0.250000 0.000000
O O9 0.805548 0.163297 0.979102
O O10 0.611648 0.193164 0.894986
O O11 0.500000 0.947352 0.627938
O O12 0.500000 0.879109 0.481349
O O13 0.500000 0.354155 0.750000
O O14 0.636517 0.406038 0.622850
O O15 0.000000 0.877635 0.057484
O O16 0.500000 0.859920 0.250000
#
# Coordination Sequence:
#
# PCOD8256574 Si02
#       8
#    16   8  16   8   8  16   4   8
#     4  12  28  47  72 103 138 178 228 287 351 421
#     4  10  18  38  56  90 132 171 227 278 322 393
#     4  11  24  40  66 101 139 181 233 283 340 402
#     4  12  23  44  74 101 142 177 228 279 350 418
#     4   8  16  34  64  92 119 166 219 269 327 389
#     4  10  22  43  68  97 138 182 228 286 345 410
#     4  12  20  38  74 100 130 186 226 276 342 408
#     4  12  24  43  68  98 139 189 227 278 348 407
#
# _framework density 22.106082000000001
#
# number of rings (size 3 to 8) (size 9 to 14) (size 15 to 20)
#    0.000    1.143    3.810    2.286    5.333    0.762 
#    0.000    0.000    0.000    0.000    0.000    0.000 
#    0.000    0.000    0.000    0.000    0.000    0.000 
#
# Total GULP energy -520444.611979 kJ/mol
# GULP energy per Si atom -12391.538380 kJ/mol
# Density = 2.205577 g / cm^3
# Si number density = 22.106082 Si / 1000 Ang^3
#
#
#
# Elastic Constant Matrix: (Units=GPa)
#
#
# Indices 1 2 3 4 5 6 
#
# 1 134.5784 35.1899 34.9456 0.0000 0.0000 0.0000
# 2 35.1899 103.2617 29.5672 0.0000 0.0000 0.0000
# 3 34.9456 29.5672 138.1945 0.0000 0.0000 0.0000
# 4 0.0000 0.0000 0.0000 24.5209 0.0000 0.0000
# 5 0.0000 0.0000 0.0000 0.0000 21.4613 0.0000
# 6 0.0000 0.0000 0.0000 0.0000 0.0000 13.2256
#
#
#
# Elastic Compliance Matrix: (Units=1/GPa)
#
#
# Indices 1 2 3 4 5 6 
#
# 1 0.008488 -0.002427 -0.001627 0.000000 0.000000 0.000000
# 2 -0.002427 0.011010 -0.001742 0.000000 0.000000 0.000000
# 3 -0.001627 -0.001742 0.008020 0.000000 0.000000 0.000000
# 4 0.000000 0.000000 0.000000 0.040782 0.000000 0.000000
# 5 0.000000 0.000000 0.000000 0.000000 0.046596 0.000000
# 6 0.000000 0.000000 0.000000 0.000000 0.000000 0.075611
#
#
# Mechanical properties :
#
#
# Convention : Reuss Voigt Hill
#
# Bulk Modulus (GPa) = 62.78845 63.93779 63.36312
# Shear Modulus (GPa) = 24.10730 30.26368 27.18549
#
# Velocity S-wave (km/s) = 3.30590 3.70404 3.51062
# Velocity P-wave (km/s) = 6.56025 6.87599 6.71997
#
# Compressibility (1/GPa) = 0.01592650
#
# Stress axis : x y z
#
# Youngs Moduli (GPa) = 117.81869 90.82779 124.68310
#
# Poissons Ratio (x) = 0.22040 0.20287
# Poissons Ratio (y) = 0.28589 0.21720
# Poissons Ratio (z) = 0.19170 0.15822
#
# Static dielectric constant tensor:
#      x y z
#    x 4.153360 0.000000 0.000000 
#    y 0.000000 3.589590 0.000000 
#    z 0.000000 0.000000 4.325180 
# 
# 
# High freq. dielectric constant tensor:
#      x y z
#    x 1.880870 0.000000 0.000000 
#    y 0.000000 1.831490 0.000000 
#    z 0.000000 0.000000 1.884100 
# 
# From -- ./inp_files/18065.got.cif
#   From: 2010.03.12/outbox.cif.g09.slc.cpg/sg63_10_cif.got.tgz:18065.got - 2010.04.10 19:34:48.
