data_PCOD8256028
_publ_section_title
;
Structure prediction by ZEFSAII (Michael W. Deem and Ramdas Pophale) SiO2 
 PCOD8256028
Probable space group: C M C M
;
_chemical_formula_sum "Si O2"
_cell_formula_units_Z 80
_cell_length_a 8.779775
_cell_length_b 19.886387
_cell_length_c 25.861435
_cell_angle_alpha 90.000000
_cell_angle_beta 90.000000
_cell_angle_gamma 90.000000
_cell_volume 4515.354917
_symmetry_space_group_name_H-M "C M C M"
_symmetry_group_IT_number 63
_symmetry_cell_setting 'orthorhombic'
loop_
_space_group_symop_operation_xyz
x,y,z
-x,-y,1/2+z
x,-y,-z
-x,y,1/2-z
-x,-y,-z
x,y,1/2-z
-x,y,z
x,-y,1/2+z
1/2+x,1/2+y,z
1/2-x,1/2-y,1/2+z
1/2+x,1/2-y,-z
1/2-x,1/2+y,1/2-z
1/2-x,1/2-y,-z
1/2+x,1/2+y,1/2-z
1/2-x,1/2+y,z
1/2+x,1/2-y,1/2+z
loop_
_atom_site_type_symbol
_atom_site_label
_atom_site_fract_x
_atom_site_fract_y
_atom_site_fract_z
Si Si1 0.680070 0.575060 0.556846
Si Si2 0.674431 0.690284 0.750000
Si Si3 0.322794 0.669589 0.250000
Si Si4 0.176324 0.821497 0.361689
Si Si5 0.679689 0.423939 0.559969
Si Si6 0.820160 0.330560 0.855130
O O1 0.500000 0.573103 0.562619
O O2 0.755708 0.628332 0.597063
O O3 0.737942 0.500006 0.569815
O O4 0.722817 0.596581 0.498685
O O5 0.500000 0.719000 0.750000
O O6 0.791845 0.751195 0.750000
O O7 0.700736 0.648678 0.696856
O O8 0.500000 0.653230 0.250000
O O9 0.250297 0.638648 0.302329
O O10 0.241917 0.745615 0.364719
O O11 0.000000 0.818475 0.376137
O O12 0.500000 0.416556 0.569982
O O13 0.771744 0.375103 0.596808
O O14 0.000000 0.330466 0.848991
#
# Coordination Sequence:
#
# PCOD8256028 Si02
#       6
#    16   8   8  16  16  16
#     4   8  15  29  47  66  92 126 163 200 234 272
#     4   8  14  26  45  68  93 119 147 185 235 282
#     4  10  18  30  49  70  93 121 153 187 225 276
#     4   8  14  26  45  67  90 120 156 191 231 280
#     4   9  17  30  48  68  92 125 162 199 236 273
#     4  10  19  31  48  70  96 122 150 190 236 281
#
# _framework density 17.717323
#
# number of rings (size 3 to 8) (size 9 to 14) (size 15 to 20)
#    0.000    3.200    0.000    3.900    0.000    0.800 
#    0.000    3.000    0.000   14.400    0.000    0.000 
#    0.000    0.000    0.000    0.000    0.000    0.000 
#
# Total GULP energy -495595.043646 kJ/mol
# GULP energy per Si atom -12389.876091 kJ/mol
# Density = 1.767700 g / cm^3
# Si number density = 17.717323 Si / 1000 Ang^3
#
#
#
# Elastic Constant Matrix: (Units=GPa)
#
#
# Indices 1 2 3 4 5 6 
#
# 1 46.0245 20.4664 31.8927 0.0000 0.0000 0.0000
# 2 20.4664 82.0427 81.8321 0.0000 0.0000 0.0000
# 3 31.8927 81.8321 165.0346 0.0000 0.0000 0.0000
# 4 0.0000 0.0000 0.0000 9.3052 0.0000 0.0000
# 5 0.0000 0.0000 0.0000 0.0000 24.8284 0.0000
# 6 0.0000 0.0000 0.0000 0.0000 0.0000 13.7583
#
#
#
# Elastic Compliance Matrix: (Units=1/GPa)
#
#
# Indices 1 2 3 4 5 6 
#
# 1 0.025420 -0.002852 -0.003498 0.000000 0.000000 0.000000
# 2 -0.002852 0.024436 -0.011565 0.000000 0.000000 0.000000
# 3 -0.003498 -0.011565 0.012470 0.000000 0.000000 0.000000
# 4 0.000000 0.000000 0.000000 0.107466 0.000000 0.000000
# 5 0.000000 0.000000 0.000000 0.000000 0.040276 0.000000
# 6 0.000000 0.000000 0.000000 0.000000 0.000000 0.072683
#
#
# Mechanical properties :
#
#
# Convention : Reuss Voigt Hill
#
# Bulk Modulus (GPa) = 37.74348 62.38712 50.06530
# Shear Modulus (GPa) = 15.27116 20.17244 17.72180
#
# Velocity S-wave (km/s) = 2.93906 3.37793 3.16611
# Velocity P-wave (km/s) = 5.73296 7.10654 6.45638
#
# Compressibility (1/GPa) = 0.02649464
#
# Stress axis : x y z
#
# Youngs Moduli (GPa) = 39.33930 40.92349 80.19260
#
# Poissons Ratio (x) = 0.11672 0.28053
# Poissons Ratio (y) = 0.11220 0.92745
# Poissons Ratio (z) = 0.13762 0.47329
#
# Static dielectric constant tensor:
#      x y z
#    x 2.856980 0.000000 0.000000 
#    y 0.000000 3.333040 0.000000 
#    z 0.000000 0.000000 3.752030 
# 
# 
# High freq. dielectric constant tensor:
#      x y z
#    x 1.646050 0.000000 0.000000 
#    y 0.000000 1.656260 0.000000 
#    z 0.000000 0.000000 1.705320 
# 
# From -- ./inp_files/59497.got.cif
#   From: 2010.03.12/outbox.cif.g09.slc.cpg/sg63_30_cif.got.tgz:59497.got - 2010.04.10 19:34:48.
