data_PCOD8256868
_publ_section_title
;
Structure prediction by ZEFSAII (Michael W. Deem and Ramdas Pophale) SiO2 
 PCOD8256868
Probable space group: C M C M
;
_chemical_formula_sum "Si O2"
_cell_formula_units_Z 72
_cell_length_a 18.413525
_cell_length_b 10.566838
_cell_length_c 21.521863
_cell_angle_alpha 90.000000
_cell_angle_beta 90.000000
_cell_angle_gamma 90.000000
_cell_volume 4187.567761
_symmetry_space_group_name_H-M "C M C M"
_symmetry_group_IT_number 63
_symmetry_cell_setting 'orthorhombic'
loop_
_space_group_symop_operation_xyz
x,y,z
-x,-y,1/2+z
x,-y,-z
-x,y,1/2-z
-x,-y,-z
x,y,1/2-z
-x,y,z
x,-y,1/2+z
1/2+x,1/2+y,z
1/2-x,1/2-y,1/2+z
1/2+x,1/2-y,-z
1/2-x,1/2+y,1/2-z
1/2-x,1/2-y,-z
1/2+x,1/2+y,1/2-z
1/2-x,1/2+y,z
1/2+x,1/2-y,1/2+z
loop_
_atom_site_type_symbol
_atom_site_label
_atom_site_fract_x
_atom_site_fract_y
_atom_site_fract_z
Si Si1 0.578941 0.048915 0.066117
Si Si2 0.420025 0.338214 0.078188
Si Si3 0.805495 0.179312 0.822261
Si Si4 0.226113 0.445794 0.622117
Si Si5 0.313328 0.500000 0.000000
O O1 0.500000 0.990743 0.086060
O O2 0.569268 0.196682 0.057177
O O3 0.640948 0.017592 0.116249
O O4 0.605191 0.000000 0.000000
O O5 0.500000 0.405087 0.080282
O O6 0.383744 0.344365 0.146319
O O7 0.365755 0.393992 0.027394
O O8 0.818834 0.199214 0.750000
O O9 0.765727 0.304953 0.849191
O O10 0.757830 0.053688 0.833395
O O11 0.264040 0.441195 0.554556
#
# Coordination Sequence:
#
# PCOD8256868 Si02
#       5
#    16  16  16  16   8
#     4   9  17  29  47  73 103 129 157 196 248 304
#     4   9  19  32  49  73 100 131 165 205 251 300
#     4  10  21  35  52  73  99 136 175 209 246 293
#     4  10  20  32  54  75 104 131 168 210 256 301
#     4  10  19  30  51  78 106 128 160 206 265 314
#
# _framework density 17.193752
#
# number of rings (size 3 to 8) (size 9 to 14) (size 15 to 20)
#    0.000    2.444    1.111    1.000    3.111    3.111 
#    0.000    0.000    0.000    2.000    0.000    0.000 
#    0.000    0.000    0.000    0.000    0.000    0.000 
#
# Total GULP energy -446126.647274 kJ/mol
# GULP energy per Si atom -12392.406869 kJ/mol
# Density = 1.715462 g / cm^3
# Si number density = 17.193752 Si / 1000 Ang^3
#
#
#
# Elastic Constant Matrix: (Units=GPa)
#
#
# Indices 1 2 3 4 5 6 
#
# 1 107.5864 32.3812 36.5980 0.0000 0.0000 0.0000
# 2 32.3812 55.9644 25.3502 0.0000 0.0000 0.0000
# 3 36.5980 25.3502 105.7954 0.0000 0.0000 0.0000
# 4 0.0000 0.0000 0.0000 23.0296 0.0000 0.0000
# 5 0.0000 0.0000 0.0000 0.0000 9.1833 0.0000
# 6 0.0000 0.0000 0.0000 0.0000 0.0000 14.6063
#
#
#
# Elastic Compliance Matrix: (Units=1/GPa)
#
#
# Indices 1 2 3 4 5 6 
#
# 1 0.011940 -0.005651 -0.002776 0.000000 0.000000 0.000000
# 2 -0.005651 0.022719 -0.003489 0.000000 0.000000 0.000000
# 3 -0.002776 -0.003489 0.011249 0.000000 0.000000 0.000000
# 4 0.000000 0.000000 0.000000 0.043422 0.000000 0.000000
# 5 0.000000 0.000000 0.000000 0.000000 0.108894 0.000000
# 6 0.000000 0.000000 0.000000 0.000000 0.000000 0.068463
#
#
# Mechanical properties :
#
#
# Convention : Reuss Voigt Hill
#
# Bulk Modulus (GPa) = 45.30049 50.88944 48.09497
# Shear Modulus (GPa) = 16.78543 21.03164 18.90853
#
# Velocity S-wave (km/s) = 3.12789 3.50124 3.31982
# Velocity P-wave (km/s) = 6.28086 6.78283 6.53667
#
# Compressibility (1/GPa) = 0.02207482
#
# Stress axis : x y z
#
# Youngs Moduli (GPa) = 83.75110 44.01697 88.89966
#
# Poissons Ratio (x) = 0.24874 0.24682
# Poissons Ratio (y) = 0.47328 0.31016
# Poissons Ratio (z) = 0.23253 0.15357
#
# Static dielectric constant tensor:
#      x y z
#    x 3.694500 0.000000 0.000000 
#    y 0.000000 3.023830 0.000000 
#    z 0.000000 0.000000 2.791970 
# 
# 
# High freq. dielectric constant tensor:
#      x y z
#    x 1.677850 0.000000 0.000000 
#    y 0.000000 1.658390 0.000000 
#    z 0.000000 0.000000 1.646740 
# 
# From -- ./inp_files/46782.got.cif
#   From: 2010.03.12/outbox.cif.g09.slc.cpg/sg63_24_cif.got.tgz:46782.got - 2010.04.10 19:34:48.
