data_PCOD8256866
_publ_section_title
;
Structure prediction by ZEFSAII (Michael W. Deem and Ramdas Pophale) SiO2 
 PCOD8256866
Probable space group: C M C M
;
_chemical_formula_sum "Si O2"
_cell_formula_units_Z 80
_cell_length_a 7.784081
_cell_length_b 28.800799
_cell_length_c 18.816926
_cell_angle_alpha 90.000000
_cell_angle_beta 90.000000
_cell_angle_gamma 90.000000
_cell_volume 4218.524345
_symmetry_space_group_name_H-M "C M C M"
_symmetry_group_IT_number 63
_symmetry_cell_setting 'orthorhombic'
loop_
_space_group_symop_operation_xyz
x,y,z
-x,-y,1/2+z
x,-y,-z
-x,y,1/2-z
-x,-y,-z
x,y,1/2-z
-x,y,z
x,-y,1/2+z
1/2+x,1/2+y,z
1/2-x,1/2-y,1/2+z
1/2+x,1/2-y,-z
1/2-x,1/2+y,1/2-z
1/2-x,1/2-y,-z
1/2+x,1/2+y,1/2-z
1/2-x,1/2+y,z
1/2+x,1/2-y,1/2+z
loop_
_atom_site_type_symbol
_atom_site_label
_atom_site_fract_x
_atom_site_fract_y
_atom_site_fract_z
Si Si1 0.000000 0.954616 0.334787
Si Si2 0.000000 0.849591 0.165867
Si Si3 0.304261 0.201295 0.428184
Si Si4 0.806072 0.300439 0.411606
Si Si5 0.297362 0.382531 0.831232
Si Si6 0.690923 0.983235 0.834392
O O1 0.000000 0.955968 0.250000
O O2 0.000000 0.902234 0.363307
O O3 0.169789 0.980515 0.365035
O O4 0.173969 0.825067 0.140841
O O5 0.000000 0.848444 0.250000
O O6 0.500000 0.218243 0.430148
O O7 0.194814 0.244775 0.399642
O O8 0.247225 0.187632 0.507953
O O9 0.285353 0.157804 0.377147
O O10 0.000000 0.318186 0.395641
O O11 0.237548 0.375637 0.750000
O O12 0.500000 0.380924 0.837909
O O13 0.230654 0.431447 0.862129
O O14 0.705167 0.982584 0.750000
O O15 0.500000 0.998348 0.859380
#
# Coordination Sequence:
#
# PCOD8256866 Si02
#       6
#     8   8  16  16  16  16
#     4   9  18  34  53  77 109 146 189 229 277 338
#     4  11  24  40  61  87 116 150 189 242 292 326
#     4  10  20  36  59  83 112 154 195 229 276 343
#     4  10  22  40  60  83 111 150 198 236 274 340
#     4  10  19  30  50  85 121 148 182 234 289 339
#     4   9  16  29  50  76 110 148 184 227 280 340
#
# _framework density 18.963977
#
# number of rings (size 3 to 8) (size 9 to 14) (size 15 to 20)
#    0.000    2.200    2.000    1.200    2.800    3.200 
#    0.000    2.000    0.000    2.400    0.000    4.200 
#    0.000    0.000    0.000    0.000    0.000    0.000 
#
# Total GULP energy -495995.878760 kJ/mol
# GULP energy per Si atom -12399.896969 kJ/mol
# Density = 1.892081 g / cm^3
# Si number density = 18.963977 Si / 1000 Ang^3
#
#
#
# Elastic Constant Matrix: (Units=GPa)
#
#
# Indices 1 2 3 4 5 6 
#
# 1 112.6835 56.3769 28.9426 0.0000 0.0000 0.0000
# 2 56.3769 123.6503 44.3697 0.0000 0.0000 0.0000
# 3 28.9426 44.3697 52.1875 0.0000 0.0000 0.0000
# 4 0.0000 0.0000 0.0000 -9.1963 0.0000 0.0000
# 5 0.0000 0.0000 0.0000 0.0000 20.4171 0.0000
# 6 0.0000 0.0000 0.0000 0.0000 0.0000 16.9764
#
#
#
# Elastic Compliance Matrix: (Units=1/GPa)
#
#
# Indices 1 2 3 4 5 6 
#
# 1 0.011781 -0.004356 -0.002830 0.000000 0.000000 0.000000
# 2 -0.004356 0.013248 -0.008848 0.000000 0.000000 0.000000
# 3 -0.002830 -0.008848 0.028254 0.000000 0.000000 0.000000
# 4 0.000000 0.000000 0.000000 -0.108740 0.000000 0.000000
# 5 0.000000 0.000000 0.000000 0.000000 0.048979 0.000000
# 6 0.000000 0.000000 0.000000 0.000000 0.000000 0.058905
#
#
# Mechanical properties :
#
#
# Convention : Reuss Voigt Hill
#
# Bulk Modulus (GPa) = 47.13673 60.87773 54.00723
# Shear Modulus (GPa) = 54.60563 16.22826 35.41695
#
# Velocity S-wave (km/s) = 5.37186 2.92848 4.32625
# Velocity P-wave (km/s) = 7.96152 6.60349 7.31409
#
# Compressibility (1/GPa) = 0.02121488
#
# Stress axis : x y z
#
# Youngs Moduli (GPa) = 84.88601 75.48222 35.39349
#
# Poissons Ratio (x) = 0.32877 0.10017
# Poissons Ratio (y) = 0.36973 0.31316
# Poissons Ratio (z) = 0.24024 0.66786
#
# Static dielectric constant tensor:
#      x y z
#    x 3.668160 0.000000 0.000000 
#    y 0.000000 3.519840 0.000000 
#    z 0.000000 0.000000 3.203040 
# 
# 
# High freq. dielectric constant tensor:
#      x y z
#    x 1.756600 0.000000 0.000000 
#    y 0.000000 1.736260 0.000000 
#    z 0.000000 0.000000 1.694110 
# 
# From -- ./inp_files/40593.got.cif
#   From: 2010.03.12/outbox.cif.g09.slc.cpg/sg63_21_cif.got.tgz:40593.got - 2010.04.10 19:34:48.
