data_PCOD8256481
_publ_section_title
;
Structure prediction by ZEFSAII (Michael W. Deem and Ramdas Pophale) SiO2 
 PCOD8256481
Probable space group: C M C M
;
_chemical_formula_sum "Si O2"
_cell_formula_units_Z 64
_cell_length_a 37.739959
_cell_length_b 9.335425
_cell_length_c 10.044553
_cell_angle_alpha 90.000000
_cell_angle_beta 90.000000
_cell_angle_gamma 90.000000
_cell_volume 3538.882416
_symmetry_space_group_name_H-M "C M C M"
_symmetry_group_IT_number 63
_symmetry_cell_setting 'orthorhombic'
loop_
_space_group_symop_operation_xyz
x,y,z
-x,-y,1/2+z
x,-y,-z
-x,y,1/2-z
-x,-y,-z
x,y,1/2-z
-x,y,z
x,-y,1/2+z
1/2+x,1/2+y,z
1/2-x,1/2-y,1/2+z
1/2+x,1/2-y,-z
1/2-x,1/2+y,1/2-z
1/2-x,1/2-y,-z
1/2+x,1/2+y,1/2-z
1/2-x,1/2+y,z
1/2+x,1/2-y,1/2+z
loop_
_atom_site_type_symbol
_atom_site_label
_atom_site_fract_x
_atom_site_fract_y
_atom_site_fract_z
Si Si1 0.959315 0.123591 0.598743
Si Si2 0.903560 0.366458 0.903378
Si Si3 0.721157 0.868009 0.750000
Si Si4 0.706871 0.795333 0.250000
Si Si5 0.328794 0.832136 0.515950
O O1 0.954181 0.069212 0.750000
O O2 0.936597 0.264160 0.571253
O O3 0.000000 0.164310 0.569811
O O4 0.946152 0.000000 0.500000
O O5 0.901835 0.419521 0.750000
O O6 0.909006 0.500000 0.000000
O O7 0.867381 0.277627 0.936519
O O8 0.761279 0.816544 0.750000
O O9 0.701860 0.800596 0.622272
O O10 0.720699 0.040931 0.750000
O O11 0.682609 0.760535 0.122558
O O12 0.333569 0.000000 0.500000
#
# Coordination Sequence:
#
# PCOD8256481 Si02
#       5
#    16  16   8   8  16
#     4   9  19  37  57  79 110 145 177 212 260 315
#     4  10  20  34  55  81 107 138 178 223 264 309
#     4  10  18  34  50  72  97 130 165 209 256 311
#     4  10  20  32  52  72  97 130 169 209 258 311
#     4   9  18  32  51  72  99 132 168 209 257 311
#
# _framework density 18.084804999999999
#
# number of rings (size 3 to 8) (size 9 to 14) (size 15 to 20)
#    0.000    2.500    1.250    0.750    5.250    1.500 
#    0.000    2.500    0.000    0.000    0.000    0.000 
#    0.000    0.000    0.000    0.000    0.000    0.000 
#
# Total GULP energy -396765.619944 kJ/mol
# GULP energy per Si atom -12398.925623 kJ/mol
# Density = 1.804364 g / cm^3
# Si number density = 18.084805 Si / 1000 Ang^3
#
#
#
# Elastic Constant Matrix: (Units=GPa)
#
#
# Indices 1 2 3 4 5 6 
#
# 1 101.4226 42.5007 60.0804 0.0000 0.0000 0.0000
# 2 42.5007 52.7473 50.1262 0.0000 0.0000 0.0000
# 3 60.0804 50.1262 149.7206 0.0000 0.0000 0.0000
# 4 0.0000 0.0000 0.0000 24.3604 0.0000 0.0000
# 5 0.0000 0.0000 0.0000 0.0000 28.1704 0.0000
# 6 0.0000 0.0000 0.0000 0.0000 0.0000 23.4500
#
#
#
# Elastic Compliance Matrix: (Units=1/GPa)
#
#
# Indices 1 2 3 4 5 6 
#
# 1 0.015778 -0.009821 -0.003043 0.000000 0.000000 0.000000
# 2 -0.009821 0.033917 -0.007415 0.000000 0.000000 0.000000
# 3 -0.003043 -0.007415 0.010383 0.000000 0.000000 0.000000
# 4 0.000000 0.000000 0.000000 0.041050 0.000000 0.000000
# 5 0.000000 0.000000 0.000000 0.000000 0.035498 0.000000
# 6 0.000000 0.000000 0.000000 0.000000 0.000000 0.042644
#
#
# Mechanical properties :
#
#
# Convention : Reuss Voigt Hill
#
# Bulk Modulus (GPa) = 51.22798 67.70059 59.46428
# Shear Modulus (GPa) = 22.09115 25.27505 23.68310
#
# Velocity S-wave (km/s) = 3.49883 3.74248 3.62271
# Velocity P-wave (km/s) = 6.68659 7.49608 7.10288
#
# Compressibility (1/GPa) = 0.01952058
#
# Stress axis : x y z
#
# Youngs Moduli (GPa) = 63.37962 29.48335 96.31306
#
# Poissons Ratio (x) = 0.28955 0.29313
# Poissons Ratio (y) = 0.62243 0.71412
# Poissons Ratio (z) = 0.19289 0.21861
#
# Static dielectric constant tensor:
#      x y z
#    x 3.575840 0.000000 0.000000 
#    y 0.000000 2.875090 0.000000 
#    z 0.000000 0.000000 3.764080 
# 
# 
# High freq. dielectric constant tensor:
#      x y z
#    x 1.713290 0.000000 0.000000 
#    y 0.000000 1.654970 0.000000 
#    z 0.000000 0.000000 1.720660 
# 
# From -- ./inp_files/13775.got.cif
#   From: 2010.03.12/outbox.cif.g09.slc.cpg/sg63_7_cif.got.tgz:13775.got - 2010.04.10 19:34:48.
