data_PCOD8256385
_publ_section_title
;
Structure prediction by ZEFSAII (Michael W. Deem and Ramdas Pophale) SiO2 
 PCOD8256385
Probable space group: C M C M
;
_chemical_formula_sum "Si O2"
_cell_formula_units_Z 56
_cell_length_a 17.960446
_cell_length_b 18.195050
_cell_length_c 8.460153
_cell_angle_alpha 90.000000
_cell_angle_beta 90.000000
_cell_angle_gamma 90.000000
_cell_volume 2764.703661
_symmetry_space_group_name_H-M "C M C M"
_symmetry_group_IT_number 63
_symmetry_cell_setting 'orthorhombic'
loop_
_space_group_symop_operation_xyz
x,y,z
-x,-y,1/2+z
x,-y,-z
-x,y,1/2-z
-x,-y,-z
x,y,1/2-z
-x,y,z
x,-y,1/2+z
1/2+x,1/2+y,z
1/2-x,1/2-y,1/2+z
1/2+x,1/2-y,-z
1/2-x,1/2+y,1/2-z
1/2-x,1/2-y,-z
1/2+x,1/2+y,1/2-z
1/2-x,1/2+y,z
1/2+x,1/2-y,1/2+z
loop_
_atom_site_type_symbol
_atom_site_label
_atom_site_fract_x
_atom_site_fract_y
_atom_site_fract_z
Si Si1 0.149982 0.918646 0.936886
Si Si2 0.916003 0.420003 0.437478
Si Si3 0.500000 0.582934 0.938593
Si Si4 0.279744 0.173973 0.933502
O O1 0.161663 0.913544 0.750000
O O2 0.219247 0.886695 0.028871
O O3 0.073571 0.877114 0.989780
O O4 0.142167 0.000000 0.000000
O O5 0.891468 0.500000 0.500000
O O6 0.911903 0.423792 0.250000
O O7 0.858959 0.356855 0.501409
O O8 0.000000 0.400671 0.495251
O O9 0.500000 0.585961 0.750000
O O10 0.500000 0.500000 0.000000
O O11 0.289501 0.186148 0.750000
O O12 0.250000 0.250000 0.000000
#
# Coordination Sequence:
#
# PCOD8256385 Si02
#       4
#    16  16   8  16
#     4  11  21  36  58  84 114 151 193 239 289 344
#     4   9  19  37  62  89 115 148 192 245 299 353
#     4  10  18  32  54  82 112 142 183 230 277 332
#     4  11  23  39  57  82 118 156 196 242 297 359
#
# _framework density 20.255336
#
# number of rings (size 3 to 8) (size 9 to 14) (size 15 to 20)
#    0.000    1.714    0.000    7.286    0.000    4.571 
#    2.571    0.000    0.000    0.000    0.000    0.000 
#    0.000    0.000    0.000    0.000    0.000    0.000 
#
# Total GULP energy -346987.226556 kJ/mol
# GULP energy per Si atom -12392.400948 kJ/mol
# Density = 2.020923 g / cm^3
# Si number density = 20.255336 Si / 1000 Ang^3
#
#
#
# Elastic Constant Matrix: (Units=GPa)
#
#
# Indices 1 2 3 4 5 6 
#
# 1 174.9725 75.3368 16.7087 0.0000 0.0000 0.0000
# 2 75.3368 91.9977 21.2899 0.0000 0.0000 0.0000
# 3 16.7087 21.2899 38.6607 0.0000 0.0000 0.0000
# 4 0.0000 0.0000 0.0000 31.2986 0.0000 0.0000
# 5 0.0000 0.0000 0.0000 0.0000 30.4584 0.0000
# 6 0.0000 0.0000 0.0000 0.0000 0.0000 27.3709
#
#
#
# Elastic Compliance Matrix: (Units=1/GPa)
#
#
# Indices 1 2 3 4 5 6 
#
# 1 0.008829 -0.007274 0.000190 0.000000 0.000000 0.000000
# 2 -0.007274 0.018450 -0.007017 0.000000 0.000000 0.000000
# 3 0.000190 -0.007017 0.029648 0.000000 0.000000 0.000000
# 4 0.000000 0.000000 0.000000 0.031950 0.000000 0.000000
# 5 0.000000 0.000000 0.000000 0.000000 0.032832 0.000000
# 6 0.000000 0.000000 0.000000 0.000000 0.000000 0.036535
#
#
# Mechanical properties :
#
#
# Convention : Reuss Voigt Hill
#
# Bulk Modulus (GPa) = 34.81185 59.14464 46.97824
# Shear Modulus (GPa) = 25.50747 30.64526 28.07636
#
# Velocity S-wave (km/s) = 3.55251 3.89388 3.72710
# Velocity P-wave (km/s) = 5.83531 7.03416 6.46259
#
# Compressibility (1/GPa) = 0.02872585
#
# Stress axis : x y z
#
# Youngs Moduli (GPa) = 113.26362 54.19976 33.72915
#
# Poissons Ratio (x) = 0.39425 -0.00641
# Poissons Ratio (y) = 0.82388 0.23666
# Poissons Ratio (z) = -0.02151 0.38030
#
# Static dielectric constant tensor:
#      x y z
#    x 1.995120 0.000000 0.000000 
#    y 0.000000 3.653770 0.000000 
#    z 0.000000 0.000000 3.657790 
# 
# 
# High freq. dielectric constant tensor:
#      x y z
#    x 1.822000 0.000000 0.000000 
#    y 0.000000 1.758100 0.000000 
#    z 0.000000 0.000000 1.792530 
# 
# From -- ./inp_files/5546.got.cif
#   From: 2010.03.12/outbox.cif.g09.slc.cpg/sg63_3_cif.got.tgz:5546.got - 2010.04.10 19:34:48.
