data_PCOD8256689
_publ_section_title
;
Structure prediction by ZEFSAII (Michael W. Deem and Ramdas Pophale) SiO2 
 PCOD8256689
Probable space group: C M C M
;
_chemical_formula_sum "Si O2"
_cell_formula_units_Z 112
_cell_length_a 13.718360
_cell_length_b 28.009442
_cell_length_c 14.789567
_cell_angle_alpha 90.000000
_cell_angle_beta 90.000000
_cell_angle_gamma 90.000000
_cell_volume 5682.796596
_symmetry_space_group_name_H-M "C M C M"
_symmetry_group_IT_number 63
_symmetry_cell_setting 'orthorhombic'
loop_
_space_group_symop_operation_xyz
x,y,z
-x,-y,1/2+z
x,-y,-z
-x,y,1/2-z
-x,-y,-z
x,y,1/2-z
-x,y,z
x,-y,1/2+z
1/2+x,1/2+y,z
1/2-x,1/2-y,1/2+z
1/2+x,1/2-y,-z
1/2-x,1/2+y,1/2-z
1/2-x,1/2-y,-z
1/2+x,1/2+y,1/2-z
1/2-x,1/2+y,z
1/2+x,1/2-y,1/2+z
loop_
_atom_site_type_symbol
_atom_site_label
_atom_site_fract_x
_atom_site_fract_y
_atom_site_fract_z
Si Si1 0.112080 0.252425 0.352994
Si Si2 0.223167 0.842616 0.849057
Si Si3 0.209673 0.976715 0.150325
Si Si4 0.606676 0.612745 0.907326
Si Si5 0.889843 0.419248 0.144415
Si Si6 0.607653 0.568747 0.398005
Si Si7 0.707238 0.834911 0.044495
O O1 0.129389 0.270176 0.250000
O O2 0.140356 0.197260 0.363902
O O3 0.176997 0.282460 0.423172
O O4 0.000000 0.257963 0.380580
O O5 0.275018 0.834618 0.750000
O O6 0.171141 0.893880 0.841186
O O7 0.296724 0.839478 0.934643
O O8 0.218430 0.998844 0.250000
O O9 0.144888 0.928687 0.158520
O O10 0.317008 0.961758 0.113477
O O11 0.162385 0.018161 0.090521
O O12 0.500000 0.631838 0.875014
O O13 0.684092 0.655832 0.915548
O O14 0.595883 0.588133 0.002840
O O15 0.872664 0.406779 0.250000
O O16 0.869480 0.372369 0.085268
O O17 0.000000 0.436358 0.126704
O O18 0.500000 0.561592 0.353999
#
# Coordination Sequence:
#
# PCOD8256689 Si02
#       7
#    16  16  16  16  16  16  16
#     4  10  20  35  58  85 107 130 168 218 265 307
#     4  10  21  35  51  75 108 141 173 211 254 304
#     4  10  19  29  47  76 105 134 170 211 258 310
#     4   9  19  33  48  71 105 139 170 208 254 308
#     4   9  18  34  56  81 106 132 171 224 270 305
#     4  10  19  32  51  73 101 139 177 211 252 304
#     4  10  19  33  55  80 105 136 173 214 261 311
#
# _framework density 19.708606
#
# number of rings (size 3 to 8) (size 9 to 14) (size 15 to 20)
#    0.000    2.286    0.000    3.000    0.000    6.000 
#    0.000    0.000    0.000   20.571    0.000    4.000 
#    0.000    0.000    0.000    0.000    0.000    0.000 
#
# Total GULP energy -694078.635209 kJ/mol
# GULP energy per Si atom -12394.261343 kJ/mol
# Density = 1.966375 g / cm^3
# Si number density = 19.708606 Si / 1000 Ang^3
#
#
#
# Elastic Constant Matrix: (Units=GPa)
#
#
# Indices 1 2 3 4 5 6 
#
# 1 112.6169 34.5023 32.1559 0.0000 0.0000 0.0000
# 2 34.5023 83.5059 31.6849 0.0000 0.0000 0.0000
# 3 32.1559 31.6849 79.9683 0.0000 0.0000 0.0000
# 4 0.0000 0.0000 0.0000 -4.7098 0.0000 0.0000
# 5 0.0000 0.0000 0.0000 0.0000 21.9356 0.0000
# 6 0.0000 0.0000 0.0000 0.0000 0.0000 28.3553
#
#
#
# Elastic Compliance Matrix: (Units=1/GPa)
#
#
# Indices 1 2 3 4 5 6 
#
# 1 0.010751 -0.003298 -0.003017 0.000000 0.000000 0.000000
# 2 -0.003298 0.015105 -0.004659 0.000000 0.000000 0.000000
# 3 -0.003017 -0.004659 0.015564 0.000000 0.000000 0.000000
# 4 0.000000 0.000000 0.000000 -0.212322 0.000000 0.000000
# 5 0.000000 0.000000 0.000000 0.000000 0.045588 0.000000
# 6 0.000000 0.000000 0.000000 0.000000 0.000000 0.035267
#
#
# Mechanical properties :
#
#
# Convention : Reuss Voigt Hill
#
# Bulk Modulus (GPa) = 51.34995 52.53081 51.94038
# Shear Modulus (GPa) = -81.15764 20.96607 -30.09579
#
# Velocity S-wave (km/s) = -6.42403 3.26514 -3.91197
# Velocity P-wave (km/s) = 5.37709 6.39738 2.45085
#
# Compressibility (1/GPa) = 0.01947422
#
# Stress axis : x y z
#
# Youngs Moduli (GPa) = 93.01222 66.20120 64.25087
#
# Poissons Ratio (x) = 0.21830 0.19382
# Poissons Ratio (y) = 0.30671 0.29935
# Poissons Ratio (z) = 0.28058 0.30844
#
# Static dielectric constant tensor:
#      x y z
#    x 3.727720 0.000000 0.000000 
#    y 0.000000 3.475620 0.000000 
#    z 0.000000 0.000000 3.655500 
# 
# 
# High freq. dielectric constant tensor:
#      x y z
#    x 1.750530 0.000000 0.000000 
#    y 0.000000 1.758330 0.000000 
#    z 0.000000 0.000000 1.768680 
# 
# From -- ./inp_files/32309.got.cif
#   From: 2010.03.12/outbox.cif.g09.slc.cpg/sg63_17_cif.got.tgz:32309.got - 2010.04.10 19:34:48.
