data_PCOD8256863
_publ_section_title
;
Structure prediction by ZEFSAII (Michael W. Deem and Ramdas Pophale) SiO2 
 PCOD8256863
Probable space group: C M C M
;
_chemical_formula_sum "Si O2"
_cell_formula_units_Z 80
_cell_length_a 8.911450
_cell_length_b 20.377874
_cell_length_c 24.410809
_cell_angle_alpha 90.000000
_cell_angle_beta 90.000000
_cell_angle_gamma 90.000000
_cell_volume 4432.915164
_symmetry_space_group_name_H-M "C M C M"
_symmetry_group_IT_number 63
_symmetry_cell_setting 'orthorhombic'
loop_
_space_group_symop_operation_xyz
x,y,z
-x,-y,1/2+z
x,-y,-z
-x,y,1/2-z
-x,-y,-z
x,y,1/2-z
-x,y,z
x,-y,1/2+z
1/2+x,1/2+y,z
1/2-x,1/2-y,1/2+z
1/2+x,1/2-y,-z
1/2-x,1/2+y,1/2-z
1/2-x,1/2-y,-z
1/2+x,1/2+y,1/2-z
1/2-x,1/2+y,z
1/2+x,1/2-y,1/2+z
loop_
_atom_site_type_symbol
_atom_site_label
_atom_site_fract_x
_atom_site_fract_y
_atom_site_fract_z
Si Si1 0.323461 0.310362 0.969259
Si Si2 0.325634 0.560201 0.963073
Si Si3 0.831904 0.013825 0.750000
Si Si4 0.829883 0.142059 0.250000
Si Si5 0.822212 0.360496 0.861473
Si Si6 0.175781 0.488064 0.359031
O O1 0.500000 0.299363 0.961938
O O2 0.249575 0.317813 0.909769
O O3 0.250000 0.250000 0.000000
O O4 0.287284 0.373642 0.005493
O O5 0.500000 0.553569 0.948291
O O6 0.231812 0.558703 0.907381
O O7 0.270991 0.500000 0.000000
O O8 0.828769 0.935847 0.750000
O O9 0.748484 0.040052 0.696273
O O10 0.000000 0.041577 0.750000
O O11 0.743453 0.166898 0.304190
O O12 0.000000 0.169266 0.250000
O O13 0.776091 0.436554 0.870096
O O14 0.000000 0.351118 0.861245
O O15 0.000000 0.482163 0.352478
#
# Coordination Sequence:
#
# PCOD8256863 Si02
#       6
#    16  16   8   8  16  16
#     4  11  23  38  56  78 109 146 183 225 271 324
#     4  10  20  35  55  78 106 141 180 219 264 319
#     4   9  17  29  47  72 107 144 177 216 267 323
#     4   9  17  29  49  76 105 140 179 220 267 315
#     4  10  19  32  51  78 110 141 177 222 270 319
#     4  10  19  30  50  79 110 139 176 225 271 316
#
# _framework density 18.046814000000001
#
# number of rings (size 3 to 8) (size 9 to 14) (size 15 to 20)
#    0.000    2.000    2.000    2.400    0.000    6.000 
#    0.000    0.000    0.000    1.200    0.000    1.400 
#    0.000    0.000    0.000    0.000    0.000    0.000 
#
# Total GULP energy -496122.958114 kJ/mol
# GULP energy per Si atom -12403.073953 kJ/mol
# Density = 1.800574 g / cm^3
# Si number density = 18.046814 Si / 1000 Ang^3
#
#
#
# Elastic Constant Matrix: (Units=GPa)
#
#
# Indices 1 2 3 4 5 6 
#
# 1 104.1614 41.3500 79.3803 0.0000 0.0000 0.0000
# 2 41.3500 66.3310 48.5678 0.0000 0.0000 0.0000
# 3 79.3803 48.5678 178.3742 0.0000 0.0000 0.0000
# 4 0.0000 0.0000 0.0000 21.1313 0.0000 0.0000
# 5 0.0000 0.0000 0.0000 0.0000 38.7190 0.0000
# 6 0.0000 0.0000 0.0000 0.0000 0.0000 22.9985
#
#
#
# Elastic Compliance Matrix: (Units=1/GPa)
#
#
# Indices 1 2 3 4 5 6 
#
# 1 0.016260 -0.006043 -0.005591 0.000000 0.000000 0.000000
# 2 -0.006043 0.021076 -0.003049 0.000000 0.000000 0.000000
# 3 -0.005591 -0.003049 0.008924 0.000000 0.000000 0.000000
# 4 0.000000 0.000000 0.000000 0.047323 0.000000 0.000000
# 5 0.000000 0.000000 0.000000 0.000000 0.025827 0.000000
# 6 0.000000 0.000000 0.000000 0.000000 0.000000 0.043481
#
#
# Mechanical properties :
#
#
# Convention : Reuss Voigt Hill
#
# Bulk Modulus (GPa) = 59.19099 76.38477 67.78788
# Shear Modulus (GPa) = 25.26676 28.54100 26.90388
#
# Velocity S-wave (km/s) = 3.74581 3.98112 3.86525
# Velocity P-wave (km/s) = 7.18177 7.97184 7.58710
#
# Compressibility (1/GPa) = 0.01689446
#
# Stress axis : x y z
#
# Youngs Moduli (GPa) = 61.50081 47.44819 112.05180
#
# Poissons Ratio (x) = 0.28672 0.62645
# Poissons Ratio (y) = 0.37163 0.34168
# Poissons Ratio (z) = 0.34383 0.14468
#
# Static dielectric constant tensor:
#      x y z
#    x 3.406100 0.000000 0.000000 
#    y 0.000000 2.833560 0.000000 
#    z 0.000000 0.000000 3.644260 
# 
# 
# High freq. dielectric constant tensor:
#      x y z
#    x 1.713010 0.000000 0.000000 
#    y 0.000000 1.647060 0.000000 
#    z 0.000000 0.000000 1.717390 
# 
# From -- ./inp_files/59507.got.cif
#   From: 2010.03.12/outbox.cif.g09.slc.cpg/sg63_30_cif.got.tgz:59507.got - 2010.04.10 19:34:48.
