data_PCOD8256123
_publ_section_title
;
Structure prediction by ZEFSAII (Michael W. Deem and Ramdas Pophale) SiO2 
 PCOD8256123
Probable space group: C M C M
;
_chemical_formula_sum "Si O2"
_cell_formula_units_Z 80
_cell_length_a 8.644633
_cell_length_b 20.327697
_cell_length_c 24.804616
_cell_angle_alpha 90.000000
_cell_angle_beta 90.000000
_cell_angle_gamma 90.000000
_cell_volume 4358.803060
_symmetry_space_group_name_H-M "C M C M"
_symmetry_group_IT_number 63
_symmetry_cell_setting 'orthorhombic'
loop_
_space_group_symop_operation_xyz
x,y,z
-x,-y,1/2+z
x,-y,-z
-x,y,1/2-z
-x,-y,-z
x,y,1/2-z
-x,y,z
x,-y,1/2+z
1/2+x,1/2+y,z
1/2-x,1/2-y,1/2+z
1/2+x,1/2-y,-z
1/2-x,1/2+y,1/2-z
1/2-x,1/2-y,-z
1/2+x,1/2+y,1/2-z
1/2-x,1/2+y,z
1/2+x,1/2-y,1/2+z
loop_
_atom_site_type_symbol
_atom_site_label
_atom_site_fract_x
_atom_site_fract_y
_atom_site_fract_z
Si Si1 0.325034 0.878802 0.250000
Si Si2 0.177121 0.986569 0.750000
Si Si3 0.318894 0.688407 0.530654
Si Si4 0.821709 0.567865 0.469397
Si Si5 0.178536 0.366803 0.132188
Si Si6 0.185050 0.988364 0.866241
O O1 0.500000 0.908924 0.250000
O O2 0.302456 0.838735 0.306184
O O3 0.196948 0.935000 0.250000
O O4 0.000000 0.967913 0.750000
O O5 0.245070 0.961342 0.807317
O O6 0.500000 0.697311 0.533907
O O7 0.250000 0.750000 0.500000
O O8 0.278094 0.622198 0.499309
O O9 0.253607 0.685657 0.591650
O O10 0.795915 0.500000 0.500000
O O11 0.759564 0.561171 0.408763
O O12 0.000000 0.589438 0.468593
O O13 0.257930 0.437465 0.124398
O O14 0.000000 0.375804 0.116430
O O15 0.000000 0.987840 0.870641
#
# Coordination Sequence:
#
# PCOD8256123 Si02
#       6
#     8   8  16  16  16  16
#     4   8  16  28  48  75 106 141 176 217 267 317
#     4   8  16  28  44  73 110 141 174 221 271 321
#     4  12  25  40  58  80 110 147 185 227 278 331
#     4  11  22  36  56  81 111 144 182 226 271 321
#     4  10  18  32  52  79 111 143 180 223 269 320
#     4  10  18  30  51  79 110 144 182 224 273 323
#
# _framework density 18.353663000000001
#
# number of rings (size 3 to 8) (size 9 to 14) (size 15 to 20)
#    0.000    1.800    2.000    3.600    0.000    2.400 
#    0.000    0.000    0.000    1.200    0.000    8.400 
#    0.000    0.000    0.000    0.000    0.000    0.000 
#
# Total GULP energy -495697.032122 kJ/mol
# GULP energy per Si atom -12392.425803 kJ/mol
# Density = 1.831189 g / cm^3
# Si number density = 18.353663 Si / 1000 Ang^3
#
#
#
# Elastic Constant Matrix: (Units=GPa)
#
#
# Indices 1 2 3 4 5 6 
#
# 1 64.7848 17.8234 46.5992 0.0000 0.0000 0.0000
# 2 17.8234 42.6006 37.3983 0.0000 0.0000 0.0000
# 3 46.5992 37.3983 178.5226 0.0000 0.0000 0.0000
# 4 0.0000 0.0000 0.0000 22.7673 0.0000 0.0000
# 5 0.0000 0.0000 0.0000 0.0000 29.4117 0.0000
# 6 0.0000 0.0000 0.0000 0.0000 0.0000 25.0252
#
#
#
# Elastic Compliance Matrix: (Units=1/GPa)
#
#
# Indices 1 2 3 4 5 6 
#
# 1 0.019704 -0.004569 -0.004186 0.000000 0.000000 0.000000
# 2 -0.004569 0.029823 -0.005055 0.000000 0.000000 0.000000
# 3 -0.004186 -0.005055 0.007753 0.000000 0.000000 0.000000
# 4 0.000000 0.000000 0.000000 0.043923 0.000000 0.000000
# 5 0.000000 0.000000 0.000000 0.000000 0.034000 0.000000
# 6 0.000000 0.000000 0.000000 0.000000 0.000000 0.039960
#
#
# Mechanical properties :
#
#
# Convention : Reuss Voigt Hill
#
# Bulk Modulus (GPa) = 33.71529 54.39442 44.05485
# Shear Modulus (GPa) = 23.51074 27.71331 25.61203
#
# Velocity S-wave (km/s) = 3.58297 3.89004 3.73965
# Velocity P-wave (km/s) = 5.96041 7.06241 6.53468
#
# Compressibility (1/GPa) = 0.02966014
#
# Stress axis : x y z
#
# Youngs Moduli (GPa) = 50.75193 33.53116 128.97962
#
# Poissons Ratio (x) = 0.15320 0.53992
# Poissons Ratio (y) = 0.23188 0.65199
# Poissons Ratio (z) = 0.21245 0.16950
#
# Static dielectric constant tensor:
#      x y z
#    x 3.508380 0.000000 0.000000 
#    y 0.000000 3.637390 0.000000 
#    z 0.000000 0.000000 4.145020 
# 
# 
# High freq. dielectric constant tensor:
#      x y z
#    x 1.724490 0.000000 0.000000 
#    y 0.000000 1.645940 0.000000 
#    z 0.000000 0.000000 1.745210 
# 
# From -- ./inp_files/59564.got.cif
#   From: 2010.03.12/outbox.cif.g09.slc.cpg/sg63_30_cif.got.tgz:59564.got - 2010.04.10 19:34:48.
