data_PCOD8256662
_publ_section_title
;
Structure prediction by ZEFSAII (Michael W. Deem and Ramdas Pophale) SiO2 
 PCOD8256662
Probable space group: C M C M
;
_chemical_formula_sum "Si O2"
_cell_formula_units_Z 96
_cell_length_a 7.922350
_cell_length_b 28.783918
_cell_length_c 23.527273
_cell_angle_alpha 90.000000
_cell_angle_beta 90.000000
_cell_angle_gamma 90.000000
_cell_volume 5365.071643
_symmetry_space_group_name_H-M "C M C M"
_symmetry_group_IT_number 63
_symmetry_cell_setting 'orthorhombic'
loop_
_space_group_symop_operation_xyz
x,y,z
-x,-y,1/2+z
x,-y,-z
-x,y,1/2-z
-x,-y,-z
x,y,1/2-z
-x,y,z
x,-y,1/2+z
1/2+x,1/2+y,z
1/2-x,1/2-y,1/2+z
1/2+x,1/2-y,-z
1/2-x,1/2+y,1/2-z
1/2-x,1/2-y,-z
1/2+x,1/2+y,1/2-z
1/2-x,1/2+y,z
1/2+x,1/2-y,1/2+z
loop_
_atom_site_type_symbol
_atom_site_label
_atom_site_fract_x
_atom_site_fract_y
_atom_site_fract_z
Si Si1 0.191226 0.571067 0.684243
Si Si2 0.000000 0.097211 0.318293
Si Si3 0.500000 0.492460 0.316819
Si Si4 0.698041 0.303577 0.997611
Si Si5 0.798447 0.158576 0.614945
Si Si6 0.686336 0.673169 0.124711
Si Si7 0.307484 0.742686 0.688633
O O1 0.227990 0.585182 0.750000
O O2 0.328660 0.533235 0.663201
O O3 0.207769 0.615011 0.643389
O O4 0.000000 0.551137 0.678550
O O5 0.833038 0.122491 0.345151
O O6 0.000000 0.101638 0.250000
O O7 0.000000 0.044670 0.341211
O O8 0.500000 0.496556 0.250000
O O9 0.500000 0.305478 0.003595
O O10 0.761681 0.328440 0.939402
O O11 0.750000 0.250000 0.000000
O O12 0.768117 0.333960 0.050437
O O13 0.729261 0.204135 0.647500
O O14 0.000000 0.152129 0.618833
O O15 0.500000 0.696646 0.121040
O O16 0.801313 0.705792 0.162959
O O17 0.214744 0.741902 0.750000
O O18 0.500000 0.729360 0.697523
#
# Coordination Sequence:
#
# PCOD8256662 Si02
#       7
#    16   8   8  16  16  16  16
#     4  10  20  34  55  84 111 139 180 227 281 342
#     4   9  18  34  57  79 103 143 181 223 285 327
#     4   9  18  36  59  79 111 145 176 231 288 337
#     4  10  19  32  49  71 103 142 186 222 257 312
#     4  10  19  31  49  71 107 149 182 217 271 328
#     4   9  19  32  49  72 102 133 180 224 256 312
#     4  10  19  29  44  70 104 142 174 210 265 323
#
# _framework density 17.893516000000002
#
# number of rings (size 3 to 8) (size 9 to 14) (size 15 to 20)
#    0.500    1.833    2.500    1.000    0.000    2.000 
#    0.000    0.833    0.000    5.000    0.000    1.167 
#    0.000    0.000    0.000    0.000    0.000    0.000 
#
# Total GULP energy -594708.512445 kJ/mol
# GULP energy per Si atom -12389.760676 kJ/mol
# Density = 1.785279 g / cm^3
# Si number density = 17.893516 Si / 1000 Ang^3
#
#
#
# Elastic Constant Matrix: (Units=GPa)
#
#
# Indices 1 2 3 4 5 6 
#
# 1 51.1332 30.2528 21.8610 0.0000 0.0000 0.0000
# 2 30.2528 131.9895 55.7631 0.0000 0.0000 0.0000
# 3 21.8610 55.7631 139.6147 0.0000 0.0000 0.0000
# 4 0.0000 0.0000 0.0000 14.3400 0.0000 0.0000
# 5 0.0000 0.0000 0.0000 0.0000 16.4300 0.0000
# 6 0.0000 0.0000 0.0000 0.0000 0.0000 22.2142
#
#
#
# Elastic Compliance Matrix: (Units=1/GPa)
#
#
# Indices 1 2 3 4 5 6 
#
# 1 0.022994 -0.004510 -0.001799 0.000000 0.000000 0.000000
# 2 -0.004510 0.009999 -0.003287 0.000000 0.000000 0.000000
# 3 -0.001799 -0.003287 0.008757 0.000000 0.000000 0.000000
# 4 0.000000 0.000000 0.000000 0.069735 0.000000 0.000000
# 5 0.000000 0.000000 0.000000 0.000000 0.060864 0.000000
# 6 0.000000 0.000000 0.000000 0.000000 0.000000 0.045016
#
#
# Mechanical properties :
#
#
# Convention : Reuss Voigt Hill
#
# Bulk Modulus (GPa) = 44.33200 59.83235 52.08217
# Shear Modulus (GPa) = 20.48512 24.92085 22.70299
#
# Velocity S-wave (km/s) = 3.38721 3.73598 3.56586
# Velocity P-wave (km/s) = 6.33458 7.21946 6.79145
#
# Compressibility (1/GPa) = 0.02255707
#
# Stress axis : x y z
#
# Youngs Moduli (GPa) = 43.48870 100.00935 114.19055
#
# Poissons Ratio (x) = 0.45108 0.20543
# Poissons Ratio (y) = 0.19615 0.37540
# Poissons Ratio (z) = 0.07824 0.32878
#
# Static dielectric constant tensor:
#      x y z
#    x 3.172390 0.000000 0.000000 
#    y 0.000000 3.133170 0.000000 
#    z 0.000000 0.000000 3.686800 
# 
# 
# High freq. dielectric constant tensor:
#      x y z
#    x 1.675010 0.000000 0.000000 
#    y 0.000000 1.663660 0.000000 
#    z 0.000000 0.000000 1.697190 
# 
# From -- ./inp_files/60301.got.cif
#   From: 2010.03.12/outbox.cif.g09.slc.cpg/sg63_31_cif.got.tgz:60301.got - 2010.04.10 19:34:48.
