data_PCOD8256537
_publ_section_title
;
Structure prediction by ZEFSAII (Michael W. Deem and Ramdas Pophale) SiO2 
 PCOD8256537
Probable space group: C M C M
;
_chemical_formula_sum "Si O2"
_cell_formula_units_Z 80
_cell_length_a 13.216740
_cell_length_b 17.920901
_cell_length_c 18.741735
_cell_angle_alpha 90.000000
_cell_angle_beta 90.000000
_cell_angle_gamma 90.000000
_cell_volume 4439.090306
_symmetry_space_group_name_H-M "C M C M"
_symmetry_group_IT_number 63
_symmetry_cell_setting 'orthorhombic'
loop_
_space_group_symop_operation_xyz
x,y,z
-x,-y,1/2+z
x,-y,-z
-x,y,1/2-z
-x,-y,-z
x,y,1/2-z
-x,y,z
x,-y,1/2+z
1/2+x,1/2+y,z
1/2-x,1/2-y,1/2+z
1/2+x,1/2-y,-z
1/2-x,1/2+y,1/2-z
1/2-x,1/2-y,-z
1/2+x,1/2+y,1/2-z
1/2-x,1/2+y,z
1/2+x,1/2-y,1/2+z
loop_
_atom_site_type_symbol
_atom_site_label
_atom_site_fract_x
_atom_site_fract_y
_atom_site_fract_z
Si Si1 0.314980 0.912570 0.073453
Si Si2 0.616973 0.222401 0.830447
Si Si3 0.384372 0.075603 0.081630
Si Si4 0.293697 0.378955 0.666801
Si Si5 0.888124 0.986300 0.416538
O O1 0.359005 0.844840 0.117380
O O2 0.198207 0.924360 0.098030
O O3 0.381203 0.986148 0.089045
O O4 0.325891 0.896193 0.989266
O O5 0.647708 0.199298 0.750000
O O6 0.500000 0.242765 0.834824
O O7 0.676711 0.295482 0.855558
O O8 0.500000 0.103123 0.081984
O O9 0.324917 0.111333 0.148155
O O10 0.311759 0.393243 0.750000
O O11 0.362458 0.437272 0.623866
O O12 0.000000 0.958450 0.392000
O O13 0.887668 0.000000 0.500000
#
# Coordination Sequence:
#
# PCOD8256537 Si02
#       5
#    16  16  16  16  16
#     4  10  18  35  55  82 110 142 176 226 269 326
#     4  10  21  36  55  80 111 146 183 225 271 322
#     4  10  19  34  55  81 110 142 179 223 274 323
#     4  10  21  37  55  79 109 145 188 228 269 322
#     4  10  19  36  58  81 109 142 179 224 274 326
#
# _framework density 18.021709999999999
#
# number of rings (size 3 to 8) (size 9 to 14) (size 15 to 20)
#    0.000    2.000    4.000    3.000    0.000    5.600 
#    0.000    1.000    0.000    1.200    0.000    0.000 
#    0.000    0.000    0.000    0.000    0.000    0.000 
#
# Total GULP energy -495915.824834 kJ/mol
# GULP energy per Si atom -12397.895621 kJ/mol
# Density = 1.798069 g / cm^3
# Si number density = 18.021710 Si / 1000 Ang^3
#
#
#
# Elastic Constant Matrix: (Units=GPa)
#
#
# Indices 1 2 3 4 5 6 
#
# 1 121.1331 27.3902 23.5896 0.0000 0.0000 0.0000
# 2 27.3902 74.6291 58.6893 0.0000 0.0000 0.0000
# 3 23.5896 58.6893 83.8729 0.0000 0.0000 0.0000
# 4 0.0000 0.0000 0.0000 30.8001 0.0000 0.0000
# 5 0.0000 0.0000 0.0000 0.0000 18.7812 0.0000
# 6 0.0000 0.0000 0.0000 0.0000 0.0000 18.0658
#
#
#
# Elastic Compliance Matrix: (Units=1/GPa)
#
#
# Indices 1 2 3 4 5 6 
#
# 1 0.009012 -0.002922 -0.000490 0.000000 0.000000 0.000000
# 2 -0.002922 0.030744 -0.020691 0.000000 0.000000 0.000000
# 3 -0.000490 -0.020691 0.026539 0.000000 0.000000 0.000000
# 4 0.000000 0.000000 0.000000 0.032467 0.000000 0.000000
# 5 0.000000 0.000000 0.000000 0.000000 0.053245 0.000000
# 6 0.000000 0.000000 0.000000 0.000000 0.000000 0.055353
#
#
# Mechanical properties :
#
#
# Convention : Reuss Voigt Hill
#
# Bulk Modulus (GPa) = 55.28378 55.44146 55.36262
# Shear Modulus (GPa) = 19.11362 24.86049 21.98705
#
# Velocity S-wave (km/s) = 3.26020 3.71816 3.49668
# Velocity P-wave (km/s) = 6.70184 7.01879 6.86215
#
# Compressibility (1/GPa) = 0.01808849
#
# Stress axis : x y z
#
# Youngs Moduli (GPa) = 110.96910 32.52718 37.68096
#
# Poissons Ratio (x) = 0.09505 0.01845
# Poissons Ratio (y) = 0.32429 0.77964
# Poissons Ratio (z) = 0.05434 0.67301
#
# Static dielectric constant tensor:
#      x y z
#    x 3.745770 0.000000 0.000000 
#    y 0.000000 3.092390 0.000000 
#    z 0.000000 0.000000 3.337910 
# 
# 
# High freq. dielectric constant tensor:
#      x y z
#    x 1.708790 0.000000 0.000000 
#    y 0.000000 1.675320 0.000000 
#    z 0.000000 0.000000 1.695760 
# 
# From -- ./inp_files/53966.got.cif
#   From: 2010.03.12/outbox.cif.g09.slc.cpg/sg63_27_cif.got.tgz:53966.got - 2010.04.10 19:34:48.
