data_PCOD8256601
_publ_section_title
;
Structure prediction by ZEFSAII (Michael W. Deem and Ramdas Pophale) SiO2 
 PCOD8256601
Probable space group: C M C M
;
_chemical_formula_sum "Si O2"
_cell_formula_units_Z 64
_cell_length_a 13.515786
_cell_length_b 34.065317
_cell_length_c 9.428111
_cell_angle_alpha 90.000000
_cell_angle_beta 90.000000
_cell_angle_gamma 90.000000
_cell_volume 4340.886479
_symmetry_space_group_name_H-M "C M C M"
_symmetry_group_IT_number 63
_symmetry_cell_setting 'orthorhombic'
loop_
_space_group_symop_operation_xyz
x,y,z
-x,-y,1/2+z
x,-y,-z
-x,y,1/2-z
-x,-y,-z
x,y,1/2-z
-x,y,z
x,-y,1/2+z
1/2+x,1/2+y,z
1/2-x,1/2-y,1/2+z
1/2+x,1/2-y,-z
1/2-x,1/2+y,1/2-z
1/2-x,1/2-y,-z
1/2+x,1/2+y,1/2-z
1/2-x,1/2+y,z
1/2+x,1/2-y,1/2+z
loop_
_atom_site_type_symbol
_atom_site_label
_atom_site_fract_x
_atom_site_fract_y
_atom_site_fract_z
Si Si1 0.110901 0.239818 0.588973
Si Si2 0.200095 0.308182 0.084638
Si Si3 0.385575 0.122359 0.416719
Si Si4 0.382793 0.034766 0.093922
O O1 0.125741 0.255398 0.750000
O O2 0.128270 0.275709 0.482698
O O3 0.186038 0.204198 0.558649
O O4 0.000000 0.223695 0.565946
O O5 0.174392 0.312248 0.250000
O O6 0.184243 0.349448 0.007503
O O7 0.365189 0.127875 0.250000
O O8 0.500000 0.131689 0.450510
O O9 0.357973 0.078101 0.465536
O O10 0.336841 0.030085 0.250000
O O11 0.500000 0.030074 0.102220
O O12 0.335599 0.000000 0.000000
#
# Coordination Sequence:
#
# PCOD8256601 Si02
#       4
#    16  16  16  16
#     4   9  18  32  45  55  75 107 133 157 198 243
#     4  10  19  28  41  62  80  97 131 171 196 223
#     4   9  17  28  40  55  80 112 136 155 190 237
#     4   8  14  24  37  53  74 102 133 159 185 222
#
# _framework density 14.743532
#
# number of rings (size 3 to 8) (size 9 to 14) (size 15 to 20)
#    0.000    3.000    0.000    3.000    0.000    6.000 
#    0.000    2.500    0.000    0.000    0.000    0.000 
#    0.000    1.000    0.000    2.250    0.000    3.500 
#
# Total GULP energy -396670.521561 kJ/mol
# GULP energy per Si atom -12395.953799 kJ/mol
# Density = 1.470998 g / cm^3
# Si number density = 14.743532 Si / 1000 Ang^3
#
#
#
# Elastic Constant Matrix: (Units=GPa)
#
#
# Indices 1 2 3 4 5 6 
#
# 1 66.0702 42.1140 34.5792 0.0000 0.0000 0.0000
# 2 42.1140 125.9273 67.0948 0.0000 0.0000 0.0000
# 3 34.5792 67.0948 79.5003 0.0000 0.0000 0.0000
# 4 0.0000 0.0000 0.0000 31.5970 0.0000 0.0000
# 5 0.0000 0.0000 0.0000 0.0000 17.1109 0.0000
# 6 0.0000 0.0000 0.0000 0.0000 0.0000 16.9063
#
#
#
# Elastic Compliance Matrix: (Units=1/GPa)
#
#
# Indices 1 2 3 4 5 6 
#
# 1 0.020569 -0.003838 -0.005708 0.000000 0.000000 0.000000
# 2 -0.003838 0.015146 -0.011113 0.000000 0.000000 0.000000
# 3 -0.005708 -0.011113 0.024440 0.000000 0.000000 0.000000
# 4 0.000000 0.000000 0.000000 0.031649 0.000000 0.000000
# 5 0.000000 0.000000 0.000000 0.000000 0.058442 0.000000
# 6 0.000000 0.000000 0.000000 0.000000 0.000000 0.059149
#
#
# Mechanical properties :
#
#
# Convention : Reuss Voigt Hill
#
# Bulk Modulus (GPa) = 53.08507 62.11932 57.60219
# Shear Modulus (GPa) = 19.45593 21.63681 20.54637
#
# Velocity S-wave (km/s) = 3.63660 3.83501 3.73713
# Velocity P-wave (km/s) = 7.32919 7.86349 7.60104
#
# Compressibility (1/GPa) = 0.01883769
#
# Stress axis : x y z
#
# Youngs Moduli (GPa) = 48.61705 66.02562 40.91650
#
# Poissons Ratio (x) = 0.25339 0.23354
# Poissons Ratio (y) = 0.18658 0.45470
# Poissons Ratio (z) = 0.27749 0.73374
#
# Static dielectric constant tensor:
#      x y z
#    x 2.584600 0.000000 0.000000 
#    y 0.000000 2.901670 0.000000 
#    z 0.000000 0.000000 3.048990 
# 
# 
# High freq. dielectric constant tensor:
#      x y z
#    x 1.519010 0.000000 0.000000 
#    y 0.000000 1.560560 0.000000 
#    z 0.000000 0.000000 1.571990 
# 
# From -- ./inp_files/4842.got.cif
#   From: 2010.03.12/outbox.cif.g09.slc.cpg/sg63_3_cif.got.tgz:4842.got - 2010.04.10 19:34:48.
