data_PCOD8256402
_publ_section_title
;
Structure prediction by ZEFSAII (Michael W. Deem and Ramdas Pophale) SiO2 
 PCOD8256402
Probable space group: C M C M
;
_chemical_formula_sum "Si O2"
_cell_formula_units_Z 96
_cell_length_a 17.520765
_cell_length_b 15.637848
_cell_length_c 18.103695
_cell_angle_alpha 90.000000
_cell_angle_beta 90.000000
_cell_angle_gamma 90.000000
_cell_volume 4960.178167
_symmetry_space_group_name_H-M "C M C M"
_symmetry_group_IT_number 63
_symmetry_cell_setting 'orthorhombic'
loop_
_space_group_symop_operation_xyz
x,y,z
-x,-y,1/2+z
x,-y,-z
-x,y,1/2-z
-x,-y,-z
x,y,1/2-z
-x,y,z
x,-y,1/2+z
1/2+x,1/2+y,z
1/2-x,1/2-y,1/2+z
1/2+x,1/2-y,-z
1/2-x,1/2+y,1/2-z
1/2-x,1/2-y,-z
1/2+x,1/2+y,1/2-z
1/2-x,1/2+y,z
1/2+x,1/2-y,1/2+z
loop_
_atom_site_type_symbol
_atom_site_label
_atom_site_fract_x
_atom_site_fract_y
_atom_site_fract_z
Si Si1 0.133007 0.809268 0.560337
Si Si2 0.780375 0.308328 0.334177
Si Si3 0.612036 0.251848 0.167933
Si Si4 0.737222 0.091885 0.977945
Si Si5 0.082818 0.653648 0.031966
Si Si6 0.500000 0.606165 0.664305
Si Si7 0.000000 0.057427 0.427718
O O1 0.156196 0.757590 0.634646
O O2 0.209804 0.838099 0.517567
O O3 0.088847 0.745449 0.507072
O O4 0.076718 0.886710 0.579496
O O5 0.802099 0.338075 0.250000
O O6 0.702454 0.256639 0.332380
O O7 0.769475 0.389601 0.389699
O O8 0.580767 0.234238 0.250000
O O9 0.585936 0.171521 0.119408
O O10 0.575003 0.340946 0.137935
O O11 0.651151 0.091896 0.009211
O O12 0.772062 0.000000 0.000000
O O13 0.000000 0.612623 0.012445
O O14 0.500000 0.594458 0.750000
O O15 0.500000 0.509570 0.637761
O O16 0.000000 0.000000 0.500000
#
# Coordination Sequence:
#
# PCOD8256402 Si02
#       7
#    16  16  16  16  16   8   8
#     4  11  21  38  58  85 115 152 196 237 283 353
#     4  10  21  39  61  82 111 155 203 242 285 346
#     4  10  18  32  55  83 113 150 191 236 286 341
#     4  11  23  38  59  85 120 153 189 245 296 346
#     4  11  19  36  60  82 108 146 197 238 280 344
#     4  10  22  34  50  84 124 151 179 231 300 356
#     4  12  24  34  58  88 124 155 189 231 293 358
#
# _framework density 19.354144000000002
#
# number of rings (size 3 to 8) (size 9 to 14) (size 15 to 20)
#    0.000    1.333    5.000    2.500    2.333    1.000 
#    0.000    1.667    0.000    0.000    0.000    0.000 
#    0.000    0.000    0.000    0.000    0.000    0.000 
#
# Total GULP energy -594916.361611 kJ/mol
# GULP energy per Si atom -12394.090867 kJ/mol
# Density = 1.931009 g / cm^3
# Si number density = 19.354144 Si / 1000 Ang^3
#
#
#
# Elastic Constant Matrix: (Units=GPa)
#
#
# Indices 1 2 3 4 5 6 
#
# 1 97.5658 2.8778 23.6839 0.0000 0.0000 0.0000
# 2 2.8778 48.5880 34.0595 0.0000 0.0000 0.0000
# 3 23.6839 34.0595 124.0019 0.0000 0.0000 0.0000
# 4 0.0000 0.0000 0.0000 24.8418 0.0000 0.0000
# 5 0.0000 0.0000 0.0000 0.0000 20.8582 0.0000
# 6 0.0000 0.0000 0.0000 0.0000 0.0000 26.5780
#
#
#
# Elastic Compliance Matrix: (Units=1/GPa)
#
#
# Indices 1 2 3 4 5 6 
#
# 1 0.010787 0.000997 -0.002334 0.000000 0.000000 0.000000
# 2 0.000997 0.025581 -0.007217 0.000000 0.000000 0.000000
# 3 -0.002334 -0.007217 0.010492 0.000000 0.000000 0.000000
# 4 0.000000 0.000000 0.000000 0.040255 0.000000 0.000000
# 5 0.000000 0.000000 0.000000 0.000000 0.047943 0.000000
# 6 0.000000 0.000000 0.000000 0.000000 0.000000 0.037625
#
#
# Mechanical properties :
#
#
# Convention : Reuss Voigt Hill
#
# Bulk Modulus (GPa) = 33.61017 43.48867 38.54942
# Shear Modulus (GPa) = 25.03658 28.42455 26.73057
#
# Velocity S-wave (km/s) = 3.60057 3.83646 3.72039
# Velocity P-wave (km/s) = 5.88974 6.49179 6.19808
#
# Compressibility (1/GPa) = 0.02975290
#
# Stress axis : x y z
#
# Youngs Moduli (GPa) = 92.70686 39.09147 95.30674
#
# Poissons Ratio (x) = -0.03899 0.22246
# Poissons Ratio (y) = -0.09246 0.68781
# Poissons Ratio (z) = 0.21639 0.28212
#
# Static dielectric constant tensor:
#      x y z
#    x 3.941530 0.000000 0.000000 
#    y 0.000000 3.624080 0.000000 
#    z 0.000000 0.000000 3.197830 
# 
# 
# High freq. dielectric constant tensor:
#      x y z
#    x 1.767030 0.000000 0.000000 
#    y 0.000000 1.721130 0.000000 
#    z 0.000000 0.000000 1.753220 
# 
# From -- ./inp_files/45812.got.cif
#   From: 2010.03.12/outbox.cif.g09.slc.cpg/sg63_23_cif.got.tgz:45812.got - 2010.04.10 19:34:48.
