data_PCOD8256107
_publ_section_title
;
Structure prediction by ZEFSAII (Michael W. Deem and Ramdas Pophale) SiO2 
 PCOD8256107
Probable space group: C M C M
;
_chemical_formula_sum "Si O2"
_cell_formula_units_Z 72
_cell_length_a 32.320530
_cell_length_b 13.219859
_cell_length_c 9.768118
_cell_angle_alpha 90.000000
_cell_angle_beta 90.000000
_cell_angle_gamma 90.000000
_cell_volume 4173.651611
_symmetry_space_group_name_H-M "C M C M"
_symmetry_group_IT_number 63
_symmetry_cell_setting 'orthorhombic'
loop_
_space_group_symop_operation_xyz
x,y,z
-x,-y,1/2+z
x,-y,-z
-x,y,1/2-z
-x,-y,-z
x,y,1/2-z
-x,y,z
x,-y,1/2+z
1/2+x,1/2+y,z
1/2-x,1/2-y,1/2+z
1/2+x,1/2-y,-z
1/2-x,1/2+y,1/2-z
1/2-x,1/2-y,-z
1/2+x,1/2+y,1/2-z
1/2-x,1/2+y,z
1/2+x,1/2-y,1/2+z
loop_
_atom_site_type_symbol
_atom_site_label
_atom_site_fract_x
_atom_site_fract_y
_atom_site_fract_z
Si Si1 0.712995 0.273519 0.899176
Si Si2 0.415805 0.791933 0.411630
Si Si3 0.842206 0.418888 0.101180
Si Si4 0.365622 0.399960 0.587154
Si Si5 0.000000 0.396031 0.413336
O O1 0.730564 0.307015 0.750000
O O2 0.689550 0.169984 0.879295
O O3 0.680114 0.357501 0.951786
O O4 0.750000 0.250000 0.000000
O O5 0.410476 0.792535 0.250000
O O6 0.384472 0.877201 0.468235
O O7 0.401446 0.679973 0.460038
O O8 0.461612 0.824702 0.456753
O O9 0.850646 0.468719 0.250000
O O10 0.822248 0.500000 0.000000
O O11 0.373998 0.500000 0.500000
O O12 0.368234 0.421982 0.750000
O O13 0.000000 0.500000 0.500000
O O14 0.000000 0.420868 0.250000
#
# Coordination Sequence:
#
# PCOD8256107 Si02
#       5
#    16  16  16  16   8
#     4   9  19  33  47  65  92 121 152 191 234 278
#     4   8  16  31  49  69  96 126 155 186 229 282
#     4   9  17  30  46  65  90 120 149 181 223 273
#     4   9  18  34  52  69  92 126 163 198 236 280
#     4  10  18  30  51  76 100 128 157 190 233 282
#
# _framework density 17.251080000000002
#
# number of rings (size 3 to 8) (size 9 to 14) (size 15 to 20)
#    0.000    3.111    0.000    3.333    0.000    2.667 
#    0.000    9.444    0.000    0.000    0.000    0.000 
#    0.000    0.000    0.000    0.000    0.000    0.000 
#
# Total GULP energy -445970.844212 kJ/mol
# GULP energy per Si atom -12388.079006 kJ/mol
# Density = 1.721182 g / cm^3
# Si number density = 17.251080 Si / 1000 Ang^3
#
#
#
# Elastic Constant Matrix: (Units=GPa)
#
#
# Indices 1 2 3 4 5 6 
#
# 1 109.6651 33.0728 39.5564 0.0000 0.0000 0.0000
# 2 33.0728 98.2406 48.0007 0.0000 0.0000 0.0000
# 3 39.5564 48.0007 65.4222 0.0000 0.0000 0.0000
# 4 0.0000 0.0000 0.0000 30.9548 0.0000 0.0000
# 5 0.0000 0.0000 0.0000 0.0000 20.0245 0.0000
# 6 0.0000 0.0000 0.0000 0.0000 0.0000 10.9118
#
#
#
# Elastic Compliance Matrix: (Units=1/GPa)
#
#
# Indices 1 2 3 4 5 6 
#
# 1 0.011698 -0.000752 -0.006521 0.000000 0.000000 0.000000
# 2 -0.000752 0.015916 -0.011223 0.000000 0.000000 0.000000
# 3 -0.006521 -0.011223 0.027463 0.000000 0.000000 0.000000
# 4 0.000000 0.000000 0.000000 0.032305 0.000000 0.000000
# 5 0.000000 0.000000 0.000000 0.000000 0.049939 0.000000
# 6 0.000000 0.000000 0.000000 0.000000 0.000000 0.091644
#
#
# Mechanical properties :
#
#
# Convention : Reuss Voigt Hill
#
# Bulk Modulus (GPa) = 55.29694 57.17639 56.23667
# Shear Modulus (GPa) = 18.38346 22.55810 20.47078
#
# Velocity S-wave (km/s) = 3.26796 3.62005 3.44850
# Velocity P-wave (km/s) = 6.80905 7.11959 6.96605
#
# Compressibility (1/GPa) = 0.01808418
#
# Stress axis : x y z
#
# Youngs Moduli (GPa) = 85.48773 62.83090 36.41315
#
# Poissons Ratio (x) = 0.04723 0.23746
# Poissons Ratio (y) = 0.06426 0.40866
# Poissons Ratio (z) = 0.55748 0.70515
#
# Static dielectric constant tensor:
#      x y z
#    x 3.724360 0.000000 0.000000 
#    y 0.000000 3.219580 0.000000 
#    z 0.000000 0.000000 2.574080 
# 
# 
# High freq. dielectric constant tensor:
#      x y z
#    x 1.661960 0.000000 0.000000 
#    y 0.000000 1.661540 0.000000 
#    z 0.000000 0.000000 1.646970 
# 
# From -- ./inp_files/24754.got.cif
#   From: 2010.03.12/outbox.cif.g09.slc.cpg/sg63_13_cif.got.tgz:24754.got - 2010.04.10 19:34:48.
