data_PCOD8256249
_publ_section_title
;
Structure prediction by ZEFSAII (Michael W. Deem and Ramdas Pophale) SiO2 
 PCOD8256249
Probable space group: C M C M
;
_chemical_formula_sum "Si O2"
_cell_formula_units_Z 112
_cell_length_a 23.953318
_cell_length_b 13.088737
_cell_length_c 18.850948
_cell_angle_alpha 90.000000
_cell_angle_beta 90.000000
_cell_angle_gamma 90.000000
_cell_volume 5910.124326
_symmetry_space_group_name_H-M "C M C M"
_symmetry_group_IT_number 63
_symmetry_cell_setting 'orthorhombic'
loop_
_space_group_symop_operation_xyz
x,y,z
-x,-y,1/2+z
x,-y,-z
-x,y,1/2-z
-x,-y,-z
x,y,1/2-z
-x,y,z
x,-y,1/2+z
1/2+x,1/2+y,z
1/2-x,1/2-y,1/2+z
1/2+x,1/2-y,-z
1/2-x,1/2+y,1/2-z
1/2-x,1/2-y,-z
1/2+x,1/2+y,1/2-z
1/2-x,1/2+y,z
1/2+x,1/2-y,1/2+z
loop_
_atom_site_type_symbol
_atom_site_label
_atom_site_fract_x
_atom_site_fract_y
_atom_site_fract_z
Si Si1 0.269749 0.002099 0.418329
Si Si2 0.937438 0.395240 0.665782
Si Si3 0.361130 0.694501 0.329768
Si Si4 0.361251 0.500744 0.918155
Si Si5 0.267821 0.806266 0.829031
Si Si6 0.625026 0.308627 0.168699
Si Si7 0.136452 0.583807 0.667233
O O1 0.204397 0.982022 0.407621
O O2 0.305677 0.918269 0.376525
O O3 0.286792 0.000000 0.500000
O O4 0.286497 0.111494 0.386781
O O5 0.938618 0.397859 0.750000
O O6 0.907297 0.291522 0.640184
O O7 0.905224 0.496268 0.638308
O O8 0.000000 0.397250 0.634474
O O9 0.373429 0.655055 0.250000
O O10 0.380530 0.606920 0.383971
O O11 0.296149 0.723681 0.338886
O O12 0.391454 0.803440 0.344685
O O13 0.392374 0.593995 0.878753
O O14 0.379037 0.500000 0.000000
O O15 0.278074 0.852516 0.750000
O O16 0.308256 0.708999 0.839097
O O17 0.608725 0.332543 0.250000
O O18 0.150493 0.568551 0.750000
#
# Coordination Sequence:
#
# PCOD8256249 Si02
#       7
#    16  16  16  16  16  16  16
#     4  10  19  29  44  71 105 140 172 203 243 297
#     4   9  18  33  56  83 101 119 159 215 266 302
#     4   9  18  30  47  72 101 133 169 204 241 298
#     4  10  21  33  46  71 106 142 174 204 243 296
#     4   9  16  28  46  71  98 129 169 209 245 291
#     4  10  18  31  53  75  99 132 170 212 254 294
#     4  10  18  32  52  73 101 134 167 206 256 305
#
# _framework density 18.950531000000002
#
# number of rings (size 3 to 8) (size 9 to 14) (size 15 to 20)
#    0.000    2.429    1.429    1.714    0.000    4.000 
#    0.000    4.286    0.000    1.714    0.000    4.000 
#    0.000    0.000    0.000    0.000    0.000    0.000 
#
# Total GULP energy -694153.699404 kJ/mol
# GULP energy per Si atom -12395.601775 kJ/mol
# Density = 1.890740 g / cm^3
# Si number density = 18.950531 Si / 1000 Ang^3
#
#
#
# Elastic Constant Matrix: (Units=GPa)
#
#
# Indices 1 2 3 4 5 6 
#
# 1 38.4834 29.4283 14.4244 0.0000 0.0000 0.0000
# 2 29.4283 156.7417 68.8871 0.0000 0.0000 0.0000
# 3 14.4244 68.8871 91.7620 0.0000 0.0000 0.0000
# 4 0.0000 0.0000 0.0000 15.2607 0.0000 0.0000
# 5 0.0000 0.0000 0.0000 0.0000 9.0509 0.0000
# 6 0.0000 0.0000 0.0000 0.0000 0.0000 12.0027
#
#
#
# Elastic Compliance Matrix: (Units=1/GPa)
#
#
# Indices 1 2 3 4 5 6 
#
# 1 0.030375 -0.005379 -0.000736 0.000000 0.000000 0.000000
# 2 -0.005379 0.010474 -0.007017 0.000000 0.000000 0.000000
# 3 -0.000736 -0.007017 0.016282 0.000000 0.000000 0.000000
# 4 0.000000 0.000000 0.000000 0.065528 0.000000 0.000000
# 5 0.000000 0.000000 0.000000 0.000000 0.110486 0.000000
# 6 0.000000 0.000000 0.000000 0.000000 0.000000 0.083315
#
#
# Mechanical properties :
#
#
# Convention : Reuss Voigt Hill
#
# Bulk Modulus (GPa) = 32.40000 56.94077 44.67038
# Shear Modulus (GPa) = 14.16378 18.87934 16.52156
#
# Velocity S-wave (km/s) = 2.73684 3.15976 2.95587
# Velocity P-wave (km/s) = 5.20781 6.58972 5.93910
#
# Compressibility (1/GPa) = 0.03086420
#
# Stress axis : x y z
#
# Youngs Moduli (GPa) = 32.92205 95.47469 61.41900
#
# Poissons Ratio (x) = 0.51358 0.04523
# Poissons Ratio (y) = 0.17709 0.43100
# Poissons Ratio (z) = 0.02425 0.66998
#
# Static dielectric constant tensor:
#      x y z
#    x 3.173740 0.000000 0.000000 
#    y 0.000000 3.520750 0.000000 
#    z 0.000000 0.000000 3.303150 
# 
# 
# High freq. dielectric constant tensor:
#      x y z
#    x 1.686530 0.000000 0.000000 
#    y 0.000000 1.746990 0.000000 
#    z 0.000000 0.000000 1.713410 
# 
# From -- ./inp_files/58306.got.cif
#   From: 2010.03.12/outbox.cif.g09.slc.cpg/sg63_30_cif.got.tgz:58306.got - 2010.04.10 19:34:48.
