data_PCOD8256449
_publ_section_title
;
Structure prediction by ZEFSAII (Michael W. Deem and Ramdas Pophale) SiO2 
 PCOD8256449
Probable space group: C M C M
;
_chemical_formula_sum "Si O2"
_cell_formula_units_Z 104
_cell_length_a 27.114030
_cell_length_b 24.276833
_cell_length_c 8.659896
_cell_angle_alpha 90.000000
_cell_angle_beta 90.000000
_cell_angle_gamma 90.000000
_cell_volume 5700.314003
_symmetry_space_group_name_H-M "C M C M"
_symmetry_group_IT_number 63
_symmetry_cell_setting 'orthorhombic'
loop_
_space_group_symop_operation_xyz
x,y,z
-x,-y,1/2+z
x,-y,-z
-x,y,1/2-z
-x,-y,-z
x,y,1/2-z
-x,y,z
x,-y,1/2+z
1/2+x,1/2+y,z
1/2-x,1/2-y,1/2+z
1/2+x,1/2-y,-z
1/2-x,1/2+y,1/2-z
1/2-x,1/2-y,-z
1/2+x,1/2+y,1/2-z
1/2-x,1/2+y,z
1/2+x,1/2-y,1/2+z
loop_
_atom_site_type_symbol
_atom_site_label
_atom_site_fract_x
_atom_site_fract_y
_atom_site_fract_z
Si Si1 0.054614 0.058958 0.574141
Si Si2 0.122616 0.855549 0.930610
Si Si3 0.000000 0.562176 0.934147
Si Si4 0.946796 0.761669 0.566690
Si Si5 0.287906 0.311931 0.070209
Si Si6 0.685897 0.189055 0.068621
Si Si7 0.912791 0.644248 0.932714
O O1 0.074247 0.057167 0.750000
O O2 0.091226 0.090831 0.462590
O O3 0.000000 0.085682 0.569425
O O4 0.051838 0.000000 0.500000
O O5 0.133948 0.850006 0.750000
O O6 0.093431 0.803033 0.000273
O O7 0.172867 0.858943 0.027501
O O8 0.050722 0.594187 0.989099
O O9 0.000000 0.559440 0.750000
O O10 0.000000 0.500000 0.000000
O O11 0.944944 0.763247 0.750000
O O12 0.938141 0.699985 0.507847
O O13 0.000000 0.780993 0.505888
O O14 0.275743 0.309016 0.250000
O O15 0.311426 0.253333 0.011576
O O16 0.239293 0.332933 0.981655
O O17 0.678706 0.185837 0.250000
O O18 0.643338 0.149109 0.997224
O O19 0.908456 0.640885 0.750000
#
# Coordination Sequence:
#
# PCOD8256449 Si02
#       7
#    16  16   8  16  16  16  16
#     4  10  21  37  55  75 104 142 185 228 267 314
#     4  11  20  31  52  79 109 143 180 224 272 322
#     4  10  22  38  60  84 112 148 191 232 273 328
#     4   9  16  27  46  74 106 138 175 214 260 320
#     4  10  20  33  50  75 110 146 183 220 267 329
#     4  10  20  33  51  77 109 144 180 222 272 325
#     4  10  18  33  55  78 106 143 181 220 269 325
#
# _framework density 18.244609000000001
#
# number of rings (size 3 to 8) (size 9 to 14) (size 15 to 20)
#    0.000    2.000    2.308    2.308    0.000    3.385 
#    0.000    0.000    0.000    1.846    0.000    4.308 
#    0.000    0.000    0.000    0.000    0.000    0.000 
#
# Total GULP energy -644235.010022 kJ/mol
# GULP energy per Si atom -12389.134808 kJ/mol
# Density = 1.820308 g / cm^3
# Si number density = 18.244609 Si / 1000 Ang^3
#
#
#
# Elastic Constant Matrix: (Units=GPa)
#
#
# Indices 1 2 3 4 5 6 
#
# 1 143.1203 50.0589 26.0234 0.0000 0.0000 0.0000
# 2 50.0589 71.7238 15.8382 0.0000 0.0000 0.0000
# 3 26.0234 15.8382 42.8105 0.0000 0.0000 0.0000
# 4 0.0000 0.0000 0.0000 24.8835 0.0000 0.0000
# 5 0.0000 0.0000 0.0000 0.0000 26.8576 0.0000
# 6 0.0000 0.0000 0.0000 0.0000 0.0000 41.3770
#
#
#
# Elastic Compliance Matrix: (Units=1/GPa)
#
#
# Indices 1 2 3 4 5 6 
#
# 1 0.009758 -0.005990 -0.003715 0.000000 0.000000 0.000000
# 2 -0.005990 0.018860 -0.003336 0.000000 0.000000 0.000000
# 3 -0.003715 -0.003336 0.026852 0.000000 0.000000 0.000000
# 4 0.000000 0.000000 0.000000 0.040187 0.000000 0.000000
# 5 0.000000 0.000000 0.000000 0.000000 0.037233 0.000000
# 6 0.000000 0.000000 0.000000 0.000000 0.000000 0.024168
#
#
# Mechanical properties :
#
#
# Convention : Reuss Voigt Hill
#
# Bulk Modulus (GPa) = 34.03002 49.05506 41.54254
# Shear Modulus (GPa) = 25.91533 29.67258 27.79396
#
# Velocity S-wave (km/s) = 3.77296 4.03721 3.90732
# Velocity P-wave (km/s) = 6.13782 6.97695 6.57080
#
# Compressibility (1/GPa) = 0.02938582
#
# Stress axis : x y z
#
# Youngs Moduli (GPa) = 102.48235 53.02318 37.24183
#
# Poissons Ratio (x) = 0.31760 0.13837
# Poissons Ratio (y) = 0.61386 0.12425
# Poissons Ratio (z) = 0.38077 0.17690
#
# Static dielectric constant tensor:
#      x y z
#    x 3.621680 0.000000 0.000000 
#    y 0.000000 3.204910 0.000000 
#    z 0.000000 0.000000 3.202850 
# 
# 
# High freq. dielectric constant tensor:
#      x y z
#    x 1.719870 0.000000 0.000000 
#    y 0.000000 1.670240 0.000000 
#    z 0.000000 0.000000 1.697170 
# 
# From -- ./inp_files/12901.got.cif
#   From: 2010.03.12/outbox.cif.g09.slc.cpg/sg63_7_cif.got.tgz:12901.got - 2010.04.10 19:34:48.
