data_PCOD8256488
_publ_section_title
;
Structure prediction by ZEFSAII (Michael W. Deem and Ramdas Pophale) SiO2 
 PCOD8256488
Probable space group: C M C M
;
_chemical_formula_sum "Si O2"
_cell_formula_units_Z 96
_cell_length_a 8.816555
_cell_length_b 25.749073
_cell_length_c 23.565255
_cell_angle_alpha 90.000000
_cell_angle_beta 90.000000
_cell_angle_gamma 90.000000
_cell_volume 5349.739847
_symmetry_space_group_name_H-M "C M C M"
_symmetry_group_IT_number 63
_symmetry_cell_setting 'orthorhombic'
loop_
_space_group_symop_operation_xyz
x,y,z
-x,-y,1/2+z
x,-y,-z
-x,y,1/2-z
-x,-y,-z
x,y,1/2-z
-x,y,z
x,-y,1/2+z
1/2+x,1/2+y,z
1/2-x,1/2-y,1/2+z
1/2+x,1/2-y,-z
1/2-x,1/2+y,1/2-z
1/2-x,1/2-y,-z
1/2+x,1/2+y,1/2-z
1/2-x,1/2+y,z
1/2+x,1/2-y,1/2+z
loop_
_atom_site_type_symbol
_atom_site_label
_atom_site_fract_x
_atom_site_fract_y
_atom_site_fract_z
Si Si1 0.178625 0.804054 0.064306
Si Si2 0.680034 0.402074 0.868591
Si Si3 0.180523 0.000235 0.063169
Si Si4 0.679907 0.597110 0.636370
Si Si5 0.179714 0.559606 0.750000
Si Si6 0.320580 0.696699 0.064845
Si Si7 0.179564 0.945227 0.750000
O O1 0.231851 0.849902 0.105842
O O2 0.253115 0.750985 0.086278
O O3 0.000000 0.797319 0.066475
O O4 0.230791 0.816011 0.999683
O O5 0.500000 0.401892 0.873195
O O6 0.746460 0.449290 0.905520
O O7 0.744216 0.348117 0.893592
O O8 0.731686 0.411126 0.803855
O O9 0.000000 0.001817 0.061232
O O10 0.235523 0.949421 0.096164
O O11 0.248408 0.000000 0.000000
O O12 0.500000 0.595203 0.646257
O O13 0.763632 0.592134 0.696056
O O14 0.244779 0.501507 0.750000
O O15 0.000000 0.556521 0.750000
O O16 0.500000 0.700057 0.068922
O O17 0.000000 0.955502 0.750000
#
# Coordination Sequence:
#
# PCOD8256488 Si02
#       7
#    16  16  16  16   8  16   8
#     4   9  18  32  52  77 103 135 174 210 253 308
#     4   9  16  27  48  75 100 128 169 210 246 295
#     4   9  15  24  46  79 104 122 158 215 261 293
#     4  10  19  34  55  76 101 136 178 217 254 303
#     4  12  24  36  51  74 105 139 174 212 262 317
#     4   9  17  31  51  77 107 137 169 211 258 302
#     4  10  18  34  55  74  97 133 174 210 254 303
#
# _framework density 17.944797000000001
#
# number of rings (size 3 to 8) (size 9 to 14) (size 15 to 20)
#    0.000    2.500    1.667    1.750    0.000    4.667 
#    0.000    1.667    0.000    1.500    0.000    0.000 
#    0.000    0.000    0.000    0.000    0.000    0.000 
#
# Total GULP energy -595137.940919 kJ/mol
# GULP energy per Si atom -12398.707102 kJ/mol
# Density = 1.790395 g / cm^3
# Si number density = 17.944797 Si / 1000 Ang^3
#
#
#
# Elastic Constant Matrix: (Units=GPa)
#
#
# Indices 1 2 3 4 5 6 
#
# 1 24.3875 29.3858 27.6777 0.0000 0.0000 0.0000
# 2 29.3858 181.8321 101.3691 0.0000 0.0000 0.0000
# 3 27.6777 101.3691 164.4946 0.0000 0.0000 0.0000
# 4 0.0000 0.0000 0.0000 31.1428 0.0000 0.0000
# 5 0.0000 0.0000 0.0000 0.0000 12.0475 0.0000
# 6 0.0000 0.0000 0.0000 0.0000 0.0000 24.6037
#
#
#
# Elastic Compliance Matrix: (Units=1/GPa)
#
#
# Indices 1 2 3 4 5 6 
#
# 1 0.054180 -0.005597 -0.005667 0.000000 0.000000 0.000000
# 2 -0.005597 0.008956 -0.004577 0.000000 0.000000 0.000000
# 3 -0.005667 -0.004577 0.009854 0.000000 0.000000 0.000000
# 4 0.000000 0.000000 0.000000 0.032110 0.000000 0.000000
# 5 0.000000 0.000000 0.000000 0.000000 0.083004 0.000000
# 6 0.000000 0.000000 0.000000 0.000000 0.000000 0.040644
#
#
# Mechanical properties :
#
#
# Convention : Reuss Voigt Hill
#
# Bulk Modulus (GPa) = 24.20898 76.39771 50.30335
# Shear Modulus (GPa) = 18.23486 27.71092 22.97289
#
# Velocity S-wave (km/s) = 3.19119 3.93393 3.58187
# Velocity P-wave (km/s) = 5.20561 7.95617 6.72306
#
# Compressibility (1/GPa) = 0.04130698
#
# Stress axis : x y z
#
# Youngs Moduli (GPa) = 18.45694 111.65905 101.48590
#
# Poissons Ratio (x) = 0.62490 0.57517
# Poissons Ratio (y) = 0.10329 0.46453
# Poissons Ratio (z) = 0.10460 0.51110
#
# Static dielectric constant tensor:
#      x y z
#    x 2.873360 0.000000 0.000000 
#    y 0.000000 3.466710 0.000000 
#    z 0.000000 0.000000 3.539280 
# 
# 
# High freq. dielectric constant tensor:
#      x y z
#    x 1.649440 0.000000 0.000000 
#    y 0.000000 1.700300 0.000000 
#    z 0.000000 0.000000 1.699940 
# 
# From -- ./inp_files/60001.got.cif
#   From: 2010.03.12/outbox.cif.g09.slc.cpg/sg63_31_cif.got.tgz:60001.got - 2010.04.10 19:34:48.
