data_PCOD8256009
_publ_section_title
;
Structure prediction by ZEFSAII (Michael W. Deem and Ramdas Pophale) SiO2 
 PCOD8256009
Probable space group: C M C M
;
_chemical_formula_sum "Si O2"
_cell_formula_units_Z 96
_cell_length_a 22.804515
_cell_length_b 27.298055
_cell_length_c 8.876969
_cell_angle_alpha 90.000000
_cell_angle_beta 90.000000
_cell_angle_gamma 90.000000
_cell_volume 5526.081019
_symmetry_space_group_name_H-M "C M C M"
_symmetry_group_IT_number 63
_symmetry_cell_setting 'orthorhombic'
loop_
_space_group_symop_operation_xyz
x,y,z
-x,-y,1/2+z
x,-y,-z
-x,y,1/2-z
-x,-y,-z
x,y,1/2-z
-x,y,z
x,-y,1/2+z
1/2+x,1/2+y,z
1/2-x,1/2-y,1/2+z
1/2+x,1/2-y,-z
1/2-x,1/2+y,1/2-z
1/2-x,1/2-y,-z
1/2+x,1/2+y,1/2-z
1/2-x,1/2+y,z
1/2+x,1/2-y,1/2+z
loop_
_atom_site_type_symbol
_atom_site_label
_atom_site_fract_x
_atom_site_fract_y
_atom_site_fract_z
Si Si1 0.681217 0.193229 0.420499
Si Si2 0.201171 0.141813 0.079420
Si Si3 0.380803 0.107263 0.572068
Si Si4 0.223064 0.448869 0.570037
Si Si5 0.000000 0.255844 0.929795
Si Si6 0.381498 0.708905 0.577104
Si Si7 0.500000 0.131221 0.070385
O O1 0.661480 0.178257 0.250000
O O2 0.750191 0.184286 0.440084
O O3 0.644759 0.160981 0.537798
O O4 0.667687 0.249779 0.450250
O O5 0.181990 0.134851 0.250000
O O6 0.227963 0.090788 0.018471
O O7 0.142258 0.158424 0.993931
O O8 0.384483 0.098792 0.750000
O O9 0.339733 0.065825 0.498200
O O10 0.444447 0.102886 0.497511
O O11 0.243576 0.500000 0.500000
O O12 0.218009 0.451238 0.750000
O O13 0.057065 0.227435 0.993915
O O14 0.000000 0.312096 0.985013
O O15 0.000000 0.256421 0.750000
O O16 0.392035 0.697447 0.750000
O O17 0.500000 0.127392 0.250000
#
# Coordination Sequence:
#
# PCOD8256009 Si02
#       7
#    16  16  16  16   8  16   8
#     4   9  17  31  48  68  99 140 175 207 252 302
#     4   9  19  32  48  74 104 130 162 207 259 310
#     4  11  21  32  50  78 105 133 176 219 256 302
#     4  10  21  39  59  78 101 130 165 209 267 319
#     4   9  18  31  49  70  99 142 183 215 244 290
#     4  10  18  30  48  71 100 138 179 209 247 299
#     4  11  19  35  54  68 101 146 184 217 256 296
#
# _framework density 17.372167000000001
#
# number of rings (size 3 to 8) (size 9 to 14) (size 15 to 20)
#    0.000    2.167    1.667    3.750    0.000    4.000 
#    0.000    0.833    0.000    0.000    0.000    0.583 
#    0.000    0.000    0.000    0.000    0.000    0.000 
#
# Total GULP energy -595082.456525 kJ/mol
# GULP energy per Si atom -12397.551178 kJ/mol
# Density = 1.733263 g / cm^3
# Si number density = 17.372167 Si / 1000 Ang^3
#
#
#
# Elastic Constant Matrix: (Units=GPa)
#
#
# Indices 1 2 3 4 5 6 
#
# 1 69.5354 51.0932 25.5966 0.0000 0.0000 0.0000
# 2 51.0932 94.5886 34.6587 0.0000 0.0000 0.0000
# 3 25.5966 34.6587 70.5987 0.0000 0.0000 0.0000
# 4 0.0000 0.0000 0.0000 26.6763 0.0000 0.0000
# 5 0.0000 0.0000 0.0000 0.0000 26.7235 0.0000
# 6 0.0000 0.0000 0.0000 0.0000 0.0000 19.1124
#
#
#
# Elastic Compliance Matrix: (Units=1/GPa)
#
#
# Indices 1 2 3 4 5 6 
#
# 1 0.024319 -0.012078 -0.002888 0.000000 0.000000 0.000000
# 2 -0.012078 0.018890 -0.004894 0.000000 0.000000 0.000000
# 3 -0.002888 -0.004894 0.017614 0.000000 0.000000 0.000000
# 4 0.000000 0.000000 0.000000 0.037486 0.000000 0.000000
# 5 0.000000 0.000000 0.000000 0.000000 0.037420 0.000000
# 6 0.000000 0.000000 0.000000 0.000000 0.000000 0.052322
#
#
# Mechanical properties :
#
#
# Convention : Reuss Voigt Hill
#
# Bulk Modulus (GPa) = 47.38761 50.82443 49.10602
# Shear Modulus (GPa) = 21.29420 22.72740 22.01080
#
# Velocity S-wave (km/s) = 3.50489 3.62092 3.56338
# Velocity P-wave (km/s) = 6.61182 6.84114 6.72745
#
# Compressibility (1/GPa) = 0.02110256
#
# Stress axis : x y z
#
# Youngs Moduli (GPa) = 41.12038 52.93931 56.77206
#
# Poissons Ratio (x) = 0.63940 0.16394
# Poissons Ratio (y) = 0.49665 0.27786
# Poissons Ratio (z) = 0.11874 0.25910
#
# Static dielectric constant tensor:
#      x y z
#    x 3.243520 0.000000 0.000000 
#    y 0.000000 3.068500 0.000000 
#    z 0.000000 0.000000 3.128870 
# 
# 
# High freq. dielectric constant tensor:
#      x y z
#    x 1.659420 0.000000 0.000000 
#    y 0.000000 1.645840 0.000000 
#    z 0.000000 0.000000 1.664710 
# 
# From -- ./inp_files/10548.got.cif
#   From: 2010.03.12/outbox.cif.g09.slc.cpg/sg63_6_cif.got.tgz:10548.got - 2010.04.10 19:34:48.
