data_PCOD8256140
_publ_section_title
;
Structure prediction by ZEFSAII (Michael W. Deem and Ramdas Pophale) SiO2 
 PCOD8256140
Probable space group: C M C M
;
_chemical_formula_sum "Si O2"
_cell_formula_units_Z 128
_cell_length_a 19.655971
_cell_length_b 19.218669
_cell_length_c 19.792296
_cell_angle_alpha 90.000000
_cell_angle_beta 90.000000
_cell_angle_gamma 90.000000
_cell_volume 7476.769415
_symmetry_space_group_name_H-M "C M C M"
_symmetry_group_IT_number 63
_symmetry_cell_setting 'orthorhombic'
loop_
_space_group_symop_operation_xyz
x,y,z
-x,-y,1/2+z
x,-y,-z
-x,y,1/2-z
-x,-y,-z
x,y,1/2-z
-x,y,z
x,-y,1/2+z
1/2+x,1/2+y,z
1/2-x,1/2-y,1/2+z
1/2+x,1/2-y,-z
1/2-x,1/2+y,1/2-z
1/2-x,1/2-y,-z
1/2+x,1/2+y,1/2-z
1/2-x,1/2+y,z
1/2+x,1/2-y,1/2+z
loop_
_atom_site_type_symbol
_atom_site_label
_atom_site_fract_x
_atom_site_fract_y
_atom_site_fract_z
Si Si1 0.425087 0.338137 0.670772
Si Si2 0.075659 0.787140 0.449721
Si Si3 0.573096 0.448746 0.063061
Si Si4 0.280957 0.605234 0.329455
Si Si5 0.206133 0.712346 0.410703
Si Si6 0.925887 0.291252 0.087817
Si Si7 0.708426 0.155399 0.554897
Si Si8 0.784767 0.018266 0.920925
O O1 0.425145 0.345379 0.750000
O O2 0.500000 0.365155 0.642652
O O3 0.358443 0.379439 0.644118
O O4 0.417536 0.256548 0.653789
O O5 0.089045 0.869165 0.457455
O O6 0.130961 0.746865 0.402983
O O7 0.083797 0.761040 0.525458
O O8 0.000000 0.771755 0.420400
O O9 0.500000 0.452160 0.102227
O O10 0.637722 0.472191 0.107013
O O11 0.568030 0.500000 0.000000
O O12 0.278166 0.589392 0.250000
O O13 0.229320 0.669069 0.344868
O O14 0.252605 0.539683 0.372200
O O15 0.260073 0.773568 0.418102
O O16 0.210050 0.658126 0.473460
O O17 0.868754 0.350437 0.083009
O O18 0.000000 0.327819 0.086462
O O19 0.744884 0.089789 0.587581
O O20 0.783741 0.000000 0.000000
#
# Coordination Sequence:
#
# PCOD8256140 Si02
#       8
#    16  16  16  16  16  16  16  16
#     4   9  18  31  47  70 102 141 176 205 249 312
#     4   9  17  29  48  77 106 132 167 216 261 304
#     4   9  18  27  42  72 108 141 172 205 249 305
#     4  11  23  37  52  75 106 141 179 218 262 315
#     4  10  18  32  53  77 102 134 170 220 262 307
#     4   9  17  28  48  74 103 129 162 212 263 307
#     4  10  18  30  53  79 102 130 174 214 263 306
#     4  11  21  33  51  75 104 143 175 213 260 313
#
# _framework density 17.119693000000002
#
# number of rings (size 3 to 8) (size 9 to 14) (size 15 to 20)
#    0.000    2.250    3.750    0.000    3.500    0.500 
#    0.000    1.250    0.000    1.500    0.000    1.750 
#    0.000    0.000    0.000    0.000    0.000    0.000 
#
# Total GULP energy -792837.110000 kJ/mol
# GULP energy per Si atom -12388.079844 kJ/mol
# Density = 1.708073 g / cm^3
# Si number density = 17.119693 Si / 1000 Ang^3
#
#
#
# Elastic Constant Matrix: (Units=GPa)
#
#
# Indices 1 2 3 4 5 6 
#
# 1 113.2654 51.8210 24.4255 0.0000 0.0000 0.0000
# 2 51.8210 82.9285 29.9506 0.0000 0.0000 0.0000
# 3 24.4255 29.9506 40.8304 0.0000 0.0000 0.0000
# 4 0.0000 0.0000 0.0000 19.2948 0.0000 0.0000
# 5 0.0000 0.0000 0.0000 0.0000 8.0366 0.0000
# 6 0.0000 0.0000 0.0000 0.0000 0.0000 30.4757
#
#
#
# Elastic Compliance Matrix: (Units=1/GPa)
#
#
# Indices 1 2 3 4 5 6 
#
# 1 0.012532 -0.006970 -0.002384 0.000000 0.000000 0.000000
# 2 -0.006970 0.020281 -0.010707 0.000000 0.000000 0.000000
# 3 -0.002384 -0.010707 0.033772 0.000000 0.000000 0.000000
# 4 0.000000 0.000000 0.000000 0.051827 0.000000 0.000000
# 5 0.000000 0.000000 0.000000 0.000000 0.124431 0.000000
# 6 0.000000 0.000000 0.000000 0.000000 0.000000 0.032813
#
#
# Mechanical properties :
#
#
# Convention : Reuss Voigt Hill
#
# Bulk Modulus (GPa) = 37.78983 49.93538 43.86261
# Shear Modulus (GPa) = 15.40361 20.28325 17.84343
#
# Velocity S-wave (km/s) = 3.00285 3.44581 3.23193
# Velocity P-wave (km/s) = 5.84334 6.71291 6.29317
#
# Compressibility (1/GPa) = 0.02646215
#
# Stress axis : x y z
#
# Youngs Moduli (GPa) = 79.79686 49.30694 29.61037
#
# Poissons Ratio (x) = 0.34367 0.07059
# Poissons Ratio (y) = 0.55618 0.31705
# Poissons Ratio (z) = 0.19024 0.52795
#
# Static dielectric constant tensor:
#      x y z
#    x 3.770210 0.000000 0.000000 
#    y 0.000000 3.053160 0.000000 
#    z 0.000000 0.000000 2.779060 
# 
# 
# High freq. dielectric constant tensor:
#      x y z
#    x 1.674910 0.000000 0.000000 
#    y 0.000000 1.644400 0.000000 
#    z 0.000000 0.000000 1.613190 
# 
# From -- ./inp_files/56969.got.cif
#   From: 2010.03.12/outbox.cif.g09.slc.cpg/sg63_29_cif.got.tgz:56969.got - 2010.04.10 19:34:48.
