data_PCOD8256457
_publ_section_title
;
Structure prediction by ZEFSAII (Michael W. Deem and Ramdas Pophale) SiO2 
 PCOD8256457
Probable space group: C M C M
;
_chemical_formula_sum "Si O2"
_cell_formula_units_Z 88
_cell_length_a 25.024956
_cell_length_b 8.834562
_cell_length_c 20.810276
_cell_angle_alpha 90.000000
_cell_angle_beta 90.000000
_cell_angle_gamma 90.000000
_cell_volume 4600.829991
_symmetry_space_group_name_H-M "C M C M"
_symmetry_group_IT_number 63
_symmetry_cell_setting 'orthorhombic'
loop_
_space_group_symop_operation_xyz
x,y,z
-x,-y,1/2+z
x,-y,-z
-x,y,1/2-z
-x,-y,-z
x,y,1/2-z
-x,y,z
x,-y,1/2+z
1/2+x,1/2+y,z
1/2-x,1/2-y,1/2+z
1/2+x,1/2-y,-z
1/2-x,1/2+y,1/2-z
1/2-x,1/2-y,-z
1/2+x,1/2+y,1/2-z
1/2-x,1/2+y,z
1/2+x,1/2-y,1/2+z
loop_
_atom_site_type_symbol
_atom_site_label
_atom_site_fract_x
_atom_site_fract_y
_atom_site_fract_z
Si Si1 0.810607 0.598893 0.673176
Si Si2 0.000000 0.556380 0.817800
Si Si3 0.000000 0.251212 0.878780
Si Si4 0.914762 0.256171 0.124216
Si Si5 0.500000 0.825498 0.481686
Si Si6 0.700979 0.753105 0.674325
Si Si7 0.598320 0.574669 0.674037
O O1 0.821528 0.617128 0.750000
O O2 0.855968 0.672634 0.628574
O O3 0.757071 0.685156 0.651683
O O4 0.805356 0.425286 0.651171
O O5 0.000000 0.433724 0.874057
O O6 0.948408 0.663492 0.819916
O O7 0.000000 0.469331 0.750000
O O8 0.948487 0.189901 0.842516
O O9 0.000000 0.218701 0.954941
O O10 0.945800 0.286108 0.057338
O O11 0.911772 0.078059 0.135465
O O12 0.500000 0.000000 0.500000
O O13 0.697840 0.750368 0.750000
O O14 0.653049 0.648901 0.647905
O O15 0.600455 0.542036 0.750000
#
# Coordination Sequence:
#
# PCOD8256457 Si02
#       7
#    16   8   8  16   8  16  16
#     4  10  18  33  56  87 120 158 191 234 298 355
#     4  11  20  33  54  84 110 143 186 240 302 351
#     4  12  23  39  60  78 115 156 198 244 290 347
#     4  11  22  36  59  81 117 158 193 246 286 348
#     4  11  25  45  58  82 110 158 214 244 291 335
#     4   9  19  32  53  86 127 156 186 229 292 370
#     4  11  22  36  57  94 125 150 187 242 302 358
#
# _framework density 19.126985000000001
#
# number of rings (size 3 to 8) (size 9 to 14) (size 15 to 20)
#    0.000    1.455    1.818    5.727    0.000    5.818 
#    0.000    0.000    0.000    1.091    0.000    0.000 
#    0.000    0.000    0.000    0.000    0.000    0.000 
#
# Total GULP energy -545489.890253 kJ/mol
# GULP energy per Si atom -12397.497506 kJ/mol
# Density = 1.908345 g / cm^3
# Si number density = 19.126985 Si / 1000 Ang^3
#
#
#
# Elastic Constant Matrix: (Units=GPa)
#
#
# Indices 1 2 3 4 5 6 
#
# 1 148.7160 44.2396 14.1934 0.0000 0.0000 0.0000
# 2 44.2396 107.3424 3.9633 0.0000 0.0000 0.0000
# 3 14.1934 3.9633 54.2329 0.0000 0.0000 0.0000
# 4 0.0000 0.0000 0.0000 24.8309 0.0000 0.0000
# 5 0.0000 0.0000 0.0000 0.0000 12.8451 0.0000
# 6 0.0000 0.0000 0.0000 0.0000 0.0000 34.8940
#
#
#
# Elastic Compliance Matrix: (Units=1/GPa)
#
#
# Indices 1 2 3 4 5 6 
#
# 1 0.007839 -0.003164 -0.001820 0.000000 0.000000 0.000000
# 2 -0.003164 0.010618 0.000052 0.000000 0.000000 0.000000
# 3 -0.001820 0.000052 0.018912 0.000000 0.000000 0.000000
# 4 0.000000 0.000000 0.000000 0.040272 0.000000 0.000000
# 5 0.000000 0.000000 0.000000 0.000000 0.077850 0.000000
# 6 0.000000 0.000000 0.000000 0.000000 0.000000 0.028658
#
#
# Mechanical properties :
#
#
# Convention : Reuss Voigt Hill
#
# Bulk Modulus (GPa) = 36.35747 48.34266 42.35006
# Shear Modulus (GPa) = 24.60851 31.04034 27.82443
#
# Velocity S-wave (km/s) = 3.59079 4.03284 3.81822
# Velocity P-wave (km/s) = 6.02009 6.85671 6.45198
#
# Compressibility (1/GPa) = 0.02750467
#
# Stress axis : x y z
#
# Youngs Moduli (GPa) = 127.56664 94.18086 52.87758
#
# Poissons Ratio (x) = 0.29794 0.09626
# Poissons Ratio (y) = 0.40356 -0.00275
# Poissons Ratio (z) = 0.23222 -0.00490
#
# Static dielectric constant tensor:
#      x y z
#    x 3.936960 0.000000 0.000000 
#    y 0.000000 3.680090 0.000000 
#    z 0.000000 0.000000 3.186980 
# 
# 
# High freq. dielectric constant tensor:
#      x y z
#    x 1.757820 0.000000 0.000000 
#    y 0.000000 1.762810 0.000000 
#    z 0.000000 0.000000 1.701180 
# 
# From -- ./inp_files/57410.got.cif
#   From: 2010.03.12/outbox.cif.g09.slc.cpg/sg63_29_cif.got.tgz:57410.got - 2010.04.10 19:34:48.
