data_PCOD8256197
_publ_section_title
;
Structure prediction by ZEFSAII (Michael W. Deem and Ramdas Pophale) SiO2 
 PCOD8256197
Probable space group: C M C M
;
_chemical_formula_sum "Si O2"
_cell_formula_units_Z 88
_cell_length_a 18.048355
_cell_length_b 12.534783
_cell_length_c 20.610750
_cell_angle_alpha 90.000000
_cell_angle_beta 90.000000
_cell_angle_gamma 90.000000
_cell_volume 4662.815593
_symmetry_space_group_name_H-M "C M C M"
_symmetry_group_IT_number 63
_symmetry_cell_setting 'orthorhombic'
loop_
_space_group_symop_operation_xyz
x,y,z
-x,-y,1/2+z
x,-y,-z
-x,y,1/2-z
-x,-y,-z
x,y,1/2-z
-x,y,z
x,-y,1/2+z
1/2+x,1/2+y,z
1/2-x,1/2-y,1/2+z
1/2+x,1/2-y,-z
1/2-x,1/2+y,1/2-z
1/2-x,1/2-y,-z
1/2+x,1/2+y,1/2-z
1/2-x,1/2+y,z
1/2+x,1/2-y,1/2+z
loop_
_atom_site_type_symbol
_atom_site_label
_atom_site_fract_x
_atom_site_fract_y
_atom_site_fract_z
Si Si1 0.686466 0.664183 0.176872
Si Si2 0.700332 0.000000 0.000000
Si Si3 0.210346 0.948703 0.378999
Si Si4 0.139945 0.607474 0.676368
Si Si5 0.351345 0.752137 0.676009
Si Si6 0.918051 0.573633 0.407469
O O1 0.663794 0.633345 0.250000
O O2 0.670851 0.563961 0.129646
O O3 0.639360 0.767894 0.154531
O O4 0.772746 0.690531 0.173103
O O5 0.646076 0.917285 0.962213
O O6 0.753292 0.063726 0.950415
O O7 0.275856 0.937129 0.325966
O O8 0.149852 0.857155 0.365881
O O9 0.111753 0.595431 0.750000
O O10 0.087765 0.540498 0.628867
O O11 0.375116 0.727944 0.750000
O O12 0.410692 0.830719 0.643796
O O13 0.000000 0.580037 0.438825
#
# Coordination Sequence:
#
# PCOD8256197 Si02
#       6
#    16   8  16  16  16  16
#     4   9  15  28  50  74 104 131 162 216 273 318
#     4  10  21  36  52  74 107 146 182 216 250 312
#     4  10  18  31  50  78 106 136 163 221 274 320
#     4   9  17  29  48  76 102 132 172 215 268 317
#     4  10  19  31  52  81 107 133 171 220 278 324
#     4  11  22  36  50  72 108 149 186 215 248 303
#
# _framework density 18.872717999999999
#
# number of rings (size 3 to 8) (size 9 to 14) (size 15 to 20)
#    0.000    2.182    3.636    3.545    0.000    2.182 
#    3.273    0.000    0.000    1.091    0.000    3.182 
#    0.000    0.000    0.000    0.000    0.000    0.000 
#
# Total GULP energy -545421.714629 kJ/mol
# GULP energy per Si atom -12395.948060 kJ/mol
# Density = 1.882976 g / cm^3
# Si number density = 18.872718 Si / 1000 Ang^3
#
#
#
# Elastic Constant Matrix: (Units=GPa)
#
#
# Indices 1 2 3 4 5 6 
#
# 1 38.0228 30.9123 25.8558 0.0000 0.0000 0.0000
# 2 30.9123 139.8161 55.1811 0.0000 0.0000 0.0000
# 3 25.8558 55.1811 106.8494 0.0000 0.0000 0.0000
# 4 0.0000 0.0000 0.0000 23.2761 0.0000 0.0000
# 5 0.0000 0.0000 0.0000 0.0000 11.6850 0.0000
# 6 0.0000 0.0000 0.0000 0.0000 0.0000 13.4239
#
#
#
# Elastic Compliance Matrix: (Units=1/GPa)
#
#
# Indices 1 2 3 4 5 6 
#
# 1 0.034487 -0.005440 -0.005536 0.000000 0.000000 0.000000
# 2 -0.005440 0.009841 -0.003766 0.000000 0.000000 0.000000
# 3 -0.005536 -0.003766 0.012644 0.000000 0.000000 0.000000
# 4 0.000000 0.000000 0.000000 0.042963 0.000000 0.000000
# 5 0.000000 0.000000 0.000000 0.000000 0.085580 0.000000
# 6 0.000000 0.000000 0.000000 0.000000 0.000000 0.074494
#
#
# Mechanical properties :
#
#
# Convention : Reuss Voigt Hill
#
# Bulk Modulus (GPa) = 36.37939 56.50965 46.44452
# Shear Modulus (GPa) = 16.74173 21.19293 18.96733
#
# Velocity S-wave (km/s) = 2.98163 3.35466 3.17363
# Velocity P-wave (km/s) = 5.58315 6.70914 6.17187
#
# Compressibility (1/GPa) = 0.02748809
#
# Stress axis : x y z
#
# Youngs Moduli (GPa) = 28.99624 101.61207 79.09198
#
# Poissons Ratio (x) = 0.55277 0.43785
# Poissons Ratio (y) = 0.15774 0.29786
# Poissons Ratio (z) = 0.16052 0.38268
#
# Static dielectric constant tensor:
#      x y z
#    x 2.923930 0.000000 0.000000 
#    y 0.000000 3.685770 0.000000 
#    z 0.000000 0.000000 3.445200 
# 
# 
# High freq. dielectric constant tensor:
#      x y z
#    x 1.672430 0.000000 0.000000 
#    y 0.000000 1.733750 0.000000 
#    z 0.000000 0.000000 1.727130 
# 
# From -- ./inp_files/55398.got.cif
#   From: 2010.03.12/outbox.cif.g09.slc.cpg/sg63_28_cif.got.tgz:55398.got - 2010.04.10 19:34:48.
