data_PCOD8256667
_publ_section_title
;
Structure prediction by ZEFSAII (Michael W. Deem and Ramdas Pophale) SiO2 
 PCOD8256667
Probable space group: C M C M
;
_chemical_formula_sum "Si O2"
_cell_formula_units_Z 80
_cell_length_a 13.359033
_cell_length_b 28.200294
_cell_length_c 14.114808
_cell_angle_alpha 90.000000
_cell_angle_beta 90.000000
_cell_angle_gamma 90.000000
_cell_volume 5317.452678
_symmetry_space_group_name_H-M "C M C M"
_symmetry_group_IT_number 63
_symmetry_cell_setting 'orthorhombic'
loop_
_space_group_symop_operation_xyz
x,y,z
-x,-y,1/2+z
x,-y,-z
-x,y,1/2-z
-x,-y,-z
x,y,1/2-z
-x,y,z
x,-y,1/2+z
1/2+x,1/2+y,z
1/2-x,1/2-y,1/2+z
1/2+x,1/2-y,-z
1/2-x,1/2+y,1/2-z
1/2-x,1/2-y,-z
1/2+x,1/2+y,1/2-z
1/2-x,1/2+y,z
1/2+x,1/2-y,1/2+z
loop_
_atom_site_type_symbol
_atom_site_label
_atom_site_fract_x
_atom_site_fract_y
_atom_site_fract_z
Si Si1 0.381497 0.866636 0.355510
Si Si2 0.615310 0.231791 0.948770
Si Si3 0.206891 0.721301 0.357133
Si Si4 0.888339 0.623345 0.355224
Si Si5 0.118132 0.447901 0.488221
O O1 0.335407 0.860392 0.250000
O O2 0.500000 0.869056 0.348719
O O3 0.352247 0.822315 0.422980
O O4 0.340577 0.916086 0.400444
O O5 0.500000 0.241452 0.926082
O O6 0.677962 0.266783 0.880767
O O7 0.637606 0.243705 0.059595
O O8 0.178846 0.739362 0.250000
O O9 0.191973 0.665076 0.361824
O O10 0.895032 0.603104 0.250000
O O11 0.852124 0.579645 0.417121
O O12 0.000000 0.641501 0.388061
O O13 0.167941 0.500000 0.500000
O O14 0.000000 0.453714 0.476272
#
# Coordination Sequence:
#
# PCOD8256667 Si02
#       5
#    16  16  16  16  16
#     4   9  16  26  39  54  77 110 141 168 205 251
#     4  10  19  31  45  63  89 117 145 179 217 257
#     4  10  19  29  45  66  85 114 150 180 212 257
#     4   9  16  27  42  59  83 113 142 173 210 251
#     4   9  16  25  37  55  79 107 142 178 209 247
#
# _framework density 15.044798
#
# number of rings (size 3 to 8) (size 9 to 14) (size 15 to 20)
#    0.000    2.600    2.000    1.200    0.000    3.200 
#    0.000    4.000    0.000    0.000    0.000    0.000 
#    0.000    0.800    0.000    0.000    0.800    0.000 
#
# Total GULP energy -495556.220380 kJ/mol
# GULP energy per Si atom -12388.905510 kJ/mol
# Density = 1.501056 g / cm^3
# Si number density = 15.044798 Si / 1000 Ang^3
#
#
#
# Elastic Constant Matrix: (Units=GPa)
#
#
# Indices 1 2 3 4 5 6 
#
# 1 40.7807 37.0698 22.7189 0.0000 0.0000 0.0000
# 2 37.0698 90.1475 41.8426 0.0000 0.0000 0.0000
# 3 22.7189 41.8426 115.2406 0.0000 0.0000 0.0000
# 4 0.0000 0.0000 0.0000 19.9473 0.0000 0.0000
# 5 0.0000 0.0000 0.0000 0.0000 13.5597 0.0000
# 6 0.0000 0.0000 0.0000 0.0000 0.0000 12.3381
#
#
#
# Elastic Compliance Matrix: (Units=1/GPa)
#
#
# Indices 1 2 3 4 5 6 
#
# 1 0.039651 -0.015246 -0.002281 0.000000 0.000000 0.000000
# 2 -0.015246 0.019204 -0.003967 0.000000 0.000000 0.000000
# 3 -0.002281 -0.003967 0.010568 0.000000 0.000000 0.000000
# 4 0.000000 0.000000 0.000000 0.050132 0.000000 0.000000
# 5 0.000000 0.000000 0.000000 0.000000 0.073748 0.000000
# 6 0.000000 0.000000 0.000000 0.000000 0.000000 0.081050
#
#
# Mechanical properties :
#
#
# Convention : Reuss Voigt Hill
#
# Bulk Modulus (GPa) = 37.83063 49.93681 43.88372
# Shear Modulus (GPa) = 15.33027 18.80485 17.06756
#
# Velocity S-wave (km/s) = 3.19560 3.53926 3.37181
# Velocity P-wave (km/s) = 6.23023 7.06866 6.66265
#
# Compressibility (1/GPa) = 0.02643361
#
# Stress axis : x y z
#
# Youngs Moduli (GPa) = 25.22000 52.07352 94.62907
#
# Poissons Ratio (x) = 0.79392 0.21587
# Poissons Ratio (y) = 0.38451 0.37539
# Poissons Ratio (z) = 0.05753 0.20657
#
# Static dielectric constant tensor:
#      x y z
#    x 2.507030 0.000000 0.000000 
#    y 0.000000 2.949920 0.000000 
#    z 0.000000 0.000000 3.321440 
# 
# 
# High freq. dielectric constant tensor:
#      x y z
#    x 1.510030 0.000000 0.000000 
#    y 0.000000 1.561520 0.000000 
#    z 0.000000 0.000000 1.602890 
# 
# From -- ./inp_files/30032.got.cif
#   From: 2010.03.12/outbox.cif.g09.slc.cpg/sg63_16_cif.got.tgz:30032.got - 2010.04.10 19:34:48.
