data_PCOD8256590
_publ_section_title
;
Structure prediction by ZEFSAII (Michael W. Deem and Ramdas Pophale) SiO2 
 PCOD8256590
Probable space group: C M C M
;
_chemical_formula_sum "Si O2"
_cell_formula_units_Z 80
_cell_length_a 22.313544
_cell_length_b 29.347060
_cell_length_c 9.028897
_cell_angle_alpha 90.000000
_cell_angle_beta 90.000000
_cell_angle_gamma 90.000000
_cell_volume 5912.455054
_symmetry_space_group_name_H-M "C M C M"
_symmetry_group_IT_number 63
_symmetry_cell_setting 'orthorhombic'
loop_
_space_group_symop_operation_xyz
x,y,z
-x,-y,1/2+z
x,-y,-z
-x,y,1/2-z
-x,-y,-z
x,y,1/2-z
-x,y,z
x,-y,1/2+z
1/2+x,1/2+y,z
1/2-x,1/2-y,1/2+z
1/2+x,1/2-y,-z
1/2-x,1/2+y,1/2-z
1/2-x,1/2-y,-z
1/2+x,1/2+y,1/2-z
1/2-x,1/2+y,z
1/2+x,1/2-y,1/2+z
loop_
_atom_site_type_symbol
_atom_site_label
_atom_site_fract_x
_atom_site_fract_y
_atom_site_fract_z
Si Si1 0.758632 0.318444 0.413508
Si Si2 0.569454 0.952764 0.577411
Si Si3 0.930711 0.718086 0.420114
Si Si4 0.875208 0.367082 0.425999
Si Si5 0.836713 0.227829 0.085613
O O1 0.734455 0.330133 0.250000
O O2 0.805651 0.356935 0.466833
O O3 0.794241 0.271320 0.409052
O O4 0.701167 0.314790 0.520632
O O5 0.585492 0.955918 0.750000
O O6 0.500000 0.940463 0.553370
O O7 0.609331 0.914720 0.499959
O O8 0.585903 0.000000 0.500000
O O9 0.911906 0.710022 0.250000
O O10 0.918105 0.672076 0.510269
O O11 0.894032 0.761050 0.484261
O O12 0.000000 0.730714 0.434878
O O13 0.884941 0.368862 0.250000
O O14 0.858677 0.214674 0.250000
#
# Coordination Sequence:
#
# PCOD8256590 Si02
#       5
#    16  16  16  16  16
#     4   8  15  26  38  53  72  93 117 147 184 223
#     4  10  20  32  44  57  74  97 124 155 192 231
#     4  10  19  28  38  53  74 100 127 155 188 224
#     4  10  19  29  42  58  74  94 122 157 193 226
#     4   9  16  25  38  54  71  93 120 151 185 218
#
# _framework density 13.530759
#
# number of rings (size 3 to 8) (size 9 to 14) (size 15 to 20)
#    0.000    2.600    0.000    4.200    0.000   10.800 
#    0.000    0.000    0.000    0.000    0.000    0.000 
#    0.000    0.000    0.000    0.000    0.000    1.000 
#
# Total GULP energy -495898.844473 kJ/mol
# GULP energy per Si atom -12397.471112 kJ/mol
# Density = 1.349996 g / cm^3
# Si number density = 13.530759 Si / 1000 Ang^3
#
#
#
# Elastic Constant Matrix: (Units=GPa)
#
#
# Indices 1 2 3 4 5 6 
#
# 1 67.6129 47.7620 52.6622 0.0000 0.0000 0.0000
# 2 47.7620 65.1999 47.9262 0.0000 0.0000 0.0000
# 3 52.6622 47.9262 110.4692 0.0000 0.0000 0.0000
# 4 0.0000 0.0000 0.0000 21.2793 0.0000 0.0000
# 5 0.0000 0.0000 0.0000 0.0000 22.0096 0.0000
# 6 0.0000 0.0000 0.0000 0.0000 0.0000 23.7658
#
#
#
# Elastic Compliance Matrix: (Units=1/GPa)
#
#
# Indices 1 2 3 4 5 6 
#
# 1 0.035051 -0.019666 -0.008178 0.000000 0.000000 0.000000
# 2 -0.019666 0.033552 -0.005181 0.000000 0.000000 0.000000
# 3 -0.008178 -0.005181 0.015199 0.000000 0.000000 0.000000
# 4 0.000000 0.000000 0.000000 0.046994 0.000000 0.000000
# 5 0.000000 0.000000 0.000000 0.000000 0.045435 0.000000
# 6 0.000000 0.000000 0.000000 0.000000 0.000000 0.042077
#
#
# Mechanical properties :
#
#
# Convention : Reuss Voigt Hill
#
# Bulk Modulus (GPa) = 56.32976 59.99809 58.16393
# Shear Modulus (GPa) = 17.22504 19.73973 18.48239
#
# Velocity S-wave (km/s) = 3.57182 3.82367 3.69989
# Velocity P-wave (km/s) = 7.66367 7.99576 7.83148
#
# Compressibility (1/GPa) = 0.01775260
#
# Stress axis : x y z
#
# Youngs Moduli (GPa) = 28.52957 29.80435 65.79532
#
# Poissons Ratio (x) = 0.58612 0.53805
# Poissons Ratio (y) = 0.56105 0.34092
# Poissons Ratio (z) = 0.23331 0.15443
#
# Static dielectric constant tensor:
#      x y z
#    x 2.673740 0.000000 0.000000 
#    y 0.000000 2.455750 0.000000 
#    z 0.000000 0.000000 2.968600 
# 
# 
# High freq. dielectric constant tensor:
#      x y z
#    x 1.497130 0.000000 0.000000 
#    y 0.000000 1.470030 0.000000 
#    z 0.000000 0.000000 1.537790 
# 
# From -- ./inp_files/6646.got.cif
#   From: 2010.03.12/outbox.cif.g09.slc.cpg/sg63_4_cif.got.tgz:6646.got - 2010.04.10 19:34:48.
