data_PCOD8256805
_publ_section_title
;
Structure prediction by ZEFSAII (Michael W. Deem and Ramdas Pophale) SiO2 
 PCOD8256805
Probable space group: C M C M
;
_chemical_formula_sum "Si O2"
_cell_formula_units_Z 80
_cell_length_a 17.759638
_cell_length_b 27.421970
_cell_length_c 9.204565
_cell_angle_alpha 90.000000
_cell_angle_beta 90.000000
_cell_angle_gamma 90.000000
_cell_volume 4482.662371
_symmetry_space_group_name_H-M "C M C M"
_symmetry_group_IT_number 63
_symmetry_cell_setting 'orthorhombic'
loop_
_space_group_symop_operation_xyz
x,y,z
-x,-y,1/2+z
x,-y,-z
-x,y,1/2-z
-x,-y,-z
x,y,1/2-z
-x,y,z
x,-y,1/2+z
1/2+x,1/2+y,z
1/2-x,1/2-y,1/2+z
1/2+x,1/2-y,-z
1/2-x,1/2+y,1/2-z
1/2-x,1/2-y,-z
1/2+x,1/2+y,1/2-z
1/2-x,1/2+y,z
1/2+x,1/2-y,1/2+z
loop_
_atom_site_type_symbol
_atom_site_label
_atom_site_fract_x
_atom_site_fract_y
_atom_site_fract_z
Si Si1 0.916720 0.397125 0.083696
Si Si2 0.232272 0.450361 0.079255
Si Si3 0.705076 0.362355 0.915728
Si Si4 0.642796 0.808600 0.918270
Si Si5 0.913721 0.216163 0.418355
O O1 0.903142 0.381388 0.250000
O O2 0.853962 0.436611 0.037661
O O3 0.000000 0.420163 0.062060
O O4 0.912018 0.348709 0.987755
O O5 0.243721 0.457010 0.250000
O O6 0.253939 0.500000 0.000000
O O7 0.288076 0.408265 0.022770
O O8 0.710223 0.381286 0.750000
O O9 0.770941 0.323358 0.946271
O O10 0.626015 0.335842 0.946804
O O11 0.622811 0.804920 0.750000
O O12 0.628943 0.756592 0.989407
O O13 0.907242 0.230847 0.250000
O O14 0.000000 0.211283 0.468213
#
# Coordination Sequence:
#
# PCOD8256805 Si02
#       5
#    16  16  16  16  16
#     4   9  18  32  48  68  98 134 167 197 232 278
#     4  10  20  34  53  74  95 123 160 201 245 290
#     4   9  19  35  52  71  97 128 163 201 239 283
#     4  10  19  30  47  72 101 133 166 198 233 276
#     4  10  20  33  50  72  99 131 163 197 240 287
#
# _framework density 17.846536
#
# number of rings (size 3 to 8) (size 9 to 14) (size 15 to 20)
#    0.000    2.400    0.000    2.400    0.000    6.000 
#    0.000    0.000    0.000    0.600    0.000    0.000 
#    0.000    0.000    0.000    0.000    0.000    0.000 
#
# Total GULP energy -496079.683775 kJ/mol
# GULP energy per Si atom -12401.992094 kJ/mol
# Density = 1.780592 g / cm^3
# Si number density = 17.846536 Si / 1000 Ang^3
#
#
#
# Elastic Constant Matrix: (Units=GPa)
#
#
# Indices 1 2 3 4 5 6 
#
# 1 61.0104 39.2743 28.8656 0.0000 0.0000 0.0000
# 2 39.2743 111.5349 61.2989 0.0000 0.0000 0.0000
# 3 28.8656 61.2989 85.7038 0.0000 0.0000 0.0000
# 4 0.0000 0.0000 0.0000 32.4324 0.0000 0.0000
# 5 0.0000 0.0000 0.0000 0.0000 19.4184 0.0000
# 6 0.0000 0.0000 0.0000 0.0000 0.0000 13.4411
#
#
#
# Elastic Compliance Matrix: (Units=1/GPa)
#
#
# Indices 1 2 3 4 5 6 
#
# 1 0.021663 -0.005962 -0.003032 0.000000 0.000000 0.000000
# 2 -0.005962 0.016414 -0.009732 0.000000 0.000000 0.000000
# 3 -0.003032 -0.009732 0.019650 0.000000 0.000000 0.000000
# 4 0.000000 0.000000 0.000000 0.030833 0.000000 0.000000
# 5 0.000000 0.000000 0.000000 0.000000 0.051498 0.000000
# 6 0.000000 0.000000 0.000000 0.000000 0.000000 0.074398
#
#
# Mechanical properties :
#
#
# Convention : Reuss Voigt Hill
#
# Bulk Modulus (GPa) = 49.32121 57.45852 53.38987
# Shear Modulus (GPa) = 19.32999 21.64572 20.48786
#
# Velocity S-wave (km/s) = 3.29465 3.48642 3.39189
# Velocity P-wave (km/s) = 6.49379 6.96223 6.73208
#
# Compressibility (1/GPa) = 0.02027525
#
# Stress axis : x y z
#
# Youngs Moduli (GPa) = 46.16179 60.92535 50.89078
#
# Poissons Ratio (x) = 0.36321 0.15431
# Poissons Ratio (y) = 0.27520 0.49526
# Poissons Ratio (z) = 0.13997 0.59291
#
# Static dielectric constant tensor:
#      x y z
#    x 3.282650 0.000000 0.000000 
#    y 0.000000 3.088110 0.000000 
#    z 0.000000 0.000000 3.356840 
# 
# 
# High freq. dielectric constant tensor:
#      x y z
#    x 1.678330 0.000000 0.000000 
#    y 0.000000 1.674880 0.000000 
#    z 0.000000 0.000000 1.696340 
# 
# From -- ./inp_files/6386.got.cif
#   From: 2010.03.12/outbox.cif.g09.slc.cpg/sg63_4_cif.got.tgz:6386.got - 2010.04.10 19:34:48.
