data_PCOD8256019
_publ_section_title
;
Structure prediction by ZEFSAII (Michael W. Deem and Ramdas Pophale) SiO2 
 PCOD8256019
Probable space group: C M C M
;
_chemical_formula_sum "Si O2"
_cell_formula_units_Z 80
_cell_length_a 8.935686
_cell_length_b 25.260466
_cell_length_c 20.117211
_cell_angle_alpha 90.000000
_cell_angle_beta 90.000000
_cell_angle_gamma 90.000000
_cell_volume 4540.848667
_symmetry_space_group_name_H-M "C M C M"
_symmetry_group_IT_number 63
_symmetry_cell_setting 'orthorhombic'
loop_
_space_group_symop_operation_xyz
x,y,z
-x,-y,1/2+z
x,-y,-z
-x,y,1/2-z
-x,-y,-z
x,y,1/2-z
-x,y,z
x,-y,1/2+z
1/2+x,1/2+y,z
1/2-x,1/2-y,1/2+z
1/2+x,1/2-y,-z
1/2-x,1/2+y,1/2-z
1/2-x,1/2-y,-z
1/2+x,1/2+y,1/2-z
1/2-x,1/2+y,z
1/2+x,1/2-y,1/2+z
loop_
_atom_site_type_symbol
_atom_site_label
_atom_site_fract_x
_atom_site_fract_y
_atom_site_fract_z
Si Si1 0.826462 0.883533 0.052752
Si Si2 0.331479 0.012711 0.577435
Si Si3 0.673375 0.409236 0.899921
Si Si4 0.322196 0.692893 0.175888
Si Si5 0.677883 0.225666 0.934576
O O1 0.766006 0.935009 0.091712
O O2 0.733923 0.833485 0.078650
O O3 0.000000 0.875828 0.069664
O O4 0.799228 0.889123 0.974450
O O5 0.500000 0.022434 0.602298
O O6 0.326510 0.000000 0.500000
O O7 0.262755 0.962857 0.616631
O O8 0.500000 0.421699 0.888079
O O9 0.735277 0.363629 0.851390
O O10 0.257902 0.701992 0.250000
O O11 0.500000 0.691753 0.176330
O O12 0.267018 0.740016 0.128389
O O13 0.500000 0.226849 0.942805
O O14 0.750000 0.250000 0.000000
#
# Coordination Sequence:
#
# PCOD8256019 Si02
#       5
#    16  16  16  16  16
#     4  10  18  30  48  74 102 132 166 208 255 300
#     4   9  17  28  44  71 101 130 159 198 249 299
#     4   9  16  29  48  71  98 130 165 203 248 299
#     4   9  18  33  52  74 101 135 174 210 252 308
#     4  11  20  32  51  76 103 135 172 214 259 305
#
# _framework density 17.617851000000002
#
# number of rings (size 3 to 8) (size 9 to 14) (size 15 to 20)
#    0.000    2.400    2.000    1.800    0.000    3.200 
#    0.000    0.000    0.000    6.600    0.000    0.000 
#    0.000    0.000    0.000    0.000    0.000    0.000 
#
# Total GULP energy -495987.511437 kJ/mol
# GULP energy per Si atom -12399.687786 kJ/mol
# Density = 1.757775 g / cm^3
# Si number density = 17.617851 Si / 1000 Ang^3
#
#
#
# Elastic Constant Matrix: (Units=GPa)
#
#
# Indices 1 2 3 4 5 6 
#
# 1 78.2777 54.4537 34.6546 0.0000 0.0000 0.0000
# 2 54.4537 161.4720 60.8681 0.0000 0.0000 0.0000
# 3 34.6546 60.8681 82.3192 0.0000 0.0000 0.0000
# 4 0.0000 0.0000 0.0000 21.6326 0.0000 0.0000
# 5 0.0000 0.0000 0.0000 0.0000 11.9849 0.0000
# 6 0.0000 0.0000 0.0000 0.0000 0.0000 37.3515
#
#
#
# Elastic Compliance Matrix: (Units=1/GPa)
#
#
# Indices 1 2 3 4 5 6 
#
# 1 0.017683 -0.004377 -0.004208 0.000000 0.000000 0.000000
# 2 -0.004377 0.009670 -0.005307 0.000000 0.000000 0.000000
# 3 -0.004208 -0.005307 0.017843 0.000000 0.000000 0.000000
# 4 0.000000 0.000000 0.000000 0.046227 0.000000 0.000000
# 5 0.000000 0.000000 0.000000 0.000000 0.083438 0.000000
# 6 0.000000 0.000000 0.000000 0.000000 0.000000 0.026773
#
#
# Mechanical properties :
#
#
# Convention : Reuss Voigt Hill
#
# Bulk Modulus (GPa) = 57.43172 69.11353 63.27262
# Shear Modulus (GPa) = 21.25658 25.66662 23.46160
#
# Velocity S-wave (km/s) = 3.47729 3.82102 3.65320
# Velocity P-wave (km/s) = 6.98509 7.66690 7.33392
#
# Compressibility (1/GPa) = 0.01741198
#
# Stress axis : x y z
#
# Youngs Moduli (GPa) = 56.55242 103.41513 56.04311
#
# Poissons Ratio (x) = 0.45266 0.23580
# Poissons Ratio (y) = 0.24754 0.29744
# Poissons Ratio (z) = 0.23795 0.54885
#
# Static dielectric constant tensor:
#      x y z
#    x 3.210080 0.000000 0.000000 
#    y 0.000000 3.562410 0.000000 
#    z 0.000000 0.000000 3.056260 
# 
# 
# High freq. dielectric constant tensor:
#      x y z
#    x 1.672770 0.000000 0.000000 
#    y 0.000000 1.699520 0.000000 
#    z 0.000000 0.000000 1.631850 
# 
# From -- ./inp_files/40477.got.cif
#   From: 2010.03.12/outbox.cif.g09.slc.cpg/sg63_21_cif.got.tgz:40477.got - 2010.04.10 19:34:48.
