data_PCOD8256126
_publ_section_title
;
Structure prediction by ZEFSAII (Michael W. Deem and Ramdas Pophale) SiO2 
 PCOD8256126
Probable space group: C M C M
;
_chemical_formula_sum "Si O2"
_cell_formula_units_Z 96
_cell_length_a 24.176179
_cell_length_b 13.191960
_cell_length_c 17.774263
_cell_angle_alpha 90.000000
_cell_angle_beta 90.000000
_cell_angle_gamma 90.000000
_cell_volume 5668.766785
_symmetry_space_group_name_H-M "C M C M"
_symmetry_group_IT_number 63
_symmetry_cell_setting 'orthorhombic'
loop_
_space_group_symop_operation_xyz
x,y,z
-x,-y,1/2+z
x,-y,-z
-x,y,1/2-z
-x,-y,-z
x,y,1/2-z
-x,y,z
x,-y,1/2+z
1/2+x,1/2+y,z
1/2-x,1/2-y,1/2+z
1/2+x,1/2-y,-z
1/2-x,1/2+y,1/2-z
1/2-x,1/2-y,-z
1/2+x,1/2+y,1/2-z
1/2-x,1/2+y,z
1/2+x,1/2-y,1/2+z
loop_
_atom_site_type_symbol
_atom_site_label
_atom_site_fract_x
_atom_site_fract_y
_atom_site_fract_z
Si Si1 0.560721 0.633668 0.422579
Si Si2 0.561194 0.591274 0.598489
Si Si3 0.728083 0.049363 0.581181
Si Si4 0.742391 0.145157 0.165064
Si Si5 0.333712 0.749812 0.070454
Si Si6 0.829003 0.190913 0.899863
O O1 0.500000 0.677401 0.402573
O O2 0.565015 0.607479 0.509816
O O3 0.570341 0.526793 0.379918
O O4 0.605621 0.718306 0.399158
O O5 0.500000 0.626126 0.627427
O O6 0.611284 0.656799 0.633198
O O7 0.681797 0.136172 0.594611
O O8 0.789553 0.093587 0.591814
O O9 0.721021 0.000000 0.500000
O O10 0.718061 0.964921 0.644770
O O11 0.765277 0.144820 0.250000
O O12 0.790612 0.170661 0.105903
O O13 0.694021 0.228441 0.159537
O O14 0.331631 0.744879 0.980681
#
# Coordination Sequence:
#
# PCOD8256126 Si02
#       6
#    16  16  16  16  16  16
#     4   8  14  25  44  73 100 122 153 198 239 278
#     4   8  14  24  44  74 101 121 151 195 241 284
#     4  11  18  30  48  70  94 134 168 194 236 290
#     4  11  22  33  46  72 101 125 160 206 243 282
#     4  10  18  31  52  71  95 130 162 195 238 295
#     4  10  18  30  52  71  97 129 162 193 237 295
#
# _framework density 16.934899999999999
#
# number of rings (size 3 to 8) (size 9 to 14) (size 15 to 20)
#    0.000    2.333    3.333    3.000    2.333    2.667 
#    0.000    0.000    0.000    2.500    0.000    2.333 
#    0.000    0.000    0.000    0.000    0.000    0.000 
#
# Total GULP energy -594935.657570 kJ/mol
# GULP energy per Si atom -12394.492866 kJ/mol
# Density = 1.689636 g / cm^3
# Si number density = 16.934900 Si / 1000 Ang^3
#
#
#
# Elastic Constant Matrix: (Units=GPa)
#
#
# Indices 1 2 3 4 5 6 
#
# 1 140.0221 58.4874 4.6552 0.0000 0.0000 0.0000
# 2 58.4874 99.1144 13.9321 0.0000 0.0000 0.0000
# 3 4.6552 13.9321 36.5030 0.0000 0.0000 0.0000
# 4 0.0000 0.0000 0.0000 10.7666 0.0000 0.0000
# 5 0.0000 0.0000 0.0000 0.0000 2.6979 0.0000
# 6 0.0000 0.0000 0.0000 0.0000 0.0000 25.2079
#
#
#
# Elastic Compliance Matrix: (Units=1/GPa)
#
#
# Indices 1 2 3 4 5 6 
#
# 1 0.009511 -0.005751 0.000982 0.000000 0.000000 0.000000
# 2 -0.005751 0.014138 -0.004663 0.000000 0.000000 0.000000
# 3 0.000982 -0.004663 0.029049 0.000000 0.000000 0.000000
# 4 0.000000 0.000000 0.000000 0.092880 0.000000 0.000000
# 5 0.000000 0.000000 0.000000 0.000000 0.370655 0.000000
# 6 0.000000 0.000000 0.000000 0.000000 0.000000 0.039670
#
#
# Mechanical properties :
#
#
# Convention : Reuss Voigt Hill
#
# Bulk Modulus (GPa) = 29.55447 47.75432 38.65440
# Shear Modulus (GPa) = 8.53178 20.97215 14.75196
#
# Velocity S-wave (km/s) = 2.24698 3.52291 2.95464
# Velocity P-wave (km/s) = 4.92154 6.69386 5.87492
#
# Compressibility (1/GPa) = 0.03383583
#
# Stress axis : x y z
#
# Youngs Moduli (GPa) = 105.14050 70.73061 34.42413
#
# Poissons Ratio (x) = 0.40674 -0.03380
# Poissons Ratio (y) = 0.60461 0.16051
# Poissons Ratio (z) = -0.10323 0.32980
#
# Static dielectric constant tensor:
#      x y z
#    x 3.452690 0.000000 0.000000 
#    y 0.000000 3.247880 0.000000 
#    z 0.000000 0.000000 2.726350 
# 
# 
# High freq. dielectric constant tensor:
#      x y z
#    x 1.647800 0.000000 0.000000 
#    y 0.000000 1.646540 0.000000 
#    z 0.000000 0.000000 1.612290 
# 
# From -- ./inp_files/48941.got.cif
#   From: 2010.03.12/outbox.cif.g09.slc.cpg/sg63_25_cif.got.tgz:48941.got - 2010.04.10 19:34:48.
