data_PCOD8256513
_publ_section_title
;
Structure prediction by ZEFSAII (Michael W. Deem and Ramdas Pophale) SiO2 
 PCOD8256513
Probable space group: C M C M
;
_chemical_formula_sum "Si O2"
_cell_formula_units_Z 88
_cell_length_a 22.462977
_cell_length_b 7.659388
_cell_length_c 26.746089
_cell_angle_alpha 90.000000
_cell_angle_beta 90.000000
_cell_angle_gamma 90.000000
_cell_volume 4601.735663
_symmetry_space_group_name_H-M "C M C M"
_symmetry_group_IT_number 63
_symmetry_cell_setting 'orthorhombic'
loop_
_space_group_symop_operation_xyz
x,y,z
-x,-y,1/2+z
x,-y,-z
-x,y,1/2-z
-x,-y,-z
x,y,1/2-z
-x,y,z
x,-y,1/2+z
1/2+x,1/2+y,z
1/2-x,1/2-y,1/2+z
1/2+x,1/2-y,-z
1/2-x,1/2+y,1/2-z
1/2-x,1/2-y,-z
1/2+x,1/2+y,1/2-z
1/2-x,1/2+y,z
1/2+x,1/2-y,1/2+z
loop_
_atom_site_type_symbol
_atom_site_label
_atom_site_fract_x
_atom_site_fract_y
_atom_site_fract_z
Si Si1 0.000000 0.260828 0.510882
Si Si2 0.826442 0.430296 0.401402
Si Si3 0.384555 0.388337 0.644248
Si Si4 0.239771 0.143230 0.750000
Si Si5 0.500000 0.558977 0.415693
Si Si6 0.393092 0.000000 0.500000
Si Si7 0.295519 0.698642 0.860829
Si Si8 0.652699 0.334578 0.750000
O O1 0.938180 0.358142 0.523906
O O2 0.000000 0.230475 0.450630
O O3 0.000000 0.093776 0.544720
O O4 0.872959 0.309285 0.372416
O O5 0.847803 0.426059 0.458652
O O6 0.762905 0.337031 0.394038
O O7 0.827616 0.626899 0.380332
O O8 0.444878 0.455653 0.620930
O O9 0.334672 0.527568 0.628934
O O10 0.389836 0.377141 0.704015
O O11 0.217332 0.231603 0.697988
O O12 0.313242 0.145594 0.750000
O O13 0.214484 0.947626 0.750000
#
# Coordination Sequence:
#
# PCOD8256513 Si02
#       8
#     8  16  16   8   8   8  16   8
#     4  10  22  42  66  83 109 163 222 248 292 371
#     4  12  22  38  59  89 127 156 200 256 310 359
#     4  11  23  40  60  93 122 162 205 254 301 368
#     4  10  18  34  58  87 121 163 200 234 289 381
#     4  11  22  43  66  83 117 162 208 254 303 359
#     4  11  24  40  60  92 118 159 210 266 304 363
#     4  11  22  38  60  92 128 159 200 247 310 370
#     4  10  20  33  60  89 125 156 200 246 307 363
#
# _framework density 19.123218999999999
#
# number of rings (size 3 to 8) (size 9 to 14) (size 15 to 20)
#    0.000    1.091    5.455    2.182    0.000    1.091 
#    0.000    0.000    0.000    0.000    0.000    2.545 
#    0.000    0.000    0.000    0.000    0.000    0.000 
#
# Total GULP energy -545265.994038 kJ/mol
# GULP energy per Si atom -12392.408955 kJ/mol
# Density = 1.907969 g / cm^3
# Si number density = 19.123219 Si / 1000 Ang^3
#
#
#
# Elastic Constant Matrix: (Units=GPa)
#
#
# Indices 1 2 3 4 5 6 
#
# 1 101.8163 19.9455 73.8742 0.0000 0.0000 0.0000
# 2 19.9455 89.4072 43.5568 0.0000 0.0000 0.0000
# 3 73.8742 43.5568 129.4615 0.0000 0.0000 0.0000
# 4 0.0000 0.0000 0.0000 23.0917 0.0000 0.0000
# 5 0.0000 0.0000 0.0000 0.0000 35.4759 0.0000
# 6 0.0000 0.0000 0.0000 0.0000 0.0000 46.5579
#
#
#
# Elastic Compliance Matrix: (Units=1/GPa)
#
#
# Indices 1 2 3 4 5 6 
#
# 1 0.016852 0.001107 -0.009989 0.000000 0.000000 0.000000
# 2 0.001107 0.013450 -0.005157 0.000000 0.000000 0.000000
# 3 -0.009989 -0.005157 0.015159 0.000000 0.000000 0.000000
# 4 0.000000 0.000000 0.000000 0.043306 0.000000 0.000000
# 5 0.000000 0.000000 0.000000 0.000000 0.028188 0.000000
# 6 0.000000 0.000000 0.000000 0.000000 0.000000 0.021479
#
#
# Mechanical properties :
#
#
# Convention : Reuss Voigt Hill
#
# Bulk Modulus (GPa) = 57.52421 66.15977 61.84199
# Shear Modulus (GPa) = 29.01816 33.24568 31.13192
#
# Velocity S-wave (km/s) = 3.89965 4.17405 4.03918
# Velocity P-wave (km/s) = 7.10088 7.60933 7.35950
#
# Compressibility (1/GPa) = 0.01738398
#
# Stress axis : x y z
#
# Youngs Moduli (GPa) = 59.33929 74.34881 65.96702
#
# Poissons Ratio (x) = -0.08228 0.65892
# Poissons Ratio (y) = -0.06567 0.34018
# Poissons Ratio (z) = 0.59272 0.38340
#
# Static dielectric constant tensor:
#      x y z
#    x 3.428790 0.000000 0.000000 
#    y 0.000000 3.635180 0.000000 
#    z 0.000000 0.000000 3.648220 
# 
# 
# High freq. dielectric constant tensor:
#      x y z
#    x 1.727330 0.000000 0.000000 
#    y 0.000000 1.753990 0.000000 
#    z 0.000000 0.000000 1.749630 
# 
# From -- ./inp_files/64500.got.cif
#   From: 2010.03.12/outbox.cif.g09.slc.cpg/sg63_33_cif.got.tgz:64500.got - 2010.04.10 19:34:48.
