data_PCOD8256206
_publ_section_title
;
Structure prediction by ZEFSAII (Michael W. Deem and Ramdas Pophale) SiO2 
 PCOD8256206
Probable space group: C M C M
;
_chemical_formula_sum "Si O2"
_cell_formula_units_Z 80
_cell_length_a 24.909350
_cell_length_b 20.473907
_cell_length_c 9.018981
_cell_angle_alpha 90.000000
_cell_angle_beta 90.000000
_cell_angle_gamma 90.000000
_cell_volume 4599.605591
_symmetry_space_group_name_H-M "C M C M"
_symmetry_group_IT_number 63
_symmetry_cell_setting 'orthorhombic'
loop_
_space_group_symop_operation_xyz
x,y,z
-x,-y,1/2+z
x,-y,-z
-x,y,1/2-z
-x,-y,-z
x,y,1/2-z
-x,y,z
x,-y,1/2+z
1/2+x,1/2+y,z
1/2-x,1/2-y,1/2+z
1/2+x,1/2-y,-z
1/2-x,1/2+y,1/2-z
1/2-x,1/2-y,-z
1/2+x,1/2+y,1/2-z
1/2-x,1/2+y,z
1/2+x,1/2-y,1/2+z
loop_
_atom_site_type_symbol
_atom_site_label
_atom_site_fract_x
_atom_site_fract_y
_atom_site_fract_z
Si Si1 0.712705 0.434374 0.926093
Si Si2 0.500000 0.382704 0.580616
Si Si3 0.500000 0.227261 0.915786
Si Si4 0.895233 0.269378 0.578557
Si Si5 0.607672 0.382348 0.424875
Si Si6 0.220296 0.309115 0.576695
O O1 0.707783 0.441851 0.750000
O O2 0.753821 0.377359 0.972006
O O3 0.735957 0.500000 0.000000
O O4 0.654598 0.421238 0.994670
O O5 0.500000 0.408097 0.750000
O O6 0.500000 0.304901 0.575560
O O7 0.552109 0.408893 0.493825
O O8 0.500000 0.200476 0.750000
O O9 0.553917 0.200623 0.992848
O O10 0.908924 0.276774 0.750000
O O11 0.884733 0.193907 0.538603
O O12 0.842438 0.309860 0.531551
O O13 0.608644 0.396436 0.250000
O O14 0.226486 0.296656 0.750000
O O15 0.250000 0.250000 0.500000
#
# Coordination Sequence:
#
# PCOD8256206 Si02
#       6
#    16   8   8  16  16  16
#     4  11  23  37  53  74 104 139 175 214 260 309
#     4   9  17  29  46  70 101 134 172 214 256 300
#     4   9  17  27  43  72 105 134 165 204 250 300
#     4   9  17  30  49  74 103 134 166 206 255 305
#     4  10  18  31  51  73 100 134 174 214 258 305
#     4  10  20  34  54  79 104 134 173 215 258 306
#
# _framework density 17.392797000000002
#
# number of rings (size 3 to 8) (size 9 to 14) (size 15 to 20)
#    0.000    2.200    2.000    1.800    0.000    4.800 
#    0.000    0.500    0.000    0.000    0.000    0.700 
#    0.000    0.000    0.000    0.000    0.000    0.000 
#
# Total GULP energy -496045.216583 kJ/mol
# GULP energy per Si atom -12401.130415 kJ/mol
# Density = 1.735321 g / cm^3
# Si number density = 17.392797 Si / 1000 Ang^3
#
#
#
# Elastic Constant Matrix: (Units=GPa)
#
#
# Indices 1 2 3 4 5 6 
#
# 1 136.8511 63.3590 56.1971 0.0000 0.0000 0.0000
# 2 63.3590 82.3518 47.2052 0.0000 0.0000 0.0000
# 3 56.1971 47.2052 86.9054 0.0000 0.0000 0.0000
# 4 0.0000 0.0000 0.0000 20.4505 0.0000 0.0000
# 5 0.0000 0.0000 0.0000 0.0000 28.6547 0.0000
# 6 0.0000 0.0000 0.0000 0.0000 0.0000 16.3698
#
#
#
# Elastic Compliance Matrix: (Units=1/GPa)
#
#
# Indices 1 2 3 4 5 6 
#
# 1 0.012270 -0.007104 -0.004076 0.000000 0.000000 0.000000
# 2 -0.007104 0.021746 -0.007218 0.000000 0.000000 0.000000
# 3 -0.004076 -0.007218 0.018063 0.000000 0.000000 0.000000
# 4 0.000000 0.000000 0.000000 0.048899 0.000000 0.000000
# 5 0.000000 0.000000 0.000000 0.000000 0.034898 0.000000
# 6 0.000000 0.000000 0.000000 0.000000 0.000000 0.061088
#
#
# Mechanical properties :
#
#
# Convention : Reuss Voigt Hill
#
# Bulk Modulus (GPa) = 65.43017 71.07012 68.25014
# Shear Modulus (GPa) = 20.93330 22.38479 21.65905
#
# Velocity S-wave (km/s) = 3.47300 3.59139 3.53269
# Velocity P-wave (km/s) = 7.33370 7.62548 7.48101
#
# Compressibility (1/GPa) = 0.01528347
#
# Stress axis : x y z
#
# Youngs Moduli (GPa) = 81.50164 45.98517 55.36149
#
# Poissons Ratio (x) = 0.32667 0.22563
# Poissons Ratio (y) = 0.57897 0.39962
# Poissons Ratio (z) = 0.33216 0.33194
#
# Static dielectric constant tensor:
#      x y z
#    x 3.865550 0.000000 0.000000 
#    y 0.000000 2.994450 0.000000 
#    z 0.000000 0.000000 3.326240 
# 
# 
# High freq. dielectric constant tensor:
#      x y z
#    x 1.681550 0.000000 0.000000 
#    y 0.000000 1.626880 0.000000 
#    z 0.000000 0.000000 1.682150 
# 
# From -- ./inp_files/10061.got.cif
#   From: 2010.03.12/outbox.cif.g09.slc.cpg/sg63_6_cif.got.tgz:10061.got - 2010.04.10 19:34:48.
