data_PCOD8256888
_publ_section_title
;
Structure prediction by ZEFSAII (Michael W. Deem and Ramdas Pophale) SiO2 
 PCOD8256888
Probable space group: C M C M
;
_chemical_formula_sum "Si O2"
_cell_formula_units_Z 112
_cell_length_a 16.811556
_cell_length_b 27.755916
_cell_length_c 14.324324
_cell_angle_alpha 90.000000
_cell_angle_beta 90.000000
_cell_angle_gamma 90.000000
_cell_volume 6684.018015
_symmetry_space_group_name_H-M "C M C M"
_symmetry_group_IT_number 63
_symmetry_cell_setting 'orthorhombic'
loop_
_space_group_symop_operation_xyz
x,y,z
-x,-y,1/2+z
x,-y,-z
-x,y,1/2-z
-x,-y,-z
x,y,1/2-z
-x,y,z
x,-y,1/2+z
1/2+x,1/2+y,z
1/2-x,1/2-y,1/2+z
1/2+x,1/2-y,-z
1/2-x,1/2+y,1/2-z
1/2-x,1/2-y,-z
1/2+x,1/2+y,1/2-z
1/2-x,1/2+y,z
1/2+x,1/2-y,1/2+z
loop_
_atom_site_type_symbol
_atom_site_label
_atom_site_fract_x
_atom_site_fract_y
_atom_site_fract_z
Si Si1 0.910260 0.608442 0.956483
Si Si2 0.679582 0.745207 0.645300
Si Si3 0.590571 0.012852 0.645004
Si Si4 0.409239 0.285039 0.533126
Si Si5 0.846306 0.589105 0.354518
Si Si6 0.219552 0.163465 0.356560
Si Si7 0.846094 0.697118 0.643954
O O1 0.883652 0.554854 0.925582
O O2 0.853536 0.646270 0.906906
O O3 0.000000 0.618902 0.924859
O O4 0.903329 0.612978 0.068344
O O5 0.643561 0.744075 0.750000
O O6 0.613012 0.727804 0.573260
O O7 0.709911 0.798781 0.619186
O O8 0.753779 0.709513 0.637186
O O9 0.595188 0.033401 0.750000
O O10 0.500000 0.995187 0.623186
O O11 0.651800 0.968601 0.632800
O O12 0.500000 0.302759 0.535266
O O13 0.354753 0.328296 0.574373
O O14 0.399926 0.237549 0.595572
O O15 0.876761 0.602887 0.250000
O O16 0.756418 0.609804 0.368691
O O17 0.190625 0.172543 0.250000
O O18 0.875351 0.692718 0.750000
#
# Coordination Sequence:
#
# PCOD8256888 Si02
#       7
#    16  16  16  16  16  16  16
#     4  11  20  29  44  67  96 125 153 189 228 264
#     4   9  18  33  49  65  90 122 153 186 223 266
#     4   9  18  31  45  64  92 123 154 189 227 265
#     4  11  20  30  48  71  94 119 149 188 230 272
#     4  10  19  31  46  61  83 120 161 193 223 264
#     4   9  18  32  48  64  86 119 156 193 229 264
#     4  10  20  33  49  67  91 125 158 185 218 266
#
# _framework density 16.756388000000001
#
# number of rings (size 3 to 8) (size 9 to 14) (size 15 to 20)
#    0.000    2.143    0.000    6.429    0.000    4.857 
#    0.000    0.714    0.000    6.857    0.000    0.000 
#    0.000    9.143    0.000   22.286    0.000    0.857 
#
# Total GULP energy -694292.970756 kJ/mol
# GULP energy per Si atom -12398.088763 kJ/mol
# Density = 1.671825 g / cm^3
# Si number density = 16.756388 Si / 1000 Ang^3
#
#
#
# Elastic Constant Matrix: (Units=GPa)
#
#
# Indices 1 2 3 4 5 6 
#
# 1 63.0700 40.2836 34.6610 0.0000 0.0000 0.0000
# 2 40.2836 92.6502 38.7223 0.0000 0.0000 0.0000
# 3 34.6610 38.7223 111.5869 0.0000 0.0000 0.0000
# 4 0.0000 0.0000 0.0000 21.5301 0.0000 0.0000
# 5 0.0000 0.0000 0.0000 0.0000 16.0361 0.0000
# 6 0.0000 0.0000 0.0000 0.0000 0.0000 23.6340
#
#
#
# Elastic Compliance Matrix: (Units=1/GPa)
#
#
# Indices 1 2 3 4 5 6 
#
# 1 0.023683 -0.008448 -0.004425 0.000000 0.000000 0.000000
# 2 -0.008448 0.015638 -0.002802 0.000000 0.000000 0.000000
# 3 -0.004425 -0.002802 0.011309 0.000000 0.000000 0.000000
# 4 0.000000 0.000000 0.000000 0.046447 0.000000 0.000000
# 5 0.000000 0.000000 0.000000 0.000000 0.062359 0.000000
# 6 0.000000 0.000000 0.000000 0.000000 0.000000 0.042312
#
#
# Mechanical properties :
#
#
# Convention : Reuss Voigt Hill
#
# Bulk Modulus (GPa) = 51.87027 54.96007 53.41517
# Shear Modulus (GPa) = 20.87482 22.48274 21.67878
#
# Velocity S-wave (km/s) = 3.53339 3.66695 3.60079
# Velocity P-wave (km/s) = 6.90429 7.12737 7.01672
#
# Compressibility (1/GPa) = 0.01927887
#
# Stress axis : x y z
#
# Youngs Moduli (GPa) = 42.22465 63.94856 88.42882
#
# Poissons Ratio (x) = 0.54022 0.39128
# Poissons Ratio (y) = 0.35671 0.24781
# Poissons Ratio (z) = 0.18684 0.17921
#
# Static dielectric constant tensor:
#      x y z
#    x 2.826980 0.000000 0.000000 
#    y 0.000000 3.057930 0.000000 
#    z 0.000000 0.000000 3.458440 
# 
# 
# High freq. dielectric constant tensor:
#      x y z
#    x 1.602430 0.000000 0.000000 
#    y 0.000000 1.627330 0.000000 
#    z 0.000000 0.000000 1.672880 
# 
# From -- ./inp_files/32493.got.cif
#   From: 2010.03.12/outbox.cif.g09.slc.cpg/sg63_17_cif.got.tgz:32493.got - 2010.04.10 19:34:48.
