data_PCOD8256233
_publ_section_title
;
Structure prediction by ZEFSAII (Michael W. Deem and Ramdas Pophale) SiO2 
 PCOD8256233
Probable space group: C M C M
;
_chemical_formula_sum "Si O2"
_cell_formula_units_Z 96
_cell_length_a 11.427455
_cell_length_b 32.250405
_cell_length_c 14.358225
_cell_angle_alpha 90.000000
_cell_angle_beta 90.000000
_cell_angle_gamma 90.000000
_cell_volume 5291.580986
_symmetry_space_group_name_H-M "C M C M"
_symmetry_group_IT_number 63
_symmetry_cell_setting 'orthorhombic'
loop_
_space_group_symop_operation_xyz
x,y,z
-x,-y,1/2+z
x,-y,-z
-x,y,1/2-z
-x,-y,-z
x,y,1/2-z
-x,y,z
x,-y,1/2+z
1/2+x,1/2+y,z
1/2-x,1/2-y,1/2+z
1/2+x,1/2-y,-z
1/2-x,1/2+y,1/2-z
1/2-x,1/2-y,-z
1/2+x,1/2+y,1/2-z
1/2-x,1/2+y,z
1/2+x,1/2-y,1/2+z
loop_
_atom_site_type_symbol
_atom_site_label
_atom_site_fract_x
_atom_site_fract_y
_atom_site_fract_z
Si Si1 0.135573 0.775392 0.356979
Si Si2 0.000000 0.366281 0.861019
Si Si3 0.860828 0.059978 0.978845
Si Si4 0.253200 0.510071 0.139167
Si Si5 0.220930 0.685431 0.141578
Si Si6 0.500000 0.959169 0.641226
Si Si7 0.363382 0.652933 0.986302
O O1 0.151663 0.786962 0.250000
O O2 0.204309 0.733654 0.382491
O O3 0.190477 0.813893 0.413771
O O4 0.000000 0.767717 0.381324
O O5 0.887334 0.341434 0.897207
O O6 0.000000 0.365808 0.750000
O O7 0.000000 0.412881 0.903347
O O8 0.826603 0.044622 0.082709
O O9 0.815386 0.106876 0.967030
O O10 0.000000 0.055144 0.966685
O O11 0.795171 0.034573 0.897589
O O12 0.276234 0.514666 0.250000
O O13 0.115931 0.515293 0.113087
O O14 0.240207 0.678262 0.250000
O O15 0.335147 0.668315 0.090127
O O16 0.500000 0.951519 0.750000
O O17 0.500000 0.651440 0.973062
#
# Coordination Sequence:
#
# PCOD8256233 Si02
#       7
#    16   8  16  16  16   8  16
#     4   9  17  32  53  75  98 131 173 213 252 293
#     4   9  16  28  49  77 104 126 163 210 248 296
#     4  10  22  36  50  76 105 134 178 217 250 306
#     4  10  20  36  56  75 101 136 171 213 265 310
#     4  10  18  31  52  76 102 133 166 204 254 307
#     4   9  18  31  51  79 102 127 165 210 258 312
#     4  10  21  34  49  74 107 134 166 212 254 301
#
# _framework density 18.142026000000001
#
# number of rings (size 3 to 8) (size 9 to 14) (size 15 to 20)
#    0.000    2.333    0.833    2.500    0.000    5.667 
#    0.000    4.167    0.000    0.000    0.000    0.000 
#    0.000    0.000    0.000    0.000    0.000    0.000 
#
# Total GULP energy -595036.853223 kJ/mol
# GULP energy per Si atom -12396.601109 kJ/mol
# Density = 1.810073 g / cm^3
# Si number density = 18.142026 Si / 1000 Ang^3
#
#
#
# Elastic Constant Matrix: (Units=GPa)
#
#
# Indices 1 2 3 4 5 6 
#
# 1 40.2366 36.7737 23.3998 0.0000 0.0000 0.0000
# 2 36.7737 145.7402 51.7467 0.0000 0.0000 0.0000
# 3 23.3998 51.7467 73.1116 0.0000 0.0000 0.0000
# 4 0.0000 0.0000 0.0000 22.6380 0.0000 0.0000
# 5 0.0000 0.0000 0.0000 0.0000 27.4367 0.0000
# 6 0.0000 0.0000 0.0000 0.0000 0.0000 17.5943
#
#
#
# Elastic Compliance Matrix: (Units=1/GPa)
#
#
# Indices 1 2 3 4 5 6 
#
# 1 0.034479 -0.006387 -0.006515 0.000000 0.000000 0.000000
# 2 -0.006387 0.010348 -0.005280 0.000000 0.000000 0.000000
# 3 -0.006515 -0.005280 0.019500 0.000000 0.000000 0.000000
# 4 0.000000 0.000000 0.000000 0.044174 0.000000 0.000000
# 5 0.000000 0.000000 0.000000 0.000000 0.036448 0.000000
# 6 0.000000 0.000000 0.000000 0.000000 0.000000 0.056837
#
#
# Mechanical properties :
#
#
# Convention : Reuss Voigt Hill
#
# Bulk Modulus (GPa) = 35.76065 53.65875 44.70970
# Shear Modulus (GPa) = 20.20469 23.34501 21.77485
#
# Velocity S-wave (km/s) = 3.34083 3.59108 3.46821
# Velocity P-wave (km/s) = 5.88522 6.84366 6.38246
#
# Compressibility (1/GPa) = 0.02796370
#
# Stress axis : x y z
#
# Youngs Moduli (GPa) = 29.00345 96.64007 51.28282
#
# Poissons Ratio (x) = 0.61721 0.33409
# Poissons Ratio (y) = 0.18523 0.27076
# Poissons Ratio (z) = 0.18895 0.51024
#
# Static dielectric constant tensor:
#      x y z
#    x 3.289850 0.000000 0.000000 
#    y 0.000000 3.719710 0.000000 
#    z 0.000000 0.000000 3.193670 
# 
# 
# High freq. dielectric constant tensor:
#      x y z
#    x 1.689660 0.000000 0.000000 
#    y 0.000000 1.717690 0.000000 
#    z 0.000000 0.000000 1.686400 
# 
# From -- ./inp_files/30359.got.cif
#   From: 2010.03.12/outbox.cif.g09.slc.cpg/sg63_16_cif.got.tgz:30359.got - 2010.04.10 19:34:48.
