data_PCOD8256208
_publ_section_title
;
Structure prediction by ZEFSAII (Michael W. Deem and Ramdas Pophale) SiO2 
 PCOD8256208
Probable space group: C M C M
;
_chemical_formula_sum "Si O2"
_cell_formula_units_Z 128
_cell_length_a 17.234173
_cell_length_b 24.189750
_cell_length_c 17.697734
_cell_angle_alpha 90.000000
_cell_angle_beta 90.000000
_cell_angle_gamma 90.000000
_cell_volume 7378.014279
_symmetry_space_group_name_H-M "C M C M"
_symmetry_group_IT_number 63
_symmetry_cell_setting 'orthorhombic'
loop_
_space_group_symop_operation_xyz
x,y,z
-x,-y,1/2+z
x,-y,-z
-x,y,1/2-z
-x,-y,-z
x,y,1/2-z
-x,y,z
x,-y,1/2+z
1/2+x,1/2+y,z
1/2-x,1/2-y,1/2+z
1/2+x,1/2-y,-z
1/2-x,1/2+y,1/2-z
1/2-x,1/2-y,-z
1/2+x,1/2+y,1/2-z
1/2-x,1/2+y,z
1/2+x,1/2-y,1/2+z
loop_
_atom_site_type_symbol
_atom_site_label
_atom_site_fract_x
_atom_site_fract_y
_atom_site_fract_z
Si Si1 0.789636 0.379059 0.165502
Si Si2 0.587758 0.461719 0.427677
Si Si3 0.586925 0.752161 0.528952
Si Si4 0.089678 0.632531 0.949398
Si Si5 0.319040 0.644587 0.967633
Si Si6 0.912260 0.325090 0.835846
Si Si7 0.194367 0.403198 0.574000
Si Si8 0.228378 0.999457 0.665163
O O1 0.781634 0.354156 0.250000
O O2 0.877439 0.370912 0.135516
O O3 0.731913 0.347887 0.108198
O O4 0.774773 0.443931 0.166176
O O5 0.592202 0.500000 0.500000
O O6 0.500000 0.457694 0.396290
O O7 0.615290 0.400693 0.451046
O O8 0.641101 0.489067 0.363262
O O9 0.500000 0.732012 0.511420
O O10 0.607067 0.805981 0.479719
O O11 0.644132 0.702745 0.509282
O O12 0.596647 0.768821 0.616672
O O13 0.000000 0.617166 0.949057
O O14 0.134042 0.588718 0.004294
O O15 0.268656 0.628718 0.040688
O O16 0.897492 0.308546 0.750000
O O17 0.848586 0.370108 0.859528
O O18 0.000000 0.349037 0.848509
O O19 0.224293 0.460544 0.608100
O O20 0.223672 0.974260 0.750000
#
# Coordination Sequence:
#
# PCOD8256208 Si02
#       8
#    16  16  16  16  16  16  16  16
#     4   9  20  34  50  73 102 132 166 207 251 301
#     4  10  19  33  53  76  99 130 169 202 239 292
#     4   9  18  33  50  72  99 129 164 204 247 292
#     4   9  19  34  53  73  98 133 171 207 251 300
#     4  10  19  31  52  76 101 127 164 207 250 291
#     4   9  18  32  49  70  98 131 164 200 247 299
#     4  10  18  31  51  74 100 129 165 205 250 296
#     4  10  20  35  52  74 104 135 164 204 256 300
#
# _framework density 17.348842000000001
#
# number of rings (size 3 to 8) (size 9 to 14) (size 15 to 20)
#    0.000    2.500    1.250    1.875    0.000    5.500 
#    0.000    1.875    0.000    4.500    0.000    0.000 
#    0.000    0.000    0.000    0.000    0.000    0.000 
#
# Total GULP energy -793354.212990 kJ/mol
# GULP energy per Si atom -12396.159578 kJ/mol
# Density = 1.730935 g / cm^3
# Si number density = 17.348842 Si / 1000 Ang^3
#
#
#
# Elastic Constant Matrix: (Units=GPa)
#
#
# Indices 1 2 3 4 5 6 
#
# 1 116.2314 47.7752 46.4498 0.0000 0.0000 0.0000
# 2 47.7752 47.5241 25.1381 0.0000 0.0000 0.0000
# 3 46.4498 25.1381 94.9703 0.0000 0.0000 0.0000
# 4 0.0000 0.0000 0.0000 16.9163 0.0000 0.0000
# 5 0.0000 0.0000 0.0000 0.0000 -4.4676 0.0000
# 6 0.0000 0.0000 0.0000 0.0000 0.0000 19.3982
#
#
#
# Elastic Compliance Matrix: (Units=1/GPa)
#
#
# Indices 1 2 3 4 5 6 
#
# 1 0.015946 -0.013843 -0.004135 0.000000 0.000000 0.000000
# 2 -0.013843 0.036485 -0.002887 0.000000 0.000000 0.000000
# 3 -0.004135 -0.002887 0.013316 0.000000 0.000000 0.000000
# 4 0.000000 0.000000 0.000000 0.059114 0.000000 0.000000
# 5 0.000000 0.000000 0.000000 0.000000 -0.223834 0.000000
# 6 0.000000 0.000000 0.000000 0.000000 0.000000 0.051551
#
#
# Mechanical properties :
#
#
# Convention : Reuss Voigt Hill
#
# Bulk Modulus (GPa) = 41.63611 55.27244 48.45427
# Shear Modulus (GPa) = 2160.51691 15.66024 1088.08858
#
# Velocity S-wave (km/s) = 35.32763 3.00770 25.07078
# Velocity P-wave (km/s) = 41.08657 6.63252 29.42870
#
# Compressibility (1/GPa) = 0.02401761
#
# Stress axis : x y z
#
# Youngs Moduli (GPa) = 62.71190 27.40851 75.09691
#
# Poissons Ratio (x) = 0.37942 0.31052
# Poissons Ratio (y) = 0.86812 0.21679
# Poissons Ratio (z) = 0.25931 0.07912
#
# Static dielectric constant tensor:
#      x y z
#    x 3.396240 0.000000 0.000000 
#    y 0.000000 2.976920 0.000000 
#    z 0.000000 0.000000 3.472620 
# 
# 
# High freq. dielectric constant tensor:
#      x y z
#    x 1.678490 0.000000 0.000000 
#    y 0.000000 1.650090 0.000000 
#    z 0.000000 0.000000 1.667580 
# 
# From -- ./inp_files/46297.got.cif
#   From: 2010.03.12/outbox.cif.g09.slc.cpg/sg63_24_cif.got.tgz:46297.got - 2010.04.10 19:34:48.
