data_PCOD8256380
_publ_section_title
;
Structure prediction by ZEFSAII (Michael W. Deem and Ramdas Pophale) SiO2 
 PCOD8256380
Probable space group: C M C M
;
_chemical_formula_sum "Si O2"
_cell_formula_units_Z 96
_cell_length_a 16.252405
_cell_length_b 18.846900
_cell_length_c 18.158266
_cell_angle_alpha 90.000000
_cell_angle_beta 90.000000
_cell_angle_gamma 90.000000
_cell_volume 5562.012187
_symmetry_space_group_name_H-M "C M C M"
_symmetry_group_IT_number 63
_symmetry_cell_setting 'orthorhombic'
loop_
_space_group_symop_operation_xyz
x,y,z
-x,-y,1/2+z
x,-y,-z
-x,y,1/2-z
-x,-y,-z
x,y,1/2-z
-x,y,z
x,-y,1/2+z
1/2+x,1/2+y,z
1/2-x,1/2-y,1/2+z
1/2+x,1/2-y,-z
1/2-x,1/2+y,1/2-z
1/2-x,1/2-y,-z
1/2+x,1/2+y,1/2-z
1/2-x,1/2+y,z
1/2+x,1/2-y,1/2+z
loop_
_atom_site_type_symbol
_atom_site_label
_atom_site_fract_x
_atom_site_fract_y
_atom_site_fract_z
Si Si1 0.773894 0.593748 0.335173
Si Si2 0.834664 0.220350 0.337401
Si Si3 0.183328 0.379055 0.163572
Si Si4 0.000000 0.994752 0.086770
Si Si5 0.157466 0.963393 0.166410
Si Si6 0.000000 0.853755 0.662381
Si Si7 0.095288 0.495518 0.914275
O O1 0.800739 0.594891 0.250000
O O2 0.741456 0.670456 0.363012
O O3 0.698208 0.540015 0.346498
O O4 0.852967 0.570134 0.381638
O O5 0.834867 0.222196 0.250000
O O6 0.824724 0.299726 0.368577
O O7 0.920985 0.189572 0.365634
O O8 0.162814 0.383563 0.250000
O O9 0.276461 0.402810 0.147877
O O10 0.119060 0.429995 0.122938
O O11 0.000000 0.070540 0.124899
O O12 0.080941 0.952042 0.112086
O O13 0.000000 0.000000 0.000000
O O14 0.125866 0.956852 0.250000
O O15 0.000000 0.865184 0.750000
O O16 0.000000 0.479780 0.899020
O O17 0.115325 0.500000 0.000000
#
# Coordination Sequence:
#
# PCOD8256380 Si02
#       7
#    16  16  16   8  16   8  16
#     4   9  17  32  55  77  99 130 169 213 256 309
#     4   9  17  31  54  81 105 128 165 216 270 313
#     4   9  19  34  56  82 102 127 168 219 264 308
#     4  12  22  30  50  76 106 136 178 214 242 297
#     4   9  17  32  51  73 102 134 166 205 260 308
#     4  10  18  32  54  80 107 134 164 215 275 310
#     4  10  21  35  51  72 106 141 175 211 256 300
#
# _framework density 17.25994
#
# number of rings (size 3 to 8) (size 9 to 14) (size 15 to 20)
#    0.000    2.500    1.667    2.250    1.167    4.000 
#    0.000    0.833    1.833    0.000    0.000    0.000 
#    0.000    0.000    0.000    0.000    0.000    0.000 
#
# Total GULP energy -595177.224660 kJ/mol
# GULP energy per Si atom -12399.525514 kJ/mol
# Density = 1.722066 g / cm^3
# Si number density = 17.259940 Si / 1000 Ang^3
#
#
#
# Elastic Constant Matrix: (Units=GPa)
#
#
# Indices 1 2 3 4 5 6 
#
# 1 118.5610 46.0343 57.0613 0.0000 0.0000 0.0000
# 2 46.0343 114.6629 23.1968 0.0000 0.0000 0.0000
# 3 57.0613 23.1968 71.4138 0.0000 0.0000 0.0000
# 4 0.0000 0.0000 0.0000 8.7824 0.0000 0.0000
# 5 0.0000 0.0000 0.0000 0.0000 19.8071 0.0000
# 6 0.0000 0.0000 0.0000 0.0000 0.0000 19.8114
#
#
#
# Elastic Compliance Matrix: (Units=1/GPa)
#
#
# Indices 1 2 3 4 5 6 
#
# 1 0.015173 -0.003895 -0.010858 0.000000 0.000000 0.000000
# 2 -0.003895 0.010334 -0.000245 0.000000 0.000000 0.000000
# 3 -0.010858 -0.000245 0.022758 0.000000 0.000000 0.000000
# 4 0.000000 0.000000 0.000000 0.113864 0.000000 0.000000
# 5 0.000000 0.000000 0.000000 0.000000 0.050487 0.000000
# 6 0.000000 0.000000 0.000000 0.000000 0.000000 0.050476
#
#
# Mechanical properties :
#
#
# Convention : Reuss Voigt Hill
#
# Bulk Modulus (GPa) = 54.73502 61.91359 58.32431
# Shear Modulus (GPa) = 16.71247 21.56986 19.14117
#
# Velocity S-wave (km/s) = 3.11510 3.53895 3.33377
# Velocity P-wave (km/s) = 6.68726 7.25590 6.97738
#
# Compressibility (1/GPa) = 0.01826984
#
# Stress axis : x y z
#
# Youngs Moduli (GPa) = 65.90864 96.76426 43.93997
#
# Poissons Ratio (x) = 0.37687 0.47710
# Poissons Ratio (y) = 0.25670 0.01076
# Poissons Ratio (z) = 0.71564 0.02369
#
# Static dielectric constant tensor:
#      x y z
#    x 3.316740 0.000000 0.000000 
#    y 0.000000 3.366430 0.000000 
#    z 0.000000 0.000000 3.095790 
# 
# 
# High freq. dielectric constant tensor:
#      x y z
#    x 1.670530 0.000000 0.000000 
#    y 0.000000 1.658840 0.000000 
#    z 0.000000 0.000000 1.640380 
# 
# From -- ./inp_files/45793.got.cif
#   From: 2010.03.12/outbox.cif.g09.slc.cpg/sg63_23_cif.got.tgz:45793.got - 2010.04.10 19:34:48.
