data_PCOD8256789
_publ_section_title
;
Structure prediction by ZEFSAII (Michael W. Deem and Ramdas Pophale) SiO2 
 PCOD8256789
Probable space group: C M C M
;
_chemical_formula_sum "Si O2"
_cell_formula_units_Z 96
_cell_length_a 9.240546
_cell_length_b 30.857487
_cell_length_c 19.337057
_cell_angle_alpha 90.000000
_cell_angle_beta 90.000000
_cell_angle_gamma 90.000000
_cell_volume 5513.768976
_symmetry_space_group_name_H-M "C M C M"
_symmetry_group_IT_number 63
_symmetry_cell_setting 'orthorhombic'
loop_
_space_group_symop_operation_xyz
x,y,z
-x,-y,1/2+z
x,-y,-z
-x,y,1/2-z
-x,-y,-z
x,y,1/2-z
-x,y,z
x,-y,1/2+z
1/2+x,1/2+y,z
1/2-x,1/2-y,1/2+z
1/2+x,1/2-y,-z
1/2-x,1/2+y,1/2-z
1/2-x,1/2-y,-z
1/2+x,1/2+y,1/2-z
1/2-x,1/2+y,z
1/2+x,1/2-y,1/2+z
loop_
_atom_site_type_symbol
_atom_site_label
_atom_site_fract_x
_atom_site_fract_y
_atom_site_fract_z
Si Si1 0.170614 0.616601 0.570838
Si Si2 0.167823 0.045041 0.171020
Si Si3 0.671103 0.623197 0.071273
Si Si4 0.161571 0.708309 0.419133
Si Si5 0.840219 0.288225 0.416498
Si Si6 0.330597 0.039843 0.828800
O O1 0.261069 0.609135 0.501481
O O2 0.208621 0.663279 0.605195
O O3 0.218794 0.580345 0.625175
O O4 0.000000 0.614799 0.552585
O O5 0.211035 0.055387 0.250000
O O6 0.211156 0.086198 0.125763
O O7 0.000000 0.034098 0.163809
O O8 0.253197 0.003221 0.143140
O O9 0.500000 0.629999 0.062644
O O10 0.740381 0.667279 0.100991
O O11 0.155760 0.712980 0.500975
O O12 0.230757 0.752134 0.386859
O O13 0.000000 0.702578 0.388755
O O14 0.000000 0.277898 0.387087
O O15 0.284177 0.049648 0.750000
O O16 0.500000 0.031861 0.835137
#
# Coordination Sequence:
#
# PCOD8256789 Si02
#       6
#    16  16  16  16  16  16
#     4   9  18  31  47  70  98 123 150 189 231 269
#     4   9  19  35  51  67  90 121 156 192 230 274
#     4  10  19  30  47  70  94 121 154 191 230 273
#     4   9  16  26  42  65  93 122 151 186 227 269
#     4   8  14  25  41  62  90 123 153 181 220 269
#     4   9  18  33  52  71  91 120 157 191 226 272
#
# _framework density 17.410958000000001
#
# number of rings (size 3 to 8) (size 9 to 14) (size 15 to 20)
#    0.000    3.000    0.000    2.000    0.000    6.667 
#    0.000    3.333    0.000    1.000    0.000    4.667 
#    0.000    0.000    0.000    0.000    0.000    0.000 
#
# Total GULP energy -595086.584848 kJ/mol
# GULP energy per Si atom -12397.637184 kJ/mol
# Density = 1.737133 g / cm^3
# Si number density = 17.410958 Si / 1000 Ang^3
#
#
#
# Elastic Constant Matrix: (Units=GPa)
#
#
# Indices 1 2 3 4 5 6 
#
# 1 86.8054 78.7308 37.8157 0.0000 0.0000 0.0000
# 2 78.7308 178.3410 62.8869 0.0000 0.0000 0.0000
# 3 37.8157 62.8869 48.0995 0.0000 0.0000 0.0000
# 4 0.0000 0.0000 0.0000 2.9952 0.0000 0.0000
# 5 0.0000 0.0000 0.0000 0.0000 17.6290 0.0000
# 6 0.0000 0.0000 0.0000 0.0000 0.0000 35.4589
#
#
#
# Elastic Compliance Matrix: (Units=1/GPa)
#
#
# Indices 1 2 3 4 5 6 
#
# 1 0.020768 -0.006328 -0.008054 0.000000 0.000000 0.000000
# 2 -0.006328 0.012332 -0.011148 0.000000 0.000000 0.000000
# 3 -0.008054 -0.011148 0.041697 0.000000 0.000000 0.000000
# 4 0.000000 0.000000 0.000000 0.333865 0.000000 0.000000
# 5 0.000000 0.000000 0.000000 0.000000 0.056725 0.000000
# 6 0.000000 0.000000 0.000000 0.000000 0.000000 0.028202
#
#
# Mechanical properties :
#
#
# Convention : Reuss Voigt Hill
#
# Bulk Modulus (GPa) = 42.12819 74.67921 58.40370
# Shear Modulus (GPa) = 9.04875 20.13745 14.59310
#
# Velocity S-wave (km/s) = 2.28220 3.40457 2.89823
# Velocity P-wave (km/s) = 5.58511 7.64460 6.69453
#
# Compressibility (1/GPa) = 0.02373707
#
# Stress axis : x y z
#
# Youngs Moduli (GPa) = 48.14998 81.09010 23.98231
#
# Poissons Ratio (x) = 0.51317 0.19316
# Poissons Ratio (y) = 0.30471 0.26735
# Poissons Ratio (z) = 0.38781 0.90398
#
# Static dielectric constant tensor:
#      x y z
#    x 3.349190 0.000000 0.000000 
#    y 0.000000 3.533440 0.000000 
#    z 0.000000 0.000000 2.887160 
# 
# 
# High freq. dielectric constant tensor:
#      x y z
#    x 1.676710 0.000000 0.000000 
#    y 0.000000 1.687800 0.000000 
#    z 0.000000 0.000000 1.624440 
# 
# From -- ./inp_files/51407.got.cif
#   From: 2010.03.12/outbox.cif.g09.slc.cpg/sg63_26_cif.got.tgz:51407.got - 2010.04.10 19:34:48.
