data_PCOD8256504
_publ_section_title
;
Structure prediction by ZEFSAII (Michael W. Deem and Ramdas Pophale) SiO2 
 PCOD8256504
Probable space group: C M C M
;
_chemical_formula_sum "Si O2"
_cell_formula_units_Z 80
_cell_length_a 17.938019
_cell_length_b 23.758279
_cell_length_c 10.276388
_cell_angle_alpha 90.000000
_cell_angle_beta 90.000000
_cell_angle_gamma 90.000000
_cell_volume 4379.554661
_symmetry_space_group_name_H-M "C M C M"
_symmetry_group_IT_number 63
_symmetry_cell_setting 'orthorhombic'
loop_
_space_group_symop_operation_xyz
x,y,z
-x,-y,1/2+z
x,-y,-z
-x,y,1/2-z
-x,-y,-z
x,y,1/2-z
-x,y,z
x,-y,1/2+z
1/2+x,1/2+y,z
1/2-x,1/2-y,1/2+z
1/2+x,1/2-y,-z
1/2-x,1/2+y,1/2-z
1/2-x,1/2-y,-z
1/2+x,1/2+y,1/2-z
1/2-x,1/2+y,z
1/2+x,1/2-y,1/2+z
loop_
_atom_site_type_symbol
_atom_site_label
_atom_site_fract_x
_atom_site_fract_y
_atom_site_fract_z
Si Si1 0.301117 0.431420 0.250000
Si Si2 0.911767 0.228693 0.011688
Si Si3 0.912367 0.350029 0.402790
Si Si4 0.911803 0.845972 0.750000
Si Si5 0.702257 0.065088 0.997225
Si Si6 0.295952 0.438395 0.750000
Si Si7 0.911480 0.168741 0.750000
O O1 0.253819 0.417636 0.122880
O O2 0.322310 0.497014 0.250000
O O3 0.374887 0.393040 0.250000
O O4 0.881218 0.291275 0.039086
O O5 0.883138 0.187511 0.124144
O O6 0.000000 0.231325 0.017270
O O7 0.884125 0.204856 0.873719
O O8 0.893163 0.353638 0.250000
O O9 0.873320 0.399318 0.484888
O O10 0.000000 0.356500 0.425986
O O11 0.874161 0.906598 0.750000
O O12 0.000000 0.855285 0.750000
O O13 0.746758 0.079460 0.127199
O O14 0.678641 0.000000 0.000000
O O15 0.000000 0.159040 0.750000
#
# Coordination Sequence:
#
# PCOD8256504 Si02
#       7
#     8  16  16   8  16   8   8
#     4  10  20  38  56  75 109 153 185 217 277 334
#     4   9  18  33  54  81 111 142 178 226 278 320
#     4  10  19  36  62  84 106 143 187 222 266 337
#     4  10  18  34  57  80 107 145 191 227 262 324
#     4  10  21  38  57  78 110 146 180 224 277 326
#     4  10  22  36  54  81 113 145 183 231 279 320
#     4  10  20  34  55  82 113 145 183 229 274 320
#
# _framework density 18.266697000000001
#
# number of rings (size 3 to 8) (size 9 to 14) (size 15 to 20)
#    0.000    2.200    2.000    1.200    0.000    1.600 
#    0.000    7.500    0.000    7.200    0.000    0.000 
#    0.000    0.000    0.000    0.000    0.000    0.000 
#
# Total GULP energy -496014.854510 kJ/mol
# GULP energy per Si atom -12400.371363 kJ/mol
# Density = 1.822512 g / cm^3
# Si number density = 18.266697 Si / 1000 Ang^3
#
#
#
# Elastic Constant Matrix: (Units=GPa)
#
#
# Indices 1 2 3 4 5 6 
#
# 1 65.1522 66.3649 44.4381 0.0000 0.0000 0.0000
# 2 66.3649 124.0110 57.6677 0.0000 0.0000 0.0000
# 3 44.4381 57.6677 151.4366 0.0000 0.0000 0.0000
# 4 0.0000 0.0000 0.0000 61.6665 0.0000 0.0000
# 5 0.0000 0.0000 0.0000 0.0000 19.0071 0.0000
# 6 0.0000 0.0000 0.0000 0.0000 0.0000 33.5404
#
#
#
# Elastic Compliance Matrix: (Units=1/GPa)
#
#
# Indices 1 2 3 4 5 6 
#
# 1 0.035514 -0.017206 -0.003869 0.000000 0.000000 0.000000
# 2 -0.017206 0.018135 -0.001857 0.000000 0.000000 0.000000
# 3 -0.003869 -0.001857 0.008446 0.000000 0.000000 0.000000
# 4 0.000000 0.000000 0.000000 0.016216 0.000000 0.000000
# 5 0.000000 0.000000 0.000000 0.000000 0.052612 0.000000
# 6 0.000000 0.000000 0.000000 0.000000 0.000000 0.029815
#
#
# Mechanical properties :
#
#
# Convention : Reuss Voigt Hill
#
# Bulk Modulus (GPa) = 61.61174 75.28234 68.44704
# Shear Modulus (GPa) = 23.58337 34.31808 28.95073
#
# Velocity S-wave (km/s) = 3.59703 4.33913 3.98539
# Velocity P-wave (km/s) = 7.14519 8.14901 7.66355
#
# Compressibility (1/GPa) = 0.01623067
#
# Stress axis : x y z
#
# Youngs Moduli (GPa) = 28.15765 55.14099 118.40013
#
# Poissons Ratio (x) = 0.94877 0.45811
# Poissons Ratio (y) = 0.48449 0.21986
# Poissons Ratio (z) = 0.10895 0.10239
#
# Static dielectric constant tensor:
#      x y z
#    x 3.019030 0.000000 0.000000 
#    y 0.000000 3.425710 0.000000 
#    z 0.000000 0.000000 3.643220 
# 
# 
# High freq. dielectric constant tensor:
#      x y z
#    x 1.683150 0.000000 0.000000 
#    y 0.000000 1.714480 0.000000 
#    z 0.000000 0.000000 1.722700 
# 
# From -- ./inp_files/6561.got.cif
#   From: 2010.03.12/outbox.cif.g09.slc.cpg/sg63_4_cif.got.tgz:6561.got - 2010.04.10 19:34:48.
