data_PCOD8256262
_publ_section_title
;
Structure prediction by ZEFSAII (Michael W. Deem and Ramdas Pophale) SiO2 
 PCOD8256262
Probable space group: C M C M
;
_chemical_formula_sum "Si O2"
_cell_formula_units_Z 80
_cell_length_a 25.003548
_cell_length_b 20.564684
_cell_length_c 8.695250
_cell_angle_alpha 90.000000
_cell_angle_beta 90.000000
_cell_angle_gamma 90.000000
_cell_volume 4471.011150
_symmetry_space_group_name_H-M "C M C M"
_symmetry_group_IT_number 63
_symmetry_cell_setting 'orthorhombic'
loop_
_space_group_symop_operation_xyz
x,y,z
-x,-y,1/2+z
x,-y,-z
-x,y,1/2-z
-x,-y,-z
x,y,1/2-z
-x,y,z
x,-y,1/2+z
1/2+x,1/2+y,z
1/2-x,1/2-y,1/2+z
1/2+x,1/2-y,-z
1/2-x,1/2+y,1/2-z
1/2-x,1/2-y,-z
1/2+x,1/2+y,1/2-z
1/2-x,1/2+y,z
1/2+x,1/2-y,1/2+z
loop_
_atom_site_type_symbol
_atom_site_label
_atom_site_fract_x
_atom_site_fract_y
_atom_site_fract_z
Si Si1 0.279327 0.687857 0.568628
Si Si2 0.385157 0.730023 0.066197
Si Si3 0.000000 0.620122 0.920803
Si Si4 0.718049 0.068569 0.072496
Si Si5 0.392673 0.868677 0.573411
Si Si6 0.000000 0.774784 0.580476
O O1 0.278973 0.694926 0.750000
O O2 0.250000 0.750000 0.500000
O O3 0.340208 0.684770 0.508282
O O4 0.250467 0.622544 0.519341
O O5 0.383165 0.725655 0.250000
O O6 0.443560 0.705016 0.001506
O O7 0.375714 0.804744 0.020430
O O8 0.000000 0.589393 0.750000
O O9 0.000000 0.697290 0.910530
O O10 0.946559 0.597443 0.009519
O O11 0.735427 0.070741 0.250000
O O12 0.654697 0.079540 0.054409
O O13 0.733643 0.000000 0.000000
O O14 0.401410 0.848466 0.750000
O O15 0.000000 0.805281 0.750000
#
# Coordination Sequence:
#
# PCOD8256262 Si02
#       6
#    16  16   8  16  16   8
#     4  12  23  36  56  82 111 145 185 230 276 325
#     4  10  18  31  53  80 110 143 180 222 271 325
#     4   9  17  29  48  72 101 138 181 225 273 318
#     4  11  24  40  57  79 108 144 184 229 280 333
#     4  10  19  32  51  75 105 139 182 227 273 324
#     4   7  14  27  45  74 107 138 171 213 265 317
#
# _framework density 17.893045000000001
#
# number of rings (size 3 to 8) (size 9 to 14) (size 15 to 20)
#    0.000    1.800    2.000    5.100    0.000    2.400 
#    0.000    2.000    0.000    0.000    0.000    0.700 
#    0.000    0.000    0.000    0.000    0.000    0.000 
#
# Total GULP energy -495872.562019 kJ/mol
# GULP energy per Si atom -12396.814050 kJ/mol
# Density = 1.785232 g / cm^3
# Si number density = 17.893045 Si / 1000 Ang^3
#
#
#
# Elastic Constant Matrix: (Units=GPa)
#
#
# Indices 1 2 3 4 5 6 
#
# 1 135.2060 43.9874 57.3921 0.0000 0.0000 0.0000
# 2 43.9874 73.4766 35.3340 0.0000 0.0000 0.0000
# 3 57.3921 35.3340 129.2325 0.0000 0.0000 0.0000
# 4 0.0000 0.0000 0.0000 23.7044 0.0000 0.0000
# 5 0.0000 0.0000 0.0000 0.0000 31.5737 0.0000
# 6 0.0000 0.0000 0.0000 0.0000 0.0000 5.8532
#
#
#
# Elastic Compliance Matrix: (Units=1/GPa)
#
#
# Indices 1 2 3 4 5 6 
#
# 1 0.010291 -0.004563 -0.003323 0.000000 0.000000 0.000000
# 2 -0.004563 0.017693 -0.002811 0.000000 0.000000 0.000000
# 3 -0.003323 -0.002811 0.009982 0.000000 0.000000 0.000000
# 4 0.000000 0.000000 0.000000 0.042186 0.000000 0.000000
# 5 0.000000 0.000000 0.000000 0.000000 0.031672 0.000000
# 6 0.000000 0.000000 0.000000 0.000000 0.000000 0.170846
#
#
# Mechanical properties :
#
#
# Convention : Reuss Voigt Hill
#
# Bulk Modulus (GPa) = 60.33952 67.92691 64.13321
# Shear Modulus (GPa) = 16.15048 25.63970 20.89509
#
# Velocity S-wave (km/s) = 3.00761 3.78953 3.42098
# Velocity P-wave (km/s) = 6.77174 7.56257 7.17806
#
# Compressibility (1/GPa) = 0.01657289
#
# Stress axis : x y z
#
# Youngs Moduli (GPa) = 97.17213 56.51856 100.17830
#
# Poissons Ratio (x) = 0.25789 0.33286
# Poissons Ratio (y) = 0.44339 0.28162
# Poissons Ratio (z) = 0.32287 0.15888
#
# Static dielectric constant tensor:
#      x y z
#    x 3.885190 0.000000 0.000000 
#    y 0.000000 2.832270 0.000000 
#    z 0.000000 0.000000 3.045640 
# 
# 
# High freq. dielectric constant tensor:
#      x y z
#    x 1.711140 0.000000 0.000000 
#    y 0.000000 1.636560 0.000000 
#    z 0.000000 0.000000 1.703210 
# 
# From -- ./inp_files/12114.got.cif
#   From: 2010.03.12/outbox.cif.g09.slc.cpg/sg63_7_cif.got.tgz:12114.got - 2010.04.10 19:34:48.
