data_PCOD8256551
_publ_section_title
;
Structure prediction by ZEFSAII (Michael W. Deem and Ramdas Pophale) SiO2 
 PCOD8256551
Probable space group: C M C M
;
_chemical_formula_sum "Si O2"
_cell_formula_units_Z 76
_cell_length_a 15.972739
_cell_length_b 22.884251
_cell_length_c 11.231131
_cell_angle_alpha 90.000000
_cell_angle_beta 90.000000
_cell_angle_gamma 90.000000
_cell_volume 4105.249819
_symmetry_space_group_name_H-M "C M C M"
_symmetry_group_IT_number 63
_symmetry_cell_setting 'orthorhombic'
loop_
_space_group_symop_operation_xyz
x,y,z
-x,-y,1/2+z
x,-y,-z
-x,y,1/2-z
-x,-y,-z
x,y,1/2-z
-x,y,z
x,-y,1/2+z
1/2+x,1/2+y,z
1/2-x,1/2-y,1/2+z
1/2+x,1/2-y,-z
1/2-x,1/2+y,1/2-z
1/2-x,1/2-y,-z
1/2+x,1/2+y,1/2-z
1/2-x,1/2+y,z
1/2+x,1/2-y,1/2+z
loop_
_atom_site_type_symbol
_atom_site_label
_atom_site_fract_x
_atom_site_fract_y
_atom_site_fract_z
Si Si1 0.274129 0.842684 0.934757
Si Si2 0.341001 0.238723 0.618825
Si Si3 0.000000 0.763048 0.250000
Si Si4 0.907826 0.651327 0.250000
Si Si5 0.500000 0.298120 0.504085
Si Si6 0.000000 0.921377 0.618335
Si Si7 0.180879 0.959231 0.891212
O O1 0.232014 0.786920 0.871830
O O2 0.355876 0.866568 0.866240
O O3 0.207602 0.894667 0.932219
O O4 0.303991 0.821651 0.065030
O O5 0.373424 0.223508 0.750000
O O6 0.418284 0.262812 0.543313
O O7 0.917983 0.721542 0.250000
O O8 0.000000 0.804353 0.362898
O O9 0.000000 0.620363 0.250000
O O10 0.500000 0.365130 0.536888
O O11 0.919380 0.962197 0.600073
O O12 0.000000 0.894162 0.750000
O O13 0.207730 0.973240 0.750000
O O14 0.216761 0.000000 0.000000
#
# Coordination Sequence:
#
# PCOD8256551 Si02
#       7
#    16  16   4   8   8   8  16
#     4  11  21  36  57  84 114 152 193 240 299 355
#     4  11  21  33  56  86 120 150 191 238 291 360
#     4  10  22  34  52  84 120 160 196 232 280 366
#     4  10  18  36  56  76 110 152 192 224 287 353
#     4  12  20  35  55  88 121 165 190 233 296 358
#     4  10  21  39  58  82 119 159 196 235 298 365
#     4  11  23  41  63  84 115 158 204 250 300 354
#
# _framework density 18.512879999999999
#
# number of rings (size 3 to 8) (size 9 to 14) (size 15 to 20)
#    0.316    0.842    6.316    1.263    0.000    0.842 
#    1.895    0.000    0.000    0.632    0.000    0.000 
#    0.000    0.000    0.000    0.000    0.000    0.000 
#
# Total GULP energy -470770.920147 kJ/mol
# GULP energy per Si atom -12388.708425 kJ/mol
# Density = 1.847074 g / cm^3
# Si number density = 18.512880 Si / 1000 Ang^3
#
#
#
# Elastic Constant Matrix: (Units=GPa)
#
#
# Indices 1 2 3 4 5 6 
#
# 1 83.4511 0.2791 18.1261 0.0000 0.0000 0.0000
# 2 0.2791 50.8633 36.8022 0.0000 0.0000 0.0000
# 3 18.1261 36.8022 150.4571 0.0000 0.0000 0.0000
# 4 0.0000 0.0000 0.0000 25.1378 0.0000 0.0000
# 5 0.0000 0.0000 0.0000 0.0000 16.9918 0.0000
# 6 0.0000 0.0000 0.0000 0.0000 0.0000 16.0678
#
#
#
# Elastic Compliance Matrix: (Units=1/GPa)
#
#
# Indices 1 2 3 4 5 6 
#
# 1 0.012368 0.001227 -0.001790 0.000000 0.000000 0.000000
# 2 0.001227 0.024010 -0.006021 0.000000 0.000000 0.000000
# 3 -0.001790 -0.006021 0.008335 0.000000 0.000000 0.000000
# 4 0.000000 0.000000 0.000000 0.039781 0.000000 0.000000
# 5 0.000000 0.000000 0.000000 0.000000 0.058852 0.000000
# 6 0.000000 0.000000 0.000000 0.000000 0.000000 0.062236
#
#
# Mechanical properties :
#
#
# Convention : Reuss Voigt Hill
#
# Bulk Modulus (GPa) = 31.70018 43.90959 37.80489
# Shear Modulus (GPa) = 21.80891 26.94376 24.37634
#
# Velocity S-wave (km/s) = 3.43598 3.81912 3.63260
# Velocity P-wave (km/s) = 5.73601 6.57400 6.16925
#
# Compressibility (1/GPa) = 0.03154556
#
# Stress axis : x y z
#
# Youngs Moduli (GPa) = 80.85512 41.64905 119.97903
#
# Poissons Ratio (x) = -0.05112 0.21479
# Poissons Ratio (y) = -0.09925 0.72237
# Poissons Ratio (z) = 0.14475 0.25076
#
# Static dielectric constant tensor:
#      x y z
#    x 3.469020 0.000000 0.000000 
#    y 0.000000 2.976630 0.000000 
#    z 0.000000 0.000000 3.600330 
# 
# 
# High freq. dielectric constant tensor:
#      x y z
#    x 1.721740 0.000000 0.000000 
#    y 0.000000 1.673600 0.000000 
#    z 0.000000 0.000000 1.727990 
# 
# From -- ./inp_files/19462.got.cif
#   From: 2010.03.12/outbox.cif.g09.slc.cpg/sg63_10_cif.got.tgz:19462.got - 2010.04.10 19:34:48.
