data_PCOD8256372
_publ_section_title
;
Structure prediction by ZEFSAII (Michael W. Deem and Ramdas Pophale) SiO2 
 PCOD8256372
Probable space group: C M C M
;
_chemical_formula_sum "Si O2"
_cell_formula_units_Z 96
_cell_length_a 22.676070
_cell_length_b 23.589654
_cell_length_c 10.390744
_cell_angle_alpha 90.000000
_cell_angle_beta 90.000000
_cell_angle_gamma 90.000000
_cell_volume 5558.223486
_symmetry_space_group_name_H-M "C M C M"
_symmetry_group_IT_number 63
_symmetry_cell_setting 'orthorhombic'
loop_
_space_group_symop_operation_xyz
x,y,z
-x,-y,1/2+z
x,-y,-z
-x,y,1/2-z
-x,-y,-z
x,y,1/2-z
-x,y,z
x,-y,1/2+z
1/2+x,1/2+y,z
1/2-x,1/2-y,1/2+z
1/2+x,1/2-y,-z
1/2-x,1/2+y,1/2-z
1/2-x,1/2-y,-z
1/2+x,1/2+y,1/2-z
1/2-x,1/2+y,z
1/2+x,1/2-y,1/2+z
loop_
_atom_site_type_symbol
_atom_site_label
_atom_site_fract_x
_atom_site_fract_y
_atom_site_fract_z
Si Si1 0.237561 0.932957 0.250000
Si Si2 0.628711 0.064926 0.750000
Si Si3 0.930193 0.381448 0.003481
Si Si4 0.569707 0.235348 0.891751
Si Si5 0.759759 0.932661 0.750000
Si Si6 0.932065 0.860786 0.598178
Si Si7 0.872814 0.569754 0.250000
Si Si8 0.330591 0.567286 0.497734
O O1 0.304632 0.910453 0.250000
O O2 0.202722 0.910927 0.124963
O O3 0.240793 0.000109 0.250000
O O4 0.595629 0.085007 0.623450
O O5 0.627132 0.997500 0.750000
O O6 0.905711 0.407090 0.873766
O O7 0.000000 0.388675 0.006477
O O8 0.911613 0.314929 0.011461
O O9 0.595968 0.221424 0.750000
O O10 0.500000 0.238565 0.878731
O O11 0.590935 0.297383 0.938256
O O12 0.694024 0.907575 0.750000
O O13 0.792521 0.910820 0.622898
O O14 0.923546 0.872061 0.750000
O O15 0.894959 0.904818 0.512926
O O16 0.000000 0.869354 0.558962
O O17 0.338955 0.500000 0.500000
#
# Coordination Sequence:
#
# PCOD8256372 Si02
#       8
#     8   8  16  16   8  16   8  16
#     4   9  20  33  50  73 102 137 175 209 248 302
#     4  11  21  36  54  73 101 142 178 211 250 310
#     4  11  21  34  53  77 104 135 170 214 265 309
#     4   8  15  31  53  74  97 134 181 210 236 301
#     4   9  18  35  52  69  96 143 183 199 236 306
#     4   9  17  31  55  82 104 134 175 212 248 302
#     4  11  23  34  50  77 109 134 166 215 268 312
#     4  10  18  32  54  78 104 134 170 212 254 300
#
# _framework density 17.271705000000001
#
# number of rings (size 3 to 8) (size 9 to 14) (size 15 to 20)
#    0.000    2.333    1.667    3.000    0.000    5.000 
#    0.000    1.250    0.000    8.000    0.000    0.000 
#    0.000    0.000    0.000    0.000    0.000    0.000 
#
# Total GULP energy -595058.257799 kJ/mol
# GULP energy per Si atom -12397.047037 kJ/mol
# Density = 1.723239 g / cm^3
# Si number density = 17.271705 Si / 1000 Ang^3
#
#
#
# Elastic Constant Matrix: (Units=GPa)
#
#
# Indices 1 2 3 4 5 6 
#
# 1 116.9647 49.6104 64.3301 0.0000 0.0000 0.0000
# 2 49.6104 77.2929 45.0942 0.0000 0.0000 0.0000
# 3 64.3301 45.0942 136.8081 0.0000 0.0000 0.0000
# 4 0.0000 0.0000 0.0000 -70.6559 0.0000 0.0000
# 5 0.0000 0.0000 0.0000 0.0000 28.4376 0.0000
# 6 0.0000 0.0000 0.0000 0.0000 0.0000 2.3937
#
#
#
# Elastic Compliance Matrix: (Units=1/GPa)
#
#
# Indices 1 2 3 4 5 6 
#
# 1 0.013552 -0.006166 -0.004340 0.000000 0.000000 0.000000
# 2 -0.006166 0.018824 -0.003305 0.000000 0.000000 0.000000
# 3 -0.004340 -0.003305 0.010440 0.000000 0.000000 0.000000
# 4 0.000000 0.000000 0.000000 -0.014153 0.000000 0.000000
# 5 0.000000 0.000000 0.000000 0.000000 0.035165 0.000000
# 6 0.000000 0.000000 0.000000 0.000000 0.000000 0.417761
#
#
# Mechanical properties :
#
#
# Convention : Reuss Voigt Hill
#
# Bulk Modulus (GPa) = 65.82059 72.12612 68.97335
# Shear Modulus (GPa) = 9.72242 3.50382 6.61312
#
# Velocity S-wave (km/s) = 2.37515 1.42585 1.95887
# Velocity P-wave (km/s) = 6.76117 6.67541 6.71843
#
# Compressibility (1/GPa) = 0.01519282
#
# Stress axis : x y z
#
# Youngs Moduli (GPa) = 73.79015 53.12386 95.78871
#
# Poissons Ratio (x) = 0.32758 0.41571
# Poissons Ratio (y) = 0.45501 0.31659
# Poissons Ratio (z) = 0.32024 0.17558
#
# Static dielectric constant tensor:
#      x y z
#    x 3.233740 0.000000 0.000000 
#    y 0.000000 3.267040 0.000000 
#    z 0.000000 0.000000 3.186360 
# 
# 
# High freq. dielectric constant tensor:
#      x y z
#    x 1.661240 0.000000 0.000000 
#    y 0.000000 1.654240 0.000000 
#    z 0.000000 0.000000 1.662600 
# 
# From -- ./inp_files/10584.got.cif
#   From: 2010.03.12/outbox.cif.g09.slc.cpg/sg63_6_cif.got.tgz:10584.got - 2010.04.10 19:34:48.
