data_PCOD8256424
_publ_section_title
;
Structure prediction by ZEFSAII (Michael W. Deem and Ramdas Pophale) SiO2 
 PCOD8256424
Probable space group: C M C M
;
_chemical_formula_sum "Si O2"
_cell_formula_units_Z 96
_cell_length_a 20.384743
_cell_length_b 14.390049
_cell_length_c 17.452200
_cell_angle_alpha 90.000000
_cell_angle_beta 90.000000
_cell_angle_gamma 90.000000
_cell_volume 5119.383856
_symmetry_space_group_name_H-M "C M C M"
_symmetry_group_IT_number 63
_symmetry_cell_setting 'orthorhombic'
loop_
_space_group_symop_operation_xyz
x,y,z
-x,-y,1/2+z
x,-y,-z
-x,y,1/2-z
-x,-y,-z
x,y,1/2-z
-x,y,z
x,-y,1/2+z
1/2+x,1/2+y,z
1/2-x,1/2-y,1/2+z
1/2+x,1/2-y,-z
1/2-x,1/2+y,1/2-z
1/2-x,1/2-y,-z
1/2+x,1/2+y,1/2-z
1/2-x,1/2+y,z
1/2+x,1/2-y,1/2+z
loop_
_atom_site_type_symbol
_atom_site_label
_atom_site_fract_x
_atom_site_fract_y
_atom_site_fract_z
Si Si1 0.124075 0.264383 0.659767
Si Si2 0.764682 0.766696 0.587903
Si Si3 0.688934 0.088066 0.659579
Si Si4 0.925324 0.067416 0.660410
Si Si5 0.072797 0.458012 0.841200
Si Si6 0.694741 0.525209 0.087676
O O1 0.120799 0.271450 0.750000
O O2 0.198911 0.257384 0.635922
O O3 0.085262 0.173270 0.631787
O O4 0.090672 0.356551 0.624409
O O5 0.750000 0.750000 0.500000
O O6 0.813957 0.687560 0.618080
O O7 0.797605 0.865726 0.602038
O O8 0.686279 0.103056 0.750000
O O9 0.625558 0.032297 0.628467
O O10 0.754693 0.031776 0.639771
O O11 0.908107 0.058293 0.750000
O O12 0.000000 0.038246 0.643857
O O13 0.879066 0.999763 0.611821
O O14 0.075483 0.454238 0.750000
O O15 0.000000 0.486150 0.869646
O O16 0.708244 0.500000 0.000000
#
# Coordination Sequence:
#
# PCOD8256424 Si02
#       6
#    16  16  16  16  16  16
#     4  10  18  32  58  87 116 150 195 248 293 338
#     4  12  23  37  58  86 120 155 197 246 298 350
#     4  11  22  37  60  89 120 154 195 244 294 354
#     4  10  21  37  58  87 121 154 196 248 297 351
#     4   9  18  33  56  87 119 152 190 237 294 349
#     4  12  23  39  61  86 118 161 199 244 297 358
#
# _framework density 18.752255999999999
#
# number of rings (size 3 to 8) (size 9 to 14) (size 15 to 20)
#    0.000    1.333    5.000    1.500    0.000    4.333 
#    0.000    0.833    0.000    7.500    0.000    0.000 
#    0.000    0.000    0.000    0.000    0.000    0.000 
#
# Total GULP energy -595311.561850 kJ/mol
# GULP energy per Si atom -12402.324205 kJ/mol
# Density = 1.870957 g / cm^3
# Si number density = 18.752256 Si / 1000 Ang^3
#
#
#
# Elastic Constant Matrix: (Units=GPa)
#
#
# Indices 1 2 3 4 5 6 
#
# 1 109.7705 44.3611 13.6816 0.0000 0.0000 0.0000
# 2 44.3611 131.3609 41.4624 0.0000 0.0000 0.0000
# 3 13.6816 41.4624 34.9146 0.0000 0.0000 0.0000
# 4 0.0000 0.0000 0.0000 28.6963 0.0000 0.0000
# 5 0.0000 0.0000 0.0000 0.0000 4.9392 0.0000
# 6 0.0000 0.0000 0.0000 0.0000 0.0000 47.7749
#
#
#
# Elastic Compliance Matrix: (Units=1/GPa)
#
#
# Indices 1 2 3 4 5 6 
#
# 1 0.010550 -0.003612 0.000155 0.000000 0.000000 0.000000
# 2 -0.003612 0.013413 -0.014514 0.000000 0.000000 0.000000
# 3 0.000155 -0.014514 0.045816 0.000000 0.000000 0.000000
# 4 0.000000 0.000000 0.000000 0.034848 0.000000 0.000000
# 5 0.000000 0.000000 0.000000 0.000000 0.202464 0.000000
# 6 0.000000 0.000000 0.000000 0.000000 0.000000 0.020931
#
#
# Mechanical properties :
#
#
# Convention : Reuss Voigt Hill
#
# Bulk Modulus (GPa) = 29.55194 52.78400 41.16797
# Shear Modulus (GPa) = 13.32472 28.05148 20.68810
#
# Velocity S-wave (km/s) = 2.66854 3.87188 3.32510
# Velocity P-wave (km/s) = 5.02873 6.94246 6.06160
#
# Compressibility (1/GPa) = 0.03383873
#
# Stress axis : x y z
#
# Youngs Moduli (GPa) = 94.78491 74.55278 21.82648
#
# Poissons Ratio (x) = 0.26926 -0.00338
# Poissons Ratio (y) = 0.34234 0.31678
# Poissons Ratio (z) = -0.01468 1.08202
#
# Static dielectric constant tensor:
#      x y z
#    x 3.526690 0.000000 0.000000 
#    y 0.000000 3.769350 0.000000 
#    z 0.000000 0.000000 3.251730 
# 
# 
# High freq. dielectric constant tensor:
#      x y z
#    x 1.726770 0.000000 0.000000 
#    y 0.000000 1.738410 0.000000 
#    z 0.000000 0.000000 1.708370 
# 
# From -- ./inp_files/35289.got.cif
#   From: 2010.03.12/outbox.cif.g09.slc.cpg/sg63_18_cif.got.tgz:35289.got - 2010.04.10 19:34:48.
