data_PCOD8256007
_publ_section_title
;
Structure prediction by ZEFSAII (Michael W. Deem and Ramdas Pophale) SiO2 
 PCOD8256007
Probable space group: C M C M
;
_chemical_formula_sum "Si O2"
_cell_formula_units_Z 96
_cell_length_a 8.856299
_cell_length_b 27.294484
_cell_length_c 23.008772
_cell_angle_alpha 90.000000
_cell_angle_beta 90.000000
_cell_angle_gamma 90.000000
_cell_volume 5561.867000
_symmetry_space_group_name_H-M "C M C M"
_symmetry_group_IT_number 63
_symmetry_cell_setting 'orthorhombic'
loop_
_space_group_symop_operation_xyz
x,y,z
-x,-y,1/2+z
x,-y,-z
-x,y,1/2-z
-x,-y,-z
x,y,1/2-z
-x,y,z
x,-y,1/2+z
1/2+x,1/2+y,z
1/2-x,1/2-y,1/2+z
1/2+x,1/2-y,-z
1/2-x,1/2+y,1/2-z
1/2-x,1/2-y,-z
1/2+x,1/2+y,1/2-z
1/2-x,1/2+y,z
1/2+x,1/2-y,1/2+z
loop_
_atom_site_type_symbol
_atom_site_label
_atom_site_fract_x
_atom_site_fract_y
_atom_site_fract_z
Si Si1 0.323756 0.394518 0.954399
Si Si2 0.179384 0.199795 0.979491
Si Si3 0.178254 0.619861 0.750000
Si Si4 0.823716 0.351677 0.374508
Si Si5 0.827036 0.963710 0.859727
Si Si6 0.170656 0.060202 0.928408
Si Si7 0.177408 0.490818 0.250000
O O1 0.500000 0.388521 0.945365
O O2 0.261820 0.414592 0.892122
O O3 0.259408 0.341924 0.975592
O O4 0.288505 0.434990 0.003703
O O5 0.231898 0.186885 0.913928
O O6 0.000000 0.203572 0.979890
O O7 0.250000 0.250000 0.000000
O O8 0.226764 0.651362 0.806647
O O9 0.249146 0.564275 0.750000
O O10 0.000000 0.612196 0.750000
O O11 0.788378 0.407409 0.392112
O O12 0.000000 0.340573 0.382320
O O13 0.726703 0.977713 0.805338
O O14 0.000000 0.957092 0.838967
O O15 0.816167 0.004581 0.909514
O O16 0.000000 0.080591 0.917934
O O17 0.000000 0.487168 0.250000
#
# Coordination Sequence:
#
# PCOD8256007 Si02
#       7
#    16  16   8  16  16  16   8
#     4   8  16  30  49  72  98 125 159 203 249 294
#     4  10  20  36  56  79 101 127 162 211 267 317
#     4   9  18  31  47  68 103 142 171 198 241 292
#     4  10  18  31  50  73 102 138 171 205 247 299
#     4  10  18  30  48  70  96 133 175 206 236 287
#     4   9  16  27  45  71 100 130 163 202 245 289
#     4  11  21  33  45  66 103 144 175 208 247 286
#
# _framework density 17.260390999999998
#
# number of rings (size 3 to 8) (size 9 to 14) (size 15 to 20)
#    0.000    2.500    1.667    2.750    0.000    2.000 
#    0.000    5.833    0.000    6.000    0.000    3.500 
#    0.000    0.000    0.000    0.000    0.000    0.000 
#
# Total GULP energy -594744.597251 kJ/mol
# GULP energy per Si atom -12390.512443 kJ/mol
# Density = 1.722111 g / cm^3
# Si number density = 17.260391 Si / 1000 Ang^3
#
#
#
# Elastic Constant Matrix: (Units=GPa)
#
#
# Indices 1 2 3 4 5 6 
#
# 1 51.1843 29.1974 35.0169 0.0000 0.0000 0.0000
# 2 29.1974 87.1239 67.6260 0.0000 0.0000 0.0000
# 3 35.0169 67.6260 126.3261 0.0000 0.0000 0.0000
# 4 0.0000 0.0000 0.0000 16.1088 0.0000 0.0000
# 5 0.0000 0.0000 0.0000 0.0000 22.6658 0.0000
# 6 0.0000 0.0000 0.0000 0.0000 0.0000 21.5288
#
#
#
# Elastic Compliance Matrix: (Units=1/GPa)
#
#
# Indices 1 2 3 4 5 6 
#
# 1 0.025424 -0.005218 -0.004254 0.000000 0.000000 0.000000
# 2 -0.005218 0.020709 -0.009640 0.000000 0.000000 0.000000
# 3 -0.004254 -0.009640 0.014256 0.000000 0.000000 0.000000
# 4 0.000000 0.000000 0.000000 0.062078 0.000000 0.000000
# 5 0.000000 0.000000 0.000000 0.000000 0.044119 0.000000
# 6 0.000000 0.000000 0.000000 0.000000 0.000000 0.046450
#
#
# Mechanical properties :
#
#
# Convention : Reuss Voigt Hill
#
# Bulk Modulus (GPa) = 45.11621 58.70162 51.90891
# Shear Modulus (GPa) = 19.33129 20.91360 20.12245
#
# Velocity S-wave (km/s) = 3.35024 3.48466 3.41811
# Velocity P-wave (km/s) = 6.41567 7.09040 6.76145
#
# Compressibility (1/GPa) = 0.02216498
#
# Stress axis : x y z
#
# Youngs Moduli (GPa) = 39.33250 48.28800 70.14811
#
# Poissons Ratio (x) = 0.25199 0.29840
# Poissons Ratio (y) = 0.20525 0.67620
# Poissons Ratio (z) = 0.16732 0.46548
#
# Static dielectric constant tensor:
#      x y z
#    x 3.048140 0.000000 0.000000 
#    y 0.000000 3.144880 0.000000 
#    z 0.000000 0.000000 3.472620 
# 
# 
# High freq. dielectric constant tensor:
#      x y z
#    x 1.646530 0.000000 0.000000 
#    y 0.000000 1.638780 0.000000 
#    z 0.000000 0.000000 1.669160 
# 
# From -- ./inp_files/60309.got.cif
#   From: 2010.03.12/outbox.cif.g09.slc.cpg/sg63_31_cif.got.tgz:60309.got - 2010.04.10 19:34:48.
