data_PCOD8256731
_publ_section_title
;
Structure prediction by ZEFSAII (Michael W. Deem and Ramdas Pophale) SiO2 
 PCOD8256731
Probable space group: C M C M
;
_chemical_formula_sum "Si O2"
_cell_formula_units_Z 112
_cell_length_a 31.330201
_cell_length_b 27.095202
_cell_length_c 9.444827
_cell_angle_alpha 90.000000
_cell_angle_beta 90.000000
_cell_angle_gamma 90.000000
_cell_volume 8017.695929
_symmetry_space_group_name_H-M "C M C M"
_symmetry_group_IT_number 63
_symmetry_cell_setting 'orthorhombic'
loop_
_space_group_symop_operation_xyz
x,y,z
-x,-y,1/2+z
x,-y,-z
-x,y,1/2-z
-x,-y,-z
x,y,1/2-z
-x,y,z
x,-y,1/2+z
1/2+x,1/2+y,z
1/2-x,1/2-y,1/2+z
1/2+x,1/2-y,-z
1/2-x,1/2+y,1/2-z
1/2-x,1/2-y,-z
1/2+x,1/2+y,1/2-z
1/2-x,1/2+y,z
1/2+x,1/2-y,1/2+z
loop_
_atom_site_type_symbol
_atom_site_label
_atom_site_fract_x
_atom_site_fract_y
_atom_site_fract_z
Si Si1 0.594470 0.920798 0.900956
Si Si2 0.500000 0.839029 0.410298
Si Si3 0.919810 0.689616 0.089119
Si Si4 0.716328 0.855149 0.088351
Si Si5 0.850290 0.732517 0.908847
Si Si6 0.500000 0.941838 0.528475
Si Si7 0.667735 0.046034 0.583754
Si Si8 0.727454 0.706888 0.085509
O O1 0.613473 0.939429 0.750000
O O2 0.603844 0.862833 0.913594
O O3 0.543812 0.931290 0.889679
O O4 0.618702 0.947398 0.029621
O O5 0.500000 0.820383 0.250000
O O6 0.539416 0.814935 0.490427
O O7 0.500000 0.899596 0.405321
O O8 0.931912 0.704978 0.250000
O O9 0.888336 0.730689 0.022569
O O10 0.732466 0.856090 0.250000
O O11 0.680654 0.813806 0.066851
O O12 0.696622 0.907421 0.044057
O O13 0.757183 0.844339 0.986657
O O14 0.869403 0.729838 0.750000
O O15 0.823543 0.783566 0.928186
O O16 0.500000 0.000000 0.500000
O O17 0.665865 0.036300 0.750000
O O18 0.688208 0.000000 0.500000
O O19 0.741370 0.708226 0.250000
O O20 0.750000 0.750000 0.000000
#
# Coordination Sequence:
#
# PCOD8256731 Si02
#       8
#    16   8  16  16  16   8  16  16
#     4  10  20  33  46  59  75  94 120 160 206 247
#     4  10  21  33  45  59  77 103 129 157 200 244
#     4  10  19  30  45  62  79 100 128 162 197 237
#     4   9  18  31  44  59  81 104 127 161 197 237
#     4   9  16  28  44  63  83 102 125 154 194 240
#     4  10  21  33  45  61  71  87 120 161 206 250
#     4  11  22  34  46  60  78 101 133 166 200 243
#     4   9  17  27  42  64  85 104 125 152 189 237
#
# _framework density 13.969099999999999
#
# number of rings (size 3 to 8) (size 9 to 14) (size 15 to 20)
#    0.000    2.286    1.429    3.000    0.000    8.571 
#    0.000    0.000    0.000    0.000    0.000    0.000 
#    0.000    0.000    0.000    0.000    0.000    0.000 
#
# Total GULP energy -693773.536519 kJ/mol
# GULP energy per Si atom -12388.813152 kJ/mol
# Density = 1.393731 g / cm^3
# Si number density = 13.969100 Si / 1000 Ang^3
#
#
#
# Elastic Constant Matrix: (Units=GPa)
#
#
# Indices 1 2 3 4 5 6 
#
# 1 64.3081 39.8161 51.0777 0.0000 0.0000 0.0000
# 2 39.8161 50.5208 36.6681 0.0000 0.0000 0.0000
# 3 51.0777 36.6681 116.7328 0.0000 0.0000 0.0000
# 4 0.0000 0.0000 0.0000 18.3676 0.0000 0.0000
# 5 0.0000 0.0000 0.0000 0.0000 19.1038 0.0000
# 6 0.0000 0.0000 0.0000 0.0000 0.0000 21.4733
#
#
#
# Elastic Compliance Matrix: (Units=1/GPa)
#
#
# Indices 1 2 3 4 5 6 
#
# 1 0.036403 -0.022187 -0.008959 0.000000 0.000000 0.000000
# 2 -0.022187 0.039162 -0.002593 0.000000 0.000000 0.000000
# 3 -0.008959 -0.002593 0.013301 0.000000 0.000000 0.000000
# 4 0.000000 0.000000 0.000000 0.054444 0.000000 0.000000
# 5 0.000000 0.000000 0.000000 0.000000 0.052346 0.000000
# 6 0.000000 0.000000 0.000000 0.000000 0.000000 0.046569
#
#
# Mechanical properties :
#
#
# Convention : Reuss Voigt Hill
#
# Bulk Modulus (GPa) = 46.75692 54.07616 50.41654
# Shear Modulus (GPa) = 15.78113 18.72227 17.25170
#
# Velocity S-wave (km/s) = 3.36477 3.66493 3.51806
# Velocity P-wave (km/s) = 6.97423 7.53022 7.25756
#
# Compressibility (1/GPa) = 0.02138721
#
# Stress axis : x y z
#
# Youngs Moduli (GPa) = 27.47008 25.53489 75.18027
#
# Poissons Ratio (x) = 0.56655 0.67355
# Poissons Ratio (y) = 0.60949 0.19497
# Poissons Ratio (z) = 0.24611 0.06622
#
# Static dielectric constant tensor:
#      x y z
#    x 2.781280 0.000000 0.000000 
#    y 0.000000 2.716850 0.000000 
#    z 0.000000 0.000000 2.928460 
# 
# 
# High freq. dielectric constant tensor:
#      x y z
#    x 1.507710 0.000000 0.000000 
#    y 0.000000 1.490230 0.000000 
#    z 0.000000 0.000000 1.550630 
# 
# From -- ./inp_files/14988.got.cif
#   From: 2010.03.12/outbox.cif.g09.slc.cpg/sg63_8_cif.got.tgz:14988.got - 2010.04.10 19:34:48.
