data_PCOD8256355
_publ_section_title
;
Structure prediction by ZEFSAII (Michael W. Deem and Ramdas Pophale) SiO2 
 PCOD8256355
Probable space group: C M C M
;
_chemical_formula_sum "Si O2"
_cell_formula_units_Z 96
_cell_length_a 28.143698
_cell_length_b 20.246625
_cell_length_c 9.517865
_cell_angle_alpha 90.000000
_cell_angle_beta 90.000000
_cell_angle_gamma 90.000000
_cell_volume 5423.421289
_symmetry_space_group_name_H-M "C M C M"
_symmetry_group_IT_number 63
_symmetry_cell_setting 'orthorhombic'
loop_
_space_group_symop_operation_xyz
x,y,z
-x,-y,1/2+z
x,-y,-z
-x,y,1/2-z
-x,-y,-z
x,y,1/2-z
-x,y,z
x,-y,1/2+z
1/2+x,1/2+y,z
1/2-x,1/2-y,1/2+z
1/2+x,1/2-y,-z
1/2-x,1/2+y,1/2-z
1/2-x,1/2-y,-z
1/2+x,1/2+y,1/2-z
1/2-x,1/2+y,z
1/2+x,1/2-y,1/2+z
loop_
_atom_site_type_symbol
_atom_site_label
_atom_site_fract_x
_atom_site_fract_y
_atom_site_fract_z
Si Si1 0.097509 0.190012 0.584596
Si Si2 0.055281 0.944543 0.097430
Si Si3 0.869042 0.566727 0.413245
Si Si4 0.553453 0.172735 0.416670
Si Si5 0.686342 0.294608 0.911739
Si Si6 0.210087 0.669394 0.409452
O O1 0.108357 0.195346 0.750000
O O2 0.062210 0.130383 0.545595
O O3 0.074301 0.257747 0.527397
O O4 0.145168 0.171321 0.500992
O O5 0.079299 0.952575 0.250000
O O6 0.000000 0.959104 0.107093
O O7 0.079785 0.000000 0.000000
O O8 0.870918 0.500000 0.500000
O O9 0.875669 0.549451 0.250000
O O10 0.911958 0.613876 0.466328
O O11 0.818205 0.601857 0.440146
O O12 0.551698 0.175918 0.250000
O O13 0.500000 0.161575 0.476436
O O14 0.671224 0.285776 0.750000
O O15 0.733241 0.340694 0.923921
O O16 0.694236 0.222576 0.977025
O O17 0.197573 0.693675 0.250000
#
# Coordination Sequence:
#
# PCOD8256355 Si02
#       6
#    16  16  16  16  16  16
#     4  10  18  32  53  77 105 137 172 210 255 310
#     4   9  18  32  51  74 100 135 175 212 253 306
#     4  10  20  35  54  75 103 138 175 217 263 310
#     4   9  17  31  53  77 100 133 178 220 256 303
#     4  10  19  30  52  80 104 127 163 212 257 301
#     4   9  18  35  53  73 100 134 169 205 251 307
#
# _framework density 17.701003
#
# number of rings (size 3 to 8) (size 9 to 14) (size 15 to 20)
#    0.000    2.500    1.667    1.000    0.000    4.333 
#    0.000    0.833    0.000    6.500    0.000    0.000 
#    0.000    0.000    0.000    0.000    0.000    0.000 
#
# Total GULP energy -594952.932462 kJ/mol
# GULP energy per Si atom -12394.852760 kJ/mol
# Density = 1.766071 g / cm^3
# Si number density = 17.701003 Si / 1000 Ang^3
#
#
#
# Elastic Constant Matrix: (Units=GPa)
#
#
# Indices 1 2 3 4 5 6 
#
# 1 98.5799 53.7086 39.0780 0.0000 0.0000 0.0000
# 2 53.7086 138.6392 50.1429 0.0000 0.0000 0.0000
# 3 39.0780 50.1429 63.2767 0.0000 0.0000 0.0000
# 4 0.0000 0.0000 0.0000 30.3411 0.0000 0.0000
# 5 0.0000 0.0000 0.0000 0.0000 21.6631 0.0000
# 6 0.0000 0.0000 0.0000 0.0000 0.0000 26.6377
#
#
#
# Elastic Compliance Matrix: (Units=1/GPa)
#
#
# Indices 1 2 3 4 5 6 
#
# 1 0.014447 -0.003322 -0.006290 0.000000 0.000000 0.000000
# 2 -0.003322 0.010875 -0.006566 0.000000 0.000000 0.000000
# 3 -0.006290 -0.006566 0.024891 0.000000 0.000000 0.000000
# 4 0.000000 0.000000 0.000000 0.032959 0.000000 0.000000
# 5 0.000000 0.000000 0.000000 0.000000 0.046162 0.000000
# 6 0.000000 0.000000 0.000000 0.000000 0.000000 0.037541
#
#
# Mechanical properties :
#
#
# Convention : Reuss Voigt Hill
#
# Bulk Modulus (GPa) = 55.99844 65.15053 60.57449
# Shear Modulus (GPa) = 24.36863 26.23279 25.30071
#
# Velocity S-wave (km/s) = 3.71439 3.85384 3.78476
# Velocity P-wave (km/s) = 7.07814 7.52920 7.30715
#
# Compressibility (1/GPa) = 0.01785764
#
# Stress axis : x y z
#
# Youngs Moduli (GPa) = 69.21718 91.95694 40.17499
#
# Poissons Ratio (x) = 0.30548 0.25269
# Poissons Ratio (y) = 0.22994 0.26379
# Poissons Ratio (z) = 0.43536 0.60378
#
# Static dielectric constant tensor:
#      x y z
#    x 3.526480 0.000000 0.000000 
#    y 0.000000 3.135060 0.000000 
#    z 0.000000 0.000000 3.292170 
# 
# 
# High freq. dielectric constant tensor:
#      x y z
#    x 1.686120 0.000000 0.000000 
#    y 0.000000 1.669670 0.000000 
#    z 0.000000 0.000000 1.667670 
# 
# From -- ./inp_files/12385.got.cif
#   From: 2010.03.12/outbox.cif.g09.slc.cpg/sg63_7_cif.got.tgz:12385.got - 2010.04.10 19:34:48.
