data_PCOD8256240
_publ_section_title
;
Structure prediction by ZEFSAII (Michael W. Deem and Ramdas Pophale) SiO2 
 PCOD8256240
Probable space group: C M C M
;
_chemical_formula_sum "Si O2"
_cell_formula_units_Z 96
_cell_length_a 21.661029
_cell_length_b 9.105649
_cell_length_c 24.686568
_cell_angle_alpha 90.000000
_cell_angle_beta 90.000000
_cell_angle_gamma 90.000000
_cell_volume 4869.122561
_symmetry_space_group_name_H-M "C M C M"
_symmetry_group_IT_number 63
_symmetry_cell_setting 'orthorhombic'
loop_
_space_group_symop_operation_xyz
x,y,z
-x,-y,1/2+z
x,-y,-z
-x,y,1/2-z
-x,-y,-z
x,y,1/2-z
-x,y,z
x,-y,1/2+z
1/2+x,1/2+y,z
1/2-x,1/2-y,1/2+z
1/2+x,1/2-y,-z
1/2-x,1/2+y,1/2-z
1/2-x,1/2-y,-z
1/2+x,1/2+y,1/2-z
1/2-x,1/2+y,z
1/2+x,1/2-y,1/2+z
loop_
_atom_site_type_symbol
_atom_site_label
_atom_site_fract_x
_atom_site_fract_y
_atom_site_fract_z
Si Si1 0.684455 0.311894 0.311975
Si Si2 0.739714 0.060170 0.370676
Si Si3 0.428894 0.320095 0.383616
Si Si4 0.304314 0.340560 0.528487
Si Si5 0.647793 0.890778 0.955909
Si Si6 0.564842 0.400193 0.949102
O O1 0.686982 0.362321 0.250000
O O2 0.717767 0.154787 0.318953
O O3 0.721055 0.423533 0.350534
O O4 0.613264 0.297319 0.330460
O O5 0.779259 0.163607 0.410534
O O6 0.679342 0.016156 0.407049
O O7 0.500000 0.276704 0.371207
O O8 0.403720 0.218996 0.433028
O O9 0.421982 0.490541 0.398713
O O10 0.297295 0.500000 0.500000
O O11 0.293268 0.201949 0.485303
O O12 0.376934 0.297755 0.538956
O O13 0.618305 0.000000 0.000000
O O14 0.500000 0.311924 0.937764
O O15 0.551552 0.500000 0.000000
#
# Coordination Sequence:
#
# PCOD8256240 Si02
#       6
#    16  16  16  16  16  16
#     4  11  22  38  59  80 106 144 190 244 294 333
#     4  10  21  36  53  81 115 143 183 233 286 334
#     4  10  21  36  54  78 109 145 184 228 274 331
#     4  10  19  30  52  79 113 147 182 219 270 341
#     4  10  20  32  50  80 116 151 176 212 271 341
#     4  10  18  31  52  77 108 146 180 215 268 331
#
# _framework density 19.716078
#
# number of rings (size 3 to 8) (size 9 to 14) (size 15 to 20)
#    0.000    1.833    3.333    1.500    0.000    4.667 
#    0.000    0.000    0.000    0.000    0.000    0.000 
#    0.000    6.000    0.000    0.000    0.000    0.000 
#
# Total GULP energy -594686.809203 kJ/mol
# GULP energy per Si atom -12389.308525 kJ/mol
# Density = 1.967120 g / cm^3
# Si number density = 19.716078 Si / 1000 Ang^3
#
#
#
# Elastic Constant Matrix: (Units=GPa)
#
#
# Indices 1 2 3 4 5 6 
#
# 1 75.9452 18.2006 34.8780 0.0000 0.0000 0.0000
# 2 18.2006 54.2319 26.6703 0.0000 0.0000 0.0000
# 3 34.8780 26.6703 99.7599 0.0000 0.0000 0.0000
# 4 0.0000 0.0000 0.0000 25.7294 0.0000 0.0000
# 5 0.0000 0.0000 0.0000 0.0000 20.0831 0.0000
# 6 0.0000 0.0000 0.0000 0.0000 0.0000 18.3397
#
#
#
# Elastic Compliance Matrix: (Units=1/GPa)
#
#
# Indices 1 2 3 4 5 6 
#
# 1 0.016109 -0.003036 -0.004820 0.000000 0.000000 0.000000
# 2 -0.003036 0.021803 -0.004768 0.000000 0.000000 0.000000
# 3 -0.004820 -0.004768 0.012984 0.000000 0.000000 0.000000
# 4 0.000000 0.000000 0.000000 0.038866 0.000000 0.000000
# 5 0.000000 0.000000 0.000000 0.000000 0.049793 0.000000
# 6 0.000000 0.000000 0.000000 0.000000 0.000000 0.054527
#
#
# Mechanical properties :
#
#
# Convention : Reuss Voigt Hill
#
# Bulk Modulus (GPa) = 38.98893 43.27053 41.12973
# Shear Modulus (GPa) = 21.94162 22.84297 22.39230
#
# Velocity S-wave (km/s) = 3.33960 3.40751 3.37373
# Velocity P-wave (km/s) = 5.88971 6.12176 6.00686
#
# Compressibility (1/GPa) = 0.02564830
#
# Stress axis : x y z
#
# Youngs Moduli (GPa) = 62.07847 45.86585 77.01830
#
# Poissons Ratio (x) = 0.13923 0.37125
# Poissons Ratio (y) = 0.18845 0.36719
# Poissons Ratio (z) = 0.29924 0.21867
#
# Static dielectric constant tensor:
#      x y z
#    x 4.210350 0.000000 0.000000 
#    y 0.000000 3.416440 0.000000 
#    z 0.000000 0.000000 3.339640 
# 
# 
# High freq. dielectric constant tensor:
#      x y z
#    x 1.790000 0.000000 0.000000 
#    y 0.000000 1.743020 0.000000 
#    z 0.000000 0.000000 1.742310 
# 
# From -- ./inp_files/64974.got.cif
#   From: 2010.03.12/outbox.cif.g09.slc.cpg/sg63_33_cif.got.tgz:64974.got - 2010.04.10 19:34:48.
