data_PCOD8256941
_publ_section_title
;
Structure prediction by ZEFSAII (Michael W. Deem and Ramdas Pophale) SiO2 
 PCOD8256941
Probable space group: C M C M
;
_chemical_formula_sum "Si O2"
_cell_formula_units_Z 80
_cell_length_a 10.950721
_cell_length_b 25.938568
_cell_length_c 17.478378
_cell_angle_alpha 90.000000
_cell_angle_beta 90.000000
_cell_angle_gamma 90.000000
_cell_volume 4964.663730
_symmetry_space_group_name_H-M "C M C M"
_symmetry_group_IT_number 63
_symmetry_cell_setting 'orthorhombic'
loop_
_space_group_symop_operation_xyz
x,y,z
-x,-y,1/2+z
x,-y,-z
-x,y,1/2-z
-x,-y,-z
x,y,1/2-z
-x,y,z
x,-y,1/2+z
1/2+x,1/2+y,z
1/2-x,1/2-y,1/2+z
1/2+x,1/2-y,-z
1/2-x,1/2+y,1/2-z
1/2-x,1/2-y,-z
1/2+x,1/2+y,1/2-z
1/2-x,1/2+y,z
1/2+x,1/2-y,1/2+z
loop_
_atom_site_type_symbol
_atom_site_label
_atom_site_fract_x
_atom_site_fract_y
_atom_site_fract_z
Si Si1 0.000000 0.791070 0.338466
Si Si2 0.000000 0.912666 0.340322
Si Si3 0.284280 0.456757 0.059937
Si Si4 0.634753 0.769641 0.953356
Si Si5 0.359601 0.887871 0.949209
Si Si6 0.142123 0.527863 0.166537
O O1 0.000000 0.851694 0.353401
O O2 0.121169 0.765189 0.376639
O O3 0.000000 0.777141 0.250000
O O4 0.114621 0.937536 0.381780
O O5 0.000000 0.926134 0.250000
O O6 0.179825 0.481611 0.111534
O O7 0.334405 0.500000 0.000000
O O8 0.227248 0.407404 0.017399
O O9 0.500000 0.766676 0.996334
O O10 0.663840 0.828271 0.931728
O O11 0.750000 0.750000 0.000000
O O12 0.500000 0.899290 0.971765
O O13 0.323491 0.917517 0.871594
O O14 0.206651 0.525040 0.250000
O O15 0.000000 0.522537 0.178107
#
# Coordination Sequence:
#
# PCOD8256941 Si02
#       6
#     8   8  16  16  16  16
#     4   9  20  33  51  75  99 128 172 214 255 299
#     4  11  21  33  47  67  95 130 162 200 241 287
#     4  10  19  31  48  68  97 127 163 196 238 287
#     4   9  18  32  52  75 100 130 168 211 255 297
#     4   9  17  30  48  72  95 124 158 197 245 287
#     4   9  17  29  46  71  98 126 157 196 241 289
#
# _framework density 16.113880999999999
#
# number of rings (size 3 to 8) (size 9 to 14) (size 15 to 20)
#    0.600    2.000    0.000    2.700    0.000    3.200 
#    0.000    0.000    0.000    0.600    0.000    5.600 
#    0.000    0.000    0.000    0.000    0.000    0.000 
#
# Total GULP energy -495593.743250 kJ/mol
# GULP energy per Si atom -12389.843581 kJ/mol
# Density = 1.607721 g / cm^3
# Si number density = 16.113881 Si / 1000 Ang^3
#
#
#
# Elastic Constant Matrix: (Units=GPa)
#
#
# Indices 1 2 3 4 5 6 
#
# 1 53.0314 29.5302 42.3634 0.0000 0.0000 0.0000
# 2 29.5302 101.7429 55.7581 0.0000 0.0000 0.0000
# 3 42.3634 55.7581 125.3231 0.0000 0.0000 0.0000
# 4 0.0000 0.0000 0.0000 16.3083 0.0000 0.0000
# 5 0.0000 0.0000 0.0000 0.0000 25.3724 0.0000
# 6 0.0000 0.0000 0.0000 0.0000 0.0000 3.4354
#
#
#
# Elastic Compliance Matrix: (Units=1/GPa)
#
#
# Indices 1 2 3 4 5 6 
#
# 1 0.026861 -0.003730 -0.007421 0.000000 0.000000 0.000000
# 2 -0.003730 0.013516 -0.004753 0.000000 0.000000 0.000000
# 3 -0.007421 -0.004753 0.012602 0.000000 0.000000 0.000000
# 4 0.000000 0.000000 0.000000 0.061318 0.000000 0.000000
# 5 0.000000 0.000000 0.000000 0.000000 0.039413 0.000000
# 6 0.000000 0.000000 0.000000 0.000000 0.000000 0.291089
#
#
# Mechanical properties :
#
#
# Convention : Reuss Voigt Hill
#
# Bulk Modulus (GPa) = 47.22841 59.48896 53.35869
# Shear Modulus (GPa) = 10.33776 19.18627 14.76202
#
# Velocity S-wave (km/s) = 2.53562 3.45435 3.03001
# Velocity P-wave (km/s) = 6.15997 7.27379 6.73993
#
# Compressibility (1/GPa) = 0.02117370
#
# Stress axis : x y z
#
# Youngs Moduli (GPa) = 37.22801 73.98766 79.35026
#
# Poissons Ratio (x) = 0.27594 0.58884
# Poissons Ratio (y) = 0.13885 0.37712
# Poissons Ratio (z) = 0.27626 0.35164
#
# Static dielectric constant tensor:
#      x y z
#    x 2.939320 0.000000 0.000000 
#    y 0.000000 3.157610 0.000000 
#    z 0.000000 0.000000 3.151800 
# 
# 
# High freq. dielectric constant tensor:
#      x y z
#    x 1.603530 0.000000 0.000000 
#    y 0.000000 1.629270 0.000000 
#    z 0.000000 0.000000 1.615170 
# 
# From -- ./inp_files/42434.got.cif
#   From: 2010.03.12/outbox.cif.g09.slc.cpg/sg63_22_cif.got.tgz:42434.got - 2010.04.10 19:34:48.
