data_PCOD8256828
_publ_section_title
;
Structure prediction by ZEFSAII (Michael W. Deem and Ramdas Pophale) SiO2 
 PCOD8256828
Probable space group: C M C M
;
_chemical_formula_sum "Si O2"
_cell_formula_units_Z 112
_cell_length_a 14.263876
_cell_length_b 28.410679
_cell_length_c 16.900556
_cell_angle_alpha 90.000000
_cell_angle_beta 90.000000
_cell_angle_gamma 90.000000
_cell_volume 6848.889516
_symmetry_space_group_name_H-M "C M C M"
_symmetry_group_IT_number 63
_symmetry_cell_setting 'orthorhombic'
loop_
_space_group_symop_operation_xyz
x,y,z
-x,-y,1/2+z
x,-y,-z
-x,y,1/2-z
-x,-y,-z
x,y,1/2-z
-x,y,z
x,-y,1/2+z
1/2+x,1/2+y,z
1/2-x,1/2-y,1/2+z
1/2+x,1/2-y,-z
1/2-x,1/2+y,1/2-z
1/2-x,1/2-y,-z
1/2+x,1/2+y,1/2-z
1/2-x,1/2+y,z
1/2+x,1/2-y,1/2+z
loop_
_atom_site_type_symbol
_atom_site_label
_atom_site_fract_x
_atom_site_fract_y
_atom_site_fract_z
Si Si1 0.895541 0.451964 0.661071
Si Si2 0.270450 0.516244 0.840809
Si Si3 0.108829 0.365586 0.954607
Si Si4 0.609707 0.678582 0.840578
Si Si5 0.894308 0.956189 0.558884
Si Si6 0.610419 0.213870 0.162861
Si Si7 0.781103 0.106832 0.552059
O O1 0.873197 0.434325 0.750000
O O2 0.830747 0.495450 0.637299
O O3 0.879824 0.408971 0.603570
O O4 0.000000 0.471983 0.654179
O O5 0.283038 0.529241 0.750000
O O6 0.346839 0.476051 0.861559
O O7 0.277730 0.564094 0.887772
O O8 0.147229 0.320010 0.906859
O O9 0.000000 0.359861 0.982852
O O10 0.177296 0.374599 0.028991
O O11 0.637379 0.665709 0.750000
O O12 0.500000 0.669084 0.853079
O O13 0.635759 0.732623 0.858459
O O14 0.665728 0.648747 0.904476
O O15 0.838104 0.911031 0.525132
O O16 0.000000 0.939781 0.577069
O O17 0.892393 0.000000 0.500000
O O18 0.652687 0.201084 0.250000
O O19 0.500000 0.206976 0.168608
#
# Coordination Sequence:
#
# PCOD8256828 Si02
#       7
#    16  16  16  16  16  16  16
#     4   9  17  30  48  69  93 124 164 204 238 275
#     4  10  20  33  47  65  91 127 168 202 235 281
#     4  10  19  30  48  73 100 131 161 195 246 295
#     4   9  18  33  53  74  95 123 161 203 246 290
#     4   9  18  32  47  65  91 122 156 197 244 287
#     4   8  15  30  51  74  98 123 158 204 244 283
#     4  11  20  31  47  72 101 128 157 199 245 293
#
# _framework density 16.353014999999999
#
# number of rings (size 3 to 8) (size 9 to 14) (size 15 to 20)
#    0.000    2.571    1.429    2.143    0.000    3.714 
#    0.000    1.429    0.000    1.286    0.000    0.000 
#    0.000    2.286    0.000    0.000    0.000    0.000 
#
# Total GULP energy -694121.031302 kJ/mol
# GULP energy per Si atom -12395.018416 kJ/mol
# Density = 1.631580 g / cm^3
# Si number density = 16.353015 Si / 1000 Ang^3
#
#
#
# Elastic Constant Matrix: (Units=GPa)
#
#
# Indices 1 2 3 4 5 6 
#
# 1 87.8104 32.5100 44.2777 0.0000 0.0000 0.0000
# 2 32.5100 63.7218 43.2239 0.0000 0.0000 0.0000
# 3 44.2777 43.2239 46.2099 0.0000 0.0000 0.0000
# 4 0.0000 0.0000 0.0000 -4.6570 0.0000 0.0000
# 5 0.0000 0.0000 0.0000 0.0000 26.0701 0.0000
# 6 0.0000 0.0000 0.0000 0.0000 0.0000 3.7335
#
#
#
# Elastic Compliance Matrix: (Units=1/GPa)
#
#
# Indices 1 2 3 4 5 6 
#
# 1 0.023822 0.009110 -0.031347 0.000000 0.000000 0.000000
# 2 0.009110 0.046419 -0.052148 0.000000 0.000000 0.000000
# 3 -0.031347 -0.052148 0.100455 0.000000 0.000000 0.000000
# 4 0.000000 0.000000 0.000000 -0.214729 0.000000 0.000000
# 5 0.000000 0.000000 0.000000 0.000000 0.038358 0.000000
# 6 0.000000 0.000000 0.000000 0.000000 0.000000 0.267842
#
#
# Mechanical properties :
#
#
# Convention : Reuss Voigt Hill
#
# Bulk Modulus (GPa) = 45.60985 48.64059 47.12522
# Shear Modulus (GPa) = 11.95465 10.21136 11.08300
#
# Velocity S-wave (km/s) = 2.70670 2.50158 2.60616
# Velocity P-wave (km/s) = 6.14163 6.17677 6.15923
#
# Compressibility (1/GPa) = 0.02192509
#
# Stress axis : x y z
#
# Youngs Moduli (GPa) = 41.97803 21.54295 9.95467
#
# Poissons Ratio (x) = -0.19625 0.31205
# Poissons Ratio (y) = -0.38241 0.51912
# Poissons Ratio (z) = 1.31589 1.12343
#
# Static dielectric constant tensor:
#      x y z
#    x 3.107320 0.000000 0.000000 
#    y 0.000000 3.114020 0.000000 
#    z 0.000000 0.000000 2.682320 
# 
# 
# High freq. dielectric constant tensor:
#      x y z
#    x 1.616670 0.000000 0.000000 
#    y 0.000000 1.625440 0.000000 
#    z 0.000000 0.000000 1.620940 
# 
# From -- ./inp_files/32769.got.cif
#   From: 2010.03.12/outbox.cif.g09.slc.cpg/sg63_17_cif.got.tgz:32769.got - 2010.04.10 19:34:48.
