data_PCOD8256701
_publ_section_title
;
Structure prediction by ZEFSAII (Michael W. Deem and Ramdas Pophale) SiO2 
 PCOD8256701
Probable space group: C M C M
;
_chemical_formula_sum "Si O2"
_cell_formula_units_Z 88
_cell_length_a 25.111503
_cell_length_b 28.100468
_cell_length_c 8.851736
_cell_angle_alpha 90.000000
_cell_angle_beta 90.000000
_cell_angle_gamma 90.000000
_cell_volume 6246.183130
_symmetry_space_group_name_H-M "C M C M"
_symmetry_group_IT_number 63
_symmetry_cell_setting 'orthorhombic'
loop_
_space_group_symop_operation_xyz
x,y,z
-x,-y,1/2+z
x,-y,-z
-x,y,1/2-z
-x,-y,-z
x,y,1/2-z
-x,y,z
x,-y,1/2+z
1/2+x,1/2+y,z
1/2-x,1/2-y,1/2+z
1/2+x,1/2-y,-z
1/2-x,1/2+y,1/2-z
1/2-x,1/2-y,-z
1/2+x,1/2+y,1/2-z
1/2-x,1/2+y,z
1/2+x,1/2-y,1/2+z
loop_
_atom_site_type_symbol
_atom_site_label
_atom_site_fract_x
_atom_site_fract_y
_atom_site_fract_z
Si Si1 0.263489 0.641227 0.583286
Si Si2 0.699433 0.273669 0.925850
Si Si3 0.707044 0.049789 0.930650
Si Si4 0.854332 0.683342 0.581953
Si Si5 0.896280 0.596158 0.071566
Si Si6 0.500000 0.052029 0.569718
O O1 0.288132 0.640043 0.750000
O O2 0.305674 0.671746 0.484040
O O3 0.253809 0.587274 0.524813
O O4 0.206073 0.665631 0.583745
O O5 0.709816 0.275420 0.750000
O O6 0.647901 0.239888 0.962325
O O7 0.750000 0.250000 0.000000
O O8 0.699176 0.047541 0.750000
O O9 0.651561 0.064681 0.006359
O O10 0.725632 0.000000 0.000000
O O11 0.878943 0.676788 0.750000
O O12 0.888046 0.652434 0.463045
O O13 0.901090 0.588181 0.250000
O O14 0.949087 0.580299 0.987758
O O15 0.500000 0.048691 0.750000
O O16 0.500000 0.000000 0.500000
#
# Coordination Sequence:
#
# PCOD8256701 Si02
#       6
#    16  16  16  16  16   8
#     4   8  15  25  36  51  72  93 116 144 175 210
#     4   9  15  22  35  53  73  93 114 138 169 209
#     4  10  19  30  41  54  72  96 123 153 187 222
#     4   8  15  27  39  54  74  94 113 139 176 216
#     4  11  21  32  45  60  73  89 117 151 187 229
#     4  12  24  38  50  58  72  92 116 152 193 232
#
# _framework density 14.088603000000001
#
# number of rings (size 3 to 8) (size 9 to 14) (size 15 to 20)
#    0.000    2.545    0.000    6.273    0.000    8.000 
#    0.000    0.000    0.000    0.000    0.000    0.000 
#    0.000    0.000    0.000    0.000    0.000    0.000 
#
# Total GULP energy -545101.159394 kJ/mol
# GULP energy per Si atom -12388.662713 kJ/mol
# Density = 1.405654 g / cm^3
# Si number density = 14.088603 Si / 1000 Ang^3
#
#
#
# Elastic Constant Matrix: (Units=GPa)
#
#
# Indices 1 2 3 4 5 6 
#
# 1 23.2304 39.3735 23.6792 0.0000 0.0000 0.0000
# 2 39.3735 127.8373 55.7724 0.0000 0.0000 0.0000
# 3 23.6792 55.7724 96.0661 0.0000 0.0000 0.0000
# 4 0.0000 0.0000 0.0000 26.8923 0.0000 0.0000
# 5 0.0000 0.0000 0.0000 0.0000 14.6112 0.0000
# 6 0.0000 0.0000 0.0000 0.0000 0.0000 13.5767
#
#
#
# Elastic Compliance Matrix: (Units=1/GPa)
#
#
# Indices 1 2 3 4 5 6 
#
# 1 0.095109 -0.025533 -0.008620 0.000000 0.000000 0.000000
# 2 -0.025533 0.017330 -0.003768 0.000000 0.000000 0.000000
# 3 -0.008620 -0.003768 0.014722 0.000000 0.000000 0.000000
# 4 0.000000 0.000000 0.000000 0.037185 0.000000 0.000000
# 5 0.000000 0.000000 0.000000 0.000000 0.068441 0.000000
# 6 0.000000 0.000000 0.000000 0.000000 0.000000 0.073656
#
#
# Mechanical properties :
#
#
# Convention : Reuss Voigt Hill
#
# Bulk Modulus (GPa) = 19.48545 53.86488 36.67517
# Shear Modulus (GPa) = 12.51907 19.56996 16.04452
#
# Velocity S-wave (km/s) = 2.98417 3.73106 3.37832
# Velocity P-wave (km/s) = 5.07290 7.54168 6.42695
#
# Compressibility (1/GPa) = 0.05132034
#
# Stress axis : x y z
#
# Youngs Moduli (GPa) = 10.51420 57.70270 67.92711
#
# Poissons Ratio (x) = 1.47330 0.58554
# Poissons Ratio (y) = 0.26846 0.25593
# Poissons Ratio (z) = 0.09063 0.21741
#
# Static dielectric constant tensor:
#      x y z
#    x 2.378060 0.000000 0.000000 
#    y 0.000000 3.341580 0.000000 
#    z 0.000000 0.000000 3.813380 
# 
# 
# High freq. dielectric constant tensor:
#      x y z
#    x 1.462890 0.000000 0.000000 
#    y 0.000000 1.547130 0.000000 
#    z 0.000000 0.000000 1.552530 
# 
# From -- ./inp_files/8953.got.cif
#   From: 2010.03.12/outbox.cif.g09.slc.cpg/sg63_5_cif.got.tgz:8953.got - 2010.04.10 19:34:48.
