data_PCOD8256897
_publ_section_title
;
Structure prediction by ZEFSAII (Michael W. Deem and Ramdas Pophale) SiO2 
 PCOD8256897
Probable space group: C M C M
;
_chemical_formula_sum "Si O2"
_cell_formula_units_Z 96
_cell_length_a 9.162164
_cell_length_b 23.635238
_cell_length_c 25.703398
_cell_angle_alpha 90.000000
_cell_angle_beta 90.000000
_cell_angle_gamma 90.000000
_cell_volume 5566.068954
_symmetry_space_group_name_H-M "C M C M"
_symmetry_group_IT_number 63
_symmetry_cell_setting 'orthorhombic'
loop_
_space_group_symop_operation_xyz
x,y,z
-x,-y,1/2+z
x,-y,-z
-x,y,1/2-z
-x,-y,-z
x,y,1/2-z
-x,y,z
x,-y,1/2+z
1/2+x,1/2+y,z
1/2-x,1/2-y,1/2+z
1/2+x,1/2-y,-z
1/2-x,1/2+y,1/2-z
1/2-x,1/2-y,-z
1/2+x,1/2+y,1/2-z
1/2-x,1/2+y,z
1/2+x,1/2-y,1/2+z
loop_
_atom_site_type_symbol
_atom_site_label
_atom_site_fract_x
_atom_site_fract_y
_atom_site_fract_z
Si Si1 0.171573 0.339021 0.190226
Si Si2 0.828399 0.080699 0.616182
Si Si3 0.663854 0.678879 0.961111
Si Si4 0.827352 0.516197 0.441311
Si Si5 0.666241 0.630326 0.072967
Si Si6 0.330370 0.745217 0.389261
O O1 0.214152 0.330729 0.250000
O O2 0.258598 0.393303 0.168541
O O3 0.222631 0.281439 0.160702
O O4 0.000000 0.350119 0.182829
O O5 0.790973 0.121795 0.568653
O O6 0.000000 0.070613 0.624695
O O7 0.751830 0.021888 0.601719
O O8 0.500000 0.695365 0.946347
O O9 0.761354 0.730902 0.942374
O O10 0.684276 0.667171 0.021291
O O11 0.777164 0.500000 0.500000
O O12 0.780761 0.579770 0.426831
O O13 0.000000 0.510038 0.435464
O O14 0.500000 0.606969 0.078296
O O15 0.703743 0.677682 0.117410
O O16 0.500000 0.753563 0.397420
#
# Coordination Sequence:
#
# PCOD8256897 Si02
#       6
#    16  16  16  16  16  16
#     4   9  18  34  55  77 102 129 160 206 258 301
#     4  10  19  32  51  74 101 131 168 212 252 298
#     4   9  17  28  44  67  97 131 162 200 248 292
#     4  11  22  33  48  71 100 137 177 211 247 301
#     4  10  19  31  46  67  99 136 171 203 244 296
#     4   9  18  30  47  71  97 128 166 203 245 299
#
# _framework density 17.247361000000001
#
# number of rings (size 3 to 8) (size 9 to 14) (size 15 to 20)
#    0.000    2.333    1.667    1.500    0.000    3.000 
#    0.000    0.000    0.000    1.000    0.000    2.333 
#    0.000    0.000    0.000    0.000    0.000    0.000 
#
# Total GULP energy -595033.820352 kJ/mol
# GULP energy per Si atom -12396.537924 kJ/mol
# Density = 1.720811 g / cm^3
# Si number density = 17.247361 Si / 1000 Ang^3
#
#
#
# Elastic Constant Matrix: (Units=GPa)
#
#
# Indices 1 2 3 4 5 6 
#
# 1 61.3446 47.2868 26.8726 0.0000 0.0000 0.0000
# 2 47.2868 113.4824 38.0376 0.0000 0.0000 0.0000
# 3 26.8726 38.0376 62.7129 0.0000 0.0000 0.0000
# 4 0.0000 0.0000 0.0000 15.3737 0.0000 0.0000
# 5 0.0000 0.0000 0.0000 0.0000 19.5550 0.0000
# 6 0.0000 0.0000 0.0000 0.0000 0.0000 28.8826
#
#
#
# Elastic Compliance Matrix: (Units=1/GPa)
#
#
# Indices 1 2 3 4 5 6 
#
# 1 0.025504 -0.008741 -0.005627 0.000000 0.000000 0.000000
# 2 -0.008741 0.014057 -0.004780 0.000000 0.000000 0.000000
# 3 -0.005627 -0.004780 0.021256 0.000000 0.000000 0.000000
# 4 0.000000 0.000000 0.000000 0.065046 0.000000 0.000000
# 5 0.000000 0.000000 0.000000 0.000000 0.051138 0.000000
# 6 0.000000 0.000000 0.000000 0.000000 0.000000 0.034623
#
#
# Mechanical properties :
#
#
# Convention : Reuss Voigt Hill
#
# Bulk Modulus (GPa) = 44.40385 51.32601 47.86493
# Shear Modulus (GPa) = 19.42296 21.11844 20.27070
#
# Velocity S-wave (km/s) = 3.35944 3.50300 3.43197
# Velocity P-wave (km/s) = 6.39132 6.79593 6.59673
#
# Compressibility (1/GPa) = 0.02252057
#
# Stress axis : x y z
#
# Youngs Moduli (GPa) = 39.20894 71.14093 47.04539
#
# Poissons Ratio (x) = 0.62187 0.26471
# Poissons Ratio (y) = 0.34274 0.22488
# Poissons Ratio (z) = 0.22062 0.34006
#
# Static dielectric constant tensor:
#      x y z
#    x 3.206300 0.000000 0.000000 
#    y 0.000000 3.289210 0.000000 
#    z 0.000000 0.000000 3.082490 
# 
# 
# High freq. dielectric constant tensor:
#      x y z
#    x 1.667150 0.000000 0.000000 
#    y 0.000000 1.668960 0.000000 
#    z 0.000000 0.000000 1.631620 
# 
# From -- ./inp_files/59937.got.cif
#   From: 2010.03.12/outbox.cif.g09.slc.cpg/sg63_30_cif.got.tgz:59937.got - 2010.04.10 19:34:48.
