data_PCOD8256959
_publ_section_title
;
Structure prediction by ZEFSAII (Michael W. Deem and Ramdas Pophale) SiO2 
 PCOD8256959
Probable space group: C M C M
;
_chemical_formula_sum "Si O2"
_cell_formula_units_Z 96
_cell_length_a 8.939619
_cell_length_b 25.323377
_cell_length_c 25.025078
_cell_angle_alpha 90.000000
_cell_angle_beta 90.000000
_cell_angle_gamma 90.000000
_cell_volume 5665.210746
_symmetry_space_group_name_H-M "C M C M"
_symmetry_group_IT_number 63
_symmetry_cell_setting 'orthorhombic'
loop_
_space_group_symop_operation_xyz
x,y,z
-x,-y,1/2+z
x,-y,-z
-x,y,1/2-z
-x,-y,-z
x,y,1/2-z
-x,y,z
x,-y,1/2+z
1/2+x,1/2+y,z
1/2-x,1/2-y,1/2+z
1/2+x,1/2-y,-z
1/2-x,1/2+y,1/2-z
1/2-x,1/2-y,-z
1/2+x,1/2+y,1/2-z
1/2-x,1/2+y,z
1/2+x,1/2-y,1/2+z
loop_
_atom_site_type_symbol
_atom_site_label
_atom_site_fract_x
_atom_site_fract_y
_atom_site_fract_z
Si Si1 0.674767 0.306032 0.493090
Si Si2 0.822302 0.308037 0.111684
Si Si3 0.326068 0.311610 0.889815
Si Si4 0.828275 0.888207 0.186774
Si Si5 0.323274 0.599899 0.311461
Si Si6 0.331602 0.993364 0.313476
O O1 0.500000 0.299822 0.480834
O O2 0.750000 0.250000 0.500000
O O3 0.754841 0.334350 0.442778
O O4 0.700896 0.335073 0.550231
O O5 0.761293 0.247741 0.116955
O O6 0.763581 0.339771 0.162434
O O7 0.000000 0.310803 0.108721
O O8 0.500000 0.307108 0.877535
O O9 0.256424 0.351855 0.846572
O O10 0.811396 0.883785 0.250000
O O11 0.759884 0.943035 0.164984
O O12 0.000000 0.885416 0.168664
O O13 0.280629 0.611109 0.250000
O O14 0.500000 0.593125 0.318610
O O15 0.247540 0.546658 0.333453
O O16 0.331449 0.992514 0.250000
O O17 0.500000 0.990971 0.336136
#
# Coordination Sequence:
#
# PCOD8256959 Si02
#       6
#    16  16  16  16  16  16
#     4   9  16  29  47  66  91 124 163 201 234 274
#     4  10  19  31  48  71  97 125 158 195 237 282
#     4   8  16  29  46  69  95 125 159 191 227 275
#     4  10  20  33  49  70  95 124 157 191 231 280
#     4   9  16  28  47  69  93 122 155 189 225 270
#     4   9  17  30  47  67  91 120 155 192 229 271
#
# _framework density 16.945530999999999
#
# number of rings (size 3 to 8) (size 9 to 14) (size 15 to 20)
#    0.000    2.833    0.000    3.000    0.000    3.667 
#    0.000    6.667    0.000    3.000    0.000    7.000 
#    0.000    0.000    0.000    0.000    0.000    0.000 
#
# Total GULP energy -594910.026657 kJ/mol
# GULP energy per Si atom -12393.958889 kJ/mol
# Density = 1.690696 g / cm^3
# Si number density = 16.945531 Si / 1000 Ang^3
#
#
#
# Elastic Constant Matrix: (Units=GPa)
#
#
# Indices 1 2 3 4 5 6 
#
# 1 88.7907 41.1443 37.4889 0.0000 0.0000 0.0000
# 2 41.1443 104.1633 47.9451 0.0000 0.0000 0.0000
# 3 37.4889 47.9451 64.6413 0.0000 0.0000 0.0000
# 4 0.0000 0.0000 0.0000 6.4936 0.0000 0.0000
# 5 0.0000 0.0000 0.0000 0.0000 24.9937 0.0000
# 6 0.0000 0.0000 0.0000 0.0000 0.0000 24.7658
#
#
#
# Elastic Compliance Matrix: (Units=1/GPa)
#
#
# Indices 1 2 3 4 5 6 
#
# 1 0.015515 -0.003017 -0.006760 0.000000 0.000000 0.000000
# 2 -0.003017 0.015163 -0.009497 0.000000 0.000000 0.000000
# 3 -0.006760 -0.009497 0.026435 0.000000 0.000000 0.000000
# 4 0.000000 0.000000 0.000000 0.153997 0.000000 0.000000
# 5 0.000000 0.000000 0.000000 0.000000 0.040010 0.000000
# 6 0.000000 0.000000 0.000000 0.000000 0.000000 0.040378
#
#
# Mechanical properties :
#
#
# Convention : Reuss Voigt Hill
#
# Bulk Modulus (GPa) = 53.86646 56.75020 55.30833
# Shear Modulus (GPa) = 14.87056 19.98509 17.42783
#
# Velocity S-wave (km/s) = 2.96556 3.43793 3.21044
# Velocity P-wave (km/s) = 6.60175 7.02293 6.81559
#
# Compressibility (1/GPa) = 0.01856443
#
# Stress axis : x y z
#
# Youngs Moduli (GPa) = 64.45556 65.94854 37.82879
#
# Poissons Ratio (x) = 0.19894 0.25573
# Poissons Ratio (y) = 0.19443 0.35927
# Poissons Ratio (z) = 0.43574 0.62634
#
# Static dielectric constant tensor:
#      x y z
#    x 3.236080 0.000000 0.000000 
#    y 0.000000 3.192470 0.000000 
#    z 0.000000 0.000000 3.363110 
# 
# 
# High freq. dielectric constant tensor:
#      x y z
#    x 1.653190 0.000000 0.000000 
#    y 0.000000 1.635320 0.000000 
#    z 0.000000 0.000000 1.638870 
# 
# From -- ./inp_files/59885.got.cif
#   From: 2010.03.12/outbox.cif.g09.slc.cpg/sg63_30_cif.got.tgz:59885.got - 2010.04.10 19:34:48.
