data_PCOD8256589
_publ_section_title
;
Structure prediction by ZEFSAII (Michael W. Deem and Ramdas Pophale) SiO2 
 PCOD8256589
Probable space group: C M C M
;
_chemical_formula_sum "Si O2"
_cell_formula_units_Z 80
_cell_length_a 28.549180
_cell_length_b 22.964692
_cell_length_c 9.130133
_cell_angle_alpha 90.000000
_cell_angle_beta 90.000000
_cell_angle_gamma 90.000000
_cell_volume 5985.926334
_symmetry_space_group_name_H-M "C M C M"
_symmetry_group_IT_number 63
_symmetry_cell_setting 'orthorhombic'
loop_
_space_group_symop_operation_xyz
x,y,z
-x,-y,1/2+z
x,-y,-z
-x,y,1/2-z
-x,-y,-z
x,y,1/2-z
-x,y,z
x,-y,1/2+z
1/2+x,1/2+y,z
1/2-x,1/2-y,1/2+z
1/2+x,1/2-y,-z
1/2-x,1/2+y,1/2-z
1/2-x,1/2-y,-z
1/2+x,1/2+y,1/2-z
1/2-x,1/2+y,z
1/2+x,1/2-y,1/2+z
loop_
_atom_site_type_symbol
_atom_site_label
_atom_site_fract_x
_atom_site_fract_y
_atom_site_fract_z
Si Si1 0.277408 0.939115 0.419550
Si Si2 0.265153 0.340580 0.582677
Si Si3 0.310892 0.770964 0.417083
Si Si4 0.873377 0.370907 0.415017
Si Si5 0.946242 0.558762 0.079408
O O1 0.267733 0.949598 0.250000
O O2 0.235441 0.898339 0.482683
O O3 0.326882 0.908152 0.449806
O O4 0.276883 0.000000 0.500000
O O5 0.259102 0.360678 0.750000
O O6 0.311962 0.299756 0.562899
O O7 0.222819 0.298119 0.538780
O O8 0.293337 0.785732 0.250000
O O9 0.361592 0.802020 0.437289
O O10 0.890489 0.383348 0.250000
O O11 0.914883 0.387712 0.524569
O O12 0.938143 0.549409 0.250000
O O13 0.000000 0.573161 0.041855
O O14 0.929587 0.500000 0.000000
#
# Coordination Sequence:
#
# PCOD8256589 Si02
#       5
#    16  16  16  16  16
#     4  10  19  28  37  52  73  95 121 151 181 213
#     4   9  15  24  38  53  70  92 116 143 176 210
#     4   8  15  26  38  53  71  90 114 144 176 211
#     4   9  17  28  41  55  70  89 116 150 183 215
#     4  10  20  31  41  53  69  90 117 149 185 223
#
# _framework density 13.364680999999999
#
# number of rings (size 3 to 8) (size 9 to 14) (size 15 to 20)
#    0.000    2.800    0.000    3.600    0.000    7.600 
#    0.000    0.000    0.000    0.000    0.000    0.000 
#    0.000    0.000    0.000    0.000    0.000    1.000 
#
# Total GULP energy -495619.872908 kJ/mol
# GULP energy per Si atom -12390.496823 kJ/mol
# Density = 1.333426 g / cm^3
# Si number density = 13.364681 Si / 1000 Ang^3
#
#
#
# Elastic Constant Matrix: (Units=GPa)
#
#
# Indices 1 2 3 4 5 6 
#
# 1 43.9811 34.9103 30.1941 0.0000 0.0000 0.0000
# 2 34.9103 66.6797 42.8814 0.0000 0.0000 0.0000
# 3 30.1941 42.8814 76.8399 0.0000 0.0000 0.0000
# 4 0.0000 0.0000 0.0000 23.0233 0.0000 0.0000
# 5 0.0000 0.0000 0.0000 0.0000 16.9572 0.0000
# 6 0.0000 0.0000 0.0000 0.0000 0.0000 20.0228
#
#
#
# Elastic Compliance Matrix: (Units=1/GPa)
#
#
# Indices 1 2 3 4 5 6 
#
# 1 0.040839 -0.017253 -0.006419 0.000000 0.000000 0.000000
# 2 -0.017253 0.030681 -0.010342 0.000000 0.000000 0.000000
# 3 -0.006419 -0.010342 0.021308 0.000000 0.000000 0.000000
# 4 0.000000 0.000000 0.000000 0.043434 0.000000 0.000000
# 5 0.000000 0.000000 0.000000 0.000000 0.058972 0.000000
# 6 0.000000 0.000000 0.000000 0.000000 0.000000 0.049943
#
#
# Mechanical properties :
#
#
# Convention : Reuss Voigt Hill
#
# Bulk Modulus (GPa) = 40.32473 44.83026 42.57749
# Shear Modulus (GPa) = 15.55340 17.30164 16.42752
#
# Velocity S-wave (km/s) = 3.41511 3.60193 3.50976
# Velocity P-wave (km/s) = 6.76674 7.13549 6.95356
#
# Compressibility (1/GPa) = 0.02479868
#
# Stress axis : x y z
#
# Youngs Moduli (GPa) = 24.48650 32.59342 46.93027
#
# Poissons Ratio (x) = 0.56234 0.30126
# Poissons Ratio (y) = 0.42247 0.48537
# Poissons Ratio (z) = 0.15719 0.33709
#
# Static dielectric constant tensor:
#      x y z
#    x 2.423310 0.000000 0.000000 
#    y 0.000000 2.872780 0.000000 
#    z 0.000000 0.000000 2.798100 
# 
# 
# High freq. dielectric constant tensor:
#      x y z
#    x 1.453050 0.000000 0.000000 
#    y 0.000000 1.502010 0.000000 
#    z 0.000000 0.000000 1.527130 
# 
# From -- ./inp_files/14296.got.cif
#   From: 2010.03.12/outbox.cif.g09.slc.cpg/sg63_8_cif.got.tgz:14296.got - 2010.04.10 19:34:48.
