data_PCOD8256552
_publ_section_title
;
Structure prediction by ZEFSAII (Michael W. Deem and Ramdas Pophale) SiO2 
 PCOD8256552
Probable space group: C M C M
;
_chemical_formula_sum "Si O2"
_cell_formula_units_Z 92
_cell_length_a 11.497053
_cell_length_b 23.754483
_cell_length_c 19.695639
_cell_angle_alpha 90.000000
_cell_angle_beta 90.000000
_cell_angle_gamma 90.000000
_cell_volume 5379.008018
_symmetry_space_group_name_H-M "C M C M"
_symmetry_group_IT_number 63
_symmetry_cell_setting 'orthorhombic'
loop_
_space_group_symop_operation_xyz
x,y,z
-x,-y,1/2+z
x,-y,-z
-x,y,1/2-z
-x,-y,-z
x,y,1/2-z
-x,y,z
x,-y,1/2+z
1/2+x,1/2+y,z
1/2-x,1/2-y,1/2+z
1/2+x,1/2-y,-z
1/2-x,1/2+y,1/2-z
1/2-x,1/2-y,-z
1/2+x,1/2+y,1/2-z
1/2-x,1/2+y,z
1/2+x,1/2-y,1/2+z
loop_
_atom_site_type_symbol
_atom_site_label
_atom_site_fract_x
_atom_site_fract_y
_atom_site_fract_z
Si Si1 0.127932 0.725321 0.174771
Si Si2 0.500000 0.952727 0.250000
Si Si3 0.307159 0.113172 0.112797
Si Si4 0.294818 0.793071 0.408717
Si Si5 0.000000 0.564243 0.480833
Si Si6 0.133867 0.176755 0.029338
Si Si7 0.500000 0.127991 0.621237
Si Si8 0.131309 0.561002 0.250000
O O1 0.161812 0.703778 0.250000
O O2 0.130004 0.673008 0.123435
O O3 0.214516 0.774072 0.153174
O O4 0.000000 0.752005 0.173135
O O5 0.500000 0.916071 0.182271
O O6 0.614674 0.993118 0.250000
O O7 0.384153 0.076584 0.061866
O O8 0.180504 0.128522 0.081498
O O9 0.295897 0.079621 0.183712
O O10 0.215933 0.825946 0.463350
O O11 0.361139 0.739742 0.440802
O O12 0.385559 0.834388 0.373675
O O13 0.000000 0.500000 0.500000
O O14 0.000000 0.599664 0.548496
O O15 0.000000 0.162695 0.011545
O O16 0.000000 0.589156 0.250000
#
# Coordination Sequence:
#
# PCOD8256552 Si02
#       8
#    16   4  16  16   8  16   8   8
#     4  10  19  31  52  82 110 151 192 226 275 338
#     4  10  26  38  60  80 120 146 188 238 308 356
#     4  11  19  33  58  84 116 140 186 247 282 336
#     4  10  21  32  54  78 120 152 187 225 279 355
#     4  12  22  35  59  90 108 139 193 244 297 332
#     4  10  20  35  53  83 115 157 188 226 284 348
#     4  12  22  40  53  87 115 157 179 235 300 346
#     4  10  18  36  56  84 106 144 183 242 299 335
#
# _framework density 17.103525999999999
#
# number of rings (size 3 to 8) (size 9 to 14) (size 15 to 20)
#    0.261    1.217    5.217    1.565    1.217    0.000 
#    0.000    0.435    0.000    0.522    0.000    2.435 
#    0.000    0.000    0.000    0.000    0.000    0.000 
#
# Total GULP energy -570305.761549 kJ/mol
# GULP energy per Si atom -12397.951338 kJ/mol
# Density = 1.706460 g / cm^3
# Si number density = 17.103526 Si / 1000 Ang^3
#
#
#
# Elastic Constant Matrix: (Units=GPa)
#
#
# Indices 1 2 3 4 5 6 
#
# 1 108.7444 48.1577 43.2204 0.0000 0.0000 0.0000
# 2 48.1577 92.5981 43.6841 0.0000 0.0000 0.0000
# 3 43.2204 43.6841 95.8521 0.0000 0.0000 0.0000
# 4 0.0000 0.0000 0.0000 33.1916 0.0000 0.0000
# 5 0.0000 0.0000 0.0000 0.0000 -20.9714 0.0000
# 6 0.0000 0.0000 0.0000 0.0000 0.0000 23.3084
#
#
#
# Elastic Compliance Matrix: (Units=1/GPa)
#
#
# Indices 1 2 3 4 5 6 
#
# 1 0.012802 -0.005012 -0.003488 0.000000 0.000000 0.000000
# 2 -0.005012 0.015720 -0.004904 0.000000 0.000000 0.000000
# 3 -0.003488 -0.004904 0.014241 0.000000 0.000000 0.000000
# 4 0.000000 0.000000 0.000000 0.030128 0.000000 0.000000
# 5 0.000000 0.000000 0.000000 0.000000 -0.047684 0.000000
# 6 0.000000 0.000000 0.000000 0.000000 0.000000 0.042903
#
#
# Mechanical properties :
#
#
# Convention : Reuss Voigt Hill
#
# Bulk Modulus (GPa) = 62.68378 63.03544 62.85961
# Shear Modulus (GPa) = 49.88224 17.91456 33.89840
#
# Velocity S-wave (km/s) = 5.40631 3.23990 4.45674
# Velocity P-wave (km/s) = 8.70058 7.13661 7.95711
#
# Compressibility (1/GPa) = 0.01595309
#
# Stress axis : x y z
#
# Youngs Moduli (GPa) = 78.11297 63.61450 70.22196
#
# Poissons Ratio (x) = 0.31886 0.24494
# Poissons Ratio (y) = 0.39153 0.34437
# Poissons Ratio (z) = 0.27247 0.31197
#
# Static dielectric constant tensor:
#      x y z
#    x 3.080620 0.000000 0.000000 
#    y 0.000000 2.759700 0.000000 
#    z 0.000000 0.000000 3.303800 
# 
# 
# High freq. dielectric constant tensor:
#      x y z
#    x 1.642900 0.000000 0.000000 
#    y 0.000000 1.638310 0.000000 
#    z 0.000000 0.000000 1.670970 
# 
# From -- ./inp_files/42598.got.cif
#   From: 2010.03.12/outbox.cif.g09.slc.cpg/sg63_22_cif.got.tgz:42598.got - 2010.04.10 19:34:48.
