data_PCOD8256886
_publ_section_title
;
Structure prediction by ZEFSAII (Michael W. Deem and Ramdas Pophale) SiO2 
 PCOD8256886
Probable space group: C M C M
;
_chemical_formula_sum "Si O2"
_cell_formula_units_Z 128
_cell_length_a 21.630890
_cell_length_b 21.944320
_cell_length_c 17.355986
_cell_angle_alpha 90.000000
_cell_angle_beta 90.000000
_cell_angle_gamma 90.000000
_cell_volume 8238.455641
_symmetry_space_group_name_H-M "C M C M"
_symmetry_group_IT_number 63
_symmetry_cell_setting 'orthorhombic'
loop_
_space_group_symop_operation_xyz
x,y,z
-x,-y,1/2+z
x,-y,-z
-x,y,1/2-z
-x,-y,-z
x,y,1/2-z
-x,y,z
x,-y,1/2+z
1/2+x,1/2+y,z
1/2-x,1/2-y,1/2+z
1/2+x,1/2-y,-z
1/2-x,1/2+y,1/2-z
1/2-x,1/2-y,-z
1/2+x,1/2+y,1/2-z
1/2-x,1/2+y,z
1/2+x,1/2-y,1/2+z
loop_
_atom_site_type_symbol
_atom_site_label
_atom_site_fract_x
_atom_site_fract_y
_atom_site_fract_z
Si Si1 0.641110 0.578134 0.163544
Si Si2 0.334558 0.755952 0.841564
Si Si3 0.175915 0.563219 0.338775
Si Si4 0.262187 0.658751 0.095684
Si Si5 0.568796 0.429781 0.982279
Si Si6 0.232396 0.965660 0.162521
Si Si7 0.178203 0.861139 0.436919
Si Si8 0.568165 0.856975 0.660400
O O1 0.615895 0.577289 0.250000
O O2 0.679467 0.640029 0.148292
O O3 0.683985 0.519679 0.145642
O O4 0.582163 0.578222 0.108242
O O5 0.333416 0.750290 0.750000
O O6 0.268001 0.779578 0.871759
O O7 0.345013 0.690059 0.878131
O O8 0.389465 0.801118 0.870236
O O9 0.192880 0.582747 0.250000
O O10 0.212298 0.604887 0.399076
O O11 0.197815 0.493183 0.350975
O O12 0.103135 0.577641 0.353542
O O13 0.282975 0.667379 0.007192
O O14 0.500000 0.405439 0.999736
O O15 0.616198 0.393140 0.034603
O O16 0.575233 0.500000 0.000000
O O17 0.225379 0.942158 0.250000
O O18 0.222203 0.909649 0.105683
O O19 0.558343 0.846501 0.750000
O O20 0.500000 0.857909 0.620295
#
# Coordination Sequence:
#
# PCOD8256886 Si02
#       8
#    16  16  16  16  16  16  16  16
#     4   9  16  28  48  65  82 113 154 191 226 267
#     4  10  19  31  45  65  93 118 143 181 224 267
#     4   8  14  25  43  65  87 111 142 182 222 261
#     4   9  17  28  45  65  88 111 146 185 228 264
#     4  10  20  33  44  59  88 121 153 189 225 259
#     4   9  16  27  42  64  90 114 145 184 228 270
#     4  11  20  29  45  65  89 120 153 181 223 279
#     4   8  14  26  44  64  86 114 146 177 211 255
#
# _framework density 15.536892
#
# number of rings (size 3 to 8) (size 9 to 14) (size 15 to 20)
#    0.000    2.750    1.250    3.375    0.000    0.750 
#    0.000    0.000    0.000    1.125    0.000    7.000 
#    0.000    4.000    0.000   10.750    0.000    1.125 
#
# Total GULP energy -793034.539823 kJ/mol
# GULP energy per Si atom -12391.164685 kJ/mol
# Density = 1.550153 g / cm^3
# Si number density = 15.536892 Si / 1000 Ang^3
#
#
#
# Elastic Constant Matrix: (Units=GPa)
#
#
# Indices 1 2 3 4 5 6 
#
# 1 100.8166 47.8972 41.1739 0.0000 0.0000 0.0000
# 2 47.8972 66.8268 35.5633 0.0000 0.0000 0.0000
# 3 41.1739 35.5633 70.2755 0.0000 0.0000 0.0000
# 4 0.0000 0.0000 0.0000 20.6613 0.0000 0.0000
# 5 0.0000 0.0000 0.0000 0.0000 15.6710 0.0000
# 6 0.0000 0.0000 0.0000 0.0000 0.0000 17.2106
#
#
#
# Elastic Compliance Matrix: (Units=1/GPa)
#
#
# Indices 1 2 3 4 5 6 
#
# 1 0.016208 -0.008983 -0.004951 0.000000 0.000000 0.000000
# 2 -0.008983 0.025457 -0.007620 0.000000 0.000000 0.000000
# 3 -0.004951 -0.007620 0.020986 0.000000 0.000000 0.000000
# 4 0.000000 0.000000 0.000000 0.048400 0.000000 0.000000
# 5 0.000000 0.000000 0.000000 0.000000 0.063812 0.000000
# 6 0.000000 0.000000 0.000000 0.000000 0.000000 0.058104
#
#
# Mechanical properties :
#
#
# Convention : Reuss Voigt Hill
#
# Bulk Modulus (GPa) = 51.16231 54.13195 52.64713
# Shear Modulus (GPa) = 17.69349 18.26087 17.97718
#
# Velocity S-wave (km/s) = 3.37828 3.43202 3.40525
# Velocity P-wave (km/s) = 6.94392 7.11488 7.02992
#
# Compressibility (1/GPa) = 0.01954564
#
# Stress axis : x y z
#
# Youngs Moduli (GPa) = 61.69626 39.28139 47.64976
#
# Poissons Ratio (x) = 0.35285 0.23590
# Poissons Ratio (y) = 0.55419 0.36309
# Poissons Ratio (z) = 0.30544 0.29933
#
# Static dielectric constant tensor:
#      x y z
#    x 3.102600 0.000000 0.000000 
#    y 0.000000 2.828300 0.000000 
#    z 0.000000 0.000000 2.887140 
# 
# 
# High freq. dielectric constant tensor:
#      x y z
#    x 1.582440 0.000000 0.000000 
#    y 0.000000 1.575420 0.000000 
#    z 0.000000 0.000000 1.587830 
# 
# From -- ./inp_files/47605.got.cif
#   From: 2010.03.12/outbox.cif.g09.slc.cpg/sg63_24_cif.got.tgz:47605.got - 2010.04.10 19:34:48.
