data_PCOD8256431
_publ_section_title
;
Structure prediction by ZEFSAII (Michael W. Deem and Ramdas Pophale) SiO2 
 PCOD8256431
Probable space group: C M C M
;
_chemical_formula_sum "Si O2"
_cell_formula_units_Z 88
_cell_length_a 28.816614
_cell_length_b 10.508057
_cell_length_c 15.533804
_cell_angle_alpha 90.000000
_cell_angle_beta 90.000000
_cell_angle_gamma 90.000000
_cell_volume 4703.738723
_symmetry_space_group_name_H-M "C M C M"
_symmetry_group_IT_number 63
_symmetry_cell_setting 'orthorhombic'
loop_
_space_group_symop_operation_xyz
x,y,z
-x,-y,1/2+z
x,-y,-z
-x,y,1/2-z
-x,-y,-z
x,y,1/2-z
-x,y,z
x,-y,1/2+z
1/2+x,1/2+y,z
1/2-x,1/2-y,1/2+z
1/2+x,1/2-y,-z
1/2-x,1/2+y,1/2-z
1/2-x,1/2-y,-z
1/2+x,1/2+y,1/2-z
1/2-x,1/2+y,z
1/2+x,1/2-y,1/2+z
loop_
_atom_site_type_symbol
_atom_site_label
_atom_site_fract_x
_atom_site_fract_y
_atom_site_fract_z
Si Si1 0.873543 0.718228 0.601669
Si Si2 0.738249 0.125363 0.250000
Si Si3 0.154238 0.177270 0.750000
Si Si4 0.552996 0.008986 0.650252
Si Si5 0.841049 0.880728 0.750000
Si Si6 0.197388 0.505286 0.906575
Si Si7 0.884154 0.696835 0.411561
O O1 0.917070 0.631869 0.626885
O O2 0.869877 0.837882 0.665675
O O3 0.824684 0.643387 0.611050
O O4 0.881936 0.767395 0.503923
O O5 0.701339 0.239991 0.250000
O O6 0.789814 0.182692 0.250000
O O7 0.733348 0.034069 0.166805
O O8 0.123222 0.203698 0.834523
O O9 0.167047 0.030573 0.750000
O O10 0.560422 0.977181 0.750000
O O11 0.500000 0.039922 0.627298
O O12 0.568001 0.882028 0.598307
O O13 0.155350 0.408034 0.907855
O O14 0.222849 0.500000 0.000000
#
# Coordination Sequence:
#
# PCOD8256431 Si02
#       7
#    16   8   8  16   8  16  16
#     4  10  20  35  56  83 117 145 178 230 287 335
#     4  10  21  36  55  76 104 143 189 245 281 323
#     4  10  22  40  54  77 108 153 199 228 273 338
#     4  10  18  32  63  98 118 139 177 229 282 336
#     4  12  25  36  53  79 106 154 192 229 284 335
#     4   8  16  33  56  79 103 138 177 230 290 328
#     4   9  18  36  58  80 114 149 177 224 281 335
#
# _framework density 18.708521000000001
#
# number of rings (size 3 to 8) (size 9 to 14) (size 15 to 20)
#    0.000    2.364    1.818    2.182    5.091    2.182 
#    3.273    2.727    0.000    2.182    0.000    2.545 
#    0.000    0.000    0.000    0.000    0.000    0.000 
#
# Total GULP energy -545452.592219 kJ/mol
# GULP energy per Si atom -12396.649823 kJ/mol
# Density = 1.866594 g / cm^3
# Si number density = 18.708521 Si / 1000 Ang^3
#
#
#
# Elastic Constant Matrix: (Units=GPa)
#
#
# Indices 1 2 3 4 5 6 
#
# 1 81.0919 24.8942 44.4785 0.0000 0.0000 0.0000
# 2 24.8942 77.3839 48.4160 0.0000 0.0000 0.0000
# 3 44.4785 48.4160 164.5289 0.0000 0.0000 0.0000
# 4 0.0000 0.0000 0.0000 11.4899 0.0000 0.0000
# 5 0.0000 0.0000 0.0000 0.0000 11.4388 0.0000
# 6 0.0000 0.0000 0.0000 0.0000 0.0000 18.5870
#
#
#
# Elastic Compliance Matrix: (Units=1/GPa)
#
#
# Indices 1 2 3 4 5 6 
#
# 1 0.014957 -0.002797 -0.003220 0.000000 0.000000 0.000000
# 2 -0.002797 0.016362 -0.004059 0.000000 0.000000 0.000000
# 3 -0.003220 -0.004059 0.008143 0.000000 0.000000 0.000000
# 4 0.000000 0.000000 0.000000 0.087033 0.000000 0.000000
# 5 0.000000 0.000000 0.000000 0.000000 0.087422 0.000000
# 6 0.000000 0.000000 0.000000 0.000000 0.000000 0.053801
#
#
# Mechanical properties :
#
#
# Convention : Reuss Voigt Hill
#
# Bulk Modulus (GPa) = 51.78748 62.06467 56.92608
# Shear Modulus (GPa) = 16.98920 21.98421 19.48670
#
# Velocity S-wave (km/s) = 3.01674 3.43168 3.23088
# Velocity P-wave (km/s) = 6.31471 6.99632 6.66423
#
# Compressibility (1/GPa) = 0.01930969
#
# Stress axis : x y z
#
# Youngs Moduli (GPa) = 66.86016 61.11865 122.80627
#
# Poissons Ratio (x) = 0.17093 0.39548
# Poissons Ratio (y) = 0.18698 0.49843
# Poissons Ratio (z) = 0.21531 0.24806
#
# Static dielectric constant tensor:
#      x y z
#    x 3.189730 0.000000 0.000000 
#    y 0.000000 3.077250 0.000000 
#    z 0.000000 0.000000 4.148300 
# 
# 
# High freq. dielectric constant tensor:
#      x y z
#    x 1.698930 0.000000 0.000000 
#    y 0.000000 1.689160 0.000000 
#    z 0.000000 0.000000 1.751520 
# 
# From -- ./inp_files/37816.got.cif
#   From: 2010.03.12/outbox.cif.g09.slc.cpg/sg63_19_cif.got.tgz:37816.got - 2010.04.10 19:34:48.
