data_PCOD8256525
_publ_section_title
;
Structure prediction by ZEFSAII (Michael W. Deem and Ramdas Pophale) SiO2 
 PCOD8256525
Probable space group: C M C M
;
_chemical_formula_sum "Si O2"
_cell_formula_units_Z 96
_cell_length_a 13.595880
_cell_length_b 20.590752
_cell_length_c 15.353767
_cell_angle_alpha 90.000000
_cell_angle_beta 90.000000
_cell_angle_gamma 90.000000
_cell_volume 4298.277757
_symmetry_space_group_name_H-M "C M C M"
_symmetry_group_IT_number 63
_symmetry_cell_setting 'orthorhombic'
loop_
_space_group_symop_operation_xyz
x,y,z
-x,-y,1/2+z
x,-y,-z
-x,y,1/2-z
-x,-y,-z
x,y,1/2-z
-x,y,z
x,-y,1/2+z
1/2+x,1/2+y,z
1/2-x,1/2-y,1/2+z
1/2+x,1/2-y,-z
1/2-x,1/2+y,1/2-z
1/2-x,1/2-y,-z
1/2+x,1/2+y,1/2-z
1/2-x,1/2+y,z
1/2+x,1/2-y,1/2+z
loop_
_atom_site_type_symbol
_atom_site_label
_atom_site_fract_x
_atom_site_fract_y
_atom_site_fract_z
Si Si1 0.886224 0.423296 0.005515
Si Si2 0.890316 0.197184 0.405090
Si Si3 0.610309 0.506232 0.599111
Si Si4 0.107923 0.156507 0.603248
Si Si5 0.815852 0.668953 0.650835
Si Si6 0.756938 0.401588 0.843942
O O1 0.837276 0.393360 0.919371
O O2 0.000000 0.403197 0.007092
O O3 0.871912 0.500000 0.000000
O O4 0.834224 0.396113 0.093338
O O5 0.875096 0.170090 0.501892
O O6 0.873973 0.274206 0.398301
O O7 0.813708 0.160908 0.343765
O O8 0.000000 0.181603 0.373116
O O9 0.643831 0.500000 0.500000
O O10 0.500000 0.477298 0.611939
O O11 0.611320 0.580747 0.626756
O O12 0.689591 0.465917 0.652917
O O13 0.199538 0.187720 0.654357
O O14 0.000000 0.184127 0.631953
O O15 0.853880 0.658970 0.750000
O O16 0.811079 0.402925 0.750000
#
# Coordination Sequence:
#
# PCOD8256525 Si02
#       6
#    16  16  16  16  16  16
#     4  11  26  47  68  93 127 169 225 285 337 393
#     4  11  23  42  67  96 133 174 217 268 326 392
#     4  10  18  34  60  92 130 169 209 258 321 387
#     4  10  21  38  66  97 130 172 214 263 322 385
#     4  12  25  44  70  98 133 175 221 272 331 399
#     4  12  24  39  64  98 136 175 219 273 331 392
#
# _framework density 22.334527000000001
#
# number of rings (size 3 to 8) (size 9 to 14) (size 15 to 20)
#    0.000    1.000    3.333    3.500    0.000    6.667 
#    0.000    3.333    0.000    2.000    0.000    0.000 
#    0.000    0.000    0.000    0.000    0.000    0.000 
#
# Total GULP energy -595139.660552 kJ/mol
# GULP energy per Si atom -12398.742928 kJ/mol
# Density = 2.228369 g / cm^3
# Si number density = 22.334527 Si / 1000 Ang^3
#
#
#
# Elastic Constant Matrix: (Units=GPa)
#
#
# Indices 1 2 3 4 5 6 
#
# 1 120.5482 20.0963 44.3014 0.0000 0.0000 0.0000
# 2 20.0963 86.2837 35.8634 0.0000 0.0000 0.0000
# 3 44.3014 35.8634 109.2518 0.0000 0.0000 0.0000
# 4 0.0000 0.0000 0.0000 12.2282 0.0000 0.0000
# 5 0.0000 0.0000 0.0000 0.0000 -17.5870 0.0000
# 6 0.0000 0.0000 0.0000 0.0000 0.0000 28.4303
#
#
#
# Elastic Compliance Matrix: (Units=1/GPa)
#
#
# Indices 1 2 3 4 5 6 
#
# 1 0.009788 -0.000730 -0.003729 0.000000 0.000000 0.000000
# 2 -0.000730 0.013475 -0.004128 0.000000 0.000000 0.000000
# 3 -0.003729 -0.004128 0.012020 0.000000 0.000000 0.000000
# 4 0.000000 0.000000 0.000000 0.081778 0.000000 0.000000
# 5 0.000000 0.000000 0.000000 0.000000 -0.056860 0.000000
# 6 0.000000 0.000000 0.000000 0.000000 0.000000 0.035174
#
#
# Mechanical properties :
#
#
# Convention : Reuss Voigt Hill
#
# Bulk Modulus (GPa) = 55.21762 57.40065 56.30913
# Shear Modulus (GPa) = 42.16397 19.00248 30.58322
#
# Velocity S-wave (km/s) = 4.34964 2.92003 3.70445
# Velocity P-wave (km/s) = 7.07124 6.09303 6.60028
#
# Compressibility (1/GPa) = 0.01811016
#
# Stress axis : x y z
#
# Youngs Moduli (GPa) = 102.17008 74.21040 83.19213
#
# Poissons Ratio (x) = 0.05414 0.31025
# Poissons Ratio (y) = 0.07454 0.34338
# Poissons Ratio (z) = 0.38103 0.30631
#
# Static dielectric constant tensor:
#      x y z
#    x 4.322850 0.000000 0.000000 
#    y 0.000000 3.978410 0.000000 
#    z 0.000000 0.000000 3.803100 
# 
# 
# High freq. dielectric constant tensor:
#      x y z
#    x 1.887780 0.000000 0.000000 
#    y 0.000000 1.871260 0.000000 
#    z 0.000000 0.000000 1.865540 
# 
# From -- ./inp_files/31892.got.cif
#   From: 2010.03.12/outbox.cif.g09.slc.cpg/sg63_16_cif.got.tgz:31892.got - 2010.04.10 19:34:48.
