data_PCOD8256608
_publ_section_title
;
Structure prediction by ZEFSAII (Michael W. Deem and Ramdas Pophale) SiO2 
 PCOD8256608
Probable space group: C M C M
;
_chemical_formula_sum "Si O2"
_cell_formula_units_Z 64
_cell_length_a 22.529844
_cell_length_b 9.057729
_cell_length_c 13.418660
_cell_angle_alpha 90.000000
_cell_angle_beta 90.000000
_cell_angle_gamma 90.000000
_cell_volume 2738.335498
_symmetry_space_group_name_H-M "C M C M"
_symmetry_group_IT_number 63
_symmetry_cell_setting 'orthorhombic'
loop_
_space_group_symop_operation_xyz
x,y,z
-x,-y,1/2+z
x,-y,-z
-x,y,1/2-z
-x,-y,-z
x,y,1/2-z
-x,y,z
x,-y,1/2+z
1/2+x,1/2+y,z
1/2-x,1/2-y,1/2+z
1/2+x,1/2-y,-z
1/2-x,1/2+y,1/2-z
1/2-x,1/2-y,-z
1/2+x,1/2+y,1/2-z
1/2-x,1/2+y,z
1/2+x,1/2-y,1/2+z
loop_
_atom_site_type_symbol
_atom_site_label
_atom_site_fract_x
_atom_site_fract_y
_atom_site_fract_z
Si Si1 0.770253 0.595955 0.132696
Si Si2 0.567519 0.236858 0.040114
Si Si3 0.610973 0.946367 0.364750
Si Si4 0.670795 0.608854 0.868938
O O1 0.767140 0.606490 0.250000
O O2 0.820448 0.474595 0.104832
O O3 0.705555 0.539168 0.094855
O O4 0.787687 0.756229 0.092153
O O5 0.500000 0.291318 0.040921
O O6 0.606918 0.375371 0.078275
O O7 0.574838 0.096853 0.113690
O O8 0.586103 0.189734 0.928499
O O9 0.603523 0.902233 0.250000
O O10 0.661744 0.612930 0.750000
#
# Coordination Sequence:
#
# PCOD8256608 Si02
#       4
#    16  16  16  16
#     4   8  15  28  46  69  96 124 156 196 243 284
#     4  10  19  28  43  69  96 125 159 192 235 286
#     4   9  17  29  44  64  93 124 155 196 239 279
#     4   9  17  30  48  72 100 126 157 198 238 283
#
# _framework density 23.371862
#
# number of rings (size 3 to 8) (size 9 to 14) (size 15 to 20)
#    0.000    3.000    0.000    3.750    0.000    4.500 
#    0.000    0.000    0.000    0.000    0.000   10.500 
#    0.000   50.000    0.000    0.000    0.000    5.000 
#
# Total GULP energy -396643.094705 kJ/mol
# GULP energy per Si atom -12395.096710 kJ/mol
# Density = 2.331867 g / cm^3
# Si number density = 23.371862 Si / 1000 Ang^3
#
#
#
# Elastic Constant Matrix: (Units=GPa)
#
#
# Indices 1 2 3 4 5 6 
#
# 1 134.2445 23.6991 16.0841 0.0000 0.0000 0.0000
# 2 23.6991 34.3642 5.4032 0.0000 0.0000 0.0000
# 3 16.0841 5.4032 82.2143 0.0000 0.0000 0.0000
# 4 0.0000 0.0000 0.0000 12.6701 0.0000 0.0000
# 5 0.0000 0.0000 0.0000 0.0000 25.7319 0.0000
# 6 0.0000 0.0000 0.0000 0.0000 0.0000 28.0478
#
#
#
# Elastic Compliance Matrix: (Units=1/GPa)
#
#
# Indices 1 2 3 4 5 6 
#
# 1 0.008619 -0.005738 -0.001309 0.000000 0.000000 0.000000
# 2 -0.005738 0.033224 -0.001061 0.000000 0.000000 0.000000
# 3 -0.001309 -0.001061 0.012489 0.000000 0.000000 0.000000
# 4 0.000000 0.000000 0.000000 0.078926 0.000000 0.000000
# 5 0.000000 0.000000 0.000000 0.000000 0.038862 0.000000
# 6 0.000000 0.000000 0.000000 0.000000 0.000000 0.035653
#
#
# Mechanical properties :
#
#
# Convention : Reuss Voigt Hill
#
# Bulk Modulus (GPa) = 26.23572 37.91064 32.07318
# Shear Modulus (GPa) = 21.12417 26.99905 24.06161
#
# Velocity S-wave (km/s) = 3.00964 3.40250 3.21208
# Velocity P-wave (km/s) = 4.82980 5.62955 5.24494
#
# Compressibility (1/GPa) = 0.03811597
#
# Stress axis : x y z
#
# Youngs Moduli (GPa) = 116.02361 30.09856 80.06940
#
# Poissons Ratio (x) = 0.17271 0.10482
# Poissons Ratio (y) = 0.66576 0.08495
# Poissons Ratio (z) = 0.15188 0.03193
#
# Static dielectric constant tensor:
#      x y z
#    x 4.273070 0.000000 0.000000 
#    y 0.000000 3.908410 0.000000 
#    z 0.000000 0.000000 4.189170 
# 
# 
# High freq. dielectric constant tensor:
#      x y z
#    x 1.911410 0.000000 0.000000 
#    y 0.000000 1.885020 0.000000 
#    z 0.000000 0.000000 1.934530 
# 
# From -- ./inp_files/34908.got.cif
#   From: 2010.03.12/outbox.cif.g09.slc.cpg/sg63_18_cif.got.tgz:34908.got - 2010.04.10 19:34:48.
