data_PCOD8256049
_publ_section_title
;
Structure prediction by ZEFSAII (Michael W. Deem and Ramdas Pophale) SiO2 
 PCOD8256049
Probable space group: C M C M
;
_chemical_formula_sum "Si O2"
_cell_formula_units_Z 112
_cell_length_a 12.763510
_cell_length_b 28.373500
_cell_length_c 18.920166
_cell_angle_alpha 90.000000
_cell_angle_beta 90.000000
_cell_angle_gamma 90.000000
_cell_volume 6851.852049
_symmetry_space_group_name_H-M "C M C M"
_symmetry_group_IT_number 63
_symmetry_cell_setting 'orthorhombic'
loop_
_space_group_symop_operation_xyz
x,y,z
-x,-y,1/2+z
x,-y,-z
-x,y,1/2-z
-x,-y,-z
x,y,1/2-z
-x,y,z
x,-y,1/2+z
1/2+x,1/2+y,z
1/2-x,1/2-y,1/2+z
1/2+x,1/2-y,-z
1/2-x,1/2+y,1/2-z
1/2-x,1/2-y,-z
1/2+x,1/2+y,1/2-z
1/2-x,1/2+y,z
1/2+x,1/2-y,1/2+z
loop_
_atom_site_type_symbol
_atom_site_label
_atom_site_fract_x
_atom_site_fract_y
_atom_site_fract_z
Si Si1 0.124409 0.485868 0.329918
Si Si2 0.877621 0.786603 0.938097
Si Si3 0.766042 0.329921 0.668397
Si Si4 0.115584 0.235766 0.830981
Si Si5 0.121617 0.592779 0.562812
Si Si6 0.378060 0.082528 0.400035
Si Si7 0.233919 0.309456 0.064517
O O1 0.167151 0.478535 0.250000
O O2 0.168102 0.445304 0.381909
O O3 0.161691 0.536227 0.359363
O O4 0.000000 0.484471 0.330808
O O5 0.842662 0.809663 0.863594
O O6 0.854657 0.730794 0.943381
O O7 0.000000 0.795599 0.950011
O O8 0.808191 0.812917 0.996568
O O9 0.746321 0.342447 0.750000
O O10 0.854097 0.290140 0.658435
O O11 0.806364 0.375206 0.626877
O O12 0.116781 0.221192 0.750000
O O13 0.195068 0.200662 0.867980
O O14 0.000000 0.229627 0.863953
O O15 0.139697 0.574459 0.483317
O O16 0.178925 0.641407 0.577378
O O17 0.000000 0.601252 0.577527
O O18 0.500000 0.093422 0.383565
#
# Coordination Sequence:
#
# PCOD8256049 Si02
#       7
#    16  16  16  16  16  16  16
#     4   9  18  31  47  70 100 131 161 195 239 290
#     4  10  20  33  48  69  98 130 165 202 239 283
#     4  10  19  31  48  72  98 127 163 200 244 294
#     4   9  18  31  47  70  99 128 161 203 242 278
#     4  10  19  31  48  72 101 131 163 198 239 289
#     4  10  18  30  49  73 101 130 159 197 243 291
#     4  10  19  32  49  71  95 132 166 198 235 287
#
# _framework density 16.345945
#
# number of rings (size 3 to 8) (size 9 to 14) (size 15 to 20)
#    0.000    2.286    1.429    2.143    0.000    4.000 
#    0.000    0.000    0.000    2.571    0.000    3.000 
#    0.000    2.286    0.000    0.000    0.000    0.000 
#
# Total GULP energy -694371.118056 kJ/mol
# GULP energy per Si atom -12399.484251 kJ/mol
# Density = 1.630874 g / cm^3
# Si number density = 16.345945 Si / 1000 Ang^3
#
#
#
# Elastic Constant Matrix: (Units=GPa)
#
#
# Indices 1 2 3 4 5 6 
#
# 1 66.1865 34.8661 34.6670 0.0000 0.0000 0.0000
# 2 34.8661 95.6401 52.5569 0.0000 0.0000 0.0000
# 3 34.6670 52.5569 105.1086 0.0000 0.0000 0.0000
# 4 0.0000 0.0000 0.0000 29.0500 0.0000 0.0000
# 5 0.0000 0.0000 0.0000 0.0000 15.7935 0.0000
# 6 0.0000 0.0000 0.0000 0.0000 0.0000 20.4861
#
#
#
# Elastic Compliance Matrix: (Units=1/GPa)
#
#
# Indices 1 2 3 4 5 6 
#
# 1 0.019872 -0.005023 -0.004043 0.000000 0.000000 0.000000
# 2 -0.005023 0.015687 -0.006187 0.000000 0.000000 0.000000
# 3 -0.004043 -0.006187 0.013941 0.000000 0.000000 0.000000
# 4 0.000000 0.000000 0.000000 0.034423 0.000000 0.000000
# 5 0.000000 0.000000 0.000000 0.000000 0.063317 0.000000
# 6 0.000000 0.000000 0.000000 0.000000 0.000000 0.048813
#
#
# Mechanical properties :
#
#
# Convention : Reuss Voigt Hill
#
# Bulk Modulus (GPa) = 52.64633 56.79057 54.71845
# Shear Modulus (GPa) = 21.46917 22.72227 22.09572
#
# Velocity S-wave (km/s) = 3.62805 3.73243 3.68061
# Velocity P-wave (km/s) = 7.05888 7.30705 7.18404
#
# Compressibility (1/GPa) = 0.01899467
#
# Stress axis : x y z
#
# Youngs Moduli (GPa) = 50.32127 63.74673 71.73033
#
# Poissons Ratio (x) = 0.32020 0.28998
# Poissons Ratio (y) = 0.25276 0.44381
# Poissons Ratio (z) = 0.20343 0.39442
#
# Static dielectric constant tensor:
#      x y z
#    x 2.846440 0.000000 0.000000 
#    y 0.000000 3.017310 0.000000 
#    z 0.000000 0.000000 3.374650 
# 
# 
# High freq. dielectric constant tensor:
#      x y z
#    x 1.594860 0.000000 0.000000 
#    y 0.000000 1.622370 0.000000 
#    z 0.000000 0.000000 1.645760 
# 
# From -- ./inp_files/53145.got.cif
#   From: 2010.03.12/outbox.cif.g09.slc.cpg/sg63_27_cif.got.tgz:53145.got - 2010.04.10 19:34:48.
