data_PCOD8256824
_publ_section_title
;
Structure prediction by ZEFSAII (Michael W. Deem and Ramdas Pophale) SiO2 
 PCOD8256824
Probable space group: C M C M
;
_chemical_formula_sum "Si O2"
_cell_formula_units_Z 104
_cell_length_a 7.659421
_cell_length_b 27.422137
_cell_length_c 30.132357
_cell_angle_alpha 90.000000
_cell_angle_beta 90.000000
_cell_angle_gamma 90.000000
_cell_volume 6328.930719
_symmetry_space_group_name_H-M "C M C M"
_symmetry_group_IT_number 63
_symmetry_cell_setting 'orthorhombic'
loop_
_space_group_symop_operation_xyz
x,y,z
-x,-y,1/2+z
x,-y,-z
-x,y,1/2-z
-x,-y,-z
x,y,1/2-z
-x,y,z
x,-y,1/2+z
1/2+x,1/2+y,z
1/2-x,1/2-y,1/2+z
1/2+x,1/2-y,-z
1/2-x,1/2+y,1/2-z
1/2-x,1/2-y,-z
1/2+x,1/2+y,1/2-z
1/2-x,1/2+y,z
1/2+x,1/2-y,1/2+z
loop_
_atom_site_type_symbol
_atom_site_label
_atom_site_fract_x
_atom_site_fract_y
_atom_site_fract_z
Si Si1 0.000000 0.407054 0.700196
Si Si2 0.000000 0.534706 0.543564
Si Si3 0.805906 0.214421 0.960709
Si Si4 0.198551 0.108516 0.527655
Si Si5 0.000000 0.453345 0.887872
Si Si6 0.200942 0.170768 0.200501
Si Si7 0.304079 0.611519 0.076599
Si Si8 0.298653 0.284692 0.888950
O O1 0.173145 0.374822 0.691844
O O2 0.000000 0.428301 0.750000
O O3 0.000000 0.452550 0.666082
O O4 0.000000 0.500000 0.500000
O O5 0.174928 0.566778 0.545844
O O6 0.000000 0.506288 0.590295
O O7 0.714655 0.161257 0.959404
O O8 0.798853 0.239943 0.912526
O O9 0.000000 0.199621 0.973114
O O10 0.750000 0.250000 0.000000
O O11 0.197204 0.104324 0.475265
O O12 0.000000 0.100623 0.546169
O O13 0.176091 0.427342 0.902685
O O14 0.233035 0.192274 0.250000
O O15 0.240702 0.212968 0.164051
O O16 0.000000 0.153032 0.194881
O O17 0.500000 0.604167 0.095856
O O18 0.234309 0.665142 0.089017
O O19 0.500000 0.275850 0.899315
#
# Coordination Sequence:
#
# PCOD8256824 Si02
#       8
#     8   8  16  16   8  16  16  16
#     4  10  20  32  52  76 104 134 166 212 261 306
#     4  12  24  36  54  76  96 138 178 214 267 300
#     4  11  22  31  49  73 100 140 176 209 254 295
#     4  10  22  38  49  70 106 136 174 217 249 296
#     4  12  22  34  52  78  98 138 174 208 261 306
#     4   9  18  32  49  72 105 139 165 201 252 310
#     4  10  19  31  49  72 105 132 169 212 243 299
#     4  10  19  30  47  75 102 138 171 199 250 302
#
# _framework density 16.432475
#
# number of rings (size 3 to 8) (size 9 to 14) (size 15 to 20)
#    0.000    1.692    4.615    0.462    4.308    0.923 
#    0.000    0.000    0.000    0.000    0.000    1.077 
#    0.000    1.231    0.000    0.000    0.000    0.000 
#
# Total GULP energy -644408.834245 kJ/mol
# GULP energy per Si atom -12392.477582 kJ/mol
# Density = 1.639507 g / cm^3
# Si number density = 16.432475 Si / 1000 Ang^3
#
#
#
# Elastic Constant Matrix: (Units=GPa)
#
#
# Indices 1 2 3 4 5 6 
#
# 1 77.3172 41.7544 27.1518 0.0000 0.0000 0.0000
# 2 41.7544 101.0217 48.9897 0.0000 0.0000 0.0000
# 3 27.1518 48.9897 112.0178 0.0000 0.0000 0.0000
# 4 0.0000 0.0000 0.0000 18.3348 0.0000 0.0000
# 5 0.0000 0.0000 0.0000 0.0000 16.3673 0.0000
# 6 0.0000 0.0000 0.0000 0.0000 0.0000 23.7052
#
#
#
# Elastic Compliance Matrix: (Units=1/GPa)
#
#
# Indices 1 2 3 4 5 6 
#
# 1 0.016801 -0.006307 -0.001314 0.000000 0.000000 0.000000
# 2 -0.006307 0.014931 -0.005001 0.000000 0.000000 0.000000
# 3 -0.001314 -0.005001 0.011433 0.000000 0.000000 0.000000
# 4 0.000000 0.000000 0.000000 0.054541 0.000000 0.000000
# 5 0.000000 0.000000 0.000000 0.000000 0.061097 0.000000
# 6 0.000000 0.000000 0.000000 0.000000 0.000000 0.042185
#
#
# Mechanical properties :
#
#
# Convention : Reuss Voigt Hill
#
# Bulk Modulus (GPa) = 55.80196 58.46092 57.13144
# Shear Modulus (GPa) = 21.53255 23.17885 22.35570
#
# Velocity S-wave (km/s) = 3.62382 3.75980 3.69244
# Velocity P-wave (km/s) = 7.17924 7.38254 7.28160
#
# Compressibility (1/GPa) = 0.01792052
#
# Stress axis : x y z
#
# Youngs Moduli (GPa) = 59.51933 66.97498 87.46713
#
# Poissons Ratio (x) = 0.42241 0.11494
# Poissons Ratio (y) = 0.37539 0.43743
# Poissons Ratio (z) = 0.07822 0.33495
#
# Static dielectric constant tensor:
#      x y z
#    x 3.333850 0.000000 0.000000 
#    y 0.000000 3.176750 0.000000 
#    z 0.000000 0.000000 3.246100 
# 
# 
# High freq. dielectric constant tensor:
#      x y z
#    x 1.650510 0.000000 0.000000 
#    y 0.000000 1.595130 0.000000 
#    z 0.000000 0.000000 1.621470 
# 
# From -- ./inp_files/72024.got.cif
#   From: 2010.03.12/outbox.cif.g09.slc.cpg/sg63_37_cif.got.tgz:72024.got - 2010.04.10 19:34:48.
