data_PCOD8256284
_publ_section_title
;
Structure prediction by ZEFSAII (Michael W. Deem and Ramdas Pophale) SiO2 
 PCOD8256284
Probable space group: C M C M
;
_chemical_formula_sum "Si O2"
_cell_formula_units_Z 128
_cell_length_a 15.443095
_cell_length_b 22.676048
_cell_length_c 19.932192
_cell_angle_alpha 90.000000
_cell_angle_beta 90.000000
_cell_angle_gamma 90.000000
_cell_volume 6980.021697
_symmetry_space_group_name_H-M "C M C M"
_symmetry_group_IT_number 63
_symmetry_cell_setting 'orthorhombic'
loop_
_space_group_symop_operation_xyz
x,y,z
-x,-y,1/2+z
x,-y,-z
-x,y,1/2-z
-x,-y,-z
x,y,1/2-z
-x,y,z
x,-y,1/2+z
1/2+x,1/2+y,z
1/2-x,1/2-y,1/2+z
1/2+x,1/2-y,-z
1/2-x,1/2+y,1/2-z
1/2-x,1/2-y,-z
1/2+x,1/2+y,1/2-z
1/2-x,1/2+y,z
1/2+x,1/2-y,1/2+z
loop_
_atom_site_type_symbol
_atom_site_label
_atom_site_fract_x
_atom_site_fract_y
_atom_site_fract_z
Si Si1 0.648827 0.742649 0.574806
Si Si2 0.600538 0.638314 0.828940
Si Si3 0.665471 0.297437 0.569261
Si Si4 0.406834 0.869420 0.550526
Si Si5 0.730958 0.422906 0.940106
Si Si6 0.273915 0.449085 0.094566
Si Si7 0.901319 0.278896 0.321908
Si Si8 0.900855 0.391413 0.397071
O O1 0.622989 0.700318 0.635851
O O2 0.624954 0.710505 0.504664
O O3 0.750235 0.756478 0.576665
O O4 0.598241 0.804147 0.581975
O O5 0.618217 0.645548 0.750000
O O6 0.500000 0.622015 0.842607
O O7 0.661836 0.586281 0.856959
O O8 0.679644 0.366103 0.585657
O O9 0.602341 0.275760 0.627382
O O10 0.500000 0.896856 0.570563
O O11 0.332733 0.913295 0.576054
O O12 0.398757 0.862929 0.470672
O O13 0.702083 0.481536 0.900535
O O14 0.712330 0.427310 0.018973
O O15 0.171025 0.442693 0.111864
O O16 0.856540 0.263913 0.250000
O O17 0.862608 0.339646 0.350432
O O18 0.000000 0.293455 0.309725
O O19 0.000000 0.413019 0.380401
#
# Coordination Sequence:
#
# PCOD8256284 Si02
#       8
#    16  16  16  16  16  16  16  16
#     4  10  18  31  55  80 107 139 174 216 273 329
#     4  11  24  39  56  79 105 141 190 236 278 320
#     4  10  18  32  52  79 107 139 176 218 267 325
#     4   9  16  28  50  81 112 137 164 207 262 322
#     4   9  19  33  52  76 103 137 179 216 261 321
#     4  10  19  36  54  73 106 141 177 227 267 305
#     4  10  20  32  48  75 109 140 172 214 266 325
#     4   9  17  29  50  80 110 141 173 208 263 326
#
# _framework density 18.338051
#
# number of rings (size 3 to 8) (size 9 to 14) (size 15 to 20)
#    0.000    2.250    2.500    1.125    0.000    3.000 
#    0.000    5.000    0.000    2.250    0.000    0.000 
#    0.000    2.000    0.000    0.000    0.000    0.000 
#
# Total GULP energy -793109.972557 kJ/mol
# GULP energy per Si atom -12392.343321 kJ/mol
# Density = 1.829631 g / cm^3
# Si number density = 18.338051 Si / 1000 Ang^3
#
#
#
# Elastic Constant Matrix: (Units=GPa)
#
#
# Indices 1 2 3 4 5 6 
#
# 1 56.1038 23.3257 21.6480 0.0000 0.0000 0.0000
# 2 23.3257 99.4111 46.6313 0.0000 0.0000 0.0000
# 3 21.6480 46.6313 82.9570 0.0000 0.0000 0.0000
# 4 0.0000 0.0000 0.0000 20.7125 0.0000 0.0000
# 5 0.0000 0.0000 0.0000 0.0000 20.4777 0.0000
# 6 0.0000 0.0000 0.0000 0.0000 0.0000 17.3969
#
#
#
# Elastic Compliance Matrix: (Units=1/GPa)
#
#
# Indices 1 2 3 4 5 6 
#
# 1 0.020511 -0.003126 -0.003595 0.000000 0.000000 0.000000
# 2 -0.003126 0.014138 -0.007131 0.000000 0.000000 0.000000
# 3 -0.003595 -0.007131 0.017001 0.000000 0.000000 0.000000
# 4 0.000000 0.000000 0.000000 0.048280 0.000000 0.000000
# 5 0.000000 0.000000 0.000000 0.000000 0.048834 0.000000
# 6 0.000000 0.000000 0.000000 0.000000 0.000000 0.057481
#
#
# Mechanical properties :
#
#
# Convention : Reuss Voigt Hill
#
# Bulk Modulus (GPa) = 41.76277 46.85354 44.30816
# Shear Modulus (GPa) = 20.66693 21.50854 21.08773
#
# Velocity S-wave (km/s) = 3.36072 3.42847 3.39476
# Velocity P-wave (km/s) = 6.15488 6.42479 6.29128
#
# Compressibility (1/GPa) = 0.02394477
#
# Stress axis : x y z
#
# Youngs Moduli (GPa) = 48.75406 70.73180 58.81942
#
# Poissons Ratio (x) = 0.22113 0.21146
# Poissons Ratio (y) = 0.15242 0.41946
# Poissons Ratio (z) = 0.17528 0.50441
#
# Static dielectric constant tensor:
#      x y z
#    x 3.429080 0.000000 0.000000 
#    y 0.000000 3.256310 0.000000 
#    z 0.000000 0.000000 3.437620 
# 
# 
# High freq. dielectric constant tensor:
#      x y z
#    x 1.708850 0.000000 0.000000 
#    y 0.000000 1.700720 0.000000 
#    z 0.000000 0.000000 1.683570 
# 
# From -- ./inp_files/56074.got.cif
#   From: 2010.03.12/outbox.cif.g09.slc.cpg/sg63_29_cif.got.tgz:56074.got - 2010.04.10 19:34:48.
