data_PCOD8256055
_publ_section_title
;
Structure prediction by ZEFSAII (Michael W. Deem and Ramdas Pophale) SiO2 
 PCOD8256055
Probable space group: C M C M
;
_chemical_formula_sum "Si O2"
_cell_formula_units_Z 80
_cell_length_a 9.193159
_cell_length_b 20.560964
_cell_length_c 24.280225
_cell_angle_alpha 90.000000
_cell_angle_beta 90.000000
_cell_angle_gamma 90.000000
_cell_volume 4589.453259
_symmetry_space_group_name_H-M "C M C M"
_symmetry_group_IT_number 63
_symmetry_cell_setting 'orthorhombic'
loop_
_space_group_symop_operation_xyz
x,y,z
-x,-y,1/2+z
x,-y,-z
-x,y,1/2-z
-x,-y,-z
x,y,1/2-z
-x,y,z
x,-y,1/2+z
1/2+x,1/2+y,z
1/2-x,1/2-y,1/2+z
1/2+x,1/2-y,-z
1/2-x,1/2+y,1/2-z
1/2-x,1/2-y,-z
1/2+x,1/2+y,1/2-z
1/2-x,1/2+y,z
1/2+x,1/2-y,1/2+z
loop_
_atom_site_type_symbol
_atom_site_label
_atom_site_fract_x
_atom_site_fract_y
_atom_site_fract_z
Si Si1 0.162207 0.759781 0.250000
Si Si2 0.670701 0.935527 0.966921
Si Si3 0.166244 0.605160 0.250000
Si Si4 0.167675 0.307178 0.470791
Si Si5 0.327886 0.606641 0.140047
Si Si6 0.833367 0.256744 0.145487
O O1 0.167546 0.682484 0.250000
O O2 0.240646 0.785922 0.195476
O O3 0.000000 0.787418 0.250000
O O4 0.500000 0.932935 0.952345
O O5 0.761815 0.933708 0.910655
O O6 0.719044 0.876383 0.006311
O O7 0.712019 0.000000 0.000000
O O8 0.251582 0.580534 0.195823
O O9 0.000000 0.578862 0.250000
O O10 0.250000 0.250000 0.500000
O O11 0.198670 0.303943 0.405678
O O12 0.000000 0.295145 0.483384
O O13 0.500000 0.594460 0.144090
O O14 0.290279 0.682626 0.130385
O O15 0.000000 0.258391 0.164158
#
# Coordination Sequence:
#
# PCOD8256055 Si02
#       6
#     8  16   8  16  16  16
#     4   9  17  27  43  70  99 128 159 199 249 298
#     4  10  21  35  51  73 104 139 173 211 255 305
#     4   9  17  29  47  72 101 132 165 205 255 302
#     4  10  19  32  51  74 100 131 168 207 250 299
#     4  10  18  30  49  74 102 131 167 210 255 301
#     4   9  17  29  46  70  99 129 161 202 250 299
#
# _framework density 17.431270000000001
#
# number of rings (size 3 to 8) (size 9 to 14) (size 15 to 20)
#    0.000    2.400    2.000    1.200    0.000    4.400 
#    0.000    0.000    0.000    1.200    0.000    4.200 
#    0.000    0.000    0.000    0.000    0.000    0.000 
#
# Total GULP energy -496016.720866 kJ/mol
# GULP energy per Si atom -12400.418022 kJ/mol
# Density = 1.739160 g / cm^3
# Si number density = 17.431270 Si / 1000 Ang^3
#
#
#
# Elastic Constant Matrix: (Units=GPa)
#
#
# Indices 1 2 3 4 5 6 
#
# 1 92.0416 37.2125 78.2695 0.0000 0.0000 0.0000
# 2 37.2125 77.5095 57.5925 0.0000 0.0000 0.0000
# 3 78.2695 57.5925 156.8590 0.0000 0.0000 0.0000
# 4 0.0000 0.0000 0.0000 16.5971 0.0000 0.0000
# 5 0.0000 0.0000 0.0000 0.0000 37.2418 0.0000
# 6 0.0000 0.0000 0.0000 0.0000 0.0000 15.6166
#
#
#
# Elastic Compliance Matrix: (Units=1/GPa)
#
#
# Indices 1 2 3 4 5 6 
#
# 1 0.019338 -0.002908 -0.008582 0.000000 0.000000 0.000000
# 2 -0.002908 0.018179 -0.005224 0.000000 0.000000 0.000000
# 3 -0.008582 -0.005224 0.012575 0.000000 0.000000 0.000000
# 4 0.000000 0.000000 0.000000 0.060251 0.000000 0.000000
# 5 0.000000 0.000000 0.000000 0.000000 0.026852 0.000000
# 6 0.000000 0.000000 0.000000 0.000000 0.000000 0.064034
#
#
# Mechanical properties :
#
#
# Convention : Reuss Voigt Hill
#
# Bulk Modulus (GPa) = 60.00256 74.72877 67.36567
# Shear Modulus (GPa) = 20.81508 24.11350 22.46429
#
# Velocity S-wave (km/s) = 3.45936 3.72337 3.59379
# Velocity P-wave (km/s) = 7.10305 7.83889 7.48003
#
# Compressibility (1/GPa) = 0.01666596
#
# Stress axis : x y z
#
# Youngs Moduli (GPa) = 51.71229 55.00830 79.52185
#
# Poissons Ratio (x) = 0.15995 0.68242
# Poissons Ratio (y) = 0.15036 0.41540
# Poissons Ratio (z) = 0.44377 0.28735
#
# Static dielectric constant tensor:
#      x y z
#    x 3.311200 0.000000 0.000000 
#    y 0.000000 3.211940 0.000000 
#    z 0.000000 0.000000 3.335930 
# 
# 
# High freq. dielectric constant tensor:
#      x y z
#    x 1.678980 0.000000 0.000000 
#    y 0.000000 1.621990 0.000000 
#    z 0.000000 0.000000 1.689040 
# 
# From -- ./inp_files/59494.got.cif
#   From: 2010.03.12/outbox.cif.g09.slc.cpg/sg63_30_cif.got.tgz:59494.got - 2010.04.10 19:34:48.
