data_PCOD8256989
_publ_section_title
;
Structure prediction by ZEFSAII (Michael W. Deem and Ramdas Pophale) SiO2 
 PCOD8256989
Probable space group: C M C M
;
_chemical_formula_sum "Si O2"
_cell_formula_units_Z 120
_cell_length_a 26.055484
_cell_length_b 27.823568
_cell_length_c 9.217343
_cell_angle_alpha 90.000000
_cell_angle_beta 90.000000
_cell_angle_gamma 90.000000
_cell_volume 6682.173005
_symmetry_space_group_name_H-M "C M C M"
_symmetry_group_IT_number 63
_symmetry_cell_setting 'orthorhombic'
loop_
_space_group_symop_operation_xyz
x,y,z
-x,-y,1/2+z
x,-y,-z
-x,y,1/2-z
-x,-y,-z
x,y,1/2-z
-x,y,z
x,-y,1/2+z
1/2+x,1/2+y,z
1/2-x,1/2-y,1/2+z
1/2+x,1/2-y,-z
1/2-x,1/2+y,1/2-z
1/2-x,1/2-y,-z
1/2+x,1/2+y,1/2-z
1/2-x,1/2+y,z
1/2+x,1/2-y,1/2+z
loop_
_atom_site_type_symbol
_atom_site_label
_atom_site_fract_x
_atom_site_fract_y
_atom_site_fract_z
Si Si1 0.646851 0.703099 0.920533
Si Si2 0.202798 0.548372 0.579043
Si Si3 0.338251 0.809184 0.919784
Si Si4 0.245058 0.145808 0.919380
Si Si5 0.500000 0.050563 0.080217
Si Si6 0.558082 0.362959 0.418717
Si Si7 0.108344 0.405127 0.919189
Si Si8 0.438843 0.544668 0.411988
O O1 0.652714 0.706948 0.750000
O O2 0.648278 0.756816 0.986030
O O3 0.690336 0.665748 0.976581
O O4 0.591381 0.682823 0.963809
O O5 0.221796 0.500000 0.500000
O O6 0.195854 0.539148 0.750000
O O7 0.246213 0.589065 0.548431
O O8 0.147766 0.563826 0.514365
O O9 0.327354 0.806016 0.750000
O O10 0.383141 0.848240 0.951440
O O11 0.286328 0.823727 0.995773
O O12 0.252493 0.155799 0.750000
O O13 0.500000 0.039620 0.250000
O O14 0.550336 0.081218 0.035928
O O15 0.500000 0.000000 0.000000
O O16 0.563484 0.376355 0.250000
O O17 0.500000 0.350345 0.460563
O O18 0.579777 0.407589 0.508472
O O19 0.118715 0.416513 0.750000
O O20 0.415632 0.500000 0.500000
O O21 0.416369 0.543771 0.250000
O O22 0.500000 0.541936 0.410094
#
# Coordination Sequence:
#
# PCOD8256989 Si02
#       8
#    16  16  16  16   8  16  16  16
#     4   9  17  31  50  72  97 126 159 197 242 285
#     4  10  19  31  49  71  95 126 159 194 240 291
#     4   9  17  31  51  73  96 123 158 201 244 284
#     4   9  18  32  50  71  96 124 156 196 241 288
#     4  10  20  32  46  68  98 132 166 200 239 280
#     4   9  17  30  47  68  95 126 160 194 230 282
#     4   9  18  32  48  70  99 129 163 202 240 283
#     4   9  16  27  45  67  89 116 151 191 233 275
#
# _framework density 17.95823
#
# number of rings (size 3 to 8) (size 9 to 14) (size 15 to 20)
#    0.000    2.800    0.000    1.600    0.000    3.733 
#    1.200    2.000    0.000    1.600    0.000    0.000 
#    0.000    0.000    0.000    0.000    0.000    0.000 
#
# Total GULP energy -743738.824105 kJ/mol
# GULP energy per Si atom -12395.647068 kJ/mol
# Density = 1.791736 g / cm^3
# Si number density = 17.958230 Si / 1000 Ang^3
#
#
#
# Elastic Constant Matrix: (Units=GPa)
#
#
# Indices 1 2 3 4 5 6 
#
# 1 92.1988 70.8351 28.4478 0.0000 0.0000 0.0000
# 2 70.8351 167.6255 51.7189 0.0000 0.0000 0.0000
# 3 28.4478 51.7189 58.0776 0.0000 0.0000 0.0000
# 4 0.0000 0.0000 0.0000 23.8581 0.0000 0.0000
# 5 0.0000 0.0000 0.0000 0.0000 17.0034 0.0000
# 6 0.0000 0.0000 0.0000 0.0000 0.0000 23.2172
#
#
#
# Elastic Compliance Matrix: (Units=1/GPa)
#
#
# Indices 1 2 3 4 5 6 
#
# 1 0.016331 -0.006112 -0.002556 0.000000 0.000000 0.000000
# 2 -0.006112 0.010514 -0.006368 0.000000 0.000000 0.000000
# 3 -0.002556 -0.006368 0.024142 0.000000 0.000000 0.000000
# 4 0.000000 0.000000 0.000000 0.041915 0.000000 0.000000
# 5 0.000000 0.000000 0.000000 0.000000 0.058812 0.000000
# 6 0.000000 0.000000 0.000000 0.000000 0.000000 0.043071
#
#
# Mechanical properties :
#
#
# Convention : Reuss Voigt Hill
#
# Bulk Modulus (GPa) = 47.81915 68.87838 58.34877
# Shear Modulus (GPa) = 21.56767 23.94242 22.75504
#
# Velocity S-wave (km/s) = 3.46929 3.65530 3.56351
# Velocity P-wave (km/s) = 6.53711 7.50020 7.03515
#
# Compressibility (1/GPa) = 0.02091212
#
# Stress axis : x y z
#
# Youngs Moduli (GPa) = 61.23355 95.11490 41.42233
#
# Poissons Ratio (x) = 0.58139 0.10588
# Poissons Ratio (y) = 0.37429 0.26380
# Poissons Ratio (z) = 0.15652 0.60574
#
# Static dielectric constant tensor:
#      x y z
#    x 3.207600 0.000000 0.000000 
#    y 0.000000 3.663560 0.000000 
#    z 0.000000 0.000000 3.248420 
# 
# 
# High freq. dielectric constant tensor:
#      x y z
#    x 1.674230 0.000000 0.000000 
#    y 0.000000 1.705470 0.000000 
#    z 0.000000 0.000000 1.682680 
# 
# From -- ./inp_files/13168.got.cif
#   From: 2010.03.12/outbox.cif.g09.slc.cpg/sg63_7_cif.got.tgz:13168.got - 2010.04.10 19:34:48.
