data_PCOD8256518
_publ_section_title
;
Structure prediction by ZEFSAII (Michael W. Deem and Ramdas Pophale) SiO2 
 PCOD8256518
Probable space group: C M C M
;
_chemical_formula_sum "Si O2"
_cell_formula_units_Z 88
_cell_length_a 27.520907
_cell_length_b 19.569278
_cell_length_c 8.769241
_cell_angle_alpha 90.000000
_cell_angle_beta 90.000000
_cell_angle_gamma 90.000000
_cell_volume 4722.799964
_symmetry_space_group_name_H-M "C M C M"
_symmetry_group_IT_number 63
_symmetry_cell_setting 'orthorhombic'
loop_
_space_group_symop_operation_xyz
x,y,z
-x,-y,1/2+z
x,-y,-z
-x,y,1/2-z
-x,-y,-z
x,y,1/2-z
-x,y,z
x,-y,1/2+z
1/2+x,1/2+y,z
1/2-x,1/2-y,1/2+z
1/2+x,1/2-y,-z
1/2-x,1/2+y,1/2-z
1/2-x,1/2-y,-z
1/2+x,1/2+y,1/2-z
1/2-x,1/2+y,z
1/2+x,1/2-y,1/2+z
loop_
_atom_site_type_symbol
_atom_site_label
_atom_site_fract_x
_atom_site_fract_y
_atom_site_fract_z
Si Si1 0.131326 0.072743 0.430710
Si Si2 0.188020 0.689406 0.429045
Si Si3 0.213008 0.157165 0.571315
Si Si4 0.587480 0.170792 0.568996
Si Si5 0.500000 0.074510 0.930079
Si Si6 0.553830 0.681480 0.431159
O O1 0.130965 0.068206 0.250000
O O2 0.183716 0.097948 0.486192
O O3 0.090623 0.124740 0.494468
O O4 0.118597 0.000000 0.500000
O O5 0.193809 0.677898 0.250000
O O6 0.189450 0.769706 0.471596
O O7 0.231913 0.651748 0.514059
O O8 0.138589 0.654936 0.488282
O O9 0.211458 0.143368 0.750000
O O10 0.594769 0.170364 0.750000
O O11 0.548221 0.114650 0.515968
O O12 0.569208 0.244098 0.509228
O O13 0.500000 0.068664 0.750000
O O14 0.500000 0.000000 0.000000
O O15 0.554236 0.682101 0.250000
O O16 0.500000 0.664346 0.492836
#
# Coordination Sequence:
#
# PCOD8256518 Si02
#       6
#    16  16  16  16   8  16
#     4  11  22  36  56  80 114 155 192 236 287 337
#     4  10  20  33  55  86 115 142 180 236 290 334
#     4  10  20  35  55  81 113 146 187 232 282 341
#     4  10  18  34  59  85 111 147 192 233 276 333
#     4  10  22  38  60  86 117 152 186 227 280 343
#     4   9  17  32  56  83 109 144 193 237 277 328
#
# _framework density 18.633013999999999
#
# number of rings (size 3 to 8) (size 9 to 14) (size 15 to 20)
#    0.000    2.000    2.727    1.636    0.000    2.545 
#    0.000    0.909    0.000    6.000    0.000    0.000 
#    0.000    0.000    0.000    0.000    0.000    0.000 
#
# Total GULP energy -545729.231075 kJ/mol
# GULP energy per Si atom -12402.937070 kJ/mol
# Density = 1.859060 g / cm^3
# Si number density = 18.633014 Si / 1000 Ang^3
#
#
#
# Elastic Constant Matrix: (Units=GPa)
#
#
# Indices 1 2 3 4 5 6 
#
# 1 153.0610 69.2897 35.0182 0.0000 0.0000 0.0000
# 2 69.2897 130.2418 32.8320 0.0000 0.0000 0.0000
# 3 35.0182 32.8320 54.2936 0.0000 0.0000 0.0000
# 4 0.0000 0.0000 0.0000 28.7906 0.0000 0.0000
# 5 0.0000 0.0000 0.0000 0.0000 27.6407 0.0000
# 6 0.0000 0.0000 0.0000 0.0000 0.0000 23.0964
#
#
#
# Elastic Compliance Matrix: (Units=1/GPa)
#
#
# Indices 1 2 3 4 5 6 
#
# 1 0.009132 -0.003980 -0.003483 0.000000 0.000000 0.000000
# 2 -0.003980 0.010794 -0.003960 0.000000 0.000000 0.000000
# 3 -0.003483 -0.003960 0.023059 0.000000 0.000000 0.000000
# 4 0.000000 0.000000 0.000000 0.034734 0.000000 0.000000
# 5 0.000000 0.000000 0.000000 0.000000 0.036179 0.000000
# 6 0.000000 0.000000 0.000000 0.000000 0.000000 0.043297
#
#
# Mechanical properties :
#
#
# Convention : Reuss Voigt Hill
#
# Bulk Modulus (GPa) = 49.65545 67.98626 58.82085
# Shear Modulus (GPa) = 26.77322 29.26931 28.02126
#
# Velocity S-wave (km/s) = 3.79472 3.96767 3.88216
# Velocity P-wave (km/s) = 6.77546 7.58657 7.19246
#
# Compressibility (1/GPa) = 0.02013878
#
# Stress axis : x y z
#
# Youngs Moduli (GPa) = 109.50415 92.64558 43.36611
#
# Poissons Ratio (x) = 0.36876 0.15105
# Poissons Ratio (y) = 0.43586 0.17173
# Poissons Ratio (z) = 0.38141 0.36687
#
# Static dielectric constant tensor:
#      x y z
#    x 3.605650 0.000000 0.000000 
#    y 0.000000 3.629690 0.000000 
#    z 0.000000 0.000000 3.185650 
# 
# 
# High freq. dielectric constant tensor:
#      x y z
#    x 1.738390 0.000000 0.000000 
#    y 0.000000 1.703830 0.000000 
#    z 0.000000 0.000000 1.709790 
# 
# From -- ./inp_files/14213.got.cif
#   From: 2010.03.12/outbox.cif.g09.slc.cpg/sg63_8_cif.got.tgz:14213.got - 2010.04.10 19:34:48.
