data_PCOD8256534
_publ_section_title
;
Structure prediction by ZEFSAII (Michael W. Deem and Ramdas Pophale) SiO2 
 PCOD8256534
Probable space group: C M C M
;
_chemical_formula_sum "Si O2"
_cell_formula_units_Z 96
_cell_length_a 16.982415
_cell_length_b 20.860399
_cell_length_c 15.278816
_cell_angle_alpha 90.000000
_cell_angle_beta 90.000000
_cell_angle_gamma 90.000000
_cell_volume 5412.672636
_symmetry_space_group_name_H-M "C M C M"
_symmetry_group_IT_number 63
_symmetry_cell_setting 'orthorhombic'
loop_
_space_group_symop_operation_xyz
x,y,z
-x,-y,1/2+z
x,-y,-z
-x,y,1/2-z
-x,-y,-z
x,y,1/2-z
-x,y,z
x,-y,1/2+z
1/2+x,1/2+y,z
1/2-x,1/2-y,1/2+z
1/2+x,1/2-y,-z
1/2-x,1/2+y,1/2-z
1/2-x,1/2-y,-z
1/2+x,1/2+y,1/2-z
1/2-x,1/2+y,z
1/2+x,1/2-y,1/2+z
loop_
_atom_site_type_symbol
_atom_site_label
_atom_site_fract_x
_atom_site_fract_y
_atom_site_fract_z
Si Si1 0.839920 0.147716 0.581344
Si Si2 0.088775 0.978405 0.149043
Si Si3 0.686631 0.155262 0.150860
Si Si4 0.797187 0.272389 0.347499
Si Si5 0.409355 0.774167 0.510515
Si Si6 0.724832 0.444493 0.558187
O O1 0.889652 0.095811 0.634937
O O2 0.773473 0.176794 0.644326
O O3 0.898124 0.202750 0.547249
O O4 0.796491 0.116767 0.499224
O O5 0.096857 0.995549 0.250000
O O6 0.000000 0.990414 0.115869
O O7 0.144999 0.026031 0.096887
O O8 0.653722 0.158258 0.250000
O O9 0.761708 0.201672 0.139025
O O10 0.618263 0.174842 0.083557
O O11 0.715311 0.082170 0.131510
O O12 0.833852 0.279209 0.250000
O O13 0.863161 0.285127 0.419967
O O14 0.500000 0.786751 0.490077
O O15 0.766781 0.500000 0.500000
#
# Coordination Sequence:
#
# PCOD8256534 Si02
#       6
#    16  16  16  16  16  16
#     4  10  18  35  54  76 107 140 177 213 263 320
#     4  10  21  33  47  77 114 144 178 216 256 310
#     4  10  19  36  56  78 109 141 181 221 258 316
#     4  10  19  34  57  79 103 141 182 220 268 320
#     4  11  21  34  55  82 109 138 174 222 280 321
#     4  10  19  32  55  75 104 144 184 212 254 308
#
# _framework density 17.736155
#
# number of rings (size 3 to 8) (size 9 to 14) (size 15 to 20)
#    0.000    1.833    3.333    2.500    0.000    5.000 
#    0.000    0.000    0.000    0.500    0.000    0.000 
#    0.000    0.000    0.000    0.000    0.000    0.000 
#
# Total GULP energy -595177.443891 kJ/mol
# GULP energy per Si atom -12399.530081 kJ/mol
# Density = 1.769579 g / cm^3
# Si number density = 17.736155 Si / 1000 Ang^3
#
#
#
# Elastic Constant Matrix: (Units=GPa)
#
#
# Indices 1 2 3 4 5 6 
#
# 1 70.8103 25.1624 46.3441 0.0000 0.0000 0.0000
# 2 25.1624 86.1879 32.6542 0.0000 0.0000 0.0000
# 3 46.3441 32.6542 117.2213 0.0000 0.0000 0.0000
# 4 0.0000 0.0000 0.0000 17.3667 0.0000 0.0000
# 5 0.0000 0.0000 0.0000 0.0000 19.9039 0.0000
# 6 0.0000 0.0000 0.0000 0.0000 0.0000 20.6042
#
#
#
# Elastic Compliance Matrix: (Units=1/GPa)
#
#
# Indices 1 2 3 4 5 6 
#
# 1 0.019786 -0.003145 -0.006947 0.000000 0.000000 0.000000
# 2 -0.003145 0.013471 -0.002509 0.000000 0.000000 0.000000
# 3 -0.006947 -0.002509 0.011976 0.000000 0.000000 0.000000
# 4 0.000000 0.000000 0.000000 0.057581 0.000000 0.000000
# 5 0.000000 0.000000 0.000000 0.000000 0.050241 0.000000
# 6 0.000000 0.000000 0.000000 0.000000 0.000000 0.048534
#
#
# Mechanical properties :
#
#
# Convention : Reuss Voigt Hill
#
# Bulk Modulus (GPa) = 49.91899 53.61566 51.76733
# Shear Modulus (GPa) = 21.41612 22.91223 22.16417
#
# Velocity S-wave (km/s) = 3.47866 3.59811 3.53889
# Velocity P-wave (km/s) = 6.65892 6.89617 6.77858
#
# Compressibility (1/GPa) = 0.02003246
#
# Stress axis : x y z
#
# Youngs Moduli (GPa) = 50.54060 74.23138 83.49836
#
# Poissons Ratio (x) = 0.23343 0.58002
# Poissons Ratio (y) = 0.15893 0.20954
# Poissons Ratio (z) = 0.35108 0.18628
#
# Static dielectric constant tensor:
#      x y z
#    x 2.970300 0.000000 0.000000 
#    y 0.000000 3.301550 0.000000 
#    z 0.000000 0.000000 3.429480 
# 
# 
# High freq. dielectric constant tensor:
#      x y z
#    x 1.653030 0.000000 0.000000 
#    y 0.000000 1.682230 0.000000 
#    z 0.000000 0.000000 1.702930 
# 
# From -- ./inp_files/31857.got.cif
#   From: 2010.03.12/outbox.cif.g09.slc.cpg/sg63_16_cif.got.tgz:31857.got - 2010.04.10 19:34:48.
