data_PCOD8256165
_publ_section_title
;
Structure prediction by ZEFSAII (Michael W. Deem and Ramdas Pophale) SiO2 
 PCOD8256165
Probable space group: C M C M
;
_chemical_formula_sum "Si O2"
_cell_formula_units_Z 72
_cell_length_a 23.015791
_cell_length_b 12.285317
_cell_length_c 14.592671
_cell_angle_alpha 90.000000
_cell_angle_beta 90.000000
_cell_angle_gamma 90.000000
_cell_volume 4126.169490
_symmetry_space_group_name_H-M "C M C M"
_symmetry_group_IT_number 63
_symmetry_cell_setting 'orthorhombic'
loop_
_space_group_symop_operation_xyz
x,y,z
-x,-y,1/2+z
x,-y,-z
-x,y,1/2-z
-x,-y,-z
x,y,1/2-z
-x,y,z
x,-y,1/2+z
1/2+x,1/2+y,z
1/2-x,1/2-y,1/2+z
1/2+x,1/2-y,-z
1/2-x,1/2+y,1/2-z
1/2-x,1/2-y,-z
1/2+x,1/2+y,1/2-z
1/2-x,1/2+y,z
1/2+x,1/2-y,1/2+z
loop_
_atom_site_type_symbol
_atom_site_label
_atom_site_fract_x
_atom_site_fract_y
_atom_site_fract_z
Si Si1 0.933045 0.395230 0.439804
Si Si2 0.242662 0.517709 0.250000
Si Si3 0.626503 0.071309 0.750000
Si Si4 0.741204 0.595159 0.935298
Si Si5 0.325147 0.299148 0.750000
Si Si6 0.659627 0.274059 0.945914
O O1 0.920083 0.500000 0.500000
O O2 0.914854 0.426096 0.337101
O O3 0.896723 0.292948 0.479529
O O4 0.000000 0.361096 0.442091
O O5 0.172042 0.528902 0.250000
O O6 0.270625 0.456722 0.336821
O O7 0.261925 0.644520 0.250000
O O8 0.674362 0.168154 0.750000
O O9 0.787572 0.691082 0.926781
O O10 0.766996 0.500000 0.000000
O O11 0.680037 0.639307 0.977825
O O12 0.355829 0.332384 0.652626
#
# Coordination Sequence:
#
# PCOD8256165 Si02
#       6
#    16   8   8  16   8  16
#     4  10  20  36  55  76 101 136 178 217 258 303
#     4  12  20  31  49  77 107 138 169 203 255 316
#     4  10  21  34  50  77 108 135 174 211 258 305
#     4  11  20  31  50  74 107 137 167 208 258 317
#     4  10  18  31  47  72 101 137 166 204 247 313
#     4  10  20  32  50  75 103 135 172 209 262 308
#
# _framework density 17.449598999999999
#
# number of rings (size 3 to 8) (size 9 to 14) (size 15 to 20)
#    0.000    1.556    6.667    1.000    0.000    0.000 
#    0.000    0.000    0.000    0.667    0.000    0.000 
#    0.000    0.000    0.000    0.000    0.000    0.000 
#
# Total GULP energy -445985.480791 kJ/mol
# GULP energy per Si atom -12388.485578 kJ/mol
# Density = 1.740988 g / cm^3
# Si number density = 17.449599 Si / 1000 Ang^3
#
#
#
# Elastic Constant Matrix: (Units=GPa)
#
#
# Indices 1 2 3 4 5 6 
#
# 1 76.9400 23.1001 23.8558 0.0000 0.0000 0.0000
# 2 23.1001 41.9479 24.1072 0.0000 0.0000 0.0000
# 3 23.8558 24.1072 120.6465 0.0000 0.0000 0.0000
# 4 0.0000 0.0000 0.0000 23.9475 0.0000 0.0000
# 5 0.0000 0.0000 0.0000 0.0000 22.6068 0.0000
# 6 0.0000 0.0000 0.0000 0.0000 0.0000 32.2350
#
#
#
# Elastic Compliance Matrix: (Units=1/GPa)
#
#
# Indices 1 2 3 4 5 6 
#
# 1 0.015830 -0.007816 -0.001568 0.000000 0.000000 0.000000
# 2 -0.007816 0.030791 -0.004607 0.000000 0.000000 0.000000
# 3 -0.001568 -0.004607 0.009519 0.000000 0.000000 0.000000
# 4 0.000000 0.000000 0.000000 0.041758 0.000000 0.000000
# 5 0.000000 0.000000 0.000000 0.000000 0.044235 0.000000
# 6 0.000000 0.000000 0.000000 0.000000 0.000000 0.031022
#
#
# Mechanical properties :
#
#
# Convention : Reuss Voigt Hill
#
# Bulk Modulus (GPa) = 35.51457 42.40672 38.96065
# Shear Modulus (GPa) = 23.75029 26.98929 25.36979
#
# Velocity S-wave (km/s) = 3.69328 3.93708 3.81713
# Velocity P-wave (km/s) = 6.21160 6.70989 6.46555
#
# Compressibility (1/GPa) = 0.02815746
#
# Stress axis : x y z
#
# Youngs Moduli (GPa) = 63.17096 32.47710 105.04915
#
# Poissons Ratio (x) = 0.25384 0.16475
# Poissons Ratio (y) = 0.49375 0.48397
# Poissons Ratio (z) = 0.09907 0.14962
#
# Static dielectric constant tensor:
#      x y z
#    x 3.046450 0.000000 0.000000 
#    y 0.000000 3.280030 0.000000 
#    z 0.000000 0.000000 3.903360 
# 
# 
# High freq. dielectric constant tensor:
#      x y z
#    x 1.634350 0.000000 0.000000 
#    y 0.000000 1.660790 0.000000 
#    z 0.000000 0.000000 1.696860 
# 
# From -- ./inp_files/36412.got.cif
#   From: 2010.03.12/outbox.cif.g09.slc.cpg/sg63_19_cif.got.tgz:36412.got - 2010.04.10 19:34:48.
