data_PCOD8256781
_publ_section_title
;
Structure prediction by ZEFSAII (Michael W. Deem and Ramdas Pophale) SiO2 
 PCOD8256781
Probable space group: C M C M
;
_chemical_formula_sum "Si O2"
_cell_formula_units_Z 112
_cell_length_a 14.936821
_cell_length_b 25.476686
_cell_length_c 16.622661
_cell_angle_alpha 90.000000
_cell_angle_beta 90.000000
_cell_angle_gamma 90.000000
_cell_volume 6325.599027
_symmetry_space_group_name_H-M "C M C M"
_symmetry_group_IT_number 63
_symmetry_cell_setting 'orthorhombic'
loop_
_space_group_symop_operation_xyz
x,y,z
-x,-y,1/2+z
x,-y,-z
-x,y,1/2-z
-x,-y,-z
x,y,1/2-z
-x,y,z
x,-y,1/2+z
1/2+x,1/2+y,z
1/2-x,1/2-y,1/2+z
1/2+x,1/2-y,-z
1/2-x,1/2+y,1/2-z
1/2-x,1/2-y,-z
1/2+x,1/2+y,1/2-z
1/2-x,1/2+y,z
1/2+x,1/2-y,1/2+z
loop_
_atom_site_type_symbol
_atom_site_label
_atom_site_fract_x
_atom_site_fract_y
_atom_site_fract_z
Si Si1 0.902489 0.169791 0.158179
Si Si2 0.603885 0.861407 0.845212
Si Si3 0.248128 0.800355 0.944010
Si Si4 0.603249 0.557369 0.403326
Si Si5 0.401206 0.938283 0.514556
Si Si6 0.598610 0.554710 0.658285
Si Si7 0.221134 0.097759 0.963342
O O1 0.907419 0.184900 0.250000
O O2 0.830246 0.209033 0.120351
O O3 0.873735 0.108769 0.149366
O O4 0.000000 0.178842 0.117892
O O5 0.633018 0.866705 0.750000
O O6 0.500000 0.843976 0.848879
O O7 0.661932 0.817490 0.894523
O O8 0.617175 0.917423 0.892962
O O9 0.250000 0.750000 0.000000
O O10 0.210411 0.844329 0.003517
O O11 0.500000 0.557652 0.431805
O O12 0.625456 0.506327 0.350817
O O13 0.668205 0.556019 0.480542
O O14 0.500000 0.918166 0.488741
O O15 0.326568 0.914566 0.455803
O O16 0.396388 0.000000 0.500000
O O17 0.595672 0.569961 0.750000
O O18 0.500000 0.564723 0.619866
O O19 0.673479 0.593386 0.622370
#
# Coordination Sequence:
#
# PCOD8256781 Si02
#       7
#    16  16  16  16  16  16  16
#     4   9  17  30  49  74 100 122 151 196 244 288
#     4   9  18  34  56  80 103 128 165 215 262 301
#     4  10  21  35  51  71  95 128 168 211 258 301
#     4   9  16  27  47  74 102 129 155 185 227 285
#     4   9  17  30  49  74 103 131 160 198 248 304
#     4  10  19  30  46  71 104 137 162 185 223 283
#     4  10  19  32  48  67  93 127 167 204 242 289
#
# _framework density 17.705832999999998
#
# number of rings (size 3 to 8) (size 9 to 14) (size 15 to 20)
#    0.000    2.571    0.000    2.571    0.000    4.000 
#    0.000    7.143    0.000    3.000    0.000    0.000 
#    0.000    0.000    0.000    0.000    0.000    0.000 
#
# Total GULP energy -693733.959592 kJ/mol
# GULP energy per Si atom -12388.106421 kJ/mol
# Density = 1.766553 g / cm^3
# Si number density = 17.705833 Si / 1000 Ang^3
#
#
#
# Elastic Constant Matrix: (Units=GPa)
#
#
# Indices 1 2 3 4 5 6 
#
# 1 107.7390 39.2872 50.0700 0.0000 0.0000 0.0000
# 2 39.2872 59.1773 44.8470 0.0000 0.0000 0.0000
# 3 50.0700 44.8470 86.7957 0.0000 0.0000 0.0000
# 4 0.0000 0.0000 0.0000 27.3865 0.0000 0.0000
# 5 0.0000 0.0000 0.0000 0.0000 30.0018 0.0000
# 6 0.0000 0.0000 0.0000 0.0000 0.0000 18.8577
#
#
#
# Elastic Compliance Matrix: (Units=1/GPa)
#
#
# Indices 1 2 3 4 5 6 
#
# 1 0.013540 -0.005045 -0.005204 0.000000 0.000000 0.000000
# 2 -0.005045 0.029654 -0.012412 0.000000 0.000000 0.000000
# 3 -0.005204 -0.012412 0.020936 0.000000 0.000000 0.000000
# 4 0.000000 0.000000 0.000000 0.036514 0.000000 0.000000
# 5 0.000000 0.000000 0.000000 0.000000 0.033331 0.000000
# 6 0.000000 0.000000 0.000000 0.000000 0.000000 0.053029
#
#
# Mechanical properties :
#
#
# Convention : Reuss Voigt Hill
#
# Bulk Modulus (GPa) = 53.16725 58.01340 55.59032
# Shear Modulus (GPa) = 20.95598 23.21640 22.08619
#
# Velocity S-wave (km/s) = 3.44403 3.62502 3.53568
# Velocity P-wave (km/s) = 6.77557 7.09629 6.93778
#
# Compressibility (1/GPa) = 0.01880857
#
# Stress axis : x y z
#
# Youngs Moduli (GPa) = 73.85587 33.72247 47.76393
#
# Poissons Ratio (x) = 0.17014 0.24856
# Poissons Ratio (y) = 0.37262 0.59282
# Poissons Ratio (z) = 0.38434 0.41855
#
# Static dielectric constant tensor:
#      x y z
#    x 3.730520 0.000000 0.000000 
#    y 0.000000 3.002220 0.000000 
#    z 0.000000 0.000000 3.309270 
# 
# 
# High freq. dielectric constant tensor:
#      x y z
#    x 1.701990 0.000000 0.000000 
#    y 0.000000 1.647420 0.000000 
#    z 0.000000 0.000000 1.670090 
# 
# From -- ./inp_files/32579.got.cif
#   From: 2010.03.12/outbox.cif.g09.slc.cpg/sg63_17_cif.got.tgz:32579.got - 2010.04.10 19:34:48.
