data_PCOD8256586
_publ_section_title
;
Structure prediction by ZEFSAII (Michael W. Deem and Ramdas Pophale) SiO2 
 PCOD8256586
Probable space group: C M C M
;
_chemical_formula_sum "Si O2"
_cell_formula_units_Z 96
_cell_length_a 27.973201
_cell_length_b 26.750409
_cell_length_c 9.388276
_cell_angle_alpha 90.000000
_cell_angle_beta 90.000000
_cell_angle_gamma 90.000000
_cell_volume 7025.195932
_symmetry_space_group_name_H-M "C M C M"
_symmetry_group_IT_number 63
_symmetry_cell_setting 'orthorhombic'
loop_
_space_group_symop_operation_xyz
x,y,z
-x,-y,1/2+z
x,-y,-z
-x,y,1/2-z
-x,-y,-z
x,y,1/2-z
-x,y,z
x,-y,1/2+z
1/2+x,1/2+y,z
1/2-x,1/2-y,1/2+z
1/2+x,1/2-y,-z
1/2-x,1/2+y,1/2-z
1/2-x,1/2-y,-z
1/2+x,1/2+y,1/2-z
1/2-x,1/2+y,z
1/2+x,1/2-y,1/2+z
loop_
_atom_site_type_symbol
_atom_site_label
_atom_site_fract_x
_atom_site_fract_y
_atom_site_fract_z
Si Si1 0.796469 0.353283 0.584999
Si Si2 0.354151 0.951276 0.915126
Si Si3 0.727643 0.704375 0.584448
Si Si4 0.446488 0.105724 0.413144
Si Si5 0.636426 0.759502 0.911216
Si Si6 0.054029 0.293597 0.084891
O O1 0.781510 0.351177 0.750000
O O2 0.819035 0.406187 0.542676
O O3 0.748584 0.345784 0.488905
O O4 0.834727 0.310021 0.550576
O O5 0.349870 0.964013 0.750000
O O6 0.408688 0.936889 0.955895
O O7 0.338068 0.000000 0.000000
O O8 0.742693 0.706435 0.750000
O O9 0.750000 0.750000 0.500000
O O10 0.670171 0.710464 0.569358
O O11 0.437198 0.122859 0.250000
O O12 0.500000 0.083901 0.432336
O O13 0.438479 0.153017 0.512552
O O14 0.617554 0.762507 0.750000
O O15 0.590743 0.754253 0.014580
O O16 0.066166 0.299411 0.250000
O O17 0.000000 0.274063 0.061291
#
# Coordination Sequence:
#
# PCOD8256586 Si02
#       6
#    16  16  16  16  16  16
#     4   9  17  30  43  57  78  99 125 161 197 237
#     4  10  20  32  43  58  76  98 130 166 205 247
#     4   9  17  27  41  61  80  98 123 153 191 235
#     4   9  17  31  46  54  68  98 130 163 207 249
#     4   9  16  28  43  58  77 101 127 155 190 236
#     4  10  19  27  38  59  81 100 128 164 197 231
#
# _framework density 13.665099
#
# number of rings (size 3 to 8) (size 9 to 14) (size 15 to 20)
#    0.000    2.667    1.667    2.000    0.000    6.000 
#    0.000    0.000    0.000    0.000    0.000    0.000 
#    0.000    0.000    0.000    0.000    0.000    0.833 
#
# Total GULP energy -594962.441703 kJ/mol
# GULP energy per Si atom -12395.050869 kJ/mol
# Density = 1.363400 g / cm^3
# Si number density = 13.665099 Si / 1000 Ang^3
#
#
#
# Elastic Constant Matrix: (Units=GPa)
#
#
# Indices 1 2 3 4 5 6 
#
# 1 77.6580 48.3146 54.3576 0.0000 0.0000 0.0000
# 2 48.3146 56.1286 35.8383 0.0000 0.0000 0.0000
# 3 54.3576 35.8383 80.2228 0.0000 0.0000 0.0000
# 4 0.0000 0.0000 0.0000 20.7531 0.0000 0.0000
# 5 0.0000 0.0000 0.0000 0.0000 24.2857 0.0000
# 6 0.0000 0.0000 0.0000 0.0000 0.0000 17.4038
#
#
#
# Elastic Compliance Matrix: (Units=1/GPa)
#
#
# Indices 1 2 3 4 5 6 
#
# 1 0.037834 -0.022663 -0.015511 0.000000 0.000000 0.000000
# 2 -0.022663 0.038501 -0.001844 0.000000 0.000000 0.000000
# 3 -0.015511 -0.001844 0.023799 0.000000 0.000000 0.000000
# 4 0.000000 0.000000 0.000000 0.048186 0.000000 0.000000
# 5 0.000000 0.000000 0.000000 0.000000 0.041176 0.000000
# 6 0.000000 0.000000 0.000000 0.000000 0.000000 0.057459
#
#
# Mechanical properties :
#
#
# Convention : Reuss Voigt Hill
#
# Bulk Modulus (GPa) = 49.75538 54.55895 52.15716
# Shear Modulus (GPa) = 14.98393 17.52179 16.25286
#
# Velocity S-wave (km/s) = 3.31495 3.58471 3.45247
# Velocity P-wave (km/s) = 7.15133 7.55949 7.35824
#
# Compressibility (1/GPa) = 0.02009833
#
# Stress axis : x y z
#
# Youngs Moduli (GPa) = 26.43138 25.97305 42.01809
#
# Poissons Ratio (x) = 0.58862 0.65176
# Poissons Ratio (y) = 0.59901 0.07748
# Poissons Ratio (z) = 0.40999 0.04790
#
# Static dielectric constant tensor:
#      x y z
#    x 2.998460 0.000000 0.000000 
#    y 0.000000 2.473100 0.000000 
#    z 0.000000 0.000000 2.849860 
# 
# 
# High freq. dielectric constant tensor:
#      x y z
#    x 1.513730 0.000000 0.000000 
#    y 0.000000 1.469010 0.000000 
#    z 0.000000 0.000000 1.532310 
# 
# From -- ./inp_files/12969.got.cif
#   From: 2010.03.12/outbox.cif.g09.slc.cpg/sg63_7_cif.got.tgz:12969.got - 2010.04.10 19:34:48.
