data_PCOD8256167
_publ_section_title
;
Structure prediction by ZEFSAII (Michael W. Deem and Ramdas Pophale) SiO2 
 PCOD8256167
Probable space group: C M C M
;
_chemical_formula_sum "Si O2"
_cell_formula_units_Z 112
_cell_length_a 15.827326
_cell_length_b 22.457778
_cell_length_c 19.775956
_cell_angle_alpha 90.000000
_cell_angle_beta 90.000000
_cell_angle_gamma 90.000000
_cell_volume 7029.295801
_symmetry_space_group_name_H-M "C M C M"
_symmetry_group_IT_number 63
_symmetry_cell_setting 'orthorhombic'
loop_
_space_group_symop_operation_xyz
x,y,z
-x,-y,1/2+z
x,-y,-z
-x,y,1/2-z
-x,-y,-z
x,y,1/2-z
-x,y,z
x,-y,1/2+z
1/2+x,1/2+y,z
1/2-x,1/2-y,1/2+z
1/2+x,1/2-y,-z
1/2-x,1/2+y,1/2-z
1/2-x,1/2-y,-z
1/2+x,1/2+y,1/2-z
1/2-x,1/2+y,z
1/2+x,1/2-y,1/2+z
loop_
_atom_site_type_symbol
_atom_site_label
_atom_site_fract_x
_atom_site_fract_y
_atom_site_fract_z
Si Si1 0.000000 0.628437 0.169676
Si Si2 0.500000 0.258570 0.326870
Si Si3 0.759548 0.348475 0.576554
Si Si4 0.901091 0.565450 0.672828
Si Si5 0.903705 0.217577 0.452873
Si Si6 0.158162 0.226063 0.898271
Si Si7 0.334158 0.936478 0.828154
Si Si8 0.678512 0.161130 0.573960
O O1 0.918594 0.593966 0.143575
O O2 0.000000 0.627850 0.250000
O O3 0.000000 0.693982 0.136170
O O4 0.500000 0.243983 0.250000
O O5 0.413126 0.292416 0.344021
O O6 0.659838 0.333647 0.572648
O O7 0.804997 0.292415 0.612893
O O8 0.763118 0.407847 0.622987
O O9 0.802292 0.359418 0.503007
O O10 0.889439 0.589100 0.750000
O O11 0.844167 0.506849 0.662576
O O12 0.867403 0.611114 0.617477
O O13 0.000000 0.551415 0.659990
O O14 0.891257 0.223524 0.532024
O O15 0.881818 0.281598 0.421201
O O16 0.000000 0.200082 0.434682
O O17 0.231908 0.177590 0.892193
O O18 0.314391 0.920692 0.750000
#
# Coordination Sequence:
#
# PCOD8256167 Si02
#       8
#     8   8  16  16  16  16  16  16
#     4   9  16  26  42  64  94 122 147 184 232 282
#     4  11  18  24  44  73  95 122 158 194 236 287
#     4   9  18  30  47  72  96 120 159 197 232 280
#     4  10  20  34  49  66  94 131 162 185 227 287
#     4   9  16  30  50  67  94 128 154 188 237 281
#     4   9  17  29  44  67  98 126 150 189 239 281
#     4  10  18  31  48  68  95 125 154 190 236 282
#     4   9  19  32  46  70  97 126 160 191 226 277
#
# _framework density 15.933317000000001
#
# number of rings (size 3 to 8) (size 9 to 14) (size 15 to 20)
#    0.000    2.571    2.857    2.143    0.000    1.143 
#    1.286    2.857    0.000    1.286    1.857    2.000 
#    0.000    0.000    0.000    0.000    0.000    0.000 
#
# Total GULP energy -693932.781533 kJ/mol
# GULP energy per Si atom -12391.656813 kJ/mol
# Density = 1.589705 g / cm^3
# Si number density = 15.933317 Si / 1000 Ang^3
#
#
#
# Elastic Constant Matrix: (Units=GPa)
#
#
# Indices 1 2 3 4 5 6 
#
# 1 102.5221 30.2591 35.8587 0.0000 0.0000 0.0000
# 2 30.2591 67.9659 43.6066 0.0000 0.0000 0.0000
# 3 35.8587 43.6066 62.3738 0.0000 0.0000 0.0000
# 4 0.0000 0.0000 0.0000 27.7457 0.0000 0.0000
# 5 0.0000 0.0000 0.0000 0.0000 24.2241 0.0000
# 6 0.0000 0.0000 0.0000 0.0000 0.0000 19.6102
#
#
#
# Elastic Compliance Matrix: (Units=1/GPa)
#
#
# Indices 1 2 3 4 5 6 
#
# 1 0.012317 -0.001706 -0.005889 0.000000 0.000000 0.000000
# 2 -0.001706 0.026917 -0.017838 0.000000 0.000000 0.000000
# 3 -0.005889 -0.017838 0.031888 0.000000 0.000000 0.000000
# 4 0.000000 0.000000 0.000000 0.036042 0.000000 0.000000
# 5 0.000000 0.000000 0.000000 0.000000 0.041281 0.000000
# 6 0.000000 0.000000 0.000000 0.000000 0.000000 0.050994
#
#
# Mechanical properties :
#
#
# Convention : Reuss Voigt Hill
#
# Bulk Modulus (GPa) = 49.36145 50.25675 49.80910
# Shear Modulus (GPa) = 19.45099 22.52517 20.98808
#
# Velocity S-wave (km/s) = 3.49775 3.76402 3.63332
# Velocity P-wave (km/s) = 6.88183 7.10640 6.99501
#
# Compressibility (1/GPa) = 0.02025872
#
# Stress axis : x y z
#
# Youngs Moduli (GPa) = 81.18833 37.15097 31.35929
#
# Poissons Ratio (x) = 0.06336 0.18467
# Poissons Ratio (y) = 0.13847 0.55938
# Poissons Ratio (z) = 0.47809 0.66269
#
# Static dielectric constant tensor:
#      x y z
#    x 2.562390 0.000000 0.000000 
#    y 0.000000 2.798170 0.000000 
#    z 0.000000 0.000000 2.886550 
# 
# 
# High freq. dielectric constant tensor:
#      x y z
#    x 1.608500 0.000000 0.000000 
#    y 0.000000 1.585110 0.000000 
#    z 0.000000 0.000000 1.601720 
# 
# From -- ./inp_files/56016.got.cif
#   From: 2010.03.12/outbox.cif.g09.slc.cpg/sg63_29_cif.got.tgz:56016.got - 2010.04.10 19:34:48.
