data_PCOD8256541
_publ_section_title
;
Structure prediction by ZEFSAII (Michael W. Deem and Ramdas Pophale) SiO2 
 PCOD8256541
Probable space group: C M C M
;
_chemical_formula_sum "Si O2"
_cell_formula_units_Z 72
_cell_length_a 17.899418
_cell_length_b 14.402478
_cell_length_c 15.245356
_cell_angle_alpha 90.000000
_cell_angle_beta 90.000000
_cell_angle_gamma 90.000000
_cell_volume 3930.191398
_symmetry_space_group_name_H-M "C M C M"
_symmetry_group_IT_number 63
_symmetry_cell_setting 'orthorhombic'
loop_
_space_group_symop_operation_xyz
x,y,z
-x,-y,1/2+z
x,-y,-z
-x,y,1/2-z
-x,-y,-z
x,y,1/2-z
-x,y,z
x,-y,1/2+z
1/2+x,1/2+y,z
1/2-x,1/2-y,1/2+z
1/2+x,1/2-y,-z
1/2-x,1/2+y,1/2-z
1/2-x,1/2-y,-z
1/2+x,1/2+y,1/2-z
1/2-x,1/2+y,z
1/2+x,1/2-y,1/2+z
loop_
_atom_site_type_symbol
_atom_site_label
_atom_site_fract_x
_atom_site_fract_y
_atom_site_fract_z
Si Si1 0.309008 0.193236 0.442348
Si Si2 0.258455 0.508400 0.750000
Si Si3 0.345604 0.188132 0.750000
Si Si4 0.586753 0.255672 0.919010
Si Si5 0.791248 0.308137 0.750000
Si Si6 0.816189 0.060279 0.419745
O O1 0.250000 0.250000 0.500000
O O2 0.386818 0.198340 0.494565
O O3 0.324915 0.231394 0.342235
O O4 0.270251 0.092399 0.435673
O O5 0.208853 0.600230 0.750000
O O6 0.203208 0.419578 0.750000
O O7 0.313479 0.505498 0.665772
O O8 0.397599 0.189395 0.664203
O O9 0.296244 0.281797 0.750000
O O10 0.500000 0.276500 0.928300
O O11 0.628657 0.353313 0.907312
O O12 0.846552 0.000000 0.500000
#
# Coordination Sequence:
#
# PCOD8256541 Si02
#       6
#    16   8   8  16   8  16
#     4   9  17  33  54  80 108 147 190 234 276 328
#     4  10  20  32  58  87 109 138 186 248 291 321
#     4  12  19  35  61  85 111 148 190 243 290 331
#     4  11  22  36  55  84 123 154 183 233 301 353
#     4  10  18  35  57  84 111 140 196 249 278 322
#     4  10  19  34  56  83 113 146 193 239 276 336
#
# _framework density 18.319718999999999
#
# number of rings (size 3 to 8) (size 9 to 14) (size 15 to 20)
#    0.000    1.778    6.667    1.667    3.111    0.444 
#    0.000    0.556    0.000   22.000    0.000    0.000 
#    0.000    0.000    0.000    0.000    0.000    0.000 
#
# Total GULP energy -445974.838409 kJ/mol
# GULP energy per Si atom -12388.189956 kJ/mol
# Density = 1.827802 g / cm^3
# Si number density = 18.319719 Si / 1000 Ang^3
#
#
#
# Elastic Constant Matrix: (Units=GPa)
#
#
# Indices 1 2 3 4 5 6 
#
# 1 98.9555 33.3316 47.6841 0.0000 0.0000 0.0000
# 2 33.3316 55.5169 27.5220 0.0000 0.0000 0.0000
# 3 47.6841 27.5220 194.5731 0.0000 0.0000 0.0000
# 4 0.0000 0.0000 0.0000 27.8818 0.0000 0.0000
# 5 0.0000 0.0000 0.0000 0.0000 18.8721 0.0000
# 6 0.0000 0.0000 0.0000 0.0000 0.0000 15.4653
#
#
#
# Elastic Compliance Matrix: (Units=1/GPa)
#
#
# Indices 1 2 3 4 5 6 
#
# 1 0.013591 -0.007000 -0.002341 0.000000 0.000000 0.000000
# 2 -0.007000 0.022976 -0.001534 0.000000 0.000000 0.000000
# 3 -0.002341 -0.001534 0.005930 0.000000 0.000000 0.000000
# 4 0.000000 0.000000 0.000000 0.035866 0.000000 0.000000
# 5 0.000000 0.000000 0.000000 0.000000 0.052988 0.000000
# 6 0.000000 0.000000 0.000000 0.000000 0.000000 0.064661
#
#
# Mechanical properties :
#
#
# Convention : Reuss Voigt Hill
#
# Bulk Modulus (GPa) = 48.19863 62.90233 55.55048
# Shear Modulus (GPa) = 22.25415 28.47768 25.36592
#
# Velocity S-wave (km/s) = 3.48913 3.94697 3.72509
# Velocity P-wave (km/s) = 6.52678 7.42845 6.99216
#
# Compressibility (1/GPa) = 0.02074748
#
# Stress axis : x y z
#
# Youngs Moduli (GPa) = 73.57716 43.52424 168.62983
#
# Poissons Ratio (x) = 0.30465 0.39472
# Poissons Ratio (y) = 0.51501 0.25876
# Poissons Ratio (z) = 0.17222 0.06679
#
# Static dielectric constant tensor:
#      x y z
#    x 3.110910 0.000000 0.000000 
#    y 0.000000 3.223090 0.000000 
#    z 0.000000 0.000000 4.185780 
# 
# 
# High freq. dielectric constant tensor:
#      x y z
#    x 1.654140 0.000000 0.000000 
#    y 0.000000 1.692740 0.000000 
#    z 0.000000 0.000000 1.745140 
# 
# From -- ./inp_files/33693.got.cif
#   From: 2010.03.12/outbox.cif.g09.slc.cpg/sg63_17_cif.got.tgz:33693.got - 2010.04.10 19:34:48.
