data_PCOD8256988
_publ_section_title
;
Structure prediction by ZEFSAII (Michael W. Deem and Ramdas Pophale) SiO2 
 PCOD8256988
Probable space group: C M C M
;
_chemical_formula_sum "Si O2"
_cell_formula_units_Z 96
_cell_length_a 9.135538
_cell_length_b 18.330191
_cell_length_c 31.032920
_cell_angle_alpha 90.000000
_cell_angle_beta 90.000000
_cell_angle_gamma 90.000000
_cell_volume 5196.653506
_symmetry_space_group_name_H-M "C M C M"
_symmetry_group_IT_number 63
_symmetry_cell_setting 'orthorhombic'
loop_
_space_group_symop_operation_xyz
x,y,z
-x,-y,1/2+z
x,-y,-z
-x,y,1/2-z
-x,-y,-z
x,y,1/2-z
-x,y,z
x,-y,1/2+z
1/2+x,1/2+y,z
1/2-x,1/2-y,1/2+z
1/2+x,1/2-y,-z
1/2-x,1/2+y,1/2-z
1/2-x,1/2-y,-z
1/2+x,1/2+y,1/2-z
1/2-x,1/2+y,z
1/2+x,1/2-y,1/2+z
loop_
_atom_site_type_symbol
_atom_site_label
_atom_site_fract_x
_atom_site_fract_y
_atom_site_fract_z
Si Si1 0.673846 0.042486 0.202309
Si Si2 0.328704 0.208295 0.038112
Si Si3 0.673918 0.043546 0.458916
Si Si4 0.673746 0.794387 0.702107
Si Si5 0.174069 0.548575 0.877627
Si Si6 0.328443 0.700946 0.877189
O O1 0.724156 0.016580 0.250000
O O2 0.500000 0.045048 0.199563
O O3 0.734467 0.124014 0.193119
O O4 0.734193 0.985968 0.166974
O O5 0.500000 0.208578 0.027989
O O6 0.266474 0.126045 0.040274
O O7 0.293602 0.245672 0.083450
O O8 0.250000 0.250000 0.000000
O O9 0.500000 0.044450 0.459879
O O10 0.736952 0.000000 0.500000
O O11 0.728887 0.003885 0.415805
O O12 0.722782 0.768427 0.750000
O O13 0.500000 0.796976 0.698932
O O14 0.734123 0.738740 0.666285
O O15 0.243034 0.626897 0.884913
O O16 0.000000 0.556776 0.877662
O O17 0.500000 0.684119 0.873431
#
# Coordination Sequence:
#
# PCOD8256988 Si02
#       6
#    16  16  16  16  16  16
#     4   8  14  26  46  71  94 118 156 202 237 268
#     4  10  20  34  52  73  97 124 156 196 239 283
#     4   9  17  30  49  70  90 116 154 194 227 267
#     4   8  14  27  48  71  95 126 163 199 236 281
#     4  10  19  31  49  71  95 125 159 194 234 278
#     4  10  20  32  47  71 101 128 156 193 236 282
#
# _framework density 18.473427000000001
#
# number of rings (size 3 to 8) (size 9 to 14) (size 15 to 20)
#    0.000    2.833    0.000    3.000    0.000    6.667 
#    0.000    0.833    0.000    6.000    0.000    2.333 
#    0.000    0.000    0.000    0.000    0.000    0.000 
#
# Total GULP energy -595066.861336 kJ/mol
# GULP energy per Si atom -12397.226278 kJ/mol
# Density = 1.843138 g / cm^3
# Si number density = 18.473427 Si / 1000 Ang^3
#
#
#
# Elastic Constant Matrix: (Units=GPa)
#
#
# Indices 1 2 3 4 5 6 
#
# 1 17.3300 30.6722 30.5975 0.0000 0.0000 0.0000
# 2 30.6722 168.1137 94.6488 0.0000 0.0000 0.0000
# 3 30.5975 94.6488 163.9752 0.0000 0.0000 0.0000
# 4 0.0000 0.0000 0.0000 41.2352 0.0000 0.0000
# 5 0.0000 0.0000 0.0000 0.0000 13.9073 0.0000
# 6 0.0000 0.0000 0.0000 0.0000 0.0000 23.8035
#
#
#
# Elastic Compliance Matrix: (Units=1/GPa)
#
#
# Indices 1 2 3 4 5 6 
#
# 1 0.098728 -0.011319 -0.011889 0.000000 0.000000 0.000000
# 2 -0.011319 0.010110 -0.003723 0.000000 0.000000 0.000000
# 3 -0.011889 -0.003723 0.010466 0.000000 0.000000 0.000000
# 4 0.000000 0.000000 0.000000 0.024251 0.000000 0.000000
# 5 0.000000 0.000000 0.000000 0.000000 0.071905 0.000000
# 6 0.000000 0.000000 0.000000 0.000000 0.000000 0.042011
#
#
# Mechanical properties :
#
#
# Convention : Reuss Voigt Hill
#
# Bulk Modulus (GPa) = 15.28092 73.47286 44.37689
# Shear Modulus (GPa) = 15.00837 28.68923 21.84880
#
# Velocity S-wave (km/s) = 2.85341 3.94509 3.44279
# Velocity P-wave (km/s) = 4.37558 7.78525 6.31490
#
# Compressibility (1/GPa) = 0.06544109
#
# Stress axis : x y z
#
# Youngs Moduli (GPa) = 10.12880 98.91357 95.54666
#
# Poissons Ratio (x) = 1.11964 1.13594
# Poissons Ratio (y) = 0.11465 0.35575
# Poissons Ratio (z) = 0.12042 0.36829
#
# Static dielectric constant tensor:
#      x y z
#    x 2.807830 0.000000 0.000000 
#    y 0.000000 3.549370 0.000000 
#    z 0.000000 0.000000 2.883850 
# 
# 
# High freq. dielectric constant tensor:
#      x y z
#    x 1.651400 0.000000 0.000000 
#    y 0.000000 1.725680 0.000000 
#    z 0.000000 0.000000 1.738020 
# 
# From -- ./inp_files/68304.got.cif
#   From: 2010.03.12/outbox.cif.g09.slc.cpg/sg63_35_cif.got.tgz:68304.got - 2010.04.10 19:34:48.
