data_PCOD8256879
_publ_section_title
;
Structure prediction by ZEFSAII (Michael W. Deem and Ramdas Pophale) SiO2 
 PCOD8256879
Probable space group: C M C M
;
_chemical_formula_sum "Si O2"
_cell_formula_units_Z 72
_cell_length_a 23.542325
_cell_length_b 23.227391
_cell_length_c 8.505192
_cell_angle_alpha 90.000000
_cell_angle_beta 90.000000
_cell_angle_gamma 90.000000
_cell_volume 4650.866821
_symmetry_space_group_name_H-M "C M C M"
_symmetry_group_IT_number 63
_symmetry_cell_setting 'orthorhombic'
loop_
_space_group_symop_operation_xyz
x,y,z
-x,-y,1/2+z
x,-y,-z
-x,y,1/2-z
-x,-y,-z
x,y,1/2-z
-x,y,z
x,-y,1/2+z
1/2+x,1/2+y,z
1/2-x,1/2-y,1/2+z
1/2+x,1/2-y,-z
1/2-x,1/2+y,1/2-z
1/2-x,1/2-y,-z
1/2+x,1/2+y,1/2-z
1/2-x,1/2+y,z
1/2+x,1/2-y,1/2+z
loop_
_atom_site_type_symbol
_atom_site_label
_atom_site_fract_x
_atom_site_fract_y
_atom_site_fract_z
Si Si1 0.721232 0.438435 0.067497
Si Si2 0.721803 0.161480 0.428796
Si Si3 0.000000 0.936210 0.563999
Si Si4 0.673421 0.275269 0.066656
Si Si5 0.387088 0.373849 0.935451
O O1 0.707795 0.443163 0.250000
O O2 0.738358 0.500000 0.000000
O O3 0.774973 0.395334 0.037974
O O4 0.665630 0.414600 0.980490
O O5 0.719170 0.139816 0.250000
O O6 0.669316 0.205866 0.464941
O O7 0.778320 0.198946 0.454059
O O8 0.055557 0.903120 0.501287
O O9 0.000000 0.939188 0.750000
O O10 0.000000 0.000000 0.500000
O O11 0.688129 0.286335 0.250000
O O12 0.616933 0.310634 0.018389
O O13 0.388920 0.365407 0.750000
#
# Coordination Sequence:
#
# PCOD8256879 Si02
#       5
#    16  16   8  16  16
#     4  11  20  29  41  58  80 106 136 165 199 239
#     4   9  16  26  40  58  79 101 127 159 194 235
#     4  10  22  34  44  58  76 104 139 176 211 242
#     4   9  16  26  41  60  78  98 127 161 199 239
#     4  10  19  31  44  58  77 102 136 173 208 241
#
# _framework density 15.480985
#
# number of rings (size 3 to 8) (size 9 to 14) (size 15 to 20)
#    0.000    2.222    0.000    7.333    0.000    6.222 
#    0.000    0.000    0.000    0.000    0.000    0.000 
#    0.000    0.000    0.000    1.000    0.000   12.889 
#
# Total GULP energy -446052.306236 kJ/mol
# GULP energy per Si atom -12390.341840 kJ/mol
# Density = 1.544575 g / cm^3
# Si number density = 15.480985 Si / 1000 Ang^3
#
#
#
# Elastic Constant Matrix: (Units=GPa)
#
#
# Indices 1 2 3 4 5 6 
#
# 1 49.3651 54.2508 14.4829 0.0000 0.0000 0.0000
# 2 54.2508 134.5923 28.1467 0.0000 0.0000 0.0000
# 3 14.4829 28.1467 50.8247 0.0000 0.0000 0.0000
# 4 0.0000 0.0000 0.0000 27.7684 0.0000 0.0000
# 5 0.0000 0.0000 0.0000 0.0000 14.1416 0.0000
# 6 0.0000 0.0000 0.0000 0.0000 0.0000 23.3430
#
#
#
# Elastic Compliance Matrix: (Units=1/GPa)
#
#
# Indices 1 2 3 4 5 6 
#
# 1 0.036658 -0.014241 -0.002560 0.000000 0.000000 0.000000
# 2 -0.014241 0.013935 -0.003659 0.000000 0.000000 0.000000
# 3 -0.002560 -0.003659 0.022431 0.000000 0.000000 0.000000
# 4 0.000000 0.000000 0.000000 0.036012 0.000000 0.000000
# 5 0.000000 0.000000 0.000000 0.000000 0.070713 0.000000
# 6 0.000000 0.000000 0.000000 0.000000 0.000000 0.042839
#
#
# Mechanical properties :
#
#
# Convention : Reuss Voigt Hill
#
# Bulk Modulus (GPa) = 31.14717 47.61589 39.38153
# Shear Modulus (GPa) = 18.23414 22.24404 20.23909
#
# Velocity S-wave (km/s) = 3.43569 3.79471 3.61965
# Velocity P-wave (km/s) = 5.99182 7.07278 6.55462
#
# Compressibility (1/GPa) = 0.03210565
#
# Stress axis : x y z
#
# Youngs Moduli (GPa) = 27.27888 71.76071 44.58044
#
# Poissons Ratio (x) = 1.02193 0.11411
# Poissons Ratio (y) = 0.38847 0.16313
# Poissons Ratio (z) = 0.06982 0.26259
#
# Static dielectric constant tensor:
#      x y z
#    x 2.822880 0.000000 0.000000 
#    y 0.000000 3.826130 0.000000 
#    z 0.000000 0.000000 3.015090 
# 
# 
# High freq. dielectric constant tensor:
#      x y z
#    x 1.526200 0.000000 0.000000 
#    y 0.000000 1.602210 0.000000 
#    z 0.000000 0.000000 1.610000 
# 
# From -- ./inp_files/8003.got.cif
#   From: 2010.03.12/outbox.cif.g09.slc.cpg/sg63_5_cif.got.tgz:8003.got - 2010.04.10 19:34:48.
