data_PCOD8256282
_publ_section_title
;
Structure prediction by ZEFSAII (Michael W. Deem and Ramdas Pophale) SiO2 
 PCOD8256282
Probable space group: C M C M
;
_chemical_formula_sum "Si O2"
_cell_formula_units_Z 96
_cell_length_a 22.175784
_cell_length_b 10.197837
_cell_length_c 24.335811
_cell_angle_alpha 90.000000
_cell_angle_beta 90.000000
_cell_angle_gamma 90.000000
_cell_volume 5503.422723
_symmetry_space_group_name_H-M "C M C M"
_symmetry_group_IT_number 63
_symmetry_cell_setting 'orthorhombic'
loop_
_space_group_symop_operation_xyz
x,y,z
-x,-y,1/2+z
x,-y,-z
-x,y,1/2-z
-x,-y,-z
x,y,1/2-z
-x,y,z
x,-y,1/2+z
1/2+x,1/2+y,z
1/2-x,1/2-y,1/2+z
1/2+x,1/2-y,-z
1/2-x,1/2+y,1/2-z
1/2-x,1/2-y,-z
1/2+x,1/2+y,1/2-z
1/2-x,1/2+y,z
1/2+x,1/2-y,1/2+z
loop_
_atom_site_type_symbol
_atom_site_label
_atom_site_fract_x
_atom_site_fract_y
_atom_site_fract_z
Si Si1 0.122396 0.776737 0.939451
Si Si2 0.881096 0.521187 0.414955
Si Si3 0.193290 0.738295 0.461684
Si Si4 0.233739 0.239843 0.139152
Si Si5 0.000000 0.867129 0.532832
Si Si6 0.195321 0.504368 0.187499
Si Si7 0.500000 0.117114 0.457370
O O1 0.108226 0.621851 0.939937
O O2 0.173614 0.806377 0.894199
O O3 0.059929 0.854802 0.928497
O O4 0.142039 0.813907 0.002705
O O5 0.827231 0.588498 0.449851
O O6 0.863339 0.516670 0.350849
O O7 0.941394 0.607483 0.418604
O O8 0.250000 0.750000 0.500000
O O9 0.214162 0.795362 0.402603
O O10 0.222374 0.358803 0.180459
O O11 0.254878 0.113773 0.173072
O O12 0.000000 0.754396 0.487600
O O13 0.000000 0.000000 0.500000
O O14 0.174393 0.522671 0.250000
O O15 0.500000 0.000000 0.500000
#
# Coordination Sequence:
#
# PCOD8256282 Si02
#       7
#    16  16  16  16   8  16   8
#     4  10  18  33  49  75 108 140 174 209 254 318
#     4  10  18  31  55  77  96 140 186 212 253 315
#     4   9  16  27  47  77 107 131 166 212 255 311
#     4   9  20  32  53  75 102 136 172 215 267 318
#     4  12  24  32  48  78 114 146 170 212 254 307
#     4  10  20  36  53  75 103 132 176 226 269 310
#     4  12  18  34  59  74 103 146 178 202 253 327
#
# _framework density 17.44369
#
# number of rings (size 3 to 8) (size 9 to 14) (size 15 to 20)
#    0.000    2.000    3.333    1.000    0.000    2.667 
#    0.000    5.417    0.000    0.000    0.000    1.750 
#    0.000    0.000    0.000    0.000    0.000    0.000 
#
# Total GULP energy -594661.271317 kJ/mol
# GULP energy per Si atom -12388.776486 kJ/mol
# Density = 1.740399 g / cm^3
# Si number density = 17.443690 Si / 1000 Ang^3
#
#
#
# Elastic Constant Matrix: (Units=GPa)
#
#
# Indices 1 2 3 4 5 6 
#
# 1 96.8372 34.7091 41.9530 0.0000 0.0000 0.0000
# 2 34.7091 78.5635 27.6850 0.0000 0.0000 0.0000
# 3 41.9530 27.6850 100.9684 0.0000 0.0000 0.0000
# 4 0.0000 0.0000 0.0000 22.2751 0.0000 0.0000
# 5 0.0000 0.0000 0.0000 0.0000 16.7477 0.0000
# 6 0.0000 0.0000 0.0000 0.0000 0.0000 23.2082
#
#
#
# Elastic Compliance Matrix: (Units=1/GPa)
#
#
# Indices 1 2 3 4 5 6 
#
# 1 0.013924 -0.004553 -0.004537 0.000000 0.000000 0.000000
# 2 -0.004553 0.015579 -0.002380 0.000000 0.000000 0.000000
# 3 -0.004537 -0.002380 0.012442 0.000000 0.000000 0.000000
# 4 0.000000 0.000000 0.000000 0.044893 0.000000 0.000000
# 5 0.000000 0.000000 0.000000 0.000000 0.059710 0.000000
# 6 0.000000 0.000000 0.000000 0.000000 0.000000 0.043088
#
#
# Mechanical properties :
#
#
# Convention : Reuss Voigt Hill
#
# Bulk Modulus (GPa) = 52.61800 53.89592 53.25696
# Shear Modulus (GPa) = 22.84038 23.91432 23.37735
#
# Velocity S-wave (km/s) = 3.62246 3.70664 3.66479
# Velocity P-wave (km/s) = 6.90842 7.02019 6.96453
#
# Compressibility (1/GPa) = 0.01900490
#
# Stress axis : x y z
#
# Youngs Moduli (GPa) = 71.81789 64.19072 80.37368
#
# Poissons Ratio (x) = 0.29224 0.36467
# Poissons Ratio (y) = 0.32697 0.19128
# Poissons Ratio (z) = 0.32585 0.15277
#
# Static dielectric constant tensor:
#      x y z
#    x 3.765110 0.000000 0.000000 
#    y 0.000000 2.780360 0.000000 
#    z 0.000000 0.000000 3.196540 
# 
# 
# High freq. dielectric constant tensor:
#      x y z
#    x 1.676950 0.000000 0.000000 
#    y 0.000000 1.662340 0.000000 
#    z 0.000000 0.000000 1.648760 
# 
# From -- ./inp_files/65031.got.cif
#   From: 2010.03.12/outbox.cif.g09.slc.cpg/sg63_33_cif.got.tgz:65031.got - 2010.04.10 19:34:48.
