data_PCOD8256026
_publ_section_title
;
Structure prediction by ZEFSAII (Michael W. Deem and Ramdas Pophale) SiO2 
 PCOD8256026
Probable space group: C M C M
;
_chemical_formula_sum "Si O2"
_cell_formula_units_Z 80
_cell_length_a 13.631368
_cell_length_b 12.840395
_cell_length_c 27.662907
_cell_angle_alpha 90.000000
_cell_angle_beta 90.000000
_cell_angle_gamma 90.000000
_cell_volume 4841.898074
_symmetry_space_group_name_H-M "C M C M"
_symmetry_group_IT_number 63
_symmetry_cell_setting 'orthorhombic'
loop_
_space_group_symop_operation_xyz
x,y,z
-x,-y,1/2+z
x,-y,-z
-x,y,1/2-z
-x,-y,-z
x,y,1/2-z
-x,y,z
x,-y,1/2+z
1/2+x,1/2+y,z
1/2-x,1/2-y,1/2+z
1/2+x,1/2-y,-z
1/2-x,1/2+y,1/2-z
1/2-x,1/2-y,-z
1/2+x,1/2+y,1/2-z
1/2-x,1/2+y,z
1/2+x,1/2-y,1/2+z
loop_
_atom_site_type_symbol
_atom_site_label
_atom_site_fract_x
_atom_site_fract_y
_atom_site_fract_z
Si Si1 0.889471 0.721926 0.196740
Si Si2 0.613042 0.495857 0.055778
Si Si3 0.230379 0.052562 0.195529
Si Si4 0.228365 0.138314 0.628827
Si Si5 0.613266 0.685233 0.123574
O O1 0.877000 0.774504 0.250000
O O2 0.829793 0.616290 0.194999
O O3 0.858105 0.798955 0.154543
O O4 0.000000 0.689371 0.186660
O O5 0.500000 0.461560 0.063325
O O6 0.684533 0.411134 0.080092
O O7 0.630020 0.610972 0.077415
O O8 0.642146 0.500000 0.000000
O O9 0.196679 0.025227 0.250000
O O10 0.143213 0.119618 0.171126
O O11 0.259726 0.950042 0.166345
O O12 0.321454 0.211147 0.616803
O O13 0.500000 0.719211 0.128581
#
# Coordination Sequence:
#
# PCOD8256026 Si02
#       5
#    16  16  16  16  16
#     4   9  17  29  45  66  91 118 151 188 222 262
#     4   9  18  33  51  70  92 118 151 192 237 283
#     4   9  18  31  45  65  94 124 152 183 221 266
#     4  10  18  30  49  69  92 121 153 189 229 274
#     4   9  19  33  48  69  94 121 155 192 229 271
#
# _framework density 16.522445999999999
#
# number of rings (size 3 to 8) (size 9 to 14) (size 15 to 20)
#    0.000    2.800    0.000    1.200    0.000    3.600 
#    0.000    0.000    0.000    0.600    0.000    0.000 
#    0.000    0.000    0.000    0.000    0.000    0.000 
#
# Total GULP energy -495901.330450 kJ/mol
# GULP energy per Si atom -12397.533261 kJ/mol
# Density = 1.648484 g / cm^3
# Si number density = 16.522446 Si / 1000 Ang^3
#
#
#
# Elastic Constant Matrix: (Units=GPa)
#
#
# Indices 1 2 3 4 5 6 
#
# 1 118.0422 58.0471 62.2216 0.0000 0.0000 0.0000
# 2 58.0471 99.0112 60.5029 0.0000 0.0000 0.0000
# 3 62.2216 60.5029 136.3819 0.0000 0.0000 0.0000
# 4 0.0000 0.0000 0.0000 18.3404 0.0000 0.0000
# 5 0.0000 0.0000 0.0000 0.0000 20.9083 0.0000
# 6 0.0000 0.0000 0.0000 0.0000 0.0000 21.7553
#
#
#
# Elastic Compliance Matrix: (Units=1/GPa)
#
#
# Indices 1 2 3 4 5 6 
#
# 1 0.013019 -0.005492 -0.003503 0.000000 0.000000 0.000000
# 2 -0.005492 0.016173 -0.004669 0.000000 0.000000 0.000000
# 3 -0.003503 -0.004669 0.011002 0.000000 0.000000 0.000000
# 4 0.000000 0.000000 0.000000 0.054525 0.000000 0.000000
# 5 0.000000 0.000000 0.000000 0.000000 0.047828 0.000000
# 6 0.000000 0.000000 0.000000 0.000000 0.000000 0.045966
#
#
# Mechanical properties :
#
#
# Convention : Reuss Voigt Hill
#
# Bulk Modulus (GPa) = 77.72951 79.44206 78.58579
# Shear Modulus (GPa) = 22.71404 23.71172 23.21288
#
# Velocity S-wave (km/s) = 3.71177 3.79241 3.75231
# Velocity P-wave (km/s) = 8.09423 8.20745 8.15103
#
# Compressibility (1/GPa) = 0.01286513
#
# Stress axis : x y z
#
# Youngs Moduli (GPa) = 76.81265 61.83261 90.89245
#
# Poissons Ratio (x) = 0.33957 0.31842
# Poissons Ratio (y) = 0.42183 0.42439
# Poissons Ratio (z) = 0.26909 0.28871
#
# Static dielectric constant tensor:
#      x y z
#    x 3.033330 0.000000 0.000000 
#    y 0.000000 3.122140 0.000000 
#    z 0.000000 0.000000 3.301570 
# 
# 
# High freq. dielectric constant tensor:
#      x y z
#    x 1.633100 0.000000 0.000000 
#    y 0.000000 1.633720 0.000000 
#    z 0.000000 0.000000 1.636240 
# 
# From -- ./inp_files/62547.got.cif
#   From: 2010.03.12/outbox.cif.g09.slc.cpg/sg63_32_cif.got.tgz:62547.got - 2010.04.10 19:34:48.
