data_PCOD8256895
_publ_section_title
;
Structure prediction by ZEFSAII (Michael W. Deem and Ramdas Pophale) SiO2 
 PCOD8256895
Probable space group: C M C M
;
_chemical_formula_sum "Si O2"
_cell_formula_units_Z 80
_cell_length_a 18.833263
_cell_length_b 29.337491
_cell_length_c 9.990850
_cell_angle_alpha 90.000000
_cell_angle_beta 90.000000
_cell_angle_gamma 90.000000
_cell_volume 5520.151273
_symmetry_space_group_name_H-M "C M C M"
_symmetry_group_IT_number 63
_symmetry_cell_setting 'orthorhombic'
loop_
_space_group_symop_operation_xyz
x,y,z
-x,-y,1/2+z
x,-y,-z
-x,y,1/2-z
-x,-y,-z
x,y,1/2-z
-x,y,z
x,-y,1/2+z
1/2+x,1/2+y,z
1/2-x,1/2-y,1/2+z
1/2+x,1/2-y,-z
1/2-x,1/2+y,1/2-z
1/2-x,1/2-y,-z
1/2+x,1/2+y,1/2-z
1/2-x,1/2+y,z
1/2+x,1/2-y,1/2+z
loop_
_atom_site_type_symbol
_atom_site_label
_atom_site_fract_x
_atom_site_fract_y
_atom_site_fract_z
Si Si1 0.655466 0.777199 0.595491
Si Si2 0.582321 0.543066 0.750000
Si Si3 0.000000 0.163844 0.591017
Si Si4 0.270447 0.683008 0.595199
Si Si5 0.916885 0.064837 0.250000
Si Si6 0.369426 0.395466 0.479643
Si Si7 0.000000 0.736430 0.407098
O O1 0.670247 0.791036 0.750000
O O2 0.671157 0.723140 0.576693
O O3 0.702785 0.807144 0.497100
O O4 0.573631 0.788585 0.553626
O O5 0.500000 0.559409 0.750000
O O6 0.587090 0.489264 0.750000
O O7 0.622469 0.562259 0.879172
O O8 0.931719 0.139821 0.535668
O O9 0.000000 0.213866 0.526735
O O10 0.000000 0.163246 0.750000
O O11 0.246688 0.680517 0.750000
O O12 0.298515 0.633548 0.548782
O O13 0.872251 0.083982 0.373254
O O14 0.000000 0.080021 0.250000
O O15 0.000000 0.744401 0.250000
#
# Coordination Sequence:
#
# PCOD8256895 Si02
#       7
#    16   8   8  16   8  16   8
#     4   9  18  30  46  67  90 116 152 195 229 262
#     4  11  20  34  50  63  86 123 161 194 231 273
#     4  11  16  27  46  67  83 122 168 187 213 270
#     4  10  19  31  46  65  89 121 157 188 224 270
#     4  11  24  32  42  69  96 115 151 206 243 259
#     4  12  19  32  48  64  88 124 160 194 227 269
#     4   9  16  28  48  67  90 118 158 194 225 268
#
# _framework density 14.492357
#
# number of rings (size 3 to 8) (size 9 to 14) (size 15 to 20)
#    0.000    1.600    6.000    0.600    1.400    1.600 
#    0.000    0.500    2.200    0.000    0.000    0.000 
#    0.000    0.000    0.000    5.400    0.000    0.100 
#
# Total GULP energy -495800.850435 kJ/mol
# GULP energy per Si atom -12395.021261 kJ/mol
# Density = 1.445937 g / cm^3
# Si number density = 14.492357 Si / 1000 Ang^3
#
#
#
# Elastic Constant Matrix: (Units=GPa)
#
#
# Indices 1 2 3 4 5 6 
#
# 1 95.3103 34.6882 47.1512 0.0000 0.0000 0.0000
# 2 34.6882 62.3766 41.2879 0.0000 0.0000 0.0000
# 3 47.1512 41.2879 111.0197 0.0000 0.0000 0.0000
# 4 0.0000 0.0000 0.0000 5.1961 0.0000 0.0000
# 5 0.0000 0.0000 0.0000 0.0000 17.8003 0.0000
# 6 0.0000 0.0000 0.0000 0.0000 0.0000 19.9608
#
#
#
# Elastic Compliance Matrix: (Units=1/GPa)
#
#
# Indices 1 2 3 4 5 6 
#
# 1 0.014487 -0.005285 -0.004187 0.000000 0.000000 0.000000
# 2 -0.005285 0.023195 -0.006382 0.000000 0.000000 0.000000
# 3 -0.004187 -0.006382 0.013159 0.000000 0.000000 0.000000
# 4 0.000000 0.000000 0.000000 0.192453 0.000000 0.000000
# 5 0.000000 0.000000 0.000000 0.000000 0.056179 0.000000
# 6 0.000000 0.000000 0.000000 0.000000 0.000000 0.050098
#
#
# Mechanical properties :
#
#
# Convention : Reuss Voigt Hill
#
# Bulk Modulus (GPa) = 52.26456 57.21793 54.74124
# Shear Modulus (GPa) = 12.89805 18.29671 15.59738
#
# Velocity S-wave (km/s) = 2.98651 3.55703 3.28418
# Velocity P-wave (km/s) = 6.93066 7.51247 7.22742
#
# Compressibility (1/GPa) = 0.01913342
#
# Stress axis : x y z
#
# Youngs Moduli (GPa) = 69.02762 43.11359 75.99288
#
# Poissons Ratio (x) = 0.22784 0.31821
# Poissons Ratio (y) = 0.36479 0.48495
# Poissons Ratio (z) = 0.28905 0.27513
#
# Static dielectric constant tensor:
#      x y z
#    x 4.928970 0.000000 0.000000 
#    y 0.000000 2.718140 0.000000 
#    z 0.000000 0.000000 2.776840 
# 
# 
# High freq. dielectric constant tensor:
#      x y z
#    x 1.530790 0.000000 0.000000 
#    y 0.000000 1.532290 0.000000 
#    z 0.000000 0.000000 1.557280 
# 
# From -- ./inp_files/6757.got.cif
#   From: 2010.03.12/outbox.cif.g09.slc.cpg/sg63_4_cif.got.tgz:6757.got - 2010.04.10 19:34:48.
