data_PCOD8256547
_publ_section_title
;
Structure prediction by ZEFSAII (Michael W. Deem and Ramdas Pophale) SiO2 
 PCOD8256547
Probable space group: C M C M
;
_chemical_formula_sum "Si O2"
_cell_formula_units_Z 92
_cell_length_a 7.711375
_cell_length_b 26.742954
_cell_length_c 24.683470
_cell_angle_alpha 90.000000
_cell_angle_beta 90.000000
_cell_angle_gamma 90.000000
_cell_volume 5090.347290
_symmetry_space_group_name_H-M "C M C M"
_symmetry_group_IT_number 63
_symmetry_cell_setting 'orthorhombic'
loop_
_space_group_symop_operation_xyz
x,y,z
-x,-y,1/2+z
x,-y,-z
-x,y,1/2-z
-x,-y,-z
x,y,1/2-z
-x,y,z
x,-y,1/2+z
1/2+x,1/2+y,z
1/2-x,1/2-y,1/2+z
1/2+x,1/2-y,-z
1/2-x,1/2+y,1/2-z
1/2-x,1/2-y,-z
1/2+x,1/2+y,1/2-z
1/2-x,1/2+y,z
1/2+x,1/2-y,1/2+z
loop_
_atom_site_type_symbol
_atom_site_label
_atom_site_fract_x
_atom_site_fract_y
_atom_site_fract_z
Si Si1 0.189010 0.446980 0.750000
Si Si2 0.803183 0.227771 0.186743
Si Si3 0.000000 0.801516 0.186404
Si Si4 0.701206 0.380723 0.846945
Si Si5 0.500000 0.476020 0.250000
Si Si6 0.500000 0.589189 0.642742
Si Si7 0.805945 0.553712 0.567847
Si Si8 0.702438 0.556596 0.050796
O O1 0.196916 0.412483 0.697132
O O2 0.329998 0.490207 0.750000
O O3 0.000000 0.472982 0.750000
O O4 0.785516 0.215578 0.250000
O O5 0.672429 0.271359 0.169289
O O6 0.748593 0.177544 0.155105
O O7 0.000000 0.244243 0.172346
O O8 0.000000 0.852178 0.153275
O O9 0.000000 0.813089 0.250000
O O10 0.500000 0.388053 0.833175
O O11 0.748202 0.399821 0.906932
O O12 0.500000 0.441677 0.197678
O O13 0.673266 0.576681 0.610278
O O14 0.763866 0.574788 0.508039
O O15 0.798877 0.493727 0.568494
O O16 0.000000 0.570198 0.584416
O O17 0.500000 0.543802 0.049668
#
# Coordination Sequence:
#
# PCOD8256547 Si02
#       8
#     8  16   8  16   4   8  16  16
#     4  12  24  34  53  85 129 163 186 218 290 357
#     4   9  18  34  56  84 116 141 184 239 288 344
#     4  10  22  40  61  83 106 151 202 244 284 336
#     4  10  19  33  57  88 121 157 184 227 295 352
#     4  12  26  42  54  80 124 156 180 246 276 346
#     4  12  24  43  62  79 112 157 205 236 293 334
#     4  11  22  38  59  85 117 156 197 243 281 336
#     4  10  18  35  60  88 118 156 198 232 282 349
#
# _framework density 18.073423999999999
#
# number of rings (size 3 to 8) (size 9 to 14) (size 15 to 20)
#    0.000    1.565    3.913    2.609    1.217    4.174 
#    0.000    0.000    0.000    1.043    0.000    0.000 
#    0.000    0.000    0.000    0.000    0.000    0.000 
#
# Total GULP energy -570509.629217 kJ/mol
# GULP energy per Si atom -12402.383244 kJ/mol
# Density = 1.803229 g / cm^3
# Si number density = 18.073424 Si / 1000 Ang^3
#
#
#
# Elastic Constant Matrix: (Units=GPa)
#
#
# Indices 1 2 3 4 5 6 
#
# 1 135.0236 56.1242 63.0247 0.0000 0.0000 0.0000
# 2 56.1242 111.7944 71.0509 0.0000 0.0000 0.0000
# 3 63.0247 71.0509 111.7156 0.0000 0.0000 0.0000
# 4 0.0000 0.0000 0.0000 56.1056 0.0000 0.0000
# 5 0.0000 0.0000 0.0000 0.0000 -0.2451 0.0000
# 6 0.0000 0.0000 0.0000 0.0000 0.0000 0.9876
#
#
#
# Elastic Compliance Matrix: (Units=1/GPa)
#
#
# Indices 1 2 3 4 5 6 
#
# 1 0.010460 -0.002519 -0.004299 0.000000 0.000000 0.000000
# 2 -0.002519 0.015620 -0.008513 0.000000 0.000000 0.000000
# 3 -0.004299 -0.008513 0.016791 0.000000 0.000000 0.000000
# 4 0.000000 0.000000 0.000000 0.017824 0.000000 0.000000
# 5 0.000000 0.000000 0.000000 0.000000 -4.080692 0.000000
# 6 0.000000 0.000000 0.000000 0.000000 0.000000 1.012558
#
#
# Mechanical properties :
#
#
# Convention : Reuss Voigt Hill
#
# Bulk Modulus (GPa) = 81.90928 82.10369 82.00649
# Shear Modulus (GPa) = -1.68197 22.59188 10.45495
#
# Velocity S-wave (km/s) = -0.96574 3.53938 2.40775
# Velocity P-wave (km/s) = 6.64644 7.88856 7.29399
#
# Compressibility (1/GPa) = 0.01220863
#
# Stress axis : x y z
#
# Youngs Moduli (GPa) = 95.60504 64.01939 59.55584
#
# Poissons Ratio (x) = 0.16126 0.25602
# Poissons Ratio (y) = 0.24083 0.50702
# Poissons Ratio (z) = 0.41099 0.54502
#
# Static dielectric constant tensor:
#      x y z
#    x 3.496120 0.000000 0.000000 
#    y 0.000000 3.154830 0.000000 
#    z 0.000000 0.000000 3.352660 
# 
# 
# High freq. dielectric constant tensor:
#      x y z
#    x 1.715630 0.000000 0.000000 
#    y 0.000000 1.676720 0.000000 
#    z 0.000000 0.000000 1.691040 
# 
# From -- ./inp_files/60107.got.cif
#   From: 2010.03.12/outbox.cif.g09.slc.cpg/sg63_31_cif.got.tgz:60107.got - 2010.04.10 19:34:48.
