data_PCOD8256614
_publ_section_title
;
Structure prediction by ZEFSAII (Michael W. Deem and Ramdas Pophale) SiO2 
 PCOD8256614
Probable space group: C M C M
;
_chemical_formula_sum "Si O2"
_cell_formula_units_Z 112
_cell_length_a 29.637578
_cell_length_b 13.557208
_cell_length_c 17.231595
_cell_angle_alpha 90.000000
_cell_angle_beta 90.000000
_cell_angle_gamma 90.000000
_cell_volume 6923.703284
_symmetry_space_group_name_H-M "C M C M"
_symmetry_group_IT_number 63
_symmetry_cell_setting 'orthorhombic'
loop_
_space_group_symop_operation_xyz
x,y,z
-x,-y,1/2+z
x,-y,-z
-x,y,1/2-z
-x,-y,-z
x,y,1/2-z
-x,y,z
x,-y,1/2+z
1/2+x,1/2+y,z
1/2-x,1/2-y,1/2+z
1/2+x,1/2-y,-z
1/2-x,1/2+y,1/2-z
1/2-x,1/2-y,-z
1/2+x,1/2+y,1/2-z
1/2-x,1/2+y,z
1/2+x,1/2-y,1/2+z
loop_
_atom_site_type_symbol
_atom_site_label
_atom_site_fract_x
_atom_site_fract_y
_atom_site_fract_z
Si Si1 0.316326 0.087332 0.839499
Si Si2 0.597675 0.228446 0.340251
Si Si3 0.500000 0.217258 0.162519
Si Si4 0.263030 0.743095 0.088888
Si Si5 0.000000 0.486215 0.589825
Si Si6 0.229673 0.037810 0.159761
Si Si7 0.318697 0.653585 0.840957
Si Si8 0.097904 0.512315 0.408049
O O1 0.316027 0.120348 0.750000
O O2 0.303249 0.181319 0.891678
O O3 0.280893 0.998983 0.853034
O O4 0.365776 0.052349 0.863194
O O5 0.608044 0.205442 0.250000
O O6 0.547159 0.276099 0.350257
O O7 0.633033 0.309058 0.373385
O O8 0.603364 0.127329 0.387327
O O9 0.500000 0.173207 0.250000
O O10 0.500000 0.129994 0.101871
O O11 0.279813 0.633539 0.108444
O O12 0.219051 0.765569 0.139924
O O13 0.250000 0.750000 0.000000
O O14 0.000000 0.500000 0.500000
O O15 0.951836 0.527649 0.621354
O O16 0.220769 0.061392 0.250000
O O17 0.195496 0.953786 0.126495
O O18 0.320785 0.642348 0.750000
O O19 0.104176 0.500000 0.500000
#
# Coordination Sequence:
#
# PCOD8256614 Si02
#       8
#    16  16   8  16   8  16  16  16
#     4  10  21  33  47  68  93 125 161 195 238 288
#     4   9  16  28  46  68  95 122 151 190 236 284
#     4   8  14  24  42  68  93 117 146 186 235 282
#     4  11  22  31  47  67  94 121 160 200 235 266
#     4   8  16  30  40  64  91 126 150 189 234 285
#     4   9  18  34  50  64  91 126 156 189 232 282
#     4   9  18  31  48  67  89 122 158 185 229 287
#     4  10  19  28  47  66  97 123 159 192 236 285
#
# _framework density 16.176314000000001
#
# number of rings (size 3 to 8) (size 9 to 14) (size 15 to 20)
#    0.000    2.571    0.000    3.429    4.000    4.571 
#    0.000    0.000    0.000    0.000    0.000    1.000 
#    0.000    3.429    0.000    0.000    0.000    0.000 
#
# Total GULP energy -693884.065847 kJ/mol
# GULP energy per Si atom -12390.786890 kJ/mol
# Density = 1.613950 g / cm^3
# Si number density = 16.176314 Si / 1000 Ang^3
#
#
#
# Elastic Constant Matrix: (Units=GPa)
#
#
# Indices 1 2 3 4 5 6 
#
# 1 144.8714 57.5809 22.8991 0.0000 0.0000 0.0000
# 2 57.5809 96.8759 34.6093 0.0000 0.0000 0.0000
# 3 22.8991 34.6093 42.5430 0.0000 0.0000 0.0000
# 4 0.0000 0.0000 0.0000 13.3486 0.0000 0.0000
# 5 0.0000 0.0000 0.0000 0.0000 19.8109 0.0000
# 6 0.0000 0.0000 0.0000 0.0000 0.0000 25.1762
#
#
#
# Elastic Compliance Matrix: (Units=1/GPa)
#
#
# Indices 1 2 3 4 5 6 
#
# 1 0.009052 -0.005131 -0.000698 0.000000 0.000000 0.000000
# 2 -0.005131 0.017460 -0.011442 0.000000 0.000000 0.000000
# 3 -0.000698 -0.011442 0.033190 0.000000 0.000000 0.000000
# 4 0.000000 0.000000 0.000000 0.074914 0.000000 0.000000
# 5 0.000000 0.000000 0.000000 0.000000 0.050477 0.000000
# 6 0.000000 0.000000 0.000000 0.000000 0.000000 0.039720
#
#
# Mechanical properties :
#
#
# Convention : Reuss Voigt Hill
#
# Bulk Modulus (GPa) = 39.74689 57.16323 48.45506
# Shear Modulus (GPa) = 18.67459 22.94721 20.81090
#
# Velocity S-wave (km/s) = 3.40139 3.77048 3.59068
# Velocity P-wave (km/s) = 6.32853 7.37358 6.87095
#
# Compressibility (1/GPa) = 0.02515920
#
# Stress axis : x y z
#
# Youngs Moduli (GPa) = 110.46702 57.27356 30.12970
#
# Poissons Ratio (x) = 0.29388 0.02104
# Poissons Ratio (y) = 0.56682 0.34475
# Poissons Ratio (z) = 0.07714 0.65533
#
# Static dielectric constant tensor:
#      x y z
#    x 3.534800 0.000000 0.000000 
#    y 0.000000 2.921770 0.000000 
#    z 0.000000 0.000000 3.015500 
# 
# 
# High freq. dielectric constant tensor:
#      x y z
#    x 1.628650 0.000000 0.000000 
#    y 0.000000 1.592180 0.000000 
#    z 0.000000 0.000000 1.616460 
# 
# From -- ./inp_files/49663.got.cif
#   From: 2010.03.12/outbox.cif.g09.slc.cpg/sg63_25_cif.got.tgz:49663.got - 2010.04.10 19:34:48.
