data_PCOD8256304
_publ_section_title
;
Structure prediction by ZEFSAII (Michael W. Deem and Ramdas Pophale) SiO2 
 PCOD8256304
Probable space group: C M C M
;
_chemical_formula_sum "Si O2"
_cell_formula_units_Z 96
_cell_length_a 8.811750
_cell_length_b 23.818876
_cell_length_c 25.823878
_cell_angle_alpha 90.000000
_cell_angle_beta 90.000000
_cell_angle_gamma 90.000000
_cell_volume 5420.069957
_symmetry_space_group_name_H-M "C M C M"
_symmetry_group_IT_number 63
_symmetry_cell_setting 'orthorhombic'
loop_
_space_group_symop_operation_xyz
x,y,z
-x,-y,1/2+z
x,-y,-z
-x,y,1/2-z
-x,-y,-z
x,y,1/2-z
-x,y,z
x,-y,1/2+z
1/2+x,1/2+y,z
1/2-x,1/2-y,1/2+z
1/2+x,1/2-y,-z
1/2-x,1/2+y,1/2-z
1/2-x,1/2-y,-z
1/2+x,1/2+y,1/2-z
1/2-x,1/2+y,z
1/2+x,1/2-y,1/2+z
loop_
_atom_site_type_symbol
_atom_site_label
_atom_site_fract_x
_atom_site_fract_y
_atom_site_fract_z
Si Si1 0.172104 0.318216 0.032383
Si Si2 0.319724 0.983415 0.557635
Si Si3 0.680185 0.238205 0.390563
Si Si4 0.820524 0.134916 0.430544
Si Si5 0.179097 0.828000 0.192181
Si Si6 0.830913 0.589712 0.879310
O O1 0.257774 0.263870 0.055308
O O2 0.167943 0.366330 0.074656
O O3 0.000000 0.302449 0.015454
O O4 0.267060 0.342692 0.985592
O O5 0.500000 0.974736 0.557144
O O6 0.239901 0.927564 0.578052
O O7 0.263843 0.000000 0.500000
O O8 0.267770 0.031256 0.598121
O O9 0.500000 0.235617 0.392200
O O10 0.750037 0.175702 0.386106
O O11 0.738532 0.275581 0.342193
O O12 0.000000 0.135540 0.426399
O O13 0.246734 0.822045 0.250000
O O14 0.228919 0.887418 0.167674
O O15 0.000000 0.827464 0.193755
O O16 0.000000 0.581071 0.857489
#
# Coordination Sequence:
#
# PCOD8256304 Si02
#       6
#    16  16  16  16  16  16
#     4  10  18  32  50  71 102 138 173 211 252 299
#     4  10  19  35  53  72 103 143 178 211 249 297
#     4  10  20  34  51  73 101 134 171 212 258 310
#     4  12  23  32  46  72 105 141 177 210 250 302
#     4   9  19  36  58  81 103 128 163 213 269 314
#     4   9  18  32  53  78 103 134 173 212 253 301
#
# _framework density 17.711949000000001
#
# number of rings (size 3 to 8) (size 9 to 14) (size 15 to 20)
#    0.000    2.000    1.667    3.000    0.000    2.667 
#    0.000    0.000    0.000    1.000    0.000    2.333 
#    0.000    0.000    0.000    0.000    0.000    0.000 
#
# Total GULP energy -595161.431665 kJ/mol
# GULP energy per Si atom -12399.196493 kJ/mol
# Density = 1.767164 g / cm^3
# Si number density = 17.711949 Si / 1000 Ang^3
#
#
#
# Elastic Constant Matrix: (Units=GPa)
#
#
# Indices 1 2 3 4 5 6 
#
# 1 60.6785 41.9651 19.0139 0.0000 0.0000 0.0000
# 2 41.9651 121.6442 31.9978 0.0000 0.0000 0.0000
# 3 19.0139 31.9978 78.9549 0.0000 0.0000 0.0000
# 4 0.0000 0.0000 0.0000 8.5321 0.0000 0.0000
# 5 0.0000 0.0000 0.0000 0.0000 19.6939 0.0000
# 6 0.0000 0.0000 0.0000 0.0000 0.0000 31.5182
#
#
#
# Elastic Compliance Matrix: (Units=1/GPa)
#
#
# Indices 1 2 3 4 5 6 
#
# 1 0.022075 -0.006959 -0.002496 0.000000 0.000000 0.000000
# 2 -0.006959 0.011395 -0.002942 0.000000 0.000000 0.000000
# 3 -0.002496 -0.002942 0.014459 0.000000 0.000000 0.000000
# 4 0.000000 0.000000 0.000000 0.117205 0.000000 0.000000
# 5 0.000000 0.000000 0.000000 0.000000 0.050777 0.000000
# 6 0.000000 0.000000 0.000000 0.000000 0.000000 0.031728
#
#
# Mechanical properties :
#
#
# Convention : Reuss Voigt Hill
#
# Bulk Modulus (GPa) = 43.22429 49.69232 46.45831
# Shear Modulus (GPa) = 17.84787 23.16889 20.50838
#
# Velocity S-wave (km/s) = 3.17783 3.62068 3.40646
# Velocity P-wave (km/s) = 6.15807 6.75247 6.46211
#
# Compressibility (1/GPa) = 0.02313514
#
# Stress axis : x y z
#
# Youngs Moduli (GPa) = 45.29957 87.75471 69.16136
#
# Poissons Ratio (x) = 0.61069 0.17262
# Poissons Ratio (y) = 0.31524 0.20349
# Poissons Ratio (z) = 0.11306 0.25820
#
# Static dielectric constant tensor:
#      x y z
#    x 3.303020 0.000000 0.000000 
#    y 0.000000 3.590960 0.000000 
#    z 0.000000 0.000000 3.290620 
# 
# 
# High freq. dielectric constant tensor:
#      x y z
#    x 1.685580 0.000000 0.000000 
#    y 0.000000 1.693240 0.000000 
#    z 0.000000 0.000000 1.652300 
# 
# From -- ./inp_files/67007.got.cif
#   From: 2010.03.12/outbox.cif.g09.slc.cpg/sg63_34_cif.got.tgz:67007.got - 2010.04.10 19:34:48.
