data_PCOD8256803
_publ_section_title
;
Structure prediction by ZEFSAII (Michael W. Deem and Ramdas Pophale) SiO2 
 PCOD8256803
Probable space group: C M C M
;
_chemical_formula_sum "Si O2"
_cell_formula_units_Z 104
_cell_length_a 24.874792
_cell_length_b 8.848399
_cell_length_c 28.830847
_cell_angle_alpha 90.000000
_cell_angle_beta 90.000000
_cell_angle_gamma 90.000000
_cell_volume 6345.729527
_symmetry_space_group_name_H-M "C M C M"
_symmetry_group_IT_number 63
_symmetry_cell_setting 'orthorhombic'
loop_
_space_group_symop_operation_xyz
x,y,z
-x,-y,1/2+z
x,-y,-z
-x,y,1/2-z
-x,-y,-z
x,y,1/2-z
-x,y,z
x,-y,1/2+z
1/2+x,1/2+y,z
1/2-x,1/2-y,1/2+z
1/2+x,1/2-y,-z
1/2-x,1/2+y,1/2-z
1/2-x,1/2-y,-z
1/2+x,1/2+y,1/2-z
1/2-x,1/2+y,z
1/2+x,1/2-y,1/2+z
loop_
_atom_site_type_symbol
_atom_site_label
_atom_site_fract_x
_atom_site_fract_y
_atom_site_fract_z
Si Si1 0.746162 0.500000 0.500000
Si Si2 0.777186 0.191215 0.699501
Si Si3 0.779270 0.248736 0.564835
Si Si4 0.649856 0.871602 0.858628
Si Si5 0.134530 0.935729 0.698235
Si Si6 0.183697 0.696052 0.867020
Si Si7 0.437477 0.707338 0.696347
O O1 0.783616 0.385704 0.528616
O O2 0.710496 0.406757 0.463007
O O3 0.756005 0.232356 0.750000
O O4 0.806914 0.343083 0.682094
O O5 0.815921 0.048836 0.698563
O O6 0.726042 0.143733 0.670745
O O7 0.828821 0.262017 0.600173
O O8 0.718964 0.251312 0.588541
O O9 0.591554 0.822057 0.839528
O O10 0.648972 0.044464 0.876930
O O11 0.129490 0.860018 0.750000
O O12 0.081271 0.034469 0.687577
O O13 0.143460 0.818898 0.655820
O O14 0.424475 0.752088 0.750000
O O15 0.500000 0.718878 0.685462
#
# Coordination Sequence:
#
# PCOD8256803 Si02
#       7
#     8  16  16  16  16  16  16
#     4  10  20  34  50  68 110 136 164 184 240 292
#     4   9  17  27  40  62  97 135 160 181 220 279
#     4  10  20  33  48  75 104 136 158 198 230 297
#     4  10  19  30  47  71  97 127 164 199 239 287
#     4   9  18  29  44  66  94 130 166 197 234 277
#     4  11  19  27  43  71 102 126 156 197 234 285
#     4   9  19  36  53  68  92 129 172 212 247 286
#
# _framework density 16.388974999999999
#
# number of rings (size 3 to 8) (size 9 to 14) (size 15 to 20)
#    0.000    2.308    1.538    3.692    4.308    3.692 
#    0.000    0.769    0.000    1.846    0.000    1.077 
#    0.000    0.000    0.000    0.000    0.000    0.000 
#
# Total GULP energy -644227.832494 kJ/mol
# GULP energy per Si atom -12388.996779 kJ/mol
# Density = 1.635167 g / cm^3
# Si number density = 16.388975 Si / 1000 Ang^3
#
#
#
# Elastic Constant Matrix: (Units=GPa)
#
#
# Indices 1 2 3 4 5 6 
#
# 1 81.5145 26.1128 29.2707 0.0000 0.0000 0.0000
# 2 26.1128 79.8344 30.4297 0.0000 0.0000 0.0000
# 3 29.2707 30.4297 82.7132 0.0000 0.0000 0.0000
# 4 0.0000 0.0000 0.0000 27.5782 0.0000 0.0000
# 5 0.0000 0.0000 0.0000 0.0000 13.1399 0.0000
# 6 0.0000 0.0000 0.0000 0.0000 0.0000 12.5527
#
#
#
# Elastic Compliance Matrix: (Units=1/GPa)
#
#
# Indices 1 2 3 4 5 6 
#
# 1 0.014765 -0.003301 -0.004011 0.000000 0.000000 0.000000
# 2 -0.003301 0.015307 -0.004463 0.000000 0.000000 0.000000
# 3 -0.004011 -0.004463 0.015151 0.000000 0.000000 0.000000
# 4 0.000000 0.000000 0.000000 0.036261 0.000000 0.000000
# 5 0.000000 0.000000 0.000000 0.000000 0.076104 0.000000
# 6 0.000000 0.000000 0.000000 0.000000 0.000000 0.079664
#
#
# Mechanical properties :
#
#
# Convention : Reuss Voigt Hill
#
# Bulk Modulus (GPa) = 46.13861 46.18759 46.16310
# Shear Modulus (GPa) = 18.65487 21.20409 19.92948
#
# Velocity S-wave (km/s) = 3.37747 3.60085 3.49094
# Velocity P-wave (km/s) = 6.58962 6.74770 6.66913
#
# Compressibility (1/GPa) = 0.02167382
#
# Stress axis : x y z
#
# Youngs Moduli (GPa) = 67.72594 65.33061 66.00090
#
# Poissons Ratio (x) = 0.21564 0.26472
# Poissons Ratio (y) = 0.22355 0.29457
# Poissons Ratio (z) = 0.27164 0.29158
#
# Static dielectric constant tensor:
#      x y z
#    x 2.803800 0.000000 0.000000 
#    y 0.000000 3.250610 0.000000 
#    z 0.000000 0.000000 3.284390 
# 
# 
# High freq. dielectric constant tensor:
#      x y z
#    x 1.577970 0.000000 0.000000 
#    y 0.000000 1.633640 0.000000 
#    z 0.000000 0.000000 1.630550 
# 
# From -- ./inp_files/74420.got.cif
#   From: 2010.03.12/outbox.cif.g09.slc.cpg/sg63_38_cif.got.tgz:74420.got - 2010.04.10 19:34:48.
