data_PCOD8256582
_publ_section_title
;
Structure prediction by ZEFSAII (Michael W. Deem and Ramdas Pophale) SiO2 
 PCOD8256582
Probable space group: C M C M
;
_chemical_formula_sum "Si O2"
_cell_formula_units_Z 96
_cell_length_a 31.609565
_cell_length_b 26.924714
_cell_length_c 9.040422
_cell_angle_alpha 90.000000
_cell_angle_beta 90.000000
_cell_angle_gamma 90.000000
_cell_volume 7694.108771
_symmetry_space_group_name_H-M "C M C M"
_symmetry_group_IT_number 63
_symmetry_cell_setting 'orthorhombic'
loop_
_space_group_symop_operation_xyz
x,y,z
-x,-y,1/2+z
x,-y,-z
-x,y,1/2-z
-x,-y,-z
x,y,1/2-z
-x,y,z
x,-y,1/2+z
1/2+x,1/2+y,z
1/2-x,1/2-y,1/2+z
1/2+x,1/2-y,-z
1/2-x,1/2+y,1/2-z
1/2-x,1/2-y,-z
1/2+x,1/2+y,1/2-z
1/2-x,1/2+y,z
1/2+x,1/2-y,1/2+z
loop_
_atom_site_type_symbol
_atom_site_label
_atom_site_fract_x
_atom_site_fract_y
_atom_site_fract_z
Si Si1 0.549555 0.550765 0.420929
Si Si2 0.710546 0.224492 0.423810
Si Si3 0.803286 0.052243 0.578840
Si Si4 0.659932 0.700580 0.082124
Si Si5 0.385191 0.383096 0.076090
Si Si6 0.257962 0.368030 0.914085
O O1 0.563394 0.500000 0.500000
O O2 0.563222 0.547232 0.250000
O O3 0.500000 0.560431 0.438493
O O4 0.572654 0.596313 0.500039
O O5 0.710306 0.237412 0.250000
O O6 0.750000 0.250000 0.500000
O O7 0.668140 0.246395 0.500441
O O8 0.715772 0.164774 0.449043
O O9 0.797842 0.042481 0.750000
O O10 0.847140 0.079179 0.539804
O O11 0.763928 0.086535 0.526923
O O12 0.802180 0.000000 0.500000
O O13 0.645047 0.710356 0.250000
O O14 0.702576 0.668997 0.076984
O O15 0.623690 0.670831 0.994136
O O16 0.392353 0.376978 0.250000
O O17 0.254835 0.390960 0.750000
#
# Coordination Sequence:
#
# PCOD8256582 Si02
#       6
#    16  16  16  16  16  16
#     4  10  20  32  44  56  69  86 109 137 170 209
#     4   9  15  23  35  50  67  86 107 131 159 193
#     4  10  19  27  36  49  65  85 109 137 168 202
#     4   9  16  25  37  52  69  87 105 129 161 198
#     4  10  19  29  41  55  69  86 108 136 170 208
#     4   8  15  25  35  47  64  85 107 131 159 191
#
# _framework density 12.477078000000001
#
# number of rings (size 3 to 8) (size 9 to 14) (size 15 to 20)
#    0.000    2.667    0.000    4.000    0.000    9.000 
#    0.000    0.000    0.000    0.000    0.000    0.000 
#    0.000    0.000    0.000    0.000    0.000    0.000 
#
# Total GULP energy -594961.304831 kJ/mol
# GULP energy per Si atom -12395.027184 kJ/mol
# Density = 1.244868 g / cm^3
# Si number density = 12.477078 Si / 1000 Ang^3
#
#
#
# Elastic Constant Matrix: (Units=GPa)
#
#
# Indices 1 2 3 4 5 6 
#
# 1 32.0026 24.8363 28.5273 0.0000 0.0000 0.0000
# 2 24.8363 42.0367 40.7829 0.0000 0.0000 0.0000
# 3 28.5273 40.7829 92.0291 0.0000 0.0000 0.0000
# 4 0.0000 0.0000 0.0000 24.0014 0.0000 0.0000
# 5 0.0000 0.0000 0.0000 0.0000 16.6022 0.0000
# 6 0.0000 0.0000 0.0000 0.0000 0.0000 22.7598
#
#
#
# Elastic Compliance Matrix: (Units=1/GPa)
#
#
# Indices 1 2 3 4 5 6 
#
# 1 0.058982 -0.030014 -0.004982 0.000000 0.000000 0.000000
# 2 -0.030014 0.057003 -0.015957 0.000000 0.000000 0.000000
# 3 -0.004982 -0.015957 0.019482 0.000000 0.000000 0.000000
# 4 0.000000 0.000000 0.000000 0.041664 0.000000 0.000000
# 5 0.000000 0.000000 0.000000 0.000000 0.060233 0.000000
# 6 0.000000 0.000000 0.000000 0.000000 0.000000 0.043937
#
#
# Mechanical properties :
#
#
# Convention : Reuss Voigt Hill
#
# Bulk Modulus (GPa) = 29.79781 39.37347 34.58564
# Shear Modulus (GPa) = 12.67762 17.46749 15.07255
#
# Velocity S-wave (km/s) = 3.19105 3.74567 3.47943
# Velocity P-wave (km/s) = 6.12462 7.09450 6.62732
#
# Compressibility (1/GPa) = 0.03355952
#
# Stress axis : x y z
#
# Youngs Moduli (GPa) = 16.95429 17.54290 51.32920
#
# Poissons Ratio (x) = 0.52654 0.25575
# Poissons Ratio (y) = 0.50887 0.81907
# Poissons Ratio (z) = 0.08447 0.27994
#
# Static dielectric constant tensor:
#      x y z
#    x 2.441360 0.000000 0.000000 
#    y 0.000000 2.843300 0.000000 
#    z 0.000000 0.000000 2.758440 
# 
# 
# High freq. dielectric constant tensor:
#      x y z
#    x 1.420140 0.000000 0.000000 
#    y 0.000000 1.456800 0.000000 
#    z 0.000000 0.000000 1.495740 
# 
# From -- ./inp_files/12976.got.cif
#   From: 2010.03.12/outbox.cif.g09.slc.cpg/sg63_7_cif.got.tgz:12976.got - 2010.04.10 19:34:48.
