data_PCOD8256749
_publ_section_title
;
Structure prediction by ZEFSAII (Michael W. Deem and Ramdas Pophale) SiO2 
 PCOD8256749
Probable space group: C M C M
;
_chemical_formula_sum "Si O2"
_cell_formula_units_Z 96
_cell_length_a 26.791191
_cell_length_b 23.042608
_cell_length_c 8.832693
_cell_angle_alpha 90.000000
_cell_angle_beta 90.000000
_cell_angle_gamma 90.000000
_cell_volume 5452.765087
_symmetry_space_group_name_H-M "C M C M"
_symmetry_group_IT_number 63
_symmetry_cell_setting 'orthorhombic'
loop_
_space_group_symop_operation_xyz
x,y,z
-x,-y,1/2+z
x,-y,-z
-x,y,1/2-z
-x,-y,-z
x,y,1/2-z
-x,y,z
x,-y,1/2+z
1/2+x,1/2+y,z
1/2-x,1/2-y,1/2+z
1/2+x,1/2-y,-z
1/2-x,1/2+y,1/2-z
1/2-x,1/2-y,-z
1/2+x,1/2+y,1/2-z
1/2-x,1/2+y,z
1/2+x,1/2-y,1/2+z
loop_
_atom_site_type_symbol
_atom_site_label
_atom_site_fract_x
_atom_site_fract_y
_atom_site_fract_z
Si Si1 0.633412 0.652432 0.585159
Si Si2 0.313992 0.062456 0.071704
Si Si3 0.798811 0.062009 0.073010
Si Si4 0.624963 0.837893 0.427556
Si Si5 0.699983 0.241793 0.084195
Si Si6 0.057630 0.752178 0.072014
O O1 0.617712 0.626144 0.750000
O O2 0.655123 0.602676 0.477348
O O3 0.678744 0.695296 0.613777
O O4 0.587334 0.690114 0.513537
O O5 0.321342 0.057914 0.250000
O O6 0.257422 0.085313 0.031701
O O7 0.358383 0.102147 0.005294
O O8 0.321845 0.000000 0.000000
O O9 0.803263 0.054063 0.250000
O O10 0.807658 0.000000 0.000000
O O11 0.618317 0.848095 0.250000
O O12 0.667947 0.792805 0.463806
O O13 0.574516 0.808382 0.493939
O O14 0.704962 0.210060 0.250000
O O15 0.750000 0.250000 0.000000
O O16 0.069056 0.745233 0.250000
O O17 0.000000 0.762317 0.035430
#
# Coordination Sequence:
#
# PCOD8256749 Si02
#       6
#    16  16  16  16  16  16
#     4   9  18  31  48  71  98 127 162 204 250 301
#     4  10  20  34  51  73 103 139 177 211 247 295
#     4  10  20  32  49  72 101 137 172 206 243 289
#     4  11  21  32  49  74 103 134 168 207 251 302
#     4  10  19  30  45  68  99 133 166 203 249 300
#     4   9  19  37  58  77  99 130 167 211 264 312
#
# _framework density 17.605746
#
# number of rings (size 3 to 8) (size 9 to 14) (size 15 to 20)
#    0.000    2.167    0.000    5.000    0.000    8.333 
#    0.000    0.000    0.000    1.000    0.000    0.000 
#    0.000    0.000    0.000    0.000    0.000    0.000 
#
# Total GULP energy -594661.310777 kJ/mol
# GULP energy per Si atom -12388.777308 kJ/mol
# Density = 1.756567 g / cm^3
# Si number density = 17.605746 Si / 1000 Ang^3
#
#
#
# Elastic Constant Matrix: (Units=GPa)
#
#
# Indices 1 2 3 4 5 6 
#
# 1 109.8675 42.0164 41.4731 0.0000 0.0000 0.0000
# 2 42.0164 83.1424 44.2708 0.0000 0.0000 0.0000
# 3 41.4731 44.2708 94.5034 0.0000 0.0000 0.0000
# 4 0.0000 0.0000 0.0000 30.4218 0.0000 0.0000
# 5 0.0000 0.0000 0.0000 0.0000 21.5163 0.0000
# 6 0.0000 0.0000 0.0000 0.0000 0.0000 22.0147
#
#
#
# Elastic Compliance Matrix: (Units=1/GPa)
#
#
# Indices 1 2 3 4 5 6 
#
# 1 0.011977 -0.004335 -0.003225 0.000000 0.000000 0.000000
# 2 -0.004335 0.017594 -0.006339 0.000000 0.000000 0.000000
# 3 -0.003225 -0.006339 0.014967 0.000000 0.000000 0.000000
# 4 0.000000 0.000000 0.000000 0.032871 0.000000 0.000000
# 5 0.000000 0.000000 0.000000 0.000000 0.046476 0.000000
# 6 0.000000 0.000000 0.000000 0.000000 0.000000 0.045424
#
#
# Mechanical properties :
#
#
# Convention : Reuss Voigt Hill
#
# Bulk Modulus (GPa) = 59.74489 60.33710 60.04099
# Shear Modulus (GPa) = 24.66825 25.44076 25.05451
#
# Velocity S-wave (km/s) = 3.74725 3.80547 3.77648
# Velocity P-wave (km/s) = 7.26162 7.32492 7.29334
#
# Compressibility (1/GPa) = 0.01673783
#
# Stress axis : x y z
#
# Youngs Moduli (GPa) = 83.49078 56.83740 66.81435
#
# Poissons Ratio (x) = 0.24641 0.21550
# Poissons Ratio (y) = 0.36197 0.42357
# Poissons Ratio (z) = 0.26929 0.36032
#
# Static dielectric constant tensor:
#      x y z
#    x 3.084610 0.000000 0.000000 
#    y 0.000000 3.334360 0.000000 
#    z 0.000000 0.000000 3.323000 
# 
# 
# High freq. dielectric constant tensor:
#      x y z
#    x 1.658510 0.000000 0.000000 
#    y 0.000000 1.670840 0.000000 
#    z 0.000000 0.000000 1.689320 
# 
# From -- ./inp_files/12326.got.cif
#   From: 2010.03.12/outbox.cif.g09.slc.cpg/sg63_7_cif.got.tgz:12326.got - 2010.04.10 19:34:48.
