data_PCOD8256980
_publ_section_title
;
Structure prediction by ZEFSAII (Michael W. Deem and Ramdas Pophale) SiO2 
 PCOD8256980
Probable space group: C M C M
;
_chemical_formula_sum "Si O2"
_cell_formula_units_Z 112
_cell_length_a 26.308353
_cell_length_b 13.284134
_cell_length_c 18.672943
_cell_angle_alpha 90.000000
_cell_angle_beta 90.000000
_cell_angle_gamma 90.000000
_cell_volume 6525.888959
_symmetry_space_group_name_H-M "C M C M"
_symmetry_group_IT_number 63
_symmetry_cell_setting 'orthorhombic'
loop_
_space_group_symop_operation_xyz
x,y,z
-x,-y,1/2+z
x,-y,-z
-x,y,1/2-z
-x,-y,-z
x,y,1/2-z
-x,y,z
x,-y,1/2+z
1/2+x,1/2+y,z
1/2-x,1/2-y,1/2+z
1/2+x,1/2-y,-z
1/2-x,1/2+y,1/2-z
1/2-x,1/2-y,-z
1/2+x,1/2+y,1/2-z
1/2-x,1/2+y,z
1/2+x,1/2-y,1/2+z
loop_
_atom_site_type_symbol
_atom_site_label
_atom_site_fract_x
_atom_site_fract_y
_atom_site_fract_z
Si Si1 0.117817 0.085905 0.830434
Si Si2 0.140375 0.241503 0.038148
Si Si3 0.781959 0.592596 0.332593
Si Si4 0.303853 0.071256 0.564891
Si Si5 0.167205 0.118888 0.171143
Si Si6 0.059583 0.109392 0.529707
Si Si7 0.794927 0.804310 0.405289
O O1 0.101559 0.119002 0.750000
O O2 0.074779 0.119599 0.886745
O O3 0.172481 0.132403 0.848888
O O4 0.124098 0.966004 0.834467
O O5 0.146088 0.363831 0.041261
O O6 0.153856 0.206894 0.117460
O O7 0.084815 0.201346 0.014953
O O8 0.179942 0.191723 0.983318
O O9 0.797983 0.604654 0.250000
O O10 0.813895 0.499754 0.366369
O O11 0.722299 0.569131 0.342687
O O12 0.794837 0.691706 0.376600
O O13 0.261233 0.152646 0.585796
O O14 0.285716 0.000000 0.500000
O O15 0.167090 0.168476 0.250000
O O16 0.000000 0.123448 0.521317
O O17 0.077436 0.000000 0.500000
#
# Coordination Sequence:
#
# PCOD8256980 Si02
#       7
#    16  16  16  16  16  16  16
#     4  10  20  33  52  78 110 141 172 217 273 328
#     4  11  21  35  54  75 105 144 180 224 272 325
#     4  11  22  34  48  75 111 147 187 222 255 310
#     4  12  22  33  50  77 107 146 190 221 260 314
#     4  10  19  31  48  76 111 145 179 216 264 319
#     4  10  21  37  59  83 104 131 175 231 283 334
#     4  11  21  32  52  75 110 146 183 221 259 310
#
# _framework density 17.162412
#
# number of rings (size 3 to 8) (size 9 to 14) (size 15 to 20)
#    0.000    1.286    5.714    1.714    0.000    1.429 
#    0.000    0.000    0.000    0.857    0.000    0.000 
#    0.000    0.000    0.000    0.000    0.000    0.000 
#
# Total GULP energy -694279.247039 kJ/mol
# GULP energy per Si atom -12397.843697 kJ/mol
# Density = 1.712335 g / cm^3
# Si number density = 17.162412 Si / 1000 Ang^3
#
#
#
# Elastic Constant Matrix: (Units=GPa)
#
#
# Indices 1 2 3 4 5 6 
#
# 1 63.3472 33.8140 32.5325 0.0000 0.0000 0.0000
# 2 33.8140 90.2597 39.0253 0.0000 0.0000 0.0000
# 3 32.5325 39.0253 114.2774 0.0000 0.0000 0.0000
# 4 0.0000 0.0000 0.0000 28.5025 0.0000 0.0000
# 5 0.0000 0.0000 0.0000 0.0000 14.6733 0.0000
# 6 0.0000 0.0000 0.0000 0.0000 0.0000 21.0478
#
#
#
# Elastic Compliance Matrix: (Units=1/GPa)
#
#
# Indices 1 2 3 4 5 6 
#
# 1 0.021104 -0.006228 -0.003881 0.000000 0.000000 0.000000
# 2 -0.006228 0.014836 -0.003294 0.000000 0.000000 0.000000
# 3 -0.003881 -0.003294 0.010980 0.000000 0.000000 0.000000
# 4 0.000000 0.000000 0.000000 0.035085 0.000000 0.000000
# 5 0.000000 0.000000 0.000000 0.000000 0.068151 0.000000
# 6 0.000000 0.000000 0.000000 0.000000 0.000000 0.047511
#
#
# Mechanical properties :
#
#
# Convention : Reuss Voigt Hill
#
# Bulk Modulus (GPa) = 49.71393 53.18088 51.44741
# Shear Modulus (GPa) = 21.62847 23.67889 22.65368
#
# Velocity S-wave (km/s) = 3.55381 3.71845 3.63707
# Velocity P-wave (km/s) = 6.77267 7.03491 6.90504
#
# Compressibility (1/GPa) = 0.02011508
#
# Stress axis : x y z
#
# Youngs Moduli (GPa) = 47.38538 67.40191 91.07311
#
# Poissons Ratio (x) = 0.41978 0.35345
# Poissons Ratio (y) = 0.29512 0.29995
# Poissons Ratio (z) = 0.18390 0.22199
#
# Static dielectric constant tensor:
#      x y z
#    x 2.838220 0.000000 0.000000 
#    y 0.000000 3.221550 0.000000 
#    z 0.000000 0.000000 3.406090 
# 
# 
# High freq. dielectric constant tensor:
#      x y z
#    x 1.610650 0.000000 0.000000 
#    y 0.000000 1.658620 0.000000 
#    z 0.000000 0.000000 1.682850 
# 
# From -- ./inp_files/58343.got.cif
#   From: 2010.03.12/outbox.cif.g09.slc.cpg/sg63_30_cif.got.tgz:58343.got - 2010.04.10 19:34:48.
