data_PCOD8256089
_publ_section_title
;
Structure prediction by ZEFSAII (Michael W. Deem and Ramdas Pophale) SiO2 
 PCOD8256089
Probable space group: C M C M
;
_chemical_formula_sum "Si O2"
_cell_formula_units_Z 80
_cell_length_a 8.770682
_cell_length_b 20.725844
_cell_length_c 24.817425
_cell_angle_alpha 90.000000
_cell_angle_beta 90.000000
_cell_angle_gamma 90.000000
_cell_volume 4511.306228
_symmetry_space_group_name_H-M "C M C M"
_symmetry_group_IT_number 63
_symmetry_cell_setting 'orthorhombic'
loop_
_space_group_symop_operation_xyz
x,y,z
-x,-y,1/2+z
x,-y,-z
-x,y,1/2-z
-x,-y,-z
x,y,1/2-z
-x,y,z
x,-y,1/2+z
1/2+x,1/2+y,z
1/2-x,1/2-y,1/2+z
1/2+x,1/2-y,-z
1/2-x,1/2+y,1/2-z
1/2-x,1/2-y,-z
1/2+x,1/2+y,1/2-z
1/2-x,1/2+y,z
1/2+x,1/2-y,1/2+z
loop_
_atom_site_type_symbol
_atom_site_label
_atom_site_fract_x
_atom_site_fract_y
_atom_site_fract_z
Si Si1 0.177290 0.931167 0.478505
Si Si2 0.679239 0.380890 0.364739
Si Si3 0.173031 0.259124 0.250000
Si Si4 0.674164 0.609108 0.750000
Si Si5 0.824903 0.757956 0.632622
Si Si6 0.178624 0.691061 0.032411
O O1 0.208550 0.929152 0.414248
O O2 0.272689 0.876945 0.508415
O O3 0.000000 0.919722 0.491400
O O4 0.233625 0.000000 0.500000
O O5 0.500000 0.363867 0.359287
O O6 0.740091 0.414662 0.308349
O O7 0.769520 0.315223 0.375585
O O8 0.300635 0.314099 0.250000
O O9 0.195587 0.218295 0.194917
O O10 0.000000 0.288541 0.250000
O O11 0.500000 0.589687 0.750000
O O12 0.730039 0.805910 0.594744
O O13 0.000000 0.760972 0.614599
O O14 0.000000 0.698253 0.028616
O O15 0.250000 0.750000 0.000000
#
# Coordination Sequence:
#
# PCOD8256089 Si02
#       6
#    16  16   8   8  16  16
#     4  10  21  36  53  74 104 141 177 216 263 315
#     4   9  16  28  47  71 100 131 167 210 258 309
#     4   8  16  28  44  71 104 133 163 203 259 311
#     4   8  14  24  42  69  96 125 163 209 255 303
#     4  10  18  30  50  76 105 135 168 212 260 311
#     4  12  23  35  53  77 104 137 176 218 261 309
#
# _framework density 17.733222000000001
#
# number of rings (size 3 to 8) (size 9 to 14) (size 15 to 20)
#    0.000    2.200    2.000    2.400    0.000    1.200 
#    0.000    0.000    0.000    1.200    0.000    5.600 
#    0.000    0.000    0.000    0.000    0.000    0.000 
#
# Total GULP energy -495600.067619 kJ/mol
# GULP energy per Si atom -12390.001690 kJ/mol
# Density = 1.769286 g / cm^3
# Si number density = 17.733222 Si / 1000 Ang^3
#
#
#
# Elastic Constant Matrix: (Units=GPa)
#
#
# Indices 1 2 3 4 5 6 
#
# 1 83.4061 39.9030 46.9269 0.0000 0.0000 0.0000
# 2 39.9030 77.2444 63.2730 0.0000 0.0000 0.0000
# 3 46.9269 63.2730 177.6874 0.0000 0.0000 0.0000
# 4 0.0000 0.0000 0.0000 20.5809 0.0000 0.0000
# 5 0.0000 0.0000 0.0000 0.0000 23.1669 0.0000
# 6 0.0000 0.0000 0.0000 0.0000 0.0000 19.4741
#
#
#
# Elastic Compliance Matrix: (Units=1/GPa)
#
#
# Indices 1 2 3 4 5 6 
#
# 1 0.016345 -0.006928 -0.001849 0.000000 0.000000 0.000000
# 2 -0.006928 0.021214 -0.005724 0.000000 0.000000 0.000000
# 3 -0.001849 -0.005724 0.008155 0.000000 0.000000 0.000000
# 4 0.000000 0.000000 0.000000 0.048589 0.000000 0.000000
# 5 0.000000 0.000000 0.000000 0.000000 0.043165 0.000000
# 6 0.000000 0.000000 0.000000 0.000000 0.000000 0.051350
#
#
# Mechanical properties :
#
#
# Convention : Reuss Voigt Hill
#
# Bulk Modulus (GPa) = 59.84812 70.94928 65.39870
# Shear Modulus (GPa) = 22.38218 25.19335 23.78777
#
# Velocity S-wave (km/s) = 3.55654 3.77329 3.66652
# Velocity P-wave (km/s) = 7.11953 7.68633 7.40836
#
# Compressibility (1/GPa) = 0.01670896
#
# Stress axis : x y z
#
# Youngs Moduli (GPa) = 61.18150 47.13866 122.62883
#
# Poissons Ratio (x) = 0.32660 0.22680
# Poissons Ratio (y) = 0.42389 0.70197
# Poissons Ratio (z) = 0.11315 0.26984
#
# Static dielectric constant tensor:
#      x y z
#    x 3.320530 0.000000 0.000000 
#    y 0.000000 2.857970 0.000000 
#    z 0.000000 0.000000 4.070000 
# 
# 
# High freq. dielectric constant tensor:
#      x y z
#    x 1.686360 0.000000 0.000000 
#    y 0.000000 1.618160 0.000000 
#    z 0.000000 0.000000 1.720230 
# 
# From -- ./inp_files/59536.got.cif
#   From: 2010.03.12/outbox.cif.g09.slc.cpg/sg63_30_cif.got.tgz:59536.got - 2010.04.10 19:34:48.
