data_PCOD8256073
_publ_section_title
;
Structure prediction by ZEFSAII (Michael W. Deem and Ramdas Pophale) SiO2 
 PCOD8256073
Probable space group: C M C M
;
_chemical_formula_sum "Si O2"
_cell_formula_units_Z 96
_cell_length_a 22.767372
_cell_length_b 24.832825
_cell_length_c 9.342410
_cell_angle_alpha 90.000000
_cell_angle_beta 90.000000
_cell_angle_gamma 90.000000
_cell_volume 5281.994619
_symmetry_space_group_name_H-M "C M C M"
_symmetry_group_IT_number 63
_symmetry_cell_setting 'orthorhombic'
loop_
_space_group_symop_operation_xyz
x,y,z
-x,-y,1/2+z
x,-y,-z
-x,y,1/2-z
-x,-y,-z
x,y,1/2-z
-x,y,z
x,-y,1/2+z
1/2+x,1/2+y,z
1/2-x,1/2-y,1/2+z
1/2+x,1/2-y,-z
1/2-x,1/2+y,1/2-z
1/2-x,1/2-y,-z
1/2+x,1/2+y,1/2-z
1/2-x,1/2+y,z
1/2+x,1/2-y,1/2+z
loop_
_atom_site_type_symbol
_atom_site_label
_atom_site_fract_x
_atom_site_fract_y
_atom_site_fract_z
Si Si1 0.123631 0.632094 0.582891
Si Si2 0.569196 0.641765 0.086456
Si Si3 0.567628 0.952944 0.593385
Si Si4 0.360222 0.445924 0.418335
Si Si5 0.565040 0.238664 0.918702
Si Si6 0.774402 0.446836 0.084699
O O1 0.110030 0.624053 0.750000
O O2 0.073846 0.602464 0.491601
O O3 0.115523 0.694977 0.539174
O O4 0.186710 0.605872 0.542004
O O5 0.591005 0.632695 0.250000
O O6 0.500000 0.631571 0.077613
O O7 0.584656 0.702006 0.030054
O O8 0.601176 0.602304 0.977989
O O9 0.597996 0.950233 0.750000
O O10 0.500000 0.966560 0.614487
O O11 0.598488 0.000000 0.500000
O O12 0.379125 0.500000 0.500000
O O13 0.372057 0.453472 0.250000
O O14 0.292512 0.431810 0.451182
O O15 0.558304 0.241628 0.750000
O O16 0.500000 0.223787 0.981608
O O17 0.782572 0.460928 0.250000
O O18 0.794586 0.500000 0.000000
#
# Coordination Sequence:
#
# PCOD8256073 Si02
#       6
#    16  16  16  16  16  16
#     4  10  18  30  50  72  94 126 169 209 244 286
#     4   9  18  34  55  78 103 130 162 199 239 289
#     4  10  20  31  42  61  91 124 160 207 259 303
#     4  10  20  35  54  76 103 132 162 197 243 297
#     4   8  15  29  50  74  99 130 167 204 243 290
#     4   9  19  33  49  71  99 131 166 207 250 292
#
# _framework density 18.174952000000001
#
# number of rings (size 3 to 8) (size 9 to 14) (size 15 to 20)
#    0.000    2.667    0.000    3.000    0.000    5.000 
#    0.000    1.667    0.000    1.000    0.000    0.000 
#    0.000    0.000    0.000    0.000    0.000    0.000 
#
# Total GULP energy -594864.278852 kJ/mol
# GULP energy per Si atom -12393.005809 kJ/mol
# Density = 1.813358 g / cm^3
# Si number density = 18.174952 Si / 1000 Ang^3
#
#
#
# Elastic Constant Matrix: (Units=GPa)
#
#
# Indices 1 2 3 4 5 6 
#
# 1 66.5563 64.4342 35.6453 0.0000 0.0000 0.0000
# 2 64.4342 159.6501 57.6998 0.0000 0.0000 0.0000
# 3 35.6453 57.6998 82.3201 0.0000 0.0000 0.0000
# 4 0.0000 0.0000 0.0000 27.2531 0.0000 0.0000
# 5 0.0000 0.0000 0.0000 0.0000 20.0611 0.0000
# 6 0.0000 0.0000 0.0000 0.0000 0.0000 29.6500
#
#
#
# Elastic Compliance Matrix: (Units=1/GPa)
#
#
# Indices 1 2 3 4 5 6 
#
# 1 0.026270 -0.008694 -0.005282 0.000000 0.000000 0.000000
# 2 -0.008694 0.011266 -0.004132 0.000000 0.000000 0.000000
# 3 -0.005282 -0.004132 0.017331 0.000000 0.000000 0.000000
# 4 0.000000 0.000000 0.000000 0.036693 0.000000 0.000000
# 5 0.000000 0.000000 0.000000 0.000000 0.049848 0.000000
# 6 0.000000 0.000000 0.000000 0.000000 0.000000 0.033727
#
#
# Mechanical properties :
#
#
# Convention : Reuss Voigt Hill
#
# Bulk Modulus (GPa) = 53.61293 69.34278 61.47786
# Shear Modulus (GPa) = 22.98153 25.44264 24.21208
#
# Velocity S-wave (km/s) = 3.55978 3.74555 3.65385
# Velocity P-wave (km/s) = 6.81604 7.54594 7.19026
#
# Compressibility (1/GPa) = 0.01865222
#
# Stress axis : x y z
#
# Youngs Moduli (GPa) = 38.06630 88.76433 57.70053
#
# Poissons Ratio (x) = 0.77168 0.30475
# Poissons Ratio (y) = 0.33093 0.23842
# Poissons Ratio (z) = 0.20105 0.36677
#
# Static dielectric constant tensor:
#      x y z
#    x 3.231480 0.000000 0.000000 
#    y 0.000000 3.561650 0.000000 
#    z 0.000000 0.000000 3.343100 
# 
# 
# High freq. dielectric constant tensor:
#      x y z
#    x 1.689420 0.000000 0.000000 
#    y 0.000000 1.701100 0.000000 
#    z 0.000000 0.000000 1.692660 
# 
# From -- ./inp_files/10473.got.cif
#   From: 2010.03.12/outbox.cif.g09.slc.cpg/sg63_6_cif.got.tgz:10473.got - 2010.04.10 19:34:48.
