data_PCOD8256053
_publ_section_title
;
Structure prediction by ZEFSAII (Michael W. Deem and Ramdas Pophale) SiO2 
 PCOD8256053
Probable space group: C M C M
;
_chemical_formula_sum "Si O2"
_cell_formula_units_Z 80
_cell_length_a 20.638326
_cell_length_b 21.210515
_cell_length_c 11.477524
_cell_angle_alpha 90.000000
_cell_angle_beta 90.000000
_cell_angle_gamma 90.000000
_cell_volume 5024.280658
_symmetry_space_group_name_H-M "C M C M"
_symmetry_group_IT_number 63
_symmetry_cell_setting 'orthorhombic'
loop_
_space_group_symop_operation_xyz
x,y,z
-x,-y,1/2+z
x,-y,-z
-x,y,1/2-z
-x,-y,-z
x,y,1/2-z
-x,y,z
x,-y,1/2+z
1/2+x,1/2+y,z
1/2-x,1/2-y,1/2+z
1/2+x,1/2-y,-z
1/2-x,1/2+y,1/2-z
1/2-x,1/2-y,-z
1/2+x,1/2+y,1/2-z
1/2-x,1/2+y,z
1/2+x,1/2-y,1/2+z
loop_
_atom_site_type_symbol
_atom_site_label
_atom_site_fract_x
_atom_site_fract_y
_atom_site_fract_z
Si Si1 0.425381 0.336056 0.614473
Si Si2 0.252337 0.166036 0.886853
Si Si3 0.350639 0.765338 0.968714
Si Si4 0.075281 0.736999 0.250000
Si Si5 0.652231 0.428123 0.028721
Si Si6 0.424860 0.613279 0.750000
O O1 0.418139 0.322420 0.750000
O O2 0.500000 0.347094 0.578112
O O3 0.398390 0.276213 0.546486
O O4 0.382994 0.397230 0.582692
O O5 0.264629 0.156039 0.750000
O O6 0.205648 0.225174 0.907423
O O7 0.221366 0.103639 0.943557
O O8 0.320429 0.179421 0.951776
O O9 0.393271 0.794813 0.864391
O O10 0.090110 0.812261 0.250000
O O11 0.000000 0.722144 0.250000
O O12 0.605087 0.419464 0.137764
O O13 0.666101 0.500000 0.000000
O O14 0.500000 0.598609 0.750000
#
# Coordination Sequence:
#
# PCOD8256053 Si02
#       6
#    16  16  16   8  16   8
#     4  10  20  32  45  68  99 128 164 209 253 292
#     4  10  18  33  50  67  95 127 169 209 250 297
#     4  10  18  30  49  73  93 128 165 201 253 300
#     4  11  18  32  53  74 104 134 163 203 248 303
#     4  11  22  35  48  68  94 136 177 214 245 286
#     4  11  20  34  51  66  96 138 181 211 244 289
#
# _framework density 15.922677
#
# number of rings (size 3 to 8) (size 9 to 14) (size 15 to 20)
#    0.000    1.600    6.000    1.800    1.400    1.600 
#    1.800    0.000    0.000    0.000    0.000    0.000 
#    0.000    3.200    1.200    0.000    0.000    0.000 
#
# Total GULP energy -496023.140126 kJ/mol
# GULP energy per Si atom -12400.578503 kJ/mol
# Density = 1.588644 g / cm^3
# Si number density = 15.922677 Si / 1000 Ang^3
#
#
#
# Elastic Constant Matrix: (Units=GPa)
#
#
# Indices 1 2 3 4 5 6 
#
# 1 88.3815 46.4677 62.4981 0.0000 0.0000 0.0000
# 2 46.4677 59.2369 33.0386 0.0000 0.0000 0.0000
# 3 62.4981 33.0386 106.5175 0.0000 0.0000 0.0000
# 4 0.0000 0.0000 0.0000 14.8874 0.0000 0.0000
# 5 0.0000 0.0000 0.0000 0.0000 32.9732 0.0000
# 6 0.0000 0.0000 0.0000 0.0000 0.0000 15.1640
#
#
#
# Elastic Compliance Matrix: (Units=1/GPa)
#
#
# Indices 1 2 3 4 5 6 
#
# 1 0.027219 -0.015047 -0.011303 0.000000 0.000000 0.000000
# 2 -0.015047 0.028731 -0.000083 0.000000 0.000000 0.000000
# 3 -0.011303 -0.000083 0.016046 0.000000 0.000000 0.000000
# 4 0.000000 0.000000 0.000000 0.067171 0.000000 0.000000
# 5 0.000000 0.000000 0.000000 0.000000 0.030328 0.000000
# 6 0.000000 0.000000 0.000000 0.000000 0.000000 0.065946
#
#
# Mechanical properties :
#
#
# Convention : Reuss Voigt Hill
#
# Bulk Modulus (GPa) = 52.27533 59.79385 56.03459
# Shear Modulus (GPa) = 16.96738 20.08034 18.52386
#
# Velocity S-wave (km/s) = 3.26791 3.55507 3.41451
# Velocity P-wave (km/s) = 6.86593 7.38143 7.12834
#
# Compressibility (1/GPa) = 0.01912948
#
# Stress axis : x y z
#
# Youngs Moduli (GPa) = 36.73928 34.80541 62.32156
#
# Poissons Ratio (x) = 0.52373 0.70443
# Poissons Ratio (y) = 0.55283 0.00515
# Poissons Ratio (z) = 0.41527 0.00288
#
# Static dielectric constant tensor:
#      x y z
#    x 3.147960 0.000000 0.000000 
#    y 0.000000 2.681010 0.000000 
#    z 0.000000 0.000000 3.261090 
# 
# 
# High freq. dielectric constant tensor:
#      x y z
#    x 1.608990 0.000000 0.000000 
#    y 0.000000 1.557200 0.000000 
#    z 0.000000 0.000000 1.635330 
# 
# From -- ./inp_files/21041.got.cif
#   From: 2010.03.12/outbox.cif.g09.slc.cpg/sg63_11_cif.got.tgz:21041.got - 2010.04.10 19:34:48.
