data_PCOD8256531
_publ_section_title
;
Structure prediction by ZEFSAII (Michael W. Deem and Ramdas Pophale) SiO2 
 PCOD8256531
Probable space group: C M C M
;
_chemical_formula_sum "Si O2"
_cell_formula_units_Z 88
_cell_length_a 20.911721
_cell_length_b 22.499757
_cell_length_c 9.935314
_cell_angle_alpha 90.000000
_cell_angle_beta 90.000000
_cell_angle_gamma 90.000000
_cell_volume 4674.651088
_symmetry_space_group_name_H-M "C M C M"
_symmetry_group_IT_number 63
_symmetry_cell_setting 'orthorhombic'
loop_
_space_group_symop_operation_xyz
x,y,z
-x,-y,1/2+z
x,-y,-z
-x,y,1/2-z
-x,-y,-z
x,y,1/2-z
-x,y,z
x,-y,1/2+z
1/2+x,1/2+y,z
1/2-x,1/2-y,1/2+z
1/2+x,1/2-y,-z
1/2-x,1/2+y,1/2-z
1/2-x,1/2-y,-z
1/2+x,1/2+y,1/2-z
1/2-x,1/2+y,z
1/2+x,1/2-y,1/2+z
loop_
_atom_site_type_symbol
_atom_site_label
_atom_site_fract_x
_atom_site_fract_y
_atom_site_fract_z
Si Si1 0.000000 0.554308 0.403065
Si Si2 0.923457 0.948330 0.250000
Si Si3 0.872346 0.124544 0.996645
Si Si4 0.570497 0.577732 0.250000
Si Si5 0.376850 0.130650 0.094038
Si Si6 0.253152 0.060425 0.087346
Si Si7 0.073473 0.754306 0.409781
O O1 0.000000 0.500000 0.500000
O O2 0.061429 0.592371 0.436347
O O3 0.000000 0.531610 0.250000
O O4 0.895051 0.918684 0.119208
O O5 0.000000 0.941645 0.250000
O O6 0.892077 0.014674 0.250000
O O7 0.879239 0.192382 0.950726
O O8 0.919532 0.117840 0.121039
O O9 0.802400 0.106574 0.048126
O O10 0.500000 0.552629 0.250000
O O11 0.363742 0.139835 0.250000
O O12 0.316188 0.095247 0.035285
O O13 0.391516 0.195563 0.030140
O O14 0.253380 0.047714 0.250000
O O15 0.247311 0.000000 0.000000
O O16 0.069211 0.750196 0.250000
O O17 0.000000 0.761118 0.464334
#
# Coordination Sequence:
#
# PCOD8256531 Si02
#       7
#     8   8  16   8  16  16  16
#     4  10  18  34  64  94 122 150 195 255 306 352
#     4  11  22  38  58  87 112 149 211 264 301 349
#     4  12  23  36  59  87 117 160 202 247 302 361
#     4  11  22  36  54  79 120 157 195 254 313 359
#     4   9  19  37  62  92 118 158 202 249 301 356
#     4  11  24  41  62  88 124 163 202 246 305 368
#     4  10  19  36  63  90 120 155 207 254 295 358
#
# _framework density 18.824933000000001
#
# number of rings (size 3 to 8) (size 9 to 14) (size 15 to 20)
#    0.000    1.455    2.727    3.818    1.273    2.182 
#    0.000    0.000    4.000    0.000    0.000    0.000 
#    0.000    0.000    0.000    0.000    0.000    0.000 
#
# Total GULP energy -545279.708390 kJ/mol
# GULP energy per Si atom -12392.720645 kJ/mol
# Density = 1.878209 g / cm^3
# Si number density = 18.824933 Si / 1000 Ang^3
#
#
#
# Elastic Constant Matrix: (Units=GPa)
#
#
# Indices 1 2 3 4 5 6 
#
# 1 114.6134 42.9338 25.1804 0.0000 0.0000 0.0000
# 2 42.9338 113.6420 13.9463 0.0000 0.0000 0.0000
# 3 25.1804 13.9463 60.3864 0.0000 0.0000 0.0000
# 4 0.0000 0.0000 0.0000 19.3312 0.0000 0.0000
# 5 0.0000 0.0000 0.0000 0.0000 25.7436 0.0000
# 6 0.0000 0.0000 0.0000 0.0000 0.0000 33.2502
#
#
#
# Elastic Compliance Matrix: (Units=1/GPa)
#
#
# Indices 1 2 3 4 5 6 
#
# 1 0.010913 -0.003668 -0.003703 0.000000 0.000000 0.000000
# 2 -0.003668 0.010289 -0.000847 0.000000 0.000000 0.000000
# 3 -0.003703 -0.000847 0.018300 0.000000 0.000000 0.000000
# 4 0.000000 0.000000 0.000000 0.051730 0.000000 0.000000
# 5 0.000000 0.000000 0.000000 0.000000 0.038845 0.000000
# 6 0.000000 0.000000 0.000000 0.000000 0.000000 0.030075
#
#
# Mechanical properties :
#
#
# Convention : Reuss Voigt Hill
#
# Bulk Modulus (GPa) = 43.35520 50.30696 46.83108
# Shear Modulus (GPa) = 27.13315 29.43708 28.28512
#
# Velocity S-wave (km/s) = 3.80062 3.95869 3.88046
# Velocity P-wave (km/s) = 6.50695 6.90482 6.70883
#
# Compressibility (1/GPa) = 0.02306529
#
# Stress axis : x y z
#
# Youngs Moduli (GPa) = 91.63602 97.18767 54.64552
#
# Poissons Ratio (x) = 0.35652 0.20237
# Poissons Ratio (y) = 0.33615 0.04627
# Poissons Ratio (z) = 0.33935 0.08229
#
# Static dielectric constant tensor:
#      x y z
#    x 3.654510 0.000000 0.000000 
#    y 0.000000 3.615370 0.000000 
#    z 0.000000 0.000000 3.116370 
# 
# 
# High freq. dielectric constant tensor:
#      x y z
#    x 1.740110 0.000000 0.000000 
#    y 0.000000 1.741010 0.000000 
#    z 0.000000 0.000000 1.710930 
# 
# From -- ./inp_files/8283.got.cif
#   From: 2010.03.12/outbox.cif.g09.slc.cpg/sg63_5_cif.got.tgz:8283.got - 2010.04.10 19:34:48.
