data_PCOD8256927
_publ_section_title
;
Structure prediction by ZEFSAII (Michael W. Deem and Ramdas Pophale) SiO2 
 PCOD8256927
Probable space group: C M C M
;
_chemical_formula_sum "Si O2"
_cell_formula_units_Z 96
_cell_length_a 8.922901
_cell_length_b 23.637209
_cell_length_c 25.940982
_cell_angle_alpha 90.000000
_cell_angle_beta 90.000000
_cell_angle_gamma 90.000000
_cell_volume 5471.276739
_symmetry_space_group_name_H-M "C M C M"
_symmetry_group_IT_number 63
_symmetry_cell_setting 'orthorhombic'
loop_
_space_group_symop_operation_xyz
x,y,z
-x,-y,1/2+z
x,-y,-z
-x,y,1/2-z
-x,-y,-z
x,y,1/2-z
-x,y,z
x,-y,1/2+z
1/2+x,1/2+y,z
1/2-x,1/2-y,1/2+z
1/2+x,1/2-y,-z
1/2-x,1/2+y,1/2-z
1/2-x,1/2-y,-z
1/2+x,1/2+y,1/2-z
1/2-x,1/2+y,z
1/2+x,1/2-y,1/2+z
loop_
_atom_site_type_symbol
_atom_site_label
_atom_site_fract_x
_atom_site_fract_y
_atom_site_fract_z
Si Si1 0.171428 0.582120 0.117269
Si Si2 0.174272 0.143570 0.933787
Si Si3 0.172320 0.319938 0.536875
Si Si4 0.676339 0.239772 0.886892
Si Si5 0.823664 0.835465 0.691246
Si Si6 0.174043 0.013157 0.557528
O O1 0.193208 0.623376 0.069344
O O2 0.248635 0.608588 0.167700
O O3 0.244865 0.522954 0.101450
O O4 0.000000 0.571160 0.131232
O O5 0.234587 0.179708 0.884488
O O6 0.204294 0.077496 0.925922
O O7 0.000000 0.155190 0.944009
O O8 0.273221 0.166342 0.980309
O O9 0.275828 0.270782 0.560211
O O10 0.000000 0.299738 0.536502
O O11 0.500000 0.228510 0.886464
O O12 0.727237 0.278626 0.838737
O O13 0.771260 0.828769 0.750000
O O14 0.000000 0.843670 0.686104
O O15 0.000000 0.997127 0.558384
O O16 0.237667 0.000000 0.500000
#
# Coordination Sequence:
#
# PCOD8256927 Si02
#       6
#    16  16  16  16  16  16
#     4  10  20  32  51  79 107 134 169 216 261 302
#     4  11  21  32  48  70 101 139 176 209 247 296
#     4  10  19  31  47  70 102 137 171 206 249 300
#     4  10  20  33  50  73 101 130 166 211 257 306
#     4   9  19  37  60  80  99 129 168 211 261 314
#     4  10  20  34  51  71 101 143 183 214 248 300
#
# _framework density 17.546178000000001
#
# number of rings (size 3 to 8) (size 9 to 14) (size 15 to 20)
#    0.000    2.000    1.667    2.500    0.000    4.000 
#    0.000    0.000    0.000    1.000    0.000    4.667 
#    0.000    0.000    0.000    0.000    0.000    0.000 
#
# Total GULP energy -595240.472792 kJ/mol
# GULP energy per Si atom -12400.843183 kJ/mol
# Density = 1.750624 g / cm^3
# Si number density = 17.546178 Si / 1000 Ang^3
#
#
#
# Elastic Constant Matrix: (Units=GPa)
#
#
# Indices 1 2 3 4 5 6 
#
# 1 57.3057 49.3550 34.1112 0.0000 0.0000 0.0000
# 2 49.3550 113.1785 46.9862 0.0000 0.0000 0.0000
# 3 34.1112 46.9862 86.0641 0.0000 0.0000 0.0000
# 4 0.0000 0.0000 0.0000 11.0843 0.0000 0.0000
# 5 0.0000 0.0000 0.0000 0.0000 19.6726 0.0000
# 6 0.0000 0.0000 0.0000 0.0000 0.0000 33.0586
#
#
#
# Elastic Compliance Matrix: (Units=1/GPa)
#
#
# Indices 1 2 3 4 5 6 
#
# 1 0.030307 -0.010641 -0.006203 0.000000 0.000000 0.000000
# 2 -0.010641 0.015162 -0.004060 0.000000 0.000000 0.000000
# 3 -0.006203 -0.004060 0.016294 0.000000 0.000000 0.000000
# 4 0.000000 0.000000 0.000000 0.090218 0.000000 0.000000
# 5 0.000000 0.000000 0.000000 0.000000 0.050832 0.000000
# 6 0.000000 0.000000 0.000000 0.000000 0.000000 0.030249
#
#
# Mechanical properties :
#
#
# Convention : Reuss Voigt Hill
#
# Bulk Modulus (GPa) = 50.11150 57.49480 53.80315
# Shear Modulus (GPa) = 17.76063 21.16948 19.46506
#
# Velocity S-wave (km/s) = 3.18500 3.47724 3.33432
# Velocity P-wave (km/s) = 6.49210 6.99717 6.74936
#
# Compressibility (1/GPa) = 0.01995550
#
# Stress axis : x y z
#
# Youngs Moduli (GPa) = 32.99516 65.95647 61.37241
#
# Poissons Ratio (x) = 0.70188 0.38067
# Poissons Ratio (y) = 0.35112 0.24915
# Poissons Ratio (z) = 0.20466 0.26776
#
# Static dielectric constant tensor:
#      x y z
#    x 3.285090 0.000000 0.000000 
#    y 0.000000 3.466870 0.000000 
#    z 0.000000 0.000000 3.091010 
# 
# 
# High freq. dielectric constant tensor:
#      x y z
#    x 1.686030 0.000000 0.000000 
#    y 0.000000 1.683670 0.000000 
#    z 0.000000 0.000000 1.643220 
# 
# From -- ./inp_files/59855.got.cif
#   From: 2010.03.12/outbox.cif.g09.slc.cpg/sg63_30_cif.got.tgz:59855.got - 2010.04.10 19:34:48.
