data_PCOD8256907
_publ_section_title
;
Structure prediction by ZEFSAII (Michael W. Deem and Ramdas Pophale) SiO2 
 PCOD8256907
Probable space group: C M C M
;
_chemical_formula_sum "Si O2"
_cell_formula_units_Z 80
_cell_length_a 9.062561
_cell_length_b 27.572402
_cell_length_c 18.732653
_cell_angle_alpha 90.000000
_cell_angle_beta 90.000000
_cell_angle_gamma 90.000000
_cell_volume 4680.851173
_symmetry_space_group_name_H-M "C M C M"
_symmetry_group_IT_number 63
_symmetry_cell_setting 'orthorhombic'
loop_
_space_group_symop_operation_xyz
x,y,z
-x,-y,1/2+z
x,-y,-z
-x,y,1/2-z
-x,-y,-z
x,y,1/2-z
-x,y,z
x,-y,1/2+z
1/2+x,1/2+y,z
1/2-x,1/2-y,1/2+z
1/2+x,1/2-y,-z
1/2-x,1/2+y,1/2-z
1/2-x,1/2-y,-z
1/2+x,1/2+y,1/2-z
1/2-x,1/2+y,z
1/2+x,1/2-y,1/2+z
loop_
_atom_site_type_symbol
_atom_site_label
_atom_site_fract_x
_atom_site_fract_y
_atom_site_fract_z
Si Si1 0.831493 0.156656 0.671906
Si Si2 0.166557 0.021583 0.079161
Si Si3 0.174667 0.798916 0.024619
Si Si4 0.334052 0.109367 0.470845
Si Si5 0.335627 0.066032 0.627323
O O1 0.812948 0.182103 0.750000
O O2 0.781763 0.192407 0.608029
O O3 0.738714 0.107398 0.674787
O O4 0.000000 0.141439 0.657626
O O5 0.254648 0.072394 0.083473
O O6 0.000000 0.030770 0.105158
O O7 0.243783 0.983734 0.132914
O O8 0.167220 0.000000 0.000000
O O9 0.000000 0.795575 0.013563
O O10 0.250000 0.750000 0.000000
O O11 0.238210 0.841791 0.975459
O O12 0.500000 0.121312 0.443899
O O13 0.341222 0.083631 0.546532
O O14 0.500000 0.056351 0.656359
#
# Coordination Sequence:
#
# PCOD8256907 Si02
#       5
#    16  16  16  16  16
#     4   9  18  32  48  66  90 121 155 190 231 281
#     4   9  15  23  37  58  85 116 146 174 208 254
#     4  10  19  31  47  67  92 121 155 197 243 288
#     4   9  16  26  40  60  87 116 147 184 225 268
#     4   9  16  25  39  61  88 116 145 179 219 264
#
# _framework density 17.090909
#
# number of rings (size 3 to 8) (size 9 to 14) (size 15 to 20)
#    0.000    2.800    0.000    2.400    0.000    8.400 
#    0.000    0.000    0.000    0.000    0.000    1.400 
#    0.000    8.000    0.000    0.000    0.000    0.000 
#
# Total GULP energy -495827.400838 kJ/mol
# GULP energy per Si atom -12395.685021 kJ/mol
# Density = 1.705201 g / cm^3
# Si number density = 17.090909 Si / 1000 Ang^3
#
#
#
# Elastic Constant Matrix: (Units=GPa)
#
#
# Indices 1 2 3 4 5 6 
#
# 1 131.5474 67.2190 30.7484 0.0000 0.0000 0.0000
# 2 67.2190 128.5287 40.5993 0.0000 0.0000 0.0000
# 3 30.7484 40.5993 49.1689 0.0000 0.0000 0.0000
# 4 0.0000 0.0000 0.0000 14.2881 0.0000 0.0000
# 5 0.0000 0.0000 0.0000 0.0000 11.6726 0.0000
# 6 0.0000 0.0000 0.0000 0.0000 0.0000 36.7916
#
#
#
# Elastic Compliance Matrix: (Units=1/GPa)
#
#
# Indices 1 2 3 4 5 6 
#
# 1 0.010649 -0.004689 -0.002788 0.000000 0.000000 0.000000
# 2 -0.004689 0.012590 -0.007464 0.000000 0.000000 0.000000
# 3 -0.002788 -0.007464 0.028244 0.000000 0.000000 0.000000
# 4 0.000000 0.000000 0.000000 0.069988 0.000000 0.000000
# 5 0.000000 0.000000 0.000000 0.000000 0.085671 0.000000
# 6 0.000000 0.000000 0.000000 0.000000 0.000000 0.027180
#
#
# Mechanical properties :
#
#
# Convention : Reuss Voigt Hill
#
# Bulk Modulus (GPa) = 46.29012 65.15315 55.72163
# Shear Modulus (GPa) = 18.42264 23.92903 21.17584
#
# Velocity S-wave (km/s) = 3.28673 3.74585 3.52378
# Velocity P-wave (km/s) = 6.44569 7.54406 7.01640
#
# Compressibility (1/GPa) = 0.02160288
#
# Stress axis : x y z
#
# Youngs Moduli (GPa) = 93.90143 79.42720 35.40518
#
# Poissons Ratio (x) = 0.37242 0.09872
# Poissons Ratio (y) = 0.44029 0.26425
# Poissons Ratio (z) = 0.26181 0.59281
#
# Static dielectric constant tensor:
#      x y z
#    x 3.475320 0.000000 0.000000 
#    y 0.000000 3.125870 0.000000 
#    z 0.000000 0.000000 2.826090 
# 
# 
# High freq. dielectric constant tensor:
#      x y z
#    x 1.679430 0.000000 0.000000 
#    y 0.000000 1.644060 0.000000 
#    z 0.000000 0.000000 1.605750 
# 
# From -- ./inp_files/40418.got.cif
#   From: 2010.03.12/outbox.cif.g09.slc.cpg/sg63_21_cif.got.tgz:40418.got - 2010.04.10 19:34:48.
