data_PCOD8256983
_publ_section_title
;
Structure prediction by ZEFSAII (Michael W. Deem and Ramdas Pophale) SiO2 
 PCOD8256983
Probable space group: C M C M
;
_chemical_formula_sum "Si O2"
_cell_formula_units_Z 96
_cell_length_a 23.771573
_cell_length_b 24.151949
_cell_length_c 9.295976
_cell_angle_alpha 90.000000
_cell_angle_beta 90.000000
_cell_angle_gamma 90.000000
_cell_volume 5337.097016
_symmetry_space_group_name_H-M "C M C M"
_symmetry_group_IT_number 63
_symmetry_cell_setting 'orthorhombic'
loop_
_space_group_symop_operation_xyz
x,y,z
-x,-y,1/2+z
x,-y,-z
-x,y,1/2-z
-x,-y,-z
x,y,1/2-z
-x,y,z
x,-y,1/2+z
1/2+x,1/2+y,z
1/2-x,1/2-y,1/2+z
1/2+x,1/2-y,-z
1/2-x,1/2+y,1/2-z
1/2-x,1/2-y,-z
1/2+x,1/2+y,1/2-z
1/2-x,1/2+y,z
1/2+x,1/2-y,1/2+z
loop_
_atom_site_type_symbol
_atom_site_label
_atom_site_fract_x
_atom_site_fract_y
_atom_site_fract_z
Si Si1 0.438255 0.373409 0.079718
Si Si2 0.662832 0.444761 0.080374
Si Si3 0.064834 0.444433 0.081951
Si Si4 0.234202 0.841750 0.420184
Si Si5 0.861365 0.339376 0.420861
Si Si6 0.632861 0.730925 0.579803
O O1 0.442143 0.372008 0.250000
O O2 0.500000 0.380160 0.009582
O O3 0.399748 0.425336 0.033625
O O4 0.410784 0.315962 0.029448
O O5 0.667056 0.454380 0.250000
O O6 0.706247 0.398441 0.025914
O O7 0.679727 0.500000 0.000000
O O8 0.073279 0.455701 0.250000
O O9 0.104115 0.393694 0.030117
O O10 0.000000 0.429563 0.046361
O O11 0.083764 0.500000 0.000000
O O12 0.235089 0.842356 0.250000
O O13 0.297429 0.841191 0.480506
O O14 0.195832 0.789194 0.468576
O O15 0.864510 0.332387 0.250000
O O16 0.887449 0.285571 0.496436
O O17 0.630524 0.741662 0.750000
#
# Coordination Sequence:
#
# PCOD8256983 Si02
#       6
#    16  16  16  16  16  16
#     4   8  15  29  47  65  89 123 155 182 219 266
#     4   9  17  30  47  66  90 119 152 189 225 262
#     4   9  19  35  51  67  90 119 149 183 224 268
#     4   8  16  31  47  64  91 125 152 178 220 270
#     4  10  19  31  49  70  92 119 148 180 225 274
#     4   9  17  30  48  69  92 118 152 188 217 257
#
# _framework density 17.987307000000001
#
# number of rings (size 3 to 8) (size 9 to 14) (size 15 to 20)
#    0.000    3.167    0.000    2.500    0.000    2.333 
#    0.000    4.167    0.000    1.000    0.000    0.000 
#    0.000    0.000    0.000    0.000    0.000    0.000 
#
# Total GULP energy -594923.173833 kJ/mol
# GULP energy per Si atom -12394.232788 kJ/mol
# Density = 1.794637 g / cm^3
# Si number density = 17.987307 Si / 1000 Ang^3
#
#
#
# Elastic Constant Matrix: (Units=GPa)
#
#
# Indices 1 2 3 4 5 6 
#
# 1 51.7500 15.9168 8.4809 0.0000 0.0000 0.0000
# 2 15.9168 120.0723 32.0329 0.0000 0.0000 0.0000
# 3 8.4809 32.0329 26.4881 0.0000 0.0000 0.0000
# 4 0.0000 0.0000 0.0000 35.3608 0.0000 0.0000
# 5 0.0000 0.0000 0.0000 0.0000 14.8498 0.0000
# 6 0.0000 0.0000 0.0000 0.0000 0.0000 23.0854
#
#
#
# Elastic Compliance Matrix: (Units=1/GPa)
#
#
# Indices 1 2 3 4 5 6 
#
# 1 0.020559 -0.001431 -0.004852 0.000000 0.000000 0.000000
# 2 -0.001431 0.012395 -0.014531 0.000000 0.000000 0.000000
# 3 -0.004852 -0.014531 0.056879 0.000000 0.000000 0.000000
# 4 0.000000 0.000000 0.000000 0.028280 0.000000 0.000000
# 5 0.000000 0.000000 0.000000 0.000000 0.067341 0.000000
# 6 0.000000 0.000000 0.000000 0.000000 0.000000 0.043318
#
#
# Mechanical properties :
#
#
# Convention : Reuss Voigt Hill
#
# Bulk Modulus (GPa) = 20.74490 34.57463 27.65976
# Shear Modulus (GPa) = 17.45401 24.11784 20.78592
#
# Velocity S-wave (km/s) = 3.11843 3.66570 3.40308
# Velocity P-wave (km/s) = 4.95219 6.09753 5.55446
#
# Compressibility (1/GPa) = 0.04820463
#
# Stress axis : x y z
#
# Youngs Moduli (GPa) = 48.64069 80.68052 17.58115
#
# Poissons Ratio (x) = 0.11544 0.08531
# Poissons Ratio (y) = 0.06960 0.25547
# Poissons Ratio (z) = 0.23601 1.17237
#
# Static dielectric constant tensor:
#      x y z
#    x 3.869300 0.000000 0.000000 
#    y 0.000000 3.287020 0.000000 
#    z 0.000000 0.000000 2.829300 
# 
# 
# High freq. dielectric constant tensor:
#      x y z
#    x 1.699750 0.000000 0.000000 
#    y 0.000000 1.700930 0.000000 
#    z 0.000000 0.000000 1.655560 
# 
# From -- ./inp_files/10466.got.cif
#   From: 2010.03.12/outbox.cif.g09.slc.cpg/sg63_6_cif.got.tgz:10466.got - 2010.04.10 19:34:48.
