data_PCOD8256725
_publ_section_title
;
Structure prediction by ZEFSAII (Michael W. Deem and Ramdas Pophale) SiO2 
 PCOD8256725
Probable space group: C M C M
;
_chemical_formula_sum "Si O2"
_cell_formula_units_Z 96
_cell_length_a 9.216922
_cell_length_b 23.657563
_cell_length_c 26.354902
_cell_angle_alpha 90.000000
_cell_angle_beta 90.000000
_cell_angle_gamma 90.000000
_cell_volume 5746.684085
_symmetry_space_group_name_H-M "C M C M"
_symmetry_group_IT_number 63
_symmetry_cell_setting 'orthorhombic'
loop_
_space_group_symop_operation_xyz
x,y,z
-x,-y,1/2+z
x,-y,-z
-x,y,1/2-z
-x,-y,-z
x,y,1/2-z
-x,y,z
x,-y,1/2+z
1/2+x,1/2+y,z
1/2-x,1/2-y,1/2+z
1/2+x,1/2-y,-z
1/2-x,1/2+y,1/2-z
1/2-x,1/2-y,-z
1/2+x,1/2+y,1/2-z
1/2-x,1/2+y,z
1/2+x,1/2-y,1/2+z
loop_
_atom_site_type_symbol
_atom_site_label
_atom_site_fract_x
_atom_site_fract_y
_atom_site_fract_z
Si Si1 0.164914 0.923218 0.031422
Si Si2 0.329446 0.667378 0.609322
Si Si3 0.326825 0.413284 0.193414
Si Si4 0.829206 0.272709 0.549719
Si Si5 0.663965 0.510763 0.119770
Si Si6 0.328903 0.900521 0.566039
O O1 0.228170 0.869628 0.062227
O O2 0.000000 0.912857 0.012217
O O3 0.169715 0.978237 0.066372
O O4 0.269931 0.931621 0.983919
O O5 0.500000 0.657184 0.611190
O O6 0.268227 0.642278 0.662611
O O7 0.289313 0.732569 0.598148
O O8 0.260234 0.411894 0.250000
O O9 0.500000 0.412772 0.195500
O O10 0.275472 0.470307 0.164597
O O11 0.750000 0.250000 0.500000
O O12 0.777952 0.335165 0.565419
O O13 0.000000 0.270780 0.538305
O O14 0.500000 0.529338 0.132202
O O15 0.761546 0.567296 0.114962
O O16 0.500000 0.906077 0.568782
#
# Coordination Sequence:
#
# PCOD8256725 Si02
#       6
#    16  16  16  16  16  16
#     4   9  16  28  45  62  85 120 155 183 218 267
#     4   8  14  26  44  65  89 115 144 187 233 265
#     4   8  14  27  50  75  89 102 141 199 243 270
#     4  10  19  30  44  63  91 126 159 186 218 264
#     4   9  18  30  45  66  89 116 149 185 228 273
#     4  11  21  28  39  63  94 126 155 183 215 261
#
# _framework density 16.705286000000001
#
# number of rings (size 3 to 8) (size 9 to 14) (size 15 to 20)
#    0.000    2.833    1.667    3.000    0.000    3.333 
#    0.000    0.000    0.000    1.500    0.000    2.333 
#    0.000    0.000    0.000    0.000    0.000    0.000 
#
# Total GULP energy -594796.172412 kJ/mol
# GULP energy per Si atom -12391.586925 kJ/mol
# Density = 1.666726 g / cm^3
# Si number density = 16.705286 Si / 1000 Ang^3
#
#
#
# Elastic Constant Matrix: (Units=GPa)
#
#
# Indices 1 2 3 4 5 6 
#
# 1 37.2964 31.0534 22.2162 0.0000 0.0000 0.0000
# 2 31.0534 106.2066 55.5570 0.0000 0.0000 0.0000
# 3 22.2162 55.5570 104.1601 0.0000 0.0000 0.0000
# 4 0.0000 0.0000 0.0000 16.0854 0.0000 0.0000
# 5 0.0000 0.0000 0.0000 0.0000 9.4453 0.0000
# 6 0.0000 0.0000 0.0000 0.0000 0.0000 21.9807
#
#
#
# Elastic Compliance Matrix: (Units=1/GPa)
#
#
# Indices 1 2 3 4 5 6 
#
# 1 0.036047 -0.009040 -0.002867 0.000000 0.000000 0.000000
# 2 -0.009040 0.015326 -0.006247 0.000000 0.000000 0.000000
# 3 -0.002867 -0.006247 0.013544 0.000000 0.000000 0.000000
# 4 0.000000 0.000000 0.000000 0.062168 0.000000 0.000000
# 5 0.000000 0.000000 0.000000 0.000000 0.105873 0.000000
# 6 0.000000 0.000000 0.000000 0.000000 0.000000 0.045494
#
#
# Mechanical properties :
#
#
# Convention : Reuss Voigt Hill
#
# Bulk Modulus (GPa) = 34.95238 51.70180 43.32709
# Shear Modulus (GPa) = 15.41804 18.75806 17.08805
#
# Velocity S-wave (km/s) = 3.04129 3.35458 3.20177
# Velocity P-wave (km/s) = 5.77070 6.78386 6.29769
#
# Compressibility (1/GPa) = 0.02861036
#
# Stress axis : x y z
#
# Youngs Moduli (GPa) = 27.74187 65.24665 73.83414
#
# Poissons Ratio (x) = 0.58983 0.21165
# Poissons Ratio (y) = 0.25079 0.46122
# Poissons Ratio (z) = 0.07952 0.40758
#
# Static dielectric constant tensor:
#      x y z
#    x 2.819690 0.000000 0.000000 
#    y 0.000000 3.400730 0.000000 
#    z 0.000000 0.000000 3.191180 
# 
# 
# High freq. dielectric constant tensor:
#      x y z
#    x 1.607170 0.000000 0.000000 
#    y 0.000000 1.649630 0.000000 
#    z 0.000000 0.000000 1.614580 
# 
# From -- ./inp_files/67220.got.cif
#   From: 2010.03.12/outbox.cif.g09.slc.cpg/sg63_34_cif.got.tgz:67220.got - 2010.04.10 19:34:48.
