data_PCOD8256635
_publ_section_title
;
Structure prediction by ZEFSAII (Michael W. Deem and Ramdas Pophale) SiO2 
 PCOD8256635
Probable space group: C M C M
;
_chemical_formula_sum "Si O2"
_cell_formula_units_Z 96
_cell_length_a 9.036148
_cell_length_b 26.884662
_cell_length_c 22.843549
_cell_angle_alpha 90.000000
_cell_angle_beta 90.000000
_cell_angle_gamma 90.000000
_cell_volume 5549.469816
_symmetry_space_group_name_H-M "C M C M"
_symmetry_group_IT_number 63
_symmetry_cell_setting 'orthorhombic'
loop_
_space_group_symop_operation_xyz
x,y,z
-x,-y,1/2+z
x,-y,-z
-x,y,1/2-z
-x,-y,-z
x,y,1/2-z
-x,y,z
x,-y,1/2+z
1/2+x,1/2+y,z
1/2-x,1/2-y,1/2+z
1/2+x,1/2-y,-z
1/2-x,1/2+y,1/2-z
1/2-x,1/2-y,-z
1/2+x,1/2+y,1/2-z
1/2-x,1/2+y,z
1/2+x,1/2-y,1/2+z
loop_
_atom_site_type_symbol
_atom_site_label
_atom_site_fract_x
_atom_site_fract_y
_atom_site_fract_z
Si Si1 0.662290 0.128868 0.596205
Si Si2 0.325932 0.942671 0.505902
Si Si3 0.336469 0.200312 0.004152
Si Si4 0.673541 0.296574 0.683133
Si Si5 0.827714 0.805213 0.181779
Si Si6 0.826563 0.872114 0.913755
O O1 0.500000 0.111681 0.619788
O O2 0.730085 0.085947 0.553145
O O3 0.641279 0.179385 0.560344
O O4 0.766971 0.144735 0.650132
O O5 0.500000 0.932661 0.511510
O O6 0.253930 0.923532 0.567254
O O7 0.284090 0.000000 0.500000
O O8 0.500000 0.205504 0.033971
O O9 0.222589 0.165961 0.037485
O O10 0.250000 0.250000 0.000000
O O11 0.717191 0.307242 0.750000
O O12 0.500000 0.286681 0.674933
O O13 0.754853 0.246767 0.659885
O O14 0.721276 0.346729 0.647965
O O15 0.793057 0.812552 0.250000
O O16 0.000000 0.801166 0.168194
O O17 0.000000 0.882237 0.915256
#
# Coordination Sequence:
#
# PCOD8256635 Si02
#       6
#    16  16  16  16  16  16
#     4   9  18  31  47  67  90 121 157 189 230 284
#     4   9  19  36  55  73  94 120 152 196 248 293
#     4  10  19  29  42  64  95 126 155 190 233 280
#     4   9  18  32  48  67  96 133 166 193 224 270
#     4  10  20  31  45  69  99 129 161 196 231 267
#     4  10  19  30  47  71  95 122 158 195 234 283
#
# _framework density 17.298949
#
# number of rings (size 3 to 8) (size 9 to 14) (size 15 to 20)
#    0.000    2.500    0.000    3.500    0.000   10.000 
#    0.000    0.000    0.000    1.000    0.000    4.667 
#    0.000    0.000    0.000    0.000    0.000    0.000 
#
# Total GULP energy -594637.693010 kJ/mol
# GULP energy per Si atom -12388.285271 kJ/mol
# Density = 1.725958 g / cm^3
# Si number density = 17.298949 Si / 1000 Ang^3
#
#
#
# Elastic Constant Matrix: (Units=GPa)
#
#
# Indices 1 2 3 4 5 6 
#
# 1 54.2271 42.5747 35.8979 0.0000 0.0000 0.0000
# 2 42.5747 114.9840 46.4974 0.0000 0.0000 0.0000
# 3 35.8979 46.4974 77.0011 0.0000 0.0000 0.0000
# 4 0.0000 0.0000 0.0000 26.9977 0.0000 0.0000
# 5 0.0000 0.0000 0.0000 0.0000 24.9136 0.0000
# 6 0.0000 0.0000 0.0000 0.0000 0.0000 23.3144
#
#
#
# Elastic Compliance Matrix: (Units=1/GPa)
#
#
# Indices 1 2 3 4 5 6 
#
# 1 0.030801 -0.007406 -0.009887 0.000000 0.000000 0.000000
# 2 -0.007406 0.013288 -0.004571 0.000000 0.000000 0.000000
# 3 -0.009887 -0.004571 0.020356 0.000000 0.000000 0.000000
# 4 0.000000 0.000000 0.000000 0.037040 0.000000 0.000000
# 5 0.000000 0.000000 0.000000 0.000000 0.040139 0.000000
# 6 0.000000 0.000000 0.000000 0.000000 0.000000 0.042892
#
#
# Mechanical properties :
#
#
# Convention : Reuss Voigt Hill
#
# Bulk Modulus (GPa) = 48.27136 55.12803 51.69969
# Shear Modulus (GPa) = 21.26304 23.12796 22.19550
#
# Velocity S-wave (km/s) = 3.50973 3.66041 3.58586
# Velocity P-wave (km/s) = 6.66251 7.05704 6.86261
#
# Compressibility (1/GPa) = 0.02071622
#
# Stress axis : x y z
#
# Youngs Moduli (GPa) = 32.46647 75.25812 49.12482
#
# Poissons Ratio (x) = 0.55740 0.48570
# Poissons Ratio (y) = 0.24046 0.22454
# Poissons Ratio (z) = 0.32100 0.34400
#
# Static dielectric constant tensor:
#      x y z
#    x 3.357120 0.000000 0.000000 
#    y 0.000000 2.921090 0.000000 
#    z 0.000000 0.000000 3.270390 
# 
# 
# High freq. dielectric constant tensor:
#      x y z
#    x 1.672500 0.000000 0.000000 
#    y 0.000000 1.645820 0.000000 
#    z 0.000000 0.000000 1.655610 
# 
# From -- ./inp_files/60186.got.cif
#   From: 2010.03.12/outbox.cif.g09.slc.cpg/sg63_31_cif.got.tgz:60186.got - 2010.04.10 19:34:48.
