data_PCOD8256631
_publ_section_title
;
Structure prediction by ZEFSAII (Michael W. Deem and Ramdas Pophale) SiO2 
 PCOD8256631
Probable space group: C M C M
;
_chemical_formula_sum "Si O2"
_cell_formula_units_Z 72
_cell_length_a 22.916636
_cell_length_b 22.896642
_cell_length_c 8.866211
_cell_angle_alpha 90.000000
_cell_angle_beta 90.000000
_cell_angle_gamma 90.000000
_cell_volume 4652.225130
_symmetry_space_group_name_H-M "C M C M"
_symmetry_group_IT_number 63
_symmetry_cell_setting 'orthorhombic'
loop_
_space_group_symop_operation_xyz
x,y,z
-x,-y,1/2+z
x,-y,-z
-x,y,1/2-z
-x,-y,-z
x,y,1/2-z
-x,y,z
x,-y,1/2+z
1/2+x,1/2+y,z
1/2-x,1/2-y,1/2+z
1/2+x,1/2-y,-z
1/2-x,1/2+y,1/2-z
1/2-x,1/2-y,-z
1/2+x,1/2+y,1/2-z
1/2-x,1/2+y,z
1/2+x,1/2-y,1/2+z
loop_
_atom_site_type_symbol
_atom_site_label
_atom_site_fract_x
_atom_site_fract_y
_atom_site_fract_z
Si Si1 0.285955 0.332888 0.080472
Si Si2 0.108956 0.375828 0.925864
Si Si3 0.730360 0.062330 0.425984
Si Si4 0.837792 0.729927 0.580260
Si Si5 0.500000 0.063313 0.571827
O O1 0.307943 0.344663 0.250000
O O2 0.225549 0.298550 0.082665
O O3 0.278264 0.394180 0.995505
O O4 0.334167 0.294132 0.993721
O O5 0.092944 0.375560 0.750000
O O6 0.165413 0.415050 0.959960
O O7 0.119143 0.309579 0.980163
O O8 0.056822 0.402003 0.021668
O O9 0.742352 0.057723 0.250000
O O10 0.738909 0.000000 0.500000
O O11 0.862451 0.735394 0.750000
O O12 0.500000 0.056268 0.750000
O O13 0.500000 0.000000 0.500000
#
# Coordination Sequence:
#
# PCOD8256631 Si02
#       5
#    16  16  16  16   8
#     4   9  16  26  41  60  82 107 135 168 206 249
#     4  10  20  33  47  62  81 108 143 181 219 256
#     4  10  19  29  42  60  83 111 142 175 211 253
#     4   9  16  27  43  62  82 104 134 171 210 251
#     4  12  24  36  48  62  82 110 145 184 223 258
#
# _framework density 15.476464999999999
#
# number of rings (size 3 to 8) (size 9 to 14) (size 15 to 20)
#    0.000    2.222    0.000    4.333    0.000    9.778 
#    0.000    0.000    0.000    0.000    0.000    0.000 
#    0.000    0.000    0.000    1.000    0.000   14.000 
#
# Total GULP energy -446439.748087 kJ/mol
# GULP energy per Si atom -12401.104114 kJ/mol
# Density = 1.544124 g / cm^3
# Si number density = 15.476465 Si / 1000 Ang^3
#
#
#
# Elastic Constant Matrix: (Units=GPa)
#
#
# Indices 1 2 3 4 5 6 
#
# 1 36.2743 44.6971 32.3278 0.0000 0.0000 0.0000
# 2 44.6971 136.3831 72.9940 0.0000 0.0000 0.0000
# 3 32.3278 72.9940 125.0642 0.0000 0.0000 0.0000
# 4 0.0000 0.0000 0.0000 33.5357 0.0000 0.0000
# 5 0.0000 0.0000 0.0000 0.0000 20.6261 0.0000
# 6 0.0000 0.0000 0.0000 0.0000 0.0000 18.8986
#
#
#
# Elastic Compliance Matrix: (Units=1/GPa)
#
#
# Indices 1 2 3 4 5 6 
#
# 1 0.048067 -0.013239 -0.004698 0.000000 0.000000 0.000000
# 2 -0.013239 0.014309 -0.004930 0.000000 0.000000 0.000000
# 3 -0.004698 -0.004930 0.012088 0.000000 0.000000 0.000000
# 4 0.000000 0.000000 0.000000 0.029819 0.000000 0.000000
# 5 0.000000 0.000000 0.000000 0.000000 0.048482 0.000000
# 6 0.000000 0.000000 0.000000 0.000000 0.000000 0.052914
#
#
# Mechanical properties :
#
#
# Convention : Reuss Voigt Hill
#
# Bulk Modulus (GPa) = 34.80517 66.41773 50.61145
# Shear Modulus (GPa) = 19.15784 24.45894 21.80839
#
# Velocity S-wave (km/s) = 3.52215 3.97973 3.75791
# Velocity P-wave (km/s) = 6.25129 8.00788 7.18348
#
# Compressibility (1/GPa) = 0.02873136
#
# Stress axis : x y z
#
# Youngs Moduli (GPa) = 20.80410 69.88376 82.72996
#
# Poissons Ratio (x) = 0.92517 0.38867
# Poissons Ratio (y) = 0.27542 0.40783
# Poissons Ratio (z) = 0.09774 0.34450
#
# Static dielectric constant tensor:
#      x y z
#    x 2.681500 0.000000 0.000000 
#    y 0.000000 3.052810 0.000000 
#    z 0.000000 0.000000 3.216390 
# 
# 
# High freq. dielectric constant tensor:
#      x y z
#    x 1.533350 0.000000 0.000000 
#    y 0.000000 1.594090 0.000000 
#    z 0.000000 0.000000 1.619030 
# 
# From -- ./inp_files/6084.got.cif
#   From: 2010.03.12/outbox.cif.g09.slc.cpg/sg63_4_cif.got.tgz:6084.got - 2010.04.10 19:34:48.
