data_PCOD8256362
_publ_section_title
;
Structure prediction by ZEFSAII (Michael W. Deem and Ramdas Pophale) SiO2 
 PCOD8256362
Probable space group: C M C M
;
_chemical_formula_sum "Si O2"
_cell_formula_units_Z 72
_cell_length_a 9.401427
_cell_length_b 28.775399
_cell_length_c 14.603937
_cell_angle_alpha 90.000000
_cell_angle_beta 90.000000
_cell_angle_gamma 90.000000
_cell_volume 3950.800347
_symmetry_space_group_name_H-M "C M C M"
_symmetry_group_IT_number 63
_symmetry_cell_setting 'orthorhombic'
loop_
_space_group_symop_operation_xyz
x,y,z
-x,-y,1/2+z
x,-y,-z
-x,y,1/2-z
-x,-y,-z
x,y,1/2-z
-x,y,z
x,-y,1/2+z
1/2+x,1/2+y,z
1/2-x,1/2-y,1/2+z
1/2+x,1/2-y,-z
1/2-x,1/2+y,1/2-z
1/2-x,1/2-y,-z
1/2+x,1/2+y,1/2-z
1/2-x,1/2+y,z
1/2+x,1/2-y,1/2+z
loop_
_atom_site_type_symbol
_atom_site_label
_atom_site_fract_x
_atom_site_fract_y
_atom_site_fract_z
Si Si1 0.161980 0.299830 0.750000
Si Si2 0.834418 0.781736 0.929598
Si Si3 0.252604 0.902294 0.750000
Si Si4 0.337372 0.007357 0.750000
Si Si5 0.168208 0.457235 0.439244
Si Si6 0.654582 0.612010 0.049364
O O1 0.249294 0.279524 0.834889
O O2 0.148756 0.356252 0.750000
O O3 0.000000 0.280713 0.750000
O O4 0.828387 0.833634 0.967932
O O5 0.000000 0.765987 0.917031
O O6 0.750000 0.750000 0.000000
O O7 0.161517 0.900496 0.842834
O O8 0.334889 0.951241 0.750000
O O9 0.500000 0.021790 0.750000
O O10 0.267003 0.031394 0.838980
O O11 0.217758 0.500000 0.500000
O O12 0.228431 0.410867 0.484387
O O13 0.000000 0.451748 0.437217
O O14 0.500000 0.595070 0.016124
#
# Coordination Sequence:
#
# PCOD8256362 Si02
#       6
#     8  16   8   8  16  16
#     4  10  20  33  57  88 114 142 180 226 285 342
#     4  10  21  38  59  83 113 146 186 234 284 335
#     4  10  18  32  53  81 109 141 177 225 272 323
#     4  10  19  33  50  75 109 141 181 227 267 309
#     4  10  20  34  53  76 105 144 184 223 265 320
#     4  10  21  36  54  80 112 142 177 226 277 326
#
# _framework density 18.224153999999999
#
# number of rings (size 3 to 8) (size 9 to 14) (size 15 to 20)
#    0.000    2.000    2.222    1.667    0.000    7.556 
#    0.000    1.667    0.000    5.333    0.000    0.000 
#    0.000    0.000    0.000    0.000    0.000    0.000 
#
# Total GULP energy -446141.821157 kJ/mol
# GULP energy per Si atom -12392.828365 kJ/mol
# Density = 1.818268 g / cm^3
# Si number density = 18.224154 Si / 1000 Ang^3
#
#
#
# Elastic Constant Matrix: (Units=GPa)
#
#
# Indices 1 2 3 4 5 6 
#
# 1 96.3901 37.5129 55.6493 0.0000 0.0000 0.0000
# 2 37.5129 71.1602 63.9980 0.0000 0.0000 0.0000
# 3 55.6493 63.9980 151.5634 0.0000 0.0000 0.0000
# 4 0.0000 0.0000 0.0000 34.2394 0.0000 0.0000
# 5 0.0000 0.0000 0.0000 0.0000 23.1539 0.0000
# 6 0.0000 0.0000 0.0000 0.0000 0.0000 26.9537
#
#
#
# Elastic Compliance Matrix: (Units=1/GPa)
#
#
# Indices 1 2 3 4 5 6 
#
# 1 0.013985 -0.004441 -0.003260 0.000000 0.000000 0.000000
# 2 -0.004441 0.024067 -0.008532 0.000000 0.000000 0.000000
# 3 -0.003260 -0.008532 0.011397 0.000000 0.000000 0.000000
# 4 0.000000 0.000000 0.000000 0.029206 0.000000 0.000000
# 5 0.000000 0.000000 0.000000 0.000000 0.043189 0.000000
# 6 0.000000 0.000000 0.000000 0.000000 0.000000 0.037101
#
#
# Mechanical properties :
#
#
# Convention : Reuss Voigt Hill
#
# Bulk Modulus (GPa) = 58.87678 70.38155 64.62916
# Shear Modulus (GPa) = 25.37167 27.66633 26.51900
#
# Velocity S-wave (km/s) = 3.73527 3.90052 3.81879
# Velocity P-wave (km/s) = 7.14004 7.68044 7.41516
#
# Compressibility (1/GPa) = 0.01698463
#
# Stress axis : x y z
#
# Youngs Moduli (GPa) = 71.50727 41.55105 87.73993
#
# Poissons Ratio (x) = 0.18451 0.28600
# Poissons Ratio (y) = 0.31753 0.74858
# Poissons Ratio (z) = 0.23309 0.35451
#
# Static dielectric constant tensor:
#      x y z
#    x 3.295140 0.000000 0.000000 
#    y 0.000000 3.246230 0.000000 
#    z 0.000000 0.000000 3.791600 
# 
# 
# High freq. dielectric constant tensor:
#      x y z
#    x 1.702370 0.000000 0.000000 
#    y 0.000000 1.691810 0.000000 
#    z 0.000000 0.000000 1.712590 
# 
# From -- ./inp_files/27977.got.cif
#   From: 2010.03.12/outbox.cif.g09.slc.cpg/sg63_14_cif.got.tgz:27977.got - 2010.04.10 19:34:48.
