data_PCOD8256979
_publ_section_title
;
Structure prediction by ZEFSAII (Michael W. Deem and Ramdas Pophale) SiO2 
 PCOD8256979
Probable space group: C M C M
;
_chemical_formula_sum "Si O2"
_cell_formula_units_Z 96
_cell_length_a 7.758496
_cell_length_b 28.513774
_cell_length_c 23.094733
_cell_angle_alpha 90.000000
_cell_angle_beta 90.000000
_cell_angle_gamma 90.000000
_cell_volume 5109.109248
_symmetry_space_group_name_H-M "C M C M"
_symmetry_group_IT_number 63
_symmetry_cell_setting 'orthorhombic'
loop_
_space_group_symop_operation_xyz
x,y,z
-x,-y,1/2+z
x,-y,-z
-x,y,1/2-z
-x,-y,-z
x,y,1/2-z
-x,y,z
x,-y,1/2+z
1/2+x,1/2+y,z
1/2-x,1/2-y,1/2+z
1/2+x,1/2-y,-z
1/2-x,1/2+y,1/2-z
1/2-x,1/2-y,-z
1/2+x,1/2+y,1/2-z
1/2-x,1/2+y,z
1/2+x,1/2-y,1/2+z
loop_
_atom_site_type_symbol
_atom_site_label
_atom_site_fract_x
_atom_site_fract_y
_atom_site_fract_z
Si Si1 0.300966 0.302784 0.012800
Si Si2 0.000000 0.747563 0.181953
Si Si3 0.305844 0.050743 0.994193
Si Si4 0.802440 0.180671 0.183446
Si Si5 0.803366 0.121566 0.079536
Si Si6 0.500000 0.353692 0.180727
Si Si7 0.802210 0.375739 0.399838
O O1 0.500000 0.305946 0.028863
O O2 0.200187 0.325639 0.067037
O O3 0.250000 0.250000 0.000000
O O4 0.254413 0.331388 0.955038
O O5 0.826016 0.721314 0.161366
O O6 0.000000 0.800075 0.158254
O O7 0.000000 0.750046 0.250000
O O8 0.500000 0.040950 0.975229
O O9 0.303532 0.077186 0.056331
O O10 0.228054 0.084418 0.944217
O O11 0.210692 0.000000 0.000000
O O12 0.768059 0.167548 0.250000
O O13 0.765595 0.133228 0.146860
O O14 0.000000 0.197820 0.173403
O O15 0.000000 0.107513 0.069143
O O16 0.500000 0.359453 0.250000
O O17 0.325122 0.376935 0.155466
O O18 0.000000 0.385016 0.379719
#
# Coordination Sequence:
#
# PCOD8256979 Si02
#       7
#    16   8  16  16  16   8  16
#     4  10  19  31  48  75 111 146 181 225 275 326
#     4   9  20  34  50  73 100 146 190 218 261 304
#     4   9  19  36  58  84 109 135 174 225 279 338
#     4   9  18  33  51  73 106 143 182 225 260 308
#     4   9  19  31  47  76 105 138 178 211 265 326
#     4  11  24  40  57  81 113 148 196 238 264 320
#     4  10  21  38  57  81 112 144 183 231 285 334
#
# _framework density 18.789967999999998
#
# number of rings (size 3 to 8) (size 9 to 14) (size 15 to 20)
#    0.000    2.500    0.833    0.500    4.667    2.000 
#    0.000    1.667    0.000    1.000    0.000    2.333 
#    0.000    0.000    0.000    0.000    0.000    0.000 
#
# Total GULP energy -594874.363506 kJ/mol
# GULP energy per Si atom -12393.215906 kJ/mol
# Density = 1.874720 g / cm^3
# Si number density = 18.789968 Si / 1000 Ang^3
#
#
#
# Elastic Constant Matrix: (Units=GPa)
#
#
# Indices 1 2 3 4 5 6 
#
# 1 87.6882 30.7122 41.9493 0.0000 0.0000 0.0000
# 2 30.7122 128.9057 44.2828 0.0000 0.0000 0.0000
# 3 41.9493 44.2828 95.7855 0.0000 0.0000 0.0000
# 4 0.0000 0.0000 0.0000 16.6685 0.0000 0.0000
# 5 0.0000 0.0000 0.0000 0.0000 24.8982 0.0000
# 6 0.0000 0.0000 0.0000 0.0000 0.0000 16.0191
#
#
#
# Elastic Compliance Matrix: (Units=1/GPa)
#
#
# Indices 1 2 3 4 5 6 
#
# 1 0.014677 -0.001532 -0.005719 0.000000 0.000000 0.000000
# 2 -0.001532 0.009382 -0.003667 0.000000 0.000000 0.000000
# 3 -0.005719 -0.003667 0.014640 0.000000 0.000000 0.000000
# 4 0.000000 0.000000 0.000000 0.059993 0.000000 0.000000
# 5 0.000000 0.000000 0.000000 0.000000 0.040164 0.000000
# 6 0.000000 0.000000 0.000000 0.000000 0.000000 0.062426
#
#
# Mechanical properties :
#
#
# Convention : Reuss Voigt Hill
#
# Bulk Modulus (GPa) = 59.30185 60.69643 59.99914
# Shear Modulus (GPa) = 21.85906 24.54617 23.20262
#
# Velocity S-wave (km/s) = 3.41447 3.61826 3.51784
# Velocity P-wave (km/s) = 6.86831 7.05893 6.96427
#
# Compressibility (1/GPa) = 0.01686288
#
# Stress axis : x y z
#
# Youngs Moduli (GPa) = 68.13505 106.58510 68.30642
#
# Poissons Ratio (x) = 0.16329 0.39067
# Poissons Ratio (y) = 0.10438 0.25045
# Poissons Ratio (z) = 0.38969 0.39080
#
# Static dielectric constant tensor:
#      x y z
#    x 3.521600 0.000000 0.000000 
#    y 0.000000 7.937910 0.000000 
#    z 0.000000 0.000000 3.761190 
# 
# 
# High freq. dielectric constant tensor:
#      x y z
#    x 1.734600 0.000000 0.000000 
#    y 0.000000 1.704800 0.000000 
#    z 0.000000 0.000000 1.716790 
# 
# From -- ./inp_files/60340.got.cif
#   From: 2010.03.12/outbox.cif.g09.slc.cpg/sg63_31_cif.got.tgz:60340.got - 2010.04.10 19:34:48.
