data_PCOD8256671
_publ_section_title
;
Structure prediction by ZEFSAII (Michael W. Deem and Ramdas Pophale) SiO2 
 PCOD8256671
Probable space group: C M C M
;
_chemical_formula_sum "Si O2"
_cell_formula_units_Z 96
_cell_length_a 9.289584
_cell_length_b 25.069144
_cell_length_c 25.005946
_cell_angle_alpha 90.000000
_cell_angle_beta 90.000000
_cell_angle_gamma 90.000000
_cell_volume 5823.432691
_symmetry_space_group_name_H-M "C M C M"
_symmetry_group_IT_number 63
_symmetry_cell_setting 'orthorhombic'
loop_
_space_group_symop_operation_xyz
x,y,z
-x,-y,1/2+z
x,-y,-z
-x,y,1/2-z
-x,-y,-z
x,y,1/2-z
-x,y,z
x,-y,1/2+z
1/2+x,1/2+y,z
1/2-x,1/2-y,1/2+z
1/2+x,1/2-y,-z
1/2-x,1/2+y,1/2-z
1/2-x,1/2-y,-z
1/2+x,1/2+y,1/2-z
1/2-x,1/2+y,z
1/2+x,1/2-y,1/2+z
loop_
_atom_site_type_symbol
_atom_site_label
_atom_site_fract_x
_atom_site_fract_y
_atom_site_fract_z
Si Si1 0.832602 0.152397 0.188181
Si Si2 0.168154 0.550854 0.893172
Si Si3 0.658328 0.436936 0.006280
Si Si4 0.662489 0.744875 0.686405
Si Si5 0.330926 0.558519 0.110462
Si Si6 0.834039 0.357049 0.188639
O O1 0.796843 0.141022 0.250000
O O2 0.744429 0.202696 0.165459
O O3 0.784243 0.100448 0.155470
O O4 0.000000 0.165173 0.179679
O O5 0.228845 0.578094 0.947498
O O6 0.243810 0.495416 0.878993
O O7 0.201617 0.590144 0.844430
O O8 0.000000 0.540611 0.901317
O O9 0.500000 0.414607 0.021869
O O10 0.650580 0.500000 0.000000
O O11 0.706283 0.415505 0.947715
O O12 0.667484 0.744659 0.750000
O O13 0.500000 0.745605 0.664458
O O14 0.741066 0.691814 0.665140
O O15 0.500000 0.544562 0.113367
O O16 0.793809 0.369416 0.250000
O O17 0.000000 0.340407 0.182997
#
# Coordination Sequence:
#
# PCOD8256671 Si02
#       6
#    16  16  16  16  16  16
#     4   9  17  30  48  68  91 120 150 180 218 265
#     4  10  19  29  45  69  92 116 149 187 223 260
#     4   8  15  29  46  62  85 118 152 184 218 259
#     4   9  17  29  46  68  90 114 149 188 221 257
#     4   9  18  31  46  66  92 122 152 179 216 267
#     4   9  18  32  47  64  90 122 150 178 220 271
#
# _framework density 16.485123000000002
#
# number of rings (size 3 to 8) (size 9 to 14) (size 15 to 20)
#    0.000    3.000    0.000    2.000    0.000    7.667 
#    0.000    0.000    0.000    1.000    0.000    0.000 
#    0.000    0.000    0.000    0.000    0.000    0.000 
#
# Total GULP energy -595062.783697 kJ/mol
# GULP energy per Si atom -12397.141327 kJ/mol
# Density = 1.644760 g / cm^3
# Si number density = 16.485123 Si / 1000 Ang^3
#
#
#
# Elastic Constant Matrix: (Units=GPa)
#
#
# Indices 1 2 3 4 5 6 
#
# 1 95.7494 69.8307 50.1512 0.0000 0.0000 0.0000
# 2 69.8307 104.9531 57.9498 0.0000 0.0000 0.0000
# 3 50.1512 57.9498 84.5841 0.0000 0.0000 0.0000
# 4 0.0000 0.0000 0.0000 2.7862 0.0000 0.0000
# 5 0.0000 0.0000 0.0000 0.0000 22.2993 0.0000
# 6 0.0000 0.0000 0.0000 0.0000 0.0000 24.4068
#
#
#
# Elastic Compliance Matrix: (Units=1/GPa)
#
#
# Indices 1 2 3 4 5 6 
#
# 1 0.021399 -0.011633 -0.004718 0.000000 0.000000 0.000000
# 2 -0.011633 0.021649 -0.007935 0.000000 0.000000 0.000000
# 3 -0.004718 -0.007935 0.020056 0.000000 0.000000 0.000000
# 4 0.000000 0.000000 0.000000 0.358909 0.000000 0.000000
# 5 0.000000 0.000000 0.000000 0.000000 0.044844 0.000000
# 6 0.000000 0.000000 0.000000 0.000000 0.000000 0.040972
#
#
# Mechanical properties :
#
#
# Convention : Reuss Voigt Hill
#
# Bulk Modulus (GPa) = 68.80878 71.23889 70.02383
# Shear Modulus (GPa) = 8.90874 17.05546 12.98210
#
# Velocity S-wave (km/s) = 2.32720 3.22000 2.80929
# Velocity P-wave (km/s) = 7.00369 7.55860 7.28643
#
# Compressibility (1/GPa) = 0.01453303
#
# Stress axis : x y z
#
# Youngs Moduli (GPa) = 46.73118 46.19094 49.85980
#
# Poissons Ratio (x) = 0.53733 0.23524
# Poissons Ratio (y) = 0.54362 0.39563
# Poissons Ratio (z) = 0.22048 0.36652
#
# Static dielectric constant tensor:
#      x y z
#    x 3.187750 0.000000 0.000000 
#    y 0.000000 2.952890 0.000000 
#    z 0.000000 0.000000 3.304470 
# 
# 
# High freq. dielectric constant tensor:
#      x y z
#    x 1.638720 0.000000 0.000000 
#    y 0.000000 1.615050 0.000000 
#    z 0.000000 0.000000 1.619870 
# 
# From -- ./inp_files/60174.got.cif
#   From: 2010.03.12/outbox.cif.g09.slc.cpg/sg63_31_cif.got.tgz:60174.got - 2010.04.10 19:34:48.
