data_PCOD8256982
_publ_section_title
;
Structure prediction by ZEFSAII (Michael W. Deem and Ramdas Pophale) SiO2 
 PCOD8256982
Probable space group: C M C M
;
_chemical_formula_sum "Si O2"
_cell_formula_units_Z 96
_cell_length_a 9.317007
_cell_length_b 23.047755
_cell_length_c 26.526057
_cell_angle_alpha 90.000000
_cell_angle_beta 90.000000
_cell_angle_gamma 90.000000
_cell_volume 5696.101887
_symmetry_space_group_name_H-M "C M C M"
_symmetry_group_IT_number 63
_symmetry_cell_setting 'orthorhombic'
loop_
_space_group_symop_operation_xyz
x,y,z
-x,-y,1/2+z
x,-y,-z
-x,y,1/2-z
-x,-y,-z
x,y,1/2-z
-x,y,z
x,-y,1/2+z
1/2+x,1/2+y,z
1/2-x,1/2-y,1/2+z
1/2+x,1/2-y,-z
1/2-x,1/2+y,1/2-z
1/2-x,1/2-y,-z
1/2+x,1/2+y,1/2-z
1/2-x,1/2+y,z
1/2+x,1/2-y,1/2+z
loop_
_atom_site_type_symbol
_atom_site_label
_atom_site_fract_x
_atom_site_fract_y
_atom_site_fract_z
Si Si1 0.670737 0.143259 0.642072
Si Si2 0.171187 0.489747 0.359977
Si Si3 0.660074 0.727928 0.928565
Si Si4 0.156838 0.643668 0.750000
Si Si5 0.156505 0.506479 0.750000
Si Si6 0.831295 0.959582 0.546057
Si Si7 0.659065 0.327376 0.962217
O O1 0.500000 0.151286 0.640208
O O2 0.711985 0.077101 0.629831
O O3 0.743814 0.184330 0.602503
O O4 0.733621 0.161320 0.697607
O O5 0.230441 0.510020 0.303968
O O6 0.248638 0.527132 0.402410
O O7 0.000000 0.498564 0.362648
O O8 0.500000 0.732690 0.905892
O O9 0.730699 0.791976 0.927000
O O10 0.654440 0.702965 0.984166
O O11 0.136347 0.575007 0.750000
O O12 0.000000 0.672873 0.750000
O O13 0.000000 0.476871 0.750000
O O14 0.791430 0.893737 0.531685
O O15 0.000000 0.969042 0.555026
O O16 0.777302 0.000000 0.500000
O O17 0.500000 0.325083 0.937747
#
# Coordination Sequence:
#
# PCOD8256982 Si02
#       7
#    16  16  16   8   8  16  16
#     4   9  16  28  47  70  95 122 151 183 224 272
#     4   9  17  29  48  72  96 124 157 192 228 272
#     4  10  19  31  49  69  89 116 152 193 230 266
#     4   7  12  24  43  66  91 120 151 180 216 271
#     4   7  12  26  45  66  93 122 153 190 232 269
#     4  10  20  33  48  68  98 129 152 184 233 281
#     4   9  19  34  48  64  90 124 155 182 222 276
#
# _framework density 16.853629999999999
#
# number of rings (size 3 to 8) (size 9 to 14) (size 15 to 20)
#    0.000    3.000    0.000    3.500    0.000    3.667 
#    0.000    0.833    0.000    4.000    0.000    1.167 
#    0.000    0.000    0.000    0.000    0.000    0.000 
#
# Total GULP energy -594636.217861 kJ/mol
# GULP energy per Si atom -12388.254539 kJ/mol
# Density = 1.681527 g / cm^3
# Si number density = 16.853630 Si / 1000 Ang^3
#
#
#
# Elastic Constant Matrix: (Units=GPa)
#
#
# Indices 1 2 3 4 5 6 
#
# 1 43.6665 33.5775 22.8098 0.0000 0.0000 0.0000
# 2 33.5775 87.7182 18.2379 0.0000 0.0000 0.0000
# 3 22.8098 18.2379 58.6877 0.0000 0.0000 0.0000
# 4 0.0000 0.0000 0.0000 -9.8060 0.0000 0.0000
# 5 0.0000 0.0000 0.0000 0.0000 17.1846 0.0000
# 6 0.0000 0.0000 0.0000 0.0000 0.0000 14.0360
#
#
#
# Elastic Compliance Matrix: (Units=1/GPa)
#
#
# Indices 1 2 3 4 5 6 
#
# 1 0.038096 -0.012299 -0.010985 0.000000 0.000000 0.000000
# 2 -0.012299 0.016158 -0.000241 0.000000 0.000000 0.000000
# 3 -0.010985 -0.000241 0.021384 0.000000 0.000000 0.000000
# 4 0.000000 0.000000 0.000000 -0.101978 0.000000 0.000000
# 5 0.000000 0.000000 0.000000 0.000000 0.058192 0.000000
# 6 0.000000 0.000000 0.000000 0.000000 0.000000 0.071245
#
#
# Mechanical properties :
#
#
# Convention : Reuss Voigt Hill
#
# Bulk Modulus (GPa) = 34.97902 37.70252 36.34077
# Shear Modulus (GPa) = 31.31356 11.97940 21.64648
#
# Velocity S-wave (km/s) = 4.31509 2.66896 3.58771
# Velocity P-wave (km/s) = 6.75473 5.64950 6.22669
#
# Compressibility (1/GPa) = 0.02858856
#
# Stress axis : x y z
#
# Youngs Moduli (GPa) = 26.24945 61.88826 46.76481
#
# Poissons Ratio (x) = 0.76116 0.51369
# Poissons Ratio (y) = 0.32284 0.01128
# Poissons Ratio (z) = 0.28834 0.01493
#
# Static dielectric constant tensor:
#      x y z
#    x 3.101290 0.000000 0.000000 
#    y 0.000000 3.000820 0.000000 
#    z 0.000000 0.000000 3.664270 
# 
# 
# High freq. dielectric constant tensor:
#      x y z
#    x 1.631070 0.000000 0.000000 
#    y 0.000000 1.627100 0.000000 
#    z 0.000000 0.000000 1.651370 
# 
# From -- ./inp_files/67275.got.cif
#   From: 2010.03.12/outbox.cif.g09.slc.cpg/sg63_34_cif.got.tgz:67275.got - 2010.04.10 19:34:48.
