data_PCOD8256437
_publ_section_title
;
Structure prediction by ZEFSAII (Michael W. Deem and Ramdas Pophale) SiO2 
 PCOD8256437
Probable space group: C M C M
;
_chemical_formula_sum "Si O2"
_cell_formula_units_Z 96
_cell_length_a 17.465585
_cell_length_b 18.222418
_cell_length_c 18.046710
_cell_angle_alpha 90.000000
_cell_angle_beta 90.000000
_cell_angle_gamma 90.000000
_cell_volume 5743.639596
_symmetry_space_group_name_H-M "C M C M"
_symmetry_group_IT_number 63
_symmetry_cell_setting 'orthorhombic'
loop_
_space_group_symop_operation_xyz
x,y,z
-x,-y,1/2+z
x,-y,-z
-x,y,1/2-z
-x,-y,-z
x,y,1/2-z
-x,y,z
x,-y,1/2+z
1/2+x,1/2+y,z
1/2-x,1/2-y,1/2+z
1/2+x,1/2-y,-z
1/2-x,1/2+y,1/2-z
1/2-x,1/2-y,-z
1/2+x,1/2+y,1/2-z
1/2-x,1/2+y,z
1/2+x,1/2-y,1/2+z
loop_
_atom_site_type_symbol
_atom_site_label
_atom_site_fract_x
_atom_site_fract_y
_atom_site_fract_z
Si Si1 0.088210 0.464324 0.080108
Si Si2 0.285285 0.949647 0.834001
Si Si3 0.291843 0.665564 0.065265
Si Si4 0.695072 0.828574 0.417702
Si Si5 0.085272 0.916574 0.476526
Si Si6 0.682180 0.412121 0.166107
O O1 0.136641 0.517408 0.132960
O O2 0.120286 0.380781 0.081309
O O3 0.000000 0.461793 0.106590
O O4 0.095791 0.500000 0.000000
O O5 0.303945 0.929978 0.750000
O O6 0.256032 0.875627 0.871796
O O7 0.216524 0.007025 0.842182
O O8 0.322467 0.743169 0.097165
O O9 0.234019 0.668760 0.997307
O O10 0.367471 0.624616 0.039161
O O11 0.751572 0.853985 0.352460
O O12 0.114016 0.903929 0.392614
O O13 0.000000 0.884791 0.478634
O O14 0.088446 0.000000 0.500000
O O15 0.652400 0.398160 0.250000
#
# Coordination Sequence:
#
# PCOD8256437 Si02
#       6
#    16  16  16  16  16  16
#     4  10  19  33  54  78 107 139 175 219 265 313
#     4  10  19  32  53  75 100 137 175 213 259 309
#     4  10  18  33  51  76 104 135 175 217 256 308
#     4   9  19  31  53  77 101 135 174 217 261 302
#     4  10  19  31  51  75 103 136 169 211 257 303
#     4   9  18  32  51  75  99 131 174 214 252 304
#
# _framework density 16.714141999999999
#
# number of rings (size 3 to 8) (size 9 to 14) (size 15 to 20)
#    0.000    2.333    3.333    0.000    0.000    2.000 
#    0.000    0.000    0.000    0.500    0.000    4.667 
#    0.000    0.000    0.000    0.000    0.000    0.000 
#
# Total GULP energy -594987.126549 kJ/mol
# GULP energy per Si atom -12395.565136 kJ/mol
# Density = 1.667610 g / cm^3
# Si number density = 16.714142 Si / 1000 Ang^3
#
#
#
# Elastic Constant Matrix: (Units=GPa)
#
#
# Indices 1 2 3 4 5 6 
#
# 1 117.9452 52.3271 39.7210 0.0000 0.0000 0.0000
# 2 52.3271 111.3303 32.1957 0.0000 0.0000 0.0000
# 3 39.7210 32.1957 82.9846 0.0000 0.0000 0.0000
# 4 0.0000 0.0000 0.0000 13.1682 0.0000 0.0000
# 5 0.0000 0.0000 0.0000 0.0000 12.3691 0.0000
# 6 0.0000 0.0000 0.0000 0.0000 0.0000 19.5508
#
#
#
# Elastic Compliance Matrix: (Units=1/GPa)
#
#
# Indices 1 2 3 4 5 6 
#
# 1 0.011745 -0.004387 -0.003920 0.000000 0.000000 0.000000
# 2 -0.004387 0.011756 -0.002461 0.000000 0.000000 0.000000
# 3 -0.003920 -0.002461 0.014882 0.000000 0.000000 0.000000
# 4 0.000000 0.000000 0.000000 0.075940 0.000000 0.000000
# 5 0.000000 0.000000 0.000000 0.000000 0.080846 0.000000
# 6 0.000000 0.000000 0.000000 0.000000 0.000000 0.051149
#
#
# Mechanical properties :
#
#
# Convention : Reuss Voigt Hill
#
# Bulk Modulus (GPa) = 59.35852 62.30527 60.83190
# Shear Modulus (GPa) = 18.28364 21.55207 19.91786
#
# Velocity S-wave (km/s) = 3.31101 3.59479 3.45581
# Velocity P-wave (km/s) = 7.08577 7.38836 7.23865
#
# Compressibility (1/GPa) = 0.01684678
#
# Stress axis : x y z
#
# Youngs Moduli (GPa) = 85.14425 85.06402 67.19733
#
# Poissons Ratio (x) = 0.37315 0.26340
# Poissons Ratio (y) = 0.37350 0.16539
# Poissons Ratio (z) = 0.33375 0.20936
#
# Static dielectric constant tensor:
#      x y z
#    x 3.121030 0.000000 0.000000 
#    y 0.000000 3.303460 0.000000 
#    z 0.000000 0.000000 3.177690 
# 
# 
# High freq. dielectric constant tensor:
#      x y z
#    x 1.632310 0.000000 0.000000 
#    y 0.000000 1.642900 0.000000 
#    z 0.000000 0.000000 1.642430 
# 
# From -- ./inp_files/45721.got.cif
#   From: 2010.03.12/outbox.cif.g09.slc.cpg/sg63_23_cif.got.tgz:45721.got - 2010.04.10 19:34:48.
