data_PCOD8256468
_publ_section_title
;
Structure prediction by ZEFSAII (Michael W. Deem and Ramdas Pophale) SiO2 
 PCOD8256468
Probable space group: C M C M
;
_chemical_formula_sum "Si O2"
_cell_formula_units_Z 96
_cell_length_a 20.192474
_cell_length_b 15.283136
_cell_length_c 16.481333
_cell_angle_alpha 90.000000
_cell_angle_beta 90.000000
_cell_angle_gamma 90.000000
_cell_volume 5086.210667
_symmetry_space_group_name_H-M "C M C M"
_symmetry_group_IT_number 63
_symmetry_cell_setting 'orthorhombic'
loop_
_space_group_symop_operation_xyz
x,y,z
-x,-y,1/2+z
x,-y,-z
-x,y,1/2-z
-x,-y,-z
x,y,1/2-z
-x,y,z
x,-y,1/2+z
1/2+x,1/2+y,z
1/2-x,1/2-y,1/2+z
1/2+x,1/2-y,-z
1/2-x,1/2+y,1/2-z
1/2-x,1/2-y,-z
1/2+x,1/2+y,1/2-z
1/2-x,1/2+y,z
1/2+x,1/2-y,1/2+z
loop_
_atom_site_type_symbol
_atom_site_label
_atom_site_fract_x
_atom_site_fract_y
_atom_site_fract_z
Si Si1 0.393943 0.309873 0.841191
Si Si2 0.205192 0.849999 0.071877
Si Si3 0.298198 0.984372 0.344248
Si Si4 0.073394 0.612218 0.654449
Si Si5 0.249055 0.667662 0.108829
Si Si6 0.927126 0.900267 0.499344
O O1 0.421683 0.327295 0.750000
O O2 0.406081 0.210464 0.868396
O O3 0.316733 0.332609 0.841260
O O4 0.430338 0.369074 0.907273
O O5 0.235138 0.935048 0.116339
O O6 0.215431 0.761977 0.124484
O O7 0.241931 0.845455 0.986410
O O8 0.126273 0.852928 0.057504
O O9 0.295435 0.961797 0.250000
O O10 0.368661 0.950473 0.380902
O O11 0.295713 0.088284 0.358687
O O12 0.069305 0.600528 0.750000
O O13 0.000000 0.590746 0.617528
O O14 0.000000 0.887044 0.460785
O O15 0.905260 0.000000 0.500000
#
# Coordination Sequence:
#
# PCOD8256468 Si02
#       6
#    16  16  16  16  16  16
#     4  10  18  33  57  84 107 137 186 238 282 325
#     4  10  20  37  55  76 109 149 181 226 277 328
#     4  11  21  34  57  85 110 140 185 235 279 335
#     4   9  18  32  51  79 114 144 172 223 289 334
#     4  10  20  33  54  81 109 143 183 225 274 333
#     4  10  21  36  54  79 113 150 185 227 283 335
#
# _framework density 18.874562000000001
#
# number of rings (size 3 to 8) (size 9 to 14) (size 15 to 20)
#    0.000    2.000    1.667    3.500    0.000    1.667 
#    0.000    0.833    0.000    3.500    0.000    0.000 
#    0.000    0.000    0.000    0.000    0.000    0.000 
#
# Total GULP energy -595012.796633 kJ/mol
# GULP energy per Si atom -12396.099930 kJ/mol
# Density = 1.883160 g / cm^3
# Si number density = 18.874562 Si / 1000 Ang^3
#
#
#
# Elastic Constant Matrix: (Units=GPa)
#
#
# Indices 1 2 3 4 5 6 
#
# 1 111.9245 44.3186 18.7439 0.0000 0.0000 0.0000
# 2 44.3186 97.8521 12.9533 0.0000 0.0000 0.0000
# 3 18.7439 12.9533 42.2978 0.0000 0.0000 0.0000
# 4 0.0000 0.0000 0.0000 29.3437 0.0000 0.0000
# 5 0.0000 0.0000 0.0000 0.0000 -3.6769 0.0000
# 6 0.0000 0.0000 0.0000 0.0000 0.0000 -5.1897
#
#
#
# Elastic Compliance Matrix: (Units=1/GPa)
#
#
# Indices 1 2 3 4 5 6 
#
# 1 0.011394 -0.004682 -0.003615 0.000000 0.000000 0.000000
# 2 -0.004682 0.012575 -0.001776 0.000000 0.000000 0.000000
# 3 -0.003615 -0.001776 0.025788 0.000000 0.000000 0.000000
# 4 0.000000 0.000000 0.000000 0.034079 0.000000 0.000000
# 5 0.000000 0.000000 0.000000 0.000000 -0.271971 0.000000
# 6 0.000000 0.000000 0.000000 0.000000 0.000000 -0.192691
#
#
# Mechanical properties :
#
#
# Convention : Reuss Voigt Hill
#
# Bulk Modulus (GPa) = 33.77234 44.90068 39.33651
# Shear Modulus (GPa) = -14.25279 15.83267 0.78994
#
# Velocity S-wave (km/s) = -2.75095 2.89941 0.64763
# Velocity P-wave (km/s) = 2.80029 5.92025 4.63093
#
# Compressibility (1/GPa) = 0.02961003
#
# Stress axis : x y z
#
# Youngs Moduli (GPa) = 87.76596 79.52199 38.77774
#
# Poissons Ratio (x) = 0.37231 0.14019
# Poissons Ratio (y) = 0.41091 0.06888
# Poissons Ratio (z) = 0.31730 0.14125
#
# Static dielectric constant tensor:
#      x y z
#    x 3.619800 0.000000 0.000000 
#    y 0.000000 3.532610 0.000000 
#    z 0.000000 0.000000 3.301200 
# 
# 
# High freq. dielectric constant tensor:
#      x y z
#    x 1.735230 0.000000 0.000000 
#    y 0.000000 1.734600 0.000000 
#    z 0.000000 0.000000 1.706530 
# 
# From -- ./inp_files/35347.got.cif
#   From: 2010.03.12/outbox.cif.g09.slc.cpg/sg63_18_cif.got.tgz:35347.got - 2010.04.10 19:34:48.
