data_PCOD8256894
_publ_section_title
;
Structure prediction by ZEFSAII (Michael W. Deem and Ramdas Pophale) SiO2 
 PCOD8256894
Probable space group: C M C M
;
_chemical_formula_sum "Si O2"
_cell_formula_units_Z 120
_cell_length_a 27.823571
_cell_length_b 29.459555
_cell_length_c 8.896036
_cell_angle_alpha 90.000000
_cell_angle_beta 90.000000
_cell_angle_gamma 90.000000
_cell_volume 7291.814008
_symmetry_space_group_name_H-M "C M C M"
_symmetry_group_IT_number 63
_symmetry_cell_setting 'orthorhombic'
loop_
_space_group_symop_operation_xyz
x,y,z
-x,-y,1/2+z
x,-y,-z
-x,y,1/2-z
-x,-y,-z
x,y,1/2-z
-x,y,z
x,-y,1/2+z
1/2+x,1/2+y,z
1/2-x,1/2-y,1/2+z
1/2+x,1/2-y,-z
1/2-x,1/2+y,1/2-z
1/2-x,1/2-y,-z
1/2+x,1/2+y,1/2-z
1/2-x,1/2+y,z
1/2+x,1/2-y,1/2+z
loop_
_atom_site_type_symbol
_atom_site_label
_atom_site_fract_x
_atom_site_fract_y
_atom_site_fract_z
Si Si1 0.324236 0.048842 0.924307
Si Si2 0.624543 0.450331 0.928303
Si Si3 0.282146 0.451508 0.075164
Si Si4 0.906929 0.603386 0.073242
Si Si5 0.500000 0.951126 0.928005
Si Si6 0.556838 0.619177 0.577460
Si Si7 0.557138 0.709816 0.419156
Si Si8 0.444700 0.200042 0.424955
O O1 0.335240 0.041367 0.750000
O O2 0.270686 0.070178 0.948111
O O3 0.359776 0.085930 0.990893
O O4 0.331525 0.000000 0.000000
O O5 0.625903 0.454211 0.750000
O O6 0.618930 0.500000 0.000000
O O7 0.673864 0.426194 0.989893
O O8 0.579477 0.420487 0.978049
O O9 0.295329 0.455778 0.250000
O O10 0.278554 0.500000 0.000000
O O11 0.900361 0.597018 0.250000
O O12 0.913746 0.656076 0.030923
O O13 0.953047 0.575526 0.015756
O O14 0.500000 0.955400 0.750000
O O15 0.500000 0.000000 0.000000
O O16 0.572607 0.613968 0.750000
O O17 0.500000 0.615086 0.557991
O O18 0.575792 0.667701 0.517924
O O19 0.576371 0.703936 0.250000
O O20 0.500000 0.711271 0.424488
O O21 0.576971 0.757031 0.485948
O O22 0.440605 0.211323 0.250000
O O23 0.500000 0.190321 0.468211
#
# Coordination Sequence:
#
# PCOD8256894 Si02
#       8
#    16  16  16  16   8  16  16  16
#     4  10  20  32  47  67  91 120 156 199 244 287
#     4  11  21  33  51  74 101 131 162 196 232 272
#     4   9  17  31  49  68  91 119 155 198 239 280
#     4  10  19  31  46  64  90 122 159 199 241 289
#     4  10  20  32  42  58  86 124 162 196 235 286
#     4  10  20  34  51  72 100 134 167 194 225 271
#     4   9  17  29  46  69  95 122 155 198 240 276
#     4   9  16  29  47  65  88 121 158 197 240 287
#
# _framework density 16.456810999999998
#
# number of rings (size 3 to 8) (size 9 to 14) (size 15 to 20)
#    0.000    2.267    0.667    4.000    0.000    6.400 
#    0.000    0.000    0.000    0.000    0.000    0.933 
#    0.000    0.000    0.000    0.000    0.000    0.000 
#
# Total GULP energy -743823.378745 kJ/mol
# GULP energy per Si atom -12397.056312 kJ/mol
# Density = 1.641935 g / cm^3
# Si number density = 16.456811 Si / 1000 Ang^3
#
#
#
# Elastic Constant Matrix: (Units=GPa)
#
#
# Indices 1 2 3 4 5 6 
#
# 1 68.5725 45.4091 46.0734 0.0000 0.0000 0.0000
# 2 45.4091 99.3453 53.6458 0.0000 0.0000 0.0000
# 3 46.0734 53.6458 109.8291 0.0000 0.0000 0.0000
# 4 0.0000 0.0000 0.0000 29.2854 0.0000 0.0000
# 5 0.0000 0.0000 0.0000 0.0000 24.8409 0.0000
# 6 0.0000 0.0000 0.0000 0.0000 0.0000 6.6048
#
#
#
# Elastic Compliance Matrix: (Units=1/GPa)
#
#
# Indices 1 2 3 4 5 6 
#
# 1 0.023769 -0.007443 -0.006335 0.000000 0.000000 0.000000
# 2 -0.007443 0.016003 -0.004694 0.000000 0.000000 0.000000
# 3 -0.006335 -0.004694 0.014056 0.000000 0.000000 0.000000
# 4 0.000000 0.000000 0.000000 0.034147 0.000000 0.000000
# 5 0.000000 0.000000 0.000000 0.000000 0.040256 0.000000
# 6 0.000000 0.000000 0.000000 0.000000 0.000000 0.151406
#
#
# Mechanical properties :
#
#
# Convention : Reuss Voigt Hill
#
# Bulk Modulus (GPa) = 59.23562 63.11150 61.17356
# Shear Modulus (GPa) = 15.51788 20.98746 18.25267
#
# Velocity S-wave (km/s) = 3.07407 3.57502 3.33397
# Velocity P-wave (km/s) = 6.97658 7.44809 7.21619
#
# Compressibility (1/GPa) = 0.01688173
#
# Stress axis : x y z
#
# Youngs Moduli (GPa) = 42.07199 62.48871 71.14616
#
# Poissons Ratio (x) = 0.46512 0.45074
# Poissons Ratio (y) = 0.31315 0.33397
# Poissons Ratio (z) = 0.26654 0.29333
#
# Static dielectric constant tensor:
#      x y z
#    x 3.374070 0.000000 0.000000 
#    y 0.000000 3.007240 0.000000 
#    z 0.000000 0.000000 3.216860 
# 
# 
# High freq. dielectric constant tensor:
#      x y z
#    x 1.613420 0.000000 0.000000 
#    y 0.000000 1.616050 0.000000 
#    z 0.000000 0.000000 1.646640 
# 
# From -- ./inp_files/13169.got.cif
#   From: 2010.03.12/outbox.cif.g09.slc.cpg/sg63_7_cif.got.tgz:13169.got - 2010.04.10 19:34:48.
