data_PCOD8256887
_publ_section_title
;
Structure prediction by ZEFSAII (Michael W. Deem and Ramdas Pophale) SiO2 
 PCOD8256887
Probable space group: C M C M
;
_chemical_formula_sum "Si O2"
_cell_formula_units_Z 112
_cell_length_a 18.335930
_cell_length_b 20.991926
_cell_length_c 17.812754
_cell_angle_alpha 90.000000
_cell_angle_beta 90.000000
_cell_angle_gamma 90.000000
_cell_volume 6856.244543
_symmetry_space_group_name_H-M "C M C M"
_symmetry_group_IT_number 63
_symmetry_cell_setting 'orthorhombic'
loop_
_space_group_symop_operation_xyz
x,y,z
-x,-y,1/2+z
x,-y,-z
-x,y,1/2-z
-x,-y,-z
x,y,1/2-z
-x,y,z
x,-y,1/2+z
1/2+x,1/2+y,z
1/2-x,1/2-y,1/2+z
1/2+x,1/2-y,-z
1/2-x,1/2+y,1/2-z
1/2-x,1/2-y,-z
1/2+x,1/2+y,1/2-z
1/2-x,1/2+y,z
1/2+x,1/2-y,1/2+z
loop_
_atom_site_type_symbol
_atom_site_label
_atom_site_fract_x
_atom_site_fract_y
_atom_site_fract_z
Si Si1 0.641223 0.500755 0.338987
Si Si2 0.415552 0.626469 0.593702
Si Si3 0.581273 0.877451 0.660082
Si Si4 0.582521 0.378975 0.579125
Si Si5 0.201198 0.185487 0.332212
Si Si6 0.844307 0.751780 0.338417
Si Si7 0.285106 0.946654 0.832070
O O1 0.640830 0.514070 0.250000
O O2 0.609126 0.432098 0.355137
O O3 0.592005 0.554472 0.377743
O O4 0.725630 0.506152 0.370654
O O5 0.500000 0.641065 0.609594
O O6 0.400263 0.608614 0.507817
O O7 0.368179 0.687171 0.615170
O O8 0.585038 0.880031 0.750000
O O9 0.500000 0.891529 0.629907
O O10 0.605933 0.807299 0.634053
O O11 0.636989 0.932138 0.627000
O O12 0.500000 0.355135 0.590124
O O13 0.634762 0.322670 0.609651
O O14 0.168950 0.202839 0.250000
O O15 0.258863 0.239625 0.357795
O O16 0.246069 0.120995 0.324966
O O17 0.855140 0.763884 0.250000
O O18 0.302721 0.974862 0.750000
#
# Coordination Sequence:
#
# PCOD8256887 Si02
#       7
#    16  16  16  16  16  16  16
#     4  10  19  31  46  61  83 118 155 189 222 258
#     4  11  22  31  41  63  94 122 145 174 220 277
#     4   8  12  20  38  62  85 106 128 164 215 260
#     4  10  20  32  45  64  90 116 147 189 226 257
#     4   8  15  29  48  66  84 110 145 182 216 253
#     4   9  17  29  44  64  90 116 143 175 212 264
#     4   7  12  23  38  58  81 104 136 176 211 245
#
# _framework density 16.335473
#
# number of rings (size 3 to 8) (size 9 to 14) (size 15 to 20)
#    0.000    3.000    0.000    4.714    0.000    5.143 
#    0.000    0.000    0.000    0.000    0.000    1.000 
#    0.000   26.286    0.000    0.000    0.000    0.000 
#
# Total GULP energy -693759.586336 kJ/mol
# GULP energy per Si atom -12388.564042 kJ/mol
# Density = 1.629829 g / cm^3
# Si number density = 16.335473 Si / 1000 Ang^3
#
#
#
# Elastic Constant Matrix: (Units=GPa)
#
#
# Indices 1 2 3 4 5 6 
#
# 1 112.0304 37.3362 33.9397 0.0000 0.0000 0.0000
# 2 37.3362 50.9474 17.5141 0.0000 0.0000 0.0000
# 3 33.9397 17.5141 41.4482 0.0000 0.0000 0.0000
# 4 0.0000 0.0000 0.0000 17.6752 0.0000 0.0000
# 5 0.0000 0.0000 0.0000 0.0000 18.8977 0.0000
# 6 0.0000 0.0000 0.0000 0.0000 0.0000 27.6865
#
#
#
# Elastic Compliance Matrix: (Units=1/GPa)
#
#
# Indices 1 2 3 4 5 6 
#
# 1 0.013870 -0.007324 -0.008263 0.000000 0.000000 0.000000
# 2 -0.007324 0.026831 -0.005340 0.000000 0.000000 0.000000
# 3 -0.008263 -0.005340 0.033149 0.000000 0.000000 0.000000
# 4 0.000000 0.000000 0.000000 0.056577 0.000000 0.000000
# 5 0.000000 0.000000 0.000000 0.000000 0.052916 0.000000
# 6 0.000000 0.000000 0.000000 0.000000 0.000000 0.036119
#
#
# Mechanical properties :
#
#
# Convention : Reuss Voigt Hill
#
# Bulk Modulus (GPa) = 31.25378 42.44510 36.84944
# Shear Modulus (GPa) = 18.38355 20.56095 19.47225
#
# Velocity S-wave (km/s) = 3.35830 3.55162 3.45631
# Velocity P-wave (km/s) = 5.84907 6.54664 6.20766
#
# Compressibility (1/GPa) = 0.03199613
#
# Stress axis : x y z
#
# Youngs Moduli (GPa) = 72.09659 37.26981 30.16682
#
# Poissons Ratio (x) = 0.27297 0.24926
# Poissons Ratio (y) = 0.52805 0.16110
# Poissons Ratio (z) = 0.59572 0.19903
#
# Static dielectric constant tensor:
#      x y z
#    x 3.522580 0.000000 0.000000 
#    y 0.000000 2.872570 0.000000 
#    z 0.000000 0.000000 2.857800 
# 
# 
# High freq. dielectric constant tensor:
#      x y z
#    x 1.638760 0.000000 0.000000 
#    y 0.000000 1.595930 0.000000 
#    z 0.000000 0.000000 1.597880 
# 
# From -- ./inp_files/46085.got.cif
#   From: 2010.03.12/outbox.cif.g09.slc.cpg/sg63_24_cif.got.tgz:46085.got - 2010.04.10 19:34:48.
