data_PCOD8256195
_publ_section_title
;
Structure prediction by ZEFSAII (Michael W. Deem and Ramdas Pophale) SiO2 
 PCOD8256195
Probable space group: C M C M
;
_chemical_formula_sum "Si O2"
_cell_formula_units_Z 80
_cell_length_a 28.290157
_cell_length_b 20.604353
_cell_length_c 7.726557
_cell_angle_alpha 90.000000
_cell_angle_beta 90.000000
_cell_angle_gamma 90.000000
_cell_volume 4503.813021
_symmetry_space_group_name_H-M "C M C M"
_symmetry_group_IT_number 63
_symmetry_cell_setting 'orthorhombic'
loop_
_space_group_symop_operation_xyz
x,y,z
-x,-y,1/2+z
x,-y,-z
-x,y,1/2-z
-x,-y,-z
x,y,1/2-z
-x,y,z
x,-y,1/2+z
1/2+x,1/2+y,z
1/2-x,1/2-y,1/2+z
1/2+x,1/2-y,-z
1/2-x,1/2+y,1/2-z
1/2-x,1/2-y,-z
1/2+x,1/2+y,1/2-z
1/2-x,1/2+y,z
1/2+x,1/2-y,1/2+z
loop_
_atom_site_type_symbol
_atom_site_label
_atom_site_fract_x
_atom_site_fract_y
_atom_site_fract_z
Si Si1 0.947259 0.113339 0.750000
Si Si2 0.217568 0.689661 0.453705
Si Si3 0.118151 0.266429 0.441670
Si Si4 0.447244 0.767585 0.750000
Si Si5 0.621005 0.385375 0.949827
Si Si6 0.777918 0.928836 0.952175
O O1 0.949999 0.190502 0.750000
O O2 0.920802 0.089614 0.575299
O O3 0.000000 0.083554 0.750000
O O4 0.209426 0.686157 0.250000
O O5 0.250000 0.750000 0.500000
O O6 0.166912 0.694663 0.543946
O O7 0.242364 0.624756 0.529888
O O8 0.096918 0.277393 0.250000
O O9 0.080020 0.292522 0.579321
O O10 0.129337 0.191039 0.473037
O O11 0.500000 0.797352 0.750000
O O12 0.608702 0.403004 0.750000
O O13 0.668633 0.419507 0.020150
O O14 0.779532 0.917106 0.750000
O O15 0.758971 0.000000 0.000000
#
# Coordination Sequence:
#
# PCOD8256195 Si02
#       6
#     8  16  16   8  16  16
#     4   9  18  30  50  73  92 128 172 214 273 315
#     4  11  20  32  51  77 107 139 178 218 256 313
#     4  10  18  31  50  75 104 136 173 212 258 310
#     4   9  18  32  48  73 108 136 166 216 265 309
#     4   9  18  32  48  71  99 128 173 217 254 311
#     4  10  22  35  49  74 104 139 177 214 261 313
#
# _framework density 17.762727999999999
#
# number of rings (size 3 to 8) (size 9 to 14) (size 15 to 20)
#    0.000    2.200    3.000    0.600    1.400    2.400 
#    0.000    4.000    0.000    0.600    0.000    0.000 
#    0.000    0.800    0.400    0.000    0.000    0.000 
#
# Total GULP energy -495955.083173 kJ/mol
# GULP energy per Si atom -12398.877079 kJ/mol
# Density = 1.772230 g / cm^3
# Si number density = 17.762728 Si / 1000 Ang^3
#
#
#
# Elastic Constant Matrix: (Units=GPa)
#
#
# Indices 1 2 3 4 5 6 
#
# 1 122.5224 37.8750 48.2883 0.0000 0.0000 0.0000
# 2 37.8750 74.1209 18.6832 0.0000 0.0000 0.0000
# 3 48.2883 18.6832 98.5696 0.0000 0.0000 0.0000
# 4 0.0000 0.0000 0.0000 15.8038 0.0000 0.0000
# 5 0.0000 0.0000 0.0000 0.0000 23.9652 0.0000
# 6 0.0000 0.0000 0.0000 0.0000 0.0000 13.5329
#
#
#
# Elastic Compliance Matrix: (Units=1/GPa)
#
#
# Indices 1 2 3 4 5 6 
#
# 1 0.011471 -0.004668 -0.004735 0.000000 0.000000 0.000000
# 2 -0.004668 0.016068 -0.000759 0.000000 0.000000 0.000000
# 3 -0.004735 -0.000759 0.012608 0.000000 0.000000 0.000000
# 4 0.000000 0.000000 0.000000 0.063276 0.000000 0.000000
# 5 0.000000 0.000000 0.000000 0.000000 0.041727 0.000000
# 6 0.000000 0.000000 0.000000 0.000000 0.000000 0.073894
#
#
# Mechanical properties :
#
#
# Convention : Reuss Voigt Hill
#
# Bulk Modulus (GPa) = 50.44299 56.10064 53.27182
# Shear Modulus (GPa) = 20.32723 23.35147 21.83935
#
# Velocity S-wave (km/s) = 3.38653 3.62972 3.51023
# Velocity P-wave (km/s) = 6.61448 7.01558 6.81798
#
# Compressibility (1/GPa) = 0.01982436
#
# Stress axis : x y z
#
# Youngs Moduli (GPa) = 87.17799 62.23536 79.31232
#
# Poissons Ratio (x) = 0.29052 0.37551
# Poissons Ratio (y) = 0.40695 0.06018
# Poissons Ratio (z) = 0.41276 0.04722
#
# Static dielectric constant tensor:
#      x y z
#    x 3.444660 0.000000 0.000000 
#    y 0.000000 3.043370 0.000000 
#    z 0.000000 0.000000 3.429430 
# 
# 
# High freq. dielectric constant tensor:
#      x y z
#    x 1.677260 0.000000 0.000000 
#    y 0.000000 1.639370 0.000000 
#    z 0.000000 0.000000 1.700550 
# 
# From -- ./inp_files/10111.got.cif
#   From: 2010.03.12/outbox.cif.g09.slc.cpg/sg63_6_cif.got.tgz:10111.got - 2010.04.10 19:34:48.
