data_PCOD8256530
_publ_section_title
;
Structure prediction by ZEFSAII (Michael W. Deem and Ramdas Pophale) SiO2 
 PCOD8256530
Probable space group: C M C M
;
_chemical_formula_sum "Si O2"
_cell_formula_units_Z 64
_cell_length_a 18.780493
_cell_length_b 7.397184
_cell_length_c 22.838075
_cell_angle_alpha 90.000000
_cell_angle_beta 90.000000
_cell_angle_gamma 90.000000
_cell_volume 3172.728465
_symmetry_space_group_name_H-M "C M C M"
_symmetry_group_IT_number 63
_symmetry_cell_setting 'orthorhombic'
loop_
_space_group_symop_operation_xyz
x,y,z
-x,-y,1/2+z
x,-y,-z
-x,y,1/2-z
-x,-y,-z
x,y,1/2-z
-x,y,z
x,-y,1/2+z
1/2+x,1/2+y,z
1/2-x,1/2-y,1/2+z
1/2+x,1/2-y,-z
1/2-x,1/2+y,1/2-z
1/2-x,1/2-y,-z
1/2+x,1/2+y,1/2-z
1/2-x,1/2+y,z
1/2+x,1/2-y,1/2+z
loop_
_atom_site_type_symbol
_atom_site_label
_atom_site_fract_x
_atom_site_fract_y
_atom_site_fract_z
Si Si1 0.825830 0.371119 0.875045
Si Si2 0.783284 0.588527 0.250000
Si Si3 0.637076 0.714150 0.250000
Si Si4 0.081719 0.717872 0.873583
Si Si5 0.181235 0.000265 0.931609
O O1 0.811739 0.309921 0.808071
O O2 0.889872 0.513935 0.878993
O O3 0.848107 0.195758 0.912019
O O4 0.754815 0.464977 0.898829
O O5 0.697321 0.558672 0.250000
O O6 0.812655 0.387757 0.250000
O O7 0.588081 0.707073 0.192667
O O8 0.000000 0.718346 0.892606
O O9 0.123619 0.847484 0.917665
O O10 0.196814 0.000000 0.000000
#
# Coordination Sequence:
#
# PCOD8256530 Si02
#       5
#    16   8   8  16  16
#     4  11  22  40  67  95 124 162 210 268 312 374
#     4  10  18  34  63  99 115 152 210 259 311 371
#     4  10  19  36  63  91 126 158 202 261 324 379
#     4  11  25  41  61  94 131 165 205 262 327 377
#     4  12  24  40  67  94 122 167 222 260 305 378
#
# _framework density 20.171913
#
# number of rings (size 3 to 8) (size 9 to 14) (size 15 to 20)
#    0.000    1.000    5.000    2.625    0.000    1.500 
#    0.000    1.250    0.000    3.000    0.000    0.000 
#    0.000    0.000    0.000    0.000    0.000    0.000 
#
# Total GULP energy -396905.602680 kJ/mol
# GULP energy per Si atom -12403.300084 kJ/mol
# Density = 2.012600 g / cm^3
# Si number density = 20.171913 Si / 1000 Ang^3
#
#
#
# Elastic Constant Matrix: (Units=GPa)
#
#
# Indices 1 2 3 4 5 6 
#
# 1 97.0903 5.8452 13.3837 0.0000 0.0000 0.0000
# 2 5.8452 62.0808 23.2086 0.0000 0.0000 0.0000
# 3 13.3837 23.2086 103.8057 0.0000 0.0000 0.0000
# 4 0.0000 0.0000 0.0000 28.8216 0.0000 0.0000
# 5 0.0000 0.0000 0.0000 0.0000 6.4916 0.0000
# 6 0.0000 0.0000 0.0000 0.0000 0.0000 26.8272
#
#
#
# Elastic Compliance Matrix: (Units=1/GPa)
#
#
# Indices 1 2 3 4 5 6 
#
# 1 0.010502 -0.000527 -0.001236 0.000000 0.000000 0.000000
# 2 -0.000527 0.017604 -0.003868 0.000000 0.000000 0.000000
# 3 -0.001236 -0.003868 0.010658 0.000000 0.000000 0.000000
# 4 0.000000 0.000000 0.000000 0.034696 0.000000 0.000000
# 5 0.000000 0.000000 0.000000 0.000000 0.154044 0.000000
# 6 0.000000 0.000000 0.000000 0.000000 0.000000 0.037276
#
#
# Mechanical properties :
#
#
# Convention : Reuss Voigt Hill
#
# Bulk Modulus (GPa) = 36.36174 38.65022 37.50598
# Shear Modulus (GPa) = 17.53109 27.13069 22.33089
#
# Velocity S-wave (km/s) = 2.95122 3.67137 3.33081
# Velocity P-wave (km/s) = 5.44775 6.09704 5.78152
#
# Compressibility (1/GPa) = 0.02750144
#
# Stress axis : x y z
#
# Youngs Moduli (GPa) = 95.22164 56.80658 93.83031
#
# Poissons Ratio (x) = 0.02992 0.11600
# Poissons Ratio (y) = 0.05015 0.36292
# Poissons Ratio (z) = 0.11772 0.21972
#
# Static dielectric constant tensor:
#      x y z
#    x 3.390870 0.000000 0.000000 
#    y 0.000000 3.723120 0.000000 
#    z 0.000000 0.000000 3.857050 
# 
# 
# High freq. dielectric constant tensor:
#      x y z
#    x 1.763280 0.000000 0.000000 
#    y 0.000000 1.794160 0.000000 
#    z 0.000000 0.000000 1.798550 
# 
# From -- ./inp_files/55069.got.cif
#   From: 2010.03.12/outbox.cif.g09.slc.cpg/sg63_28_cif.got.tgz:55069.got - 2010.04.10 19:34:48.
