data_PCOD8256302
_publ_section_title
;
Structure prediction by ZEFSAII (Michael W. Deem and Ramdas Pophale) SiO2 
 PCOD8256302
Probable space group: C M C M
;
_chemical_formula_sum "Si O2"
_cell_formula_units_Z 112
_cell_length_a 18.990807
_cell_length_b 19.257801
_cell_length_c 18.676506
_cell_angle_alpha 90.000000
_cell_angle_beta 90.000000
_cell_angle_gamma 90.000000
_cell_volume 6830.393851
_symmetry_space_group_name_H-M "C M C M"
_symmetry_group_IT_number 63
_symmetry_cell_setting 'orthorhombic'
loop_
_space_group_symop_operation_xyz
x,y,z
-x,-y,1/2+z
x,-y,-z
-x,y,1/2-z
-x,-y,-z
x,y,1/2-z
-x,y,z
x,-y,1/2+z
1/2+x,1/2+y,z
1/2-x,1/2-y,1/2+z
1/2+x,1/2-y,-z
1/2-x,1/2+y,1/2-z
1/2-x,1/2-y,-z
1/2+x,1/2+y,1/2-z
1/2-x,1/2+y,z
1/2+x,1/2-y,1/2+z
loop_
_atom_site_type_symbol
_atom_site_label
_atom_site_fract_x
_atom_site_fract_y
_atom_site_fract_z
Si Si1 0.078447 0.439107 0.942685
Si Si2 0.655154 0.852500 0.053597
Si Si3 0.577384 0.401486 0.829486
Si Si4 0.081915 0.791856 0.949608
Si Si5 0.196091 0.012892 0.388682
Si Si6 0.193262 0.884501 0.483448
Si Si7 0.843825 0.473238 0.333542
O O1 0.108739 0.465137 0.866703
O O2 0.000000 0.410396 0.929161
O O3 0.078098 0.500000 0.000000
O O4 0.125875 0.379268 0.977374
O O5 0.615202 0.781714 0.070186
O O6 0.738824 0.841611 0.043808
O O7 0.640999 0.903591 0.120745
O O8 0.583673 0.372035 0.750000
O O9 0.500000 0.432737 0.845318
O O10 0.591426 0.335436 0.878100
O O11 0.631759 0.463940 0.839470
O O12 0.000000 0.785497 0.973663
O O13 0.127877 0.831296 0.010178
O O14 0.214332 0.074640 0.444102
O O15 0.170651 0.942648 0.426734
O O16 0.263212 0.997002 0.339770
O O17 0.863053 0.461406 0.250000
#
# Coordination Sequence:
#
# PCOD8256302 Si02
#       7
#    16  16  16  16  16  16  16
#     4   9  17  30  47  66  91 124 161 196 235 283
#     4  10  18  32  49  68  96 131 162 193 240 291
#     4   9  18  31  46  67  97 130 158 189 238 293
#     4  10  20  31  46  70  97 125 160 199 236 281
#     4   9  16  30  50  71  93 121 155 197 240 279
#     4   9  17  30  50  71  92 120 157 198 239 280
#     4  10  19  30  48  73  97 123 159 201 242 284
#
# _framework density 16.397297999999999
#
# number of rings (size 3 to 8) (size 9 to 14) (size 15 to 20)
#    0.000    2.571    1.429    1.286    0.000    2.000 
#    0.000    2.857    0.000    0.000    0.000    1.000 
#    0.000    2.571    0.000    0.000    0.000    0.000 
#
# Total GULP energy -694121.081345 kJ/mol
# GULP energy per Si atom -12395.019310 kJ/mol
# Density = 1.635998 g / cm^3
# Si number density = 16.397298 Si / 1000 Ang^3
#
#
#
# Elastic Constant Matrix: (Units=GPa)
#
#
# Indices 1 2 3 4 5 6 
#
# 1 118.9136 58.5077 42.7082 0.0000 0.0000 0.0000
# 2 58.5077 77.8207 30.0925 0.0000 0.0000 0.0000
# 3 42.7082 30.0925 88.0806 0.0000 0.0000 0.0000
# 4 0.0000 0.0000 0.0000 11.7853 0.0000 0.0000
# 5 0.0000 0.0000 0.0000 0.0000 19.5933 0.0000
# 6 0.0000 0.0000 0.0000 0.0000 0.0000 26.7441
#
#
#
# Elastic Compliance Matrix: (Units=1/GPa)
#
#
# Indices 1 2 3 4 5 6 
#
# 1 0.014358 -0.009336 -0.003772 0.000000 0.000000 0.000000
# 2 -0.009336 0.020877 -0.002606 0.000000 0.000000 0.000000
# 3 -0.003772 -0.002606 0.014072 0.000000 0.000000 0.000000
# 4 0.000000 0.000000 0.000000 0.084852 0.000000 0.000000
# 5 0.000000 0.000000 0.000000 0.000000 0.051038 0.000000
# 6 0.000000 0.000000 0.000000 0.000000 0.000000 0.037391
#
#
# Mechanical properties :
#
#
# Convention : Reuss Voigt Hill
#
# Bulk Modulus (GPa) = 55.93029 60.82577 58.37803
# Shear Modulus (GPa) = 19.23263 21.85830 20.54546
#
# Velocity S-wave (km/s) = 3.42850 3.65505 3.54358
# Velocity P-wave (km/s) = 7.06090 7.41539 7.24032
#
# Compressibility (1/GPa) = 0.01787940
#
# Stress axis : x y z
#
# Youngs Moduli (GPa) = 69.64936 47.90061 71.06065
#
# Poissons Ratio (x) = 0.44719 0.26805
# Poissons Ratio (y) = 0.65023 0.18516
# Poissons Ratio (z) = 0.26273 0.12481
#
# Static dielectric constant tensor:
#      x y z
#    x 3.331280 0.000000 0.000000 
#    y 0.000000 2.944430 0.000000 
#    z 0.000000 0.000000 2.945720 
# 
# 
# High freq. dielectric constant tensor:
#      x y z
#    x 1.644600 0.000000 0.000000 
#    y 0.000000 1.614100 0.000000 
#    z 0.000000 0.000000 1.611060 
# 
# From -- ./inp_files/47313.got.cif
#   From: 2010.03.12/outbox.cif.g09.slc.cpg/sg63_24_cif.got.tgz:47313.got - 2010.04.10 19:34:48.
