data_PCOD8256191
_publ_section_title
;
Structure prediction by ZEFSAII (Michael W. Deem and Ramdas Pophale) SiO2 
 PCOD8256191
Probable space group: C M C M
;
_chemical_formula_sum "Si O2"
_cell_formula_units_Z 96
_cell_length_a 12.778110
_cell_length_b 23.359993
_cell_length_c 19.556735
_cell_angle_alpha 90.000000
_cell_angle_beta 90.000000
_cell_angle_gamma 90.000000
_cell_volume 5837.618125
_symmetry_space_group_name_H-M "C M C M"
_symmetry_group_IT_number 63
_symmetry_cell_setting 'orthorhombic'
loop_
_space_group_symop_operation_xyz
x,y,z
-x,-y,1/2+z
x,-y,-z
-x,y,1/2-z
-x,-y,-z
x,y,1/2-z
-x,y,z
x,-y,1/2+z
1/2+x,1/2+y,z
1/2-x,1/2-y,1/2+z
1/2+x,1/2-y,-z
1/2-x,1/2+y,1/2-z
1/2-x,1/2-y,-z
1/2+x,1/2+y,1/2-z
1/2-x,1/2+y,z
1/2+x,1/2-y,1/2+z
loop_
_atom_site_type_symbol
_atom_site_label
_atom_site_fract_x
_atom_site_fract_y
_atom_site_fract_z
Si Si1 0.250700 0.356845 0.329024
Si Si2 0.116329 0.746638 0.328262
Si Si3 0.741935 0.315846 0.571235
Si Si4 0.881366 0.075095 0.438517
Si Si5 0.376926 0.200663 0.558797
Si Si6 0.619878 0.551751 0.904605
O O1 0.215685 0.362535 0.250000
O O2 0.341047 0.310199 0.339349
O O3 0.150833 0.335884 0.373112
O O4 0.299469 0.416727 0.354154
O O5 0.118773 0.728232 0.250000
O O6 0.181511 0.699388 0.367550
O O7 0.000000 0.746941 0.358515
O O8 0.689396 0.375234 0.593086
O O9 0.652176 0.267666 0.564176
O O10 0.808823 0.325284 0.502664
O O11 0.872637 0.078481 0.520265
O O12 0.000000 0.085831 0.415842
O O13 0.844109 0.014342 0.408444
O O14 0.500000 0.194786 0.544558
O O15 0.500000 0.556743 0.877801
#
# Coordination Sequence:
#
# PCOD8256191 Si02
#       6
#    16  16  16  16  16  16
#     4  10  19  32  50  72  99 130 163 205 248 287
#     4   9  18  31  48  72  99 127 160 200 247 292
#     4  10  18  31  50  73 100 130 162 200 242 294
#     4   9  17  30  50  73  99 127 155 195 245 294
#     4  10  20  31  47  74 101 130 166 202 242 291
#     4   9  17  30  49  73  98 125 158 197 245 293
#
# _framework density 16.445063999999999
#
# number of rings (size 3 to 8) (size 9 to 14) (size 15 to 20)
#    0.000    2.500    1.667    2.500    0.000    1.333 
#    0.000    0.833    0.000    5.500    0.000    0.000 
#    0.000    0.000    0.000    0.000    0.000    0.000 
#
# Total GULP energy -595154.879273 kJ/mol
# GULP energy per Si atom -12399.059985 kJ/mol
# Density = 1.640763 g / cm^3
# Si number density = 16.445064 Si / 1000 Ang^3
#
#
#
# Elastic Constant Matrix: (Units=GPa)
#
#
# Indices 1 2 3 4 5 6 
#
# 1 83.0787 44.9016 30.2394 0.0000 0.0000 0.0000
# 2 44.9016 96.4359 36.1592 0.0000 0.0000 0.0000
# 3 30.2394 36.1592 68.8407 0.0000 0.0000 0.0000
# 4 0.0000 0.0000 0.0000 24.2052 0.0000 0.0000
# 5 0.0000 0.0000 0.0000 0.0000 20.9943 0.0000
# 6 0.0000 0.0000 0.0000 0.0000 0.0000 25.0422
#
#
#
# Elastic Compliance Matrix: (Units=1/GPa)
#
#
# Indices 1 2 3 4 5 6 
#
# 1 0.016971 -0.006359 -0.004115 0.000000 0.000000 0.000000
# 2 -0.006359 0.015296 -0.005241 0.000000 0.000000 0.000000
# 3 -0.004115 -0.005241 0.019087 0.000000 0.000000 0.000000
# 4 0.000000 0.000000 0.000000 0.041313 0.000000 0.000000
# 5 0.000000 0.000000 0.000000 0.000000 0.047632 0.000000
# 6 0.000000 0.000000 0.000000 0.000000 0.000000 0.039933
#
#
# Mechanical properties :
#
#
# Convention : Reuss Voigt Hill
#
# Bulk Modulus (GPa) = 50.19051 52.32842 51.25947
# Shear Modulus (GPa) = 22.90400 23.18533 23.04466
#
# Velocity S-wave (km/s) = 3.73602 3.75889 3.74747
# Velocity P-wave (km/s) = 7.01404 7.12238 7.06842
#
# Compressibility (1/GPa) = 0.01992408
#
# Stress axis : x y z
#
# Youngs Moduli (GPa) = 58.92237 65.37841 52.39304
#
# Poissons Ratio (x) = 0.41576 0.21558
# Poissons Ratio (y) = 0.37470 0.27458
# Poissons Ratio (z) = 0.24245 0.34263
#
# Static dielectric constant tensor:
#      x y z
#    x 2.991780 0.000000 0.000000 
#    y 0.000000 2.992600 0.000000 
#    z 0.000000 0.000000 3.087760 
# 
# 
# High freq. dielectric constant tensor:
#      x y z
#    x 1.622510 0.000000 0.000000 
#    y 0.000000 1.624020 0.000000 
#    z 0.000000 0.000000 1.623940 
# 
# From -- ./inp_files/42478.got.cif
#   From: 2010.03.12/outbox.cif.g09.slc.cpg/sg63_22_cif.got.tgz:42478.got - 2010.04.10 19:34:48.
