data_PCOD8256275
_publ_section_title
;
Structure prediction by ZEFSAII (Michael W. Deem and Ramdas Pophale) SiO2 
 PCOD8256275
Probable space group: C M C M
;
_chemical_formula_sum "Si O2"
_cell_formula_units_Z 112
_cell_length_a 27.878097
_cell_length_b 11.080258
_cell_length_c 19.423926
_cell_angle_alpha 90.000000
_cell_angle_beta 90.000000
_cell_angle_gamma 90.000000
_cell_volume 5999.982900
_symmetry_space_group_name_H-M "C M C M"
_symmetry_group_IT_number 63
_symmetry_cell_setting 'orthorhombic'
loop_
_space_group_symop_operation_xyz
x,y,z
-x,-y,1/2+z
x,-y,-z
-x,y,1/2-z
-x,-y,-z
x,y,1/2-z
-x,y,z
x,-y,1/2+z
1/2+x,1/2+y,z
1/2-x,1/2-y,1/2+z
1/2+x,1/2-y,-z
1/2-x,1/2+y,1/2-z
1/2-x,1/2-y,-z
1/2+x,1/2+y,1/2-z
1/2-x,1/2+y,z
1/2+x,1/2-y,1/2+z
loop_
_atom_site_type_symbol
_atom_site_label
_atom_site_fract_x
_atom_site_fract_y
_atom_site_fract_z
Si Si1 0.214035 0.007014 0.832003
Si Si2 0.624556 0.530723 0.425924
Si Si3 0.553440 0.988567 0.421865
Si Si4 0.553520 0.325671 0.397645
Si Si5 0.279483 0.782052 0.831361
Si Si6 0.384035 0.147151 0.328678
Si Si7 0.052230 0.772926 0.548959
O O1 0.207961 0.003520 0.750000
O O2 0.234013 0.142329 0.853973
O O3 0.162215 0.986485 0.865208
O O4 0.245703 0.892261 0.858620
O O5 0.648933 0.500000 0.500000
O O6 0.577789 0.450495 0.415984
O O7 0.600458 0.661894 0.425328
O O8 0.500000 0.046921 0.409513
O O9 0.550388 0.847089 0.405919
O O10 0.570672 0.000000 0.500000
O O11 0.594023 0.037786 0.371415
O O12 0.500000 0.351307 0.372511
O O13 0.581103 0.261618 0.335195
O O14 0.556395 0.242428 0.466624
O O15 0.278513 0.785828 0.750000
O O16 0.332419 0.813630 0.858954
O O17 0.379610 0.105888 0.250000
O O18 0.000000 0.840354 0.558778
#
# Coordination Sequence:
#
# PCOD8256275 Si02
#       7
#    16  16  16  16  16  16  16
#     4  10  20  39  61  79 105 146 191 236 286 340
#     4  10  20  34  56  84 114 142 184 230 277 329
#     4  10  19  33  52  75 110 153 189 220 267 335
#     4  10  18  31  54  81 112 145 179 222 271 329
#     4   9  20  37  59  81 106 143 189 236 285 344
#     4  11  21  34  54  83 111 138 183 238 282 325
#     4   9  18  33  53  78 110 151 191 220 261 332
#
# _framework density 18.666720000000002
#
# number of rings (size 3 to 8) (size 9 to 14) (size 15 to 20)
#    0.000    2.143    2.857    0.857    0.000    4.000 
#    0.000    3.571    0.000    2.143    0.000    0.000 
#    0.000    0.000    0.000    0.000    0.000    0.000 
#
# Total GULP energy -693755.632331 kJ/mol
# GULP energy per Si atom -12388.493434 kJ/mol
# Density = 1.862423 g / cm^3
# Si number density = 18.666720 Si / 1000 Ang^3
#
#
#
# Elastic Constant Matrix: (Units=GPa)
#
#
# Indices 1 2 3 4 5 6 
#
# 1 105.8068 50.2793 29.3298 0.0000 0.0000 0.0000
# 2 50.2793 100.6884 27.0840 0.0000 0.0000 0.0000
# 3 29.3298 27.0840 45.1924 0.0000 0.0000 0.0000
# 4 0.0000 0.0000 0.0000 24.7925 0.0000 0.0000
# 5 0.0000 0.0000 0.0000 0.0000 27.1792 0.0000
# 6 0.0000 0.0000 0.0000 0.0000 0.0000 20.4037
#
#
#
# Elastic Compliance Matrix: (Units=1/GPa)
#
#
# Indices 1 2 3 4 5 6 
#
# 1 0.013494 -0.005225 -0.005626 0.000000 0.000000 0.000000
# 2 -0.005225 0.013863 -0.004918 0.000000 0.000000 0.000000
# 3 -0.005626 -0.004918 0.028726 0.000000 0.000000 0.000000
# 4 0.000000 0.000000 0.000000 0.040335 0.000000 0.000000
# 5 0.000000 0.000000 0.000000 0.000000 0.036793 0.000000
# 6 0.000000 0.000000 0.000000 0.000000 0.000000 0.049011
#
#
# Mechanical properties :
#
#
# Convention : Reuss Voigt Hill
#
# Bulk Modulus (GPa) = 40.73942 51.67485 46.20713
# Shear Modulus (GPa) = 22.52862 24.14139 23.33500
#
# Velocity S-wave (km/s) = 3.47780 3.60013 3.53949
# Velocity P-wave (km/s) = 6.16431 6.71001 6.44294
#
# Compressibility (1/GPa) = 0.02454625
#
# Stress axis : x y z
#
# Youngs Moduli (GPa) = 74.10961 72.13247 34.81165
#
# Poissons Ratio (x) = 0.37687 0.19585
# Poissons Ratio (y) = 0.38720 0.17119
# Poissons Ratio (z) = 0.41695 0.35471
#
# Static dielectric constant tensor:
#      x y z
#    x 3.422640 0.000000 0.000000 
#    y 0.000000 3.765720 0.000000 
#    z 0.000000 0.000000 3.123790 
# 
# 
# High freq. dielectric constant tensor:
#      x y z
#    x 1.719880 0.000000 0.000000 
#    y 0.000000 1.737290 0.000000 
#    z 0.000000 0.000000 1.687380 
# 
# From -- ./inp_files/57625.got.cif
#   From: 2010.03.12/outbox.cif.g09.slc.cpg/sg63_29_cif.got.tgz:57625.got - 2010.04.10 19:34:48.
