data_PCOD8256568
_publ_section_title
;
Structure prediction by ZEFSAII (Michael W. Deem and Ramdas Pophale) SiO2 
 PCOD8256568
Probable space group: C M C M
;
_chemical_formula_sum "Si O2"
_cell_formula_units_Z 104
_cell_length_a 11.324884
_cell_length_b 18.342277
_cell_length_c 25.798738
_cell_angle_alpha 90.000000
_cell_angle_beta 90.000000
_cell_angle_gamma 90.000000
_cell_volume 5359.021163
_symmetry_space_group_name_H-M "C M C M"
_symmetry_group_IT_number 63
_symmetry_cell_setting 'orthorhombic'
loop_
_space_group_symop_operation_xyz
x,y,z
-x,-y,1/2+z
x,-y,-z
-x,y,1/2-z
-x,-y,-z
x,y,1/2-z
-x,y,z
x,-y,1/2+z
1/2+x,1/2+y,z
1/2-x,1/2-y,1/2+z
1/2+x,1/2-y,-z
1/2-x,1/2+y,1/2-z
1/2-x,1/2-y,-z
1/2+x,1/2+y,1/2-z
1/2-x,1/2+y,z
1/2+x,1/2-y,1/2+z
loop_
_atom_site_type_symbol
_atom_site_label
_atom_site_fract_x
_atom_site_fract_y
_atom_site_fract_z
Si Si1 0.500000 0.982260 0.810015
Si Si2 0.864203 0.969228 0.611174
Si Si3 0.000000 0.454753 0.551175
Si Si4 0.282295 0.886246 0.688417
Si Si5 0.237892 0.370793 0.535665
Si Si6 0.500000 0.905144 0.382304
Si Si7 0.247429 0.877287 0.413890
Si Si8 0.139995 0.266928 0.887982
O O1 0.500000 0.973678 0.750000
O O2 0.614870 0.940027 0.830265
O O3 0.500000 0.070354 0.821993
O O4 0.833450 0.923886 0.663373
O O5 0.842903 0.916797 0.561810
O O6 0.000000 0.992018 0.613144
O O7 0.787787 0.042685 0.605054
O O8 0.000000 0.500000 0.500000
O O9 0.115663 0.406990 0.552262
O O10 0.000000 0.510806 0.598035
O O11 0.265739 0.876944 0.750000
O O12 0.311481 0.807244 0.663542
O O13 0.266762 0.368086 0.475414
O O14 0.218919 0.291598 0.561888
O O15 0.384809 0.861472 0.400184
O O16 0.166434 0.819305 0.383523
O O17 0.000000 0.279488 0.894920
#
# Coordination Sequence:
#
# PCOD8256568 Si02
#       8
#     8  16   8  16  16   8  16  16
#     4  10  18  36  70  96 106 133 191 261 308 345
#     4  11  23  38  60  89 121 156 197 243 298 355
#     4  12  16  32  64  88 106 145 206 258 292 332
#     4  10  21  42  69  90 110 145 198 255 300 352
#     4  11  21  38  59  86 118 163 205 245 284 348
#     4  12  20  36  60  92 120 148 196 256 305 349
#     4  12  23  37  57  88 127 161 196 242 297 351
#     4  11  23  39  57  85 124 160 201 238 287 360
#
# _framework density 19.406528999999999
#
# number of rings (size 3 to 8) (size 9 to 14) (size 15 to 20)
#    0.000    0.923    6.154    2.308    0.000    2.154 
#    5.538    1.538    0.000    1.846    0.000    0.000 
#    0.000    0.000    0.000    0.000    0.000    0.000 
#
# Total GULP energy -644557.435348 kJ/mol
# GULP energy per Si atom -12395.335295 kJ/mol
# Density = 1.936236 g / cm^3
# Si number density = 19.406529 Si / 1000 Ang^3
#
#
#
# Elastic Constant Matrix: (Units=GPa)
#
#
# Indices 1 2 3 4 5 6 
#
# 1 95.6673 21.7434 30.4042 0.0000 0.0000 0.0000
# 2 21.7434 89.4638 40.0978 0.0000 0.0000 0.0000
# 3 30.4042 40.0978 88.8977 0.0000 0.0000 0.0000
# 4 0.0000 0.0000 0.0000 21.2650 0.0000 0.0000
# 5 0.0000 0.0000 0.0000 0.0000 19.5987 0.0000
# 6 0.0000 0.0000 0.0000 0.0000 0.0000 26.2928
#
#
#
# Elastic Compliance Matrix: (Units=1/GPa)
#
#
# Indices 1 2 3 4 5 6 
#
# 1 0.011853 -0.001333 -0.003453 0.000000 0.000000 0.000000
# 2 -0.001333 0.014160 -0.005931 0.000000 0.000000 0.000000
# 3 -0.003453 -0.005931 0.015105 0.000000 0.000000 0.000000
# 4 0.000000 0.000000 0.000000 0.047026 0.000000 0.000000
# 5 0.000000 0.000000 0.000000 0.000000 0.051024 0.000000
# 6 0.000000 0.000000 0.000000 0.000000 0.000000 0.038033
#
#
# Mechanical properties :
#
#
# Convention : Reuss Voigt Hill
#
# Bulk Modulus (GPa) = 50.80158 50.94662 50.87410
# Shear Modulus (GPa) = 24.36698 25.55021 24.95859
#
# Velocity S-wave (km/s) = 3.54730 3.63240 3.59010
# Velocity P-wave (km/s) = 6.55837 6.62584 6.59219
#
# Compressibility (1/GPa) = 0.01968443
#
# Stress axis : x y z
#
# Youngs Moduli (GPa) = 84.36540 70.62142 66.20382
#
# Poissons Ratio (x) = 0.09417 0.22857
# Poissons Ratio (y) = 0.11249 0.39265
# Poissons Ratio (z) = 0.29127 0.41885
#
# Static dielectric constant tensor:
#      x y z
#    x 3.426940 0.000000 0.000000 
#    y 0.000000 3.489020 0.000000 
#    z 0.000000 0.000000 3.625570 
# 
# 
# High freq. dielectric constant tensor:
#      x y z
#    x 1.752900 0.000000 0.000000 
#    y 0.000000 1.749640 0.000000 
#    z 0.000000 0.000000 1.752670 
# 
# From -- ./inp_files/68492.got.cif
#   From: 2010.03.12/outbox.cif.g09.slc.cpg/sg63_35_cif.got.tgz:68492.got - 2010.04.10 19:34:48.
