data_PCOD8256762
_publ_section_title
;
Structure prediction by ZEFSAII (Michael W. Deem and Ramdas Pophale) SiO2 
 PCOD8256762
Probable space group: C M C M
;
_chemical_formula_sum "Si O2"
_cell_formula_units_Z 96
_cell_length_a 25.280571
_cell_length_b 25.262209
_cell_length_c 9.034647
_cell_angle_alpha 90.000000
_cell_angle_beta 90.000000
_cell_angle_gamma 90.000000
_cell_volume 5769.914681
_symmetry_space_group_name_H-M "C M C M"
_symmetry_group_IT_number 63
_symmetry_cell_setting 'orthorhombic'
loop_
_space_group_symop_operation_xyz
x,y,z
-x,-y,1/2+z
x,-y,-z
-x,y,1/2-z
-x,-y,-z
x,y,1/2-z
-x,y,z
x,-y,1/2+z
1/2+x,1/2+y,z
1/2-x,1/2-y,1/2+z
1/2+x,1/2-y,-z
1/2-x,1/2+y,1/2-z
1/2-x,1/2-y,-z
1/2+x,1/2+y,1/2-z
1/2-x,1/2+y,z
1/2+x,1/2-y,1/2+z
loop_
_atom_site_type_symbol
_atom_site_label
_atom_site_fract_x
_atom_site_fract_y
_atom_site_fract_z
Si Si1 0.437179 0.244564 0.086406
Si Si2 0.636516 0.443742 0.921923
Si Si3 0.246606 0.556186 0.422679
Si Si4 0.559558 0.858232 0.423870
Si Si5 0.438835 0.638454 0.923962
Si Si6 0.854838 0.442812 0.426255
O O1 0.413815 0.235153 0.250000
O O2 0.500000 0.244531 0.092881
O O3 0.419795 0.302535 0.027597
O O4 0.416469 0.197009 0.983975
O O5 0.625221 0.453192 0.750000
O O6 0.695331 0.418207 0.945104
O O7 0.630260 0.500000 0.000000
O O8 0.594512 0.403320 0.985249
O O9 0.249475 0.500000 0.500000
O O10 0.232487 0.550467 0.250000
O O11 0.198289 0.585665 0.507395
O O12 0.559344 0.852788 0.250000
O O13 0.500000 0.868409 0.484070
O O14 0.595720 0.906923 0.475052
O O15 0.429412 0.630521 0.750000
O O16 0.500000 0.629441 0.964228
O O17 0.863457 0.500000 0.500000
O O18 0.850214 0.448137 0.250000
#
# Coordination Sequence:
#
# PCOD8256762 Si02
#       6
#    16  16  16  16  16  16
#     4   8  15  29  48  68  89 117 154 189 222 265
#     4  10  20  32  48  70  94 122 154 188 228 272
#     4   9  17  30  47  66  88 116 153 192 226 265
#     4   9  18  31  46  67  95 123 151 186 227 270
#     4   9  18  32  49  70  96 123 151 186 227 271
#     4  10  19  30  46  68  93 122 154 187 226 271
#
# _framework density 16.638027999999998
#
# number of rings (size 3 to 8) (size 9 to 14) (size 15 to 20)
#    0.000    2.833    0.000    3.500    0.000    5.000 
#    0.000    1.667    0.000    1.000    0.000    0.000 
#    0.000    0.000    0.000    0.000    0.000    0.000 
#
# Total GULP energy -594763.849804 kJ/mol
# GULP energy per Si atom -12390.913538 kJ/mol
# Density = 1.660016 g / cm^3
# Si number density = 16.638028 Si / 1000 Ang^3
#
#
#
# Elastic Constant Matrix: (Units=GPa)
#
#
# Indices 1 2 3 4 5 6 
#
# 1 100.5394 64.9424 54.4823 0.0000 0.0000 0.0000
# 2 64.9424 106.7923 51.3330 0.0000 0.0000 0.0000
# 3 54.4823 51.3330 76.7402 0.0000 0.0000 0.0000
# 4 0.0000 0.0000 0.0000 29.9690 0.0000 0.0000
# 5 0.0000 0.0000 0.0000 0.0000 25.1489 0.0000
# 6 0.0000 0.0000 0.0000 0.0000 0.0000 0.0069
#
#
#
# Elastic Compliance Matrix: (Units=1/GPa)
#
#
# Indices 1 2 3 4 5 6 
#
# 1 0.019743 -0.007765 -0.008822 0.000000 0.000000 0.000000
# 2 -0.007765 0.016856 -0.005762 0.000000 0.000000 0.000000
# 3 -0.008822 -0.005762 0.023149 0.000000 0.000000 0.000000
# 4 0.000000 0.000000 0.000000 0.033368 0.000000 0.000000
# 5 0.000000 0.000000 0.000000 0.000000 0.039763 0.000000
# 6 0.000000 0.000000 0.000000 0.000000 0.000000145.434838
#
#
# Mechanical properties :
#
#
# Convention : Reuss Voigt Hill
#
# Bulk Modulus (GPa) = 66.45337 69.50968 67.98152
# Shear Modulus (GPa) = 0.03434 18.57923 9.30678
#
# Velocity S-wave (km/s) = 0.14381 3.34529 2.36766
# Velocity P-wave (km/s) = 6.32890 7.53589 6.95861
#
# Compressibility (1/GPa) = 0.01504815
#
# Stress axis : x y z
#
# Youngs Moduli (GPa) = 50.65026 59.32575 43.19855
#
# Poissons Ratio (x) = 0.46069 0.38111
# Poissons Ratio (y) = 0.39332 0.24892
# Poissons Ratio (z) = 0.44686 0.34185
#
# Static dielectric constant tensor:
#      x y z
#    x 3.621250 0.000000 0.000000 
#    y 0.000000 3.086680 0.000000 
#    z 0.000000 0.000000 3.179390 
# 
# 
# High freq. dielectric constant tensor:
#      x y z
#    x 1.631250 0.000000 0.000000 
#    y 0.000000 1.621000 0.000000 
#    z 0.000000 0.000000 1.648540 
# 
# From -- ./inp_files/10407.got.cif
#   From: 2010.03.12/outbox.cif.g09.slc.cpg/sg63_6_cif.got.tgz:10407.got - 2010.04.10 19:34:48.
