data_PCOD8256987
_publ_section_title
;
Structure prediction by ZEFSAII (Michael W. Deem and Ramdas Pophale) SiO2 
 PCOD8256987
Probable space group: C M C M
;
_chemical_formula_sum "Si O2"
_cell_formula_units_Z 96
_cell_length_a 8.995493
_cell_length_b 20.812332
_cell_length_c 27.010932
_cell_angle_alpha 90.000000
_cell_angle_beta 90.000000
_cell_angle_gamma 90.000000
_cell_volume 5056.910702
_symmetry_space_group_name_H-M "C M C M"
_symmetry_group_IT_number 63
_symmetry_cell_setting 'orthorhombic'
loop_
_space_group_symop_operation_xyz
x,y,z
-x,-y,1/2+z
x,-y,-z
-x,y,1/2-z
-x,-y,-z
x,y,1/2-z
-x,y,z
x,-y,1/2+z
1/2+x,1/2+y,z
1/2-x,1/2-y,1/2+z
1/2+x,1/2-y,-z
1/2-x,1/2+y,1/2-z
1/2-x,1/2-y,-z
1/2+x,1/2+y,1/2-z
1/2-x,1/2+y,z
1/2+x,1/2-y,1/2+z
loop_
_atom_site_type_symbol
_atom_site_label
_atom_site_fract_x
_atom_site_fract_y
_atom_site_fract_z
Si Si1 0.326580 0.320037 0.192247
Si Si2 0.823454 0.691644 0.139357
Si Si3 0.177155 0.433838 0.694179
Si Si4 0.323359 0.938511 0.359968
Si Si5 0.176437 0.690568 0.026749
Si Si6 0.323234 0.062594 0.972099
O O1 0.293892 0.312355 0.250000
O O2 0.500000 0.330102 0.181429
O O3 0.265100 0.256331 0.165277
O O4 0.238557 0.380237 0.171651
O O5 0.758315 0.630006 0.168171
O O6 0.767087 0.689416 0.083097
O O7 0.000000 0.689289 0.141568
O O8 0.238951 0.437206 0.750000
O O9 0.234984 0.495542 0.664169
O O10 0.000000 0.432256 0.694235
O O11 0.500000 0.934860 0.358756
O O12 0.262689 0.935418 0.416048
O O13 0.000000 0.697305 0.023481
O O14 0.250000 0.750000 0.000000
O O15 0.232938 0.625660 0.000611
O O16 0.500000 0.059453 0.972017
O O17 0.258638 0.000000 0.000000
#
# Coordination Sequence:
#
# PCOD8256987 Si02
#       6
#    16  16  16  16  16  16
#     4  10  20  33  49  69  95 127 159 194 239 288
#     4   9  17  30  48  69  92 121 160 199 231 270
#     4   9  16  27  46  71  94 117 153 200 238 267
#     4  10  19  31  50  75 100 125 156 197 241 284
#     4  10  19  31  49  71  95 124 156 192 233 277
#     4   9  17  30  49  73  99 127 160 196 236 283
#
# _framework density 18.983920999999999
#
# number of rings (size 3 to 8) (size 9 to 14) (size 15 to 20)
#    0.000    2.500    0.000    3.000    0.000    7.000 
#    0.000    0.000    0.000    6.000    0.000    0.000 
#    0.000    0.000    0.000    0.000    0.000    0.000 
#
# Total GULP energy -595252.883619 kJ/mol
# GULP energy per Si atom -12401.101742 kJ/mol
# Density = 1.894071 g / cm^3
# Si number density = 18.983921 Si / 1000 Ang^3
#
#
#
# Elastic Constant Matrix: (Units=GPa)
#
#
# Indices 1 2 3 4 5 6 
#
# 1 11.5160 21.9624 19.7728 0.0000 0.0000 0.0000
# 2 21.9624 179.9612 75.1754 0.0000 0.0000 0.0000
# 3 19.7728 75.1754 150.4866 0.0000 0.0000 0.0000
# 4 0.0000 0.0000 0.0000 48.2675 0.0000 0.0000
# 5 0.0000 0.0000 0.0000 0.0000 17.6243 0.0000
# 6 0.0000 0.0000 0.0000 0.0000 0.0000 24.5524
#
#
#
# Elastic Compliance Matrix: (Units=1/GPa)
#
#
# Indices 1 2 3 4 5 6 
#
# 1 0.126703 -0.010752 -0.011277 0.000000 0.000000 0.000000
# 2 -0.010752 0.007935 -0.002551 0.000000 0.000000 0.000000
# 3 -0.011277 -0.002551 0.009401 0.000000 0.000000 0.000000
# 4 0.000000 0.000000 0.000000 0.020718 0.000000 0.000000
# 5 0.000000 0.000000 0.000000 0.000000 0.056740 0.000000
# 6 0.000000 0.000000 0.000000 0.000000 0.000000 0.040729
#
#
# Mechanical properties :
#
#
# Convention : Reuss Voigt Hill
#
# Bulk Modulus (GPa) = 10.53971 63.97610 37.25791
# Shear Modulus (GPa) = 14.57677 33.09238 23.83458
#
# Velocity S-wave (km/s) = 2.77401 4.17967 3.54717
# Velocity P-wave (km/s) = 3.97796 7.55421 6.03698
#
# Compressibility (1/GPa) = 0.09487925
#
# Stress axis : x y z
#
# Youngs Moduli (GPa) = 7.89247 126.03100 106.37071
#
# Poissons Ratio (x) = 1.35511 1.19950
# Poissons Ratio (y) = 0.08486 0.27135
# Poissons Ratio (z) = 0.08900 0.32150
#
# Static dielectric constant tensor:
#      x y z
#    x 2.857970 0.000000 0.000000 
#    y 0.000000 3.613440 0.000000 
#    z 0.000000 0.000000 4.022020 
# 
# 
# High freq. dielectric constant tensor:
#      x y z
#    x 1.670740 0.000000 0.000000 
#    y 0.000000 1.758840 0.000000 
#    z 0.000000 0.000000 1.760380 
# 
# From -- ./inp_files/61461.got.cif
#   From: 2010.03.12/outbox.cif.g09.slc.cpg/sg63_31_cif.got.tgz:61461.got - 2010.04.10 19:34:48.
