data_PCOD8256930
_publ_section_title
;
Structure prediction by ZEFSAII (Michael W. Deem and Ramdas Pophale) SiO2 
 PCOD8256930
Probable space group: C M C M
;
_chemical_formula_sum "Si O2"
_cell_formula_units_Z 96
_cell_length_a 30.589541
_cell_length_b 19.450597
_cell_length_c 9.370605
_cell_angle_alpha 90.000000
_cell_angle_beta 90.000000
_cell_angle_gamma 90.000000
_cell_volume 5575.367864
_symmetry_space_group_name_H-M "C M C M"
_symmetry_group_IT_number 63
_symmetry_cell_setting 'orthorhombic'
loop_
_space_group_symop_operation_xyz
x,y,z
-x,-y,1/2+z
x,-y,-z
-x,y,1/2-z
-x,-y,-z
x,y,1/2-z
-x,y,z
x,-y,1/2+z
1/2+x,1/2+y,z
1/2-x,1/2-y,1/2+z
1/2+x,1/2-y,-z
1/2-x,1/2+y,1/2-z
1/2-x,1/2-y,-z
1/2+x,1/2+y,1/2-z
1/2-x,1/2+y,z
1/2+x,1/2-y,1/2+z
loop_
_atom_site_type_symbol
_atom_site_label
_atom_site_fract_x
_atom_site_fract_y
_atom_site_fract_z
Si Si1 0.951609 0.287767 0.080375
Si Si2 0.338833 0.568068 0.918301
Si Si3 0.948201 0.561701 0.907476
Si Si4 0.762660 0.434758 0.413854
Si Si5 0.287931 0.213312 0.584855
Si Si6 0.128585 0.197217 0.417377
O O1 0.952730 0.294025 0.250000
O O2 0.937612 0.363533 0.022929
O O3 0.917179 0.230275 0.032515
O O4 0.000000 0.267215 0.023300
O O5 0.348722 0.561806 0.750000
O O6 0.287876 0.580686 0.949803
O O7 0.354916 0.500000 0.000000
O O8 0.365578 0.630744 0.985355
O O9 0.927267 0.556001 0.750000
O O10 0.000000 0.553209 0.897053
O O11 0.927454 0.500000 0.000000
O O12 0.780641 0.500000 0.500000
O O13 0.768514 0.454080 0.250000
O O14 0.790194 0.367274 0.457196
O O15 0.275434 0.220483 0.750000
O O16 0.250000 0.250000 0.500000
O O17 0.334209 0.246942 0.549189
O O18 0.128711 0.177009 0.250000
#
# Coordination Sequence:
#
# PCOD8256930 Si02
#       6
#    16  16  16  16  16  16
#     4   8  15  29  48  70  96 127 163 202 245 292
#     4  10  19  32  50  72  99 127 159 198 239 288
#     4   8  13  23  41  63  87 117 153 192 232 274
#     4   9  18  31  46  66  94 129 162 194 233 278
#     4  10  19  31  47  70  98 126 158 195 237 283
#     4  10  19  31  51  75  97 126 163 201 242 289
#
# _framework density 17.218596000000002
#
# number of rings (size 3 to 8) (size 9 to 14) (size 15 to 20)
#    0.000    2.833    1.667    1.500    0.000    1.333 
#    0.000    1.667    0.000    2.000    0.000    0.000 
#    0.000    0.000    0.000    0.000    0.000    0.000 
#
# Total GULP energy -595027.508395 kJ/mol
# GULP energy per Si atom -12396.406425 kJ/mol
# Density = 1.717941 g / cm^3
# Si number density = 17.218596 Si / 1000 Ang^3
#
#
#
# Elastic Constant Matrix: (Units=GPa)
#
#
# Indices 1 2 3 4 5 6 
#
# 1 71.3127 59.9363 33.1020 0.0000 0.0000 0.0000
# 2 59.9363 160.1577 63.4129 0.0000 0.0000 0.0000
# 3 33.1020 63.4129 64.3602 0.0000 0.0000 0.0000
# 4 0.0000 0.0000 0.0000 34.8751 0.0000 0.0000
# 5 0.0000 0.0000 0.0000 0.0000 12.4550 0.0000
# 6 0.0000 0.0000 0.0000 0.0000 0.0000 22.9551
#
#
#
# Elastic Compliance Matrix: (Units=1/GPa)
#
#
# Indices 1 2 3 4 5 6 
#
# 1 0.021438 -0.005996 -0.005118 0.000000 0.000000 0.000000
# 2 -0.005996 0.011915 -0.008655 0.000000 0.000000 0.000000
# 3 -0.005118 -0.008655 0.026698 0.000000 0.000000 0.000000
# 4 0.000000 0.000000 0.000000 0.028674 0.000000 0.000000
# 5 0.000000 0.000000 0.000000 0.000000 0.080289 0.000000
# 6 0.000000 0.000000 0.000000 0.000000 0.000000 0.043563
#
#
# Mechanical properties :
#
#
# Convention : Reuss Voigt Hill
#
# Bulk Modulus (GPa) = 48.75360 67.63699 58.19529
# Shear Modulus (GPa) = 19.30840 23.34898 21.32869
#
# Velocity S-wave (km/s) = 3.35232 3.68643 3.52334
# Velocity P-wave (km/s) = 6.58483 7.58197 7.10093
#
# Compressibility (1/GPa) = 0.02051131
#
# Stress axis : x y z
#
# Youngs Moduli (GPa) = 46.64550 83.92787 37.45606
#
# Poissons Ratio (x) = 0.50327 0.19170
# Poissons Ratio (y) = 0.27971 0.32420
# Poissons Ratio (z) = 0.23873 0.72644
#
# Static dielectric constant tensor:
#      x y z
#    x 3.088770 0.000000 0.000000 
#    y 0.000000 3.404430 0.000000 
#    z 0.000000 0.000000 3.152550 
# 
# 
# High freq. dielectric constant tensor:
#      x y z
#    x 1.630280 0.000000 0.000000 
#    y 0.000000 1.674300 0.000000 
#    z 0.000000 0.000000 1.646730 
# 
# From -- ./inp_files/12394.got.cif
#   From: 2010.03.12/outbox.cif.g09.slc.cpg/sg63_7_cif.got.tgz:12394.got - 2010.04.10 19:34:48.
