data_PCOD8256536
_publ_section_title
;
Structure prediction by ZEFSAII (Michael W. Deem and Ramdas Pophale) SiO2 
 PCOD8256536
Probable space group: C M C M
;
_chemical_formula_sum "Si O2"
_cell_formula_units_Z 96
_cell_length_a 17.447313
_cell_length_b 19.261455
_cell_length_c 16.276855
_cell_angle_alpha 90.000000
_cell_angle_beta 90.000000
_cell_angle_gamma 90.000000
_cell_volume 5470.010214
_symmetry_space_group_name_H-M "C M C M"
_symmetry_group_IT_number 63
_symmetry_cell_setting 'orthorhombic'
loop_
_space_group_symop_operation_xyz
x,y,z
-x,-y,1/2+z
x,-y,-z
-x,y,1/2-z
-x,-y,-z
x,y,1/2-z
-x,y,z
x,-y,1/2+z
1/2+x,1/2+y,z
1/2-x,1/2-y,1/2+z
1/2+x,1/2-y,-z
1/2-x,1/2+y,1/2-z
1/2-x,1/2-y,-z
1/2+x,1/2+y,1/2-z
1/2-x,1/2+y,z
1/2+x,1/2-y,1/2+z
loop_
_atom_site_type_symbol
_atom_site_label
_atom_site_fract_x
_atom_site_fract_y
_atom_site_fract_z
Si Si1 0.086106 0.619795 0.540114
Si Si2 0.211711 0.445448 0.154615
Si Si3 0.413976 0.715311 0.453619
Si Si4 0.722010 0.715204 0.157303
Si Si5 0.296511 0.658621 0.567140
Si Si6 0.704185 0.905290 0.583472
O O1 0.137556 0.592184 0.615495
O O2 0.087119 0.702452 0.537989
O O3 0.117112 0.593164 0.451129
O O4 0.000000 0.591477 0.551704
O O5 0.195429 0.456141 0.250000
O O6 0.288382 0.397686 0.140968
O O7 0.227940 0.518788 0.112256
O O8 0.500000 0.687457 0.439930
O O9 0.362374 0.693031 0.375188
O O10 0.381774 0.679674 0.538054
O O11 0.716466 0.743957 0.250000
O O12 0.752291 0.772135 0.093752
O O13 0.780296 0.649440 0.156906
O O14 0.255002 0.621329 0.491790
#
# Coordination Sequence:
#
# PCOD8256536 Si02
#       6
#    16  16  16  16  16  16
#     4  10  19  33  52  74 105 143 177 211 253 310
#     4  11  22  33  51  80 107 137 178 223 268 309
#     4  10  19  33  55  80 105 134 173 216 261 313
#     4  11  19  32  55  80 106 136 174 226 272 302
#     4  10  18  35  55  76 100 140 181 217 254 310
#     4  10  19  35  52  75 104 143 180 211 258 316
#
# _framework density 17.550242000000001
#
# number of rings (size 3 to 8) (size 9 to 14) (size 15 to 20)
#    0.000    1.667    5.000    4.000    0.000    2.000 
#    0.000    1.667    0.000   12.500    0.000    0.000 
#    0.000    0.000    0.000    0.000    0.000    0.000 
#
# Total GULP energy -594746.336740 kJ/mol
# GULP energy per Si atom -12390.548682 kJ/mol
# Density = 1.751030 g / cm^3
# Si number density = 17.550242 Si / 1000 Ang^3
#
#
#
# Elastic Constant Matrix: (Units=GPa)
#
#
# Indices 1 2 3 4 5 6 
#
# 1 81.8612 37.0062 56.9180 0.0000 0.0000 0.0000
# 2 37.0062 101.2543 31.6101 0.0000 0.0000 0.0000
# 3 56.9180 31.6101 93.9854 0.0000 0.0000 0.0000
# 4 0.0000 0.0000 0.0000 24.4075 0.0000 0.0000
# 5 0.0000 0.0000 0.0000 0.0000 15.7981 0.0000
# 6 0.0000 0.0000 0.0000 0.0000 0.0000 16.0318
#
#
#
# Elastic Compliance Matrix: (Units=1/GPa)
#
#
# Indices 1 2 3 4 5 6 
#
# 1 0.022794 -0.004493 -0.012293 0.000000 0.000000 0.000000
# 2 -0.004493 0.011920 -0.001288 0.000000 0.000000 0.000000
# 3 -0.012293 -0.001288 0.018518 0.000000 0.000000 0.000000
# 4 0.000000 0.000000 0.000000 0.040971 0.000000 0.000000
# 5 0.000000 0.000000 0.000000 0.000000 0.063299 0.000000
# 6 0.000000 0.000000 0.000000 0.000000 0.000000 0.062376
#
#
# Mechanical properties :
#
#
# Convention : Reuss Voigt Hill
#
# Bulk Modulus (GPa) = 58.53468 58.68549 58.61009
# Shear Modulus (GPa) = 19.10423 21.35193 20.22808
#
# Velocity S-wave (km/s) = 3.30289 3.49179 3.39865
# Velocity P-wave (km/s) = 6.92607 7.05464 6.99065
#
# Compressibility (1/GPa) = 0.01708389
#
# Stress axis : x y z
#
# Youngs Moduli (GPa) = 43.87038 83.88988 54.00133
#
# Poissons Ratio (x) = 0.37692 0.66385
# Poissons Ratio (y) = 0.19711 0.06956
# Poissons Ratio (z) = 0.53931 0.10806
#
# Static dielectric constant tensor:
#      x y z
#    x 3.528030 0.000000 0.000000 
#    y 0.000000 3.469460 0.000000 
#    z 0.000000 0.000000 3.380590 
# 
# 
# High freq. dielectric constant tensor:
#      x y z
#    x 1.651860 0.000000 0.000000 
#    y 0.000000 1.686280 0.000000 
#    z 0.000000 0.000000 1.669620 
# 
# From -- ./inp_files/45705.got.cif
#   From: 2010.03.12/outbox.cif.g09.slc.cpg/sg63_23_cif.got.tgz:45705.got - 2010.04.10 19:34:48.
