data_PCOD8256394
_publ_section_title
;
Structure prediction by ZEFSAII (Michael W. Deem and Ramdas Pophale) SiO2 
 PCOD8256394
Probable space group: C M C M
;
_chemical_formula_sum "Si O2"
_cell_formula_units_Z 96
_cell_length_a 23.122034
_cell_length_b 10.209779
_cell_length_c 23.987410
_cell_angle_alpha 90.000000
_cell_angle_beta 90.000000
_cell_angle_gamma 90.000000
_cell_volume 5662.728440
_symmetry_space_group_name_H-M "C M C M"
_symmetry_group_IT_number 63
_symmetry_cell_setting 'orthorhombic'
loop_
_space_group_symop_operation_xyz
x,y,z
-x,-y,1/2+z
x,-y,-z
-x,y,1/2-z
-x,-y,-z
x,y,1/2-z
-x,y,z
x,-y,1/2+z
1/2+x,1/2+y,z
1/2-x,1/2-y,1/2+z
1/2+x,1/2-y,-z
1/2-x,1/2+y,1/2-z
1/2-x,1/2-y,-z
1/2+x,1/2+y,1/2-z
1/2-x,1/2+y,z
1/2+x,1/2-y,1/2+z
loop_
_atom_site_type_symbol
_atom_site_label
_atom_site_fract_x
_atom_site_fract_y
_atom_site_fract_z
Si Si1 0.197373 0.278541 0.750000
Si Si2 0.878834 0.277926 0.641365
Si Si3 0.819260 0.627021 0.465729
Si Si4 0.801431 0.020029 0.250000
Si Si5 0.000000 0.719820 0.312259
Si Si6 0.500000 0.530482 0.312348
Si Si7 0.315148 0.622083 0.462202
Si Si8 0.878142 0.026120 0.357677
O O1 0.159059 0.303862 0.804189
O O2 0.221601 0.129750 0.750000
O O3 0.248758 0.380969 0.750000
O O4 0.856125 0.365199 0.590546
O O5 0.943701 0.326351 0.654002
O O6 0.876786 0.125611 0.624087
O O7 0.838071 0.500000 0.500000
O O8 0.752517 0.621595 0.447234
O O9 0.832862 0.747983 0.505595
O O10 0.840678 0.047804 0.302988
O O11 0.000000 0.658698 0.250000
O O12 0.000000 0.875190 0.306223
O O13 0.500000 0.591607 0.250000
O O14 0.443279 0.575733 0.346078
O O15 0.332018 0.500000 0.500000
O O16 0.351734 0.616547 0.405723
#
# Coordination Sequence:
#
# PCOD8256394 Si02
#       8
#     8  16  16   8   8   8  16  16
#     4  10  20  33  53  81 111 134 171 224 270 318
#     4  10  18  33  54  80 107 136 181 221 262 316
#     4  10  21  35  54  77 107 147 178 215 266 318
#     4  10  20  33  51  81 111 138 171 220 272 318
#     4   9  16  30  54  79 103 140 177 220 267 305
#     4   9  16  30  52  80 107 139 173 218 275 317
#     4  10  19  35  54  76 109 140 177 218 264 313
#     4  10  18  32  55  79 107 139 178 221 267 316
#
# _framework density 16.952957999999999
#
# number of rings (size 3 to 8) (size 9 to 14) (size 15 to 20)
#    0.000    2.167    3.333    1.000    0.000    0.000 
#    3.000    1.667    0.000    0.000    0.000    2.333 
#    0.000    0.000    0.000    0.000    0.000    0.000 
#
# Total GULP energy -595250.156937 kJ/mol
# GULP energy per Si atom -12401.044936 kJ/mol
# Density = 1.691437 g / cm^3
# Si number density = 16.952958 Si / 1000 Ang^3
#
#
#
# Elastic Constant Matrix: (Units=GPa)
#
#
# Indices 1 2 3 4 5 6 
#
# 1 128.6421 53.1351 78.1731 0.0000 0.0000 0.0000
# 2 53.1351 84.3453 55.9482 0.0000 0.0000 0.0000
# 3 78.1731 55.9482 147.5091 0.0000 0.0000 0.0000
# 4 0.0000 0.0000 0.0000 21.7155 0.0000 0.0000
# 5 0.0000 0.0000 0.0000 0.0000 43.0137 0.0000
# 6 0.0000 0.0000 0.0000 0.0000 0.0000 36.7945
#
#
#
# Elastic Compliance Matrix: (Units=1/GPa)
#
#
# Indices 1 2 3 4 5 6 
#
# 1 0.012743 -0.004741 -0.004955 0.000000 0.000000 0.000000
# 2 -0.004741 0.017605 -0.004165 0.000000 0.000000 0.000000
# 3 -0.004955 -0.004165 0.010985 0.000000 0.000000 0.000000
# 4 0.000000 0.000000 0.000000 0.046050 0.000000 0.000000
# 5 0.000000 0.000000 0.000000 0.000000 0.023248 0.000000
# 6 0.000000 0.000000 0.000000 0.000000 0.000000 0.027178
#
#
# Mechanical properties :
#
#
# Convention : Reuss Voigt Hill
#
# Bulk Modulus (GPa) = 73.46809 81.66768 77.56789
# Shear Modulus (GPa) = 29.40002 31.85410 30.62706
#
# Velocity S-wave (km/s) = 4.16890 4.33941 4.25501
# Velocity P-wave (km/s) = 8.16110 8.56651 8.36626
#
# Compressibility (1/GPa) = 0.01361135
#
# Stress axis : x y z
#
# Youngs Moduli (GPa) = 78.47651 56.80086 91.03428
#
# Poissons Ratio (x) = 0.26928 0.45107
# Poissons Ratio (y) = 0.37204 0.37916
# Poissons Ratio (z) = 0.38884 0.23658
#
# Static dielectric constant tensor:
#      x y z
#    x 3.253210 0.000000 0.000000 
#    y 0.000000 2.747410 0.000000 
#    z 0.000000 0.000000 3.201620 
# 
# 
# High freq. dielectric constant tensor:
#      x y z
#    x 1.652270 0.000000 0.000000 
#    y 0.000000 1.623160 0.000000 
#    z 0.000000 0.000000 1.665310 
# 
# From -- ./inp_files/56629.got.cif
#   From: 2010.03.12/outbox.cif.g09.slc.cpg/sg63_29_cif.got.tgz:56629.got - 2010.04.10 19:34:48.
