data_PCOD8256435
_publ_section_title
;
Structure prediction by ZEFSAII (Michael W. Deem and Ramdas Pophale) SiO2 
 PCOD8256435
Probable space group: C M C M
;
_chemical_formula_sum "Si O2"
_cell_formula_units_Z 96
_cell_length_a 19.599602
_cell_length_b 17.318216
_cell_length_c 16.173318
_cell_angle_alpha 90.000000
_cell_angle_beta 90.000000
_cell_angle_gamma 90.000000
_cell_volume 5489.711608
_symmetry_space_group_name_H-M "C M C M"
_symmetry_group_IT_number 63
_symmetry_cell_setting 'orthorhombic'
loop_
_space_group_symop_operation_xyz
x,y,z
-x,-y,1/2+z
x,-y,-z
-x,y,1/2-z
-x,-y,-z
x,y,1/2-z
-x,y,z
x,-y,1/2+z
1/2+x,1/2+y,z
1/2-x,1/2-y,1/2+z
1/2+x,1/2-y,-z
1/2-x,1/2+y,1/2-z
1/2-x,1/2-y,-z
1/2+x,1/2+y,1/2-z
1/2-x,1/2+y,z
1/2+x,1/2-y,1/2+z
loop_
_atom_site_type_symbol
_atom_site_label
_atom_site_fract_x
_atom_site_fract_y
_atom_site_fract_z
Si Si1 0.578711 0.154294 0.154601
Si Si2 0.191758 0.452069 0.918904
Si Si3 0.790573 0.064279 0.658147
Si Si4 0.426459 0.530666 0.908489
Si Si5 0.426393 0.300137 0.041801
Si Si6 0.786085 0.169198 0.999108
O O1 0.597464 0.169627 0.250000
O O2 0.500000 0.129339 0.145115
O O3 0.624107 0.084867 0.118983
O O4 0.594528 0.231671 0.103810
O O5 0.225308 0.509098 0.852481
O O6 0.170512 0.500000 0.000000
O O7 0.249362 0.388254 0.938463
O O8 0.788480 0.099249 0.750000
O O9 0.860032 0.012403 0.646876
O O10 0.787061 0.134453 0.593493
O O11 0.500000 0.495205 0.877773
O O12 0.434864 0.622708 0.905070
O O13 0.410022 0.500000 0.000000
O O14 0.500000 0.281952 0.998215
O O15 0.365449 0.313990 0.975214
O O16 0.750000 0.250000 0.000000
#
# Coordination Sequence:
#
# PCOD8256435 Si02
#       6
#    16  16  16  16  16  16
#     4  10  20  33  50  75 105 132 162 209 266 309
#     4  10  20  35  53  71  98 134 172 210 250 304
#     4  10  20  32  48  73 104 133 166 211 254 294
#     4   9  17  31  50  72 102 138 170 200 246 305
#     4   9  17  29  48  73  99 128 163 202 247 297
#     4  10  18  33  51  73  99 132 170 207 245 306
#
# _framework density 17.487257
#
# number of rings (size 3 to 8) (size 9 to 14) (size 15 to 20)
#    0.000    2.333    1.667    3.000    0.000    3.333 
#    0.000    3.333    0.000    0.000    0.000    0.000 
#    0.000    2.667    0.000    0.000    0.000    0.000 
#
# Total GULP energy -594642.382789 kJ/mol
# GULP energy per Si atom -12388.382975 kJ/mol
# Density = 1.744746 g / cm^3
# Si number density = 17.487257 Si / 1000 Ang^3
#
#
#
# Elastic Constant Matrix: (Units=GPa)
#
#
# Indices 1 2 3 4 5 6 
#
# 1 115.6854 37.2715 30.3318 0.0000 0.0000 0.0000
# 2 37.2715 75.2585 21.1021 0.0000 0.0000 0.0000
# 3 30.3318 21.1021 58.1128 0.0000 0.0000 0.0000
# 4 0.0000 0.0000 0.0000 13.1918 0.0000 0.0000
# 5 0.0000 0.0000 0.0000 0.0000 9.0446 0.0000
# 6 0.0000 0.0000 0.0000 0.0000 0.0000 29.3650
#
#
#
# Elastic Compliance Matrix: (Units=1/GPa)
#
#
# Indices 1 2 3 4 5 6 
#
# 1 0.011154 -0.004333 -0.004248 0.000000 0.000000 0.000000
# 2 -0.004333 0.016477 -0.003722 0.000000 0.000000 0.000000
# 3 -0.004248 -0.003722 0.020777 0.000000 0.000000 0.000000
# 4 0.000000 0.000000 0.000000 0.075805 0.000000 0.000000
# 5 0.000000 0.000000 0.000000 0.000000 0.110563 0.000000
# 6 0.000000 0.000000 0.000000 0.000000 0.000000 0.034054
#
#
# Mechanical properties :
#
#
# Convention : Reuss Voigt Hill
#
# Bulk Modulus (GPa) = 42.01347 47.38529 44.69938
# Shear Modulus (GPa) = 16.59091 21.01034 18.80063
#
# Velocity S-wave (km/s) = 3.08351 3.46998 3.28244
# Velocity P-wave (km/s) = 6.06257 6.57345 6.32317
#
# Compressibility (1/GPa) = 0.02380189
#
# Stress axis : x y z
#
# Youngs Moduli (GPa) = 89.65425 60.69124 48.13060
#
# Poissons Ratio (x) = 0.26296 0.20448
# Poissons Ratio (y) = 0.38845 0.17913
# Poissons Ratio (z) = 0.38089 0.22587
#
# Static dielectric constant tensor:
#      x y z
#    x 3.927010 0.000000 0.000000 
#    y 0.000000 3.246100 0.000000 
#    z 0.000000 0.000000 2.914860 
# 
# 
# High freq. dielectric constant tensor:
#      x y z
#    x 1.699730 0.000000 0.000000 
#    y 0.000000 1.668810 0.000000 
#    z 0.000000 0.000000 1.631220 
# 
# From -- ./inp_files/45723.got.cif
#   From: 2010.03.12/outbox.cif.g09.slc.cpg/sg63_23_cif.got.tgz:45723.got - 2010.04.10 19:34:48.
