data_PCOD8256779
_publ_section_title
;
Structure prediction by ZEFSAII (Michael W. Deem and Ramdas Pophale) SiO2 
 PCOD8256779
Probable space group: C M C M
;
_chemical_formula_sum "Si O2"
_cell_formula_units_Z 104
_cell_length_a 22.288996
_cell_length_b 29.958585
_cell_length_c 8.969146
_cell_angle_alpha 90.000000
_cell_angle_beta 90.000000
_cell_angle_gamma 90.000000
_cell_volume 5989.118372
_symmetry_space_group_name_H-M "C M C M"
_symmetry_group_IT_number 63
_symmetry_cell_setting 'orthorhombic'
loop_
_space_group_symop_operation_xyz
x,y,z
-x,-y,1/2+z
x,-y,-z
-x,y,1/2-z
-x,-y,-z
x,y,1/2-z
-x,y,z
x,-y,1/2+z
1/2+x,1/2+y,z
1/2-x,1/2-y,1/2+z
1/2+x,1/2-y,-z
1/2-x,1/2+y,1/2-z
1/2-x,1/2-y,-z
1/2+x,1/2+y,1/2-z
1/2-x,1/2+y,z
1/2+x,1/2-y,1/2+z
loop_
_atom_site_type_symbol
_atom_site_label
_atom_site_fract_x
_atom_site_fract_y
_atom_site_fract_z
Si Si1 0.289667 0.045909 0.925243
Si Si2 0.070687 0.691145 0.578166
Si Si3 0.500000 0.047765 0.425431
Si Si4 0.571227 0.721383 0.915704
Si Si5 0.567079 0.623642 0.927721
Si Si6 0.348622 0.454546 0.075243
Si Si7 0.385562 0.104720 0.073634
O O1 0.301603 0.042523 0.750000
O O2 0.220438 0.055082 0.963775
O O3 0.326164 0.086670 0.994534
O O4 0.311806 0.000000 0.000000
O O5 0.087578 0.684402 0.750000
O O6 0.093674 0.739905 0.526543
O O7 0.104985 0.655152 0.478868
O O8 0.000000 0.686110 0.550393
O O9 0.500000 0.041002 0.250000
O O10 0.558224 0.074888 0.478529
O O11 0.500000 0.000000 0.500000
O O12 0.597878 0.729942 0.750000
O O13 0.500000 0.721327 0.905239
O O14 0.590910 0.672662 0.978439
O O15 0.565800 0.623041 0.750000
O O16 0.500000 0.614271 0.989819
O O17 0.611989 0.586070 0.990531
O O18 0.358467 0.459872 0.250000
O O19 0.371086 0.500000 0.000000
O O20 0.377125 0.103809 0.250000
#
# Coordination Sequence:
#
# PCOD8256779 Si02
#       7
#    16  16   8  16  16  16  16
#     4  10  20  34  50  69  93 126 166 203 241 285
#     4  10  19  30  46  70  99 128 156 193 243 293
#     4  10  22  34  46  66  92 120 150 192 243 288
#     4   8  14  26  46  69  94 126 161 196 233 282
#     4   8  14  27  49  76 102 130 163 196 237 286
#     4   9  18  32  50  72 100 131 164 201 237 282
#     4  11  21  34  50  69  93 124 162 203 244 288
#
# _framework density 17.364826999999998
#
# number of rings (size 3 to 8) (size 9 to 14) (size 15 to 20)
#    0.000    2.615    0.769    2.769    0.000    4.000 
#    0.000    0.769    0.000    1.846    0.000    0.000 
#    0.000    0.000    0.000    0.000    0.000    0.000 
#
# Total GULP energy -644765.753430 kJ/mol
# GULP energy per Si atom -12399.341412 kJ/mol
# Density = 1.732530 g / cm^3
# Si number density = 17.364827 Si / 1000 Ang^3
#
#
#
# Elastic Constant Matrix: (Units=GPa)
#
#
# Indices 1 2 3 4 5 6 
#
# 1 61.2539 58.6839 27.9033 0.0000 0.0000 0.0000
# 2 58.6839 157.1542 42.9020 0.0000 0.0000 0.0000
# 3 27.9033 42.9020 56.4490 0.0000 0.0000 0.0000
# 4 0.0000 0.0000 0.0000 28.2665 0.0000 0.0000
# 5 0.0000 0.0000 0.0000 0.0000 16.0654 0.0000
# 6 0.0000 0.0000 0.0000 0.0000 0.0000 21.4187
#
#
#
# Elastic Compliance Matrix: (Units=1/GPa)
#
#
# Indices 1 2 3 4 5 6 
#
# 1 0.027637 -0.008316 -0.007341 0.000000 0.000000 0.000000
# 2 -0.008316 0.010531 -0.003893 0.000000 0.000000 0.000000
# 3 -0.007341 -0.003893 0.024303 0.000000 0.000000 0.000000
# 4 0.000000 0.000000 0.000000 0.035378 0.000000 0.000000
# 5 0.000000 0.000000 0.000000 0.000000 0.062245 0.000000
# 6 0.000000 0.000000 0.000000 0.000000 0.000000 0.046688
#
#
# Mechanical properties :
#
#
# Convention : Reuss Voigt Hill
#
# Bulk Modulus (GPa) = 42.78896 59.31504 51.05200
# Shear Modulus (GPa) = 19.71051 22.84133 21.27592
#
# Velocity S-wave (km/s) = 3.37275 3.63075 3.50413
# Velocity P-wave (km/s) = 6.31363 7.19783 6.77018
#
# Compressibility (1/GPa) = 0.02337051
#
# Stress axis : x y z
#
# Youngs Moduli (GPa) = 36.18403 94.95484 41.14773
#
# Poissons Ratio (x) = 0.78964 0.30206
# Poissons Ratio (y) = 0.30090 0.16020
# Poissons Ratio (z) = 0.26562 0.36969
#
# Static dielectric constant tensor:
#      x y z
#    x 3.097920 0.000000 0.000000 
#    y 0.000000 3.522330 0.000000 
#    z 0.000000 0.000000 3.116040 
# 
# 
# High freq. dielectric constant tensor:
#      x y z
#    x 1.638340 0.000000 0.000000 
#    y 0.000000 1.681980 0.000000 
#    z 0.000000 0.000000 1.660200 
# 
# From -- ./inp_files/10831.got.cif
#   From: 2010.03.12/outbox.cif.g09.slc.cpg/sg63_6_cif.got.tgz:10831.got - 2010.04.10 19:34:48.
