data_PCOD8256456
_publ_section_title
;
Structure prediction by ZEFSAII (Michael W. Deem and Ramdas Pophale) SiO2 
 PCOD8256456
Probable space group: C M C M
;
_chemical_formula_sum "Si O2"
_cell_formula_units_Z 96
_cell_length_a 14.131153
_cell_length_b 23.203986
_cell_length_c 14.720079
_cell_angle_alpha 90.000000
_cell_angle_beta 90.000000
_cell_angle_gamma 90.000000
_cell_volume 4826.700308
_symmetry_space_group_name_H-M "C M C M"
_symmetry_group_IT_number 63
_symmetry_cell_setting 'orthorhombic'
loop_
_space_group_symop_operation_xyz
x,y,z
-x,-y,1/2+z
x,-y,-z
-x,y,1/2-z
-x,-y,-z
x,y,1/2-z
-x,y,z
x,-y,1/2+z
1/2+x,1/2+y,z
1/2-x,1/2-y,1/2+z
1/2+x,1/2-y,-z
1/2-x,1/2+y,1/2-z
1/2-x,1/2-y,-z
1/2+x,1/2+y,1/2-z
1/2-x,1/2+y,z
1/2+x,1/2-y,1/2+z
loop_
_atom_site_type_symbol
_atom_site_label
_atom_site_fract_x
_atom_site_fract_y
_atom_site_fract_z
Si Si1 0.888529 0.367494 0.526180
Si Si2 0.393766 0.363813 0.094211
Si Si3 0.610845 0.236552 0.352120
Si Si4 0.795418 0.406988 0.349925
Si Si5 0.201781 0.539485 0.351985
Si Si6 0.395683 0.445808 0.934379
O O1 0.847087 0.314269 0.584978
O O2 0.841273 0.366212 0.426390
O O3 0.862222 0.426051 0.577556
O O4 0.000000 0.363369 0.512447
O O5 0.500000 0.373968 0.133740
O O6 0.366637 0.296580 0.098190
O O7 0.318304 0.399128 0.153664
O O8 0.387930 0.386241 0.990840
O O9 0.655419 0.235194 0.250000
O O10 0.500000 0.226457 0.343050
O O11 0.835751 0.390956 0.250000
O O12 0.818353 0.472909 0.373158
O O13 0.170583 0.555434 0.250000
O O14 0.313301 0.554301 0.360112
O O15 0.500000 0.449757 0.888418
O O16 0.379830 0.500000 0.000000
#
# Coordination Sequence:
#
# PCOD8256456 Si02
#       6
#    16  16  16  16  16  16
#     4  11  23  41  61  79 111 155 198 248 298 336
#     4  10  19  35  61  87 118 150 184 231 282 338
#     4   9  19  36  59  88 115 146 194 243 286 338
#     4  11  23  37  57  87 118 148 190 238 292 353
#     4  11  22  37  57  84 117 151 193 242 290 345
#     4  10  18  33  56  83 118 156 186 220 280 350
#
# _framework density 19.889365999999999
#
# number of rings (size 3 to 8) (size 9 to 14) (size 15 to 20)
#    0.000    1.667    3.333    1.500    0.000    4.667 
#    0.000    3.333    0.000    0.000    0.000    4.667 
#    0.000    0.000    0.000    0.000    0.000    0.000 
#
# Total GULP energy -595062.120007 kJ/mol
# GULP energy per Si atom -12397.127500 kJ/mol
# Density = 1.984410 g / cm^3
# Si number density = 19.889366 Si / 1000 Ang^3
#
#
#
# Elastic Constant Matrix: (Units=GPa)
#
#
# Indices 1 2 3 4 5 6 
#
# 1 57.8508 14.2119 25.7131 0.0000 0.0000 0.0000
# 2 14.2119 104.1082 55.3079 0.0000 0.0000 0.0000
# 3 25.7131 55.3079 112.1117 0.0000 0.0000 0.0000
# 4 0.0000 0.0000 0.0000 29.1554 0.0000 0.0000
# 5 0.0000 0.0000 0.0000 0.0000 18.9729 0.0000
# 6 0.0000 0.0000 0.0000 0.0000 0.0000 24.9826
#
#
#
# Elastic Compliance Matrix: (Units=1/GPa)
#
#
# Indices 1 2 3 4 5 6 
#
# 1 0.019259 -0.000383 -0.004228 0.000000 0.000000 0.000000
# 2 -0.000383 0.013025 -0.006338 0.000000 0.000000 0.000000
# 3 -0.004228 -0.006338 0.013016 0.000000 0.000000 0.000000
# 4 0.000000 0.000000 0.000000 0.034299 0.000000 0.000000
# 5 0.000000 0.000000 0.000000 0.000000 0.052707 0.000000
# 6 0.000000 0.000000 0.000000 0.000000 0.000000 0.040028
#
#
# Mechanical properties :
#
#
# Convention : Reuss Voigt Hill
#
# Bulk Modulus (GPa) = 42.73069 51.61514 47.17292
# Shear Modulus (GPa) = 24.74861 26.54469 25.64665
#
# Velocity S-wave (km/s) = 3.53131 3.65720 3.59481
# Velocity P-wave (km/s) = 6.17719 6.62125 6.40307
#
# Compressibility (1/GPa) = 0.02340238
#
# Stress axis : x y z
#
# Youngs Moduli (GPa) = 51.92310 76.77837 76.82879
#
# Poissons Ratio (x) = 0.02939 0.32486
# Poissons Ratio (y) = 0.01988 0.48691
# Poissons Ratio (z) = 0.21955 0.48659
#
# Static dielectric constant tensor:
#      x y z
#    x 3.538620 0.000000 0.000000 
#    y 0.000000 3.691530 0.000000 
#    z 0.000000 0.000000 3.583640 
# 
# 
# High freq. dielectric constant tensor:
#      x y z
#    x 1.760690 0.000000 0.000000 
#    y 0.000000 1.773040 0.000000 
#    z 0.000000 0.000000 1.765970 
# 
# From -- ./inp_files/31884.got.cif
#   From: 2010.03.12/outbox.cif.g09.slc.cpg/sg63_16_cif.got.tgz:31884.got - 2010.04.10 19:34:48.
