data_PCOD8256180
_publ_section_title
;
Structure prediction by ZEFSAII (Michael W. Deem and Ramdas Pophale) SiO2 
 PCOD8256180
Probable space group: C M C M
;
_chemical_formula_sum "Si O2"
_cell_formula_units_Z 128
_cell_length_a 23.290046
_cell_length_b 18.334424
_cell_length_c 18.223150
_cell_angle_alpha 90.000000
_cell_angle_beta 90.000000
_cell_angle_gamma 90.000000
_cell_volume 7781.459598
_symmetry_space_group_name_H-M "C M C M"
_symmetry_group_IT_number 63
_symmetry_cell_setting 'orthorhombic'
loop_
_space_group_symop_operation_xyz
x,y,z
-x,-y,1/2+z
x,-y,-z
-x,y,1/2-z
-x,-y,-z
x,y,1/2-z
-x,y,z
x,-y,1/2+z
1/2+x,1/2+y,z
1/2-x,1/2-y,1/2+z
1/2+x,1/2-y,-z
1/2-x,1/2+y,1/2-z
1/2-x,1/2-y,-z
1/2+x,1/2+y,1/2-z
1/2-x,1/2+y,z
1/2+x,1/2-y,1/2+z
loop_
_atom_site_type_symbol
_atom_site_label
_atom_site_fract_x
_atom_site_fract_y
_atom_site_fract_z
Si Si1 0.933474 0.611050 0.834489
Si Si2 0.659642 0.800191 0.414591
Si Si3 0.565433 0.806191 0.835633
Si Si4 0.622634 0.958574 0.834770
Si Si5 0.765504 0.896408 0.438213
Si Si6 0.837431 0.759010 0.422706
Si Si7 0.732534 0.306942 0.833645
Si Si8 0.245272 0.550925 0.100738
O O1 0.919439 0.629621 0.750000
O O2 0.899867 0.666740 0.886723
O O3 0.916837 0.527944 0.851986
O O4 0.000000 0.621499 0.852269
O O5 0.710266 0.858465 0.401816
O O6 0.654501 0.777522 0.498581
O O7 0.675223 0.729420 0.365982
O O8 0.572316 0.790166 0.750000
O O9 0.500000 0.797459 0.861266
O O10 0.585832 0.887596 0.855067
O O11 0.603020 0.746629 0.879007
O O12 0.642326 0.956637 0.750000
O O13 0.677970 0.961997 0.886199
O O14 0.820717 0.844091 0.430090
O O15 0.752657 0.911006 0.522620
O O16 0.777303 0.972648 0.396107
O O17 0.788502 0.715133 0.379724
O O18 0.741171 0.283035 0.750000
O O19 0.726996 0.394931 0.839168
#
# Coordination Sequence:
#
# PCOD8256180 Si02
#       8
#    16  16  16  16  16  16  16  16
#     4  10  21  35  50  72 105 145 183 217 253 296
#     4  11  19  35  50  73 101 137 180 216 255 305
#     4  10  20  34  53  75 101 136 175 215 260 308
#     4  10  18  31  49  72 104 140 176 210 246 302
#     4  10  20  32  51  72 103 136 168 210 262 309
#     4  11  20  35  51  74 102 136 172 217 263 311
#     4  11  20  32  51  76 104 136 172 216 264 308
#     4  11  18  32  51  76 102 137 168 208 256 313
#
# _framework density 16.449356000000002
#
# number of rings (size 3 to 8) (size 9 to 14) (size 15 to 20)
#    0.000    1.500    5.000    2.250    0.000    2.000 
#    0.000    1.875    0.000    2.250    0.000    2.625 
#    0.000    2.000    0.000    0.000    0.000    0.000 
#
# Total GULP energy -793684.284209 kJ/mol
# GULP energy per Si atom -12401.316941 kJ/mol
# Density = 1.641192 g / cm^3
# Si number density = 16.449356 Si / 1000 Ang^3
#
#
#
# Elastic Constant Matrix: (Units=GPa)
#
#
# Indices 1 2 3 4 5 6 
#
# 1 106.1952 62.0172 48.9500 0.0000 0.0000 0.0000
# 2 62.0172 102.3776 44.4728 0.0000 0.0000 0.0000
# 3 48.9500 44.4728 85.9297 0.0000 0.0000 0.0000
# 4 0.0000 0.0000 0.0000 22.0524 0.0000 0.0000
# 5 0.0000 0.0000 0.0000 0.0000 23.6167 0.0000
# 6 0.0000 0.0000 0.0000 0.0000 0.0000 27.6262
#
#
#
# Elastic Compliance Matrix: (Units=1/GPa)
#
#
# Indices 1 2 3 4 5 6 
#
# 1 0.016299 -0.007534 -0.005385 0.000000 0.000000 0.000000
# 2 -0.007534 0.016083 -0.004032 0.000000 0.000000 0.000000
# 3 -0.005385 -0.004032 0.016792 0.000000 0.000000 0.000000
# 4 0.000000 0.000000 0.000000 0.045346 0.000000 0.000000
# 5 0.000000 0.000000 0.000000 0.000000 0.042343 0.000000
# 6 0.000000 0.000000 0.000000 0.000000 0.000000 0.036197
#
#
# Mechanical properties :
#
#
# Convention : Reuss Voigt Hill
#
# Bulk Modulus (GPa) = 65.48339 67.26471 66.37405
# Shear Modulus (GPa) = 23.57892 23.92991 23.75441
#
# Velocity S-wave (km/s) = 3.79017 3.81827 3.80425
# Velocity P-wave (km/s) = 7.68436 7.77301 7.72881
#
# Compressibility (1/GPa) = 0.01527105
#
# Stress axis : x y z
#
# Youngs Moduli (GPa) = 61.35455 62.17720 59.55177
#
# Poissons Ratio (x) = 0.46843 0.32072
# Poissons Ratio (y) = 0.46223 0.24012
# Poissons Ratio (z) = 0.33042 0.25071
#
# Static dielectric constant tensor:
#      x y z
#    x 2.940700 0.000000 0.000000 
#    y 0.000000 3.308980 0.000000 
#    z 0.000000 0.000000 3.110500 
# 
# 
# High freq. dielectric constant tensor:
#      x y z
#    x 1.604530 0.000000 0.000000 
#    y 0.000000 1.632520 0.000000 
#    z 0.000000 0.000000 1.637500 
# 
# From -- ./inp_files/48405.got.cif
#   From: 2010.03.12/outbox.cif.g09.slc.cpg/sg63_25_cif.got.tgz:48405.got - 2010.04.10 19:34:48.
