data_PCOD8256404
_publ_section_title
;
Structure prediction by ZEFSAII (Michael W. Deem and Ramdas Pophale) SiO2 
 PCOD8256404
Probable space group: C M C M
;
_chemical_formula_sum "Si O2"
_cell_formula_units_Z 64
_cell_length_a 15.233949
_cell_length_b 9.773380
_cell_length_c 20.215066
_cell_angle_alpha 90.000000
_cell_angle_beta 90.000000
_cell_angle_gamma 90.000000
_cell_volume 3009.764018
_symmetry_space_group_name_H-M "C M C M"
_symmetry_group_IT_number 63
_symmetry_cell_setting 'orthorhombic'
loop_
_space_group_symop_operation_xyz
x,y,z
-x,-y,1/2+z
x,-y,-z
-x,y,1/2-z
-x,-y,-z
x,y,1/2-z
-x,y,z
x,-y,1/2+z
1/2+x,1/2+y,z
1/2-x,1/2-y,1/2+z
1/2+x,1/2-y,-z
1/2-x,1/2+y,1/2-z
1/2-x,1/2-y,-z
1/2+x,1/2+y,1/2-z
1/2-x,1/2+y,z
1/2+x,1/2-y,1/2+z
loop_
_atom_site_type_symbol
_atom_site_label
_atom_site_fract_x
_atom_site_fract_y
_atom_site_fract_z
Si Si1 0.901115 0.069325 0.910775
Si Si2 0.163321 0.195603 0.035557
Si Si3 0.395450 0.186027 0.176229
Si Si4 0.102933 0.531781 0.927044
O O1 0.867289 0.164195 0.850579
O O2 0.000000 0.014234 0.897495
O O3 0.831170 0.945112 0.921189
O O4 0.905442 0.164615 0.976468
O O5 0.127429 0.310188 0.086485
O O6 0.250000 0.250000 0.000000
O O7 0.357066 0.166793 0.250000
O O8 0.500000 0.176194 0.177011
O O9 0.355325 0.067830 0.128580
O O10 0.000000 0.508533 0.926467
O O11 0.142206 0.500000 0.000000
#
# Coordination Sequence:
#
# PCOD8256404 Si02
#       4
#    16  16  16  16
#     4  10  20  36  56  79 111 149 189 230 282 342
#     4  11  22  32  53  83 114 143 183 238 285 332
#     4   9  18  33  56  84 113 147 188 234 285 343
#     4  10  18  32  55  84 112 143 184 234 289 338
#
# _framework density 21.264125
#
# number of rings (size 3 to 8) (size 9 to 14) (size 15 to 20)
#    0.000    2.000    2.500    3.000    3.500    0.000 
#    0.000    1.250    0.000   12.000    0.000    0.000 
#    0.000    0.000    0.000    0.000    0.000    0.750 
#
# Total GULP energy -396507.642925 kJ/mol
# GULP energy per Si atom -12390.863841 kJ/mol
# Density = 2.121573 g / cm^3
# Si number density = 21.264125 Si / 1000 Ang^3
#
#
#
# Elastic Constant Matrix: (Units=GPa)
#
#
# Indices 1 2 3 4 5 6 
#
# 1 36.4583 37.9045 14.7453 0.0000 0.0000 0.0000
# 2 37.9045 182.8184 97.5188 0.0000 0.0000 0.0000
# 3 14.7453 97.5188 156.9688 0.0000 0.0000 0.0000
# 4 0.0000 0.0000 0.0000 37.6504 0.0000 0.0000
# 5 0.0000 0.0000 0.0000 0.0000 13.5998 0.0000
# 6 0.0000 0.0000 0.0000 0.0000 0.0000 24.4731
#
#
#
# Elastic Compliance Matrix: (Units=1/GPa)
#
#
# Indices 1 2 3 4 5 6 
#
# 1 0.035318 -0.008305 0.001842 0.000000 0.000000 0.000000
# 2 -0.008305 0.010134 -0.005516 0.000000 0.000000 0.000000
# 3 0.001842 -0.005516 0.009624 0.000000 0.000000 0.000000
# 4 0.000000 0.000000 0.000000 0.026560 0.000000 0.000000
# 5 0.000000 0.000000 0.000000 0.000000 0.073531 0.000000
# 6 0.000000 0.000000 0.000000 0.000000 0.000000 0.040861
#
#
# Mechanical properties :
#
#
# Convention : Reuss Voigt Hill
#
# Bulk Modulus (GPa) = 32.13490 75.17586 53.65538
# Shear Modulus (GPa) = 21.70518 30.21644 25.96081
#
# Velocity S-wave (km/s) = 3.19837 3.77371 3.49789
# Velocity P-wave (km/s) = 5.36512 7.37686 6.44990
#
# Compressibility (1/GPa) = 0.03111882
#
# Stress axis : x y z
#
# Youngs Moduli (GPa) = 28.31392 98.67707 103.90282
#
# Poissons Ratio (x) = 0.81954 -0.19139
# Poissons Ratio (y) = 0.23515 0.57310
# Poissons Ratio (z) = -0.05215 0.54428
#
# Static dielectric constant tensor:
#      x y z
#    x 3.412090 0.000000 0.000000 
#    y 0.000000 4.381420 0.000000 
#    z 0.000000 0.000000 3.915810 
# 
# 
# High freq. dielectric constant tensor:
#      x y z
#    x 1.805180 0.000000 0.000000 
#    y 0.000000 1.849280 0.000000 
#    z 0.000000 0.000000 1.791440 
# 
# From -- ./inp_files/63422.got.cif
#   From: 2010.03.12/outbox.cif.g09.slc.cpg/sg63_32_cif.got.tgz:63422.got - 2010.04.10 19:34:48.
