data_PCOD8256705
_publ_section_title
;
Structure prediction by ZEFSAII (Michael W. Deem and Ramdas Pophale) SiO2 
 PCOD8256705
Probable space group: C M C M
;
_chemical_formula_sum "Si O2"
_cell_formula_units_Z 112
_cell_length_a 32.290526
_cell_length_b 31.512275
_cell_length_c 8.772230
_cell_angle_alpha 90.000000
_cell_angle_beta 90.000000
_cell_angle_gamma 90.000000
_cell_volume 8926.164524
_symmetry_space_group_name_H-M "C M C M"
_symmetry_group_IT_number 63
_symmetry_cell_setting 'orthorhombic'
loop_
_space_group_symop_operation_xyz
x,y,z
-x,-y,1/2+z
x,-y,-z
-x,y,1/2-z
-x,-y,-z
x,y,1/2-z
-x,y,z
x,-y,1/2+z
1/2+x,1/2+y,z
1/2-x,1/2-y,1/2+z
1/2+x,1/2-y,-z
1/2-x,1/2+y,1/2-z
1/2-x,1/2-y,-z
1/2+x,1/2+y,1/2-z
1/2-x,1/2+y,z
1/2+x,1/2-y,1/2+z
loop_
_atom_site_type_symbol
_atom_site_label
_atom_site_fract_x
_atom_site_fract_y
_atom_site_fract_z
Si Si1 0.000000 0.081697 0.431089
Si Si2 0.000000 0.173971 0.571299
Si Si3 0.133390 0.884210 0.924205
Si Si4 0.723508 0.212850 0.571142
Si Si5 0.651733 0.747463 0.578019
Si Si6 0.582695 0.455510 0.070158
Si Si7 0.418505 0.700544 0.426222
Si Si8 0.202413 0.839272 0.079971
O O1 0.039882 0.058187 0.494560
O O2 0.000000 0.078859 0.250000
O O3 0.000000 0.130520 0.477730
O O4 0.959960 0.201308 0.526399
O O5 0.000000 0.163756 0.750000
O O6 0.131267 0.899236 0.750000
O O7 0.104074 0.844119 0.954146
O O8 0.118520 0.921874 0.032741
O O9 0.180921 0.872271 0.964698
O O10 0.718849 0.221054 0.750000
O O11 0.750000 0.250000 0.500000
O O12 0.677813 0.213343 0.495198
O O13 0.748929 0.168898 0.539374
O O14 0.639640 0.759563 0.750000
O O15 0.610041 0.739449 0.481924
O O16 0.679583 0.705687 0.571653
O O17 0.576719 0.459150 0.250000
O O18 0.596923 0.500000 0.000000
O O19 0.429543 0.707166 0.250000
O O20 0.198407 0.858067 0.250000
#
# Coordination Sequence:
#
# PCOD8256705 Si02
#       8
#     8   8  16  16  16  16  16  16
#     4  12  23  37  50  62  75  86 110 140 176 220
#     4  12  22  31  45  60  74  92 115 144 180 216
#     4  10  19  30  44  59  74  90 112 138 168 209
#     4   9  15  23  35  52  73  94 116 136 161 193
#     4   9  16  25  37  53  73  93 116 139 165 198
#     4  12  24  37  50  61  74  90 110 139 178 220
#     4  10  19  30  43  56  73  93 115 142 172 208
#     4   8  15  25  37  53  73  94 114 135 161 196
#
# _framework density 12.547382000000001
#
# number of rings (size 3 to 8) (size 9 to 14) (size 15 to 20)
#    0.000    2.000    1.429    5.357    0.000    5.143 
#    0.000    0.000    0.000    0.000    0.000    0.000 
#    0.000    0.000    0.000    0.000    0.000    0.000 
#
# Total GULP energy -694224.875276 kJ/mol
# GULP energy per Si atom -12396.872773 kJ/mol
# Density = 1.251882 g / cm^3
# Si number density = 12.547382 Si / 1000 Ang^3
#
#
#
# Elastic Constant Matrix: (Units=GPa)
#
#
# Indices 1 2 3 4 5 6 
#
# 1 65.0069 34.5037 36.0581 0.0000 0.0000 0.0000
# 2 34.5037 28.5122 24.1980 0.0000 0.0000 0.0000
# 3 36.0581 24.1980 93.5466 0.0000 0.0000 0.0000
# 4 0.0000 0.0000 0.0000 15.4321 0.0000 0.0000
# 5 0.0000 0.0000 0.0000 0.0000 22.6290 0.0000
# 6 0.0000 0.0000 0.0000 0.0000 0.0000 -13.2214
#
#
#
# Elastic Compliance Matrix: (Units=1/GPa)
#
#
# Indices 1 2 3 4 5 6 
#
# 1 0.044201 -0.050008 -0.004102 0.000000 0.000000 0.000000
# 2 -0.050008 0.101517 -0.006984 0.000000 0.000000 0.000000
# 3 -0.004102 -0.006984 0.014077 0.000000 0.000000 0.000000
# 4 0.000000 0.000000 0.000000 0.064800 0.000000 0.000000
# 5 0.000000 0.000000 0.000000 0.000000 0.044191 0.000000
# 6 0.000000 0.000000 0.000000 0.000000 0.000000 -0.075635
#
#
# Mechanical properties :
#
#
# Convention : Reuss Voigt Hill
#
# Bulk Modulus (GPa) = 26.59034 41.84281 34.21657
# Shear Modulus (GPa) = 15.24974 11.12167 13.18570
#
# Velocity S-wave (km/s) = 3.49000 2.98043 3.24523
# Velocity P-wave (km/s) = 6.12193 6.72787 6.43204
#
# Compressibility (1/GPa) = 0.03760764
#
# Stress axis : x y z
#
# Youngs Moduli (GPa) = 22.62387 9.85061 71.03597
#
# Poissons Ratio (x) = 0.49261 0.29137
# Poissons Ratio (y) = 1.13138 0.49609
# Poissons Ratio (z) = 0.09280 0.06879
#
# Static dielectric constant tensor:
#      x y z
#    x 2.748650 0.000000 0.000000 
#    y 0.000000 2.313940 0.000000 
#    z 0.000000 0.000000 2.733780 
# 
# 
# High freq. dielectric constant tensor:
#      x y z
#    x 1.465460 0.000000 0.000000 
#    y 0.000000 1.416610 0.000000 
#    z 0.000000 0.000000 1.498110 
# 
# From -- ./inp_files/15005.got.cif
#   From: 2010.03.12/outbox.cif.g09.slc.cpg/sg63_8_cif.got.tgz:15005.got - 2010.04.10 19:34:48.
