data_PCOD8256676
_publ_section_title
;
Structure prediction by ZEFSAII (Michael W. Deem and Ramdas Pophale) SiO2 
 PCOD8256676
Probable space group: C M C M
;
_chemical_formula_sum "Si O2"
_cell_formula_units_Z 96
_cell_length_a 12.264100
_cell_length_b 23.863483
_cell_length_c 19.642341
_cell_angle_alpha 90.000000
_cell_angle_beta 90.000000
_cell_angle_gamma 90.000000
_cell_volume 5748.608873
_symmetry_space_group_name_H-M "C M C M"
_symmetry_group_IT_number 63
_symmetry_cell_setting 'orthorhombic'
loop_
_space_group_symop_operation_xyz
x,y,z
-x,-y,1/2+z
x,-y,-z
-x,y,1/2-z
-x,-y,-z
x,y,1/2-z
-x,y,z
x,-y,1/2+z
1/2+x,1/2+y,z
1/2-x,1/2-y,1/2+z
1/2+x,1/2-y,-z
1/2-x,1/2+y,1/2-z
1/2-x,1/2-y,-z
1/2+x,1/2+y,1/2-z
1/2-x,1/2+y,z
1/2+x,1/2-y,1/2+z
loop_
_atom_site_type_symbol
_atom_site_label
_atom_site_fract_x
_atom_site_fract_y
_atom_site_fract_z
Si Si1 0.624308 0.412047 0.823394
Si Si2 0.375828 0.171770 0.827678
Si Si3 0.625595 0.226605 0.439046
Si Si4 0.256590 0.660954 0.954555
Si Si5 0.128964 0.059823 0.468998
Si Si6 0.706755 0.707994 0.174482
O O1 0.681197 0.428348 0.750000
O O2 0.500000 0.430187 0.817500
O O3 0.673030 0.441937 0.890592
O O4 0.630122 0.345546 0.835429
O O5 0.341521 0.156461 0.750000
O O6 0.500000 0.152600 0.841142
O O7 0.292213 0.142614 0.880715
O O8 0.368418 0.238420 0.840670
O O9 0.500000 0.217734 0.423681
O O10 0.648231 0.292648 0.449728
O O11 0.657589 0.189249 0.504071
O O12 0.690989 0.203348 0.374902
O O13 0.305398 0.606159 0.989236
O O14 0.000000 0.073449 0.471997
O O15 0.156735 0.000000 0.500000
O O16 0.756263 0.711099 0.250000
#
# Coordination Sequence:
#
# PCOD8256676 Si02
#       6
#    16  16  16  16  16  16
#     4   9  16  28  48  72  96 123 159 201 241 281
#     4   9  17  29  47  71  98 128 164 203 242 288
#     4  10  19  29  45  70  99 130 158 190 237 298
#     4  10  19  32  47  70  97 128 161 200 244 291
#     4  10  20  34  52  73  99 129 163 204 247 289
#     4   9  16  27  44  70 100 128 157 194 242 288
#
# _framework density 16.699691999999999
#
# number of rings (size 3 to 8) (size 9 to 14) (size 15 to 20)
#    0.000    2.500    1.667    1.500    0.000    2.333 
#    0.000    0.833    0.000    4.500    0.000    0.000 
#    0.000    0.000    0.000    0.000    0.000    0.000 
#
# Total GULP energy -594851.822603 kJ/mol
# GULP energy per Si atom -12392.746304 kJ/mol
# Density = 1.666168 g / cm^3
# Si number density = 16.699692 Si / 1000 Ang^3
#
#
#
# Elastic Constant Matrix: (Units=GPa)
#
#
# Indices 1 2 3 4 5 6 
#
# 1 61.0729 14.3178 37.6174 0.0000 0.0000 0.0000
# 2 14.3178 62.8839 51.8855 0.0000 0.0000 0.0000
# 3 37.6174 51.8855 150.0482 0.0000 0.0000 0.0000
# 4 0.0000 0.0000 0.0000 22.1621 0.0000 0.0000
# 5 0.0000 0.0000 0.0000 0.0000 23.7521 0.0000
# 6 0.0000 0.0000 0.0000 0.0000 0.0000 13.8831
#
#
#
# Elastic Compliance Matrix: (Units=1/GPa)
#
#
# Indices 1 2 3 4 5 6 
#
# 1 0.019378 -0.000565 -0.004663 0.000000 0.000000 0.000000
# 2 -0.000565 0.022267 -0.007558 0.000000 0.000000 0.000000
# 3 -0.004663 -0.007558 0.010447 0.000000 0.000000 0.000000
# 4 0.000000 0.000000 0.000000 0.045122 0.000000 0.000000
# 5 0.000000 0.000000 0.000000 0.000000 0.042101 0.000000
# 6 0.000000 0.000000 0.000000 0.000000 0.000000 0.072030
#
#
# Mechanical properties :
#
#
# Convention : Reuss Voigt Hill
#
# Bulk Modulus (GPa) = 37.70625 53.51628 45.61127
# Shear Modulus (GPa) = 20.34520 23.30510 21.82515
#
# Velocity S-wave (km/s) = 3.49420 3.73975 3.61906
# Velocity P-wave (km/s) = 6.23757 7.12485 6.69592
#
# Compressibility (1/GPa) = 0.02652080
#
# Stress axis : x y z
#
# Youngs Moduli (GPa) = 51.60389 44.90907 95.72033
#
# Poissons Ratio (x) = 0.02537 0.44633
# Poissons Ratio (y) = 0.02915 0.72348
# Poissons Ratio (z) = 0.24062 0.33943
#
# Static dielectric constant tensor:
#      x y z
#    x 2.831750 0.000000 0.000000 
#    y 0.000000 2.811030 0.000000 
#    z 0.000000 0.000000 3.649840 
# 
# 
# High freq. dielectric constant tensor:
#      x y z
#    x 1.614580 0.000000 0.000000 
#    y 0.000000 1.604640 0.000000 
#    z 0.000000 0.000000 1.670370 
# 
# From -- ./inp_files/42680.got.cif
#   From: 2010.03.12/outbox.cif.g09.slc.cpg/sg63_22_cif.got.tgz:42680.got - 2010.04.10 19:34:48.
