data_PCOD8256477
_publ_section_title
;
Structure prediction by ZEFSAII (Michael W. Deem and Ramdas Pophale) SiO2 
 PCOD8256477
Probable space group: C M C M
;
_chemical_formula_sum "Si O2"
_cell_formula_units_Z 80
_cell_length_a 13.978952
_cell_length_b 15.305754
_cell_length_c 18.255714
_cell_angle_alpha 90.000000
_cell_angle_beta 90.000000
_cell_angle_gamma 90.000000
_cell_volume 3905.963367
_symmetry_space_group_name_H-M "C M C M"
_symmetry_group_IT_number 63
_symmetry_cell_setting 'orthorhombic'
loop_
_space_group_symop_operation_xyz
x,y,z
-x,-y,1/2+z
x,-y,-z
-x,y,1/2-z
-x,-y,-z
x,y,1/2-z
-x,y,z
x,-y,1/2+z
1/2+x,1/2+y,z
1/2-x,1/2-y,1/2+z
1/2+x,1/2-y,-z
1/2-x,1/2+y,1/2-z
1/2-x,1/2-y,-z
1/2+x,1/2+y,1/2-z
1/2-x,1/2+y,z
1/2+x,1/2-y,1/2+z
loop_
_atom_site_type_symbol
_atom_site_label
_atom_site_fract_x
_atom_site_fract_y
_atom_site_fract_z
Si Si1 0.609231 0.427203 0.561304
Si Si2 0.612552 0.257389 0.017985
Si Si3 0.111859 0.305381 0.669703
Si Si4 0.111175 0.422451 0.056636
Si Si5 0.729756 0.980722 0.667146
O O1 0.615325 0.500000 0.500000
O O2 0.500000 0.412788 0.587361
O O3 0.655902 0.339086 0.526466
O O4 0.668752 0.456797 0.631507
O O5 0.500000 0.268726 0.016376
O O6 0.646937 0.257369 0.103408
O O7 0.645080 0.168104 0.979339
O O8 0.133743 0.263004 0.750000
O O9 0.160536 0.398484 0.662855
O O10 0.000000 0.324572 0.659943
O O11 0.176671 0.438582 0.127554
O O12 0.000000 0.419011 0.079274
O O13 0.131973 0.500000 0.000000
O O14 0.750402 0.009704 0.750000
#
# Coordination Sequence:
#
# PCOD8256477 Si02
#       5
#    16  16  16  16  16
#     4  10  23  43  62  80 107 152 211 257 286 329
#     4   9  18  35  61  87 112 152 197 240 289 342
#     4   9  17  31  54  88 125 151 176 222 291 363
#     4  10  18  33  59  91 121 148 182 228 292 363
#     4  11  22  36  55  84 119 155 190 234 296 354
#
# _framework density 20.481504000000001
#
# number of rings (size 3 to 8) (size 9 to 14) (size 15 to 20)
#    0.000    2.200    2.000    1.200    0.000    2.400 
#    0.000    2.000    0.000    7.200    0.000    0.000 
#    0.000    0.000    0.000    0.000    0.000    0.000 
#
# Total GULP energy -495909.881496 kJ/mol
# GULP energy per Si atom -12397.747037 kJ/mol
# Density = 2.043489 g / cm^3
# Si number density = 20.481504 Si / 1000 Ang^3
#
#
#
# Elastic Constant Matrix: (Units=GPa)
#
#
# Indices 1 2 3 4 5 6 
#
# 1 72.2636 26.7549 65.5333 0.0000 0.0000 0.0000
# 2 26.7549 101.4611 51.9032 0.0000 0.0000 0.0000
# 3 65.5333 51.9032 178.9650 0.0000 0.0000 0.0000
# 4 0.0000 0.0000 0.0000 17.7134 0.0000 0.0000
# 5 0.0000 0.0000 0.0000 0.0000 17.7909 0.0000
# 6 0.0000 0.0000 0.0000 0.0000 0.0000 2.0932
#
#
#
# Elastic Compliance Matrix: (Units=1/GPa)
#
#
# Indices 1 2 3 4 5 6 
#
# 1 0.021021 -0.001885 -0.007151 0.000000 0.000000 0.000000
# 2 -0.001885 0.011742 -0.002715 0.000000 0.000000 0.000000
# 3 -0.007151 -0.002715 0.008994 0.000000 0.000000 0.000000
# 4 0.000000 0.000000 0.000000 0.056455 0.000000 0.000000
# 5 0.000000 0.000000 0.000000 0.000000 0.056208 0.000000
# 6 0.000000 0.000000 0.000000 0.000000 0.000000 0.477743
#
#
# Mechanical properties :
#
#
# Convention : Reuss Voigt Hill
#
# Bulk Modulus (GPa) = 54.78070 71.23029 63.00549
# Shear Modulus (GPa) = 7.55573 21.41937 14.48755
#
# Velocity S-wave (km/s) = 1.92277 3.23738 2.66249
# Velocity P-wave (km/s) = 5.63328 6.98767 6.34671
#
# Compressibility (1/GPa) = 0.01825461
#
# Stress axis : x y z
#
# Youngs Moduli (GPa) = 47.57166 85.16410 111.19060
#
# Poissons Ratio (x) = 0.16055 0.79509
# Poissons Ratio (y) = 0.08968 0.30190
# Poissons Ratio (z) = 0.34017 0.23123
#
# Static dielectric constant tensor:
#      x y z
#    x 3.719150 0.000000 0.000000 
#    y 0.000000 3.755980 0.000000 
#    z 0.000000 0.000000 4.032250 
# 
# 
# High freq. dielectric constant tensor:
#      x y z
#    x 1.804040 0.000000 0.000000 
#    y 0.000000 1.785220 0.000000 
#    z 0.000000 0.000000 1.797490 
# 
# From -- ./inp_files/53985.got.cif
#   From: 2010.03.12/outbox.cif.g09.slc.cpg/sg63_27_cif.got.tgz:53985.got - 2010.04.10 19:34:48.
