data_PCOD8256625
_publ_section_title
;
Structure prediction by ZEFSAII (Michael W. Deem and Ramdas Pophale) SiO2 
 PCOD8256625
Probable space group: C M C M
;
_chemical_formula_sum "Si O2"
_cell_formula_units_Z 72
_cell_length_a 22.814572
_cell_length_b 23.030898
_cell_length_c 9.049905
_cell_angle_alpha 90.000000
_cell_angle_beta 90.000000
_cell_angle_gamma 90.000000
_cell_volume 4755.182813
_symmetry_space_group_name_H-M "C M C M"
_symmetry_group_IT_number 63
_symmetry_cell_setting 'orthorhombic'
loop_
_space_group_symop_operation_xyz
x,y,z
-x,-y,1/2+z
x,-y,-z
-x,y,1/2-z
-x,-y,-z
x,y,1/2-z
-x,y,z
x,-y,1/2+z
1/2+x,1/2+y,z
1/2-x,1/2-y,1/2+z
1/2+x,1/2-y,-z
1/2-x,1/2+y,1/2-z
1/2-x,1/2-y,-z
1/2+x,1/2+y,1/2-z
1/2-x,1/2+y,z
1/2+x,1/2-y,1/2+z
loop_
_atom_site_type_symbol
_atom_site_label
_atom_site_fract_x
_atom_site_fract_y
_atom_site_fract_z
Si Si1 0.336571 0.271877 0.414234
Si Si2 0.209161 0.327639 0.413071
Si Si3 0.271862 0.559656 0.574109
Si Si4 0.620647 0.379317 0.924261
Si Si5 0.000000 0.938943 0.578792
O O1 0.363912 0.269819 0.250000
O O2 0.271274 0.295898 0.407815
O O3 0.335146 0.206227 0.478595
O O4 0.375442 0.313211 0.518150
O O5 0.180925 0.327270 0.250000
O O6 0.221076 0.393645 0.465749
O O7 0.251460 0.500000 0.500000
O O8 0.279609 0.553439 0.750000
O O9 0.333747 0.578918 0.506439
O O10 0.633512 0.380536 0.750000
O O11 0.556510 0.401769 0.966019
O O12 0.000000 0.953227 0.750000
O O13 0.000000 0.000000 0.500000
#
# Coordination Sequence:
#
# PCOD8256625 Si02
#       5
#    16  16  16  16   8
#     4   9  16  26  41  60  77  96 127 163 200 239
#     4   8  15  26  39  56  78 102 127 157 193 236
#     4  10  19  29  41  59  81 106 136 165 198 238
#     4  10  19  31  44  57  76 103 136 172 208 241
#     4  10  22  34  44  58  76 104 139 174 209 242
#
# _framework density 15.141375
#
# number of rings (size 3 to 8) (size 9 to 14) (size 15 to 20)
#    0.000    2.667    0.000    4.000    0.000    9.778 
#    0.000    0.000    0.000    0.000    0.000    0.000 
#    0.000    0.000    0.000    1.000    0.000   11.778 
#
# Total GULP energy -446269.161712 kJ/mol
# GULP energy per Si atom -12396.365603 kJ/mol
# Density = 1.510691 g / cm^3
# Si number density = 15.141375 Si / 1000 Ang^3
#
#
#
# Elastic Constant Matrix: (Units=GPa)
#
#
# Indices 1 2 3 4 5 6 
#
# 1 35.0560 42.4942 28.4764 0.0000 0.0000 0.0000
# 2 42.4942 138.1657 64.8379 0.0000 0.0000 0.0000
# 3 28.4764 64.8379 93.4145 0.0000 0.0000 0.0000
# 4 0.0000 0.0000 0.0000 30.7600 0.0000 0.0000
# 5 0.0000 0.0000 0.0000 0.0000 15.1998 0.0000
# 6 0.0000 0.0000 0.0000 0.0000 0.0000 16.2987
#
#
#
# Elastic Compliance Matrix: (Units=1/GPa)
#
#
# Indices 1 2 3 4 5 6 
#
# 1 0.048008 -0.011713 -0.006505 0.000000 0.000000 0.000000
# 2 -0.011713 0.013591 -0.005863 0.000000 0.000000 0.000000
# 3 -0.006505 -0.005863 0.016758 0.000000 0.000000 0.000000
# 4 0.000000 0.000000 0.000000 0.032510 0.000000 0.000000
# 5 0.000000 0.000000 0.000000 0.000000 0.065790 0.000000
# 6 0.000000 0.000000 0.000000 0.000000 0.000000 0.061355
#
#
# Mechanical properties :
#
#
# Convention : Reuss Voigt Hill
#
# Bulk Modulus (GPa) = 33.11809 59.80593 46.46201
# Shear Modulus (GPa) = 16.87832 21.17355 19.02593
#
# Velocity S-wave (km/s) = 3.34236 3.74356 3.54863
# Velocity P-wave (km/s) = 6.06755 7.63346 6.89511
#
# Compressibility (1/GPa) = 0.03019497
#
# Stress axis : x y z
#
# Youngs Moduli (GPa) = 20.83004 73.57562 59.67446
#
# Poissons Ratio (x) = 0.86175 0.38819
# Poissons Ratio (y) = 0.24397 0.34989
# Poissons Ratio (z) = 0.13550 0.43139
#
# Static dielectric constant tensor:
#      x y z
#    x 2.530050 0.000000 0.000000 
#    y 0.000000 3.453110 0.000000 
#    z 0.000000 0.000000 3.151040 
# 
# 
# High freq. dielectric constant tensor:
#      x y z
#    x 1.516000 0.000000 0.000000 
#    y 0.000000 1.583720 0.000000 
#    z 0.000000 0.000000 1.597920 
# 
# From -- ./inp_files/6124.got.cif
#   From: 2010.03.12/outbox.cif.g09.slc.cpg/sg63_4_cif.got.tgz:6124.got - 2010.04.10 19:34:48.
