data_PCOD8256815
_publ_section_title
;
Structure prediction by ZEFSAII (Michael W. Deem and Ramdas Pophale) SiO2 
 PCOD8256815
Probable space group: C M C M
;
_chemical_formula_sum "Si O2"
_cell_formula_units_Z 80
_cell_length_a 9.056781
_cell_length_b 19.500992
_cell_length_c 25.675084
_cell_angle_alpha 90.000000
_cell_angle_beta 90.000000
_cell_angle_gamma 90.000000
_cell_volume 4534.636126
_symmetry_space_group_name_H-M "C M C M"
_symmetry_group_IT_number 63
_symmetry_cell_setting 'orthorhombic'
loop_
_space_group_symop_operation_xyz
x,y,z
-x,-y,1/2+z
x,-y,-z
-x,y,1/2-z
-x,-y,-z
x,y,1/2-z
-x,y,z
x,-y,1/2+z
1/2+x,1/2+y,z
1/2-x,1/2-y,1/2+z
1/2+x,1/2-y,-z
1/2-x,1/2+y,1/2-z
1/2-x,1/2-y,-z
1/2+x,1/2+y,1/2-z
1/2-x,1/2+y,z
1/2+x,1/2-y,1/2+z
loop_
_atom_site_type_symbol
_atom_site_label
_atom_site_fract_x
_atom_site_fract_y
_atom_site_fract_z
Si Si1 0.674293 0.576384 0.556871
Si Si2 0.833795 0.671302 0.750000
Si Si3 0.333046 0.665682 0.250000
Si Si4 0.173319 0.826621 0.352841
Si Si5 0.325234 0.421451 0.560021
Si Si6 0.826735 0.332359 0.853610
O O1 0.500000 0.580456 0.555901
O O2 0.738170 0.630766 0.598283
O O3 0.728535 0.595098 0.498796
O O4 0.720506 0.499576 0.573158
O O5 0.829694 0.752866 0.750000
O O6 0.751290 0.643983 0.698756
O O7 0.000000 0.642954 0.750000
O O8 0.500000 0.637268 0.250000
O O9 0.249997 0.638578 0.301398
O O10 0.211335 0.747333 0.362179
O O11 0.000000 0.838205 0.345543
O O12 0.500000 0.409730 0.567181
O O13 0.235486 0.371631 0.596996
O O14 0.000000 0.344692 0.848120
#
# Coordination Sequence:
#
# PCOD8256815 Si02
#       6
#    16   8   8  16  16  16
#     4   8  16  32  52  70  90 124 167 201 228 269
#     4   9  17  29  46  71  98 121 151 193 238 279
#     4   9  17  31  50  69  92 125 161 193 228 275
#     4   9  17  31  50  70  94 125 158 191 232 282
#     4   9  17  32  52  70  92 125 164 200 231 271
#     4  10  19  30  47  73 101 124 150 191 241 287
#
# _framework density 17.641988999999999
#
# number of rings (size 3 to 8) (size 9 to 14) (size 15 to 20)
#    0.000    3.000    0.000    2.400    0.000    4.000 
#    0.000    5.000    0.000    2.400    0.000    0.000 
#    0.000    0.000    0.000    0.000    0.000    0.000 
#
# Total GULP energy -495906.028238 kJ/mol
# GULP energy per Si atom -12397.650706 kJ/mol
# Density = 1.760184 g / cm^3
# Si number density = 17.641989 Si / 1000 Ang^3
#
#
#
# Elastic Constant Matrix: (Units=GPa)
#
#
# Indices 1 2 3 4 5 6 
#
# 1 72.1127 39.8626 62.0671 0.0000 0.0000 0.0000
# 2 39.8626 69.9292 76.9366 0.0000 0.0000 0.0000
# 3 62.0671 76.9366 170.5758 0.0000 0.0000 0.0000
# 4 0.0000 0.0000 0.0000 6.1451 0.0000 0.0000
# 5 0.0000 0.0000 0.0000 0.0000 30.4141 0.0000
# 6 0.0000 0.0000 0.0000 0.0000 0.0000 17.7654
#
#
#
# Elastic Compliance Matrix: (Units=1/GPa)
#
#
# Indices 1 2 3 4 5 6 
#
# 1 0.021963 -0.007399 -0.004654 0.000000 0.000000 0.000000
# 2 -0.007399 0.030879 -0.011236 0.000000 0.000000 0.000000
# 3 -0.004654 -0.011236 0.012624 0.000000 0.000000 0.000000
# 4 0.000000 0.000000 0.000000 0.162731 0.000000 0.000000
# 5 0.000000 0.000000 0.000000 0.000000 0.032879 0.000000
# 6 0.000000 0.000000 0.000000 0.000000 0.000000 0.056289
#
#
# Mechanical properties :
#
#
# Convention : Reuss Voigt Hill
#
# Bulk Modulus (GPa) = 52.94300 74.48335 63.71318
# Shear Modulus (GPa) = 13.50472 19.78168 16.64320
#
# Velocity S-wave (km/s) = 2.76975 3.35219 3.07479
# Velocity P-wave (km/s) = 6.34850 7.56928 6.98561
#
# Compressibility (1/GPa) = 0.01888824
#
# Stress axis : x y z
#
# Youngs Moduli (GPa) = 45.53032 32.38395 79.21557
#
# Poissons Ratio (x) = 0.23962 0.36870
# Poissons Ratio (y) = 0.33689 0.89003
# Poissons Ratio (z) = 0.21192 0.36385
#
# Static dielectric constant tensor:
#      x y z
#    x 3.115020 0.000000 0.000000 
#    y 0.000000 3.198000 0.000000 
#    z 0.000000 0.000000 3.715040 
# 
# 
# High freq. dielectric constant tensor:
#      x y z
#    x 1.666050 0.000000 0.000000 
#    y 0.000000 1.656620 0.000000 
#    z 0.000000 0.000000 1.696500 
# 
# From -- ./inp_files/59475.got.cif
#   From: 2010.03.12/outbox.cif.g09.slc.cpg/sg63_30_cif.got.tgz:59475.got - 2010.04.10 19:34:48.
