data_PCOD8256814
_publ_section_title
;
Structure prediction by ZEFSAII (Michael W. Deem and Ramdas Pophale) SiO2 
 PCOD8256814
Probable space group: C M C M
;
_chemical_formula_sum "Si O2"
_cell_formula_units_Z 96
_cell_length_a 9.182400
_cell_length_b 28.174174
_cell_length_c 20.724782
_cell_angle_alpha 90.000000
_cell_angle_beta 90.000000
_cell_angle_gamma 90.000000
_cell_volume 5361.636547
_symmetry_space_group_name_H-M "C M C M"
_symmetry_group_IT_number 63
_symmetry_cell_setting 'orthorhombic'
loop_
_space_group_symop_operation_xyz
x,y,z
-x,-y,1/2+z
x,-y,-z
-x,y,1/2-z
-x,-y,-z
x,y,1/2-z
-x,y,z
x,-y,1/2+z
1/2+x,1/2+y,z
1/2-x,1/2-y,1/2+z
1/2+x,1/2-y,-z
1/2-x,1/2+y,1/2-z
1/2-x,1/2-y,-z
1/2+x,1/2+y,1/2-z
1/2-x,1/2+y,z
1/2+x,1/2-y,1/2+z
loop_
_atom_site_type_symbol
_atom_site_label
_atom_site_fract_x
_atom_site_fract_y
_atom_site_fract_z
Si Si1 0.828384 0.783168 0.947003
Si Si2 0.329779 0.927580 0.394564
Si Si3 0.662250 0.973974 0.931124
Si Si4 0.828763 0.752574 0.175211
Si Si5 0.343150 0.357628 0.324213
Si Si6 0.668859 0.391785 0.519493
O O1 0.764494 0.778616 0.874618
O O2 0.798252 0.837804 0.963579
O O3 0.000000 0.771371 0.947290
O O4 0.750000 0.750000 0.000000
O O5 0.500000 0.922220 0.408232
O O6 0.279716 0.897704 0.332765
O O7 0.244601 0.902674 0.452272
O O8 0.290162 0.983256 0.382790
O O9 0.500000 0.955756 0.915410
O O10 0.767046 0.928413 0.926811
O O11 0.666682 0.000000 0.000000
O O12 0.779512 0.743688 0.250000
O O13 0.795063 0.806053 0.150163
O O14 0.000000 0.741165 0.168277
O O15 0.370183 0.349679 0.250000
O O16 0.500000 0.372315 0.355836
O O17 0.500000 0.402760 0.514274
#
# Coordination Sequence:
#
# PCOD8256814 Si02
#       6
#    16  16  16  16  16  16
#     4  11  23  35  50  76 106 134 168 211 254 296
#     4  10  19  30  47  72  99 125 156 195 239 288
#     4   8  16  30  46  67  94 122 153 190 234 285
#     4   9  19  36  55  74  99 133 171 208 249 301
#     4   9  18  32  49  70  96 125 158 196 238 287
#     4  10  20  32  47  70  98 127 161 199 240 287
#
# _framework density 17.904979999999998
#
# number of rings (size 3 to 8) (size 9 to 14) (size 15 to 20)
#    0.000    2.500    0.000    4.500    0.000   11.667 
#    0.000    1.667    0.000    1.000    0.000    0.000 
#    0.000    0.000    0.000    0.000    0.000    0.000 
#
# Total GULP energy -594730.611252 kJ/mol
# GULP energy per Si atom -12390.221068 kJ/mol
# Density = 1.786423 g / cm^3
# Si number density = 17.904980 Si / 1000 Ang^3
#
#
#
# Elastic Constant Matrix: (Units=GPa)
#
#
# Indices 1 2 3 4 5 6 
#
# 1 104.6552 73.8463 35.7858 0.0000 0.0000 0.0000
# 2 73.8463 116.2659 31.0496 0.0000 0.0000 0.0000
# 3 35.7858 31.0496 51.7536 0.0000 0.0000 0.0000
# 4 0.0000 0.0000 0.0000 23.6933 0.0000 0.0000
# 5 0.0000 0.0000 0.0000 0.0000 26.9173 0.0000
# 6 0.0000 0.0000 0.0000 0.0000 0.0000 33.7573
#
#
#
# Elastic Compliance Matrix: (Units=1/GPa)
#
#
# Indices 1 2 3 4 5 6 
#
# 1 0.019300 -0.010353 -0.007134 0.000000 0.000000 0.000000
# 2 -0.010353 0.015796 -0.002318 0.000000 0.000000 0.000000
# 3 -0.007134 -0.002318 0.025646 0.000000 0.000000 0.000000
# 4 0.000000 0.000000 0.000000 0.042206 0.000000 0.000000
# 5 0.000000 0.000000 0.000000 0.000000 0.037151 0.000000
# 6 0.000000 0.000000 0.000000 0.000000 0.000000 0.029623
#
#
# Mechanical properties :
#
#
# Convention : Reuss Voigt Hill
#
# Bulk Modulus (GPa) = 47.32216 61.55977 54.44096
# Shear Modulus (GPa) = 23.10803 25.67311 24.39057
#
# Velocity S-wave (km/s) = 3.59638 3.79073 3.69483
# Velocity P-wave (km/s) = 6.61304 7.32226 6.97667
#
# Compressibility (1/GPa) = 0.02113175
#
# Stress axis : x y z
#
# Youngs Moduli (GPa) = 51.81376 63.30792 38.99293
#
# Poissons Ratio (x) = 0.65544 0.27817
# Poissons Ratio (y) = 0.53644 0.09038
# Poissons Ratio (z) = 0.36963 0.14674
#
# Static dielectric constant tensor:
#      x y z
#    x 3.554950 0.000000 0.000000 
#    y 0.000000 3.873480 0.000000 
#    z 0.000000 0.000000 3.230240 
# 
# 
# High freq. dielectric constant tensor:
#      x y z
#    x 1.698920 0.000000 0.000000 
#    y 0.000000 1.696700 0.000000 
#    z 0.000000 0.000000 1.661930 
# 
# From -- ./inp_files/51350.got.cif
#   From: 2010.03.12/outbox.cif.g09.slc.cpg/sg63_26_cif.got.tgz:51350.got - 2010.04.10 19:34:48.
