data_PCOD8256919
_publ_section_title
;
Structure prediction by ZEFSAII (Michael W. Deem and Ramdas Pophale) SiO2 
 PCOD8256919
Probable space group: C M C M
;
_chemical_formula_sum "Si O2"
_cell_formula_units_Z 112
_cell_length_a 15.303467
_cell_length_b 24.866142
_cell_length_c 15.280860
_cell_angle_alpha 90.000000
_cell_angle_beta 90.000000
_cell_angle_gamma 90.000000
_cell_volume 5814.950707
_symmetry_space_group_name_H-M "C M C M"
_symmetry_group_IT_number 63
_symmetry_cell_setting 'orthorhombic'
loop_
_space_group_symop_operation_xyz
x,y,z
-x,-y,1/2+z
x,-y,-z
-x,y,1/2-z
-x,-y,-z
x,y,1/2-z
-x,y,z
x,-y,1/2+z
1/2+x,1/2+y,z
1/2-x,1/2-y,1/2+z
1/2+x,1/2-y,-z
1/2-x,1/2+y,1/2-z
1/2-x,1/2-y,-z
1/2+x,1/2+y,1/2-z
1/2-x,1/2+y,z
1/2+x,1/2-y,1/2+z
loop_
_atom_site_type_symbol
_atom_site_label
_atom_site_fract_x
_atom_site_fract_y
_atom_site_fract_z
Si Si1 0.319658 0.922690 0.345675
Si Si2 0.401487 0.670324 0.986678
Si Si3 0.098532 0.054868 0.050996
Si Si4 0.599051 0.741416 0.150376
Si Si5 0.405536 0.937244 0.983094
Si Si6 0.736426 0.313318 0.153238
Si Si7 0.734844 0.957045 0.651352
O O1 0.367337 0.923801 0.250000
O O2 0.386561 0.909001 0.423730
O O3 0.245405 0.877581 0.345122
O O4 0.273267 0.979322 0.364258
O O5 0.500000 0.684119 0.956824
O O6 0.337177 0.700369 0.918543
O O7 0.387444 0.605942 0.987205
O O8 0.383746 0.691992 0.084723
O O9 0.166000 0.059555 0.130874
O O10 0.000000 0.054923 0.089002
O O11 0.118519 0.000000 0.000000
O O12 0.611098 0.720414 0.250000
O O13 0.500000 0.764211 0.137798
O O14 0.669523 0.787752 0.128873
O O15 0.500000 0.916482 0.949172
O O16 0.331638 0.924076 0.911214
O O17 0.410111 0.000000 0.000000
O O18 0.706395 0.293275 0.250000
O O19 0.712290 0.940396 0.750000
#
# Coordination Sequence:
#
# PCOD8256919 Si02
#       7
#    16  16  16  16  16  16  16
#     4   9  18  31  48  71  99 130 163 205 257 303
#     4  10  20  34  53  75 102 136 169 206 253 302
#     4  10  20  34  52  73  99 133 173 215 256 299
#     4   9  19  35  53  75 102 130 165 210 253 293
#     4   9  17  29  45  65  92 126 162 201 246 300
#     4  10  19  32  52  76 102 131 163 202 249 303
#     4  10  19  31  47  68  98 132 167 209 251 298
#
# _framework density 19.260697
#
# number of rings (size 3 to 8) (size 9 to 14) (size 15 to 20)
#    0.000    2.429    0.000    3.429    0.000    2.286 
#    0.000    5.714    0.000    5.143    0.000    0.000 
#    0.000    6.857    0.000    0.143    0.000    0.286 
#
# Total GULP energy -694050.839717 kJ/mol
# GULP energy per Si atom -12393.764995 kJ/mol
# Density = 1.921686 g / cm^3
# Si number density = 19.260697 Si / 1000 Ang^3
#
#
#
# Elastic Constant Matrix: (Units=GPa)
#
#
# Indices 1 2 3 4 5 6 
#
# 1 142.4974 29.0642 89.2793 0.0000 0.0000 0.0000
# 2 29.0642 48.0156 33.2491 0.0000 0.0000 0.0000
# 3 89.2793 33.2491 136.9793 0.0000 0.0000 0.0000
# 4 0.0000 0.0000 0.0000 19.9765 0.0000 0.0000
# 5 0.0000 0.0000 0.0000 0.0000 26.1781 0.0000
# 6 0.0000 0.0000 0.0000 0.0000 0.0000 15.0197
#
#
#
# Elastic Compliance Matrix: (Units=1/GPa)
#
#
# Indices 1 2 3 4 5 6 
#
# 1 0.012057 -0.002232 -0.007317 0.000000 0.000000 0.000000
# 2 -0.002232 0.025447 -0.004722 0.000000 0.000000 0.000000
# 3 -0.007317 -0.004722 0.013215 0.000000 0.000000 0.000000
# 4 0.000000 0.000000 0.000000 0.050059 0.000000 0.000000
# 5 0.000000 0.000000 0.000000 0.000000 0.038200 0.000000
# 6 0.000000 0.000000 0.000000 0.000000 0.000000 0.066579
#
#
# Mechanical properties :
#
#
# Convention : Reuss Voigt Hill
#
# Bulk Modulus (GPa) = 45.08874 70.07528 57.58201
# Shear Modulus (GPa) = 20.70461 23.96151 22.33306
#
# Velocity S-wave (km/s) = 3.28223 3.53095 3.40886
# Velocity P-wave (km/s) = 6.15017 7.28595 6.74202
#
# Compressibility (1/GPa) = 0.02217848
#
# Stress axis : x y z
#
# Youngs Moduli (GPa) = 82.93924 39.29663 75.66874
#
# Poissons Ratio (x) = 0.08770 0.55365
# Poissons Ratio (y) = 0.18509 0.35734
# Poissons Ratio (z) = 0.60685 0.18557
#
# Static dielectric constant tensor:
#      x y z
#    x 3.624640 0.000000 0.000000 
#    y 0.000000 3.243690 0.000000 
#    z 0.000000 0.000000 3.634100 
# 
# 
# High freq. dielectric constant tensor:
#      x y z
#    x 1.747360 0.000000 0.000000 
#    y 0.000000 1.717780 0.000000 
#    z 0.000000 0.000000 1.747420 
# 
# From -- ./inp_files/32503.got.cif
#   From: 2010.03.12/outbox.cif.g09.slc.cpg/sg63_17_cif.got.tgz:32503.got - 2010.04.10 19:34:48.
