data_PCOD8256151
_publ_section_title
;
Structure prediction by ZEFSAII (Michael W. Deem and Ramdas Pophale) SiO2 
 PCOD8256151
Probable space group: C M C M
;
_chemical_formula_sum "Si O2"
_cell_formula_units_Z 96
_cell_length_a 11.939569
_cell_length_b 17.524512
_cell_length_c 27.800296
_cell_angle_alpha 90.000000
_cell_angle_beta 90.000000
_cell_angle_gamma 90.000000
_cell_volume 5816.798276
_symmetry_space_group_name_H-M "C M C M"
_symmetry_group_IT_number 63
_symmetry_cell_setting 'orthorhombic'
loop_
_space_group_symop_operation_xyz
x,y,z
-x,-y,1/2+z
x,-y,-z
-x,y,1/2-z
-x,-y,-z
x,y,1/2-z
-x,y,z
x,-y,1/2+z
1/2+x,1/2+y,z
1/2-x,1/2-y,1/2+z
1/2+x,1/2-y,-z
1/2-x,1/2+y,1/2-z
1/2-x,1/2-y,-z
1/2+x,1/2+y,1/2-z
1/2-x,1/2+y,z
1/2+x,1/2-y,1/2+z
loop_
_atom_site_type_symbol
_atom_site_label
_atom_site_fract_x
_atom_site_fract_y
_atom_site_fract_z
Si Si1 0.868825 0.032548 0.803009
Si Si2 0.197933 0.039839 0.953956
Si Si3 0.874416 0.846589 0.379628
Si Si4 0.269267 0.722554 0.423306
Si Si5 0.130041 0.077979 0.382281
Si Si6 0.369506 0.155040 0.509110
O O1 0.812015 0.034797 0.750000
O O2 0.822256 0.100511 0.837240
O O3 0.000000 0.046015 0.797840
O O4 0.846534 0.949705 0.827482
O O5 0.123782 0.107325 0.930519
O O6 0.316474 0.076725 0.970162
O O7 0.212569 0.972504 0.915401
O O8 0.138325 0.000000 0.000000
O O9 0.800993 0.771228 0.384916
O O10 0.000000 0.821376 0.367418
O O11 0.342270 0.666227 0.390123
O O12 0.353154 0.775664 0.453509
O O13 0.187646 0.676228 0.458595
O O14 0.000000 0.061446 0.395573
O O15 0.500000 0.141046 0.500481
#
# Coordination Sequence:
#
# PCOD8256151 Si02
#       6
#    16  16  16  16  16  16
#     4   8  15  30  51  71  88 111 146 189 236 276
#     4  10  18  31  43  67  89 120 161 190 217 268
#     4   9  18  30  47  67  92 121 150 187 227 269
#     4  10  19  32  43  67  94 122 162 188 218 277
#     4  10  19  31  48  69  93 120 152 197 234 263
#     4  10  20  32  44  60  94 134 159 187 224 262
#
# _framework density 16.503924999999999
#
# number of rings (size 3 to 8) (size 9 to 14) (size 15 to 20)
#    0.000    2.500    1.667    2.500    0.000    1.667 
#    0.000    0.833    0.000    0.000    0.000    0.000 
#    0.000   69.333    0.000    0.000    0.000    0.000 
#
# Total GULP energy -594805.697770 kJ/mol
# GULP energy per Si atom -12391.785370 kJ/mol
# Density = 1.646636 g / cm^3
# Si number density = 16.503925 Si / 1000 Ang^3
#
#
#
# Elastic Constant Matrix: (Units=GPa)
#
#
# Indices 1 2 3 4 5 6 
#
# 1 54.7279 29.7454 28.9171 0.0000 0.0000 0.0000
# 2 29.7454 97.9650 48.5394 0.0000 0.0000 0.0000
# 3 28.9171 48.5394 109.9624 0.0000 0.0000 0.0000
# 4 0.0000 0.0000 0.0000 18.6868 0.0000 0.0000
# 5 0.0000 0.0000 0.0000 0.0000 12.1149 0.0000
# 6 0.0000 0.0000 0.0000 0.0000 0.0000 23.5408
#
#
#
# Elastic Compliance Matrix: (Units=1/GPa)
#
#
# Indices 1 2 3 4 5 6 
#
# 1 0.023065 -0.005117 -0.003807 0.000000 0.000000 0.000000
# 2 -0.005117 0.014201 -0.004923 0.000000 0.000000 0.000000
# 3 -0.003807 -0.004923 0.012268 0.000000 0.000000 0.000000
# 4 0.000000 0.000000 0.000000 0.053514 0.000000 0.000000
# 5 0.000000 0.000000 0.000000 0.000000 0.082543 0.000000
# 6 0.000000 0.000000 0.000000 0.000000 0.000000 0.042479
#
#
# Mechanical properties :
#
#
# Convention : Reuss Voigt Hill
#
# Bulk Modulus (GPa) = 45.78661 53.00657 49.39659
# Shear Modulus (GPa) = 19.00834 21.23206 20.12020
#
# Velocity S-wave (km/s) = 3.39742 3.59065 3.49537
# Velocity P-wave (km/s) = 6.57214 7.02692 6.80333
#
# Compressibility (1/GPa) = 0.02184045
#
# Stress axis : x y z
#
# Youngs Moduli (GPa) = 43.35611 70.41982 81.51278
#
# Poissons Ratio (x) = 0.36035 0.31029
# Poissons Ratio (y) = 0.22186 0.40126
# Poissons Ratio (z) = 0.16504 0.34666
#
# Static dielectric constant tensor:
#      x y z
#    x 2.776190 0.000000 0.000000 
#    y 0.000000 3.212520 0.000000 
#    z 0.000000 0.000000 3.281600 
# 
# 
# High freq. dielectric constant tensor:
#      x y z
#    x 1.599080 0.000000 0.000000 
#    y 0.000000 1.641650 0.000000 
#    z 0.000000 0.000000 1.619390 
# 
# From -- ./inp_files/68322.got.cif
#   From: 2010.03.12/outbox.cif.g09.slc.cpg/sg63_35_cif.got.tgz:68322.got - 2010.04.10 19:34:48.
