data_PCOD8256054
_publ_section_title
;
Structure prediction by ZEFSAII (Michael W. Deem and Ramdas Pophale) SiO2 
 PCOD8256054
Probable space group: C M C M
;
_chemical_formula_sum "Si O2"
_cell_formula_units_Z 96
_cell_length_a 28.016978
_cell_length_b 19.297617
_cell_length_c 10.311812
_cell_angle_alpha 90.000000
_cell_angle_beta 90.000000
_cell_angle_gamma 90.000000
_cell_volume 5575.193669
_symmetry_space_group_name_H-M "C M C M"
_symmetry_group_IT_number 63
_symmetry_cell_setting 'orthorhombic'
loop_
_space_group_symop_operation_xyz
x,y,z
-x,-y,1/2+z
x,-y,-z
-x,y,1/2-z
-x,-y,-z
x,y,1/2-z
-x,y,z
x,-y,1/2+z
1/2+x,1/2+y,z
1/2-x,1/2-y,1/2+z
1/2+x,1/2-y,-z
1/2-x,1/2+y,1/2-z
1/2-x,1/2-y,-z
1/2+x,1/2+y,1/2-z
1/2-x,1/2+y,z
1/2+x,1/2-y,1/2+z
loop_
_atom_site_type_symbol
_atom_site_label
_atom_site_fract_x
_atom_site_fract_y
_atom_site_fract_z
Si Si1 0.943296 0.582900 0.750000
Si Si2 0.443287 0.072888 0.250000
Si Si3 0.719725 0.292539 0.398294
Si Si4 0.443362 0.160775 0.005641
Si Si5 0.104365 0.053609 0.604978
Si Si6 0.782165 0.050293 0.608350
Si Si7 0.108667 0.790400 0.400227
O O1 0.922117 0.504977 0.750000
O O2 0.924991 0.623854 0.624386
O O3 0.000000 0.578568 0.750000
O O4 0.500000 0.069293 0.250000
O O5 0.424904 0.113356 0.123689
O O6 0.730270 0.269233 0.250000
O O7 0.750000 0.250000 0.500000
O O8 0.735067 0.371999 0.418064
O O9 0.664344 0.282053 0.431051
O O10 0.500000 0.169360 0.008037
O O11 0.420539 0.236863 0.012012
O O12 0.084800 0.036580 0.750000
O O13 0.161008 0.047464 0.606351
O O14 0.090653 0.132091 0.565063
O O15 0.082205 0.000000 0.500000
O O16 0.764100 0.025578 0.750000
O O17 0.759725 0.000000 0.500000
O O18 0.098155 0.775030 0.250000
#
# Coordination Sequence:
#
# PCOD8256054 Si02
#       7
#     8   8  16  16  16  16  16
#     4   9  18  30  44  70 102 125 155 207 247 266
#     4   9  16  28  50  72  90 123 169 201 229 284
#     4   9  18  32  48  69  94 122 155 195 236 278
#     4  10  18  30  49  73  99 127 159 196 242 289
#     4   8  14  26  43  64  90 116 148 189 227 267
#     4   8  14  25  43  65  87 111 143 187 231 266
#     4   9  17  31  49  70  97 126 156 194 237 281
#
# _framework density 17.219131999999998
#
# number of rings (size 3 to 8) (size 9 to 14) (size 15 to 20)
#    0.000    3.167    0.833    2.500    0.000    2.667 
#    3.000    1.667    0.000    2.500    0.000    0.000 
#    0.000    0.000    0.000    0.000    0.000    0.000 
#
# Total GULP energy -594977.693644 kJ/mol
# GULP energy per Si atom -12395.368618 kJ/mol
# Density = 1.717994 g / cm^3
# Si number density = 17.219132 Si / 1000 Ang^3
#
#
#
# Elastic Constant Matrix: (Units=GPa)
#
#
# Indices 1 2 3 4 5 6 
#
# 1 20.9077 27.4454 26.0979 0.0000 0.0000 0.0000
# 2 27.4454 145.8788 97.1586 0.0000 0.0000 0.0000
# 3 26.0979 97.1586 148.6320 0.0000 0.0000 0.0000
# 4 0.0000 0.0000 0.0000 37.0566 0.0000 0.0000
# 5 0.0000 0.0000 0.0000 0.0000 15.1567 0.0000
# 6 0.0000 0.0000 0.0000 0.0000 0.0000 24.0108
#
#
#
# Elastic Compliance Matrix: (Units=1/GPa)
#
#
# Indices 1 2 3 4 5 6 
#
# 1 0.066597 -0.008397 -0.006204 0.000000 0.000000 0.000000
# 2 -0.008397 0.013199 -0.007154 0.000000 0.000000 0.000000
# 3 -0.006204 -0.007154 0.012494 0.000000 0.000000 0.000000
# 4 0.000000 0.000000 0.000000 0.026986 0.000000 0.000000
# 5 0.000000 0.000000 0.000000 0.000000 0.065978 0.000000
# 6 0.000000 0.000000 0.000000 0.000000 0.000000 0.041648
#
#
# Mechanical properties :
#
#
# Convention : Reuss Voigt Hill
#
# Bulk Modulus (GPa) = 20.50053 68.53580 44.51816
# Shear Modulus (GPa) = 17.44153 26.22592 21.83373
#
# Velocity S-wave (km/s) = 3.18609 3.90689 3.56475
# Velocity P-wave (km/s) = 5.04642 7.76146 6.54624
#
# Compressibility (1/GPa) = 0.04877923
#
# Stress axis : x y z
#
# Youngs Moduli (GPa) = 15.01572 75.76064 80.03943
#
# Poissons Ratio (x) = 0.63617 0.49660
# Poissons Ratio (y) = 0.12609 0.57259
# Poissons Ratio (z) = 0.09317 0.54198
#
# Static dielectric constant tensor:
#      x y z
#    x 2.647330 0.000000 0.000000 
#    y 0.000000 3.383920 0.000000 
#    z 0.000000 0.000000 3.499620 
# 
# 
# High freq. dielectric constant tensor:
#      x y z
#    x 1.604770 0.000000 0.000000 
#    y 0.000000 1.674120 0.000000 
#    z 0.000000 0.000000 1.669950 
# 
# From -- ./inp_files/25891.got.cif
#   From: 2010.03.12/outbox.cif.g09.slc.cpg/sg63_13_cif.got.tgz:25891.got - 2010.04.10 19:34:48.
