data_PCOD8256650
_publ_section_title
;
Structure prediction by ZEFSAII (Michael W. Deem and Ramdas Pophale) SiO2 
 PCOD8256650
Probable space group: C M C M
;
_chemical_formula_sum "Si O2"
_cell_formula_units_Z 80
_cell_length_a 18.378135
_cell_length_b 24.314362
_cell_length_c 9.362006
_cell_angle_alpha 90.000000
_cell_angle_beta 90.000000
_cell_angle_gamma 90.000000
_cell_volume 4183.436978
_symmetry_space_group_name_H-M "C M C M"
_symmetry_group_IT_number 63
_symmetry_cell_setting 'orthorhombic'
loop_
_space_group_symop_operation_xyz
x,y,z
-x,-y,1/2+z
x,-y,-z
-x,y,1/2-z
-x,-y,-z
x,y,1/2-z
-x,y,z
x,-y,1/2+z
1/2+x,1/2+y,z
1/2-x,1/2-y,1/2+z
1/2+x,1/2-y,-z
1/2-x,1/2+y,1/2-z
1/2-x,1/2-y,-z
1/2+x,1/2+y,1/2-z
1/2-x,1/2+y,z
1/2+x,1/2-y,1/2+z
loop_
_atom_site_type_symbol
_atom_site_label
_atom_site_fract_x
_atom_site_fract_y
_atom_site_fract_z
Si Si1 0.861434 0.729966 0.584511
Si Si2 0.417777 0.944514 0.915789
Si Si3 0.000000 0.137082 0.590246
Si Si4 0.705235 0.859345 0.915871
Si Si5 0.500000 0.768083 0.911879
Si Si6 0.635761 0.641050 0.410799
O O1 0.870225 0.714428 0.750000
O O2 0.795930 0.695549 0.513576
O O3 0.931112 0.708999 0.495994
O O4 0.850465 0.794448 0.563539
O O5 0.406929 0.957789 0.750000
O O6 0.500000 0.922509 0.945814
O O7 0.357911 0.900571 0.967127
O O8 0.402613 0.000000 0.000000
O O9 0.000000 0.202442 0.587955
O O10 0.926510 0.115979 0.512832
O O11 0.000000 0.113238 0.750000
O O12 0.695949 0.842251 0.750000
O O13 0.785372 0.886963 0.938564
O O14 0.500000 0.791402 0.750000
O O15 0.608247 0.630730 0.250000
#
# Coordination Sequence:
#
# PCOD8256650 Si02
#       6
#    16  16   8  16   8  16
#     4  10  19  29  43  67  98 131 166 207 245 283
#     4   9  19  36  55  74  97 127 165 208 253 299
#     4   9  17  29  47  67  90 125 166 201 238 282
#     4  10  20  32  49  72  97 130 167 201 247 303
#     4   9  17  29  43  59  86 127 168 203 237 284
#     4   9  18  32  47  67  99 135 168 202 241 291
#
# _framework density 19.123031999999998
#
# number of rings (size 3 to 8) (size 9 to 14) (size 15 to 20)
#    0.000    2.600    0.000    1.800    1.400    4.800 
#    0.000    0.000    0.000    0.000    0.000    0.700 
#    0.000    0.000    0.000    0.000    0.000    0.000 
#
# Total GULP energy -495849.231702 kJ/mol
# GULP energy per Si atom -12396.230793 kJ/mol
# Density = 1.907951 g / cm^3
# Si number density = 19.123032 Si / 1000 Ang^3
#
#
#
# Elastic Constant Matrix: (Units=GPa)
#
#
# Indices 1 2 3 4 5 6 
#
# 1 137.0146 25.3180 57.6345 0.0000 0.0000 0.0000
# 2 25.3180 27.2626 17.8922 0.0000 0.0000 0.0000
# 3 57.6345 17.8922 97.4457 0.0000 0.0000 0.0000
# 4 0.0000 0.0000 0.0000 18.4273 0.0000 0.0000
# 5 0.0000 0.0000 0.0000 0.0000 29.8124 0.0000
# 6 0.0000 0.0000 0.0000 0.0000 0.0000 18.9942
#
#
#
# Elastic Compliance Matrix: (Units=1/GPa)
#
#
# Indices 1 2 3 4 5 6 
#
# 1 0.010653 -0.006547 -0.005099 0.000000 0.000000 0.000000
# 2 -0.006547 0.045729 -0.004524 0.000000 0.000000 0.000000
# 3 -0.005099 -0.004524 0.014108 0.000000 0.000000 0.000000
# 4 0.000000 0.000000 0.000000 0.054267 0.000000 0.000000
# 5 0.000000 0.000000 0.000000 0.000000 0.033543 0.000000
# 6 0.000000 0.000000 0.000000 0.000000 0.000000 0.052648
#
#
# Mechanical properties :
#
#
# Convention : Reuss Voigt Hill
#
# Bulk Modulus (GPa) = 26.21149 51.49023 38.85086
# Shear Modulus (GPa) = 19.53081 24.17198 21.85139
#
# Velocity S-wave (km/s) = 3.19928 3.55917 3.38401
# Velocity P-wave (km/s) = 5.23295 6.62378 5.96901
#
# Compressibility (1/GPa) = 0.03815121
#
# Stress axis : x y z
#
# Youngs Moduli (GPa) = 93.87057 21.86775 70.87955
#
# Poissons Ratio (x) = 0.14317 0.36139
# Poissons Ratio (y) = 0.61456 0.32068
# Poissons Ratio (z) = 0.47861 0.09894
#
# Static dielectric constant tensor:
#      x y z
#    x 3.797070 0.000000 0.000000 
#    y 0.000000 2.910720 0.000000 
#    z 0.000000 0.000000 3.554800 
# 
# 
# High freq. dielectric constant tensor:
#      x y z
#    x 1.761130 0.000000 0.000000 
#    y 0.000000 1.679580 0.000000 
#    z 0.000000 0.000000 1.746020 
# 
# From -- ./inp_files/8457.got.cif
#   From: 2010.03.12/outbox.cif.g09.slc.cpg/sg63_5_cif.got.tgz:8457.got - 2010.04.10 19:34:48.
