data_PCOD8256245
_publ_section_title
;
Structure prediction by ZEFSAII (Michael W. Deem and Ramdas Pophale) SiO2 
 PCOD8256245
Probable space group: C M C M
;
_chemical_formula_sum "Si O2"
_cell_formula_units_Z 64
_cell_length_a 22.112231
_cell_length_b 9.160362
_cell_length_c 14.238630
_cell_angle_alpha 90.000000
_cell_angle_beta 90.000000
_cell_angle_gamma 90.000000
_cell_volume 2884.120516
_symmetry_space_group_name_H-M "C M C M"
_symmetry_group_IT_number 63
_symmetry_cell_setting 'orthorhombic'
loop_
_space_group_symop_operation_xyz
x,y,z
-x,-y,1/2+z
x,-y,-z
-x,y,1/2-z
-x,-y,-z
x,y,1/2-z
-x,y,z
x,-y,1/2+z
1/2+x,1/2+y,z
1/2-x,1/2-y,1/2+z
1/2+x,1/2-y,-z
1/2-x,1/2+y,1/2-z
1/2-x,1/2-y,-z
1/2+x,1/2+y,1/2-z
1/2-x,1/2+y,z
1/2+x,1/2-y,1/2+z
loop_
_atom_site_type_symbol
_atom_site_label
_atom_site_fract_x
_atom_site_fract_y
_atom_site_fract_z
Si Si1 0.401175 0.439637 0.145784
Si Si2 0.171489 0.343603 0.355049
Si Si3 0.776366 0.041000 0.105971
Si Si4 0.432273 0.272486 0.967212
O O1 0.429467 0.413143 0.250000
O O2 0.329373 0.458649 0.162083
O O3 0.427978 0.585179 0.098486
O O4 0.416997 0.306066 0.076290
O O5 0.145712 0.324508 0.250000
O O6 0.209609 0.493022 0.361513
O O7 0.115197 0.346730 0.427340
O O8 0.218573 0.214517 0.380028
O O9 0.788907 0.000000 0.000000
O O10 0.500000 0.208510 0.961135
#
# Coordination Sequence:
#
# PCOD8256245 Si02
#       4
#    16  16  16  16
#     4  10  18  31  52  80 112 145 183 238 296 341
#     4  11  22  37  58  88 117 152 192 236 288 347
#     4  11  20  36  58  84 119 149 185 237 294 344
#     4  10  20  33  51  79 112 150 192 236 283 336
#
# _framework density 22.190474999999999
#
# number of rings (size 3 to 8) (size 9 to 14) (size 15 to 20)
#    0.000    1.500    5.000    6.750    0.000    3.500 
#    0.000    0.000    0.000    0.750    0.000    0.000 
#    0.000    0.000    0.000    0.000    0.000    0.000 
#
# Total GULP energy -396691.733698 kJ/mol
# GULP energy per Si atom -12396.616678 kJ/mol
# Density = 2.213997 g / cm^3
# Si number density = 22.190475 Si / 1000 Ang^3
#
#
#
# Elastic Constant Matrix: (Units=GPa)
#
#
# Indices 1 2 3 4 5 6 
#
# 1 144.7197 23.1786 17.5718 0.0000 0.0000 0.0000
# 2 23.1786 20.3064 3.5160 0.0000 0.0000 0.0000
# 3 17.5718 3.5160 168.7309 0.0000 0.0000 0.0000
# 4 0.0000 0.0000 0.0000 -1.5520 0.0000 0.0000
# 5 0.0000 0.0000 0.0000 0.0000 7.2741 0.0000
# 6 0.0000 0.0000 0.0000 0.0000 0.0000 14.3971
#
#
#
# Elastic Compliance Matrix: (Units=1/GPa)
#
#
# Indices 1 2 3 4 5 6 
#
# 1 0.008535 -0.009623 -0.000688 0.000000 0.000000 0.000000
# 2 -0.009623 0.060273 -0.000254 0.000000 0.000000 0.000000
# 3 -0.000688 -0.000254 0.006004 0.000000 0.000000 0.000000
# 4 0.000000 0.000000 0.000000 -0.644336 0.000000 0.000000
# 5 0.000000 0.000000 0.000000 0.000000 0.137473 0.000000
# 6 0.000000 0.000000 0.000000 0.000000 0.000000 0.069459
#
#
# Mechanical properties :
#
#
# Convention : Reuss Voigt Hill
#
# Bulk Modulus (GPa) = 18.62831 46.92109 32.77470
# Shear Modulus (GPa) = -15.45265 23.32322 3.93529
#
# Velocity S-wave (km/s) = -2.64173 3.24550 1.33314
# Velocity P-wave (km/s) = 0.94448 5.93591 4.14385
#
# Compressibility (1/GPa) = 0.05368173
#
# Stress axis : x y z
#
# Youngs Moduli (GPa) = 117.16919 16.59115 166.56764
#
# Poissons Ratio (x) = 0.15965 0.11465
# Poissons Ratio (y) = 1.12748 0.04229
# Poissons Ratio (z) = 0.08065 0.00421
#
# Static dielectric constant tensor:
#      x y z
#    x 4.046950 0.000000 0.000000 
#    y 0.000000 3.498230 0.000000 
#    z 0.000000 0.000000 4.198740 
# 
# 
# High freq. dielectric constant tensor:
#      x y z
#    x 1.865230 0.000000 0.000000 
#    y 0.000000 1.814090 0.000000 
#    z 0.000000 0.000000 1.893160 
# 
# From -- ./inp_files/34907.got.cif
#   From: 2010.03.12/outbox.cif.g09.slc.cpg/sg63_18_cif.got.tgz:34907.got - 2010.04.10 19:34:48.
