data_PCOD8256677
_publ_section_title
;
Structure prediction by ZEFSAII (Michael W. Deem and Ramdas Pophale) SiO2 
 PCOD8256677
Probable space group: C M C M
;
_chemical_formula_sum "Si O2"
_cell_formula_units_Z 80
_cell_length_a 9.171386
_cell_length_b 19.303776
_cell_length_c 25.776978
_cell_angle_alpha 90.000000
_cell_angle_beta 90.000000
_cell_angle_gamma 90.000000
_cell_volume 4563.617559
_symmetry_space_group_name_H-M "C M C M"
_symmetry_group_IT_number 63
_symmetry_cell_setting 'orthorhombic'
loop_
_space_group_symop_operation_xyz
x,y,z
-x,-y,1/2+z
x,-y,-z
-x,y,1/2-z
-x,-y,-z
x,y,1/2-z
-x,y,z
x,-y,1/2+z
1/2+x,1/2+y,z
1/2-x,1/2-y,1/2+z
1/2+x,1/2-y,-z
1/2-x,1/2+y,1/2-z
1/2-x,1/2-y,-z
1/2+x,1/2+y,1/2-z
1/2-x,1/2+y,z
1/2+x,1/2-y,1/2+z
loop_
_atom_site_type_symbol
_atom_site_label
_atom_site_fract_x
_atom_site_fract_y
_atom_site_fract_z
Si Si1 0.173555 0.549247 0.341064
Si Si2 0.173841 0.450156 0.250000
Si Si3 0.670758 0.794477 0.957418
Si Si4 0.172249 0.451950 0.544363
Si Si5 0.673956 0.302526 0.250000
Si Si6 0.172933 0.703956 0.341389
O O1 0.229738 0.492979 0.299970
O O2 0.230599 0.527371 0.398340
O O3 0.231990 0.626721 0.327524
O O4 0.000000 0.551687 0.340258
O O5 0.250303 0.376435 0.250000
O O6 0.000000 0.440396 0.250000
O O7 0.500000 0.782268 0.963211
O O8 0.714083 0.873490 0.968398
O O9 0.723130 0.773954 0.899293
O O10 0.750000 0.750000 0.000000
O O11 0.244798 0.500000 0.500000
O O12 0.000000 0.461689 0.544301
O O13 0.500000 0.311771 0.250000
O O14 0.730164 0.260215 0.300303
O O15 0.000000 0.700710 0.339372
#
# Coordination Sequence:
#
# PCOD8256677 Si02
#       6
#    16   8  16  16   8  16
#     4   8  14  26  44  63  83 111 148 183 210 247
#     4  10  19  29  45  71  95 110 136 186 236 266
#     4   9  17  29  46  68  92 117 148 185 222 264
#     4   8  14  25  42  64  87 112 144 179 214 253
#     4  10  19  31  47  65  89 120 150 182 220 262
#     4   8  15  29  48  66  84 117 162 189 205 252
#
# _framework density 17.529952999999999
#
# number of rings (size 3 to 8) (size 9 to 14) (size 15 to 20)
#    0.000    3.400    0.000    3.000    0.000    4.000 
#    0.000    3.000    0.000    7.800    0.000    0.000 
#    0.000    0.000    0.000    0.000    0.000    0.000 
#
# Total GULP energy -495668.053908 kJ/mol
# GULP energy per Si atom -12391.701348 kJ/mol
# Density = 1.749005 g / cm^3
# Si number density = 17.529953 Si / 1000 Ang^3
#
#
#
# Elastic Constant Matrix: (Units=GPa)
#
#
# Indices 1 2 3 4 5 6 
#
# 1 13.6534 27.6789 29.6335 0.0000 0.0000 0.0000
# 2 27.6789 149.4511 122.5558 0.0000 0.0000 0.0000
# 3 29.6335 122.5558 183.5486 0.0000 0.0000 0.0000
# 4 0.0000 0.0000 0.0000 40.5575 0.0000 0.0000
# 5 0.0000 0.0000 0.0000 0.0000 16.6030 0.0000
# 6 0.0000 0.0000 0.0000 0.0000 0.0000 24.1596
#
#
#
# Elastic Compliance Matrix: (Units=1/GPa)
#
#
# Indices 1 2 3 4 5 6 
#
# 1 0.125820 -0.014686 -0.010508 0.000000 0.000000 0.000000
# 2 -0.014686 0.016503 -0.008648 0.000000 0.000000 0.000000
# 3 -0.010508 -0.008648 0.012919 0.000000 0.000000 0.000000
# 4 0.000000 0.000000 0.000000 0.024656 0.000000 0.000000
# 5 0.000000 0.000000 0.000000 0.000000 0.060230 0.000000
# 6 0.000000 0.000000 0.000000 0.000000 0.000000 0.041391
#
#
# Mechanical properties :
#
#
# Convention : Reuss Voigt Hill
#
# Bulk Modulus (GPa) = 11.42091 78.48774 44.95433
# Shear Modulus (GPa) = 13.21398 27.38303 20.29851
#
# Velocity S-wave (km/s) = 2.74851 3.95659 3.40653
# Velocity P-wave (km/s) = 4.07451 8.10824 6.41659
#
# Compressibility (1/GPa) = 0.08755871
#
# Stress axis : x y z
#
# Youngs Moduli (GPa) = 7.94789 60.59675 77.40674
#
# Poissons Ratio (x) = 0.88990 0.81337
# Poissons Ratio (y) = 0.11672 0.66940
# Poissons Ratio (z) = 0.08351 0.52403
#
# Static dielectric constant tensor:
#      x y z
#    x 2.602380 0.000000 0.000000 
#    y 0.000000 3.392280 0.000000 
#    z 0.000000 0.000000 4.871320 
# 
# 
# High freq. dielectric constant tensor:
#      x y z
#    x 1.607120 0.000000 0.000000 
#    y 0.000000 1.678690 0.000000 
#    z 0.000000 0.000000 1.697370 
# 
# From -- ./inp_files/66808.got.cif
#   From: 2010.03.12/outbox.cif.g09.slc.cpg/sg63_34_cif.got.tgz:66808.got - 2010.04.10 19:34:48.
