data_PCOD8256811
_publ_section_title
;
Structure prediction by ZEFSAII (Michael W. Deem and Ramdas Pophale) SiO2 
 PCOD8256811
Probable space group: C M C M
;
_chemical_formula_sum "Si O2"
_cell_formula_units_Z 72
_cell_length_a 21.402339
_cell_length_b 19.189065
_cell_length_c 8.809358
_cell_angle_alpha 90.000000
_cell_angle_beta 90.000000
_cell_angle_gamma 90.000000
_cell_volume 3617.922938
_symmetry_space_group_name_H-M "C M C M"
_symmetry_group_IT_number 63
_symmetry_cell_setting 'orthorhombic'
loop_
_space_group_symop_operation_xyz
x,y,z
-x,-y,1/2+z
x,-y,-z
-x,y,1/2-z
-x,-y,-z
x,y,1/2-z
-x,y,z
x,-y,1/2+z
1/2+x,1/2+y,z
1/2-x,1/2-y,1/2+z
1/2+x,1/2-y,-z
1/2-x,1/2+y,1/2-z
1/2-x,1/2-y,-z
1/2+x,1/2+y,1/2-z
1/2-x,1/2+y,z
1/2+x,1/2-y,1/2+z
loop_
_atom_site_type_symbol
_atom_site_label
_atom_site_fract_x
_atom_site_fract_y
_atom_site_fract_z
Si Si1 0.676140 0.433445 0.417048
Si Si2 0.818396 0.563904 0.584507
Si Si3 0.000000 0.422552 0.570073
Si Si4 0.188131 0.785943 0.929723
Si Si5 0.615462 0.173272 0.427148
O O1 0.643111 0.500000 0.500000
O O2 0.645242 0.420960 0.250000
O O3 0.747169 0.455493 0.388852
O O4 0.674557 0.364403 0.518354
O O5 0.853542 0.500000 0.500000
O O6 0.850001 0.577167 0.750000
O O7 0.822410 0.630319 0.473458
O O8 0.000000 0.500000 0.500000
O O9 0.941459 0.375297 0.515778
O O10 0.000000 0.431242 0.750000
O O11 0.195388 0.782532 0.750000
O O12 0.250000 0.750000 0.000000
O O13 0.124682 0.745688 0.983490
O O14 0.611662 0.189424 0.250000
#
# Coordination Sequence:
#
# PCOD8256811 Si02
#       5
#    16  16   8  16  16
#     4  10  20  34  52  77 111 147 183 225 277 339
#     4  10  19  30  47  72 104 142 185 227 277 332
#     4  10  24  42  60  84 115 156 203 250 294 340
#     4  12  23  36  55  82 114 150 191 238 293 352
#     4  11  22  37  56  78 109 148 193 242 291 341
#
# _framework density 19.900922999999999
#
# number of rings (size 3 to 8) (size 9 to 14) (size 15 to 20)
#    0.000    1.333    2.222    4.667    0.000    5.333 
#    0.000    0.000    0.000    0.000    0.000    0.778 
#    0.000    0.000    0.000    0.000    0.000    0.000 
#
# Total GULP energy -445992.887907 kJ/mol
# GULP energy per Si atom -12388.691331 kJ/mol
# Density = 1.985563 g / cm^3
# Si number density = 19.900923 Si / 1000 Ang^3
#
#
#
# Elastic Constant Matrix: (Units=GPa)
#
#
# Indices 1 2 3 4 5 6 
#
# 1 38.5510 34.4754 27.5888 0.0000 0.0000 0.0000
# 2 34.4754 172.9421 72.6983 0.0000 0.0000 0.0000
# 3 27.5888 72.6983 151.6139 0.0000 0.0000 0.0000
# 4 0.0000 0.0000 0.0000 41.2943 0.0000 0.0000
# 5 0.0000 0.0000 0.0000 0.0000 16.2536 0.0000
# 6 0.0000 0.0000 0.0000 0.0000 0.0000 25.8895
#
#
#
# Elastic Compliance Matrix: (Units=1/GPa)
#
#
# Indices 1 2 3 4 5 6 
#
# 1 0.033045 -0.005085 -0.003575 0.000000 0.000000 0.000000
# 2 -0.005085 0.008024 -0.002922 0.000000 0.000000 0.000000
# 3 -0.003575 -0.002922 0.008648 0.000000 0.000000 0.000000
# 4 0.000000 0.000000 0.000000 0.024216 0.000000 0.000000
# 5 0.000000 0.000000 0.000000 0.000000 0.061525 0.000000
# 6 0.000000 0.000000 0.000000 0.000000 0.000000 0.038626
#
#
# Mechanical properties :
#
#
# Convention : Reuss Voigt Hill
#
# Bulk Modulus (GPa) = 37.66074 70.29246 53.97660
# Shear Modulus (GPa) = 24.26016 31.91045 28.08530
#
# Velocity S-wave (km/s) = 3.49527 4.00867 3.76074
# Velocity P-wave (km/s) = 5.93755 7.53816 6.78522
#
# Compressibility (1/GPa) = 0.02655285
#
# Stress axis : x y z
#
# Youngs Moduli (GPa) = 30.26157 124.62065 115.63983
#
# Poissons Ratio (x) = 0.63365 0.41342
# Poissons Ratio (y) = 0.15387 0.33795
# Poissons Ratio (z) = 0.10819 0.36419
#
# Static dielectric constant tensor:
#      x y z
#    x 3.267940 0.000000 0.000000 
#    y 0.000000 3.859450 0.000000 
#    z 0.000000 0.000000 4.021920 
# 
# 
# High freq. dielectric constant tensor:
#      x y z
#    x 1.707140 0.000000 0.000000 
#    y 0.000000 1.791400 0.000000 
#    z 0.000000 0.000000 1.794890 
# 
# From -- ./inp_files/9831.got.cif
#   From: 2010.03.12/outbox.cif.g09.slc.cpg/sg63_5_cif.got.tgz:9831.got - 2010.04.10 19:34:48.
