data_PCOD8256332
_publ_section_title
;
Structure prediction by ZEFSAII (Michael W. Deem and Ramdas Pophale) SiO2 
 PCOD8256332
Probable space group: C M C M
;
_chemical_formula_sum "Si O2"
_cell_formula_units_Z 120
_cell_length_a 28.051875
_cell_length_b 28.337669
_cell_length_c 8.521676
_cell_angle_alpha 90.000000
_cell_angle_beta 90.000000
_cell_angle_gamma 90.000000
_cell_volume 6774.091152
_symmetry_space_group_name_H-M "C M C M"
_symmetry_group_IT_number 63
_symmetry_cell_setting 'orthorhombic'
loop_
_space_group_symop_operation_xyz
x,y,z
-x,-y,1/2+z
x,-y,-z
-x,y,1/2-z
-x,-y,-z
x,y,1/2-z
-x,y,z
x,-y,1/2+z
1/2+x,1/2+y,z
1/2-x,1/2-y,1/2+z
1/2+x,1/2-y,-z
1/2-x,1/2+y,1/2-z
1/2-x,1/2-y,-z
1/2+x,1/2+y,1/2-z
1/2-x,1/2+y,z
1/2+x,1/2-y,1/2+z
loop_
_atom_site_type_symbol
_atom_site_label
_atom_site_fract_x
_atom_site_fract_y
_atom_site_fract_z
Si Si1 0.500000 0.946936 0.437935
Si Si2 0.274177 0.552016 0.564604
Si Si3 0.863116 0.111877 0.564951
Si Si4 0.703018 0.797008 0.932630
Si Si5 0.945537 0.949437 0.934951
Si Si6 0.317461 0.891859 0.433494
Si Si7 0.188359 0.200431 0.066476
Si Si8 0.903933 0.447516 0.563716
O O1 0.500000 0.945103 0.250000
O O2 0.453132 0.921777 0.510916
O O3 0.500000 0.000000 0.500000
O O4 0.270736 0.500000 0.500000
O O5 0.273217 0.549669 0.750000
O O6 0.322143 0.576693 0.502522
O O7 0.229666 0.582148 0.501819
O O8 0.867748 0.110510 0.750000
O O9 0.913153 0.094003 0.494326
O O10 0.848982 0.164988 0.515322
O O11 0.702958 0.784908 0.750000
O O12 0.757150 0.806576 0.993531
O O13 0.673722 0.843834 0.971225
O O14 0.676252 0.754403 0.022092
O O15 0.941945 0.951833 0.750000
O O16 0.000000 0.940030 0.990422
O O17 0.927413 0.000000 0.000000
O O18 0.313059 0.880791 0.250000
O O19 0.361780 0.924237 0.468742
O O20 0.183700 0.191950 0.250000
O O21 0.905966 0.500000 0.500000
O O22 0.896198 0.445225 0.750000
#
# Coordination Sequence:
#
# PCOD8256332 Si02
#       8
#     8  16  16  16  16  16  16  16
#     4  10  18  32  52  74  98 130 170 214 260 300
#     4  10  22  34  47  69 103 142 177 213 253 304
#     4  11  21  35  54  79 107 141 181 223 268 320
#     4  10  20  34  53  77 105 139 176 219 263 310
#     4  10  21  37  56  80 110 144 183 227 275 328
#     4  11  21  35  51  73 105 141 178 215 260 313
#     4  10  20  34  54  78 105 138 175 218 264 311
#     4  11  21  34  51  75 104 137 176 217 260 307
#
# _framework density 17.714552999999999
#
# number of rings (size 3 to 8) (size 9 to 14) (size 15 to 20)
#    0.000    1.600    1.333    5.400    0.000    6.133 
#    0.000    0.000    0.000    0.000    1.733    0.000 
#    0.000    0.000    0.000    0.000    0.000    0.000 
#
# Total GULP energy -744001.275629 kJ/mol
# GULP energy per Si atom -12400.021260 kJ/mol
# Density = 1.767423 g / cm^3
# Si number density = 17.714553 Si / 1000 Ang^3
#
#
#
# Elastic Constant Matrix: (Units=GPa)
#
#
# Indices 1 2 3 4 5 6 
#
# 1 99.6638 46.0597 23.5861 0.0000 0.0000 0.0000
# 2 46.0597 103.0882 18.5848 0.0000 0.0000 0.0000
# 3 23.5861 18.5848 51.7972 0.0000 0.0000 0.0000
# 4 0.0000 0.0000 0.0000 32.3812 0.0000 0.0000
# 5 0.0000 0.0000 0.0000 0.0000 27.5685 0.0000
# 6 0.0000 0.0000 0.0000 0.0000 0.0000 19.1922
#
#
#
# Elastic Compliance Matrix: (Units=1/GPa)
#
#
# Indices 1 2 3 4 5 6 
#
# 1 0.013466 -0.005251 -0.004248 0.000000 0.000000 0.000000
# 2 -0.005251 0.012419 -0.002065 0.000000 0.000000 0.000000
# 3 -0.004248 -0.002065 0.021981 0.000000 0.000000 0.000000
# 4 0.000000 0.000000 0.000000 0.030882 0.000000 0.000000
# 5 0.000000 0.000000 0.000000 0.000000 0.036273 0.000000
# 6 0.000000 0.000000 0.000000 0.000000 0.000000 0.052105
#
#
# Mechanical properties :
#
#
# Convention : Reuss Voigt Hill
#
# Bulk Modulus (GPa) = 40.42210 47.89005 44.15608
# Shear Modulus (GPa) = 25.18916 26.91629 26.05272
#
# Velocity S-wave (km/s) = 3.77496 3.90223 3.83913
# Velocity P-wave (km/s) = 6.47059 6.88449 6.68075
#
# Compressibility (1/GPa) = 0.02473894
#
# Stress axis : x y z
#
# Youngs Moduli (GPa) = 74.26351 80.52392 45.49350
#
# Poissons Ratio (x) = 0.42280 0.19324
# Poissons Ratio (y) = 0.38993 0.09394
# Poissons Ratio (z) = 0.31545 0.16628
#
# Static dielectric constant tensor:
#      x y z
#    x 3.738970 0.000000 0.000000 
#    y 0.000000 3.121770 0.000000 
#    z 0.000000 0.000000 3.172830 
# 
# 
# High freq. dielectric constant tensor:
#      x y z
#    x 1.673440 0.000000 0.000000 
#    y 0.000000 1.671790 0.000000 
#    z 0.000000 0.000000 1.698070 
# 
# From -- ./inp_files/13149.got.cif
#   From: 2010.03.12/outbox.cif.g09.slc.cpg/sg63_7_cif.got.tgz:13149.got - 2010.04.10 19:34:48.
