data_PCOD8256909
_publ_section_title
;
Structure prediction by ZEFSAII (Michael W. Deem and Ramdas Pophale) SiO2 
 PCOD8256909
Probable space group: C M C M
;
_chemical_formula_sum "Si O2"
_cell_formula_units_Z 96
_cell_length_a 8.936421
_cell_length_b 23.325746
_cell_length_c 23.847936
_cell_angle_alpha 90.000000
_cell_angle_beta 90.000000
_cell_angle_gamma 90.000000
_cell_volume 4971.070932
_symmetry_space_group_name_H-M "C M C M"
_symmetry_group_IT_number 63
_symmetry_cell_setting 'orthorhombic'
loop_
_space_group_symop_operation_xyz
x,y,z
-x,-y,1/2+z
x,-y,-z
-x,y,1/2-z
-x,-y,-z
x,y,1/2-z
-x,y,z
x,-y,1/2+z
1/2+x,1/2+y,z
1/2-x,1/2-y,1/2+z
1/2+x,1/2-y,-z
1/2-x,1/2+y,1/2-z
1/2-x,1/2-y,-z
1/2+x,1/2+y,1/2-z
1/2-x,1/2+y,z
1/2+x,1/2-y,1/2+z
loop_
_atom_site_type_symbol
_atom_site_label
_atom_site_fract_x
_atom_site_fract_y
_atom_site_fract_z
Si Si1 0.669634 0.522309 0.411702
Si Si2 0.676946 0.396691 0.406959
Si Si3 0.823788 0.865563 0.528063
Si Si4 0.831287 0.899812 0.812684
Si Si5 0.821582 0.188493 0.813919
Si Si6 0.675436 0.802266 0.623929
O O1 0.500000 0.514070 0.432223
O O2 0.750162 0.460082 0.414979
O O3 0.740448 0.572324 0.450886
O O4 0.680762 0.541573 0.347248
O O5 0.500000 0.403477 0.400359
O O6 0.713939 0.358698 0.462261
O O7 0.738237 0.365273 0.350998
O O8 0.749743 0.813641 0.562996
O O9 0.000000 0.863305 0.540508
O O10 0.788893 0.916538 0.750000
O O11 0.713482 0.853648 0.834240
O O12 0.000000 0.874584 0.817860
O O13 0.757988 0.185420 0.750000
O O14 0.763018 0.244874 0.846372
O O15 0.000000 0.189418 0.811631
O O16 0.500000 0.798042 0.614056
#
# Coordination Sequence:
#
# PCOD8256909 Si02
#       6
#    16  16  16  16  16  16
#     4   8  14  25  43  68  95 120 147 184 231 278
#     4   9  16  27  46  69  94 125 154 185 231 280
#     4   9  17  30  49  73  96 118 151 194 235 276
#     4   9  17  29  47  72  97 120 153 197 237 275
#     4   9  18  30  43  64  94 124 155 190 227 273
#     4  10  19  31  47  67  93 125 158 193 234 275
#
# _framework density 19.311734000000001
#
# number of rings (size 3 to 8) (size 9 to 14) (size 15 to 20)
#    0.000    3.000    0.000    2.500    0.000    4.333 
#    0.000    3.333    0.000    9.000    0.000    0.000 
#    0.000    0.000    0.000    0.000    0.000    0.000 
#
# Total GULP energy -594757.802580 kJ/mol
# GULP energy per Si atom -12390.787554 kJ/mol
# Density = 1.926778 g / cm^3
# Si number density = 19.311734 Si / 1000 Ang^3
#
#
#
# Elastic Constant Matrix: (Units=GPa)
#
#
# Indices 1 2 3 4 5 6 
#
# 1 21.4929 11.2846 13.3605 0.0000 0.0000 0.0000
# 2 11.2846 87.9296 51.9222 0.0000 0.0000 0.0000
# 3 13.3605 51.9222 144.1363 0.0000 0.0000 0.0000
# 4 0.0000 0.0000 0.0000 24.0306 0.0000 0.0000
# 5 0.0000 0.0000 0.0000 0.0000 19.8998 0.0000
# 6 0.0000 0.0000 0.0000 0.0000 0.0000 14.5667
#
#
#
# Elastic Compliance Matrix: (Units=1/GPa)
#
#
# Indices 1 2 3 4 5 6 
#
# 1 0.050892 -0.004758 -0.003003 0.000000 0.000000 0.000000
# 2 -0.004758 0.014890 -0.004923 0.000000 0.000000 0.000000
# 3 -0.003003 -0.004923 0.008990 0.000000 0.000000 0.000000
# 4 0.000000 0.000000 0.000000 0.041614 0.000000 0.000000
# 5 0.000000 0.000000 0.000000 0.000000 0.050252 0.000000
# 6 0.000000 0.000000 0.000000 0.000000 0.000000 0.068650
#
#
# Mechanical properties :
#
#
# Convention : Reuss Voigt Hill
#
# Bulk Modulus (GPa) = 20.24141 45.18814 32.71477
# Shear Modulus (GPa) = 18.04251 23.49886 20.77069
#
# Velocity S-wave (km/s) = 3.05991 3.49208 3.28311
# Velocity P-wave (km/s) = 4.79460 6.30155 5.59901
#
# Compressibility (1/GPa) = 0.04940368
#
# Stress axis : x y z
#
# Youngs Moduli (GPa) = 19.64944 67.15786 111.23899
#
# Poissons Ratio (x) = 0.31952 0.33410
# Poissons Ratio (y) = 0.09349 0.54762
# Poissons Ratio (z) = 0.05902 0.33061
#
# Static dielectric constant tensor:
#      x y z
#    x 2.931560 0.000000 0.000000 
#    y 0.000000 3.656880 0.000000 
#    z 0.000000 0.000000 3.774180 
# 
# 
# High freq. dielectric constant tensor:
#      x y z
#    x 1.680650 0.000000 0.000000 
#    y 0.000000 1.746460 0.000000 
#    z 0.000000 0.000000 1.767670 
# 
# From -- ./inp_files/59923.got.cif
#   From: 2010.03.12/outbox.cif.g09.slc.cpg/sg63_30_cif.got.tgz:59923.got - 2010.04.10 19:34:48.
