data_PCOD8256592
_publ_section_title
;
Structure prediction by ZEFSAII (Michael W. Deem and Ramdas Pophale) SiO2 
 PCOD8256592
Probable space group: C M C M
;
_chemical_formula_sum "Si O2"
_cell_formula_units_Z 88
_cell_length_a 25.628613
_cell_length_b 27.588661
_cell_length_c 8.936705
_cell_angle_alpha 90.000000
_cell_angle_beta 90.000000
_cell_angle_gamma 90.000000
_cell_volume 6318.778737
_symmetry_space_group_name_H-M "C M C M"
_symmetry_group_IT_number 63
_symmetry_cell_setting 'orthorhombic'
loop_
_space_group_symop_operation_xyz
x,y,z
-x,-y,1/2+z
x,-y,-z
-x,y,1/2-z
-x,-y,-z
x,y,1/2-z
-x,y,z
x,-y,1/2+z
1/2+x,1/2+y,z
1/2-x,1/2-y,1/2+z
1/2+x,1/2-y,-z
1/2-x,1/2+y,1/2-z
1/2-x,1/2-y,-z
1/2+x,1/2+y,1/2-z
1/2-x,1/2+y,z
1/2+x,1/2-y,1/2+z
loop_
_atom_site_type_symbol
_atom_site_label
_atom_site_fract_x
_atom_site_fract_y
_atom_site_fract_z
Si Si1 0.644701 0.309294 0.580374
Si Si2 0.402466 0.396618 0.073679
Si Si3 0.204934 0.949196 0.076972
Si Si4 0.198558 0.270622 0.926053
Si Si5 0.000000 0.052525 0.071794
Si Si6 0.746966 0.865772 0.915980
O O1 0.624046 0.303745 0.750000
O O2 0.604768 0.341687 0.483851
O O3 0.649081 0.255916 0.503730
O O4 0.700754 0.334266 0.576553
O O5 0.414460 0.396336 0.250000
O O6 0.351852 0.428711 0.034602
O O7 0.449392 0.419132 0.981701
O O8 0.210769 0.958080 0.250000
O O9 0.249674 0.910951 0.028376
O O10 0.214726 0.000000 0.000000
O O11 0.198879 0.258824 0.750000
O O12 0.198836 0.329121 0.954140
O O13 0.250000 0.250000 0.000000
O O14 0.000000 0.047841 0.250000
O O15 0.000000 0.000000 0.000000
O O16 0.739866 0.887322 0.750000
#
# Coordination Sequence:
#
# PCOD8256592 Si02
#       6
#    16  16  16  16   8  16
#     4   9  16  26  40  57  75  94 114 142 180 223
#     4  10  20  33  46  59  73  92 120 155 194 235
#     4  10  19  28  40  54  70  93 121 153 188 224
#     4   9  15  23  36  54  74  95 116 142 176 215
#     4  12  24  36  48  60  74  94 122 158 199 240
#     4   8  15  25  36  51  72  94 117 144 175 211
#
# _framework density 13.926742000000001
#
# number of rings (size 3 to 8) (size 9 to 14) (size 15 to 20)
#    0.000    2.545    0.000    4.636    0.000    8.727 
#    0.000    0.000    0.000    0.000    0.000    0.000 
#    0.000    0.000    0.000    0.000    0.000    0.000 
#
# Total GULP energy -545311.913619 kJ/mol
# GULP energy per Si atom -12393.452582 kJ/mol
# Density = 1.389504 g / cm^3
# Si number density = 13.926742 Si / 1000 Ang^3
#
#
#
# Elastic Constant Matrix: (Units=GPa)
#
#
# Indices 1 2 3 4 5 6 
#
# 1 30.5144 42.1026 26.8820 0.0000 0.0000 0.0000
# 2 42.1026 105.1848 57.6114 0.0000 0.0000 0.0000
# 3 26.8820 57.6114 90.3863 0.0000 0.0000 0.0000
# 4 0.0000 0.0000 0.0000 27.9376 0.0000 0.0000
# 5 0.0000 0.0000 0.0000 0.0000 16.6119 0.0000
# 6 0.0000 0.0000 0.0000 0.0000 0.0000 18.2395
#
#
#
# Elastic Compliance Matrix: (Units=1/GPa)
#
#
# Indices 1 2 3 4 5 6 
#
# 1 0.074551 -0.027188 -0.004843 0.000000 0.000000 0.000000
# 2 -0.027188 0.024522 -0.007544 0.000000 0.000000 0.000000
# 3 -0.004843 -0.007544 0.017312 0.000000 0.000000 0.000000
# 4 0.000000 0.000000 0.000000 0.035794 0.000000 0.000000
# 5 0.000000 0.000000 0.000000 0.000000 0.060198 0.000000
# 6 0.000000 0.000000 0.000000 0.000000 0.000000 0.054826
#
#
# Mechanical properties :
#
#
# Convention : Reuss Voigt Hill
#
# Bulk Modulus (GPa) = 26.85629 53.25306 40.05468
# Shear Modulus (GPa) = 13.93673 19.19043 16.56358
#
# Velocity S-wave (km/s) = 3.16684 3.71611 3.45242
# Velocity P-wave (km/s) = 5.71819 7.53217 6.68698
#
# Compressibility (1/GPa) = 0.03723522
#
# Stress axis : x y z
#
# Youngs Moduli (GPa) = 13.41364 40.78035 57.76251
#
# Poissons Ratio (x) = 1.10874 0.27974
# Poissons Ratio (y) = 0.36469 0.43575
# Poissons Ratio (z) = 0.06496 0.30764
#
# Static dielectric constant tensor:
#      x y z
#    x 2.356500 0.000000 0.000000 
#    y 0.000000 2.961320 0.000000 
#    z 0.000000 0.000000 2.956030 
# 
# 
# High freq. dielectric constant tensor:
#      x y z
#    x 1.463510 0.000000 0.000000 
#    y 0.000000 1.530710 0.000000 
#    z 0.000000 0.000000 1.552360 
# 
# From -- ./inp_files/8952.got.cif
#   From: 2010.03.12/outbox.cif.g09.slc.cpg/sg63_5_cif.got.tgz:8952.got - 2010.04.10 19:34:48.
