data_PCOD8256263
_publ_section_title
;
Structure prediction by ZEFSAII (Michael W. Deem and Ramdas Pophale) SiO2 
 PCOD8256263
Probable space group: C M C M
;
_chemical_formula_sum "Si O2"
_cell_formula_units_Z 88
_cell_length_a 12.405777
_cell_length_b 20.837881
_cell_length_c 17.736403
_cell_angle_alpha 90.000000
_cell_angle_beta 90.000000
_cell_angle_gamma 90.000000
_cell_volume 4585.039399
_symmetry_space_group_name_H-M "C M C M"
_symmetry_group_IT_number 63
_symmetry_cell_setting 'orthorhombic'
loop_
_space_group_symop_operation_xyz
x,y,z
-x,-y,1/2+z
x,-y,-z
-x,y,1/2-z
-x,-y,-z
x,y,1/2-z
-x,y,z
x,-y,1/2+z
1/2+x,1/2+y,z
1/2-x,1/2-y,1/2+z
1/2+x,1/2-y,-z
1/2-x,1/2+y,1/2-z
1/2-x,1/2-y,-z
1/2+x,1/2+y,1/2-z
1/2-x,1/2+y,z
1/2+x,1/2-y,1/2+z
loop_
_atom_site_type_symbol
_atom_site_label
_atom_site_fract_x
_atom_site_fract_y
_atom_site_fract_z
Si Si1 0.693764 0.066648 0.835748
Si Si2 0.277217 0.926799 0.663833
Si Si3 0.000000 0.388062 0.600962
Si Si4 0.000000 0.563424 0.550699
Si Si5 0.000000 0.750251 0.337972
Si Si6 0.722522 0.703540 0.661877
Si Si7 0.122104 0.185459 0.160187
O O1 0.647952 0.072028 0.750000
O O2 0.601054 0.067634 0.896091
O O3 0.764551 0.128621 0.855223
O O4 0.763944 0.000855 0.843256
O O5 0.298411 0.907269 0.750000
O O6 0.391883 0.926834 0.621719
O O7 0.189141 0.876980 0.630255
O O8 0.000000 0.324748 0.649427
O O9 0.000000 0.378042 0.510080
O O10 0.000000 0.500000 0.500000
O O11 0.891937 0.778497 0.376141
O O12 0.000000 0.766516 0.250000
O O13 0.716781 0.718273 0.750000
O O14 0.818281 0.749639 0.630424
O O15 0.115773 0.184018 0.250000
O O16 0.000000 0.183853 0.127277
#
# Coordination Sequence:
#
# PCOD8256263 Si02
#       7
#    16  16   8   8   8  16  16
#     4  10  21  37  55  81 111 145 186 231 281 331
#     4  10  18  31  53  80 110 144 186 232 273 324
#     4  12  20  32  55  82 109 142 187 230 280 326
#     4  12  23  36  53  84 114 147 183 229 288 333
#     4  10  18  34  59  86 113 144 188 231 273 326
#     4   9  18  32  55  82 110 145 183 229 278 323
#     4   9  17  29  48  78 112 145 183 228 274 322
#
# _framework density 19.192855999999999
#
# number of rings (size 3 to 8) (size 9 to 14) (size 15 to 20)
#    0.000    2.000    3.636    1.091    1.273    1.455 
#    1.636    0.909    0.000    0.000    0.000    1.909 
#    0.000    0.000    0.000    0.000    0.000    0.000 
#
# Total GULP energy -545184.437013 kJ/mol
# GULP energy per Si atom -12390.555387 kJ/mol
# Density = 1.914917 g / cm^3
# Si number density = 19.192856 Si / 1000 Ang^3
#
#
#
# Elastic Constant Matrix: (Units=GPa)
#
#
# Indices 1 2 3 4 5 6 
#
# 1 147.8470 73.6340 19.3157 0.0000 0.0000 0.0000
# 2 73.6340 151.4323 11.0794 0.0000 0.0000 0.0000
# 3 19.3157 11.0794 39.0791 0.0000 0.0000 0.0000
# 4 0.0000 0.0000 0.0000 10.5357 0.0000 0.0000
# 5 0.0000 0.0000 0.0000 0.0000 12.1002 0.0000
# 6 0.0000 0.0000 0.0000 0.0000 0.0000 54.3097
#
#
#
# Elastic Compliance Matrix: (Units=1/GPa)
#
#
# Indices 1 2 3 4 5 6 
#
# 1 0.009348 -0.004297 -0.003402 0.000000 0.000000 0.000000
# 2 -0.004297 0.008718 -0.000348 0.000000 0.000000 0.000000
# 3 -0.003402 -0.000348 0.027370 0.000000 0.000000 0.000000
# 4 0.000000 0.000000 0.000000 0.094916 0.000000 0.000000
# 5 0.000000 0.000000 0.000000 0.000000 0.082643 0.000000
# 6 0.000000 0.000000 0.000000 0.000000 0.000000 0.018413
#
#
# Mechanical properties :
#
#
# Convention : Reuss Voigt Hill
#
# Bulk Modulus (GPa) = 34.08098 60.71296 47.39697
# Shear Modulus (GPa) = 18.70681 31.01107 24.85894
#
# Velocity S-wave (km/s) = 3.12537 4.02401 3.60282
# Velocity P-wave (km/s) = 5.55154 7.30014 6.48504
#
# Compressibility (1/GPa) = 0.02934188
#
# Stress axis : x y z
#
# Youngs Moduli (GPa) = 106.97295 114.70118 36.53698
#
# Poissons Ratio (x) = 0.49283 0.12431
# Poissons Ratio (y) = 0.45962 0.01272
# Poissons Ratio (z) = 0.36396 0.03992
#
# Static dielectric constant tensor:
#      x y z
#    x 3.557990 0.000000 0.000000 
#    y 0.000000 3.763590 0.000000 
#    z 0.000000 0.000000 3.324720 
# 
# 
# High freq. dielectric constant tensor:
#      x y z
#    x 1.734950 0.000000 0.000000 
#    y 0.000000 1.760350 0.000000 
#    z 0.000000 0.000000 1.699520 
# 
# From -- ./inp_files/42330.got.cif
#   From: 2010.03.12/outbox.cif.g09.slc.cpg/sg63_22_cif.got.tgz:42330.got - 2010.04.10 19:34:48.
