data_PCOD8256416
_publ_section_title
;
Structure prediction by ZEFSAII (Michael W. Deem and Ramdas Pophale) SiO2 
 PCOD8256416
Probable space group: C M C M
;
_chemical_formula_sum "Si O2"
_cell_formula_units_Z 92
_cell_length_a 18.148512
_cell_length_b 18.836804
_cell_length_c 14.028963
_cell_angle_alpha 90.000000
_cell_angle_beta 90.000000
_cell_angle_gamma 90.000000
_cell_volume 4795.940778
_symmetry_space_group_name_H-M "C M C M"
_symmetry_group_IT_number 63
_symmetry_cell_setting 'orthorhombic'
loop_
_space_group_symop_operation_xyz
x,y,z
-x,-y,1/2+z
x,-y,-z
-x,y,1/2-z
-x,-y,-z
x,y,1/2-z
-x,y,z
x,-y,1/2+z
1/2+x,1/2+y,z
1/2-x,1/2-y,1/2+z
1/2+x,1/2-y,-z
1/2-x,1/2+y,1/2-z
1/2-x,1/2-y,-z
1/2+x,1/2+y,1/2-z
1/2-x,1/2+y,z
1/2+x,1/2-y,1/2+z
loop_
_atom_site_type_symbol
_atom_site_label
_atom_site_fract_x
_atom_site_fract_y
_atom_site_fract_z
Si Si1 0.500000 0.296960 0.593130
Si Si2 0.158534 0.049912 0.359541
Si Si3 0.500000 0.821994 0.250000
Si Si4 0.760116 0.691230 0.637376
Si Si5 0.917964 0.539574 0.750000
Si Si6 0.657470 0.690630 0.033088
Si Si7 0.699775 0.964646 0.400602
Si Si8 0.000000 0.046191 0.146836
O O1 0.500000 0.226421 0.656736
O O2 0.429737 0.299500 0.524105
O O3 0.500000 0.367995 0.656650
O O4 0.148113 0.076059 0.250000
O O5 0.183457 0.113759 0.428212
O O6 0.078336 0.021624 0.399923
O O7 0.220505 0.989631 0.361853
O O8 0.572350 0.873786 0.250000
O O9 0.740825 0.689061 0.750000
O O10 0.687225 0.703971 0.573376
O O11 0.815260 0.754729 0.613752
O O12 0.798732 0.619929 0.600452
O O13 0.870540 0.511855 0.838914
O O14 0.000000 0.504225 0.750000
O O15 0.682722 0.000000 0.500000
O O16 0.000000 0.010687 0.250000
#
# Coordination Sequence:
#
# PCOD8256416 Si02
#       8
#     8  16   4  16   8  16  16   8
#     4  10  18  32  56  90 123 150 193 255 305 361
#     4  10  18  34  57  87 121 159 192 245 304 364
#     4  10  20  36  64  90 118 158 208 260 326 354
#     4  11  22  39  59  88 121 161 209 251 300 376
#     4  10  24  40  59  86 113 156 207 260 312 364
#     4  10  22  36  60  92 120 155 199 255 315 360
#     4  12  22  38  61  88 123 162 205 256 308 366
#     4   8  16  28  50  85 120 146 194 234 289 353
#
# _framework density 19.18289
#
# number of rings (size 3 to 8) (size 9 to 14) (size 15 to 20)
#    0.261    1.391    3.913    1.565    2.435    0.348 
#    0.000    1.739    0.000    0.000    0.000    0.000 
#    0.000    0.000    0.000    0.000    0.000    0.000 
#
# Total GULP energy -569958.293563 kJ/mol
# GULP energy per Si atom -12390.397686 kJ/mol
# Density = 1.913923 g / cm^3
# Si number density = 19.182890 Si / 1000 Ang^3
#
#
#
# Elastic Constant Matrix: (Units=GPa)
#
#
# Indices 1 2 3 4 5 6 
#
# 1 148.5773 22.5684 33.0523 0.0000 0.0000 0.0000
# 2 22.5684 46.1164 11.0954 0.0000 0.0000 0.0000
# 3 33.0523 11.0954 115.0342 0.0000 0.0000 0.0000
# 4 0.0000 0.0000 0.0000 24.1957 0.0000 0.0000
# 5 0.0000 0.0000 0.0000 0.0000 9.6347 0.0000
# 6 0.0000 0.0000 0.0000 0.0000 0.0000 27.3593
#
#
#
# Elastic Compliance Matrix: (Units=1/GPa)
#
#
# Indices 1 2 3 4 5 6 
#
# 1 0.007649 -0.003291 -0.001880 0.000000 0.000000 0.000000
# 2 -0.003291 0.023615 -0.001332 0.000000 0.000000 0.000000
# 3 -0.001880 -0.001332 0.009362 0.000000 0.000000 0.000000
# 4 0.000000 0.000000 0.000000 0.041330 0.000000 0.000000
# 5 0.000000 0.000000 0.000000 0.000000 0.103791 0.000000
# 6 0.000000 0.000000 0.000000 0.000000 0.000000 0.036551
#
#
# Mechanical properties :
#
#
# Convention : Reuss Voigt Hill
#
# Bulk Modulus (GPa) = 36.20668 49.24001 42.72335
# Shear Modulus (GPa) = 20.44906 28.43874 24.44390
#
# Velocity S-wave (km/s) = 3.26852 3.85451 3.57354
# Velocity P-wave (km/s) = 5.75845 6.74790 6.27271
#
# Compressibility (1/GPa) = 0.02761921
#
# Stress axis : x y z
#
# Youngs Moduli (GPa) = 130.74246 42.34565 106.81692
#
# Poissons Ratio (x) = 0.13935 0.20084
# Poissons Ratio (y) = 0.43023 0.14231
# Poissons Ratio (z) = 0.24583 0.05642
#
# Static dielectric constant tensor:
#      x y z
#    x 3.748780 0.000000 0.000000 
#    y 0.000000 3.371810 0.000000 
#    z 0.000000 0.000000 3.401070 
# 
# 
# High freq. dielectric constant tensor:
#      x y z
#    x 1.756620 0.000000 0.000000 
#    y 0.000000 1.729310 0.000000 
#    z 0.000000 0.000000 1.738110 
# 
# From -- ./inp_files/34160.got.cif
#   From: 2010.03.12/outbox.cif.g09.slc.cpg/sg63_18_cif.got.tgz:34160.got - 2010.04.10 19:34:48.
