data_PCOD8256674
_publ_section_title
;
Structure prediction by ZEFSAII (Michael W. Deem and Ramdas Pophale) SiO2 
 PCOD8256674
Probable space group: C M C M
;
_chemical_formula_sum "Si O2"
_cell_formula_units_Z 80
_cell_length_a 24.043971
_cell_length_b 23.504959
_cell_length_c 8.917406
_cell_angle_alpha 90.000000
_cell_angle_beta 90.000000
_cell_angle_gamma 90.000000
_cell_volume 5039.694763
_symmetry_space_group_name_H-M "C M C M"
_symmetry_group_IT_number 63
_symmetry_cell_setting 'orthorhombic'
loop_
_space_group_symop_operation_xyz
x,y,z
-x,-y,1/2+z
x,-y,-z
-x,y,1/2-z
-x,-y,-z
x,y,1/2-z
-x,y,z
x,-y,1/2+z
1/2+x,1/2+y,z
1/2-x,1/2-y,1/2+z
1/2+x,1/2-y,-z
1/2-x,1/2+y,1/2-z
1/2-x,1/2-y,-z
1/2+x,1/2+y,1/2-z
1/2-x,1/2+y,z
1/2+x,1/2-y,1/2+z
loop_
_atom_site_type_symbol
_atom_site_label
_atom_site_fract_x
_atom_site_fract_y
_atom_site_fract_z
Si Si1 0.062359 0.754800 0.574780
Si Si2 0.829916 0.940092 0.425563
Si Si3 0.061921 0.126299 0.578270
Si Si4 0.726081 0.662842 0.424163
Si Si5 0.831908 0.267969 0.923607
O O1 0.073512 0.748707 0.750000
O O2 0.070841 0.820226 0.528994
O O3 0.106728 0.715758 0.485060
O O4 0.000000 0.734482 0.532751
O O5 0.820426 0.945727 0.250000
O O6 0.892982 0.921312 0.465077
O O7 0.785534 0.895195 0.488781
O O8 0.817458 0.000000 0.500000
O O9 0.070483 0.146525 0.750000
O O10 0.000000 0.100467 0.555383
O O11 0.712517 0.654569 0.250000
O O12 0.790699 0.679125 0.450818
O O13 0.687397 0.712768 0.485765
O O14 0.834297 0.251223 0.750000
#
# Coordination Sequence:
#
# PCOD8256674 Si02
#       5
#    16  16  16  16  16
#     4  10  19  29  45  70  97 125 156 192 233 277
#     4  11  22  34  49  67  91 124 162 202 244 282
#     4   9  18  32  47  63  87 121 161 201 238 277
#     4  10  20  33  49  69  93 120 157 198 237 283
#     4  10  19  31  49  71  94 123 154 191 238 286
#
# _framework density 15.873977
#
# number of rings (size 3 to 8) (size 9 to 14) (size 15 to 20)
#    0.000    2.000    2.000    2.400    0.000    4.800 
#    0.000    0.000    0.000    0.000    0.000    0.000 
#    0.000    0.800    0.000    2.600    0.000    3.800 
#
# Total GULP energy -496000.107495 kJ/mol
# GULP energy per Si atom -12400.002687 kJ/mol
# Density = 1.583785 g / cm^3
# Si number density = 15.873977 Si / 1000 Ang^3
#
#
#
# Elastic Constant Matrix: (Units=GPa)
#
#
# Indices 1 2 3 4 5 6 
#
# 1 111.6177 52.3249 54.3758 0.0000 0.0000 0.0000
# 2 52.3249 72.1279 37.7642 0.0000 0.0000 0.0000
# 3 54.3758 37.7642 85.4001 0.0000 0.0000 0.0000
# 4 0.0000 0.0000 0.0000 23.6958 0.0000 0.0000
# 5 0.0000 0.0000 0.0000 0.0000 27.4627 0.0000
# 6 0.0000 0.0000 0.0000 0.0000 0.0000 13.4051
#
#
#
# Elastic Compliance Matrix: (Units=1/GPa)
#
#
# Indices 1 2 3 4 5 6 
#
# 1 0.015983 -0.008154 -0.006571 0.000000 0.000000 0.000000
# 2 -0.008154 0.022202 -0.004626 0.000000 0.000000 0.000000
# 3 -0.006571 -0.004626 0.017939 0.000000 0.000000 0.000000
# 4 0.000000 0.000000 0.000000 0.042202 0.000000 0.000000
# 5 0.000000 0.000000 0.000000 0.000000 0.036413 0.000000
# 6 0.000000 0.000000 0.000000 0.000000 0.000000 0.074598
#
#
# Mechanical properties :
#
#
# Convention : Reuss Voigt Hill
#
# Bulk Modulus (GPa) = 57.39911 62.00839 59.70375
# Shear Modulus (GPa) = 19.69709 21.22480 20.46094
#
# Velocity S-wave (km/s) = 3.52638 3.66058 3.59411
# Velocity P-wave (km/s) = 7.26761 7.55077 7.41055
#
# Compressibility (1/GPa) = 0.01742187
#
# Stress axis : x y z
#
# Youngs Moduli (GPa) = 62.56731 45.04160 55.74561
#
# Poissons Ratio (x) = 0.36729 0.36628
# Poissons Ratio (y) = 0.51020 0.25785
# Poissons Ratio (z) = 0.41110 0.20834
#
# Static dielectric constant tensor:
#      x y z
#    x 3.384140 0.000000 0.000000 
#    y 0.000000 2.647910 0.000000 
#    z 0.000000 0.000000 3.149200 
# 
# 
# High freq. dielectric constant tensor:
#      x y z
#    x 1.617450 0.000000 0.000000 
#    y 0.000000 1.556890 0.000000 
#    z 0.000000 0.000000 1.628260 
# 
# From -- ./inp_files/12071.got.cif
#   From: 2010.03.12/outbox.cif.g09.slc.cpg/sg63_7_cif.got.tgz:12071.got - 2010.04.10 19:34:48.
