data_PCOD8256120
_publ_section_title
;
Structure prediction by ZEFSAII (Michael W. Deem and Ramdas Pophale) SiO2 
 PCOD8256120
Probable space group: C M C M
;
_chemical_formula_sum "Si O2"
_cell_formula_units_Z 80
_cell_length_a 25.288108
_cell_length_b 20.746751
_cell_length_c 8.648959
_cell_angle_alpha 90.000000
_cell_angle_beta 90.000000
_cell_angle_gamma 90.000000
_cell_volume 4537.642435
_symmetry_space_group_name_H-M "C M C M"
_symmetry_group_IT_number 63
_symmetry_cell_setting 'orthorhombic'
loop_
_space_group_symop_operation_xyz
x,y,z
-x,-y,1/2+z
x,-y,-z
-x,y,1/2-z
-x,-y,-z
x,y,1/2-z
-x,y,z
x,-y,1/2+z
1/2+x,1/2+y,z
1/2-x,1/2-y,1/2+z
1/2+x,1/2-y,-z
1/2-x,1/2+y,1/2-z
1/2-x,1/2-y,-z
1/2+x,1/2+y,1/2-z
1/2-x,1/2+y,z
1/2+x,1/2-y,1/2+z
loop_
_atom_site_type_symbol
_atom_site_label
_atom_site_fract_x
_atom_site_fract_y
_atom_site_fract_z
Si Si1 0.614454 0.229063 0.433049
Si Si2 0.500000 0.228496 0.428433
Si Si3 0.885867 0.867991 0.927560
Si Si4 0.720253 0.188475 0.568091
Si Si5 0.219991 0.931942 0.931440
Si Si6 0.000000 0.861688 0.574841
O O1 0.620540 0.219619 0.250000
O O2 0.556538 0.202799 0.494217
O O3 0.621084 0.304652 0.468968
O O4 0.658771 0.188363 0.520805
O O5 0.500000 0.212729 0.250000
O O6 0.500000 0.304829 0.451867
O O7 0.877195 0.846669 0.750000
O O8 0.841604 0.919753 0.974971
O O9 0.944657 0.900352 0.950683
O O10 0.726358 0.191068 0.750000
O O11 0.750000 0.250000 0.500000
O O12 0.744462 0.122993 0.505387
O O13 0.229744 0.932306 0.750000
O O14 0.237647 0.000000 0.000000
O O15 0.000000 0.833357 0.750000
#
# Coordination Sequence:
#
# PCOD8256120 Si02
#       6
#    16   8  16  16  16   8
#     4  10  18  30  51  78 108 139 173 215 262 312
#     4   8  16  28  44  73 108 137 167 208 259 311
#     4   9  17  30  49  71 100 136 178 220 263 309
#     4  12  23  36  55  80 107 139 180 224 270 319
#     4  11  23  38  54  75 105 142 181 223 272 321
#     4   8  14  26  45  69  95 131 175 220 259 301
#
# _framework density 17.630300999999999
#
# number of rings (size 3 to 8) (size 9 to 14) (size 15 to 20)
#    0.000    2.000    2.000    3.000    0.000    1.600 
#    0.000    0.500    0.000    0.000    0.000    0.700 
#    0.000    0.000    0.000    0.000    0.000    0.000 
#
# Total GULP energy -495582.878890 kJ/mol
# GULP energy per Si atom -12389.571972 kJ/mol
# Density = 1.759017 g / cm^3
# Si number density = 17.630301 Si / 1000 Ang^3
#
#
#
# Elastic Constant Matrix: (Units=GPa)
#
#
# Indices 1 2 3 4 5 6 
#
# 1 156.7798 64.2103 50.1795 0.0000 0.0000 0.0000
# 2 64.2103 95.6195 41.4195 0.0000 0.0000 0.0000
# 3 50.1795 41.4195 86.5078 0.0000 0.0000 0.0000
# 4 0.0000 0.0000 0.0000 22.5880 0.0000 0.0000
# 5 0.0000 0.0000 0.0000 0.0000 23.8929 0.0000
# 6 0.0000 0.0000 0.0000 0.0000 0.0000 19.9209
#
#
#
# Elastic Compliance Matrix: (Units=1/GPa)
#
#
# Indices 1 2 3 4 5 6 
#
# 1 0.009402 -0.004985 -0.003067 0.000000 0.000000 0.000000
# 2 -0.004985 0.015838 -0.004692 0.000000 0.000000 0.000000
# 3 -0.003067 -0.004692 0.015585 0.000000 0.000000 0.000000
# 4 0.000000 0.000000 0.000000 0.044271 0.000000 0.000000
# 5 0.000000 0.000000 0.000000 0.000000 0.041853 0.000000
# 6 0.000000 0.000000 0.000000 0.000000 0.000000 0.050199
#
#
# Mechanical properties :
#
#
# Convention : Reuss Voigt Hill
#
# Bulk Modulus (GPa) = 65.19806 72.28066 68.73936
# Shear Modulus (GPa) = 24.06782 25.48687 24.77734
#
# Velocity S-wave (km/s) = 3.69879 3.80627 3.75291
# Velocity P-wave (km/s) = 7.43655 7.77199 7.60612
#
# Compressibility (1/GPa) = 0.01533788
#
# Stress axis : x y z
#
# Youngs Moduli (GPa) = 106.36595 63.14001 64.16517
#
# Poissons Ratio (x) = 0.31475 0.19677
# Poissons Ratio (y) = 0.53022 0.30103
# Poissons Ratio (z) = 0.32619 0.29622
#
# Static dielectric constant tensor:
#      x y z
#    x 4.061960 0.000000 0.000000 
#    y 0.000000 2.788470 0.000000 
#    z 0.000000 0.000000 3.324810 
# 
# 
# High freq. dielectric constant tensor:
#      x y z
#    x 1.708350 0.000000 0.000000 
#    y 0.000000 1.617720 0.000000 
#    z 0.000000 0.000000 1.689890 
# 
# From -- ./inp_files/10126.got.cif
#   From: 2010.03.12/outbox.cif.g09.slc.cpg/sg63_6_cif.got.tgz:10126.got - 2010.04.10 19:34:48.
