data_PCOD8256003
_publ_section_title
;
Structure prediction by ZEFSAII (Michael W. Deem and Ramdas Pophale) SiO2 
 PCOD8256003
Probable space group: C M C M
;
_chemical_formula_sum "Si O2"
_cell_formula_units_Z 72
_cell_length_a 13.736451
_cell_length_b 22.881622
_cell_length_c 14.258957
_cell_angle_alpha 90.000000
_cell_angle_beta 90.000000
_cell_angle_gamma 90.000000
_cell_volume 4481.765277
_symmetry_space_group_name_H-M "C M C M"
_symmetry_group_IT_number 63
_symmetry_cell_setting 'orthorhombic'
loop_
_space_group_symop_operation_xyz
x,y,z
-x,-y,1/2+z
x,-y,-z
-x,y,1/2-z
-x,-y,-z
x,y,1/2-z
-x,y,z
x,-y,1/2+z
1/2+x,1/2+y,z
1/2-x,1/2-y,1/2+z
1/2+x,1/2-y,-z
1/2-x,1/2+y,1/2-z
1/2-x,1/2-y,-z
1/2+x,1/2+y,1/2-z
1/2-x,1/2+y,z
1/2+x,1/2-y,1/2+z
loop_
_atom_site_type_symbol
_atom_site_label
_atom_site_fract_x
_atom_site_fract_y
_atom_site_fract_z
Si Si1 0.614882 0.998678 0.750000
Si Si2 0.391392 0.941827 0.559034
Si Si3 0.609348 0.726039 0.548356
Si Si4 0.206999 0.375006 0.250000
Si Si5 0.393183 0.692740 0.750000
Si Si6 0.303683 0.163322 0.956203
O O1 0.500000 0.016200 0.750000
O O2 0.643618 0.958461 0.837330
O O3 0.679549 0.057132 0.750000
O O4 0.500000 0.914841 0.560777
O O5 0.318865 0.895913 0.513144
O O6 0.390406 0.000000 0.500000
O O7 0.500000 0.703542 0.523851
O O8 0.621184 0.735184 0.660509
O O9 0.626093 0.786482 0.494912
O O10 0.690982 0.678449 0.521256
O O11 0.323150 0.364007 0.250000
O O12 0.168077 0.344839 0.346040
O O13 0.500000 0.664210 0.750000
#
# Coordination Sequence:
#
# PCOD8256003 Si02
#       6
#     8  16  16   8   8  16
#     4  10  20  31  46  70  97 127 158 192 233 278
#     4  10  19  31  47  69  97 125 154 191 234 278
#     4   9  18  32  50  73  96 122 157 195 235 281
#     4  10  18  30  48  69  93 123 160 195 229 278
#     4   8  16  31  50  69  92 120 154 197 236 274
#     4  10  19  31  50  71  96 127 157 192 237 282
#
# _framework density 16.065097999999999
#
# number of rings (size 3 to 8) (size 9 to 14) (size 15 to 20)
#    0.000    2.444    2.222    0.667    0.000    1.778 
#    0.000    4.444    0.000    2.000    0.000    0.000 
#    0.000    0.000    0.000    0.000    0.000    0.000 
#
# Total GULP energy -446122.141542 kJ/mol
# GULP energy per Si atom -12392.281709 kJ/mol
# Density = 1.602853 g / cm^3
# Si number density = 16.065098 Si / 1000 Ang^3
#
#
#
# Elastic Constant Matrix: (Units=GPa)
#
#
# Indices 1 2 3 4 5 6 
#
# 1 89.0831 47.7672 49.3446 0.0000 0.0000 0.0000
# 2 47.7672 85.2281 55.5065 0.0000 0.0000 0.0000
# 3 49.3446 55.5065 123.3709 0.0000 0.0000 0.0000
# 4 0.0000 0.0000 0.0000 27.2174 0.0000 0.0000
# 5 0.0000 0.0000 0.0000 0.0000 21.3496 0.0000
# 6 0.0000 0.0000 0.0000 0.0000 0.0000 -402.2303
#
#
#
# Elastic Compliance Matrix: (Units=1/GPa)
#
#
# Indices 1 2 3 4 5 6 
#
# 1 0.017094 -0.007253 -0.003574 0.000000 0.000000 0.000000
# 2 -0.007253 0.019674 -0.005950 0.000000 0.000000 0.000000
# 3 -0.003574 -0.005950 0.012212 0.000000 0.000000 0.000000
# 4 0.000000 0.000000 0.000000 0.036741 0.000000 0.000000
# 5 0.000000 0.000000 0.000000 0.000000 0.046839 0.000000
# 6 0.000000 0.000000 0.000000 0.000000 0.000000 -0.002486
#
#
# Mechanical properties :
#
#
# Convention : Reuss Voigt Hill
#
# Bulk Modulus (GPa) = 64.82865 66.99097 65.90981
# Shear Modulus (GPa) = 29.62586 -61.06173 -15.71793
#
# Velocity S-wave (km/s) = 4.29897 -6.17183 -3.13132
# Velocity P-wave (km/s) = 8.06740 2.99973 5.29549
#
# Compressibility (1/GPa) = 0.01542528
#
# Stress axis : x y z
#
# Youngs Moduli (GPa) = 58.49895 50.82930 81.88466
#
# Poissons Ratio (x) = 0.36867 0.29265
# Poissons Ratio (y) = 0.42430 0.48725
# Poissons Ratio (z) = 0.20907 0.30246
#
# Static dielectric constant tensor:
#      x y z
#    x 3.127310 0.000000 0.000000 
#    y 0.000000 2.966450 0.000000 
#    z 0.000000 0.000000 3.318160 
# 
# 
# High freq. dielectric constant tensor:
#      x y z
#    x 1.609300 0.000000 0.000000 
#    y 0.000000 1.596310 0.000000 
#    z 0.000000 0.000000 1.634820 
# 
# From -- ./inp_files/31486.got.cif
#   From: 2010.03.12/outbox.cif.g09.slc.cpg/sg63_16_cif.got.tgz:31486.got - 2010.04.10 19:34:48.
