data_PCOD8256102
_publ_section_title
;
Structure prediction by ZEFSAII (Michael W. Deem and Ramdas Pophale) SiO2 
 PCOD8256102
Probable space group: C M C M
;
_chemical_formula_sum "Si O2"
_cell_formula_units_Z 64
_cell_length_a 13.983152
_cell_length_b 17.330138
_cell_length_c 15.556195
_cell_angle_alpha 90.000000
_cell_angle_beta 90.000000
_cell_angle_gamma 90.000000
_cell_volume 3769.732016
_symmetry_space_group_name_H-M "C M C M"
_symmetry_group_IT_number 63
_symmetry_cell_setting 'orthorhombic'
loop_
_space_group_symop_operation_xyz
x,y,z
-x,-y,1/2+z
x,-y,-z
-x,y,1/2-z
-x,-y,-z
x,y,1/2-z
-x,y,z
x,-y,1/2+z
1/2+x,1/2+y,z
1/2-x,1/2-y,1/2+z
1/2+x,1/2-y,-z
1/2-x,1/2+y,1/2-z
1/2-x,1/2-y,-z
1/2+x,1/2+y,1/2-z
1/2-x,1/2+y,z
1/2+x,1/2-y,1/2+z
loop_
_atom_site_type_symbol
_atom_site_label
_atom_site_fract_x
_atom_site_fract_y
_atom_site_fract_z
Si Si1 0.500000 0.343969 0.496971
Si Si2 0.000000 0.052021 0.344490
Si Si3 0.359204 0.917872 0.151899
Si Si4 0.000000 0.664422 0.972674
Si Si5 0.843572 0.052057 0.580385
Si Si6 0.000000 0.464422 0.593339
O O1 0.500000 0.375805 0.593007
O O2 0.500000 0.253012 0.503538
O O3 0.404838 0.373733 0.449064
O O4 0.000000 0.087430 0.250000
O O5 0.906758 0.999796 0.356866
O O6 0.374556 0.889552 0.250000
O O7 0.407943 0.858720 0.084708
O O8 0.247484 0.918951 0.132323
O O9 0.405600 0.003964 0.142557
O O10 0.000000 0.626392 0.069898
O O11 0.810867 0.000000 0.500000
O O12 0.000000 0.500000 0.500000
#
# Coordination Sequence:
#
# PCOD8256102 Si02
#       6
#     8   8  16   8  16   8
#     4   9  20  32  48  70  98 129 156 186 230 289
#     4   9  17  30  50  72  93 119 156 202 240 271
#     4  10  18  30  51  73  93 119 158 205 239 269
#     4  10  19  32  48  70  99 130 156 188 232 286
#     4   9  17  32  50  70  92 123 162 194 230 279
#     4   8  16  30  48  68  90 122 159 192 230 272
#
# _framework density 16.977335
#
# number of rings (size 3 to 8) (size 9 to 14) (size 15 to 20)
#    0.000    3.000    0.000    6.000    0.000    2.000 
#    0.000    0.000    0.000   15.000    0.000    0.000 
#    0.000    0.000    0.000    0.000    0.000    0.000 
#
# Total GULP energy -396520.234870 kJ/mol
# GULP energy per Si atom -12391.257340 kJ/mol
# Density = 1.693869 g / cm^3
# Si number density = 16.977335 Si / 1000 Ang^3
#
#
#
# Elastic Constant Matrix: (Units=GPa)
#
#
# Indices 1 2 3 4 5 6 
#
# 1 109.7814 33.4724 26.1002 0.0000 0.0000 0.0000
# 2 33.4724 126.3144 28.4574 0.0000 0.0000 0.0000
# 3 26.1002 28.4574 76.8247 0.0000 0.0000 0.0000
# 4 0.0000 0.0000 0.0000 11.8307 0.0000 0.0000
# 5 0.0000 0.0000 0.0000 0.0000 16.1022 0.0000
# 6 0.0000 0.0000 0.0000 0.0000 0.0000 9.9348
#
#
#
# Elastic Compliance Matrix: (Units=1/GPa)
#
#
# Indices 1 2 3 4 5 6 
#
# 1 0.010415 -0.002141 -0.002745 0.000000 0.000000 0.000000
# 2 -0.002141 0.009078 -0.002635 0.000000 0.000000 0.000000
# 3 -0.002745 -0.002635 0.014925 0.000000 0.000000 0.000000
# 4 0.000000 0.000000 0.000000 0.084526 0.000000 0.000000
# 5 0.000000 0.000000 0.000000 0.000000 0.062103 0.000000
# 6 0.000000 0.000000 0.000000 0.000000 0.000000 0.100657
#
#
# Mechanical properties :
#
#
# Convention : Reuss Voigt Hill
#
# Bulk Modulus (GPa) = 51.61354 54.33117 52.97235
# Shear Modulus (GPa) = 16.49052 22.56624 19.52838
#
# Velocity S-wave (km/s) = 3.11999 3.64977 3.39523
# Velocity P-wave (km/s) = 6.59140 7.05923 6.82932
#
# Compressibility (1/GPa) = 0.01937476
#
# Stress axis : x y z
#
# Youngs Moduli (GPa) = 96.01971 110.15808 67.00022
#
# Poissons Ratio (x) = 0.23589 0.18392
# Poissons Ratio (y) = 0.20561 0.17655
# Poissons Ratio (z) = 0.26357 0.29028
#
# Static dielectric constant tensor:
#      x y z
#    x 3.194110 0.000000 0.000000 
#    y 0.000000 3.508800 0.000000 
#    z 0.000000 0.000000 3.710020 
# 
# 
# High freq. dielectric constant tensor:
#      x y z
#    x 1.661040 0.000000 0.000000 
#    y 0.000000 1.620810 0.000000 
#    z 0.000000 0.000000 1.657140 
# 
# From -- ./inp_files/31395.got.cif
#   From: 2010.03.12/outbox.cif.g09.slc.cpg/sg63_16_cif.got.tgz:31395.got - 2010.04.10 19:34:48.
