data_PCOD8256209
_publ_section_title
;
Structure prediction by ZEFSAII (Michael W. Deem and Ramdas Pophale) SiO2 
 PCOD8256209
Probable space group: C M C M
;
_chemical_formula_sum "Si O2"
_cell_formula_units_Z 128
_cell_length_a 12.505420
_cell_length_b 24.083790
_cell_length_c 23.153221
_cell_angle_alpha 90.000000
_cell_angle_beta 90.000000
_cell_angle_gamma 90.000000
_cell_volume 6973.238691
_symmetry_space_group_name_H-M "C M C M"
_symmetry_group_IT_number 63
_symmetry_cell_setting 'orthorhombic'
loop_
_space_group_symop_operation_xyz
x,y,z
-x,-y,1/2+z
x,-y,-z
-x,y,1/2-z
-x,-y,-z
x,y,1/2-z
-x,y,z
x,-y,1/2+z
1/2+x,1/2+y,z
1/2-x,1/2-y,1/2+z
1/2+x,1/2-y,-z
1/2-x,1/2+y,1/2-z
1/2-x,1/2-y,-z
1/2+x,1/2+y,1/2-z
1/2-x,1/2+y,z
1/2+x,1/2-y,1/2+z
loop_
_atom_site_type_symbol
_atom_site_label
_atom_site_fract_x
_atom_site_fract_y
_atom_site_fract_z
Si Si1 0.128479 0.080882 0.368835
Si Si2 0.749276 0.016305 0.816954
Si Si3 0.875125 0.426938 0.414013
Si Si4 0.885223 0.119664 0.682878
Si Si5 0.619738 0.676074 0.516349
Si Si6 0.770876 0.687215 0.884034
Si Si7 0.377430 0.298231 0.613029
Si Si8 0.691830 0.560608 0.004328
O O1 0.144153 0.145514 0.350187
O O2 0.195057 0.072730 0.427665
O O3 0.000000 0.068072 0.374572
O O4 0.190298 0.042756 0.322645
O O5 0.710990 0.022898 0.750000
O O6 0.652649 0.029340 0.861743
O O7 0.837298 0.061053 0.836253
O O8 0.854578 0.362799 0.395268
O O9 0.807896 0.440946 0.472242
O O10 0.000000 0.433842 0.428486
O O11 0.901001 0.121316 0.750000
O O12 0.810400 0.170242 0.665762
O O13 0.000000 0.126273 0.651742
O O14 0.500000 0.697654 0.528663
O O15 0.704629 0.703603 0.558878
O O16 0.658967 0.691473 0.452667
O O17 0.621713 0.608884 0.525735
O O18 0.822232 0.743902 0.860561
O O19 0.500000 0.283171 0.613576
O O20 0.637186 0.500000 0.000000
#
# Coordination Sequence:
#
# PCOD8256209 Si02
#       8
#    16  16  16  16  16  16  16  16
#     4  10  20  34  53  78 107 137 167 205 260 314
#     4  10  20  36  55  78 104 132 170 211 259 313
#     4  10  21  35  52  76 104 138 177 215 253 293
#     4   9  18  32  51  76 102 126 156 203 259 305
#     4   9  18  29  46  74 104 134 165 199 246 303
#     4  10  18  31  51  74 100 133 171 206 243 293
#     4   9  18  32  49  70 101 135 166 203 243 289
#     4  10  18  32  48  77 106 137 167 204 255 309
#
# _framework density 18.355889000000001
#
# number of rings (size 3 to 8) (size 9 to 14) (size 15 to 20)
#    0.000    2.375    1.250    2.625    0.000    2.250 
#    0.000    0.625    0.000    6.375    0.000    0.000 
#    0.000    0.000    0.000    0.000    0.000    0.000 
#
# Total GULP energy -792862.122739 kJ/mol
# GULP energy per Si atom -12388.470668 kJ/mol
# Density = 1.831411 g / cm^3
# Si number density = 18.355889 Si / 1000 Ang^3
#
#
#
# Elastic Constant Matrix: (Units=GPa)
#
#
# Indices 1 2 3 4 5 6 
#
# 1 60.8611 16.9469 16.3986 0.0000 0.0000 0.0000
# 2 16.9469 108.6394 1.8148 0.0000 0.0000 0.0000
# 3 16.3986 1.8148 23.8334 0.0000 0.0000 0.0000
# 4 0.0000 0.0000 0.0000 19.9683 0.0000 0.0000
# 5 0.0000 0.0000 0.0000 0.0000 20.2147 0.0000
# 6 0.0000 0.0000 0.0000 0.0000 0.0000 24.0124
#
#
#
# Elastic Compliance Matrix: (Units=1/GPa)
#
#
# Indices 1 2 3 4 5 6 
#
# 1 0.021139 -0.003058 -0.014312 0.000000 0.000000 0.000000
# 2 -0.003058 0.009659 0.001369 0.000000 0.000000 0.000000
# 3 -0.014312 0.001369 0.051701 0.000000 0.000000 0.000000
# 4 0.000000 0.000000 0.000000 0.050079 0.000000 0.000000
# 5 0.000000 0.000000 0.000000 0.000000 0.049469 0.000000
# 6 0.000000 0.000000 0.000000 0.000000 0.000000 0.041645
#
#
# Mechanical properties :
#
#
# Convention : Reuss Voigt Hill
#
# Bulk Modulus (GPa) = 19.80351 29.29495 24.54923
# Shear Modulus (GPa) = 18.34688 23.38400 20.86544
#
# Velocity S-wave (km/s) = 3.16493 3.57308 3.37518
# Velocity P-wave (km/s) = 4.91607 5.74601 5.34717
#
# Compressibility (1/GPa) = 0.05049609
#
# Stress axis : x y z
#
# Youngs Moduli (GPa) = 47.30678 103.53060 19.34210
#
# Poissons Ratio (x) = 0.31664 0.27682
# Poissons Ratio (y) = 0.14468 -0.02648
# Poissons Ratio (z) = 0.67703 -0.14172
#
# Static dielectric constant tensor:
#      x y z
#    x 3.191420 0.000000 0.000000 
#    y 0.000000 3.495790 0.000000 
#    z 0.000000 0.000000 3.310820 
# 
# 
# High freq. dielectric constant tensor:
#      x y z
#    x 1.693840 0.000000 0.000000 
#    y 0.000000 1.710390 0.000000 
#    z 0.000000 0.000000 1.694980 
# 
# From -- ./inp_files/62055.got.cif
#   From: 2010.03.12/outbox.cif.g09.slc.cpg/sg63_32_cif.got.tgz:62055.got - 2010.04.10 19:34:48.
