data_PCOD8256596
_publ_section_title
;
Structure prediction by ZEFSAII (Michael W. Deem and Ramdas Pophale) SiO2 
 PCOD8256596
Probable space group: C M C M
;
_chemical_formula_sum "Si O2"
_cell_formula_units_Z 128
_cell_length_a 21.319783
_cell_length_b 21.572618
_cell_length_c 18.572550
_cell_angle_alpha 90.000000
_cell_angle_beta 90.000000
_cell_angle_gamma 90.000000
_cell_volume 8541.952841
_symmetry_space_group_name_H-M "C M C M"
_symmetry_group_IT_number 63
_symmetry_cell_setting 'orthorhombic'
loop_
_space_group_symop_operation_xyz
x,y,z
-x,-y,1/2+z
x,-y,-z
-x,y,1/2-z
-x,-y,-z
x,y,1/2-z
-x,y,z
x,-y,1/2+z
1/2+x,1/2+y,z
1/2-x,1/2-y,1/2+z
1/2+x,1/2-y,-z
1/2-x,1/2+y,1/2-z
1/2-x,1/2-y,-z
1/2+x,1/2+y,1/2-z
1/2-x,1/2+y,z
1/2+x,1/2-y,1/2+z
loop_
_atom_site_type_symbol
_atom_site_label
_atom_site_fract_x
_atom_site_fract_y
_atom_site_fract_z
Si Si1 0.656106 0.099564 0.912232
Si Si2 0.332724 0.228953 0.665186
Si Si3 0.231145 0.673979 0.169885
Si Si4 0.930068 0.168901 0.335960
Si Si5 0.149950 0.592874 0.421361
Si Si6 0.758838 0.993313 0.078256
Si Si7 0.426330 0.001775 0.166272
Si Si8 0.337807 0.429369 0.829275
O O1 0.660234 0.167241 0.879951
O O2 0.727497 0.073441 0.907513
O O3 0.607741 0.058225 0.866975
O O4 0.632453 0.103123 0.995114
O O5 0.336269 0.214538 0.750000
O O6 0.266810 0.262926 0.646314
O O7 0.390838 0.271373 0.639677
O O8 0.202409 0.682117 0.250000
O O9 0.175025 0.657065 0.114412
O O10 0.281518 0.619367 0.172223
O O11 0.929566 0.165793 0.250000
O O12 0.897531 0.105503 0.365232
O O13 0.000000 0.173809 0.367703
O O14 0.203084 0.541791 0.413696
O O15 0.091217 0.564950 0.376768
O O16 0.816762 0.008024 0.130588
O O17 0.788993 0.000000 0.000000
O O18 0.406441 0.008839 0.250000
O O19 0.500000 0.990663 0.158665
O O20 0.355702 0.451834 0.750000
#
# Coordination Sequence:
#
# PCOD8256596 Si02
#       8
#    16  16  16  16  16  16  16  16
#     4  10  19  28  40  61  88 113 134 161 202 251
#     4   9  17  27  39  59  86 113 138 162 195 244
#     4   8  14  26  43  60  79 104 136 173 205 235
#     4   8  14  25  40  57  77 100 128 162 194 226
#     4   9  17  29  44  60  78 104 140 177 209 238
#     4   8  15  26  38  55  79 105 130 158 196 236
#     4  10  20  32  45  60  80 110 145 176 207 246
#     4   8  13  22  39  59  74  96 131 165 195 224
#
# _framework density 14.984864
#
# number of rings (size 3 to 8) (size 9 to 14) (size 15 to 20)
#    0.000    3.250    0.000    3.375    0.000    5.500 
#    0.000    1.250    0.000    0.375    0.000    0.000 
#    0.000    1.000    0.000    4.500    0.000    0.500 
#
# Total GULP energy -792993.053354 kJ/mol
# GULP energy per Si atom -12390.516459 kJ/mol
# Density = 1.495076 g / cm^3
# Si number density = 14.984864 Si / 1000 Ang^3
#
#
#
# Elastic Constant Matrix: (Units=GPa)
#
#
# Indices 1 2 3 4 5 6 
#
# 1 60.5088 51.6000 42.4304 0.0000 0.0000 0.0000
# 2 51.6000 65.0811 48.7822 0.0000 0.0000 0.0000
# 3 42.4304 48.7822 92.6839 0.0000 0.0000 0.0000
# 4 0.0000 0.0000 0.0000 21.4613 0.0000 0.0000
# 5 0.0000 0.0000 0.0000 0.0000 11.4116 0.0000
# 6 0.0000 0.0000 0.0000 0.0000 0.0000 17.4284
#
#
#
# Elastic Compliance Matrix: (Units=1/GPa)
#
#
# Indices 1 2 3 4 5 6 
#
# 1 0.051689 -0.038391 -0.003457 0.000000 0.000000 0.000000
# 2 -0.038391 0.053891 -0.010789 0.000000 0.000000 0.000000
# 3 -0.003457 -0.010789 0.018051 0.000000 0.000000 0.000000
# 4 0.000000 0.000000 0.000000 0.046595 0.000000 0.000000
# 5 0.000000 0.000000 0.000000 0.000000 0.087630 0.000000
# 6 0.000000 0.000000 0.000000 0.000000 0.000000 0.057378
#
#
# Mechanical properties :
#
#
# Convention : Reuss Voigt Hill
#
# Bulk Modulus (GPa) = 54.47571 55.98879 55.23225
# Shear Modulus (GPa) = 11.71985 15.09101 13.40543
#
# Velocity S-wave (km/s) = 2.79966 3.17690 2.99423
# Velocity P-wave (km/s) = 6.84716 7.13454 6.99232
#
# Compressibility (1/GPa) = 0.01835680
#
# Stress axis : x y z
#
# Youngs Moduli (GPa) = 19.34647 18.55601 55.39997
#
# Poissons Ratio (x) = 0.71238 0.19151
# Poissons Ratio (y) = 0.74273 0.59772
# Poissons Ratio (z) = 0.06688 0.20020
#
# Static dielectric constant tensor:
#      x y z
#    x 2.902080 0.000000 0.000000 
#    y 0.000000 2.841320 0.000000 
#    z 0.000000 0.000000 3.127050 
# 
# 
# High freq. dielectric constant tensor:
#      x y z
#    x 1.548670 0.000000 0.000000 
#    y 0.000000 1.553830 0.000000 
#    z 0.000000 0.000000 1.566820 
# 
# From -- ./inp_files/48485.got.cif
#   From: 2010.03.12/outbox.cif.g09.slc.cpg/sg63_25_cif.got.tgz:48485.got - 2010.04.10 19:34:48.
