data_PCOD8256022
_publ_section_title
;
Structure prediction by ZEFSAII (Michael W. Deem and Ramdas Pophale) SiO2 
 PCOD8256022
Probable space group: C M C M
;
_chemical_formula_sum "Si O2"
_cell_formula_units_Z 80
_cell_length_a 7.728103
_cell_length_b 22.215302
_cell_length_c 26.360701
_cell_angle_alpha 90.000000
_cell_angle_beta 90.000000
_cell_angle_gamma 90.000000
_cell_volume 4525.661613
_symmetry_space_group_name_H-M "C M C M"
_symmetry_group_IT_number 63
_symmetry_cell_setting 'orthorhombic'
loop_
_space_group_symop_operation_xyz
x,y,z
-x,-y,1/2+z
x,-y,-z
-x,y,1/2-z
-x,-y,-z
x,y,1/2-z
-x,y,z
x,-y,1/2+z
1/2+x,1/2+y,z
1/2-x,1/2-y,1/2+z
1/2+x,1/2-y,-z
1/2-x,1/2+y,1/2-z
1/2-x,1/2-y,-z
1/2+x,1/2+y,1/2-z
1/2-x,1/2+y,z
1/2+x,1/2-y,1/2+z
loop_
_atom_site_type_symbol
_atom_site_label
_atom_site_fract_x
_atom_site_fract_y
_atom_site_fract_z
Si Si1 0.697645 0.968637 0.142586
Si Si2 0.500000 0.600963 0.993649
Si Si3 0.806884 0.177334 0.750000
Si Si4 0.202977 0.692099 0.532509
Si Si5 0.697174 0.165529 0.643046
Si Si6 0.800279 0.964735 0.250000
Si Si7 0.000000 0.987674 0.579130
O O1 0.500000 0.973394 0.122169
O O2 0.783091 0.901048 0.139746
O O3 0.704246 0.990908 0.200811
O O4 0.823172 0.012038 0.111280
O O5 0.676402 0.638237 0.986395
O O6 0.500000 0.544746 0.957013
O O7 0.500000 0.576101 0.050700
O O8 0.733613 0.201713 0.695814
O O9 0.776841 0.106787 0.750000
O O10 0.000000 0.199415 0.750000
O O11 0.250000 0.750000 0.500000
O O12 0.245735 0.704023 0.592621
O O13 0.000000 0.675429 0.525417
O O14 0.500000 0.148453 0.642579
O O15 0.000000 0.983760 0.250000
#
# Coordination Sequence:
#
# PCOD8256022 Si02
#       7
#    16   8   8  16  16   8   8
#     4  10  18  30  48  74 108 144 177 219 273 330
#     4  11  24  38  54  80 110 141 194 228 274 323
#     4   9  17  23  43  71 102 139 166 212 271 330
#     4  11  22  37  59  81 106 146 189 234 276 325
#     4   9  18  30  46  73 106 138 175 216 272 329
#     4   9  15  25  45  72 103 138 180 214 265 335
#     4  11  22  35  54  76 112 155 174 225 276 332
#
# _framework density 17.676973
#
# number of rings (size 3 to 8) (size 9 to 14) (size 15 to 20)
#    0.000    2.000    4.000    0.600    2.800    3.200 
#    0.000    2.000    0.000    0.000    0.000    2.800 
#    0.000    0.000    0.000    0.000    0.000    0.000 
#
# Total GULP energy -495531.248627 kJ/mol
# GULP energy per Si atom -12388.281216 kJ/mol
# Density = 1.763674 g / cm^3
# Si number density = 17.676973 Si / 1000 Ang^3
#
#
#
# Elastic Constant Matrix: (Units=GPa)
#
#
# Indices 1 2 3 4 5 6 
#
# 1 106.5005 29.7522 56.3387 0.0000 0.0000 0.0000
# 2 29.7522 44.0683 46.7951 0.0000 0.0000 0.0000
# 3 56.3387 46.7951 160.0760 0.0000 0.0000 0.0000
# 4 0.0000 0.0000 0.0000 15.6248 0.0000 0.0000
# 5 0.0000 0.0000 0.0000 0.0000 28.4159 0.0000
# 6 0.0000 0.0000 0.0000 0.0000 0.0000 12.5605
#
#
#
# Elastic Compliance Matrix: (Units=1/GPa)
#
#
# Indices 1 2 3 4 5 6 
#
# 1 0.012366 -0.005405 -0.002772 0.000000 0.000000 0.000000
# 2 -0.005405 0.035270 -0.008408 0.000000 0.000000 0.000000
# 3 -0.002772 -0.008408 0.009681 0.000000 0.000000 0.000000
# 4 0.000000 0.000000 0.000000 0.064001 0.000000 0.000000
# 5 0.000000 0.000000 0.000000 0.000000 0.035192 0.000000
# 6 0.000000 0.000000 0.000000 0.000000 0.000000 0.079615
#
#
# Mechanical properties :
#
#
# Convention : Reuss Voigt Hill
#
# Bulk Modulus (GPa) = 41.41539 64.04632 52.73085
# Shear Modulus (GPa) = 18.02824 23.17082 20.59953
#
# Velocity S-wave (km/s) = 3.19701 3.62441 3.41740
# Velocity P-wave (km/s) = 6.09161 7.33657 6.74288
#
# Compressibility (1/GPa) = 0.02414561
#
# Stress axis : x y z
#
# Youngs Moduli (GPa) = 80.86631 28.35304 103.29915
#
# Poissons Ratio (x) = 0.15325 0.28636
# Poissons Ratio (y) = 0.43709 0.86854
# Poissons Ratio (z) = 0.22417 0.23839
#
# Static dielectric constant tensor:
#      x y z
#    x 3.487870 0.000000 0.000000 
#    y 0.000000 2.753420 0.000000 
#    z 0.000000 0.000000 -1.066610 
# 
# 
# High freq. dielectric constant tensor:
#      x y z
#    x 1.698080 0.000000 0.000000 
#    y 0.000000 1.601040 0.000000 
#    z 0.000000 0.000000 1.705190 
# 
# From -- ./inp_files/59800.got.cif
#   From: 2010.03.12/outbox.cif.g09.slc.cpg/sg63_30_cif.got.tgz:59800.got - 2010.04.10 19:34:48.
