data_PCOD8256792
_publ_section_title
;
Structure prediction by ZEFSAII (Michael W. Deem and Ramdas Pophale) SiO2 
 PCOD8256792
Probable space group: C M C M
;
_chemical_formula_sum "Si O2"
_cell_formula_units_Z 80
_cell_length_a 8.848995
_cell_length_b 27.911740
_cell_length_c 18.229941
_cell_angle_alpha 90.000000
_cell_angle_beta 90.000000
_cell_angle_gamma 90.000000
_cell_volume 4502.628581
_symmetry_space_group_name_H-M "C M C M"
_symmetry_group_IT_number 63
_symmetry_cell_setting 'orthorhombic'
loop_
_space_group_symop_operation_xyz
x,y,z
-x,-y,1/2+z
x,-y,-z
-x,y,1/2-z
-x,-y,-z
x,y,1/2-z
-x,y,z
x,-y,1/2+z
1/2+x,1/2+y,z
1/2-x,1/2-y,1/2+z
1/2+x,1/2-y,-z
1/2-x,1/2+y,1/2-z
1/2-x,1/2-y,-z
1/2+x,1/2+y,1/2-z
1/2-x,1/2+y,z
1/2+x,1/2-y,1/2+z
loop_
_atom_site_type_symbol
_atom_site_label
_atom_site_fract_x
_atom_site_fract_y
_atom_site_fract_z
Si Si1 0.323560 0.403874 0.170518
Si Si2 0.323220 0.693191 0.906040
Si Si3 0.179990 0.947848 0.477056
Si Si4 0.322569 0.143361 0.039868
Si Si5 0.178304 0.289431 0.831731
O O1 0.248997 0.416111 0.250000
O O2 0.500000 0.413863 0.175626
O O3 0.292718 0.348436 0.152979
O O4 0.257662 0.437020 0.105156
O O5 0.500000 0.696851 0.925648
O O6 0.257257 0.741884 0.871290
O O7 0.234671 0.681765 0.980545
O O8 0.243351 0.908187 0.532768
O O9 0.000000 0.944516 0.479967
O O10 0.239506 0.000000 0.500000
O O11 0.500000 0.136590 0.029684
O O12 0.281015 0.163876 0.120244
O O13 0.248086 0.295338 0.750000
O O14 0.000000 0.282840 0.825632
#
# Coordination Sequence:
#
# PCOD8256792 Si02
#       5
#    16  16  16  16  16
#     4   8  13  23  43  69  89 108 143 190 231 264
#     4   9  16  28  48  69  91 122 158 192 222 261
#     4   9  18  33  51  68  88 117 155 197 236 277
#     4  10  19  30  47  70  95 122 152 190 234 278
#     4   9  17  29  46  69  96 128 163 189 213 260
#
# _framework density 17.767399000000001
#
# number of rings (size 3 to 8) (size 9 to 14) (size 15 to 20)
#    0.000    3.000    0.000    3.000    0.000    2.800 
#    0.000    2.000    0.000   21.000    0.000    0.000 
#    0.000    0.000    0.000    0.000    0.000    0.000 
#
# Total GULP energy -495781.815611 kJ/mol
# GULP energy per Si atom -12394.545390 kJ/mol
# Density = 1.772696 g / cm^3
# Si number density = 17.767399 Si / 1000 Ang^3
#
#
#
# Elastic Constant Matrix: (Units=GPa)
#
#
# Indices 1 2 3 4 5 6 
#
# 1 23.8580 22.7217 22.9738 0.0000 0.0000 0.0000
# 2 22.7217 141.5322 80.6754 0.0000 0.0000 0.0000
# 3 22.9738 80.6754 124.7161 0.0000 0.0000 0.0000
# 4 0.0000 0.0000 0.0000 18.7694 0.0000 0.0000
# 5 0.0000 0.0000 0.0000 0.0000 17.3897 0.0000
# 6 0.0000 0.0000 0.0000 0.0000 0.0000 20.6995
#
#
#
# Elastic Compliance Matrix: (Units=1/GPa)
#
#
# Indices 1 2 3 4 5 6 
#
# 1 0.052814 -0.004647 -0.006723 0.000000 0.000000 0.000000
# 2 -0.004647 0.011601 -0.006649 0.000000 0.000000 0.000000
# 3 -0.006723 -0.006649 0.013557 0.000000 0.000000 0.000000
# 4 0.000000 0.000000 0.000000 0.053278 0.000000 0.000000
# 5 0.000000 0.000000 0.000000 0.000000 0.057505 0.000000
# 6 0.000000 0.000000 0.000000 0.000000 0.000000 0.048310
#
#
# Mechanical properties :
#
#
# Convention : Reuss Voigt Hill
#
# Bulk Modulus (GPa) = 23.84580 60.31647 42.08113
# Shear Modulus (GPa) = 17.41666 22.28742 19.85204
#
# Velocity S-wave (km/s) = 3.13431 3.54559 3.34627
# Velocity P-wave (km/s) = 5.15255 7.12623 6.21819
#
# Compressibility (1/GPa) = 0.04193610
#
# Stress axis : x y z
#
# Youngs Moduli (GPa) = 18.93447 86.19722 73.76012
#
# Poissons Ratio (x) = 0.40052 0.49589
# Poissons Ratio (y) = 0.08798 0.49040
# Poissons Ratio (z) = 0.12730 0.57309
#
# Static dielectric constant tensor:
#      x y z
#    x 2.900300 0.000000 0.000000 
#    y 0.000000 3.304860 0.000000 
#    z 0.000000 0.000000 3.697590 
# 
# 
# High freq. dielectric constant tensor:
#      x y z
#    x 1.644810 0.000000 0.000000 
#    y 0.000000 1.678600 0.000000 
#    z 0.000000 0.000000 1.693230 
# 
# From -- ./inp_files/40717.got.cif
#   From: 2010.03.12/outbox.cif.g09.slc.cpg/sg63_21_cif.got.tgz:40717.got - 2010.04.10 19:34:48.
