data_PCOD8256785
_publ_section_title
;
Structure prediction by ZEFSAII (Michael W. Deem and Ramdas Pophale) SiO2 
 PCOD8256785
Probable space group: C M C M
;
_chemical_formula_sum "Si O2"
_cell_formula_units_Z 96
_cell_length_a 8.922607
_cell_length_b 27.118028
_cell_length_c 22.881760
_cell_angle_alpha 90.000000
_cell_angle_beta 90.000000
_cell_angle_gamma 90.000000
_cell_volume 5536.550884
_symmetry_space_group_name_H-M "C M C M"
_symmetry_group_IT_number 63
_symmetry_cell_setting 'orthorhombic'
loop_
_space_group_symop_operation_xyz
x,y,z
-x,-y,1/2+z
x,-y,-z
-x,y,1/2-z
-x,-y,-z
x,y,1/2-z
-x,y,z
x,-y,1/2+z
1/2+x,1/2+y,z
1/2-x,1/2-y,1/2+z
1/2+x,1/2-y,-z
1/2-x,1/2+y,1/2-z
1/2-x,1/2-y,-z
1/2+x,1/2+y,1/2-z
1/2-x,1/2+y,z
1/2+x,1/2-y,1/2+z
loop_
_atom_site_type_symbol
_atom_site_label
_atom_site_fract_x
_atom_site_fract_y
_atom_site_fract_z
Si Si1 0.321304 0.506426 0.750000
Si Si2 0.323030 0.399398 0.952220
Si Si3 0.174527 0.117844 0.750000
Si Si4 0.327936 0.037848 0.136440
Si Si5 0.324801 0.639723 0.625020
Si Si6 0.328615 0.056063 0.559126
Si Si7 0.174115 0.800604 0.015805
O O1 0.500000 0.504973 0.750000
O O2 0.255456 0.562527 0.750000
O O3 0.263101 0.478023 0.693205
O O4 0.500000 0.403104 0.944192
O O5 0.243158 0.412082 0.890668
O O6 0.273043 0.438169 0.001863
O O7 0.273036 0.344593 0.972833
O O8 0.217626 0.150209 0.807186
O O9 0.000000 0.107729 0.750000
O O10 0.500000 0.046997 0.154133
O O11 0.313298 0.998355 0.084610
O O12 0.500000 0.626278 0.616918
O O13 0.226878 0.592583 0.609326
O O14 0.284257 0.685597 0.583071
O O15 0.500000 0.067852 0.542137
O O16 0.000000 0.792108 0.008578
O O17 0.250000 0.750000 0.000000
#
# Coordination Sequence:
#
# PCOD8256785 Si02
#       7
#     8  16   8  16  16  16  16
#     4  11  21  33  53  74  99 146 185 208 245 298
#     4  10  21  35  52  74  98 131 174 214 253 308
#     4   9  16  29  51  74 101 134 171 206 243 294
#     4  11  22  34  48  72 107 140 172 212 254 297
#     4   9  17  31  50  75 102 133 171 210 250 307
#     4  10  19  30  46  72 105 137 166 204 254 301
#     4   9  19  34  54  77 101 127 165 216 270 318
#
# _framework density 17.339314999999999
#
# number of rings (size 3 to 8) (size 9 to 14) (size 15 to 20)
#    0.000    2.167    1.667    3.250    0.000    7.333 
#    0.000    0.417    0.000    1.000    0.000    3.500 
#    0.000    0.000    0.000    0.000    0.000    0.000 
#
# Total GULP energy -594979.772572 kJ/mol
# GULP energy per Si atom -12395.411929 kJ/mol
# Density = 1.729985 g / cm^3
# Si number density = 17.339315 Si / 1000 Ang^3
#
#
#
# Elastic Constant Matrix: (Units=GPa)
#
#
# Indices 1 2 3 4 5 6 
#
# 1 69.6536 40.6140 35.5643 0.0000 0.0000 0.0000
# 2 40.6140 94.3497 67.1780 0.0000 0.0000 0.0000
# 3 35.5643 67.1780 115.9156 0.0000 0.0000 0.0000
# 4 0.0000 0.0000 0.0000 16.9911 0.0000 0.0000
# 5 0.0000 0.0000 0.0000 0.0000 23.5835 0.0000
# 6 0.0000 0.0000 0.0000 0.0000 0.0000 26.6686
#
#
#
# Elastic Compliance Matrix: (Units=1/GPa)
#
#
# Indices 1 2 3 4 5 6 
#
# 1 0.019409 -0.007006 -0.001895 0.000000 0.000000 0.000000
# 2 -0.007006 0.020574 -0.009774 0.000000 0.000000 0.000000
# 3 -0.001895 -0.009774 0.014873 0.000000 0.000000 0.000000
# 4 0.000000 0.000000 0.000000 0.058854 0.000000 0.000000
# 5 0.000000 0.000000 0.000000 0.000000 0.042403 0.000000
# 6 0.000000 0.000000 0.000000 0.000000 0.000000 0.037497
#
#
# Mechanical properties :
#
#
# Convention : Reuss Voigt Hill
#
# Bulk Modulus (GPa) = 57.12123 62.95905 60.04014
# Shear Modulus (GPa) = 21.11537 22.55280 21.83409
#
# Velocity S-wave (km/s) = 3.49345 3.61040 3.55240
# Velocity P-wave (km/s) = 7.02047 7.33272 7.17829
#
# Compressibility (1/GPa) = 0.01750663
#
# Stress axis : x y z
#
# Youngs Moduli (GPa) = 51.52189 48.60577 67.23732
#
# Poissons Ratio (x) = 0.34052 0.12740
# Poissons Ratio (y) = 0.36095 0.65717
# Poissons Ratio (z) = 0.09762 0.47507
#
# Static dielectric constant tensor:
#      x y z
#    x 3.254600 0.000000 0.000000 
#    y 0.000000 3.056770 0.000000 
#    z 0.000000 0.000000 3.586290 
# 
# 
# High freq. dielectric constant tensor:
#      x y z
#    x 1.671230 0.000000 0.000000 
#    y 0.000000 1.635280 0.000000 
#    z 0.000000 0.000000 1.673790 
# 
# From -- ./inp_files/59993.got.cif
#   From: 2010.03.12/outbox.cif.g09.slc.cpg/sg63_30_cif.got.tgz:59993.got - 2010.04.10 19:34:48.
