data_PCOD8256784
_publ_section_title
;
Structure prediction by ZEFSAII (Michael W. Deem and Ramdas Pophale) SiO2 
 PCOD8256784
Probable space group: C M C M
;
_chemical_formula_sum "Si O2"
_cell_formula_units_Z 128
_cell_length_a 18.667831
_cell_length_b 23.936881
_cell_length_c 17.043253
_cell_angle_alpha 90.000000
_cell_angle_beta 90.000000
_cell_angle_gamma 90.000000
_cell_volume 7615.771624
_symmetry_space_group_name_H-M "C M C M"
_symmetry_group_IT_number 63
_symmetry_cell_setting 'orthorhombic'
loop_
_space_group_symop_operation_xyz
x,y,z
-x,-y,1/2+z
x,-y,-z
-x,y,1/2-z
-x,-y,-z
x,y,1/2-z
-x,y,z
x,-y,1/2+z
1/2+x,1/2+y,z
1/2-x,1/2-y,1/2+z
1/2+x,1/2-y,-z
1/2-x,1/2+y,1/2-z
1/2-x,1/2-y,-z
1/2+x,1/2+y,1/2-z
1/2-x,1/2+y,z
1/2+x,1/2-y,1/2+z
loop_
_atom_site_type_symbol
_atom_site_label
_atom_site_fract_x
_atom_site_fract_y
_atom_site_fract_z
Si Si1 0.084508 0.700299 0.105644
Si Si2 0.622210 0.378267 0.052188
Si Si3 0.695116 0.714052 0.162616
Si Si4 0.919456 0.978524 0.341358
Si Si5 0.301881 0.885671 0.839054
Si Si6 0.077186 0.775135 0.535267
Si Si7 0.319017 0.293170 0.162245
Si Si8 0.199341 0.955354 0.565667
O O1 0.128034 0.642831 0.121496
O O2 0.113462 0.750284 0.161001
O O3 0.000000 0.690418 0.121679
O O4 0.099367 0.721108 0.016515
O O5 0.580055 0.423449 0.104151
O O6 0.678343 0.347763 0.108984
O O7 0.570194 0.330038 0.019827
O O8 0.664623 0.403178 0.978687
O O9 0.667729 0.727777 0.250000
O O10 0.734301 0.655058 0.162397
O O11 0.628866 0.713288 0.106010
O O12 0.749405 0.760766 0.131971
O O13 0.903104 0.964202 0.250000
O O14 0.000000 0.004241 0.348692
O O15 0.860022 0.021417 0.373226
O O16 0.321917 0.903679 0.750000
O O17 0.272718 0.938671 0.888891
O O18 0.000000 0.763726 0.572667
O O19 0.310050 0.314886 0.250000
O O20 0.221747 0.000000 0.500000
#
# Coordination Sequence:
#
# PCOD8256784 Si02
#       8
#    16  16  16  16  16  16  16  16
#     4   9  19  31  49  76 101 127 155 191 241 291
#     4  10  19  31  50  69  94 128 164 197 235 289
#     4   9  18  31  47  70  99 133 166 196 233 280
#     4  10  21  36  51  67  94 129 165 206 246 283
#     4  10  19  33  52  72  98 127 160 201 241 291
#     4  10  19  30  46  72 104 131 161 199 232 278
#     4   9  18  30  48  73 101 128 158 197 232 280
#     4  10  21  34  50  72  92 125 165 209 242 280
#
# _framework density 16.807227000000001
#
# number of rings (size 3 to 8) (size 9 to 14) (size 15 to 20)
#    0.000    2.375    1.250    2.250    1.750    6.000 
#    0.000    0.000    0.000    0.375    0.000    0.000 
#    0.000    0.000    0.000    0.000    0.000    0.000 
#
# Total GULP energy -793121.907301 kJ/mol
# GULP energy per Si atom -12392.529802 kJ/mol
# Density = 1.676897 g / cm^3
# Si number density = 16.807227 Si / 1000 Ang^3
#
#
#
# Elastic Constant Matrix: (Units=GPa)
#
#
# Indices 1 2 3 4 5 6 
#
# 1 89.2837 37.4243 51.5849 0.0000 0.0000 0.0000
# 2 37.4243 60.3441 29.9895 0.0000 0.0000 0.0000
# 3 51.5849 29.9895 81.5529 0.0000 0.0000 0.0000
# 4 0.0000 0.0000 0.0000 26.5873 0.0000 0.0000
# 5 0.0000 0.0000 0.0000 0.0000 24.4760 0.0000
# 6 0.0000 0.0000 0.0000 0.0000 0.0000 18.7160
#
#
#
# Elastic Compliance Matrix: (Units=1/GPa)
#
#
# Indices 1 2 3 4 5 6 
#
# 1 0.020101 -0.007522 -0.009948 0.000000 0.000000 0.000000
# 2 -0.007522 0.023092 -0.003734 0.000000 0.000000 0.000000
# 3 -0.009948 -0.003734 0.019928 0.000000 0.000000 0.000000
# 4 0.000000 0.000000 0.000000 0.037612 0.000000 0.000000
# 5 0.000000 0.000000 0.000000 0.000000 0.040856 0.000000
# 6 0.000000 0.000000 0.000000 0.000000 0.000000 0.053430
#
#
# Mechanical properties :
#
#
# Convention : Reuss Voigt Hill
#
# Bulk Modulus (GPa) = 48.28030 52.13090 50.20560
# Shear Modulus (GPa) = 20.46389 21.43465 20.94927
#
# Velocity S-wave (km/s) = 3.49315 3.57504 3.53433
# Velocity P-wave (km/s) = 6.71250 6.93726 6.82581
#
# Compressibility (1/GPa) = 0.02071238
#
# Stress axis : x y z
#
# Youngs Moduli (GPa) = 49.74838 43.30444 50.18134
#
# Poissons Ratio (x) = 0.32575 0.49923
# Poissons Ratio (y) = 0.37422 0.18736
# Poissons Ratio (z) = 0.49492 0.16169
#
# Static dielectric constant tensor:
#      x y z
#    x 2.994190 0.000000 0.000000 
#    y 0.000000 3.033910 0.000000 
#    z 0.000000 0.000000 3.303000 
# 
# 
# High freq. dielectric constant tensor:
#      x y z
#    x 1.630150 0.000000 0.000000 
#    y 0.000000 1.624790 0.000000 
#    z 0.000000 0.000000 1.659820 
# 
# From -- ./inp_files/46328.got.cif
#   From: 2010.03.12/outbox.cif.g09.slc.cpg/sg63_24_cif.got.tgz:46328.got - 2010.04.10 19:34:48.
