data_PCOD8256285
_publ_section_title
;
Structure prediction by ZEFSAII (Michael W. Deem and Ramdas Pophale) SiO2 
 PCOD8256285
Probable space group: C M C M
;
_chemical_formula_sum "Si O2"
_cell_formula_units_Z 96
_cell_length_a 9.045787
_cell_length_b 30.220902
_cell_length_c 19.117250
_cell_angle_alpha 90.000000
_cell_angle_beta 90.000000
_cell_angle_gamma 90.000000
_cell_volume 5226.117855
_symmetry_space_group_name_H-M "C M C M"
_symmetry_group_IT_number 63
_symmetry_cell_setting 'orthorhombic'
loop_
_space_group_symop_operation_xyz
x,y,z
-x,-y,1/2+z
x,-y,-z
-x,y,1/2-z
-x,-y,-z
x,y,1/2-z
-x,y,z
x,-y,1/2+z
1/2+x,1/2+y,z
1/2-x,1/2-y,1/2+z
1/2+x,1/2-y,-z
1/2-x,1/2+y,1/2-z
1/2-x,1/2-y,-z
1/2+x,1/2+y,1/2-z
1/2-x,1/2+y,z
1/2+x,1/2-y,1/2+z
loop_
_atom_site_type_symbol
_atom_site_label
_atom_site_fract_x
_atom_site_fract_y
_atom_site_fract_z
Si Si1 0.675139 0.694649 0.171937
Si Si2 0.324866 0.531145 0.172615
Si Si3 0.173263 0.731201 0.567902
Si Si4 0.176013 0.887947 0.918900
Si Si5 0.826292 0.630328 0.936368
Si Si6 0.669047 0.432116 0.167674
O O1 0.743987 0.693149 0.250000
O O2 0.500000 0.691372 0.177199
O O3 0.724329 0.740383 0.135201
O O4 0.734544 0.653528 0.126382
O O5 0.258757 0.540701 0.250000
O O6 0.500000 0.534432 0.177922
O O7 0.265252 0.567420 0.118253
O O8 0.280845 0.481956 0.147379
O O9 0.250000 0.750000 0.500000
O O10 0.220061 0.680681 0.580212
O O11 0.000000 0.736312 0.555691
O O12 0.000000 0.887204 0.926099
O O13 0.244958 0.887097 0.995179
O O14 0.777175 0.601599 0.870457
O O15 0.000000 0.625788 0.947758
O O16 0.685737 0.424738 0.250000
O O17 0.500000 0.423829 0.144126
#
# Coordination Sequence:
#
# PCOD8256285 Si02
#       6
#    16  16  16  16  16  16
#     4   9  17  30  52  81 104 127 168 219 266 311
#     4   8  15  30  54  82 106 131 172 226 274 309
#     4  10  20  35  54  75 103 140 176 216 260 309
#     4  10  18  31  55  81 105 136 173 218 265 316
#     4  11  23  35  51  77 110 146 177 213 261 315
#     4   9  19  37  58  78 103 136 177 224 267 312
#
# _framework density 18.369274999999998
#
# number of rings (size 3 to 8) (size 9 to 14) (size 15 to 20)
#    0.000    2.500    1.667    2.000    0.000    4.333 
#    0.000    5.833    0.000    4.500    0.000    0.000 
#    0.000    0.000    0.000    0.000    0.000    0.000 
#
# Total GULP energy -595156.434862 kJ/mol
# GULP energy per Si atom -12399.092393 kJ/mol
# Density = 1.832747 g / cm^3
# Si number density = 18.369275 Si / 1000 Ang^3
#
#
#
# Elastic Constant Matrix: (Units=GPa)
#
#
# Indices 1 2 3 4 5 6 
#
# 1 28.9622 33.8476 24.3541 0.0000 0.0000 0.0000
# 2 33.8476 157.4796 68.5439 0.0000 0.0000 0.0000
# 3 24.3541 68.5439 101.3234 0.0000 0.0000 0.0000
# 4 0.0000 0.0000 0.0000 36.9539 0.0000 0.0000
# 5 0.0000 0.0000 0.0000 0.0000 20.4863 0.0000
# 6 0.0000 0.0000 0.0000 0.0000 0.0000 23.3451
#
#
#
# Elastic Compliance Matrix: (Units=1/GPa)
#
#
# Indices 1 2 3 4 5 6 
#
# 1 0.049038 -0.007667 -0.006600 0.000000 0.000000 0.000000
# 2 -0.007667 0.010199 -0.005056 0.000000 0.000000 0.000000
# 3 -0.006600 -0.005056 0.014876 0.000000 0.000000 0.000000
# 4 0.000000 0.000000 0.000000 0.027061 0.000000 0.000000
# 5 0.000000 0.000000 0.000000 0.000000 0.048813 0.000000
# 6 0.000000 0.000000 0.000000 0.000000 0.000000 0.042836
#
#
# Mechanical properties :
#
#
# Convention : Reuss Voigt Hill
#
# Bulk Modulus (GPa) = 28.19602 60.13961 44.16781
# Shear Modulus (GPa) = 20.55137 26.89168 23.72152
#
# Velocity S-wave (km/s) = 3.34846 3.83031 3.59746
# Velocity P-wave (km/s) = 5.50749 7.23685 6.43057
#
# Compressibility (1/GPa) = 0.03546600
#
# Stress axis : x y z
#
# Youngs Moduli (GPa) = 20.39219 98.05041 67.22045
#
# Poissons Ratio (x) = 0.75178 0.44366
# Poissons Ratio (y) = 0.15635 0.33990
# Poissons Ratio (z) = 0.13459 0.49579
#
# Static dielectric constant tensor:
#      x y z
#    x 2.998470 0.000000 0.000000 
#    y 0.000000 3.748860 0.000000 
#    z 0.000000 0.000000 3.432160 
# 
# 
# High freq. dielectric constant tensor:
#      x y z
#    x 1.669620 0.000000 0.000000 
#    y 0.000000 1.727310 0.000000 
#    z 0.000000 0.000000 1.717290 
# 
# From -- ./inp_files/51279.got.cif
#   From: 2010.03.12/outbox.cif.g09.slc.cpg/sg63_26_cif.got.tgz:51279.got - 2010.04.10 19:34:48.
