data_PCOD8256778
_publ_section_title
;
Structure prediction by ZEFSAII (Michael W. Deem and Ramdas Pophale) SiO2 
 PCOD8256778
Probable space group: C M C M
;
_chemical_formula_sum "Si O2"
_cell_formula_units_Z 96
_cell_length_a 9.179572
_cell_length_b 28.289519
_cell_length_c 20.842638
_cell_angle_alpha 90.000000
_cell_angle_beta 90.000000
_cell_angle_gamma 90.000000
_cell_volume 5412.534549
_symmetry_space_group_name_H-M "C M C M"
_symmetry_group_IT_number 63
_symmetry_cell_setting 'orthorhombic'
loop_
_space_group_symop_operation_xyz
x,y,z
-x,-y,1/2+z
x,-y,-z
-x,y,1/2-z
-x,-y,-z
x,y,1/2-z
-x,y,z
x,-y,1/2+z
1/2+x,1/2+y,z
1/2-x,1/2-y,1/2+z
1/2+x,1/2-y,-z
1/2-x,1/2+y,1/2-z
1/2-x,1/2-y,-z
1/2+x,1/2+y,1/2-z
1/2-x,1/2+y,z
1/2+x,1/2-y,1/2+z
loop_
_atom_site_type_symbol
_atom_site_label
_atom_site_fract_x
_atom_site_fract_y
_atom_site_fract_z
Si Si1 0.337990 0.526200 0.568047
Si Si2 0.659405 0.145092 0.176219
Si Si3 0.669365 0.214642 0.951718
Si Si4 0.168783 0.235777 0.176780
Si Si5 0.672008 0.571952 0.391512
Si Si6 0.171948 0.391840 0.482212
O O1 0.336354 0.500000 0.500000
O O2 0.500000 0.545502 0.582855
O O3 0.293361 0.484058 0.617004
O O4 0.227336 0.570292 0.571281
O O5 0.633568 0.153260 0.250000
O O6 0.500000 0.140506 0.142133
O O7 0.742963 0.190833 0.149788
O O8 0.757769 0.098336 0.168799
O O9 0.500000 0.221080 0.966625
O O10 0.702148 0.223975 0.876022
O O11 0.719049 0.160792 0.962673
O O12 0.750000 0.250000 0.000000
O O13 0.213901 0.251251 0.250000
O O14 0.000000 0.221578 0.176604
O O15 0.500000 0.580457 0.396868
O O16 0.748629 0.596182 0.452065
O O17 0.000000 0.397491 0.489208
#
# Coordination Sequence:
#
# PCOD8256778 Si02
#       6
#    16  16  16  16  16  16
#     4   8  16  30  46  66  91 120 154 188 225 277
#     4  10  20  32  47  70  97 121 151 194 240 284
#     4  10  21  33  47  72 100 126 159 200 244 286
#     4   9  18  34  53  69  91 128 168 198 230 282
#     4  10  19  31  48  69  94 124 158 192 230 283
#     4  10  19  30  46  70  98 124 154 195 241 284
#
# _framework density 17.736606999999999
#
# number of rings (size 3 to 8) (size 9 to 14) (size 15 to 20)
#    0.000    2.500    0.000    3.500    0.000    9.333 
#    0.000    0.000    0.000    1.000    0.000    2.333 
#    0.000    0.000    0.000    0.000    0.000    0.000 
#
# Total GULP energy -594796.855993 kJ/mol
# GULP energy per Si atom -12391.601167 kJ/mol
# Density = 1.769624 g / cm^3
# Si number density = 17.736607 Si / 1000 Ang^3
#
#
#
# Elastic Constant Matrix: (Units=GPa)
#
#
# Indices 1 2 3 4 5 6 
#
# 1 93.0407 65.4258 26.5881 0.0000 0.0000 0.0000
# 2 65.4258 137.1505 36.6089 0.0000 0.0000 0.0000
# 3 26.5881 36.6089 49.8698 0.0000 0.0000 0.0000
# 4 0.0000 0.0000 0.0000 27.2561 0.0000 0.0000
# 5 0.0000 0.0000 0.0000 0.0000 20.2602 0.0000
# 6 0.0000 0.0000 0.0000 0.0000 0.0000 30.2499
#
#
#
# Elastic Compliance Matrix: (Units=1/GPa)
#
#
# Indices 1 2 3 4 5 6 
#
# 1 0.016735 -0.006967 -0.003808 0.000000 0.000000 0.000000
# 2 -0.006967 0.011968 -0.005072 0.000000 0.000000 0.000000
# 3 -0.003808 -0.005072 0.025805 0.000000 0.000000 0.000000
# 4 0.000000 0.000000 0.000000 0.036689 0.000000 0.000000
# 5 0.000000 0.000000 0.000000 0.000000 0.049358 0.000000
# 6 0.000000 0.000000 0.000000 0.000000 0.000000 0.033058
#
#
# Mechanical properties :
#
#
# Convention : Reuss Voigt Hill
#
# Bulk Modulus (GPa) = 43.82854 59.70073 51.76463
# Shear Modulus (GPa) = 23.48384 25.64913 24.56648
#
# Velocity S-wave (km/s) = 3.64267 3.80690 3.72569
# Velocity P-wave (km/s) = 6.51587 7.28396 6.91059
#
# Compressibility (1/GPa) = 0.02281619
#
# Stress axis : x y z
#
# Youngs Moduli (GPa) = 59.75393 83.55315 38.75145
#
# Poissons Ratio (x) = 0.58210 0.14757
# Poissons Ratio (y) = 0.41630 0.19653
# Poissons Ratio (z) = 0.22755 0.42374
#
# Static dielectric constant tensor:
#      x y z
#    x 3.652250 0.000000 0.000000 
#    y 0.000000 3.749600 0.000000 
#    z 0.000000 0.000000 3.253910 
# 
# 
# High freq. dielectric constant tensor:
#      x y z
#    x 1.695710 0.000000 0.000000 
#    y 0.000000 1.684610 0.000000 
#    z 0.000000 0.000000 1.655440 
# 
# From -- ./inp_files/59968.got.cif
#   From: 2010.03.12/outbox.cif.g09.slc.cpg/sg63_30_cif.got.tgz:59968.got - 2010.04.10 19:34:48.
