data_PCOD8256185
_publ_section_title
;
Structure prediction by ZEFSAII (Michael W. Deem and Ramdas Pophale) SiO2 
 PCOD8256185
Probable space group: C M C M
;
_chemical_formula_sum "Si O2"
_cell_formula_units_Z 80
_cell_length_a 29.351374
_cell_length_b 8.862393
_cell_length_c 16.022639
_cell_angle_alpha 90.000000
_cell_angle_beta 90.000000
_cell_angle_gamma 90.000000
_cell_volume 4167.863518
_symmetry_space_group_name_H-M "C M C M"
_symmetry_group_IT_number 63
_symmetry_cell_setting 'orthorhombic'
loop_
_space_group_symop_operation_xyz
x,y,z
-x,-y,1/2+z
x,-y,-z
-x,y,1/2-z
-x,-y,-z
x,y,1/2-z
-x,y,z
x,-y,1/2+z
1/2+x,1/2+y,z
1/2-x,1/2-y,1/2+z
1/2+x,1/2-y,-z
1/2-x,1/2+y,1/2-z
1/2-x,1/2-y,-z
1/2+x,1/2+y,1/2-z
1/2-x,1/2+y,z
1/2+x,1/2-y,1/2+z
loop_
_atom_site_type_symbol
_atom_site_label
_atom_site_fract_x
_atom_site_fract_y
_atom_site_fract_z
Si Si1 0.197498 0.636883 0.651235
Si Si2 0.606636 0.700402 0.344454
Si Si3 0.632716 0.596560 0.916980
Si Si4 0.287646 0.200289 0.150684
Si Si5 0.950514 0.178892 0.498712
O O1 0.198674 0.632828 0.750000
O O2 0.149324 0.702338 0.621078
O O3 0.238020 0.745620 0.619943
O O4 0.204820 0.468370 0.616322
O O5 0.593129 0.745633 0.250000
O O6 0.620075 0.523095 0.344783
O O7 0.564371 0.734198 0.406124
O O8 0.675689 0.692094 0.891042
O O9 0.643383 0.500000 0.000000
O O10 0.589835 0.712022 0.934262
O O11 0.292874 0.209725 0.250000
O O12 0.000000 0.252860 0.520747
O O13 0.956067 0.000000 0.500000
#
# Coordination Sequence:
#
# PCOD8256185 Si02
#       5
#    16  16  16  16  16
#     4   9  18  30  48  73  97 122 154 195 235 274
#     4   9  16  29  49  72  95 120 156 195 232 277
#     4   9  18  31  47  69  96 127 156 192 234 276
#     4  10  18  31  50  69  94 127 159 189 229 279
#     4   8  16  31  48  68  95 122 151 194 241 276
#
# _framework density 19.194486000000001
#
# number of rings (size 3 to 8) (size 9 to 14) (size 15 to 20)
#    0.000    3.400    0.000    1.800    0.000    3.600 
#    0.000   13.000    0.000    4.200    0.000    2.800 
#    0.000    0.000    0.000    0.000    0.000    0.000 
#
# Total GULP energy -495604.325351 kJ/mol
# GULP energy per Si atom -12390.108134 kJ/mol
# Density = 1.915080 g / cm^3
# Si number density = 19.194486 Si / 1000 Ang^3
#
#
#
# Elastic Constant Matrix: (Units=GPa)
#
#
# Indices 1 2 3 4 5 6 
#
# 1 114.0651 33.7982 24.3042 0.0000 0.0000 0.0000
# 2 33.7982 68.5391 15.6377 0.0000 0.0000 0.0000
# 3 24.3042 15.6377 35.0666 0.0000 0.0000 0.0000
# 4 0.0000 0.0000 0.0000 16.0213 0.0000 0.0000
# 5 0.0000 0.0000 0.0000 0.0000 22.8281 0.0000
# 6 0.0000 0.0000 0.0000 0.0000 0.0000 4.7065
#
#
#
# Elastic Compliance Matrix: (Units=1/GPa)
#
#
# Indices 1 2 3 4 5 6 
#
# 1 0.011279 -0.004206 -0.005942 0.000000 0.000000 0.000000
# 2 -0.004206 0.017812 -0.005027 0.000000 0.000000 0.000000
# 3 -0.005942 -0.005027 0.034877 0.000000 0.000000 0.000000
# 4 0.000000 0.000000 0.000000 0.062417 0.000000 0.000000
# 5 0.000000 0.000000 0.000000 0.000000 0.043806 0.000000
# 6 0.000000 0.000000 0.000000 0.000000 0.000000 0.212471
#
#
# Mechanical properties :
#
#
# Convention : Reuss Voigt Hill
#
# Bulk Modulus (GPa) = 29.74701 40.57231 35.15966
# Shear Modulus (GPa) = 11.78638 18.30659 15.04648
#
# Velocity S-wave (km/s) = 2.48069 3.09162 2.80285
# Velocity P-wave (km/s) = 4.87201 5.82473 5.36954
#
# Compressibility (1/GPa) = 0.03361682
#
# Stress axis : x y z
#
# Youngs Moduli (GPa) = 88.65770 56.14329 28.67201
#
# Poissons Ratio (x) = 0.23616 0.17036
# Poissons Ratio (y) = 0.37293 0.14415
# Poissons Ratio (z) = 0.52678 0.28226
#
# Static dielectric constant tensor:
#      x y z
#    x 4.180940 0.000000 0.000000 
#    y 0.000000 3.451820 0.000000 
#    z 0.000000 0.000000 3.297580 
# 
# 
# High freq. dielectric constant tensor:
#      x y z
#    x 1.751460 0.000000 0.000000 
#    y 0.000000 1.717550 0.000000 
#    z 0.000000 0.000000 1.727230 
# 
# From -- ./inp_files/48769.got.cif
#   From: 2010.03.12/outbox.cif.g09.slc.cpg/sg63_25_cif.got.tgz:48769.got - 2010.04.10 19:34:48.
