data_PCOD8256694
_publ_section_title
;
Structure prediction by ZEFSAII (Michael W. Deem and Ramdas Pophale) SiO2 
 PCOD8256694
Probable space group: C M C M
;
_chemical_formula_sum "Si O2"
_cell_formula_units_Z 96
_cell_length_a 23.327860
_cell_length_b 13.485198
_cell_length_c 18.872651
_cell_angle_alpha 90.000000
_cell_angle_beta 90.000000
_cell_angle_gamma 90.000000
_cell_volume 5936.973858
_symmetry_space_group_name_H-M "C M C M"
_symmetry_group_IT_number 63
_symmetry_cell_setting 'orthorhombic'
loop_
_space_group_symop_operation_xyz
x,y,z
-x,-y,1/2+z
x,-y,-z
-x,y,1/2-z
-x,-y,-z
x,y,1/2-z
-x,y,z
x,-y,1/2+z
1/2+x,1/2+y,z
1/2-x,1/2-y,1/2+z
1/2+x,1/2-y,-z
1/2-x,1/2+y,1/2-z
1/2-x,1/2-y,-z
1/2+x,1/2+y,1/2-z
1/2-x,1/2+y,z
1/2+x,1/2-y,1/2+z
loop_
_atom_site_type_symbol
_atom_site_label
_atom_site_fract_x
_atom_site_fract_y
_atom_site_fract_z
Si Si1 0.937471 0.754932 0.834072
Si Si2 0.322825 0.358679 0.834512
Si Si3 0.275146 0.757321 0.577294
Si Si4 0.659879 0.045321 0.073885
Si Si5 0.935502 0.467746 0.332070
Si Si6 0.217749 0.965493 0.419315
O O1 0.937880 0.751580 0.750000
O O2 0.885017 0.821440 0.861151
O O3 0.928657 0.643438 0.862387
O O4 0.000000 0.795360 0.860509
O O5 0.316835 0.358482 0.750000
O O6 0.273080 0.289279 0.866284
O O7 0.319001 0.469692 0.864703
O O8 0.250000 0.750000 0.500000
O O9 0.325607 0.837837 0.572526
O O10 0.299378 0.648347 0.596161
O O11 0.608706 0.039034 0.129254
O O12 0.715148 0.981634 0.097876
O O13 0.637905 0.000000 0.000000
O O14 0.919801 0.470863 0.250000
O O15 0.000000 0.506424 0.345328
O O16 0.205367 0.000000 0.500000
#
# Coordination Sequence:
#
# PCOD8256694 Si02
#       6
#    16  16  16  16  16  16
#     4   8  15  29  50  75 100 128 163 208 256 290
#     4  10  20  31  51  78 101 126 170 215 245 289
#     4  11  19  34  52  72 102 137 168 195 255 312
#     4  10  19  29  50  73  98 127 167 203 245 296
#     4   9  18  32  49  71 100 132 164 203 252 297
#     4  10  19  33  50  72 101 138 163 199 252 307
#
# _framework density 16.169854000000001
#
# number of rings (size 3 to 8) (size 9 to 14) (size 15 to 20)
#    0.000    2.333    5.000    2.000    0.000    3.667 
#    0.000    0.000    0.000    1.500    0.000    2.333 
#    0.000    0.000    0.000    0.000    0.000    0.000 
#
# Total GULP energy -594946.398419 kJ/mol
# GULP energy per Si atom -12394.716634 kJ/mol
# Density = 1.613305 g / cm^3
# Si number density = 16.169854 Si / 1000 Ang^3
#
#
#
# Elastic Constant Matrix: (Units=GPa)
#
#
# Indices 1 2 3 4 5 6 
#
# 1 92.2366 53.3950 57.0253 0.0000 0.0000 0.0000
# 2 53.3950 136.8618 42.9708 0.0000 0.0000 0.0000
# 3 57.0253 42.9708 73.5571 0.0000 0.0000 0.0000
# 4 0.0000 0.0000 0.0000 25.9192 0.0000 0.0000
# 5 0.0000 0.0000 0.0000 0.0000 22.7714 0.0000
# 6 0.0000 0.0000 0.0000 0.0000 0.0000 26.2974
#
#
#
# Elastic Compliance Matrix: (Units=1/GPa)
#
#
# Indices 1 2 3 4 5 6 
#
# 1 0.022513 -0.004045 -0.015090 0.000000 0.000000 0.000000
# 2 -0.004045 0.009675 -0.002516 0.000000 0.000000 0.000000
# 3 -0.015090 -0.002516 0.026763 0.000000 0.000000 0.000000
# 4 0.000000 0.000000 0.000000 0.038581 0.000000 0.000000
# 5 0.000000 0.000000 0.000000 0.000000 0.043915 0.000000
# 6 0.000000 0.000000 0.000000 0.000000 0.000000 0.038027
#
#
# Mechanical properties :
#
#
# Convention : Reuss Voigt Hill
#
# Bulk Modulus (GPa) = 63.90293 67.71531 65.80912
# Shear Modulus (GPa) = 21.93066 24.94855 23.43960
#
# Velocity S-wave (km/s) = 3.68675 3.93224 3.81147
# Velocity P-wave (km/s) = 7.59792 7.91108 7.75608
#
# Compressibility (1/GPa) = 0.01564873
#
# Stress axis : x y z
#
# Youngs Moduli (GPa) = 44.41916 103.36218 37.36508
#
# Poissons Ratio (x) = 0.41813 0.56384
# Poissons Ratio (y) = 0.17969 0.09400
# Poissons Ratio (z) = 0.67028 0.26003
#
# Static dielectric constant tensor:
#      x y z
#    x 3.113100 0.000000 0.000000 
#    y 0.000000 1.808430 0.000000 
#    z 0.000000 0.000000 2.946210 
# 
# 
# High freq. dielectric constant tensor:
#      x y z
#    x 1.608190 0.000000 0.000000 
#    y 0.000000 1.616520 0.000000 
#    z 0.000000 0.000000 1.609680 
# 
# From -- ./inp_files/56702.got.cif
#   From: 2010.03.12/outbox.cif.g09.slc.cpg/sg63_29_cif.got.tgz:56702.got - 2010.04.10 19:34:48.
