data_PCOD8256243
_publ_section_title
;
Structure prediction by ZEFSAII (Michael W. Deem and Ramdas Pophale) SiO2 
 PCOD8256243
Probable space group: C M C M
;
_chemical_formula_sum "Si O2"
_cell_formula_units_Z 72
_cell_length_a 28.990787
_cell_length_b 13.830730
_cell_length_c 8.705191
_cell_angle_alpha 90.000000
_cell_angle_beta 90.000000
_cell_angle_gamma 90.000000
_cell_volume 3490.466006
_symmetry_space_group_name_H-M "C M C M"
_symmetry_group_IT_number 63
_symmetry_cell_setting 'orthorhombic'
loop_
_space_group_symop_operation_xyz
x,y,z
-x,-y,1/2+z
x,-y,-z
-x,y,1/2-z
-x,-y,-z
x,y,1/2-z
-x,y,z
x,-y,1/2+z
1/2+x,1/2+y,z
1/2-x,1/2-y,1/2+z
1/2+x,1/2-y,-z
1/2-x,1/2+y,1/2-z
1/2-x,1/2-y,-z
1/2+x,1/2+y,1/2-z
1/2-x,1/2+y,z
1/2+x,1/2-y,1/2+z
loop_
_atom_site_type_symbol
_atom_site_label
_atom_site_fract_x
_atom_site_fract_y
_atom_site_fract_z
Si Si1 0.678631 0.105509 0.570015
Si Si2 0.593366 0.205422 0.426174
Si Si3 0.229664 0.892446 0.567595
Si Si4 0.363043 0.398819 0.074187
Si Si5 0.000000 0.606381 0.068769
O O1 0.685801 0.097586 0.750000
O O2 0.632688 0.163279 0.533800
O O3 0.724230 0.159288 0.499691
O O4 0.673052 0.000000 0.500000
O O5 0.601956 0.173082 0.250000
O O6 0.594954 0.322358 0.439244
O O7 0.544518 0.166339 0.487405
O O8 0.231599 0.890008 0.750000
O O9 0.181205 0.848464 0.509182
O O10 0.229928 0.000000 0.500000
O O11 0.349640 0.419432 0.250000
O O12 0.378720 0.500000 0.000000
O O13 0.000000 0.596412 0.250000
O O14 0.000000 0.500000 0.000000
#
# Coordination Sequence:
#
# PCOD8256243 Si02
#       5
#    16  16  16  16   8
#     4  11  21  34  54  81 115 151 189 233 280 334
#     4  10  22  39  59  83 111 146 188 232 281 336
#     4  10  18  31  52  78 112 151 190 230 275 328
#     4  10  20  36  57  81 113 150 188 231 277 327
#     4  10  22  42  65  88 114 144 179 224 281 336
#
# _framework density 20.627617000000001
#
# number of rings (size 3 to 8) (size 9 to 14) (size 15 to 20)
#    0.000    1.778    0.000    8.000    0.000    5.333 
#    0.000    0.556    0.000    0.000    0.000    0.000 
#    0.000    0.000    0.000    0.000    0.000    0.000 
#
# Total GULP energy -446324.614006 kJ/mol
# GULP energy per Si atom -12397.905945 kJ/mol
# Density = 2.058067 g / cm^3
# Si number density = 20.627617 Si / 1000 Ang^3
#
#
#
# Elastic Constant Matrix: (Units=GPa)
#
#
# Indices 1 2 3 4 5 6 
#
# 1 142.9445 73.9226 47.0382 0.0000 0.0000 0.0000
# 2 73.9226 85.5429 40.4826 0.0000 0.0000 0.0000
# 3 47.0382 40.4826 150.3050 0.0000 0.0000 0.0000
# 4 0.0000 0.0000 0.0000 25.5134 0.0000 0.0000
# 5 0.0000 0.0000 0.0000 0.0000 20.1188 0.0000
# 6 0.0000 0.0000 0.0000 0.0000 0.0000 37.0757
#
#
#
# Elastic Compliance Matrix: (Units=1/GPa)
#
#
# Indices 1 2 3 4 5 6 
#
# 1 0.012828 -0.010527 -0.001179 0.000000 0.000000 0.000000
# 2 -0.010527 0.022037 -0.002641 0.000000 0.000000 0.000000
# 3 -0.001179 -0.002641 0.007733 0.000000 0.000000 0.000000
# 4 0.000000 0.000000 0.000000 0.039195 0.000000 0.000000
# 5 0.000000 0.000000 0.000000 0.000000 0.049705 0.000000
# 6 0.000000 0.000000 0.000000 0.000000 0.000000 0.026972
#
#
# Mechanical properties :
#
#
# Convention : Reuss Voigt Hill
#
# Bulk Modulus (GPa) = 71.92269 77.96435 74.94352
# Shear Modulus (GPa) = 26.06896 31.03151 28.55023
#
# Velocity S-wave (km/s) = 3.55884 3.88282 3.72436
# Velocity P-wave (km/s) = 7.19930 7.61445 7.40979
#
# Compressibility (1/GPa) = 0.01390382
#
# Stress axis : x y z
#
# Youngs Moduli (GPa) = 77.95576 45.37827 129.30885
#
# Poissons Ratio (x) = 0.47771 0.15247
# Poissons Ratio (y) = 0.82066 0.34149
# Poissons Ratio (z) = 0.09192 0.11984
#
# Static dielectric constant tensor:
#      x y z
#    x 4.147850 0.000000 0.000000 
#    y 0.000000 3.764130 0.000000 
#    z 0.000000 0.000000 3.739260 
# 
# 
# High freq. dielectric constant tensor:
#      x y z
#    x 1.796330 0.000000 0.000000 
#    y 0.000000 1.806280 0.000000 
#    z 0.000000 0.000000 1.812500 
# 
# From -- ./inp_files/11688.got.cif
#   From: 2010.03.12/outbox.cif.g09.slc.cpg/sg63_6_cif.got.tgz:11688.got - 2010.04.10 19:34:48.
