data_PCOD8256633
_publ_section_title
;
Structure prediction by ZEFSAII (Michael W. Deem and Ramdas Pophale) SiO2 
 PCOD8256633
Probable space group: C M C M
;
_chemical_formula_sum "Si O2"
_cell_formula_units_Z 112
_cell_length_a 13.128383
_cell_length_b 27.408055
_cell_length_c 20.933457
_cell_angle_alpha 90.000000
_cell_angle_beta 90.000000
_cell_angle_gamma 90.000000
_cell_volume 7532.348578
_symmetry_space_group_name_H-M "C M C M"
_symmetry_group_IT_number 63
_symmetry_cell_setting 'orthorhombic'
loop_
_space_group_symop_operation_xyz
x,y,z
-x,-y,1/2+z
x,-y,-z
-x,y,1/2-z
-x,-y,-z
x,y,1/2-z
-x,y,z
x,-y,1/2+z
1/2+x,1/2+y,z
1/2-x,1/2-y,1/2+z
1/2+x,1/2-y,-z
1/2-x,1/2+y,1/2-z
1/2-x,1/2-y,-z
1/2+x,1/2+y,1/2-z
1/2-x,1/2+y,z
1/2+x,1/2-y,1/2+z
loop_
_atom_site_type_symbol
_atom_site_label
_atom_site_fract_x
_atom_site_fract_y
_atom_site_fract_z
Si Si1 0.884215 0.735620 0.322006
Si Si2 0.695483 0.798226 0.322926
Si Si3 0.114196 0.753676 0.943351
Si Si4 0.690684 0.814745 0.553768
Si Si5 0.619811 0.019558 0.587770
Si Si6 0.886080 0.399961 0.176318
Si Si7 0.879770 0.421804 0.537215
O O1 0.869503 0.713482 0.250000
O O2 0.813562 0.783319 0.330288
O O3 0.854348 0.696457 0.375835
O O4 0.000000 0.752809 0.332075
O O5 0.656067 0.789123 0.250000
O O6 0.626887 0.768231 0.372349
O O7 0.687391 0.855102 0.341107
O O8 0.191604 0.798599 0.952325
O O9 0.000000 0.774270 0.949430
O O10 0.129117 0.712629 0.997831
O O11 0.684529 0.872664 0.545528
O O12 0.500000 0.013678 0.584611
O O13 0.658664 0.049328 0.649169
O O14 0.652517 0.053416 0.528918
O O15 0.658382 0.963250 0.588191
O O16 0.893307 0.408737 0.250000
O O17 0.000000 0.389301 0.148457
O O18 0.000000 0.409293 0.542041
#
# Coordination Sequence:
#
# PCOD8256633 Si02
#       7
#    16  16  16  16  16  16  16
#     4   9  17  29  42  57  82 112 139 168 197 231
#     4   9  17  27  41  62  84 109 138 162 197 246
#     4  10  19  29  42  62  86 108 133 168 202 234
#     4  10  19  29  43  62  82 108 139 166 198 239
#     4   8  15  25  37  56  77  98 127 160 196 237
#     4   9  15  23  36  55  80 104 125 157 200 241
#     4   9  15  25  41  57  76 101 129 162 195 233
#
# _framework density 14.869199999999999
#
# number of rings (size 3 to 8) (size 9 to 14) (size 15 to 20)
#    0.000    2.857    0.000    3.429    0.000    2.000 
#    0.000    0.714    0.000    2.571    0.000    3.000 
#    0.000    0.000    0.000    0.000    0.000    2.571 
#
# Total GULP energy -693772.070743 kJ/mol
# GULP energy per Si atom -12388.786978 kJ/mol
# Density = 1.483536 g / cm^3
# Si number density = 14.869200 Si / 1000 Ang^3
#
#
#
# Elastic Constant Matrix: (Units=GPa)
#
#
# Indices 1 2 3 4 5 6 
#
# 1 76.4115 43.6008 28.8928 0.0000 0.0000 0.0000
# 2 43.6008 134.4411 40.3520 0.0000 0.0000 0.0000
# 3 28.8928 40.3520 54.2342 0.0000 0.0000 0.0000
# 4 0.0000 0.0000 0.0000 22.0054 0.0000 0.0000
# 5 0.0000 0.0000 0.0000 0.0000 14.4126 0.0000
# 6 0.0000 0.0000 0.0000 0.0000 0.0000 16.7963
#
#
#
# Elastic Compliance Matrix: (Units=1/GPa)
#
#
# Indices 1 2 3 4 5 6 
#
# 1 0.017749 -0.003757 -0.006660 0.000000 0.000000 0.000000
# 2 -0.003757 0.010372 -0.005716 0.000000 0.000000 0.000000
# 3 -0.006660 -0.005716 0.026239 0.000000 0.000000 0.000000
# 4 0.000000 0.000000 0.000000 0.045443 0.000000 0.000000
# 5 0.000000 0.000000 0.000000 0.000000 0.069384 0.000000
# 6 0.000000 0.000000 0.000000 0.000000 0.000000 0.059537
#
#
# Mechanical properties :
#
#
# Convention : Reuss Voigt Hill
#
# Bulk Modulus (GPa) = 45.25993 54.53090 49.89541
# Shear Modulus (GPa) = 18.63195 20.79227 19.71211
#
# Velocity S-wave (km/s) = 3.54369 3.74350 3.64497
# Velocity P-wave (km/s) = 6.87375 7.44570 7.16543
#
# Compressibility (1/GPa) = 0.02209460
#
# Stress axis : x y z
#
# Youngs Moduli (GPa) = 56.34014 96.41107 38.11067
#
# Poissons Ratio (x) = 0.36224 0.25383
# Poissons Ratio (y) = 0.21168 0.21783
# Poissons Ratio (z) = 0.37524 0.55105
#
# Static dielectric constant tensor:
#      x y z
#    x 2.706970 0.000000 0.000000 
#    y 0.000000 4.632460 0.000000 
#    z 0.000000 0.000000 6.867730 
# 
# 
# High freq. dielectric constant tensor:
#      x y z
#    x 1.534420 0.000000 0.000000 
#    y 0.000000 1.555630 0.000000 
#    z 0.000000 0.000000 1.581640 
# 
# From -- ./inp_files/53351.got.cif
#   From: 2010.03.12/outbox.cif.g09.slc.cpg/sg63_27_cif.got.tgz:53351.got - 2010.04.10 19:34:48.
