data_PCOD8256737
_publ_section_title
;
Structure prediction by ZEFSAII (Michael W. Deem and Ramdas Pophale) SiO2 
 PCOD8256737
Probable space group: C M C M
;
_chemical_formula_sum "Si O2"
_cell_formula_units_Z 80
_cell_length_a 27.262080
_cell_length_b 19.229591
_cell_length_c 8.664933
_cell_angle_alpha 90.000000
_cell_angle_beta 90.000000
_cell_angle_gamma 90.000000
_cell_volume 4542.492763
_symmetry_space_group_name_H-M "C M C M"
_symmetry_group_IT_number 63
_symmetry_cell_setting 'orthorhombic'
loop_
_space_group_symop_operation_xyz
x,y,z
-x,-y,1/2+z
x,-y,-z
-x,y,1/2-z
-x,-y,-z
x,y,1/2-z
-x,y,z
x,-y,1/2+z
1/2+x,1/2+y,z
1/2-x,1/2-y,1/2+z
1/2+x,1/2-y,-z
1/2-x,1/2+y,1/2-z
1/2-x,1/2-y,-z
1/2+x,1/2+y,1/2-z
1/2-x,1/2+y,z
1/2+x,1/2-y,1/2+z
loop_
_atom_site_type_symbol
_atom_site_label
_atom_site_fract_x
_atom_site_fract_y
_atom_site_fract_z
Si Si1 0.306520 0.065430 0.918721
Si Si2 0.806172 0.931753 0.079749
Si Si3 0.364302 0.174463 0.430308
Si Si4 0.555510 0.074113 0.932258
Si Si5 0.700082 0.716375 0.068035
O O1 0.331245 0.078256 0.750000
O O2 0.250156 0.049919 0.893991
O O3 0.315401 0.129966 0.032035
O O4 0.332705 0.000000 0.000000
O O5 0.829986 0.919110 0.250000
O O6 0.808672 0.864020 0.973236
O O7 0.831096 0.000000 0.000000
O O8 0.373237 0.182964 0.250000
O O9 0.411172 0.137342 0.506105
O O10 0.350116 0.248521 0.504074
O O11 0.559640 0.070189 0.750000
O O12 0.500000 0.090366 0.985559
O O13 0.572722 0.000000 0.000000
O O14 0.703477 0.726237 0.250000
O O15 0.750000 0.750000 0.000000
#
# Coordination Sequence:
#
# PCOD8256737 Si02
#       5
#    16  16  16  16  16
#     4  10  19  30  45  65  94 128 169 213 253 302
#     4  10  20  34  51  70  96 133 172 212 255 304
#     4  12  23  34  51  73 101 135 174 218 265 316
#     4  10  21  38  58  79 106 140 179 224 273 323
#     4  12  23  36  52  73 103 137 175 220 267 315
#
# _framework density 17.611476
#
# number of rings (size 3 to 8) (size 9 to 14) (size 15 to 20)
#    0.000    1.200    2.000    6.000    0.000    2.800 
#    0.000    0.000    0.000    0.000    0.000    0.000 
#    0.000    0.800    0.000    3.000    0.000    4.600 
#
# Total GULP energy -495661.676972 kJ/mol
# GULP energy per Si atom -12391.541924 kJ/mol
# Density = 1.757139 g / cm^3
# Si number density = 17.611476 Si / 1000 Ang^3
#
#
#
# Elastic Constant Matrix: (Units=GPa)
#
#
# Indices 1 2 3 4 5 6 
#
# 1 60.1753 33.2337 29.8142 0.0000 0.0000 0.0000
# 2 33.2337 121.5492 46.9895 0.0000 0.0000 0.0000
# 3 29.8142 46.9895 137.5190 0.0000 0.0000 0.0000
# 4 0.0000 0.0000 0.0000 32.4245 0.0000 0.0000
# 5 0.0000 0.0000 0.0000 0.0000 18.7136 0.0000
# 6 0.0000 0.0000 0.0000 0.0000 0.0000 21.9570
#
#
#
# Elastic Compliance Matrix: (Units=1/GPa)
#
#
# Indices 1 2 3 4 5 6 
#
# 1 0.020544 -0.004488 -0.002920 0.000000 0.000000 0.000000
# 2 -0.004488 0.010460 -0.002601 0.000000 0.000000 0.000000
# 3 -0.002920 -0.002601 0.008794 0.000000 0.000000 0.000000
# 4 0.000000 0.000000 0.000000 0.030841 0.000000 0.000000
# 5 0.000000 0.000000 0.000000 0.000000 0.053437 0.000000
# 6 0.000000 0.000000 0.000000 0.000000 0.000000 0.045544
#
#
# Mechanical properties :
#
#
# Convention : Reuss Voigt Hill
#
# Bulk Modulus (GPa) = 50.56067 59.92427 55.24247
# Shear Modulus (GPa) = 25.48029 28.56610 27.02319
#
# Velocity S-wave (km/s) = 3.80781 4.03180 3.92140
# Velocity P-wave (km/s) = 6.93569 7.46816 7.20684
#
# Compressibility (1/GPa) = 0.01977822
#
# Stress axis : x y z
#
# Youngs Moduli (GPa) = 48.67679 95.60456 113.71892
#
# Poissons Ratio (x) = 0.42908 0.33210
# Poissons Ratio (y) = 0.21846 0.29579
# Poissons Ratio (z) = 0.14215 0.24867
#
# Static dielectric constant tensor:
#      x y z
#    x 3.020010 0.000000 0.000000 
#    y 0.000000 3.409270 0.000000 
#    z 0.000000 0.000000 3.717100 
# 
# 
# High freq. dielectric constant tensor:
#      x y z
#    x 1.627150 0.000000 0.000000 
#    y 0.000000 1.678770 0.000000 
#    z 0.000000 0.000000 1.706370 
# 
# From -- ./inp_files/14033.got.cif
#   From: 2010.03.12/outbox.cif.g09.slc.cpg/sg63_8_cif.got.tgz:14033.got - 2010.04.10 19:34:48.
