data_PCOD8256881
_publ_section_title
;
Structure prediction by ZEFSAII (Michael W. Deem and Ramdas Pophale) SiO2 
 PCOD8256881
Probable space group: C M C M
;
_chemical_formula_sum "Si O2"
_cell_formula_units_Z 104
_cell_length_a 24.100520
_cell_length_b 33.332174
_cell_length_c 9.656273
_cell_angle_alpha 90.000000
_cell_angle_beta 90.000000
_cell_angle_gamma 90.000000
_cell_volume 7757.103551
_symmetry_space_group_name_H-M "C M C M"
_symmetry_group_IT_number 63
_symmetry_cell_setting 'orthorhombic'
loop_
_space_group_symop_operation_xyz
x,y,z
-x,-y,1/2+z
x,-y,-z
-x,y,1/2-z
-x,-y,-z
x,y,1/2-z
-x,y,z
x,-y,1/2+z
1/2+x,1/2+y,z
1/2-x,1/2-y,1/2+z
1/2+x,1/2-y,-z
1/2-x,1/2+y,1/2-z
1/2-x,1/2-y,-z
1/2+x,1/2+y,1/2-z
1/2-x,1/2+y,z
1/2+x,1/2-y,1/2+z
loop_
_atom_site_type_symbol
_atom_site_label
_atom_site_fract_x
_atom_site_fract_y
_atom_site_fract_z
Si Si1 0.000000 0.037275 0.404609
Si Si2 0.176513 0.726280 0.592731
Si Si3 0.150382 0.876104 0.589248
Si Si4 0.561221 0.744928 0.092671
Si Si5 0.937019 0.832743 0.090549
Si Si6 0.235388 0.191100 0.408736
Si Si7 0.121228 0.038852 0.092786
O O1 0.059299 0.058860 0.431932
O O2 0.000000 0.020609 0.250000
O O3 0.000000 0.000000 0.500000
O O4 0.191806 0.715650 0.750000
O O5 0.110160 0.722731 0.565881
O O6 0.194365 0.771958 0.557020
O O7 0.208420 0.694466 0.497466
O O8 0.133527 0.868542 0.750000
O O9 0.100730 0.864368 0.488251
O O10 0.204926 0.850371 0.551897
O O11 0.162501 0.923641 0.563505
O O12 0.568164 0.727874 0.250000
O O13 0.500000 0.764940 0.075612
O O14 0.568511 0.709931 0.982838
O O15 0.917936 0.828271 0.250000
O O16 0.000000 0.848581 0.081871
O O17 0.253744 0.191419 0.250000
O O18 0.127749 0.023768 0.250000
O O19 0.134560 0.000000 0.000000
#
# Coordination Sequence:
#
# PCOD8256881 Si02
#       7
#     8  16  16  16  16  16  16
#     4   8  14  26  40  56  70  88 116 146 188 232
#     4   9  16  27  41  58  77 100 128 156 191 227
#     4  10  19  31  45  58  73  97 132 161 191 237
#     4   9  16  28  44  58  75 101 131 160 190 231
#     4  10  20  29  37  55  79  99 123 160 203 237
#     4   9  17  28  40  57  76  99 129 160 190 223
#     4   9  18  30  44  58  73  94 121 156 194 236
#
# _framework density 13.407067
#
# number of rings (size 3 to 8) (size 9 to 14) (size 15 to 20)
#    0.000    2.769    1.538    0.462    1.077    2.769 
#    0.000    0.000    0.000    0.000    0.000    0.000 
#    0.000    0.000    0.000    0.000    0.000    0.769 
#
# Total GULP energy -644234.919162 kJ/mol
# GULP energy per Si atom -12389.133061 kJ/mol
# Density = 1.337655 g / cm^3
# Si number density = 13.407067 Si / 1000 Ang^3
#
#
#
# Elastic Constant Matrix: (Units=GPa)
#
#
# Indices 1 2 3 4 5 6 
#
# 1 78.1988 43.0667 45.4394 0.0000 0.0000 0.0000
# 2 43.0667 69.5812 39.0409 0.0000 0.0000 0.0000
# 3 45.4394 39.0409 72.3953 0.0000 0.0000 0.0000
# 4 0.0000 0.0000 0.0000 16.2213 0.0000 0.0000
# 5 0.0000 0.0000 0.0000 0.0000 19.9510 0.0000
# 6 0.0000 0.0000 0.0000 0.0000 0.0000 17.5902
#
#
#
# Elastic Compliance Matrix: (Units=1/GPa)
#
#
# Indices 1 2 3 4 5 6 
#
# 1 0.023486 -0.008984 -0.009897 0.000000 0.000000 0.000000
# 2 -0.008984 0.024043 -0.007327 0.000000 0.000000 0.000000
# 3 -0.009897 -0.007327 0.023976 0.000000 0.000000 0.000000
# 4 0.000000 0.000000 0.000000 0.061647 0.000000 0.000000
# 5 0.000000 0.000000 0.000000 0.000000 0.050123 0.000000
# 6 0.000000 0.000000 0.000000 0.000000 0.000000 0.056850
#
#
# Mechanical properties :
#
#
# Convention : Reuss Voigt Hill
#
# Bulk Modulus (GPa) = 52.38207 52.80769 52.59488
# Shear Modulus (GPa) = 16.72776 16.92772 16.82774
#
# Velocity S-wave (km/s) = 3.53609 3.55716 3.54664
# Velocity P-wave (km/s) = 7.47176 7.50631 7.48905
#
# Compressibility (1/GPa) = 0.01909050
#
# Stress axis : x y z
#
# Youngs Moduli (GPa) = 42.57802 41.59159 41.70823
#
# Poissons Ratio (x) = 0.37365 0.41277
# Poissons Ratio (y) = 0.38251 0.30560
# Poissons Ratio (z) = 0.42138 0.30475
#
# Static dielectric constant tensor:
#      x y z
#    x 2.560410 0.000000 0.000000 
#    y 0.000000 2.350720 0.000000 
#    z 0.000000 0.000000 2.781830 
# 
# 
# High freq. dielectric constant tensor:
#      x y z
#    x 1.489400 0.000000 0.000000 
#    y 0.000000 1.466770 0.000000 
#    z 0.000000 0.000000 1.522070 
# 
# From -- ./inp_files/13301.got.cif
#   From: 2010.03.12/outbox.cif.g09.slc.cpg/sg63_7_cif.got.tgz:13301.got - 2010.04.10 19:34:48.
