data_PCOD8256178
_publ_section_title
;
Structure prediction by ZEFSAII (Michael W. Deem and Ramdas Pophale) SiO2 
 PCOD8256178
Probable space group: C M C M
;
_chemical_formula_sum "Si O2"
_cell_formula_units_Z 96
_cell_length_a 17.949841
_cell_length_b 15.285881
_cell_length_c 20.503730
_cell_angle_alpha 90.000000
_cell_angle_beta 90.000000
_cell_angle_gamma 90.000000
_cell_volume 5625.795671
_symmetry_space_group_name_H-M "C M C M"
_symmetry_group_IT_number 63
_symmetry_cell_setting 'orthorhombic'
loop_
_space_group_symop_operation_xyz
x,y,z
-x,-y,1/2+z
x,-y,-z
-x,y,1/2-z
-x,-y,-z
x,y,1/2-z
-x,y,z
x,-y,1/2+z
1/2+x,1/2+y,z
1/2-x,1/2-y,1/2+z
1/2+x,1/2-y,-z
1/2-x,1/2+y,1/2-z
1/2-x,1/2-y,-z
1/2+x,1/2+y,1/2-z
1/2-x,1/2+y,z
1/2+x,1/2-y,1/2+z
loop_
_atom_site_type_symbol
_atom_site_label
_atom_site_fract_x
_atom_site_fract_y
_atom_site_fract_z
Si Si1 0.158618 0.924036 0.453735
Si Si2 0.584784 0.994695 0.822448
Si Si3 0.585849 0.613636 0.821603
Si Si4 0.415871 0.804632 0.864162
Si Si5 0.663678 0.763572 0.989016
Si Si6 0.664291 0.067789 0.554793
O O1 0.129800 0.934288 0.379737
O O2 0.127765 0.833655 0.486800
O O3 0.247093 0.928755 0.449781
O O4 0.126578 0.000000 0.500000
O O5 0.603908 0.029774 0.750000
O O6 0.500000 0.018477 0.841463
O O7 0.595479 0.890125 0.820286
O O8 0.639467 0.040101 0.873543
O O9 0.613351 0.580626 0.750000
O O10 0.500000 0.589622 0.831274
O O11 0.598045 0.718179 0.821692
O O12 0.500000 0.802649 0.893829
O O13 0.353729 0.809925 0.920379
O O14 0.633086 0.833020 0.042569
O O15 0.750000 0.750000 0.000000
O O16 0.633369 0.000000 0.500000
#
# Coordination Sequence:
#
# PCOD8256178 Si02
#       6
#    16  16  16  16  16  16
#     4   9  19  32  49  71  96 125 161 205 250 285
#     4  10  20  31  46  72 106 136 160 193 238 291
#     4   9  17  30  49  71  95 123 158 203 250 291
#     4   9  16  28  47  72  99 125 157 197 244 291
#     4   9  17  30  48  70  96 126 158 200 240 281
#     4  10  18  31  49  71  98 128 162 194 234 287
#
# _framework density 17.064253000000001
#
# number of rings (size 3 to 8) (size 9 to 14) (size 15 to 20)
#    0.000    2.667    1.667    0.500    0.000    4.000 
#    0.000    0.000    0.000    1.000    0.000    2.333 
#    0.000    0.000    0.000    0.000    0.000    0.000 
#
# Total GULP energy -594684.565705 kJ/mol
# GULP energy per Si atom -12389.261786 kJ/mol
# Density = 1.702541 g / cm^3
# Si number density = 17.064253 Si / 1000 Ang^3
#
#
#
# Elastic Constant Matrix: (Units=GPa)
#
#
# Indices 1 2 3 4 5 6 
#
# 1 31.4859 15.9398 32.2635 0.0000 0.0000 0.0000
# 2 15.9398 94.8394 58.5268 0.0000 0.0000 0.0000
# 3 32.2635 58.5268 124.3660 0.0000 0.0000 0.0000
# 4 0.0000 0.0000 0.0000 24.9905 0.0000 0.0000
# 5 0.0000 0.0000 0.0000 0.0000 29.0887 0.0000
# 6 0.0000 0.0000 0.0000 0.0000 0.0000 14.5612
#
#
#
# Elastic Compliance Matrix: (Units=1/GPa)
#
#
# Indices 1 2 3 4 5 6 
#
# 1 0.043276 -0.000486 -0.010998 0.000000 0.000000 0.000000
# 2 -0.000486 0.014865 -0.006869 0.000000 0.000000 0.000000
# 3 -0.010998 -0.006869 0.014127 0.000000 0.000000 0.000000
# 4 0.000000 0.000000 0.000000 0.040015 0.000000 0.000000
# 5 0.000000 0.000000 0.000000 0.000000 0.034378 0.000000
# 6 0.000000 0.000000 0.000000 0.000000 0.000000 0.068676
#
#
# Mechanical properties :
#
#
# Convention : Reuss Voigt Hill
#
# Bulk Modulus (GPa) = 28.12122 51.57239 39.84681
# Shear Modulus (GPa) = 18.94678 23.32549 21.13614
#
# Velocity S-wave (km/s) = 3.33576 3.70120 3.52322
# Velocity P-wave (km/s) = 5.59927 6.96802 6.32080
#
# Compressibility (1/GPa) = 0.03556033
#
# Stress axis : x y z
#
# Youngs Moduli (GPa) = 23.10747 67.27178 70.78837
#
# Poissons Ratio (x) = 0.03273 0.77852
# Poissons Ratio (y) = 0.01124 0.48627
# Poissons Ratio (z) = 0.25413 0.46211
#
# Static dielectric constant tensor:
#      x y z
#    x 3.004500 0.000000 0.000000 
#    y 0.000000 3.446570 0.000000 
#    z 0.000000 0.000000 3.162950 
# 
# 
# High freq. dielectric constant tensor:
#      x y z
#    x 1.635900 0.000000 0.000000 
#    y 0.000000 1.652380 0.000000 
#    z 0.000000 0.000000 1.652630 
# 
# From -- ./inp_files/47217.got.cif
#   From: 2010.03.12/outbox.cif.g09.slc.cpg/sg63_24_cif.got.tgz:47217.got - 2010.04.10 19:34:48.
