data_PCOD8256642
_publ_section_title
;
Structure prediction by ZEFSAII (Michael W. Deem and Ramdas Pophale) SiO2 
 PCOD8256642
Probable space group: C M C M
;
_chemical_formula_sum "Si O2"
_cell_formula_units_Z 80
_cell_length_a 24.737741
_cell_length_b 23.504649
_cell_length_c 8.764758
_cell_angle_alpha 90.000000
_cell_angle_beta 90.000000
_cell_angle_gamma 90.000000
_cell_volume 5096.285361
_symmetry_space_group_name_H-M "C M C M"
_symmetry_group_IT_number 63
_symmetry_cell_setting 'orthorhombic'
loop_
_space_group_symop_operation_xyz
x,y,z
-x,-y,1/2+z
x,-y,-z
-x,y,1/2-z
-x,-y,-z
x,y,1/2-z
-x,y,z
x,-y,1/2+z
1/2+x,1/2+y,z
1/2-x,1/2-y,1/2+z
1/2+x,1/2-y,-z
1/2-x,1/2+y,1/2-z
1/2-x,1/2-y,-z
1/2+x,1/2+y,1/2-z
1/2-x,1/2+y,z
1/2+x,1/2-y,1/2+z
loop_
_atom_site_type_symbol
_atom_site_label
_atom_site_fract_x
_atom_site_fract_y
_atom_site_fract_z
Si Si1 0.332724 0.059784 0.069939
Si Si2 0.559231 0.883958 0.569051
Si Si3 0.327182 0.268506 0.427765
Si Si4 0.442116 0.244246 0.069792
Si Si5 0.772876 0.338784 0.426629
O O1 0.333666 0.054312 0.250000
O O2 0.391954 0.077554 0.003760
O O3 0.288029 0.106194 0.024201
O O4 0.315297 0.000000 0.000000
O O5 0.563023 0.883805 0.750000
O O6 0.500000 0.907424 0.516783
O O7 0.566717 0.819791 0.507307
O O8 0.323343 0.250591 0.250000
O O9 0.389676 0.282084 0.475684
O O10 0.290289 0.323767 0.459383
O O11 0.308333 0.215307 0.527197
O O12 0.446734 0.241373 0.250000
O O13 0.500000 0.268425 0.005618
O O14 0.782883 0.352299 0.250000
#
# Coordination Sequence:
#
# PCOD8256642 Si02
#       5
#    16  16  16  16  16
#     4  11  21  33  47  61  83 112 148 187 223 257
#     4   8  14  25  42  61  81 109 145 182 216 250
#     4   9  16  28  46  66  87 113 143 177 213 255
#     4   8  12  21  41  66  87 109 140 175 211 249
#     4  10  19  29  43  64  88 113 145 178 215 258
#
# _framework density 15.697708
#
# number of rings (size 3 to 8) (size 9 to 14) (size 15 to 20)
#    0.000    2.800    2.000    2.400    0.000    1.200 
#    0.000    0.000    0.000    3.600    0.000    0.000 
#    0.000    0.800    0.000    1.400    0.000    2.000 
#
# Total GULP energy -495557.533352 kJ/mol
# GULP energy per Si atom -12388.938334 kJ/mol
# Density = 1.566198 g / cm^3
# Si number density = 15.697708 Si / 1000 Ang^3
#
#
#
# Elastic Constant Matrix: (Units=GPa)
#
#
# Indices 1 2 3 4 5 6 
#
# 1 138.8925 53.3797 24.4761 0.0000 0.0000 0.0000
# 2 53.3797 66.7333 20.0025 0.0000 0.0000 0.0000
# 3 24.4761 20.0025 34.7495 0.0000 0.0000 0.0000
# 4 0.0000 0.0000 0.0000 18.9530 0.0000 0.0000
# 5 0.0000 0.0000 0.0000 0.0000 14.4140 0.0000
# 6 0.0000 0.0000 0.0000 0.0000 0.0000 15.8936
#
#
#
# Elastic Compliance Matrix: (Units=1/GPa)
#
#
# Indices 1 2 3 4 5 6 
#
# 1 0.010673 -0.007594 -0.003146 0.000000 0.000000 0.000000
# 2 -0.007594 0.023513 -0.008186 0.000000 0.000000 0.000000
# 3 -0.003146 -0.008186 0.035705 0.000000 0.000000 0.000000
# 4 0.000000 0.000000 0.000000 0.052762 0.000000 0.000000
# 5 0.000000 0.000000 0.000000 0.000000 0.069377 0.000000
# 6 0.000000 0.000000 0.000000 0.000000 0.000000 0.062918
#
#
# Mechanical properties :
#
#
# Convention : Reuss Voigt Hill
#
# Bulk Modulus (GPa) = 31.21167 48.45466 39.83317
# Shear Modulus (GPa) = 16.47555 19.35326 17.91441
#
# Velocity S-wave (km/s) = 3.24319 3.51504 3.38185
# Velocity P-wave (km/s) = 5.82671 6.88537 6.37804
#
# Compressibility (1/GPa) = 0.03203929
#
# Stress axis : x y z
#
# Youngs Moduli (GPa) = 93.69562 42.52951 28.00716
#
# Poissons Ratio (x) = 0.32298 0.08812
# Poissons Ratio (y) = 0.71154 0.22925
# Poissons Ratio (z) = 0.29478 0.34813
#
# Static dielectric constant tensor:
#      x y z
#    x 3.573330 0.000000 0.000000 
#    y 0.000000 2.708790 0.000000 
#    z 0.000000 0.000000 2.743750 
# 
# 
# High freq. dielectric constant tensor:
#      x y z
#    x 1.614730 0.000000 0.000000 
#    y 0.000000 1.552540 0.000000 
#    z 0.000000 0.000000 1.578680 
# 
# From -- ./inp_files/12064.got.cif
#   From: 2010.03.12/outbox.cif.g09.slc.cpg/sg63_7_cif.got.tgz:12064.got - 2010.04.10 19:34:48.
