data_PCOD8256727
_publ_section_title
;
Structure prediction by ZEFSAII (Michael W. Deem and Ramdas Pophale) SiO2 
 PCOD8256727
Probable space group: C M C M
;
_chemical_formula_sum "Si O2"
_cell_formula_units_Z 80
_cell_length_a 23.555177
_cell_length_b 25.709398
_cell_length_c 8.907986
_cell_angle_alpha 90.000000
_cell_angle_beta 90.000000
_cell_angle_gamma 90.000000
_cell_volume 5394.582079
_symmetry_space_group_name_H-M "C M C M"
_symmetry_group_IT_number 63
_symmetry_cell_setting 'orthorhombic'
loop_
_space_group_symop_operation_xyz
x,y,z
-x,-y,1/2+z
x,-y,-z
-x,y,1/2-z
-x,-y,-z
x,y,1/2-z
-x,y,z
x,-y,1/2+z
1/2+x,1/2+y,z
1/2-x,1/2-y,1/2+z
1/2+x,1/2-y,-z
1/2-x,1/2+y,1/2-z
1/2-x,1/2-y,-z
1/2+x,1/2+y,1/2-z
1/2-x,1/2+y,z
1/2+x,1/2-y,1/2+z
loop_
_atom_site_type_symbol
_atom_site_label
_atom_site_fract_x
_atom_site_fract_y
_atom_site_fract_z
Si Si1 0.000000 0.396205 0.071795
Si Si2 0.500000 0.778040 0.071385
Si Si3 0.681122 0.142717 0.078923
Si Si4 0.116374 0.554488 0.926862
Si Si5 0.114734 0.748428 0.074054
Si Si6 0.213870 0.794393 0.923938
O O1 0.055488 0.425926 0.010588
O O2 0.000000 0.394992 0.250000
O O3 0.000000 0.337343 0.010640
O O4 0.500000 0.775616 0.250000
O O5 0.554585 0.748558 0.007710
O O6 0.667760 0.126820 0.250000
O O7 0.644808 0.193709 0.035906
O O8 0.748846 0.152956 0.058457
O O9 0.664470 0.095976 0.969698
O O10 0.114979 0.547743 0.750000
O O11 0.132276 0.500000 0.000000
O O12 0.106775 0.756907 0.250000
O O13 0.153049 0.795873 0.007745
O O14 0.204409 0.780909 0.750000
O O15 0.250000 0.750000 0.000000
#
# Coordination Sequence:
#
# PCOD8256727 Si02
#       6
#     8   8  16  16  16  16
#     4   9  19  32  44  60  79 109 149 188 226 262
#     4  11  19  30  46  64  87 116 151 185 221 262
#     4   9  18  31  45  62  83 108 141 180 221 262
#     4  11  21  33  46  61  82 110 148 189 230 267
#     4  10  19  30  44  65  88 112 144 179 219 263
#     4   9  17  29  45  64  85 109 139 176 217 263
#
# _framework density 14.829694
#
# number of rings (size 3 to 8) (size 9 to 14) (size 15 to 20)
#    0.000    2.200    2.000    3.600    0.000    4.000 
#    0.000    1.500    0.000    0.000    0.000    0.000 
#    0.000    0.000    0.000    0.900    0.000   12.000 
#
# Total GULP energy -495916.949863 kJ/mol
# GULP energy per Si atom -12397.923747 kJ/mol
# Density = 1.479594 g / cm^3
# Si number density = 14.829694 Si / 1000 Ang^3
#
#
#
# Elastic Constant Matrix: (Units=GPa)
#
#
# Indices 1 2 3 4 5 6 
#
# 1 108.0442 43.0126 48.5113 0.0000 0.0000 0.0000
# 2 43.0126 48.0130 30.1054 0.0000 0.0000 0.0000
# 3 48.5113 30.1054 82.2816 0.0000 0.0000 0.0000
# 4 0.0000 0.0000 0.0000 20.0255 0.0000 0.0000
# 5 0.0000 0.0000 0.0000 0.0000 27.2673 0.0000
# 6 0.0000 0.0000 0.0000 0.0000 0.0000 15.4393
#
#
#
# Elastic Compliance Matrix: (Units=1/GPa)
#
#
# Indices 1 2 3 4 5 6 
#
# 1 0.016079 -0.010979 -0.005463 0.000000 0.000000 0.000000
# 2 -0.010979 0.034525 -0.006159 0.000000 0.000000 0.000000
# 3 -0.005463 -0.006159 0.017628 0.000000 0.000000 0.000000
# 4 0.000000 0.000000 0.000000 0.049936 0.000000 0.000000
# 5 0.000000 0.000000 0.000000 0.000000 0.036674 0.000000
# 6 0.000000 0.000000 0.000000 0.000000 0.000000 0.064770
#
#
# Mechanical properties :
#
#
# Convention : Reuss Voigt Hill
#
# Bulk Modulus (GPa) = 43.42188 53.51084 48.46636
# Shear Modulus (GPa) = 18.34924 20.32705 19.33814
#
# Velocity S-wave (km/s) = 3.52139 3.70631 3.61503
# Velocity P-wave (km/s) = 6.77329 7.38089 7.08361
#
# Compressibility (1/GPa) = 0.02302986
#
# Stress axis : x y z
#
# Youngs Moduli (GPa) = 62.19271 28.96421 56.72917
#
# Poissons Ratio (x) = 0.31800 0.30990
# Poissons Ratio (y) = 0.68283 0.34940
# Poissons Ratio (z) = 0.33974 0.17840
#
# Static dielectric constant tensor:
#      x y z
#    x 3.116820 0.000000 0.000000 
#    y 0.000000 2.640570 0.000000 
#    z 0.000000 0.000000 2.915820 
# 
# 
# High freq. dielectric constant tensor:
#      x y z
#    x 1.563670 0.000000 0.000000 
#    y 0.000000 1.518770 0.000000 
#    z 0.000000 0.000000 1.579110 
# 
# From -- ./inp_files/8076.got.cif
#   From: 2010.03.12/outbox.cif.g09.slc.cpg/sg63_5_cif.got.tgz:8076.got - 2010.04.10 19:34:48.
