data_PCOD8256354
_publ_section_title
;
Structure prediction by ZEFSAII (Michael W. Deem and Ramdas Pophale) SiO2 
 PCOD8256354
Probable space group: C M C M
;
_chemical_formula_sum "Si O2"
_cell_formula_units_Z 104
_cell_length_a 26.481953
_cell_length_b 10.288727
_cell_length_c 21.214896
_cell_angle_alpha 90.000000
_cell_angle_beta 90.000000
_cell_angle_gamma 90.000000
_cell_volume 5780.329046
_symmetry_space_group_name_H-M "C M C M"
_symmetry_group_IT_number 63
_symmetry_cell_setting 'orthorhombic'
loop_
_space_group_symop_operation_xyz
x,y,z
-x,-y,1/2+z
x,-y,-z
-x,y,1/2-z
-x,-y,-z
x,y,1/2-z
-x,y,z
x,-y,1/2+z
1/2+x,1/2+y,z
1/2-x,1/2-y,1/2+z
1/2+x,1/2-y,-z
1/2-x,1/2+y,1/2-z
1/2-x,1/2-y,-z
1/2+x,1/2+y,1/2-z
1/2-x,1/2+y,z
1/2+x,1/2-y,1/2+z
loop_
_atom_site_type_symbol
_atom_site_label
_atom_site_fract_x
_atom_site_fract_y
_atom_site_fract_z
Si Si1 0.860650 0.814460 0.322735
Si Si2 0.368070 0.500000 0.500000
Si Si3 0.941608 0.897373 0.095311
Si Si4 0.649949 0.191580 0.822312
Si Si5 0.555715 0.348336 0.678800
Si Si6 0.702093 0.066453 0.324424
Si Si7 0.807975 0.061475 0.120888
O O1 0.872340 0.798387 0.250000
O O2 0.914598 0.794376 0.358040
O O3 0.820915 0.705101 0.344438
O O4 0.839192 0.957669 0.337688
O O5 0.407011 0.397403 0.467795
O O6 0.329102 0.561187 0.450102
O O7 0.000000 0.859272 0.081206
O O8 0.937695 0.038142 0.128122
O O9 0.662680 0.210934 0.750000
O O10 0.592253 0.228904 0.838379
O O11 0.686891 0.291250 0.856460
O O12 0.660419 0.042918 0.841102
O O13 0.566368 0.402199 0.750000
O O14 0.500000 0.289189 0.674667
O O15 0.717348 0.064308 0.250000
O O16 0.748899 0.031636 0.369967
#
# Coordination Sequence:
#
# PCOD8256354 Si02
#       7
#    16   8  16  16  16  16  16
#     4  10  19  33  53  82 111 132 166 212 261 318
#     4  10  21  34  52  80 102 132 181 232 258 288
#     4  10  19  33  54  77 104 135 170 216 265 308
#     4  10  18  32  53  77 104 134 169 209 258 316
#     4   9  16  28  51  79  99 122 163 212 258 305
#     4  10  21  34  52  78 109 141 167 205 263 319
#     4  11  20  34  53  73 102 139 182 216 252 300
#
# _framework density 17.992055000000001
#
# number of rings (size 3 to 8) (size 9 to 14) (size 15 to 20)
#    0.000    2.000    3.077    3.000    0.000    3.385 
#    0.000    7.692    0.000    2.769    0.000    1.077 
#    0.000    0.000    0.000    0.000    0.000    0.000 
#
# Total GULP energy -644349.300647 kJ/mol
# GULP energy per Si atom -12391.332705 kJ/mol
# Density = 1.795110 g / cm^3
# Si number density = 17.992055 Si / 1000 Ang^3
#
#
#
# Elastic Constant Matrix: (Units=GPa)
#
#
# Indices 1 2 3 4 5 6 
#
# 1 131.1426 24.3759 48.5871 0.0000 0.0000 0.0000
# 2 24.3759 56.1109 22.7613 0.0000 0.0000 0.0000
# 3 48.5871 22.7613 66.6442 0.0000 0.0000 0.0000
# 4 0.0000 0.0000 0.0000 9.0019 0.0000 0.0000
# 5 0.0000 0.0000 0.0000 0.0000 33.4951 0.0000
# 6 0.0000 0.0000 0.0000 0.0000 0.0000 20.9953
#
#
#
# Elastic Compliance Matrix: (Units=1/GPa)
#
#
# Indices 1 2 3 4 5 6 
#
# 1 0.010586 -0.001704 -0.007135 0.000000 0.000000 0.000000
# 2 -0.001704 0.020962 -0.005917 0.000000 0.000000 0.000000
# 3 -0.007135 -0.005917 0.022228 0.000000 0.000000 0.000000
# 4 0.000000 0.000000 0.000000 0.111088 0.000000 0.000000
# 5 0.000000 0.000000 0.000000 0.000000 0.029855 0.000000
# 6 0.000000 0.000000 0.000000 0.000000 0.000000 0.047630
#
#
# Mechanical properties :
#
#
# Convention : Reuss Voigt Hill
#
# Bulk Modulus (GPa) = 41.21519 49.48293 45.34906
# Shear Modulus (GPa) = 17.86037 23.24336 20.55187
#
# Velocity S-wave (km/s) = 3.15410 3.59816 3.38342
# Velocity P-wave (km/s) = 6.01844 6.69512 6.36578
#
# Compressibility (1/GPa) = 0.02426290
#
# Stress axis : x y z
#
# Youngs Moduli (GPa) = 94.46735 47.70448 44.98830
#
# Poissons Ratio (x) = 0.08130 0.32101
# Poissons Ratio (y) = 0.16099 0.26619
# Poissons Ratio (z) = 0.67407 0.28226
#
# Static dielectric constant tensor:
#      x y z
#    x 3.700050 0.000000 0.000000 
#    y 0.000000 3.171220 0.000000 
#    z 0.000000 0.000000 3.283150 
# 
# 
# High freq. dielectric constant tensor:
#      x y z
#    x 1.711510 0.000000 0.000000 
#    y 0.000000 1.662980 0.000000 
#    z 0.000000 0.000000 1.681270 
# 
# From -- ./inp_files/58508.got.cif
#   From: 2010.03.12/outbox.cif.g09.slc.cpg/sg63_30_cif.got.tgz:58508.got - 2010.04.10 19:34:48.
