data_PCOD8256505
_publ_section_title
;
Structure prediction by ZEFSAII (Michael W. Deem and Ramdas Pophale) SiO2 
 PCOD8256505
Probable space group: C M C M
;
_chemical_formula_sum "Si O2"
_cell_formula_units_Z 96
_cell_length_a 8.848372
_cell_length_b 25.146057
_cell_length_c 23.643006
_cell_angle_alpha 90.000000
_cell_angle_beta 90.000000
_cell_angle_gamma 90.000000
_cell_volume 5260.608240
_symmetry_space_group_name_H-M "C M C M"
_symmetry_group_IT_number 63
_symmetry_cell_setting 'orthorhombic'
loop_
_space_group_symop_operation_xyz
x,y,z
-x,-y,1/2+z
x,-y,-z
-x,y,1/2-z
-x,-y,-z
x,y,1/2-z
-x,y,z
x,-y,1/2+z
1/2+x,1/2+y,z
1/2-x,1/2-y,1/2+z
1/2+x,1/2-y,-z
1/2-x,1/2+y,1/2-z
1/2-x,1/2-y,-z
1/2+x,1/2+y,1/2-z
1/2-x,1/2+y,z
1/2+x,1/2-y,1/2+z
loop_
_atom_site_type_symbol
_atom_site_label
_atom_site_fract_x
_atom_site_fract_y
_atom_site_fract_z
Si Si1 0.820757 0.416608 0.938620
Si Si2 0.822403 0.144178 0.250000
Si Si3 0.179327 0.614163 0.561641
Si Si4 0.175511 0.773747 0.055791
Si Si5 0.175557 0.679658 0.139221
Si Si6 0.679335 0.984891 0.131538
Si Si7 0.820219 0.528036 0.250000
O O1 0.765334 0.366811 0.901863
O O2 0.754397 0.470486 0.911133
O O3 0.000000 0.418872 0.939840
O O4 0.760711 0.409709 0.002314
O O5 0.773115 0.178439 0.195925
O O6 0.743021 0.087183 0.250000
O O7 0.000000 0.135610 0.250000
O O8 0.255077 0.670278 0.573972
O O9 0.230776 0.573380 0.610893
O O10 0.000000 0.622208 0.560131
O O11 0.204123 0.735520 0.108842
O O12 0.000000 0.780174 0.042509
O O13 0.250000 0.750000 0.000000
O O14 0.000000 0.671152 0.154320
O O15 0.500000 0.988847 0.130240
O O16 0.738588 0.995992 0.194991
O O17 0.000000 0.532954 0.250000
#
# Coordination Sequence:
#
# PCOD8256505 Si02
#       7
#    16   8  16  16  16  16   8
#     4   9  15  28  53  82 107 139 182 226 268 318
#     4  12  24  36  55  86 115 141 176 232 292 327
#     4  10  19  33  53  82 114 146 185 230 276 323
#     4  11  22  37  58  83 111 147 188 228 276 332
#     4  10  20  37  59  80 106 147 190 224 268 333
#     4   9  17  29  53  82 109 142 188 232 264 317
#     4  10  18  34  57  80 107 149 192 224 268 331
#
# _framework density 18.248840000000001
#
# number of rings (size 3 to 8) (size 9 to 14) (size 15 to 20)
#    0.000    2.000    3.333    1.750    0.000    3.333 
#    0.000    1.667    0.000    2.000    0.000    0.000 
#    0.000    0.000    0.000    0.000    0.000    0.000 
#
# Total GULP energy -595203.649566 kJ/mol
# GULP energy per Si atom -12400.076033 kJ/mol
# Density = 1.820730 g / cm^3
# Si number density = 18.248840 Si / 1000 Ang^3
#
#
#
# Elastic Constant Matrix: (Units=GPa)
#
#
# Indices 1 2 3 4 5 6 
#
# 1 44.2195 35.3751 35.4992 0.0000 0.0000 0.0000
# 2 35.3751 154.5674 68.3916 0.0000 0.0000 0.0000
# 3 35.4992 68.3916 132.9826 0.0000 0.0000 0.0000
# 4 0.0000 0.0000 0.0000 28.4021 0.0000 0.0000
# 5 0.0000 0.0000 0.0000 0.0000 15.9798 0.0000
# 6 0.0000 0.0000 0.0000 0.0000 0.0000 26.8446
#
#
#
# Elastic Compliance Matrix: (Units=1/GPa)
#
#
# Indices 1 2 3 4 5 6 
#
# 1 0.030970 -0.004440 -0.005984 0.000000 0.000000 0.000000
# 2 -0.004440 0.009012 -0.003450 0.000000 0.000000 0.000000
# 3 -0.005984 -0.003450 0.010891 0.000000 0.000000 0.000000
# 4 0.000000 0.000000 0.000000 0.035209 0.000000 0.000000
# 5 0.000000 0.000000 0.000000 0.000000 0.062579 0.000000
# 6 0.000000 0.000000 0.000000 0.000000 0.000000 0.037251
#
#
# Mechanical properties :
#
#
# Convention : Reuss Voigt Hill
#
# Bulk Modulus (GPa) = 43.24060 67.81125 55.52592
# Shear Modulus (GPa) = 22.58669 27.07888 24.83279
#
# Velocity S-wave (km/s) = 3.52192 3.85628 3.69289
# Velocity P-wave (km/s) = 6.34705 7.55432 6.97685
#
# Compressibility (1/GPa) = 0.02312642
#
# Stress axis : x y z
#
# Youngs Moduli (GPa) = 32.28880 110.96002 91.81722
#
# Poissons Ratio (x) = 0.49271 0.54942
# Poissons Ratio (y) = 0.14338 0.31673
# Poissons Ratio (z) = 0.19321 0.38276
#
# Static dielectric constant tensor:
#      x y z
#    x 3.011860 0.000000 0.000000 
#    y 0.000000 3.481450 0.000000 
#    z 0.000000 0.000000 3.593040 
# 
# 
# High freq. dielectric constant tensor:
#      x y z
#    x 1.667760 0.000000 0.000000 
#    y 0.000000 1.711090 0.000000 
#    z 0.000000 0.000000 1.712790 
# 
# From -- ./inp_files/60055.got.cif
#   From: 2010.03.12/outbox.cif.g09.slc.cpg/sg63_31_cif.got.tgz:60055.got - 2010.04.10 19:34:48.
