data_PCOD8256458
_publ_section_title
;
Structure prediction by ZEFSAII (Michael W. Deem and Ramdas Pophale) SiO2 
 PCOD8256458
Probable space group: C M C M
;
_chemical_formula_sum "Si O2"
_cell_formula_units_Z 88
_cell_length_a 25.633139
_cell_length_b 8.254096
_cell_length_c 19.699603
_cell_angle_alpha 90.000000
_cell_angle_beta 90.000000
_cell_angle_gamma 90.000000
_cell_volume 4168.010288
_symmetry_space_group_name_H-M "C M C M"
_symmetry_group_IT_number 63
_symmetry_cell_setting 'orthorhombic'
loop_
_space_group_symop_operation_xyz
x,y,z
-x,-y,1/2+z
x,-y,-z
-x,y,1/2-z
-x,-y,-z
x,y,1/2-z
-x,y,z
x,-y,1/2+z
1/2+x,1/2+y,z
1/2-x,1/2-y,1/2+z
1/2+x,1/2-y,-z
1/2-x,1/2+y,1/2-z
1/2-x,1/2-y,-z
1/2+x,1/2+y,1/2-z
1/2-x,1/2+y,z
1/2+x,1/2-y,1/2+z
loop_
_atom_site_type_symbol
_atom_site_label
_atom_site_fract_x
_atom_site_fract_y
_atom_site_fract_z
Si Si1 0.500000 0.645247 0.913113
Si Si2 0.805584 0.548571 0.829839
Si Si3 0.392922 0.276383 0.608746
Si Si4 0.701972 0.699378 0.877553
Si Si5 0.093167 0.905959 0.324504
Si Si6 0.165361 0.000000 0.000000
Si Si7 0.000000 0.235692 0.442865
O O1 0.447001 0.686823 0.873193
O O2 0.500000 0.456271 0.930445
O O3 0.500000 0.764848 0.976774
O O4 0.815725 0.508577 0.750000
O O5 0.853286 0.646482 0.862048
O O6 0.753250 0.652213 0.835875
O O7 0.798396 0.393541 0.878506
O O8 0.408308 0.399983 0.668263
O O9 0.370482 0.382261 0.545564
O O10 0.446745 0.186359 0.586942
O O11 0.651979 0.647814 0.835541
O O12 0.701083 0.616519 0.952497
O O13 0.074933 0.858606 0.250000
#
# Coordination Sequence:
#
# PCOD8256458 Si02
#       7
#     8  16  16  16  16   8   8
#     4   9  17  30  57  84 118 152 199 253 289 355
#     4  12  25  42  61  89 120 162 206 252 311 369
#     4  10  21  36  62  87 124 161 202 256 299 365
#     4  11  24  40  64  87 123 160 199 254 303 368
#     4  10  18  33  56  88 119 159 203 247 299 355
#     4  10  22  41  62  98 122 157 206 246 310 362
#     4   9  16  34  55  84 115 158 199 241 309 353
#
# _framework density 21.113192000000002
#
# number of rings (size 3 to 8) (size 9 to 14) (size 15 to 20)
#    0.000    1.636    0.000    7.909    0.000    3.636 
#    0.000    2.273    0.000    2.182    0.000    0.000 
#    0.000    0.000    0.000    0.000    0.000    0.000 
#
# Total GULP energy -545406.755258 kJ/mol
# GULP energy per Si atom -12395.608074 kJ/mol
# Density = 2.106514 g / cm^3
# Si number density = 21.113192 Si / 1000 Ang^3
#
#
#
# Elastic Constant Matrix: (Units=GPa)
#
#
# Indices 1 2 3 4 5 6 
#
# 1 178.4871 47.2667 62.2354 0.0000 0.0000 0.0000
# 2 47.2667 79.3046 27.7399 0.0000 0.0000 0.0000
# 3 62.2354 27.7399 115.2394 0.0000 0.0000 0.0000
# 4 0.0000 0.0000 0.0000 25.9136 0.0000 0.0000
# 5 0.0000 0.0000 0.0000 0.0000 23.0835 0.0000
# 6 0.0000 0.0000 0.0000 0.0000 0.0000 10.1453
#
#
#
# Elastic Compliance Matrix: (Units=1/GPa)
#
#
# Indices 1 2 3 4 5 6 
#
# 1 0.007661 -0.003406 -0.003318 0.000000 0.000000 0.000000
# 2 -0.003406 0.015283 -0.001840 0.000000 0.000000 0.000000
# 3 -0.003318 -0.001840 0.010912 0.000000 0.000000 0.000000
# 4 0.000000 0.000000 0.000000 0.038590 0.000000 0.000000
# 5 0.000000 0.000000 0.000000 0.000000 0.043321 0.000000
# 6 0.000000 0.000000 0.000000 0.000000 0.000000 0.098567
#
#
# Mechanical properties :
#
#
# Convention : Reuss Voigt Hill
#
# Bulk Modulus (GPa) = 59.77150 71.94609 65.85879
# Shear Modulus (GPa) = 21.09371 27.54777 24.32074
#
# Velocity S-wave (km/s) = 3.16425 3.61607 3.39768
# Velocity P-wave (km/s) = 6.45921 7.18227 6.83032
#
# Compressibility (1/GPa) = 0.01673038
#
# Stress axis : x y z
#
# Youngs Moduli (GPa) = 130.52440 65.43234 91.64101
#
# Poissons Ratio (x) = 0.22285 0.30404
# Poissons Ratio (y) = 0.44454 0.16858
# Poissons Ratio (z) = 0.43305 0.12036
#
# Static dielectric constant tensor:
#      x y z
#    x 4.135280 0.000000 0.000000 
#    y 0.000000 3.563640 0.000000 
#    z 0.000000 0.000000 4.060010 
# 
# 
# High freq. dielectric constant tensor:
#      x y z
#    x 1.845100 0.000000 0.000000 
#    y 0.000000 1.793900 0.000000 
#    z 0.000000 0.000000 1.832490 
# 
# From -- ./inp_files/57369.got.cif
#   From: 2010.03.12/outbox.cif.g09.slc.cpg/sg63_29_cif.got.tgz:57369.got - 2010.04.10 19:34:48.
