data_PCOD8256483
_publ_section_title
;
Structure prediction by ZEFSAII (Michael W. Deem and Ramdas Pophale) SiO2 
 PCOD8256483
Probable space group: C M C M
;
_chemical_formula_sum "Si O2"
_cell_formula_units_Z 128
_cell_length_a 22.731462
_cell_length_b 19.001754
_cell_length_c 17.744602
_cell_angle_alpha 90.000000
_cell_angle_beta 90.000000
_cell_angle_gamma 90.000000
_cell_volume 7664.561670
_symmetry_space_group_name_H-M "C M C M"
_symmetry_group_IT_number 63
_symmetry_cell_setting 'orthorhombic'
loop_
_space_group_symop_operation_xyz
x,y,z
-x,-y,1/2+z
x,-y,-z
-x,y,1/2-z
-x,-y,-z
x,y,1/2-z
-x,y,z
x,-y,1/2+z
1/2+x,1/2+y,z
1/2-x,1/2-y,1/2+z
1/2+x,1/2-y,-z
1/2-x,1/2+y,1/2-z
1/2-x,1/2-y,-z
1/2+x,1/2+y,1/2-z
1/2-x,1/2+y,z
1/2+x,1/2-y,1/2+z
loop_
_atom_site_type_symbol
_atom_site_label
_atom_site_fract_x
_atom_site_fract_y
_atom_site_fract_z
Si Si1 0.843673 0.998785 0.416932
Si Si2 0.723184 0.081884 0.567114
Si Si3 0.565178 0.591267 0.838843
Si Si4 0.066816 0.375218 0.836512
Si Si5 0.127529 0.770148 0.336622
Si Si6 0.252035 0.763451 0.087965
Si Si7 0.784640 0.126240 0.163695
Si Si8 0.322724 0.940940 0.600135
O O1 0.823943 0.075052 0.387577
O O2 0.871997 0.000000 0.500000
O O3 0.789619 0.944607 0.422319
O O4 0.893875 0.973869 0.360273
O O5 0.719165 0.159619 0.603353
O O6 0.704184 0.083419 0.479865
O O7 0.681492 0.025753 0.610134
O O8 0.560659 0.596029 0.750000
O O9 0.500000 0.581740 0.873601
O O10 0.593978 0.662626 0.870534
O O11 0.074341 0.399247 0.750000
O O12 0.082423 0.293725 0.845678
O O13 0.109183 0.421442 0.889726
O O14 0.000000 0.387040 0.863838
O O15 0.146192 0.781687 0.250000
O O16 0.185809 0.756992 0.383643
O O17 0.291219 0.705073 0.130551
O O18 0.250000 0.750000 0.000000
O O19 0.806238 0.125679 0.250000
O O20 0.716556 0.100077 0.161959
#
# Coordination Sequence:
#
# PCOD8256483 Si02
#       8
#    16  16  16  16  16  16  16  16
#     4  11  19  36  54  74 104 139 176 218 265 316
#     4  10  19  33  51  76 104 137 170 216 267 315
#     4  10  21  35  52  76 106 139 174 214 262 314
#     4  10  19  32  50  73 103 138 172 208 258 316
#     4  10  19  31  49  75 107 135 170 212 261 319
#     4  12  19  31  52  78 104 145 171 212 264 324
#     4  11  21  32  50  77 107 138 177 220 262 314
#     4  10  18  34  51  74 105 136 172 215 262 313
#
# _framework density 16.700237999999999
#
# number of rings (size 3 to 8) (size 9 to 14) (size 15 to 20)
#    0.000    1.500    6.250    1.500    0.000    1.750 
#    0.000    3.125    0.000    0.000    0.000    0.875 
#    0.000    2.000    0.000    0.000    0.000    0.000 
#
# Total GULP energy -793492.967918 kJ/mol
# GULP energy per Si atom -12398.327624 kJ/mol
# Density = 1.666223 g / cm^3
# Si number density = 16.700238 Si / 1000 Ang^3
#
#
#
# Elastic Constant Matrix: (Units=GPa)
#
#
# Indices 1 2 3 4 5 6 
#
# 1 98.1791 36.3843 24.5873 0.0000 0.0000 0.0000
# 2 36.3843 123.3758 29.8438 0.0000 0.0000 0.0000
# 3 24.5873 29.8438 61.7260 0.0000 0.0000 0.0000
# 4 0.0000 0.0000 0.0000 22.1424 0.0000 0.0000
# 5 0.0000 0.0000 0.0000 0.0000 20.3937 0.0000
# 6 0.0000 0.0000 0.0000 0.0000 0.0000 19.2878
#
#
#
# Elastic Compliance Matrix: (Units=1/GPa)
#
#
# Indices 1 2 3 4 5 6 
#
# 1 0.012066 -0.002713 -0.003495 0.000000 0.000000 0.000000
# 2 -0.002713 0.009789 -0.003652 0.000000 0.000000 0.000000
# 3 -0.003495 -0.003652 0.019358 0.000000 0.000000 0.000000
# 4 0.000000 0.000000 0.000000 0.045162 0.000000 0.000000
# 5 0.000000 0.000000 0.000000 0.000000 0.049035 0.000000
# 6 0.000000 0.000000 0.000000 0.000000 0.000000 0.051846
#
#
# Mechanical properties :
#
#
# Convention : Reuss Voigt Hill
#
# Bulk Modulus (GPa) = 46.52492 51.65686 49.09089
# Shear Modulus (GPa) = 23.34917 25.19582 24.27249
#
# Velocity S-wave (km/s) = 3.74322 3.88843 3.81651
# Velocity P-wave (km/s) = 6.82653 7.15254 6.99144
#
# Compressibility (1/GPa) = 0.02149386
#
# Stress axis : x y z
#
# Youngs Moduli (GPa) = 82.87720 102.15728 51.65732
#
# Poissons Ratio (x) = 0.27716 0.18052
# Poissons Ratio (y) = 0.22485 0.18866
# Poissons Ratio (z) = 0.28962 0.37309
#
# Static dielectric constant tensor:
#      x y z
#    x 3.029290 0.000000 0.000000 
#    y 0.000000 3.377900 0.000000 
#    z 0.000000 0.000000 2.761660 
# 
# 
# High freq. dielectric constant tensor:
#      x y z
#    x 1.619170 0.000000 0.000000 
#    y 0.000000 1.651770 0.000000 
#    z 0.000000 0.000000 1.631200 
# 
# From -- ./inp_files/48425.got.cif
#   From: 2010.03.12/outbox.cif.g09.slc.cpg/sg63_25_cif.got.tgz:48425.got - 2010.04.10 19:34:48.
