data_PCOD8256444
_publ_section_title
;
Structure prediction by ZEFSAII (Michael W. Deem and Ramdas Pophale) SiO2 
 PCOD8256444
Probable space group: C M C M
;
_chemical_formula_sum "Si O2"
_cell_formula_units_Z 128
_cell_length_a 20.859157
_cell_length_b 18.657242
_cell_length_c 18.406651
_cell_angle_alpha 90.000000
_cell_angle_beta 90.000000
_cell_angle_gamma 90.000000
_cell_volume 7163.396256
_symmetry_space_group_name_H-M "C M C M"
_symmetry_group_IT_number 63
_symmetry_cell_setting 'orthorhombic'
loop_
_space_group_symop_operation_xyz
x,y,z
-x,-y,1/2+z
x,-y,-z
-x,y,1/2-z
-x,-y,-z
x,y,1/2-z
-x,y,z
x,-y,1/2+z
1/2+x,1/2+y,z
1/2-x,1/2-y,1/2+z
1/2+x,1/2-y,-z
1/2-x,1/2+y,1/2-z
1/2-x,1/2-y,-z
1/2+x,1/2+y,1/2-z
1/2-x,1/2+y,z
1/2+x,1/2-y,1/2+z
loop_
_atom_site_type_symbol
_atom_site_label
_atom_site_fract_x
_atom_site_fract_y
_atom_site_fract_z
Si Si1 0.927072 0.708617 0.335286
Si Si2 0.310347 0.627912 0.331694
Si Si3 0.701446 0.853131 0.472792
Si Si4 0.196676 0.437162 0.167522
Si Si5 0.424699 0.645770 0.911694
Si Si6 0.336031 0.697220 0.023159
Si Si7 0.672175 0.089958 0.120828
Si Si8 0.845100 0.029757 0.668340
O O1 0.920746 0.713283 0.250000
O O2 0.902486 0.785318 0.364809
O O3 0.887147 0.641501 0.363736
O O4 0.000000 0.695969 0.360737
O O5 0.326692 0.654266 0.250000
O O6 0.332094 0.686418 0.390211
O O7 0.233936 0.618833 0.336266
O O8 0.348238 0.554610 0.349883
O O9 0.678940 0.878036 0.392755
O O10 0.661847 0.781760 0.491539
O O11 0.777326 0.837577 0.477953
O O12 0.684559 0.912190 0.533974
O O13 0.179337 0.412394 0.250000
O O14 0.157794 0.509921 0.149218
O O15 0.271999 0.447714 0.158630
O O16 0.500000 0.633059 0.910469
O O17 0.391725 0.573312 0.883866
O O18 0.400934 0.660911 0.993636
O O19 0.868521 0.044271 0.750000
#
# Coordination Sequence:
#
# PCOD8256444 Si02
#       8
#    16  16  16  16  16  16  16  16
#     4  10  20  33  52  79 110 143 177 215 264 323
#     4   9  19  33  53  76 103 138 176 225 273 319
#     4  10  19  33  52  76 108 141 174 225 270 313
#     4  10  19  31  52  81 110 140 174 216 268 319
#     4  11  21  35  53  75 109 145 178 220 269 323
#     4  10  20  34  51  76 104 138 183 219 270 318
#     4  10  18  33  54  78 108 140 175 215 272 323
#     4   9  18  33  50  74 107 137 174 221 267 318
#
# _framework density 17.86862
#
# number of rings (size 3 to 8) (size 9 to 14) (size 15 to 20)
#    0.000    2.125    2.500    2.625    0.000    1.750 
#    0.000    1.250    0.000    3.375    0.000    0.000 
#    0.000    0.000    0.000    0.000    0.000    0.000 
#
# Total GULP energy -793440.604820 kJ/mol
# GULP energy per Si atom -12397.509450 kJ/mol
# Density = 1.782795 g / cm^3
# Si number density = 17.868620 Si / 1000 Ang^3
#
#
#
# Elastic Constant Matrix: (Units=GPa)
#
#
# Indices 1 2 3 4 5 6 
#
# 1 50.7692 28.8943 17.4974 0.0000 0.0000 0.0000
# 2 28.8943 57.4585 32.6127 0.0000 0.0000 0.0000
# 3 17.4974 32.6127 106.5678 0.0000 0.0000 0.0000
# 4 0.0000 0.0000 0.0000 28.5212 0.0000 0.0000
# 5 0.0000 0.0000 0.0000 0.0000 15.1843 0.0000
# 6 0.0000 0.0000 0.0000 0.0000 0.0000 25.8620
#
#
#
# Elastic Compliance Matrix: (Units=1/GPa)
#
#
# Indices 1 2 3 4 5 6 
#
# 1 0.027605 -0.013687 -0.000344 0.000000 0.000000 0.000000
# 2 -0.013687 0.027848 -0.006275 0.000000 0.000000 0.000000
# 3 -0.000344 -0.006275 0.011361 0.000000 0.000000 0.000000
# 4 0.000000 0.000000 0.000000 0.035062 0.000000 0.000000
# 5 0.000000 0.000000 0.000000 0.000000 0.065857 0.000000
# 6 0.000000 0.000000 0.000000 0.000000 0.000000 0.038667
#
#
# Mechanical properties :
#
#
# Convention : Reuss Voigt Hill
#
# Bulk Modulus (GPa) = 38.16453 41.42269 39.79361
# Shear Modulus (GPa) = 19.55073 22.96623 21.25848
#
# Velocity S-wave (km/s) = 3.31136 3.58897 3.45296
# Velocity P-wave (km/s) = 6.00208 6.35661 6.18188
#
# Compressibility (1/GPa) = 0.02620234
#
# Stress axis : x y z
#
# Youngs Moduli (GPa) = 36.22537 35.90911 88.02404
#
# Poissons Ratio (x) = 0.49147 0.03028
# Poissons Ratio (y) = 0.49580 0.55236
# Poissons Ratio (z) = 0.01246 0.22533
#
# Static dielectric constant tensor:
#      x y z
#    x 2.997720 0.000000 0.000000 
#    y 0.000000 3.276340 0.000000 
#    z 0.000000 0.000000 3.407540 
# 
# 
# High freq. dielectric constant tensor:
#      x y z
#    x 1.649550 0.000000 0.000000 
#    y 0.000000 1.688010 0.000000 
#    z 0.000000 0.000000 1.701980 
# 
# From -- ./inp_files/47539.got.cif
#   From: 2010.03.12/outbox.cif.g09.slc.cpg/sg63_24_cif.got.tgz:47539.got - 2010.04.10 19:34:48.
