data_PCOD8256571
_publ_section_title
;
Structure prediction by ZEFSAII (Michael W. Deem and Ramdas Pophale) SiO2 
 PCOD8256571
Probable space group: C M C M
;
_chemical_formula_sum "Si O2"
_cell_formula_units_Z 96
_cell_length_a 14.635944
_cell_length_b 20.234264
_cell_length_c 16.902479
_cell_angle_alpha 90.000000
_cell_angle_beta 90.000000
_cell_angle_gamma 90.000000
_cell_volume 5005.627826
_symmetry_space_group_name_H-M "C M C M"
_symmetry_group_IT_number 63
_symmetry_cell_setting 'orthorhombic'
loop_
_space_group_symop_operation_xyz
x,y,z
-x,-y,1/2+z
x,-y,-z
-x,y,1/2-z
-x,-y,-z
x,y,1/2-z
-x,y,z
x,-y,1/2+z
1/2+x,1/2+y,z
1/2-x,1/2-y,1/2+z
1/2+x,1/2-y,-z
1/2-x,1/2+y,1/2-z
1/2-x,1/2-y,-z
1/2+x,1/2+y,1/2-z
1/2-x,1/2+y,z
1/2+x,1/2-y,1/2+z
loop_
_atom_site_type_symbol
_atom_site_label
_atom_site_fract_x
_atom_site_fract_y
_atom_site_fract_z
Si Si1 0.000000 0.663732 0.657116
Si Si2 0.188504 0.267534 0.158905
Si Si3 0.000000 0.920829 0.844468
Si Si4 0.310225 0.615966 0.601249
Si Si5 0.304052 0.990852 0.593882
Si Si6 0.500000 0.570079 0.842457
Si Si7 0.314420 0.630315 0.085434
Si Si8 0.500000 0.979206 0.409287
O O1 0.911243 0.706107 0.634112
O O2 0.000000 0.643761 0.750000
O O3 0.000000 0.599745 0.601222
O O4 0.188559 0.246957 0.250000
O O5 0.265056 0.321800 0.143155
O O6 0.215882 0.203730 0.108139
O O7 0.913143 0.883205 0.878523
O O8 0.000000 0.916264 0.750000
O O9 0.000000 0.995736 0.877899
O O10 0.254976 0.551045 0.629249
O O11 0.413341 0.611209 0.629960
O O12 0.312887 0.624082 0.507987
O O13 0.257832 0.922407 0.620526
O O14 0.308344 0.000000 0.500000
O O15 0.406995 0.992254 0.630010
O O16 0.500000 0.562481 0.750000
O O17 0.500000 0.000000 0.500000
#
# Coordination Sequence:
#
# PCOD8256571 Si02
#       8
#     8  16   8  16  16   8  16   8
#     4  10  21  37  60  87 117 154 201 249 298 351
#     4  11  23  40  59  86 124 160 198 251 306 362
#     4  11  22  37  60  91 125 157 192 250 316 361
#     4  11  21  39  61  86 117 161 204 246 295 362
#     4   9  19  34  60  88 117 149 195 249 294 343
#     4  11  23  37  57  88 118 155 199 241 301 373
#     4  11  22  38  60  92 120 154 202 254 304 355
#     4  10  18  37  61  90 117 150 196 247 292 348
#
# _framework density 19.178414
#
# number of rings (size 3 to 8) (size 9 to 14) (size 15 to 20)
#    0.000    1.500    3.333    2.500    0.000    1.333 
#    0.000    2.500    0.000    0.000    0.000    0.000 
#    0.000    0.000    0.000    0.000    0.000    0.000 
#
# Total GULP energy -595303.817176 kJ/mol
# GULP energy per Si atom -12402.162858 kJ/mol
# Density = 1.913476 g / cm^3
# Si number density = 19.178414 Si / 1000 Ang^3
#
#
#
# Elastic Constant Matrix: (Units=GPa)
#
#
# Indices 1 2 3 4 5 6 
#
# 1 152.5856 57.8735 8.1059 0.0000 0.0000 0.0000
# 2 57.8735 144.1236 22.7687 0.0000 0.0000 0.0000
# 3 8.1059 22.7687 43.7848 0.0000 0.0000 0.0000
# 4 0.0000 0.0000 0.0000 30.4985 0.0000 0.0000
# 5 0.0000 0.0000 0.0000 0.0000 19.5285 0.0000
# 6 0.0000 0.0000 0.0000 0.0000 0.0000 35.0577
#
#
#
# Elastic Compliance Matrix: (Units=1/GPa)
#
#
# Indices 1 2 3 4 5 6 
#
# 1 0.007733 -0.003137 0.000200 0.000000 0.000000 0.000000
# 2 -0.003137 0.008832 -0.004012 0.000000 0.000000 0.000000
# 3 0.000200 -0.004012 0.024888 0.000000 0.000000 0.000000
# 4 0.000000 0.000000 0.000000 0.032789 0.000000 0.000000
# 5 0.000000 0.000000 0.000000 0.000000 0.051207 0.000000
# 6 0.000000 0.000000 0.000000 0.000000 0.000000 0.028524
#
#
# Mechanical properties :
#
#
# Convention : Reuss Voigt Hill
#
# Bulk Modulus (GPa) = 36.29142 57.55446 46.92294
# Shear Modulus (GPa) = 28.23960 33.79998 31.01979
#
# Velocity S-wave (km/s) = 3.84144 4.20265 4.02609
# Velocity P-wave (km/s) = 6.21608 7.32290 6.79207
#
# Compressibility (1/GPa) = 0.02755472
#
# Stress axis : x y z
#
# Youngs Moduli (GPa) = 129.31941 113.22665 40.17951
#
# Poissons Ratio (x) = 0.35515 -0.00802
# Poissons Ratio (y) = 0.40563 0.16120
# Poissons Ratio (z) = -0.02580 0.45426
#
# Static dielectric constant tensor:
#      x y z
#    x 3.809030 0.000000 0.000000 
#    y 0.000000 3.578150 0.000000 
#    z 0.000000 0.000000 3.326240 
# 
# 
# High freq. dielectric constant tensor:
#      x y z
#    x 1.760220 0.000000 0.000000 
#    y 0.000000 1.748450 0.000000 
#    z 0.000000 0.000000 1.730110 
# 
# From -- ./inp_files/32032.got.cif
#   From: 2010.03.12/outbox.cif.g09.slc.cpg/sg63_17_cif.got.tgz:32032.got - 2010.04.10 19:34:48.
