data_PCOD8256729
_publ_section_title
;
Structure prediction by ZEFSAII (Michael W. Deem and Ramdas Pophale) SiO2 
 PCOD8256729
Probable space group: C M C M
;
_chemical_formula_sum "Si O2"
_cell_formula_units_Z 72
_cell_length_a 33.295913
_cell_length_b 14.501190
_cell_length_c 9.194162
_cell_angle_alpha 90.000000
_cell_angle_beta 90.000000
_cell_angle_gamma 90.000000
_cell_volume 4439.220554
_symmetry_space_group_name_H-M "C M C M"
_symmetry_group_IT_number 63
_symmetry_cell_setting 'orthorhombic'
loop_
_space_group_symop_operation_xyz
x,y,z
-x,-y,1/2+z
x,-y,-z
-x,y,1/2-z
-x,-y,-z
x,y,1/2-z
-x,y,z
x,-y,1/2+z
1/2+x,1/2+y,z
1/2-x,1/2-y,1/2+z
1/2+x,1/2-y,-z
1/2-x,1/2+y,1/2-z
1/2-x,1/2-y,-z
1/2+x,1/2+y,1/2-z
1/2-x,1/2+y,z
1/2+x,1/2-y,1/2+z
loop_
_atom_site_type_symbol
_atom_site_label
_atom_site_fract_x
_atom_site_fract_y
_atom_site_fract_z
Si Si1 0.842529 0.730491 0.578979
Si Si2 0.225586 0.409642 0.418204
Si Si3 0.317761 0.593295 0.921694
Si Si4 0.913058 0.402857 0.080023
Si Si5 0.500000 0.093363 0.583651
O O1 0.844605 0.753386 0.750000
O O2 0.801714 0.676866 0.538175
O O3 0.844069 0.824229 0.487400
O O4 0.880302 0.670152 0.525794
O O5 0.209758 0.500000 0.500000
O O6 0.221205 0.433048 0.250000
O O7 0.271306 0.386704 0.460535
O O8 0.325087 0.584851 0.750000
O O9 0.332051 0.500000 0.000000
O O10 0.906760 0.422609 0.250000
O O11 0.957403 0.356638 0.047794
O O12 0.907270 0.500000 0.000000
O O13 0.500000 0.064871 0.750000
O O14 0.500000 0.000000 0.500000
#
# Coordination Sequence:
#
# PCOD8256729 Si02
#       5
#    16  16  16  16   8
#     4  10  19  30  44  65  90 115 145 182 218 254
#     4   9  18  30  44  63  88 116 146 179 216 256
#     4  10  20  33  47  62  82 113 149 185 222 259
#     4   9  17  28  44  66  93 121 147 175 209 251
#     4   8  14  26  42  62  89 120 147 170 203 250
#
# _framework density 16.219063999999999
#
# number of rings (size 3 to 8) (size 9 to 14) (size 15 to 20)
#    0.000    2.667    0.000    2.000    0.000    2.667 
#    0.000    0.000    0.000    0.000    0.000    0.778 
#    0.000    0.000    0.000    0.000    0.000    0.000 
#
# Total GULP energy -446208.559831 kJ/mol
# GULP energy per Si atom -12394.682218 kJ/mol
# Density = 1.618215 g / cm^3
# Si number density = 16.219064 Si / 1000 Ang^3
#
#
#
# Elastic Constant Matrix: (Units=GPa)
#
#
# Indices 1 2 3 4 5 6 
#
# 1 91.9982 59.5733 32.0252 0.0000 0.0000 0.0000
# 2 59.5733 118.2474 50.0093 0.0000 0.0000 0.0000
# 3 32.0252 50.0093 51.8542 0.0000 0.0000 0.0000
# 4 0.0000 0.0000 0.0000 31.4412 0.0000 0.0000
# 5 0.0000 0.0000 0.0000 0.0000 15.7891 0.0000
# 6 0.0000 0.0000 0.0000 0.0000 0.0000 17.2046
#
#
#
# Elastic Compliance Matrix: (Units=1/GPa)
#
#
# Indices 1 2 3 4 5 6 
#
# 1 0.016538 -0.006776 -0.003679 0.000000 0.000000 0.000000
# 2 -0.006776 0.017058 -0.012267 0.000000 0.000000 0.000000
# 3 -0.003679 -0.012267 0.033387 0.000000 0.000000 0.000000
# 4 0.000000 0.000000 0.000000 0.031805 0.000000 0.000000
# 5 0.000000 0.000000 0.000000 0.000000 0.063335 0.000000
# 6 0.000000 0.000000 0.000000 0.000000 0.000000 0.058124
#
#
# Mechanical properties :
#
#
# Convention : Reuss Voigt Hill
#
# Bulk Modulus (GPa) = 46.42433 60.59057 53.50745
# Shear Modulus (GPa) = 18.32363 20.91980 19.62171
#
# Velocity S-wave (km/s) = 3.36483 3.59531 3.48198
# Velocity P-wave (km/s) = 6.61677 7.39417 7.01624
#
# Compressibility (1/GPa) = 0.02154043
#
# Stress axis : x y z
#
# Youngs Moduli (GPa) = 60.46556 58.62197 29.95161
#
# Poissons Ratio (x) = 0.39723 0.11019
# Poissons Ratio (y) = 0.40972 0.36740
# Poissons Ratio (z) = 0.22246 0.71909
#
# Static dielectric constant tensor:
#      x y z
#    x 3.527830 0.000000 0.000000 
#    y 0.000000 2.850630 0.000000 
#    z 0.000000 0.000000 3.021360 
# 
# 
# High freq. dielectric constant tensor:
#      x y z
#    x 1.615620 0.000000 0.000000 
#    y 0.000000 1.600110 0.000000 
#    z 0.000000 0.000000 1.627040 
# 
# From -- ./inp_files/13888.got.cif
#   From: 2010.03.12/outbox.cif.g09.slc.cpg/sg63_7_cif.got.tgz:13888.got - 2010.04.10 19:34:48.
