data_PCOD8256787
_publ_section_title
;
Structure prediction by ZEFSAII (Michael W. Deem and Ramdas Pophale) SiO2 
 PCOD8256787
Probable space group: C M C M
;
_chemical_formula_sum "Si O2"
_cell_formula_units_Z 112
_cell_length_a 21.905533
_cell_length_b 18.499037
_cell_length_c 17.877565
_cell_angle_alpha 90.000000
_cell_angle_beta 90.000000
_cell_angle_gamma 90.000000
_cell_volume 7244.548289
_symmetry_space_group_name_H-M "C M C M"
_symmetry_group_IT_number 63
_symmetry_cell_setting 'orthorhombic'
loop_
_space_group_symop_operation_xyz
x,y,z
-x,-y,1/2+z
x,-y,-z
-x,y,1/2-z
-x,-y,-z
x,y,1/2-z
-x,y,z
x,-y,1/2+z
1/2+x,1/2+y,z
1/2-x,1/2-y,1/2+z
1/2+x,1/2-y,-z
1/2-x,1/2+y,1/2-z
1/2-x,1/2-y,-z
1/2+x,1/2+y,1/2-z
1/2-x,1/2+y,z
1/2+x,1/2-y,1/2+z
loop_
_atom_site_type_symbol
_atom_site_label
_atom_site_fract_x
_atom_site_fract_y
_atom_site_fract_z
Si Si1 0.766299 0.873469 0.335837
Si Si2 0.732794 0.329964 0.907118
Si Si3 0.069486 0.953015 0.573914
Si Si4 0.343990 0.780235 0.165578
Si Si5 0.430396 0.717121 0.046220
Si Si6 0.669259 0.273452 0.443276
Si Si7 0.188500 0.969509 0.837058
O O1 0.775710 0.853263 0.250000
O O2 0.697743 0.848980 0.360829
O O3 0.819992 0.831348 0.378562
O O4 0.774256 0.957599 0.351147
O O5 0.701746 0.288192 0.837593
O O6 0.802690 0.304225 0.919044
O O7 0.726894 0.414146 0.888592
O O8 0.697308 0.306742 0.981189
O O9 0.078952 0.867970 0.560673
O O10 0.118016 0.976822 0.636899
O O11 0.000000 0.967854 0.601833
O O12 0.082713 0.000000 0.500000
O O13 0.368625 0.789894 0.250000
O O14 0.401164 0.767093 0.111221
O O15 0.500000 0.739654 0.042505
O O16 0.401775 0.736629 0.964575
O O17 0.188598 0.947686 0.750000
#
# Coordination Sequence:
#
# PCOD8256787 Si02
#       7
#    16  16  16  16  16  16  16
#     4   9  19  30  46  67  93 125 157 197 246 283
#     4   9  17  26  46  68  88 121 152 191 240 283
#     4  10  20  32  45  65  97 137 168 191 225 271
#     4   9  16  30  45  66  97 123 151 197 244 287
#     4  10  19  30  47  69  91 124 162 194 229 278
#     4   9  16  31  45  63  91 120 155 191 237 283
#     4  11  20  30  45  72  98 124 162 201 236 285
#
# _framework density 15.459901
#
# number of rings (size 3 to 8) (size 9 to 14) (size 15 to 20)
#    0.000    2.429    2.857    2.143    0.000    1.143 
#    0.000    1.429    0.000    1.286    0.000    2.000 
#    0.000    1.143    0.000    0.000    0.000    0.143 
#
# Total GULP energy -693904.755139 kJ/mol
# GULP energy per Si atom -12391.156342 kJ/mol
# Density = 1.542471 g / cm^3
# Si number density = 15.459901 Si / 1000 Ang^3
#
#
#
# Elastic Constant Matrix: (Units=GPa)
#
#
# Indices 1 2 3 4 5 6 
#
# 1 108.3909 52.3872 45.5481 0.0000 0.0000 0.0000
# 2 52.3872 79.8136 42.4198 0.0000 0.0000 0.0000
# 3 45.5481 42.4198 66.9212 0.0000 0.0000 0.0000
# 4 0.0000 0.0000 0.0000 23.8508 0.0000 0.0000
# 5 0.0000 0.0000 0.0000 0.0000 20.9062 0.0000
# 6 0.0000 0.0000 0.0000 0.0000 0.0000 21.0399
#
#
#
# Elastic Compliance Matrix: (Units=1/GPa)
#
#
# Indices 1 2 3 4 5 6 
#
# 1 0.014938 -0.006637 -0.005960 0.000000 0.000000 0.000000
# 2 -0.006637 0.021844 -0.009329 0.000000 0.000000 0.000000
# 3 -0.005960 -0.009329 0.024913 0.000000 0.000000 0.000000
# 4 0.000000 0.000000 0.000000 0.041927 0.000000 0.000000
# 5 0.000000 0.000000 0.000000 0.000000 0.047833 0.000000
# 6 0.000000 0.000000 0.000000 0.000000 0.000000 0.047529
#
#
# Mechanical properties :
#
#
# Convention : Reuss Voigt Hill
#
# Bulk Modulus (GPa) = 56.04580 59.53730 57.79155
# Shear Modulus (GPa) = 20.09777 20.81077 20.45427
#
# Velocity S-wave (km/s) = 3.60945 3.67292 3.64133
# Velocity P-wave (km/s) = 7.32816 7.52207 7.42575
#
# Compressibility (1/GPa) = 0.01784255
#
# Stress axis : x y z
#
# Youngs Moduli (GPa) = 66.94156 45.77946 40.13994
#
# Poissons Ratio (x) = 0.30386 0.23924
# Poissons Ratio (y) = 0.44432 0.37446
# Poissons Ratio (z) = 0.39898 0.42707
#
# Static dielectric constant tensor:
#      x y z
#    x 3.115470 0.000000 0.000000 
#    y 0.000000 2.952800 0.000000 
#    z 0.000000 0.000000 3.053920 
# 
# 
# High freq. dielectric constant tensor:
#      x y z
#    x 1.574260 0.000000 0.000000 
#    y 0.000000 1.579290 0.000000 
#    z 0.000000 0.000000 1.594290 
# 
# From -- ./inp_files/47332.got.cif
#   From: 2010.03.12/outbox.cif.g09.slc.cpg/sg63_24_cif.got.tgz:47332.got - 2010.04.10 19:34:48.
