data_PCOD8256870
_publ_section_title
;
Structure prediction by ZEFSAII (Michael W. Deem and Ramdas Pophale) SiO2 
 PCOD8256870
Probable space group: C M C M
;
_chemical_formula_sum "Si O2"
_cell_formula_units_Z 80
_cell_length_a 11.330449
_cell_length_b 22.348405
_cell_length_c 17.413268
_cell_angle_alpha 90.000000
_cell_angle_beta 90.000000
_cell_angle_gamma 90.000000
_cell_volume 4409.343547
_symmetry_space_group_name_H-M "C M C M"
_symmetry_group_IT_number 63
_symmetry_cell_setting 'orthorhombic'
loop_
_space_group_symop_operation_xyz
x,y,z
-x,-y,1/2+z
x,-y,-z
-x,y,1/2-z
-x,-y,-z
x,y,1/2-z
-x,y,z
x,-y,1/2+z
1/2+x,1/2+y,z
1/2-x,1/2-y,1/2+z
1/2+x,1/2-y,-z
1/2-x,1/2+y,1/2-z
1/2-x,1/2-y,-z
1/2+x,1/2+y,1/2-z
1/2-x,1/2+y,z
1/2+x,1/2-y,1/2+z
loop_
_atom_site_type_symbol
_atom_site_label
_atom_site_fract_x
_atom_site_fract_y
_atom_site_fract_z
Si Si1 0.134115 0.223560 0.091513
Si Si2 0.639442 0.933057 0.524753
Si Si3 0.219678 0.630572 0.337678
Si Si4 0.000000 0.157687 0.659209
Si Si5 0.500000 0.204344 0.339683
Si Si6 0.717958 0.664764 0.936733
O O1 0.163607 0.170948 0.153010
O O2 0.209913 0.283420 0.107725
O O3 0.000000 0.242573 0.102824
O O4 0.152597 0.195880 0.007649
O O5 0.500000 0.921672 0.533868
O O6 0.709531 0.926438 0.606270
O O7 0.692421 0.887125 0.462628
O O8 0.666901 0.000000 0.500000
O O9 0.204848 0.609272 0.250000
O O10 0.116627 0.673322 0.372410
O O11 0.879534 0.133786 0.619719
O O12 0.000000 0.143223 0.750000
O O13 0.000000 0.227331 0.638198
O O14 0.500000 0.193836 0.250000
#
# Coordination Sequence:
#
# PCOD8256870 Si02
#       6
#    16  16  16   8   8  16
#     4  10  19  30  51  81 113 140 168 214 276 334
#     4  10  21  37  57  80 107 143 187 230 269 318
#     4  10  19  32  54  81 109 141 178 223 273 323
#     4  11  20  34  55  78 109 147 184 220 269 332
#     4   9  16  28  49  80 106 131 172 220 265 314
#     4  10  20  33  52  79 109 141 179 219 266 324
#
# _framework density 18.14329
#
# number of rings (size 3 to 8) (size 9 to 14) (size 15 to 20)
#    0.000    2.000    4.000    0.600    0.000    0.400 
#    0.000    1.500    0.000    3.000    0.000    0.000 
#    0.000    0.000    0.000    0.000    0.000    0.000 
#
# Total GULP energy -495816.609986 kJ/mol
# GULP energy per Si atom -12395.415250 kJ/mol
# Density = 1.810199 g / cm^3
# Si number density = 18.143290 Si / 1000 Ang^3
#
#
#
# Elastic Constant Matrix: (Units=GPa)
#
#
# Indices 1 2 3 4 5 6 
#
# 1 98.1250 33.1846 31.4739 0.0000 0.0000 0.0000
# 2 33.1846 83.8989 42.4270 0.0000 0.0000 0.0000
# 3 31.4739 42.4270 95.3023 0.0000 0.0000 0.0000
# 4 0.0000 0.0000 0.0000 17.9669 0.0000 0.0000
# 5 0.0000 0.0000 0.0000 0.0000 24.5998 0.0000
# 6 0.0000 0.0000 0.0000 0.0000 0.0000 24.5003
#
#
#
# Elastic Compliance Matrix: (Units=1/GPa)
#
#
# Indices 1 2 3 4 5 6 
#
# 1 0.012184 -0.003593 -0.002424 0.000000 0.000000 0.000000
# 2 -0.003593 0.016442 -0.006133 0.000000 0.000000 0.000000
# 3 -0.002424 -0.006133 0.014024 0.000000 0.000000 0.000000
# 4 0.000000 0.000000 0.000000 0.055658 0.000000 0.000000
# 5 0.000000 0.000000 0.000000 0.000000 0.040651 0.000000
# 6 0.000000 0.000000 0.000000 0.000000 0.000000 0.040816
#
#
# Mechanical properties :
#
#
# Convention : Reuss Voigt Hill
#
# Bulk Modulus (GPa) = 54.49941 54.61079 54.55510
# Shear Modulus (GPa) = 23.78794 24.76276 24.27535
#
# Velocity S-wave (km/s) = 3.62486 3.69839 3.66181
# Velocity P-wave (km/s) = 6.90094 6.95719 6.92912
#
# Compressibility (1/GPa) = 0.01834882
#
# Stress axis : x y z
#
# Youngs Moduli (GPa) = 82.07615 60.82108 71.30757
#
# Poissons Ratio (x) = 0.21854 0.17286
# Poissons Ratio (y) = 0.29492 0.43732
# Poissons Ratio (z) = 0.19896 0.37301
#
# Static dielectric constant tensor:
#      x y z
#    x 3.502530 0.000000 0.000000 
#    y 0.000000 3.103880 0.000000 
#    z 0.000000 0.000000 3.192220 
# 
# 
# High freq. dielectric constant tensor:
#      x y z
#    x 1.709010 0.000000 0.000000 
#    y 0.000000 1.669660 0.000000 
#    z 0.000000 0.000000 1.692980 
# 
# From -- ./inp_files/42190.got.cif
#   From: 2010.03.12/outbox.cif.g09.slc.cpg/sg63_22_cif.got.tgz:42190.got - 2010.04.10 19:34:48.
