data_PCOD8256190
_publ_section_title
;
Structure prediction by ZEFSAII (Michael W. Deem and Ramdas Pophale) SiO2 
 PCOD8256190
Probable space group: C M C M
;
_chemical_formula_sum "Si O2"
_cell_formula_units_Z 64
_cell_length_a 30.043341
_cell_length_b 14.940743
_cell_length_c 8.819455
_cell_angle_alpha 90.000000
_cell_angle_beta 90.000000
_cell_angle_gamma 90.000000
_cell_volume 3958.787326
_symmetry_space_group_name_H-M "C M C M"
_symmetry_group_IT_number 63
_symmetry_cell_setting 'orthorhombic'
loop_
_space_group_symop_operation_xyz
x,y,z
-x,-y,1/2+z
x,-y,-z
-x,y,1/2-z
-x,-y,-z
x,y,1/2-z
-x,y,z
x,-y,1/2+z
1/2+x,1/2+y,z
1/2-x,1/2-y,1/2+z
1/2+x,1/2-y,-z
1/2-x,1/2+y,1/2-z
1/2-x,1/2-y,-z
1/2+x,1/2+y,1/2-z
1/2-x,1/2+y,z
1/2+x,1/2-y,1/2+z
loop_
_atom_site_type_symbol
_atom_site_label
_atom_site_fract_x
_atom_site_fract_y
_atom_site_fract_z
Si Si1 0.118283 0.223285 0.577414
Si Si2 0.853480 0.410889 0.577963
Si Si3 0.796755 0.725002 0.929826
Si Si4 0.551154 0.407913 0.571924
O O1 0.121360 0.188390 0.750000
O O2 0.109423 0.331286 0.573342
O O3 0.165646 0.205445 0.493000
O O4 0.078432 0.175362 0.491573
O O5 0.872823 0.500000 0.500000
O O6 0.839567 0.432344 0.750000
O O7 0.809885 0.375330 0.486371
O O8 0.794601 0.729567 0.750000
O O9 0.750000 0.750000 0.000000
O O10 0.569097 0.500000 0.500000
O O11 0.557657 0.413935 0.750000
O O12 0.500000 0.392349 0.525722
#
# Coordination Sequence:
#
# PCOD8256190 Si02
#       4
#    16  16  16  16
#     4   9  19  33  51  75 103 135 173 213 257 308
#     4   9  18  31  50  75 100 133 171 207 250 303
#     4  10  18  31  50  72 102 135 170 213 257 307
#     4  10  20  34  54  79 106 138 175 215 264 319
#
# _framework density 16.166567000000001
#
# number of rings (size 3 to 8) (size 9 to 14) (size 15 to 20)
#    1.500    1.000    0.000    3.750    0.000    1.500 
#    0.000    1.250    0.000    0.750    0.000    0.000 
#    0.000    0.000    0.000    0.000    0.000    0.000 
#
# Total GULP energy -396463.924597 kJ/mol
# GULP energy per Si atom -12389.497644 kJ/mol
# Density = 1.612977 g / cm^3
# Si number density = 16.166567 Si / 1000 Ang^3
#
#
#
# Elastic Constant Matrix: (Units=GPa)
#
#
# Indices 1 2 3 4 5 6 
#
# 1 78.4346 47.7736 49.9866 0.0000 0.0000 0.0000
# 2 47.7736 91.1269 45.5485 0.0000 0.0000 0.0000
# 3 49.9866 45.5485 133.4688 0.0000 0.0000 0.0000
# 4 0.0000 0.0000 0.0000 32.2704 0.0000 0.0000
# 5 0.0000 0.0000 0.0000 0.0000 29.3675 0.0000
# 6 0.0000 0.0000 0.0000 0.0000 0.0000 23.5301
#
#
#
# Elastic Compliance Matrix: (Units=1/GPa)
#
#
# Indices 1 2 3 4 5 6 
#
# 1 0.021172 -0.008604 -0.004993 0.000000 0.000000 0.000000
# 2 -0.008604 0.016727 -0.002486 0.000000 0.000000 0.000000
# 3 -0.004993 -0.002486 0.010211 0.000000 0.000000 0.000000
# 4 0.000000 0.000000 0.000000 0.030988 0.000000 0.000000
# 5 0.000000 0.000000 0.000000 0.000000 0.034051 0.000000
# 6 0.000000 0.000000 0.000000 0.000000 0.000000 0.042499
#
#
# Mechanical properties :
#
#
# Convention : Reuss Voigt Hill
#
# Bulk Modulus (GPa) = 62.72025 65.51641 64.11833
# Shear Modulus (GPa) = 25.88947 27.68169 26.78558
#
# Velocity S-wave (km/s) = 4.00612 4.14246 4.07486
# Velocity P-wave (km/s) = 7.76396 7.96830 7.86680
#
# Compressibility (1/GPa) = 0.01594381
#
# Stress axis : x y z
#
# Youngs Moduli (GPa) = 47.23192 59.78399 97.93517
#
# Poissons Ratio (x) = 0.51437 0.48901
# Poissons Ratio (y) = 0.40637 0.24347
# Poissons Ratio (z) = 0.23584 0.14863
#
# Static dielectric constant tensor:
#      x y z
#    x 2.814890 0.000000 0.000000 
#    y 0.000000 2.936300 0.000000 
#    z 0.000000 0.000000 3.210380 
# 
# 
# High freq. dielectric constant tensor:
#      x y z
#    x 1.591290 0.000000 0.000000 
#    y 0.000000 1.606440 0.000000 
#    z 0.000000 0.000000 1.647260 
# 
# From -- ./inp_files/7481.got.cif
#   From: 2010.03.12/outbox.cif.g09.slc.cpg/sg63_4_cif.got.tgz:7481.got - 2010.04.10 19:34:48.
