data_PCOD8256462
_publ_section_title
;
Structure prediction by ZEFSAII (Michael W. Deem and Ramdas Pophale) SiO2 
 PCOD8256462
Probable space group: C M C M
;
_chemical_formula_sum "Si O2"
_cell_formula_units_Z 80
_cell_length_a 9.292564
_cell_length_b 20.478195
_cell_length_c 22.841967
_cell_angle_alpha 90.000000
_cell_angle_beta 90.000000
_cell_angle_gamma 90.000000
_cell_volume 4346.710686
_symmetry_space_group_name_H-M "C M C M"
_symmetry_group_IT_number 63
_symmetry_cell_setting 'orthorhombic'
loop_
_space_group_symop_operation_xyz
x,y,z
-x,-y,1/2+z
x,-y,-z
-x,y,1/2-z
-x,-y,-z
x,y,1/2-z
-x,y,z
x,-y,1/2+z
1/2+x,1/2+y,z
1/2-x,1/2-y,1/2+z
1/2+x,1/2-y,-z
1/2-x,1/2+y,1/2-z
1/2-x,1/2-y,-z
1/2+x,1/2+y,1/2-z
1/2-x,1/2+y,z
1/2+x,1/2-y,1/2+z
loop_
_atom_site_type_symbol
_atom_site_label
_atom_site_fract_x
_atom_site_fract_y
_atom_site_fract_z
Si Si1 0.667475 0.876268 0.874203
Si Si2 0.661963 0.512050 0.432013
Si Si3 0.330895 0.068748 0.250000
Si Si4 0.330382 0.616672 0.626649
Si Si5 0.331436 0.431266 0.250000
Si Si6 0.829766 0.755639 0.061654
O O1 0.500000 0.889647 0.881716
O O2 0.714565 0.888899 0.806914
O O3 0.708000 0.803544 0.894556
O O4 0.747225 0.924460 0.918027
O O5 0.661903 0.500000 0.500000
O O6 0.500000 0.522968 0.408403
O O7 0.734202 0.448971 0.401835
O O8 0.500000 0.054157 0.250000
O O9 0.251166 0.999661 0.250000
O O10 0.500000 0.617704 0.616936
O O11 0.289279 0.614094 0.695013
O O12 0.267565 0.680620 0.595006
O O13 0.500000 0.448908 0.250000
O O14 0.000000 0.759694 0.049539
O O15 0.750000 0.750000 0.000000
#
# Coordination Sequence:
#
# PCOD8256462 Si02
#       6
#    16  16   8  16   8  16
#     4  10  21  35  54  79 109 144 178 217 270 325
#     4  10  19  32  53  79 106 138 180 227 268 310
#     4  10  20  35  53  79 113 143 174 220 272 322
#     4   9  18  32  53  79 104 135 177 223 265 307
#     4  10  18  33  57  81 103 135 182 228 266 310
#     4  10  21  38  56  78 109 142 178 220 268 321
#
# _framework density 18.404720999999999
#
# number of rings (size 3 to 8) (size 9 to 14) (size 15 to 20)
#    0.000    2.200    2.000    1.200    0.000    3.600 
#    0.000    6.000    0.000    0.000    0.000    2.800 
#    0.000    0.000    0.000    0.000    0.000    0.000 
#
# Total GULP energy -495938.586168 kJ/mol
# GULP energy per Si atom -12398.464654 kJ/mol
# Density = 1.836283 g / cm^3
# Si number density = 18.404721 Si / 1000 Ang^3
#
#
#
# Elastic Constant Matrix: (Units=GPa)
#
#
# Indices 1 2 3 4 5 6 
#
# 1 28.8428 32.5130 28.0583 0.0000 0.0000 0.0000
# 2 32.5130 117.5202 49.5759 0.0000 0.0000 0.0000
# 3 28.0583 49.5759 120.4320 0.0000 0.0000 0.0000
# 4 0.0000 0.0000 0.0000 40.3554 0.0000 0.0000
# 5 0.0000 0.0000 0.0000 0.0000 -28.9619 0.0000
# 6 0.0000 0.0000 0.0000 0.0000 0.0000 24.9114
#
#
#
# Elastic Compliance Matrix: (Units=1/GPa)
#
#
# Indices 1 2 3 4 5 6 
#
# 1 0.056241 -0.012140 -0.008106 0.000000 0.000000 0.000000
# 2 -0.012140 0.012918 -0.002489 0.000000 0.000000 0.000000
# 3 -0.008106 -0.002489 0.011217 0.000000 0.000000 0.000000
# 4 0.000000 0.000000 0.000000 0.024780 0.000000 0.000000
# 5 0.000000 0.000000 0.000000 0.000000 -0.034528 0.000000
# 6 0.000000 0.000000 0.000000 0.000000 0.000000 0.040142
#
#
# Mechanical properties :
#
#
# Convention : Reuss Voigt Hill
#
# Bulk Modulus (GPa) = 28.64882 54.12105 41.38494
# Shear Modulus (GPa) = 29.78416 17.70416 23.74416
#
# Velocity S-wave (km/s) = 4.02716 3.10487 3.59571
# Velocity P-wave (km/s) = 6.10113 6.50566 6.30664
#
# Compressibility (1/GPa) = 0.03490545
#
# Stress axis : x y z
#
# Youngs Moduli (GPa) = 17.78067 77.41161 89.15379
#
# Poissons Ratio (x) = 0.93979 0.72264
# Poissons Ratio (y) = 0.21586 0.22193
# Poissons Ratio (z) = 0.14412 0.19270
#
# Static dielectric constant tensor:
#      x y z
#    x 3.185800 0.000000 0.000000 
#    y 0.000000 3.578240 0.000000 
#    z 0.000000 0.000000 3.602660 
# 
# 
# High freq. dielectric constant tensor:
#      x y z
#    x 1.682410 0.000000 0.000000 
#    y 0.000000 1.719510 0.000000 
#    z 0.000000 0.000000 1.731230 
# 
# From -- ./inp_files/59484.got.cif
#   From: 2010.03.12/outbox.cif.g09.slc.cpg/sg63_30_cif.got.tgz:59484.got - 2010.04.10 19:34:48.
