data_PCOD8256829
_publ_section_title
;
Structure prediction by ZEFSAII (Michael W. Deem and Ramdas Pophale) SiO2 
 PCOD8256829
Probable space group: C M C M
;
_chemical_formula_sum "Si O2"
_cell_formula_units_Z 80
_cell_length_a 9.537542
_cell_length_b 17.891648
_cell_length_c 25.798118
_cell_angle_alpha 90.000000
_cell_angle_beta 90.000000
_cell_angle_gamma 90.000000
_cell_volume 4402.251333
_symmetry_space_group_name_H-M "C M C M"
_symmetry_group_IT_number 63
_symmetry_cell_setting 'orthorhombic'
loop_
_space_group_symop_operation_xyz
x,y,z
-x,-y,1/2+z
x,-y,-z
-x,y,1/2-z
-x,-y,-z
x,y,1/2-z
-x,y,z
x,-y,1/2+z
1/2+x,1/2+y,z
1/2-x,1/2-y,1/2+z
1/2+x,1/2-y,-z
1/2-x,1/2+y,1/2-z
1/2-x,1/2-y,-z
1/2+x,1/2+y,1/2-z
1/2-x,1/2+y,z
1/2+x,1/2-y,1/2+z
loop_
_atom_site_type_symbol
_atom_site_label
_atom_site_fract_x
_atom_site_fract_y
_atom_site_fract_z
Si Si1 0.342572 0.666033 0.806951
Si Si2 0.836312 0.844188 0.597163
Si Si3 0.657316 0.843633 0.692603
Si Si4 0.339834 0.087911 0.005665
Si Si5 0.838628 0.669062 0.901667
O O1 0.291940 0.637622 0.750000
O O2 0.500000 0.637658 0.817639
O O3 0.338093 0.754855 0.807157
O O4 0.243679 0.634987 0.852409
O O5 0.767559 0.874380 0.650562
O O6 0.763766 0.886441 0.550274
O O7 0.808624 0.756386 0.590072
O O8 0.000000 0.863679 0.598154
O O9 0.698778 0.873414 0.750000
O O10 0.500000 0.870655 0.678185
O O11 0.500000 0.112273 0.018332
O O12 0.287780 0.126219 0.952738
O O13 0.328307 0.000000 0.000000
O O14 0.000000 0.653246 0.890060
#
# Coordination Sequence:
#
# PCOD8256829 Si02
#       5
#    16  16  16  16  16
#     4   8  14  25  43  69  98 125 152 184 227 278
#     4  10  19  30  48  74 100 123 151 193 241 284
#     4   8  14  26  45  69  97 127 156 186 224 274
#     4  10  21  36  51  66  90 126 165 201 235 278
#     4   9  18  31  48  72  97 122 155 194 236 278
#
# _framework density 18.172519999999999
#
# number of rings (size 3 to 8) (size 9 to 14) (size 15 to 20)
#    0.000    3.000    0.000    2.400    0.000    2.800 
#    0.000    4.000    0.000    1.200    0.000    2.800 
#    0.000    0.000    0.000    0.000    0.000    0.000 
#
# Total GULP energy -495855.048995 kJ/mol
# GULP energy per Si atom -12396.376225 kJ/mol
# Density = 1.813116 g / cm^3
# Si number density = 18.172520 Si / 1000 Ang^3
#
#
#
# Elastic Constant Matrix: (Units=GPa)
#
#
# Indices 1 2 3 4 5 6 
#
# 1 115.2280 29.8568 103.8407 0.0000 0.0000 0.0000
# 2 29.8568 26.9389 36.8994 0.0000 0.0000 0.0000
# 3 103.8407 36.8994 185.6630 0.0000 0.0000 0.0000
# 4 0.0000 0.0000 0.0000 -2.2550 0.0000 0.0000
# 5 0.0000 0.0000 0.0000 0.0000 29.7506 0.0000
# 6 0.0000 0.0000 0.0000 0.0000 0.0000 14.5026
#
#
#
# Elastic Compliance Matrix: (Units=1/GPa)
#
#
# Indices 1 2 3 4 5 6 
#
# 1 0.018934 -0.008903 -0.008820 0.000000 0.000000 0.000000
# 2 -0.008903 0.055193 -0.005990 0.000000 0.000000 0.000000
# 3 -0.008820 -0.005990 0.011510 0.000000 0.000000 0.000000
# 4 0.000000 0.000000 0.000000 -0.443455 0.000000 0.000000
# 5 0.000000 0.000000 0.000000 0.000000 0.033613 0.000000
# 6 0.000000 0.000000 0.000000 0.000000 0.000000 0.068953
#
#
# Mechanical properties :
#
#
# Convention : Reuss Voigt Hill
#
# Bulk Modulus (GPa) = 26.17102 74.33596 50.25349
# Shear Modulus (GPa) = -25.62932 18.88184 -3.37374
#
# Velocity S-wave (km/s) = -3.75952 3.22690 -1.36401
# Velocity P-wave (km/s) = 2.10062 7.40799 5.02323
#
# Compressibility (1/GPa) = 0.03821021
#
# Stress axis : x y z
#
# Youngs Moduli (GPa) = 52.81512 18.11820 86.88374
#
# Poissons Ratio (x) = 0.16131 0.76633
# Poissons Ratio (y) = 0.47023 0.52040
# Poissons Ratio (z) = 0.46584 0.10852
#
# Static dielectric constant tensor:
#      x y z
#    x 3.466490 0.000000 0.000000 
#    y 0.000000 2.875110 0.000000 
#    z 0.000000 0.000000 3.826340 
# 
# 
# High freq. dielectric constant tensor:
#      x y z
#    x 1.703870 0.000000 0.000000 
#    y 0.000000 1.651860 0.000000 
#    z 0.000000 0.000000 1.721420 
# 
# From -- ./inp_files/66574.got.cif
#   From: 2010.03.12/outbox.cif.g09.slc.cpg/sg63_34_cif.got.tgz:66574.got - 2010.04.10 19:34:48.
