data_PCOD8256349
_publ_section_title
;
Structure prediction by ZEFSAII (Michael W. Deem and Ramdas Pophale) SiO2 
 PCOD8256349
Probable space group: C M C M
;
_chemical_formula_sum "Si O2"
_cell_formula_units_Z 72
_cell_length_a 15.616283
_cell_length_b 28.071722
_cell_length_c 8.727551
_cell_angle_alpha 90.000000
_cell_angle_beta 90.000000
_cell_angle_gamma 90.000000
_cell_volume 3825.948505
_symmetry_space_group_name_H-M "C M C M"
_symmetry_group_IT_number 63
_symmetry_cell_setting 'orthorhombic'
loop_
_space_group_symop_operation_xyz
x,y,z
-x,-y,1/2+z
x,-y,-z
-x,y,1/2-z
-x,-y,-z
x,y,1/2-z
-x,y,z
x,-y,1/2+z
1/2+x,1/2+y,z
1/2-x,1/2-y,1/2+z
1/2+x,1/2-y,-z
1/2-x,1/2+y,1/2-z
1/2-x,1/2-y,-z
1/2+x,1/2+y,1/2-z
1/2-x,1/2+y,z
1/2+x,1/2-y,1/2+z
loop_
_atom_site_type_symbol
_atom_site_label
_atom_site_fract_x
_atom_site_fract_y
_atom_site_fract_z
Si Si1 0.327004 0.221750 0.572899
Si Si2 0.824503 0.389842 0.428575
Si Si3 0.500000 0.552736 0.567405
Si Si4 0.500000 0.109218 0.423607
Si Si5 0.827362 0.052138 0.431230
Si Si6 0.500000 0.777565 0.921160
O O1 0.328859 0.233134 0.750000
O O2 0.250000 0.250000 0.500000
O O3 0.315794 0.166066 0.539302
O O4 0.415535 0.241730 0.504510
O O5 0.814358 0.402251 0.250000
O O6 0.752198 0.414985 0.527734
O O7 0.916258 0.409227 0.486680
O O8 0.500000 0.500000 0.500000
O O9 0.500000 0.553225 0.750000
O O10 0.412928 0.576763 0.503467
O O11 0.500000 0.089333 0.250000
O O12 0.500000 0.165811 0.423558
O O13 0.837933 0.048038 0.250000
O O14 0.811628 0.000000 0.500000
O O15 0.500000 0.757144 0.750000
#
# Coordination Sequence:
#
# PCOD8256349 Si02
#       6
#    16  16   8   8  16   8
#     4  10  20  34  54  78 106 137 173 214 258 306
#     4  10  20  35  54  78 106 138 173 213 258 306
#     4  10  18  32  53  76 103 136 173 211 252 306
#     4   9  17  31  52  77 102 135 174 211 252 306
#     4  11  21  35  55  79 106 137 173 214 257 306
#     4   9  17  31  52  75 102 135 174 212 252 306
#
# _framework density 18.818863
#
# number of rings (size 3 to 8) (size 9 to 14) (size 15 to 20)
#    0.000    2.000    0.000    6.333    0.000    5.333 
#    0.000    1.667    0.000    6.667    0.000    0.000 
#    0.000    0.000    0.000    0.000    0.000    0.000 
#
# Total GULP energy -446404.404819 kJ/mol
# GULP energy per Si atom -12400.122356 kJ/mol
# Density = 1.877603 g / cm^3
# Si number density = 18.818863 Si / 1000 Ang^3
#
#
#
# Elastic Constant Matrix: (Units=GPa)
#
#
# Indices 1 2 3 4 5 6 
#
# 1 195.1685 42.8846 87.7705 0.0000 0.0000 0.0000
# 2 42.8846 28.6419 42.4495 0.0000 0.0000 0.0000
# 3 87.7705 42.4495 171.0710 0.0000 0.0000 0.0000
# 4 0.0000 0.0000 0.0000 24.9348 0.0000 0.0000
# 5 0.0000 0.0000 0.0000 0.0000 44.8037 0.0000
# 6 0.0000 0.0000 0.0000 0.0000 0.0000 26.2723
#
#
#
# Elastic Compliance Matrix: (Units=1/GPa)
#
#
# Indices 1 2 3 4 5 6 
#
# 1 0.007966 -0.009284 -0.001783 0.000000 0.000000 0.000000
# 2 -0.009284 0.066043 -0.011625 0.000000 0.000000 0.000000
# 3 -0.001783 -0.011625 0.009645 0.000000 0.000000 0.000000
# 4 0.000000 0.000000 0.000000 0.040105 0.000000 0.000000
# 5 0.000000 0.000000 0.000000 0.000000 0.022320 0.000000
# 6 0.000000 0.000000 0.000000 0.000000 0.000000 0.038063
#
#
# Mechanical properties :
#
#
# Convention : Reuss Voigt Hill
#
# Bulk Modulus (GPa) = 26.13011 82.34343 54.23677
# Shear Modulus (GPa) = 20.63723 33.98728 27.31226
#
# Velocity S-wave (km/s) = 3.31513 4.25434 3.81376
# Velocity P-wave (km/s) = 5.34496 8.24520 6.94809
#
# Compressibility (1/GPa) = 0.03827003
#
# Stress axis : x y z
#
# Youngs Moduli (GPa) = 125.53860 15.14170 103.68124
#
# Poissons Ratio (x) = 0.14057 0.18489
# Poissons Ratio (y) = 1.16549 1.20525
# Poissons Ratio (z) = 0.22386 0.17602
#
# Static dielectric constant tensor:
#      x y z
#    x 4.196410 0.000000 0.000000 
#    y 0.000000 3.008670 0.000000 
#    z 0.000000 0.000000 3.659610 
# 
# 
# High freq. dielectric constant tensor:
#      x y z
#    x 1.756010 0.000000 0.000000 
#    y 0.000000 1.680450 0.000000 
#    z 0.000000 0.000000 1.753560 
# 
# From -- ./inp_files/4991.got.cif
#   From: 2010.03.12/outbox.cif.g09.slc.cpg/sg63_3_cif.got.tgz:4991.got - 2010.04.10 19:34:48.
