data_PCOD8256082
_publ_section_title
;
Structure prediction by ZEFSAII (Michael W. Deem and Ramdas Pophale) SiO2 
 PCOD8256082
Probable space group: C M C M
;
_chemical_formula_sum "Si O2"
_cell_formula_units_Z 96
_cell_length_a 12.112320
_cell_length_b 25.297649
_cell_length_c 17.513214
_cell_angle_alpha 90.000000
_cell_angle_beta 90.000000
_cell_angle_gamma 90.000000
_cell_volume 5366.280293
_symmetry_space_group_name_H-M "C M C M"
_symmetry_group_IT_number 63
_symmetry_cell_setting 'orthorhombic'
loop_
_space_group_symop_operation_xyz
x,y,z
-x,-y,1/2+z
x,-y,-z
-x,y,1/2-z
-x,-y,-z
x,y,1/2-z
-x,y,z
x,-y,1/2+z
1/2+x,1/2+y,z
1/2-x,1/2-y,1/2+z
1/2+x,1/2-y,-z
1/2-x,1/2+y,1/2-z
1/2-x,1/2-y,-z
1/2+x,1/2+y,1/2-z
1/2-x,1/2+y,z
1/2+x,1/2-y,1/2+z
loop_
_atom_site_type_symbol
_atom_site_label
_atom_site_fract_x
_atom_site_fract_y
_atom_site_fract_z
Si Si1 0.760409 0.415262 0.159566
Si Si2 0.872605 0.882824 0.661740
Si Si3 0.500000 0.901350 0.335610
Si Si4 0.283643 0.726643 0.340594
Si Si5 0.500000 0.776890 0.163887
Si Si6 0.376262 0.314654 0.158924
Si Si7 0.128579 0.007894 0.087326
O O1 0.770121 0.408677 0.250000
O O2 0.695804 0.363861 0.126945
O O3 0.695109 0.467980 0.140066
O O4 0.885124 0.419737 0.124254
O O5 0.855126 0.898028 0.750000
O O6 0.789878 0.835294 0.636683
O O7 0.000000 0.865613 0.647931
O O8 0.839741 0.932724 0.610589
O O9 0.500000 0.924201 0.250000
O O10 0.500000 0.838945 0.335616
O O11 0.287120 0.732173 0.250000
O O12 0.390265 0.755407 0.377405
O O13 0.175780 0.758587 0.369852
O O14 0.500000 0.754173 0.250000
O O15 0.379717 0.316931 0.250000
O O16 0.500000 0.318667 0.125279
O O17 0.000000 0.996822 0.101540
O O18 0.162479 0.000000 0.000000
#
# Coordination Sequence:
#
# PCOD8256082 Si02
#       7
#    16  16   8  16   8  16  16
#     4  10  18  30  50  74  98 122 156 199 238 279
#     4   9  16  27  47  72  93 119 158 198 232 270
#     4   9  16  26  45  75 101 120 148 195 245 280
#     4   9  14  22  40  67  97 120 145 186 231 275
#     4   9  12  20  38  67  98 118 138 181 240 278
#     4   9  16  24  39  68 101 128 149 177 228 285
#     4  10  21  35  49  67  94 128 163 200 243 286
#
# _framework density 17.889486999999999
#
# number of rings (size 3 to 8) (size 9 to 14) (size 15 to 20)
#    0.000    2.667    2.500    1.000    0.000    1.667 
#    0.000    0.417    1.833    1.000    0.000    0.000 
#    0.000    0.000    0.000    0.000    0.000    0.000 
#
# Total GULP energy -594796.480341 kJ/mol
# GULP energy per Si atom -12391.593340 kJ/mol
# Density = 1.784877 g / cm^3
# Si number density = 17.889487 Si / 1000 Ang^3
#
#
#
# Elastic Constant Matrix: (Units=GPa)
#
#
# Indices 1 2 3 4 5 6 
#
# 1 129.0802 62.1718 11.9082 0.0000 0.0000 0.0000
# 2 62.1718 99.7016 6.9794 0.0000 0.0000 0.0000
# 3 11.9082 6.9794 9.6592 0.0000 0.0000 0.0000
# 4 0.0000 0.0000 0.0000 2.9181 0.0000 0.0000
# 5 0.0000 0.0000 0.0000 0.0000 8.2687 0.0000
# 6 0.0000 0.0000 0.0000 0.0000 0.0000 25.6492
#
#
#
# Elastic Compliance Matrix: (Units=1/GPa)
#
#
# Indices 1 2 3 4 5 6 
#
# 1 0.011893 -0.006730 -0.009799 0.000000 0.000000 0.000000
# 2 -0.006730 0.014373 -0.002088 0.000000 0.000000 0.000000
# 3 -0.009799 -0.002088 0.117117 0.000000 0.000000 0.000000
# 4 0.000000 0.000000 0.000000 0.342685 0.000000 0.000000
# 5 0.000000 0.000000 0.000000 0.000000 0.120938 0.000000
# 6 0.000000 0.000000 0.000000 0.000000 0.000000 0.038988
#
#
# Mechanical properties :
#
#
# Convention : Reuss Voigt Hill
#
# Bulk Modulus (GPa) = 9.42075 44.50664 26.96369
# Shear Modulus (GPa) = 6.95788 17.85931 12.40859
#
# Velocity S-wave (km/s) = 1.97429 3.16304 2.63653
# Velocity P-wave (km/s) = 3.23645 6.18647 4.93695
#
# Compressibility (1/GPa) = 0.10614872
#
# Stress axis : x y z
#
# Youngs Moduli (GPa) = 84.08546 69.57568 8.53845
#
# Poissons Ratio (x) = 0.46825 0.08367
# Poissons Ratio (y) = 0.56590 0.01783
# Poissons Ratio (z) = 0.82393 0.14529
#
# Static dielectric constant tensor:
#      x y z
#    x 3.608970 0.000000 0.000000 
#    y 0.000000 3.345450 0.000000 
#    z 0.000000 0.000000 2.724840 
# 
# 
# High freq. dielectric constant tensor:
#      x y z
#    x 1.689860 0.000000 0.000000 
#    y 0.000000 1.697670 0.000000 
#    z 0.000000 0.000000 1.624220 
# 
# From -- ./inp_files/42566.got.cif
#   From: 2010.03.12/outbox.cif.g09.slc.cpg/sg63_22_cif.got.tgz:42566.got - 2010.04.10 19:34:48.
