data_PCOD8256259
_publ_section_title
;
Structure prediction by ZEFSAII (Michael W. Deem and Ramdas Pophale) SiO2 
 PCOD8256259
Probable space group: C M C M
;
_chemical_formula_sum "Si O2"
_cell_formula_units_Z 80
_cell_length_a 13.482283
_cell_length_b 18.697516
_cell_length_c 17.995929
_cell_angle_alpha 90.000000
_cell_angle_beta 90.000000
_cell_angle_gamma 90.000000
_cell_volume 4536.507399
_symmetry_space_group_name_H-M "C M C M"
_symmetry_group_IT_number 63
_symmetry_cell_setting 'orthorhombic'
loop_
_space_group_symop_operation_xyz
x,y,z
-x,-y,1/2+z
x,-y,-z
-x,y,1/2-z
-x,-y,-z
x,y,1/2-z
-x,y,z
x,-y,1/2+z
1/2+x,1/2+y,z
1/2-x,1/2-y,1/2+z
1/2+x,1/2-y,-z
1/2-x,1/2+y,1/2-z
1/2-x,1/2-y,-z
1/2+x,1/2+y,1/2-z
1/2-x,1/2+y,z
1/2+x,1/2-y,1/2+z
loop_
_atom_site_type_symbol
_atom_site_label
_atom_site_fract_x
_atom_site_fract_y
_atom_site_fract_z
Si Si1 0.797876 0.421481 0.025269
Si Si2 0.886968 0.290912 0.937979
Si Si3 0.113060 0.851084 0.969613
Si Si4 0.885803 0.634767 0.833257
Si Si5 0.792185 0.210407 0.334134
O O1 0.821550 0.415067 0.112594
O O2 0.829099 0.500000 0.000000
O O3 0.862150 0.364360 0.979549
O O4 0.680557 0.408735 0.012489
O O5 0.818910 0.280086 0.865724
O O6 0.000000 0.291884 0.910235
O O7 0.867863 0.226938 0.995669
O O8 0.146656 0.846790 0.883470
O O9 0.000000 0.876543 0.976341
O O10 0.872682 0.604330 0.750000
O O11 0.849730 0.715570 0.837288
O O12 0.000000 0.633231 0.858457
O O13 0.785808 0.181297 0.250000
#
# Coordination Sequence:
#
# PCOD8256259 Si02
#       5
#    16  16  16  16  16
#     4  11  21  35  54  78 108 142 178 215 259 313
#     4  10  19  34  54  77 106 136 172 216 262 313
#     4  10  19  35  56  77 103 134 176 222 261 307
#     4  10  19  32  52  78 106 135 174 220 262 310
#     4  10  18  31  53  80 106 134 172 222 269 308
#
# _framework density 17.634710999999999
#
# number of rings (size 3 to 8) (size 9 to 14) (size 15 to 20)
#    0.000    1.800    4.000    2.400    0.000    3.600 
#    0.000    4.000    0.000    0.600    0.000    0.000 
#    0.000    0.000    0.000    0.000    0.000    0.000 
#
# Total GULP energy -496060.140990 kJ/mol
# GULP energy per Si atom -12401.503525 kJ/mol
# Density = 1.759457 g / cm^3
# Si number density = 17.634711 Si / 1000 Ang^3
#
#
#
# Elastic Constant Matrix: (Units=GPa)
#
#
# Indices 1 2 3 4 5 6 
#
# 1 102.8629 4.4770 62.8744 0.0000 0.0000 0.0000
# 2 4.4770 52.4177 29.8043 0.0000 0.0000 0.0000
# 3 62.8744 29.8043 133.7002 0.0000 0.0000 0.0000
# 4 0.0000 0.0000 0.0000 16.2861 0.0000 0.0000
# 5 0.0000 0.0000 0.0000 0.0000 25.1401 0.0000
# 6 0.0000 0.0000 0.0000 0.0000 0.0000 10.4119
#
#
#
# Elastic Compliance Matrix: (Units=1/GPa)
#
#
# Indices 1 2 3 4 5 6 
#
# 1 0.014024 0.002922 -0.007246 0.000000 0.000000 0.000000
# 2 0.002922 0.022456 -0.006380 0.000000 0.000000 0.000000
# 3 -0.007246 -0.006380 0.012309 0.000000 0.000000 0.000000
# 4 0.000000 0.000000 0.000000 0.061402 0.000000 0.000000
# 5 0.000000 0.000000 0.000000 0.000000 0.039777 0.000000
# 6 0.000000 0.000000 0.000000 0.000000 0.000000 0.096044
#
#
# Mechanical properties :
#
#
# Convention : Reuss Voigt Hill
#
# Bulk Modulus (GPa) = 36.52203 53.69914 45.11059
# Shear Modulus (GPa) = 18.08011 23.15595 20.61803
#
# Velocity S-wave (km/s) = 3.20544 3.62759 3.42303
# Velocity P-wave (km/s) = 5.86984 6.93273 6.42331
#
# Compressibility (1/GPa) = 0.02738073
#
# Stress axis : x y z
#
# Youngs Moduli (GPa) = 71.30753 44.53231 81.23903
#
# Poissons Ratio (x) = -0.13014 0.58869
# Poissons Ratio (y) = -0.20839 0.51831
# Poissons Ratio (z) = 0.51672 0.28412
#
# Static dielectric constant tensor:
#      x y z
#    x 3.449400 0.000000 0.000000 
#    y 0.000000 2.894290 0.000000 
#    z 0.000000 0.000000 3.551470 
# 
# 
# High freq. dielectric constant tensor:
#      x y z
#    x 1.694820 0.000000 0.000000 
#    y 0.000000 1.645330 0.000000 
#    z 0.000000 0.000000 1.681960 
# 
# From -- ./inp_files/43947.got.cif
#   From: 2010.03.12/outbox.cif.g09.slc.cpg/sg63_22_cif.got.tgz:43947.got - 2010.04.10 19:34:48.
