data_PCOD8256690
_publ_section_title
;
Structure prediction by ZEFSAII (Michael W. Deem and Ramdas Pophale) SiO2 
 PCOD8256690
Probable space group: C M C M
;
_chemical_formula_sum "Si O2"
_cell_formula_units_Z 112
_cell_length_a 27.631957
_cell_length_b 10.513262
_cell_length_c 20.193649
_cell_angle_alpha 90.000000
_cell_angle_beta 90.000000
_cell_angle_gamma 90.000000
_cell_volume 5866.295493
_symmetry_space_group_name_H-M "C M C M"
_symmetry_group_IT_number 63
_symmetry_cell_setting 'orthorhombic'
loop_
_space_group_symop_operation_xyz
x,y,z
-x,-y,1/2+z
x,-y,-z
-x,y,1/2-z
-x,-y,-z
x,y,1/2-z
-x,y,z
x,-y,1/2+z
1/2+x,1/2+y,z
1/2-x,1/2-y,1/2+z
1/2+x,1/2-y,-z
1/2-x,1/2+y,1/2-z
1/2-x,1/2-y,-z
1/2+x,1/2+y,1/2-z
1/2-x,1/2+y,z
1/2+x,1/2-y,1/2+z
loop_
_atom_site_type_symbol
_atom_site_label
_atom_site_fract_x
_atom_site_fract_y
_atom_site_fract_z
Si Si1 0.684330 0.213087 0.671369
Si Si2 0.646484 0.946840 0.827020
Si Si3 0.054526 0.581544 0.399427
Si Si4 0.861759 0.981182 0.671625
Si Si5 0.943616 0.950177 0.926334
Si Si6 0.445701 0.816182 0.464993
Si Si7 0.293065 0.287462 0.171496
O O1 0.685641 0.207028 0.750000
O O2 0.658204 0.343067 0.649698
O O3 0.738840 0.208247 0.642630
O O4 0.657046 0.087338 0.642329
O O5 0.655821 0.954452 0.750000
O O6 0.591271 0.901089 0.838948
O O7 0.681635 0.839491 0.857915
O O8 0.077515 0.654120 0.463089
O O9 0.054156 0.432970 0.415593
O O10 0.000000 0.625935 0.380007
O O11 0.873895 0.986398 0.750000
O O12 0.910463 0.015625 0.630079
O O13 0.821747 0.085184 0.651205
O O14 0.924229 0.804637 0.927104
O O15 0.000000 0.966919 0.905865
O O16 0.933778 0.000000 0.000000
O O17 0.500000 0.778595 0.485116
O O18 0.291655 0.277763 0.250000
#
# Coordination Sequence:
#
# PCOD8256690 Si02
#       7
#    16  16  16  16  16  16  16
#     4   9  17  32  53  76 102 133 172 217 260 306
#     4  10  19  29  47  77 103 128 164 202 252 308
#     4   9  17  30  50  72  99 129 162 206 249 296
#     4  10  20  34  55  82 107 136 174 217 266 308
#     4  10  21  35  53  76 105 142 180 211 250 313
#     4   8  16  32  50  69  90 126 177 210 234 284
#     4   9  18  32  50  76 106 133 168 213 258 309
#
# _framework density 19.092116999999998
#
# number of rings (size 3 to 8) (size 9 to 14) (size 15 to 20)
#    0.000    2.714    0.000    2.571    2.000    4.000 
#    0.000    0.000    0.000    8.571    7.429    0.000 
#    0.000    0.000    0.000    0.000    0.000    0.000 
#
# Total GULP energy -693827.599112 kJ/mol
# GULP energy per Si atom -12389.778556 kJ/mol
# Density = 1.904866 g / cm^3
# Si number density = 19.092117 Si / 1000 Ang^3
#
#
#
# Elastic Constant Matrix: (Units=GPa)
#
#
# Indices 1 2 3 4 5 6 
#
# 1 124.2528 27.1384 34.8673 0.0000 0.0000 0.0000
# 2 27.1384 69.5351 15.9150 0.0000 0.0000 0.0000
# 3 34.8673 15.9150 32.7394 0.0000 0.0000 0.0000
# 4 0.0000 0.0000 0.0000 10.9606 0.0000 0.0000
# 5 0.0000 0.0000 0.0000 0.0000 13.3148 0.0000
# 6 0.0000 0.0000 0.0000 0.0000 0.0000 25.9885
#
#
#
# Elastic Compliance Matrix: (Units=1/GPa)
#
#
# Indices 1 2 3 4 5 6 
#
# 1 0.011704 -0.001930 -0.011527 0.000000 0.000000 0.000000
# 2 -0.001930 0.016500 -0.005966 0.000000 0.000000 0.000000
# 3 -0.011527 -0.005966 0.045720 0.000000 0.000000 0.000000
# 4 0.000000 0.000000 0.000000 0.091236 0.000000 0.000000
# 5 0.000000 0.000000 0.000000 0.000000 0.075105 0.000000
# 6 0.000000 0.000000 0.000000 0.000000 0.000000 0.038479
#
#
# Mechanical properties :
#
#
# Convention : Reuss Voigt Hill
#
# Bulk Modulus (GPa) = 28.50641 42.48543 35.49592
# Shear Modulus (GPa) = 15.18462 19.95989 17.57225
#
# Velocity S-wave (km/s) = 2.82323 3.23685 3.03709
# Velocity P-wave (km/s) = 5.05874 6.02252 5.56155
#
# Compressibility (1/GPa) = 0.03507982
#
# Stress axis : x y z
#
# Youngs Moduli (GPa) = 85.43940 60.60697 21.87217
#
# Poissons Ratio (x) = 0.11695 0.25212
# Poissons Ratio (y) = 0.16487 0.13048
# Poissons Ratio (z) = 0.98485 0.36156
#
# Static dielectric constant tensor:
#      x y z
#    x 3.541120 0.000000 0.000000 
#    y 0.000000 3.911380 0.000000 
#    z 0.000000 0.000000 2.987510 
# 
# 
# High freq. dielectric constant tensor:
#      x y z
#    x 1.737710 0.000000 0.000000 
#    y 0.000000 1.759140 0.000000 
#    z 0.000000 0.000000 1.690690 
# 
# From -- ./inp_files/57606.got.cif
#   From: 2010.03.12/outbox.cif.g09.slc.cpg/sg63_29_cif.got.tgz:57606.got - 2010.04.10 19:34:48.
