data_PCOD8256997
_publ_section_title
;
Structure prediction by ZEFSAII (Michael W. Deem and Ramdas Pophale) SiO2 
 PCOD8256997
Probable space group: C M C M
;
_chemical_formula_sum "Si O2"
_cell_formula_units_Z 80
_cell_length_a 9.293735
_cell_length_b 14.616723
_cell_length_c 33.351198
_cell_angle_alpha 90.000000
_cell_angle_beta 90.000000
_cell_angle_gamma 90.000000
_cell_volume 4530.558478
_symmetry_space_group_name_H-M "C M C M"
_symmetry_group_IT_number 63
_symmetry_cell_setting 'orthorhombic'
loop_
_space_group_symop_operation_xyz
x,y,z
-x,-y,1/2+z
x,-y,-z
-x,y,1/2-z
-x,-y,-z
x,y,1/2-z
-x,y,z
x,-y,1/2+z
1/2+x,1/2+y,z
1/2-x,1/2-y,1/2+z
1/2+x,1/2-y,-z
1/2-x,1/2+y,1/2-z
1/2-x,1/2-y,-z
1/2+x,1/2+y,1/2-z
1/2-x,1/2+y,z
1/2+x,1/2-y,1/2+z
loop_
_atom_site_type_symbol
_atom_site_label
_atom_site_fract_x
_atom_site_fract_y
_atom_site_fract_z
Si Si1 0.329404 0.411708 0.206301
Si Si2 0.167766 0.117767 0.204319
Si Si3 0.170543 0.244515 0.649728
Si Si4 0.831995 0.742264 0.058539
Si Si5 0.831557 0.894897 0.504927
O O1 0.271799 0.378629 0.250000
O O2 0.500000 0.409351 0.207024
O O3 0.278760 0.514335 0.198224
O O4 0.269573 0.346882 0.171246
O O5 0.198784 0.149627 0.250000
O O6 0.261233 0.170741 0.172276
O O7 0.000000 0.129389 0.194314
O O8 0.220693 0.242053 0.603793
O O9 0.000000 0.252191 0.653142
O O10 0.749440 0.653742 0.041653
O O11 0.000000 0.719703 0.055915
O O12 0.796120 0.836181 0.034939
O O13 0.000000 0.894096 0.514898
O O14 0.777803 0.000000 0.500000
#
# Coordination Sequence:
#
# PCOD8256997 Si02
#       5
#    16  16  16  16  16
#     4   8  15  29  48  68  92 126 163 194 231 280
#     4   9  18  32  49  70  96 127 165 205 240 275
#     4  10  19  31  49  72  98 127 158 194 237 286
#     4   9  19  33  48  73 103 124 151 194 240 286
#     4   9  18  34  55  74  93 123 161 196 233 282
#
# _framework density 17.657865999999999
#
# number of rings (size 3 to 8) (size 9 to 14) (size 15 to 20)
#    0.000    3.000    0.000    1.800    0.000    4.000 
#    0.000    5.000    0.000    1.200    0.000    0.000 
#    0.000    0.000    0.000    0.000    0.000    0.000 
#
# Total GULP energy -495839.951490 kJ/mol
# GULP energy per Si atom -12395.998787 kJ/mol
# Density = 1.761768 g / cm^3
# Si number density = 17.657866 Si / 1000 Ang^3
#
#
#
# Elastic Constant Matrix: (Units=GPa)
#
#
# Indices 1 2 3 4 5 6 
#
# 1 23.8563 30.2381 37.0168 0.0000 0.0000 0.0000
# 2 30.2381 132.6004 79.3499 0.0000 0.0000 0.0000
# 3 37.0168 79.3499 157.6246 0.0000 0.0000 0.0000
# 4 0.0000 0.0000 0.0000 87.3188 0.0000 0.0000
# 5 0.0000 0.0000 0.0000 0.0000 22.2388 0.0000
# 6 0.0000 0.0000 0.0000 0.0000 0.0000 28.5181
#
#
#
# Elastic Compliance Matrix: (Units=1/GPa)
#
#
# Indices 1 2 3 4 5 6 
#
# 1 0.072939 -0.009134 -0.012531 0.000000 0.000000 0.000000
# 2 -0.009134 0.011937 -0.003864 0.000000 0.000000 0.000000
# 3 -0.012531 -0.003864 0.011232 0.000000 0.000000 0.000000
# 4 0.000000 0.000000 0.000000 0.011452 0.000000 0.000000
# 5 0.000000 0.000000 0.000000 0.000000 0.044967 0.000000
# 6 0.000000 0.000000 0.000000 0.000000 0.000000 0.035065
#
#
# Mechanical properties :
#
#
# Convention : Reuss Voigt Hill
#
# Bulk Modulus (GPa) = 22.19781 67.47676 44.83729
# Shear Modulus (GPa) = 19.71097 38.78026 29.24562
#
# Velocity S-wave (km/s) = 3.34469 4.69145 4.07410
# Velocity P-wave (km/s) = 5.24541 8.22452 6.89772
#
# Compressibility (1/GPa) = 0.04504949
#
# Stress axis : x y z
#
# Youngs Moduli (GPa) = 13.71016 83.77556 89.03093
#
# Poissons Ratio (x) = 0.76523 1.11562
# Poissons Ratio (y) = 0.12523 0.34401
# Poissons Ratio (z) = 0.17180 0.32370
#
# Static dielectric constant tensor:
#      x y z
#    x 2.988540 0.000000 0.000000 
#    y 0.000000 3.447660 0.000000 
#    z 0.000000 0.000000 3.279470 
# 
# 
# High freq. dielectric constant tensor:
#      x y z
#    x 1.655490 0.000000 0.000000 
#    y 0.000000 1.688860 0.000000 
#    z 0.000000 0.000000 1.686360 
# 
# From -- ./inp_files/72484.got.cif
#   From: 2010.03.12/outbox.cif.g09.slc.cpg/sg63_37_cif.got.tgz:72484.got - 2010.04.10 19:34:48.
