data_PCOD8256628
_publ_section_title
;
Structure prediction by ZEFSAII (Michael W. Deem and Ramdas Pophale) SiO2 
 PCOD8256628
Probable space group: C M C M
;
_chemical_formula_sum "Si O2"
_cell_formula_units_Z 88
_cell_length_a 20.397576
_cell_length_b 32.167310
_cell_length_c 9.054960
_cell_angle_alpha 90.000000
_cell_angle_beta 90.000000
_cell_angle_gamma 90.000000
_cell_volume 5941.277542
_symmetry_space_group_name_H-M "C M C M"
_symmetry_group_IT_number 63
_symmetry_cell_setting 'orthorhombic'
loop_
_space_group_symop_operation_xyz
x,y,z
-x,-y,1/2+z
x,-y,-z
-x,y,1/2-z
-x,-y,-z
x,y,1/2-z
-x,y,z
x,-y,1/2+z
1/2+x,1/2+y,z
1/2-x,1/2-y,1/2+z
1/2+x,1/2-y,-z
1/2-x,1/2+y,1/2-z
1/2-x,1/2-y,-z
1/2+x,1/2+y,1/2-z
1/2-x,1/2+y,z
1/2+x,1/2-y,1/2+z
loop_
_atom_site_type_symbol
_atom_site_label
_atom_site_fract_x
_atom_site_fract_y
_atom_site_fract_z
Si Si1 0.000000 0.957774 0.582389
Si Si2 0.227747 0.312248 0.916727
Si Si3 0.308885 0.377767 0.075850
Si Si4 0.425814 0.682372 0.920779
Si Si5 0.642422 0.455200 0.575988
Si Si6 0.350472 0.748852 0.083988
O O1 0.930856 0.935348 0.546256
O O2 0.000000 0.971407 0.750000
O O3 0.000000 0.000000 0.500000
O O4 0.209750 0.325524 0.750000
O O5 0.287274 0.280254 0.916696
O O6 0.247148 0.352671 0.011338
O O7 0.164702 0.290655 0.991900
O O8 0.300205 0.382890 0.250000
O O9 0.376585 0.354455 0.033972
O O10 0.308032 0.422933 0.999461
O O11 0.416104 0.693662 0.750000
O O12 0.500000 0.667718 0.955359
O O13 0.410905 0.724255 0.011442
O O14 0.650785 0.500000 0.500000
O O15 0.657348 0.459266 0.750000
O O16 0.369777 0.761536 0.250000
#
# Coordination Sequence:
#
# PCOD8256628 Si02
#       6
#     8  16  16  16  16  16
#     4   8  16  28  40  52  66  88 120 156 192 234
#     4   9  16  27  42  58  76  98 125 157 194 235
#     4  10  19  29  42  59  78 100 129 167 204 239
#     4   9  18  30  41  56  79 106 133 161 197 239
#     4  10  19  31  43  56  73  97 128 163 203 245
#     4   9  16  26  41  59  77  98 125 158 194 232
#
# _framework density 14.811629
#
# number of rings (size 3 to 8) (size 9 to 14) (size 15 to 20)
#    0.000    2.727    0.000    2.182    1.273    6.182 
#    0.000    0.000    0.000    0.000    0.000    0.000 
#    0.000    0.000    0.000    0.000    0.000    0.909 
#
# Total GULP energy -545309.726683 kJ/mol
# GULP energy per Si atom -12393.402879 kJ/mol
# Density = 1.477792 g / cm^3
# Si number density = 14.811629 Si / 1000 Ang^3
#
#
#
# Elastic Constant Matrix: (Units=GPa)
#
#
# Indices 1 2 3 4 5 6 
#
# 1 16.1716 20.6536 15.7256 0.0000 0.0000 0.0000
# 2 20.6536 83.7156 47.7349 0.0000 0.0000 0.0000
# 3 15.7256 47.7349 91.5908 0.0000 0.0000 0.0000
# 4 0.0000 0.0000 0.0000 26.4050 0.0000 0.0000
# 5 0.0000 0.0000 0.0000 0.0000 17.8447 0.0000
# 6 0.0000 0.0000 0.0000 0.0000 0.0000 18.9897
#
#
#
# Elastic Compliance Matrix: (Units=1/GPa)
#
#
# Indices 1 2 3 4 5 6 
#
# 1 0.092303 -0.019544 -0.005662 0.000000 0.000000 0.000000
# 2 -0.019544 0.021134 -0.007659 0.000000 0.000000 0.000000
# 3 -0.005662 -0.007659 0.015882 0.000000 0.000000 0.000000
# 4 0.000000 0.000000 0.000000 0.037872 0.000000 0.000000
# 5 0.000000 0.000000 0.000000 0.000000 0.056039 0.000000
# 6 0.000000 0.000000 0.000000 0.000000 0.000000 0.052660
#
#
# Mechanical properties :
#
#
# Convention : Reuss Voigt Hill
#
# Bulk Modulus (GPa) = 15.72592 39.96736 27.84664
# Shear Modulus (GPa) = 13.78110 19.80548 16.79329
#
# Velocity S-wave (km/s) = 3.05359 3.66068 3.37083
# Velocity P-wave (km/s) = 4.80343 6.70148 5.83021
#
# Compressibility (1/GPa) = 0.06358927
#
# Stress axis : x y z
#
# Youngs Moduli (GPa) = 10.83390 47.31698 62.96434
#
# Poissons Ratio (x) = 0.92475 0.35651
# Poissons Ratio (y) = 0.21173 0.48225
# Poissons Ratio (z) = 0.06134 0.36240
#
# Static dielectric constant tensor:
#      x y z
#    x 2.580860 0.000000 0.000000 
#    y 0.000000 2.676490 0.000000 
#    z 0.000000 0.000000 3.015220 
# 
# 
# High freq. dielectric constant tensor:
#      x y z
#    x 1.512630 0.000000 0.000000 
#    y 0.000000 1.544000 0.000000 
#    z 0.000000 0.000000 1.587150 
# 
# From -- ./inp_files/6906.got.cif
#   From: 2010.03.12/outbox.cif.g09.slc.cpg/sg63_4_cif.got.tgz:6906.got - 2010.04.10 19:34:48.
