data_PCOD8256554
_publ_section_title
;
Structure prediction by ZEFSAII (Michael W. Deem and Ramdas Pophale) SiO2 
 PCOD8256554
Probable space group: C M C M
;
_chemical_formula_sum "Si O2"
_cell_formula_units_Z 80
_cell_length_a 14.845789
_cell_length_b 12.093310
_cell_length_c 22.770108
_cell_angle_alpha 90.000000
_cell_angle_beta 90.000000
_cell_angle_gamma 90.000000
_cell_volume 4088.025159
_symmetry_space_group_name_H-M "C M C M"
_symmetry_group_IT_number 63
_symmetry_cell_setting 'orthorhombic'
loop_
_space_group_symop_operation_xyz
x,y,z
-x,-y,1/2+z
x,-y,-z
-x,y,1/2-z
-x,-y,-z
x,y,1/2-z
-x,y,z
x,-y,1/2+z
1/2+x,1/2+y,z
1/2-x,1/2-y,1/2+z
1/2+x,1/2-y,-z
1/2-x,1/2+y,1/2-z
1/2-x,1/2-y,-z
1/2+x,1/2+y,1/2-z
1/2-x,1/2+y,z
1/2+x,1/2-y,1/2+z
loop_
_atom_site_type_symbol
_atom_site_label
_atom_site_fract_x
_atom_site_fract_y
_atom_site_fract_z
Si Si1 0.398680 0.837654 0.099830
Si Si2 0.169230 0.169466 0.013498
Si Si3 0.750088 0.890472 0.180830
Si Si4 0.799129 0.450743 0.911284
Si Si5 0.604179 0.280335 0.393312
O O1 0.500000 0.859899 0.121656
O O2 0.399068 0.731570 0.057511
O O3 0.333577 0.815922 0.156124
O O4 0.360113 0.946302 0.065016
O O5 0.213238 0.062906 0.045259
O O6 0.250000 0.250000 0.000000
O O7 0.118935 0.144030 0.951949
O O8 0.746097 0.899391 0.250000
O O9 0.843546 0.834458 0.161087
O O10 0.740176 0.013525 0.152840
O O11 0.860331 0.342817 0.905485
O O12 0.500000 0.275998 0.376244
#
# Coordination Sequence:
#
# PCOD8256554 Si02
#       5
#    16  16  16  16  16
#     4  10  20  36  59  88 117 148 192 243 291 344
#     4  10  18  36  57  88 123 149 181 237 303 351
#     4  10  23  40  58  83 120 156 195 247 292 336
#     4   9  19  38  60  85 116 152 189 236 290 350
#     4  11  22  38  63  90 117 153 196 241 291 350
#
# _framework density 19.569351000000001
#
# number of rings (size 3 to 8) (size 9 to 14) (size 15 to 20)
#    1.200    0.800    4.000    1.200    0.000    8.800 
#    0.000    8.000    0.000    0.000    0.000    0.000 
#    0.000    0.000    0.000    0.000    0.000    0.000 
#
# Total GULP energy -495568.951837 kJ/mol
# GULP energy per Si atom -12389.223796 kJ/mol
# Density = 1.952481 g / cm^3
# Si number density = 19.569351 Si / 1000 Ang^3
#
#
#
# Elastic Constant Matrix: (Units=GPa)
#
#
# Indices 1 2 3 4 5 6 
#
# 1 128.4243 48.6579 33.3455 0.0000 0.0000 0.0000
# 2 48.6579 36.2566 28.6927 0.0000 0.0000 0.0000
# 3 33.3455 28.6927 117.4329 0.0000 0.0000 0.0000
# 4 0.0000 0.0000 0.0000 27.1783 0.0000 0.0000
# 5 0.0000 0.0000 0.0000 0.0000 13.8051 0.0000
# 6 0.0000 0.0000 0.0000 0.0000 0.0000 25.6279
#
#
#
# Elastic Compliance Matrix: (Units=1/GPa)
#
#
# Indices 1 2 3 4 5 6 
#
# 1 0.015913 -0.022042 0.000867 0.000000 0.000000 0.000000
# 2 -0.022042 0.064724 -0.009555 0.000000 0.000000 0.000000
# 3 0.000867 -0.009555 0.010604 0.000000 0.000000 0.000000
# 4 0.000000 0.000000 0.000000 0.036794 0.000000 0.000000
# 5 0.000000 0.000000 0.000000 0.000000 0.072437 0.000000
# 6 0.000000 0.000000 0.000000 0.000000 0.000000 0.039020
#
#
# Mechanical properties :
#
#
# Convention : Reuss Voigt Hill
#
# Bulk Modulus (GPa) = 33.57881 55.94510 44.76195
# Shear Modulus (GPa) = 16.08339 24.75011 20.41675
#
# Velocity S-wave (km/s) = 2.86993 3.56017 3.23352
# Velocity P-wave (km/s) = 5.30831 6.74907 6.07158
#
# Compressibility (1/GPa) = 0.02978069
#
# Stress axis : x y z
#
# Youngs Moduli (GPa) = 62.84215 15.45012 94.30397
#
# Poissons Ratio (x) = 0.34055 -0.08177
# Poissons Ratio (y) = 1.38516 0.90112
# Poissons Ratio (z) = -0.05449 0.14763
#
# Static dielectric constant tensor:
#      x y z
#    x 3.546400 0.000000 0.000000 
#    y 0.000000 3.650610 0.000000 
#    z 0.000000 0.000000 3.661200 
# 
# 
# High freq. dielectric constant tensor:
#      x y z
#    x 1.756980 0.000000 0.000000 
#    y 0.000000 1.751980 0.000000 
#    z 0.000000 0.000000 1.738240 
# 
# From -- ./inp_files/69160.got.cif
#   From: 2010.03.12/outbox.cif.g09.slc.cpg/sg63_35_cif.got.tgz:69160.got - 2010.04.10 19:34:48.
