data_PCOD8256818
_publ_section_title
;
Structure prediction by ZEFSAII (Michael W. Deem and Ramdas Pophale) SiO2 
 PCOD8256818
Probable space group: C M C M
;
_chemical_formula_sum "Si O2"
_cell_formula_units_Z 120
_cell_length_a 18.006599
_cell_length_b 30.566673
_cell_length_c 12.292782
_cell_angle_alpha 90.000000
_cell_angle_beta 90.000000
_cell_angle_gamma 90.000000
_cell_volume 6765.969628
_symmetry_space_group_name_H-M "C M C M"
_symmetry_group_IT_number 63
_symmetry_cell_setting 'orthorhombic'
loop_
_space_group_symop_operation_xyz
x,y,z
-x,-y,1/2+z
x,-y,-z
-x,y,1/2-z
-x,-y,-z
x,y,1/2-z
-x,y,z
x,-y,1/2+z
1/2+x,1/2+y,z
1/2-x,1/2-y,1/2+z
1/2+x,1/2-y,-z
1/2-x,1/2+y,1/2-z
1/2-x,1/2-y,-z
1/2+x,1/2+y,1/2-z
1/2-x,1/2+y,z
1/2+x,1/2-y,1/2+z
loop_
_atom_site_type_symbol
_atom_site_label
_atom_site_fract_x
_atom_site_fract_y
_atom_site_fract_z
Si Si1 0.226798 0.078528 0.620606
Si Si2 0.778812 0.294040 0.869887
Si Si3 0.084132 0.710429 0.631230
Si Si4 0.915527 0.557080 0.376401
Si Si5 0.857587 0.219892 0.979268
Si Si6 0.416104 0.632322 0.624059
Si Si7 0.154957 0.365584 0.505270
Si Si8 0.700024 0.000000 0.000000
O O1 0.241437 0.075624 0.750000
O O2 0.141754 0.093386 0.595335
O O3 0.279377 0.113881 0.565167
O O4 0.244542 0.032362 0.563712
O O5 0.744042 0.292283 0.750000
O O6 0.836121 0.253399 0.882325
O O7 0.717754 0.293657 0.962679
O O8 0.818535 0.340821 0.885688
O O9 0.121270 0.717200 0.750000
O O10 0.090136 0.755291 0.564592
O O11 0.121589 0.669914 0.574150
O O12 0.000000 0.697427 0.645261
O O13 0.902814 0.568769 0.250000
O O14 0.904705 0.599086 0.453944
O O15 0.854163 0.521503 0.410457
O O16 0.000000 0.539834 0.394340
O O17 0.899530 0.177099 0.938858
O O18 0.409018 0.644119 0.750000
O O19 0.500000 0.616627 0.594850
#
# Coordination Sequence:
#
# PCOD8256818 Si02
#       8
#    16  16  16  16  16  16  16   8
#     4  10  20  36  57  80 103 130 167 212 260 314
#     4  10  19  30  47  73 103 136 177 217 254 295
#     4  10  20  32  47  70 103 143 181 216 255 299
#     4  10  20  34  53  78 108 139 171 210 253 302
#     4  10  19  32  48  72 102 140 176 216 259 297
#     4  10  20  35  56  80 104 133 171 216 265 313
#     4  10  19  33  51  75 102 138 177 214 253 295
#     4  10  21  36  57  80 106 134 168 202 261 316
#
# _framework density 17.735817000000001
#
# number of rings (size 3 to 8) (size 9 to 14) (size 15 to 20)
#    0.000    2.000    1.333    3.000    0.000    0.000 
#    0.000    0.333    0.000   12.800    0.000    0.000 
#    0.000    0.000    0.000    0.000    0.000    0.000 
#
# Total GULP energy -743665.738185 kJ/mol
# GULP energy per Si atom -12394.428970 kJ/mol
# Density = 1.769545 g / cm^3
# Si number density = 17.735817 Si / 1000 Ang^3
#
#
#
# Elastic Constant Matrix: (Units=GPa)
#
#
# Indices 1 2 3 4 5 6 
#
# 1 103.8170 58.9284 45.2717 0.0000 0.0000 0.0000
# 2 58.9284 110.6634 48.5060 0.0000 0.0000 0.0000
# 3 45.2717 48.5060 102.8662 0.0000 0.0000 0.0000
# 4 0.0000 0.0000 0.0000 -3.1762 0.0000 0.0000
# 5 0.0000 0.0000 0.0000 0.0000 15.9084 0.0000
# 6 0.0000 0.0000 0.0000 0.0000 0.0000 21.1707
#
#
#
# Elastic Compliance Matrix: (Units=1/GPa)
#
#
# Indices 1 2 3 4 5 6 
#
# 1 0.014748 -0.006313 -0.003514 0.000000 0.000000 0.000000
# 2 -0.006313 0.014093 -0.003867 0.000000 0.000000 0.000000
# 3 -0.003514 -0.003867 0.013091 0.000000 0.000000 0.000000
# 4 0.000000 0.000000 0.000000 -0.314842 0.000000 0.000000
# 5 0.000000 0.000000 0.000000 0.000000 0.062860 0.000000
# 6 0.000000 0.000000 0.000000 0.000000 0.000000 0.047235
#
#
# Mechanical properties :
#
#
# Convention : Reuss Voigt Hill
#
# Bulk Modulus (GPa) = 68.75458 69.19542 68.97500
# Shear Modulus (GPa) = -38.29124 17.75663 -10.26731
#
# Velocity S-wave (km/s) = -4.65152 3.16756 -2.40865
# Velocity P-wave (km/s) = 3.16247 7.24411 5.58920
#
# Compressibility (1/GPa) = 0.01454449
#
# Stress axis : x y z
#
# Youngs Moduli (GPa) = 67.80554 70.95592 76.38684
#
# Poissons Ratio (x) = 0.44796 0.26840
# Poissons Ratio (y) = 0.42807 0.29540
# Poissons Ratio (z) = 0.23825 0.27439
#
# Static dielectric constant tensor:
#      x y z
#    x 3.395640 0.000000 0.000000 
#    y 0.000000 3.361380 0.000000 
#    z 0.000000 0.000000 3.435230 
# 
# 
# High freq. dielectric constant tensor:
#      x y z
#    x 1.683470 0.000000 0.000000 
#    y 0.000000 1.681520 0.000000 
#    z 0.000000 0.000000 1.691260 
# 
# From -- ./inp_files/23242.got.cif
#   From: 2010.03.12/outbox.cif.g09.slc.cpg/sg63_12_cif.got.tgz:23242.got - 2010.04.10 19:34:48.
