data_PCOD8256641
_publ_section_title
;
Structure prediction by ZEFSAII (Michael W. Deem and Ramdas Pophale) SiO2 
 PCOD8256641
Probable space group: C M C M
;
_chemical_formula_sum "Si O2"
_cell_formula_units_Z 80
_cell_length_a 27.030411
_cell_length_b 19.299369
_cell_length_c 8.813537
_cell_angle_alpha 90.000000
_cell_angle_beta 90.000000
_cell_angle_gamma 90.000000
_cell_volume 4597.756755
_symmetry_space_group_name_H-M "C M C M"
_symmetry_group_IT_number 63
_symmetry_cell_setting 'orthorhombic'
loop_
_space_group_symop_operation_xyz
x,y,z
-x,-y,1/2+z
x,-y,-z
-x,y,1/2-z
-x,-y,-z
x,y,1/2-z
-x,y,z
x,-y,1/2+z
1/2+x,1/2+y,z
1/2-x,1/2-y,1/2+z
1/2+x,1/2-y,-z
1/2-x,1/2+y,1/2-z
1/2-x,1/2-y,-z
1/2+x,1/2+y,1/2-z
1/2-x,1/2+y,z
1/2+x,1/2-y,1/2+z
loop_
_atom_site_type_symbol
_atom_site_label
_atom_site_fract_x
_atom_site_fract_y
_atom_site_fract_z
Si Si1 0.691843 0.064200 0.084027
Si Si2 0.701355 0.286566 0.429618
Si Si3 0.694863 0.433390 0.582606
Si Si4 0.360060 0.822720 0.427788
Si Si5 0.444046 0.072838 0.928463
O O1 0.667127 0.076951 0.250000
O O2 0.748564 0.046777 0.109237
O O3 0.686727 0.129664 0.972951
O O4 0.664986 0.000000 0.000000
O O5 0.707055 0.282491 0.250000
O O6 0.750000 0.250000 0.500000
O O7 0.692142 0.365014 0.480724
O O8 0.650524 0.248420 0.483144
O O9 0.669271 0.500000 0.500000
O O10 0.670548 0.421657 0.750000
O O11 0.361183 0.807328 0.250000
O O12 0.409259 0.863570 0.484431
O O13 0.438713 0.064518 0.750000
O O14 0.500000 0.091649 0.977034
O O15 0.427538 0.000000 0.000000
#
# Coordination Sequence:
#
# PCOD8256641 Si02
#       5
#    16  16  16  16  16
#     4  10  19  29  43  63  91 124 162 205 244 290
#     4  12  23  35  50  70  99 132 168 211 255 301
#     4  10  20  34  50  68  93 128 165 203 244 291
#     4  11  21  32  49  70  96 129 167 210 255 303
#     4   9  19  35  53  74 101 134 172 215 261 307
#
# _framework density 17.399788999999998
#
# number of rings (size 3 to 8) (size 9 to 14) (size 15 to 20)
#    0.000    1.600    2.000    4.200    0.000    4.800 
#    0.000    0.000    0.000    0.000    0.000    0.000 
#    0.000    0.800    0.000    2.200    0.000    3.200 
#
# Total GULP energy -495656.422106 kJ/mol
# GULP energy per Si atom -12391.410553 kJ/mol
# Density = 1.736019 g / cm^3
# Si number density = 17.399789 Si / 1000 Ang^3
#
#
#
# Elastic Constant Matrix: (Units=GPa)
#
#
# Indices 1 2 3 4 5 6 
#
# 1 52.9660 35.4493 29.3204 0.0000 0.0000 0.0000
# 2 35.4493 138.6193 57.7129 0.0000 0.0000 0.0000
# 3 29.3204 57.7129 117.5263 0.0000 0.0000 0.0000
# 4 0.0000 0.0000 0.0000 33.5553 0.0000 0.0000
# 5 0.0000 0.0000 0.0000 0.0000 14.5211 0.0000
# 6 0.0000 0.0000 0.0000 0.0000 0.0000 22.2948
#
#
#
# Elastic Compliance Matrix: (Units=1/GPa)
#
#
# Indices 1 2 3 4 5 6 
#
# 1 0.024020 -0.004585 -0.003741 0.000000 0.000000 0.000000
# 2 -0.004585 0.009943 -0.003739 0.000000 0.000000 0.000000
# 3 -0.003741 -0.003739 0.011278 0.000000 0.000000 0.000000
# 4 0.000000 0.000000 0.000000 0.029802 0.000000 0.000000
# 5 0.000000 0.000000 0.000000 0.000000 0.068865 0.000000
# 6 0.000000 0.000000 0.000000 0.000000 0.000000 0.044853
#
#
# Mechanical properties :
#
#
# Convention : Reuss Voigt Hill
#
# Bulk Modulus (GPa) = 47.36816 61.56409 54.46612
# Shear Modulus (GPa) = 22.73474 26.51618 24.62546
#
# Velocity S-wave (km/s) = 3.61863 3.90800 3.76609
# Velocity P-wave (km/s) = 6.68893 7.47142 7.09098
#
# Compressibility (1/GPa) = 0.02111123
#
# Stress axis : x y z
#
# Youngs Moduli (GPa) = 41.63275 100.57132 88.66818
#
# Poissons Ratio (x) = 0.46113 0.33169
# Poissons Ratio (y) = 0.19089 0.33152
# Poissons Ratio (z) = 0.15574 0.37602
#
# Static dielectric constant tensor:
#      x y z
#    x 3.007050 0.000000 0.000000 
#    y 0.000000 3.397500 0.000000 
#    z 0.000000 0.000000 3.585540 
# 
# 
# High freq. dielectric constant tensor:
#      x y z
#    x 1.612860 0.000000 0.000000 
#    y 0.000000 1.670870 0.000000 
#    z 0.000000 0.000000 1.691210 
# 
# From -- ./inp_files/14030.got.cif
#   From: 2010.03.12/outbox.cif.g09.slc.cpg/sg63_8_cif.got.tgz:14030.got - 2010.04.10 19:34:48.
