data_PCOD8256719
_publ_section_title
;
Structure prediction by ZEFSAII (Michael W. Deem and Ramdas Pophale) SiO2 
 PCOD8256719
Probable space group: C M C M
;
_chemical_formula_sum "Si O2"
_cell_formula_units_Z 104
_cell_length_a 24.669706
_cell_length_b 32.949934
_cell_length_c 8.837172
_cell_angle_alpha 90.000000
_cell_angle_beta 90.000000
_cell_angle_gamma 90.000000
_cell_volume 7183.429448
_symmetry_space_group_name_H-M "C M C M"
_symmetry_group_IT_number 63
_symmetry_cell_setting 'orthorhombic'
loop_
_space_group_symop_operation_xyz
x,y,z
-x,-y,1/2+z
x,-y,-z
-x,y,1/2-z
-x,-y,-z
x,y,1/2-z
-x,y,z
x,-y,1/2+z
1/2+x,1/2+y,z
1/2-x,1/2-y,1/2+z
1/2+x,1/2-y,-z
1/2-x,1/2+y,1/2-z
1/2-x,1/2-y,-z
1/2+x,1/2+y,1/2-z
1/2-x,1/2+y,z
1/2+x,1/2-y,1/2+z
loop_
_atom_site_type_symbol
_atom_site_label
_atom_site_fract_x
_atom_site_fract_y
_atom_site_fract_z
Si Si1 0.773935 0.312937 0.926728
Si Si2 0.560693 0.839341 0.575926
Si Si3 0.000000 0.542720 0.423766
Si Si4 0.826180 0.763027 0.575724
Si Si5 0.058262 0.255077 0.422074
Si Si6 0.660278 0.880740 0.072874
Si Si7 0.381781 0.955885 0.927508
O O1 0.781863 0.320476 0.750000
O O2 0.711731 0.301150 0.969249
O O3 0.813027 0.276323 0.976057
O O4 0.789544 0.354179 0.011928
O O5 0.578937 0.845529 0.750000
O O6 0.500000 0.857687 0.552509
O O7 0.560200 0.791874 0.538836
O O8 0.603087 0.860378 0.466050
O O9 0.000000 0.500000 0.500000
O O10 0.057857 0.563966 0.462982
O O11 0.000000 0.532199 0.250000
O O12 0.814436 0.751467 0.750000
O O13 0.889764 0.774252 0.548749
O O14 0.061995 0.272021 0.250000
O O15 0.000000 0.232060 0.444053
O O16 0.666640 0.885386 0.250000
O O17 0.662270 0.925480 0.998746
O O18 0.371305 0.959658 0.750000
O O19 0.375177 0.000000 0.000000
#
# Coordination Sequence:
#
# PCOD8256719 Si02
#       7
#    16  16   8  16  16  16  16
#     4  10  19  30  44  61  81 109 141 175 211 246
#     4  10  20  31  42  58  80 105 135 173 216 257
#     4   8  16  30  48  64  80 100 126 160 202 254
#     4   9  17  29  44  62  84 109 138 171 210 254
#     4   9  16  27  43  62  84 108 134 168 210 256
#     4  12  23  33  45  62  82 106 140 175 213 255
#     4  10  20  35  50  65  82 104 132 167 211 256
#
# _framework density 14.477764000000001
#
# number of rings (size 3 to 8) (size 9 to 14) (size 15 to 20)
#    0.000    2.154    1.538    2.769    1.077    2.154 
#    0.000    0.000    0.000    0.000    0.000    0.000 
#    0.000    0.000    0.000    0.000    0.000    0.769 
#
# Total GULP energy -644311.862032 kJ/mol
# GULP energy per Si atom -12390.612731 kJ/mol
# Density = 1.444481 g / cm^3
# Si number density = 14.477764 Si / 1000 Ang^3
#
#
#
# Elastic Constant Matrix: (Units=GPa)
#
#
# Indices 1 2 3 4 5 6 
#
# 1 98.4668 41.8295 27.4545 0.0000 0.0000 0.0000
# 2 41.8295 67.0890 34.8952 0.0000 0.0000 0.0000
# 3 27.4545 34.8952 73.6184 0.0000 0.0000 0.0000
# 4 0.0000 0.0000 0.0000 20.0490 0.0000 0.0000
# 5 0.0000 0.0000 0.0000 0.0000 15.7000 0.0000
# 6 0.0000 0.0000 0.0000 0.0000 0.0000 21.3513
#
#
#
# Elastic Compliance Matrix: (Units=1/GPa)
#
#
# Indices 1 2 3 4 5 6 
#
# 1 0.013927 -0.007940 -0.001431 0.000000 0.000000 0.000000
# 2 -0.007940 0.024309 -0.008562 0.000000 0.000000 0.000000
# 3 -0.001431 -0.008562 0.018175 0.000000 0.000000 0.000000
# 4 0.000000 0.000000 0.000000 0.049878 0.000000 0.000000
# 5 0.000000 0.000000 0.000000 0.000000 0.063694 0.000000
# 6 0.000000 0.000000 0.000000 0.000000 0.000000 0.046836
#
#
# Mechanical properties :
#
#
# Convention : Reuss Voigt Hill
#
# Bulk Modulus (GPa) = 48.66602 49.72583 49.19592
# Shear Modulus (GPa) = 19.26545 20.41973 19.84259
#
# Velocity S-wave (km/s) = 3.65182 3.75963 3.70612
# Velocity P-wave (km/s) = 7.17415 7.29845 7.23656
#
# Compressibility (1/GPa) = 0.02054822
#
# Stress axis : x y z
#
# Youngs Moduli (GPa) = 71.80110 41.13705 55.01980
#
# Poissons Ratio (x) = 0.32661 0.07871
# Poissons Ratio (y) = 0.57007 0.47106
# Poissons Ratio (z) = 0.10272 0.35220
#
# Static dielectric constant tensor:
#      x y z
#    x 3.155140 0.000000 0.000000 
#    y 0.000000 2.589090 0.000000 
#    z 0.000000 0.000000 2.883800 
# 
# 
# High freq. dielectric constant tensor:
#      x y z
#    x 1.537610 0.000000 0.000000 
#    y 0.000000 1.510020 0.000000 
#    z 0.000000 0.000000 1.567780 
# 
# From -- ./inp_files/13295.got.cif
#   From: 2010.03.12/outbox.cif.g09.slc.cpg/sg63_7_cif.got.tgz:13295.got - 2010.04.10 19:34:48.
