data_PCOD8256578
_publ_section_title
;
Structure prediction by ZEFSAII (Michael W. Deem and Ramdas Pophale) SiO2 
 PCOD8256578
Probable space group: C M C M
;
_chemical_formula_sum "Si O2"
_cell_formula_units_Z 84
_cell_length_a 11.995432
_cell_length_b 14.954983
_cell_length_c 22.063968
_cell_angle_alpha 90.000000
_cell_angle_beta 90.000000
_cell_angle_gamma 90.000000
_cell_volume 3958.087910
_symmetry_space_group_name_H-M "C M C M"
_symmetry_group_IT_number 63
_symmetry_cell_setting 'orthorhombic'
loop_
_space_group_symop_operation_xyz
x,y,z
-x,-y,1/2+z
x,-y,-z
-x,y,1/2-z
-x,-y,-z
x,y,1/2-z
-x,y,z
x,-y,1/2+z
1/2+x,1/2+y,z
1/2-x,1/2-y,1/2+z
1/2+x,1/2-y,-z
1/2-x,1/2+y,1/2-z
1/2-x,1/2-y,-z
1/2+x,1/2+y,1/2-z
1/2-x,1/2+y,z
1/2+x,1/2-y,1/2+z
loop_
_atom_site_type_symbol
_atom_site_label
_atom_site_fract_x
_atom_site_fract_y
_atom_site_fract_z
Si Si1 0.500000 0.354458 0.383278
Si Si2 0.000000 0.105820 0.750000
Si Si3 0.621781 0.043921 0.750000
Si Si4 0.332972 0.446945 0.750000
Si Si5 0.770961 0.784748 0.067210
Si Si6 0.370717 0.061073 0.881331
Si Si7 0.792658 0.892533 0.876822
Si Si8 0.000000 0.039887 0.434368
O O1 0.500000 0.331664 0.310817
O O2 0.605569 0.320585 0.420928
O O3 0.500000 0.462190 0.383625
O O4 0.890232 0.044088 0.750000
O O5 0.500000 0.000162 0.750000
O O6 0.700316 0.958294 0.750000
O O7 0.638844 0.099823 0.687808
O O8 0.357994 0.394182 0.811945
O O9 0.681701 0.864005 0.075919
O O10 0.758970 0.704890 0.115297
O O11 0.750000 0.750000 0.000000
O O12 0.500000 0.044078 0.899816
O O13 0.301965 0.968411 0.885898
O O14 0.888243 0.902055 0.927587
O O15 0.000000 0.000000 0.500000
#
# Coordination Sequence:
#
# PCOD8256578 Si02
#       8
#     8   4   8   8  16  16  16   8
#     4  12  24  46  70  98 135 183 233 291 350 412
#     4  12  20  42  76 102 132 172 234 298 354 420
#     4   8  16  35  63  89 125 161 205 254 322 399
#     4  10  18  38  65 100 128 156 220 282 333 405
#     4  12  28  44  64  99 138 181 233 285 339 414
#     4  10  22  42  66  96 129 175 213 270 340 398
#     4  11  24  41  68  97 131 175 222 281 342 402
#     4  12  22  42  68  91 128 180 229 273 340 410
#
# _framework density 21.222366999999998
#
# number of rings (size 3 to 8) (size 9 to 14) (size 15 to 20)
#    0.000    1.143    3.810    2.286    4.000    1.524 
#    0.000    0.952    0.000    0.000    0.000    0.000 
#    0.000    0.000    0.000    0.000    0.000    0.000 
#
# Total GULP energy -520558.474730 kJ/mol
# GULP energy per Si atom -12394.249398 kJ/mol
# Density = 2.117406 g / cm^3
# Si number density = 21.222367 Si / 1000 Ang^3
#
#
#
# Elastic Constant Matrix: (Units=GPa)
#
#
# Indices 1 2 3 4 5 6 
#
# 1 139.8415 29.6647 18.7614 0.0000 0.0000 0.0000
# 2 29.6647 87.6175 0.6240 0.0000 0.0000 0.0000
# 3 18.7614 0.6240 84.5988 0.0000 0.0000 0.0000
# 4 0.0000 0.0000 0.0000 29.0753 0.0000 0.0000
# 5 0.0000 0.0000 0.0000 0.0000 24.4282 0.0000
# 6 0.0000 0.0000 0.0000 0.0000 0.0000 12.8511
#
#
#
# Elastic Compliance Matrix: (Units=1/GPa)
#
#
# Indices 1 2 3 4 5 6 
#
# 1 0.007954 -0.002680 -0.001744 0.000000 0.000000 0.000000
# 2 -0.002680 0.012317 0.000504 0.000000 0.000000 0.000000
# 3 -0.001744 0.000504 0.012204 0.000000 0.000000 0.000000
# 4 0.000000 0.000000 0.000000 0.034393 0.000000 0.000000
# 5 0.000000 0.000000 0.000000 0.000000 0.040936 0.000000
# 6 0.000000 0.000000 0.000000 0.000000 0.000000 0.077815
#
#
# Mechanical properties :
#
#
# Convention : Reuss Voigt Hill
#
# Bulk Modulus (GPa) = 40.59684 45.57310 43.08497
# Shear Modulus (GPa) = 24.79283 30.80475 27.79879
#
# Velocity S-wave (km/s) = 3.42166 3.81402 3.62316
# Velocity P-wave (km/s) = 5.89755 6.39659 6.15213
#
# Compressibility (1/GPa) = 0.02463246
#
# Stress axis : x y z
#
# Youngs Moduli (GPa) = 125.73018 81.18745 81.94323
#
# Poissons Ratio (x) = 0.21762 0.14292
# Poissons Ratio (y) = 0.33701 -0.04126
# Poissons Ratio (z) = 0.21928 -0.04088
#
# Static dielectric constant tensor:
#      x y z
#    x 4.142200 0.000000 0.000000 
#    y 0.000000 3.627580 0.000000 
#    z 0.000000 0.000000 4.106630 
# 
# 
# High freq. dielectric constant tensor:
#      x y z
#    x 1.850500 0.000000 0.000000 
#    y 0.000000 1.796690 0.000000 
#    z 0.000000 0.000000 1.848150 
# 
# From -- ./inp_files/61332.got.cif
#   From: 2010.03.12/outbox.cif.g09.slc.cpg/sg63_31_cif.got.tgz:61332.got - 2010.04.10 19:34:48.
