data_PCOD8256365
_publ_section_title
;
Structure prediction by ZEFSAII (Michael W. Deem and Ramdas Pophale) SiO2 
 PCOD8256365
Probable space group: C M C M
;
_chemical_formula_sum "Si O2"
_cell_formula_units_Z 96
_cell_length_a 21.971610
_cell_length_b 9.276969
_cell_length_c 23.880894
_cell_angle_alpha 90.000000
_cell_angle_beta 90.000000
_cell_angle_gamma 90.000000
_cell_volume 4867.641307
_symmetry_space_group_name_H-M "C M C M"
_symmetry_group_IT_number 63
_symmetry_cell_setting 'orthorhombic'
loop_
_space_group_symop_operation_xyz
x,y,z
-x,-y,1/2+z
x,-y,-z
-x,y,1/2-z
-x,-y,-z
x,y,1/2-z
-x,y,z
x,-y,1/2+z
1/2+x,1/2+y,z
1/2-x,1/2-y,1/2+z
1/2+x,1/2-y,-z
1/2-x,1/2+y,1/2-z
1/2-x,1/2-y,-z
1/2+x,1/2+y,1/2-z
1/2-x,1/2+y,z
1/2+x,1/2-y,1/2+z
loop_
_atom_site_type_symbol
_atom_site_label
_atom_site_fract_x
_atom_site_fract_y
_atom_site_fract_z
Si Si1 0.570779 0.930746 0.440594
Si Si2 0.140825 0.637409 0.366507
Si Si3 0.285415 0.095635 0.811657
Si Si4 0.857667 0.064634 0.814342
Si Si5 0.260576 0.123152 0.040533
Si Si6 0.150911 0.183651 0.391716
O O1 0.500000 0.894266 0.440193
O O2 0.604659 0.778192 0.429085
O O3 0.590495 0.000000 0.500000
O O4 0.584752 0.044204 0.390787
O O5 0.175960 0.551119 0.317612
O O6 0.116362 0.787196 0.340795
O O7 0.187800 0.665588 0.416103
O O8 0.297626 0.160482 0.750000
O O9 0.214992 0.059715 0.819403
O O10 0.305332 0.208257 0.858125
O O11 0.879457 0.051481 0.750000
O O12 0.883560 0.927388 0.849671
O O13 0.195854 0.087109 0.069901
O O14 0.250000 0.250000 0.000000
O O15 0.285144 0.000000 0.000000
#
# Coordination Sequence:
#
# PCOD8256365 Si02
#       6
#    16  16  16  16  16  16
#     4  10  23  44  64  80 105 153 208 245 281 338
#     4  11  20  35  55  85 118 154 189 234 283 347
#     4  10  18  32  53  81 120 158 190 222 274 351
#     4  11  20  33  55  88 124 152 185 230 289 353
#     4  12  21  31  49  80 119 147 179 227 293 345
#     4  11  21  35  56  85 118 150 190 237 292 344
#
# _framework density 19.722079000000001
#
# number of rings (size 3 to 8) (size 9 to 14) (size 15 to 20)
#    0.000    1.167    3.333    5.500    0.000    2.667 
#    0.000    0.833    0.000   21.500    0.000    0.000 
#    0.000    0.000    0.000    0.000    0.000    0.000 
#
# Total GULP energy -595093.117668 kJ/mol
# GULP energy per Si atom -12397.773285 kJ/mol
# Density = 1.967719 g / cm^3
# Si number density = 19.722079 Si / 1000 Ang^3
#
#
#
# Elastic Constant Matrix: (Units=GPa)
#
#
# Indices 1 2 3 4 5 6 
#
# 1 43.6635 -1.3203 16.9869 0.0000 0.0000 0.0000
# 2 -1.3203 86.1778 25.1312 0.0000 0.0000 0.0000
# 3 16.9869 25.1312 100.5424 0.0000 0.0000 0.0000
# 4 0.0000 0.0000 0.0000 39.0334 0.0000 0.0000
# 5 0.0000 0.0000 0.0000 0.0000 19.2431 0.0000
# 6 0.0000 0.0000 0.0000 0.0000 0.0000 6.1211
#
#
#
# Elastic Compliance Matrix: (Units=1/GPa)
#
#
# Indices 1 2 3 4 5 6 
#
# 1 0.024749 0.001724 -0.004612 0.000000 0.000000 0.000000
# 2 0.001724 0.012636 -0.003450 0.000000 0.000000 0.000000
# 3 -0.004612 -0.003450 0.011588 0.000000 0.000000 0.000000
# 4 0.000000 0.000000 0.000000 0.025619 0.000000 0.000000
# 5 0.000000 0.000000 0.000000 0.000000 0.051967 0.000000
# 6 0.000000 0.000000 0.000000 0.000000 0.000000 0.163370
#
#
# Mechanical properties :
#
#
# Convention : Reuss Voigt Hill
#
# Bulk Modulus (GPa) = 27.55048 34.66434 31.10741
# Shear Modulus (GPa) = 15.88798 25.51859 20.70329
#
# Velocity S-wave (km/s) = 2.84138 3.60100 3.24350
# Velocity P-wave (km/s) = 4.97637 5.90797 5.46207
#
# Compressibility (1/GPa) = 0.03629700
#
# Stress axis : x y z
#
# Youngs Moduli (GPa) = 40.40573 79.13662 86.29890
#
# Poissons Ratio (x) = -0.13645 0.39804
# Poissons Ratio (y) = -0.06967 0.29772
# Poissons Ratio (z) = 0.18637 0.27301
#
# Static dielectric constant tensor:
#      x y z
#    x 3.161370 0.000000 0.000000 
#    y 0.000000 3.659040 0.000000 
#    z 0.000000 0.000000 3.941590 
# 
# 
# High freq. dielectric constant tensor:
#      x y z
#    x 1.714800 0.000000 0.000000 
#    y 0.000000 1.775170 0.000000 
#    z 0.000000 0.000000 1.788680 
# 
# From -- ./inp_files/64934.got.cif
#   From: 2010.03.12/outbox.cif.g09.slc.cpg/sg63_33_cif.got.tgz:64934.got - 2010.04.10 19:34:48.
