data_PCOD8256978
_publ_section_title
;
Structure prediction by ZEFSAII (Michael W. Deem and Ramdas Pophale) SiO2 
 PCOD8256978
Probable space group: C M C M
;
_chemical_formula_sum "Si O2"
_cell_formula_units_Z 112
_cell_length_a 25.658411
_cell_length_b 12.839257
_cell_length_c 18.274735
_cell_angle_alpha 90.000000
_cell_angle_beta 90.000000
_cell_angle_gamma 90.000000
_cell_volume 6020.336101
_symmetry_space_group_name_H-M "C M C M"
_symmetry_group_IT_number 63
_symmetry_cell_setting 'orthorhombic'
loop_
_space_group_symop_operation_xyz
x,y,z
-x,-y,1/2+z
x,-y,-z
-x,y,1/2-z
-x,-y,-z
x,y,1/2-z
-x,y,z
x,-y,1/2+z
1/2+x,1/2+y,z
1/2-x,1/2-y,1/2+z
1/2+x,1/2-y,-z
1/2-x,1/2+y,1/2-z
1/2-x,1/2-y,-z
1/2+x,1/2+y,1/2-z
1/2-x,1/2+y,z
1/2+x,1/2-y,1/2+z
loop_
_atom_site_type_symbol
_atom_site_label
_atom_site_fract_x
_atom_site_fract_y
_atom_site_fract_z
Si Si1 0.886827 0.307214 0.332318
Si Si2 0.560594 0.116037 0.524739
Si Si3 0.857038 0.758563 0.042109
Si Si4 0.272111 0.094178 0.445057
Si Si5 0.658303 0.383938 0.594385
Si Si6 0.211015 0.553991 0.830470
Si Si7 0.829183 0.098352 0.836071
O O1 0.910403 0.317061 0.250000
O O2 0.924549 0.364164 0.390250
O O3 0.876226 0.187704 0.352121
O O4 0.829544 0.354100 0.337033
O O5 0.500000 0.138653 0.514631
O O6 0.590662 0.192996 0.469853
O O7 0.575427 0.000000 0.500000
O O8 0.806830 0.686331 0.019973
O O9 0.853144 0.798528 0.125575
O O10 0.858514 0.859750 0.989237
O O11 0.220491 0.137771 0.404985
O O12 0.256755 0.000000 0.500000
O O13 0.307122 0.040325 0.382279
O O14 0.645426 0.498971 0.623499
O O15 0.213346 0.505614 0.750000
O O16 0.267523 0.599729 0.851797
O O17 0.842741 0.099734 0.750000
#
# Coordination Sequence:
#
# PCOD8256978 Si02
#       7
#    16  16  16  16  16  16  16
#     4  10  19  33  55  79 104 137 177 216 258 308
#     4  10  22  40  59  79 103 130 166 218 274 318
#     4  11  20  32  53  75 100 138 179 219 262 310
#     4  11  19  29  47  74 107 143 179 212 248 304
#     4  10  19  31  48  75 108 141 173 210 249 298
#     4   9  18  30  45  72 109 143 173 210 254 302
#     4  10  20  33  49  74 110 146 178 210 249 302
#
# _framework density 18.603611999999998
#
# number of rings (size 3 to 8) (size 9 to 14) (size 15 to 20)
#    0.000    1.857    0.000    6.857    0.000    1.429 
#    0.000    0.714    0.000    8.143    0.000    0.000 
#    0.000    0.000    0.000    0.000    0.000    0.000 
#
# Total GULP energy -694040.438493 kJ/mol
# GULP energy per Si atom -12393.579259 kJ/mol
# Density = 1.856127 g / cm^3
# Si number density = 18.603612 Si / 1000 Ang^3
#
#
#
# Elastic Constant Matrix: (Units=GPa)
#
#
# Indices 1 2 3 4 5 6 
#
# 1 60.0196 35.7897 34.3864 0.0000 0.0000 0.0000
# 2 35.7897 85.2105 51.5874 0.0000 0.0000 0.0000
# 3 34.3864 51.5874 111.5452 0.0000 0.0000 0.0000
# 4 0.0000 0.0000 0.0000 30.2174 0.0000 0.0000
# 5 0.0000 0.0000 0.0000 0.0000 11.5858 0.0000
# 6 0.0000 0.0000 0.0000 0.0000 0.0000 21.0136
#
#
#
# Elastic Compliance Matrix: (Units=1/GPa)
#
#
# Indices 1 2 3 4 5 6 
#
# 1 0.023270 -0.007543 -0.003685 0.000000 0.000000 0.000000
# 2 -0.007543 0.018744 -0.006344 0.000000 0.000000 0.000000
# 3 -0.003685 -0.006344 0.013035 0.000000 0.000000 0.000000
# 4 0.000000 0.000000 0.000000 0.033094 0.000000 0.000000
# 5 0.000000 0.000000 0.000000 0.000000 0.086312 0.000000
# 6 0.000000 0.000000 0.000000 0.000000 0.000000 0.047588
#
#
# Mechanical properties :
#
#
# Convention : Reuss Voigt Hill
#
# Bulk Modulus (GPa) = 50.23577 55.58916 52.91247
# Shear Modulus (GPa) = 18.95217 21.56415 20.25816
#
# Velocity S-wave (km/s) = 3.19523 3.40830 3.30348
# Velocity P-wave (km/s) = 6.37766 6.74051 6.56159
#
# Compressibility (1/GPa) = 0.01990613
#
# Stress axis : x y z
#
# Youngs Moduli (GPa) = 42.97309 53.34976 76.71764
#
# Poissons Ratio (x) = 0.40241 0.28272
# Poissons Ratio (y) = 0.32414 0.48666
# Poissons Ratio (z) = 0.15837 0.33843
#
# Static dielectric constant tensor:
#      x y z
#    x 3.017550 0.000000 0.000000 
#    y 0.000000 3.491770 0.000000 
#    z 0.000000 0.000000 3.670410 
# 
# 
# High freq. dielectric constant tensor:
#      x y z
#    x 1.672910 0.000000 0.000000 
#    y 0.000000 1.724810 0.000000 
#    z 0.000000 0.000000 1.733750 
# 
# From -- ./inp_files/58308.got.cif
#   From: 2010.03.12/outbox.cif.g09.slc.cpg/sg63_30_cif.got.tgz:58308.got - 2010.04.10 19:34:48.
