data_PCOD8256865
_publ_section_title
;
Structure prediction by ZEFSAII (Michael W. Deem and Ramdas Pophale) SiO2 
 PCOD8256865
Probable space group: C M C M
;
_chemical_formula_sum "Si O2"
_cell_formula_units_Z 80
_cell_length_a 19.984779
_cell_length_b 13.030838
_cell_length_c 18.003004
_cell_angle_alpha 90.000000
_cell_angle_beta 90.000000
_cell_angle_gamma 90.000000
_cell_volume 4688.313814
_symmetry_space_group_name_H-M "C M C M"
_symmetry_group_IT_number 63
_symmetry_cell_setting 'orthorhombic'
loop_
_space_group_symop_operation_xyz
x,y,z
-x,-y,1/2+z
x,-y,-z
-x,y,1/2-z
-x,-y,-z
x,y,1/2-z
-x,y,z
x,-y,1/2+z
1/2+x,1/2+y,z
1/2-x,1/2-y,1/2+z
1/2+x,1/2-y,-z
1/2-x,1/2+y,1/2-z
1/2-x,1/2-y,-z
1/2+x,1/2+y,1/2-z
1/2-x,1/2+y,z
1/2+x,1/2-y,1/2+z
loop_
_atom_site_type_symbol
_atom_site_label
_atom_site_fract_x
_atom_site_fract_y
_atom_site_fract_z
Si Si1 0.076454 0.886725 0.973209
Si Si2 0.846382 0.863398 0.665523
Si Si3 0.685899 0.253404 0.053574
Si Si4 0.723815 0.151796 0.666552
Si Si5 0.276980 0.039130 0.419118
O O1 0.087557 0.879825 0.884268
O O2 0.000000 0.859945 0.991692
O O3 0.122080 0.803111 0.014952
O O4 0.095387 0.000000 0.000000
O O5 0.858858 0.901001 0.750000
O O6 0.829040 0.743384 0.664357
O O7 0.787711 0.927865 0.627440
O O8 0.706322 0.318274 0.126266
O O9 0.670871 0.134271 0.075054
O O10 0.750000 0.250000 0.000000
O O11 0.742832 0.121349 0.750000
O O12 0.689131 0.054847 0.625380
O O13 0.253452 0.000000 0.500000
#
# Coordination Sequence:
#
# PCOD8256865 Si02
#       5
#    16  16  16  16  16
#     4  11  22  36  54  76 106 143 176 212 257 313
#     4  10  19  31  48  75 106 135 169 214 262 310
#     4  11  19  33  54  77 105 138 176 220 258 302
#     4  10  19  30  50  81 107 131 170 219 270 310
#     4  11  17  28  50  74 103 136 169 216 267 305
#
# _framework density 17.063704999999999
#
# number of rings (size 3 to 8) (size 9 to 14) (size 15 to 20)
#    0.000    1.400    6.000    2.400    0.000    1.200 
#    0.000    0.000    0.000    7.200    0.000    0.000 
#    0.000    0.000    0.000    0.000    0.000    0.000 
#
# Total GULP energy -495854.707179 kJ/mol
# GULP energy per Si atom -12396.367679 kJ/mol
# Density = 1.702487 g / cm^3
# Si number density = 17.063705 Si / 1000 Ang^3
#
#
#
# Elastic Constant Matrix: (Units=GPa)
#
#
# Indices 1 2 3 4 5 6 
#
# 1 71.2739 34.9746 36.5855 0.0000 0.0000 0.0000
# 2 34.9746 117.3862 61.3259 0.0000 0.0000 0.0000
# 3 36.5855 61.3259 153.8684 0.0000 0.0000 0.0000
# 4 0.0000 0.0000 0.0000 32.3095 0.0000 0.0000
# 5 0.0000 0.0000 0.0000 0.0000 15.7162 0.0000
# 6 0.0000 0.0000 0.0000 0.0000 0.0000 18.4825
#
#
#
# Elastic Compliance Matrix: (Units=1/GPa)
#
#
# Indices 1 2 3 4 5 6 
#
# 1 0.017212 -0.003776 -0.002587 0.000000 0.000000 0.000000
# 2 -0.003776 0.011588 -0.003720 0.000000 0.000000 0.000000
# 3 -0.002587 -0.003720 0.008597 0.000000 0.000000 0.000000
# 4 0.000000 0.000000 0.000000 0.030951 0.000000 0.000000
# 5 0.000000 0.000000 0.000000 0.000000 0.063629 0.000000
# 6 0.000000 0.000000 0.000000 0.000000 0.000000 0.054105
#
#
# Mechanical properties :
#
#
# Convention : Reuss Voigt Hill
#
# Bulk Modulus (GPa) = 58.04507 67.58894 62.81700
# Shear Modulus (GPa) = 23.58580 27.27781 25.43180
#
# Velocity S-wave (km/s) = 3.72186 4.00257 3.86476
# Velocity P-wave (km/s) = 7.24984 7.81387 7.53713
#
# Compressibility (1/GPa) = 0.01722799
#
# Stress axis : x y z
#
# Youngs Moduli (GPa) = 58.10043 86.29801 116.31841
#
# Poissons Ratio (x) = 0.32590 0.30095
# Poissons Ratio (y) = 0.21941 0.43276
# Poissons Ratio (z) = 0.15032 0.32107
#
# Static dielectric constant tensor:
#      x y z
#    x 2.703910 0.000000 0.000000 
#    y 0.000000 3.677350 0.000000 
#    z 0.000000 0.000000 3.674970 
# 
# 
# High freq. dielectric constant tensor:
#      x y z
#    x 1.591270 0.000000 0.000000 
#    y 0.000000 1.680830 0.000000 
#    z 0.000000 0.000000 1.676880 
# 
# From -- ./inp_files/46992.got.cif
#   From: 2010.03.12/outbox.cif.g09.slc.cpg/sg63_24_cif.got.tgz:46992.got - 2010.04.10 19:34:48.
