data_PCOD8256239
_publ_section_title
;
Structure prediction by ZEFSAII (Michael W. Deem and Ramdas Pophale) SiO2 
 PCOD8256239
Probable space group: C M C M
;
_chemical_formula_sum "Si O2"
_cell_formula_units_Z 128
_cell_length_a 19.208580
_cell_length_b 18.766219
_cell_length_c 19.884650
_cell_angle_alpha 90.000000
_cell_angle_beta 90.000000
_cell_angle_gamma 90.000000
_cell_volume 7167.867886
_symmetry_space_group_name_H-M "C M C M"
_symmetry_group_IT_number 63
_symmetry_cell_setting 'orthorhombic'
loop_
_space_group_symop_operation_xyz
x,y,z
-x,-y,1/2+z
x,-y,-z
-x,y,1/2-z
-x,-y,-z
x,y,1/2-z
-x,y,z
x,-y,1/2+z
1/2+x,1/2+y,z
1/2-x,1/2-y,1/2+z
1/2+x,1/2-y,-z
1/2-x,1/2+y,1/2-z
1/2-x,1/2-y,-z
1/2+x,1/2+y,1/2-z
1/2-x,1/2+y,z
1/2+x,1/2-y,1/2+z
loop_
_atom_site_type_symbol
_atom_site_label
_atom_site_fract_x
_atom_site_fract_y
_atom_site_fract_z
Si Si1 0.300925 0.672689 0.436501
Si Si2 0.136289 0.377864 0.677334
Si Si3 0.254135 0.412164 0.175082
Si Si4 0.284703 0.565209 0.175990
Si Si5 0.421172 0.728475 0.519070
Si Si6 0.187429 0.232385 0.869101
Si Si7 0.786610 0.427404 0.027939
Si Si8 0.425251 0.108335 0.037165
O O1 0.319626 0.615213 0.379164
O O2 0.377764 0.697582 0.456647
O O3 0.253916 0.739246 0.412100
O O4 0.258229 0.637962 0.498574
O O5 0.100932 0.392391 0.750000
O O6 0.201058 0.431008 0.666036
O O7 0.164807 0.296856 0.678843
O O8 0.082024 0.390907 0.618075
O O9 0.217255 0.416386 0.250000
O O10 0.305112 0.481420 0.168564
O O11 0.294645 0.337427 0.173985
O O12 0.205528 0.417889 0.108619
O O13 0.306239 0.593468 0.250000
O O14 0.500000 0.696628 0.521903
O O15 0.378256 0.709207 0.585807
O O16 0.424340 0.812367 0.508787
O O17 0.750092 0.500000 0.000000
O O18 0.864158 0.433429 0.998764
O O19 0.500000 0.072789 0.020757
#
# Coordination Sequence:
#
# PCOD8256239 Si02
#       8
#    16  16  16  16  16  16  16  16
#     4  11  18  34  56  78 102 140 180 224 259 317
#     4   9  16  30  49  72 104 139 176 215 267 324
#     4  11  21  31  51  81 108 132 174 225 274 323
#     4   9  18  32  50  76 105 131 168 223 274 312
#     4  10  19  31  51  78 108 138 174 221 268 311
#     4  10  18  31  52  77 106 139 177 220 271 316
#     4  12  20  34  56  80 104 144 182 223 268 312
#     4  10  20  33  48  75 110 143 177 219 267 315
#
# _framework density 17.857472000000001
#
# number of rings (size 3 to 8) (size 9 to 14) (size 15 to 20)
#    0.000    1.750    6.250    1.500    0.000    1.000 
#    0.000    0.000    0.000    5.250    0.000    3.500 
#    0.000    0.000    0.000    0.000    0.000    0.000 
#
# Total GULP energy -792844.516484 kJ/mol
# GULP energy per Si atom -12388.195570 kJ/mol
# Density = 1.781683 g / cm^3
# Si number density = 17.857472 Si / 1000 Ang^3
#
#
#
# Elastic Constant Matrix: (Units=GPa)
#
#
# Indices 1 2 3 4 5 6 
#
# 1 77.7660 16.9741 31.2252 0.0000 0.0000 0.0000
# 2 16.9741 76.0667 32.8642 0.0000 0.0000 0.0000
# 3 31.2252 32.8642 123.7329 0.0000 0.0000 0.0000
# 4 0.0000 0.0000 0.0000 21.5073 0.0000 0.0000
# 5 0.0000 0.0000 0.0000 0.0000 5.2721 0.0000
# 6 0.0000 0.0000 0.0000 0.0000 0.0000 7.9315
#
#
#
# Elastic Compliance Matrix: (Units=1/GPa)
#
#
# Indices 1 2 3 4 5 6 
#
# 1 0.014542 -0.001875 -0.003172 0.000000 0.000000 0.000000
# 2 -0.001875 0.015092 -0.003535 0.000000 0.000000 0.000000
# 3 -0.003172 -0.003535 0.009821 0.000000 0.000000 0.000000
# 4 0.000000 0.000000 0.000000 0.046496 0.000000 0.000000
# 5 0.000000 0.000000 0.000000 0.000000 0.189678 0.000000
# 6 0.000000 0.000000 0.000000 0.000000 0.000000 0.126079
#
#
# Mechanical properties :
#
#
# Convention : Reuss Voigt Hill
#
# Bulk Modulus (GPa) = 44.86013 48.85474 46.85743
# Shear Modulus (GPa) = 11.72876 20.04233 15.88555
#
# Velocity S-wave (km/s) = 2.56559 3.35378 2.98581
# Velocity P-wave (km/s) = 5.82684 6.51266 6.17927
#
# Compressibility (1/GPa) = 0.02229151
#
# Stress axis : x y z
#
# Youngs Moduli (GPa) = 68.76703 66.25960 101.81819
#
# Poissons Ratio (x) = 0.12421 0.32296
# Poissons Ratio (y) = 0.12891 0.35998
# Poissons Ratio (z) = 0.21812 0.23426
#
# Static dielectric constant tensor:
#      x y z
#    x 3.043890 0.000000 0.000000 
#    y 0.000000 3.430250 0.000000 
#    z 0.000000 0.000000 3.444620 
# 
# 
# High freq. dielectric constant tensor:
#      x y z
#    x 1.634910 0.000000 0.000000 
#    y 0.000000 1.701850 0.000000 
#    z 0.000000 0.000000 1.701200 
# 
# From -- ./inp_files/56949.got.cif
#   From: 2010.03.12/outbox.cif.g09.slc.cpg/sg63_29_cif.got.tgz:56949.got - 2010.04.10 19:34:48.
