data_PCOD8256629
_publ_section_title
;
Structure prediction by ZEFSAII (Michael W. Deem and Ramdas Pophale) SiO2 
 PCOD8256629
Probable space group: C M C M
;
_chemical_formula_sum "Si O2"
_cell_formula_units_Z 96
_cell_length_a 12.637807
_cell_length_b 24.381489
_cell_length_c 20.167730
_cell_angle_alpha 90.000000
_cell_angle_beta 90.000000
_cell_angle_gamma 90.000000
_cell_volume 6214.253449
_symmetry_space_group_name_H-M "C M C M"
_symmetry_group_IT_number 63
_symmetry_cell_setting 'orthorhombic'
loop_
_space_group_symop_operation_xyz
x,y,z
-x,-y,1/2+z
x,-y,-z
-x,y,1/2-z
-x,-y,-z
x,y,1/2-z
-x,y,z
x,-y,1/2+z
1/2+x,1/2+y,z
1/2-x,1/2-y,1/2+z
1/2+x,1/2-y,-z
1/2-x,1/2+y,1/2-z
1/2-x,1/2-y,-z
1/2+x,1/2+y,1/2-z
1/2-x,1/2+y,z
1/2+x,1/2-y,1/2+z
loop_
_atom_site_type_symbol
_atom_site_label
_atom_site_fract_x
_atom_site_fract_y
_atom_site_fract_z
Si Si1 0.375980 0.806487 0.529592
Si Si2 0.377384 0.385339 0.078386
Si Si3 0.251523 0.214127 0.901145
Si Si4 0.620842 0.295873 0.675706
Si Si5 0.800634 0.118682 0.430127
Si Si6 0.383179 0.505610 0.422155
O O1 0.500000 0.815261 0.537096
O O2 0.344810 0.798312 0.453268
O O3 0.339662 0.752616 0.568644
O O4 0.319532 0.860736 0.560019
O O5 0.500000 0.376760 0.095296
O O6 0.306348 0.342323 0.119746
O O7 0.340842 0.446282 0.102481
O O8 0.362328 0.375482 0.999645
O O9 0.305422 0.243086 0.838395
O O10 0.646465 0.316701 0.750000
O O11 0.500000 0.276936 0.669543
O O12 0.641309 0.344324 0.624029
O O13 0.803392 0.055460 0.404481
O O14 0.395695 0.500000 0.500000
O O15 0.500000 0.518441 0.392163
#
# Coordination Sequence:
#
# PCOD8256629 Si02
#       6
#    16  16  16  16  16  16
#     4   9  16  25  40  61  82 106 132 165 210 248
#     4   9  15  24  43  67  87 109 132 162 210 255
#     4   9  17  26  40  59  81 105 134 170 203 245
#     4  10  19  29  42  59  80 108 139 171 205 239
#     4   9  16  26  42  62  86 110 135 169 203 247
#     4   8  13  22  39  63  87 107 128 157 198 248
#
# _framework density 15.448356
#
# number of rings (size 3 to 8) (size 9 to 14) (size 15 to 20)
#    0.000    3.000    0.000    4.500    0.000    0.000 
#    0.000    0.000    0.000   27.000    0.000    2.333 
#    0.000    0.000    0.000    0.000    0.000    0.000 
#
# Total GULP energy -594814.761876 kJ/mol
# GULP energy per Si atom -12391.974206 kJ/mol
# Density = 1.541319 g / cm^3
# Si number density = 15.448356 Si / 1000 Ang^3
#
#
#
# Elastic Constant Matrix: (Units=GPa)
#
#
# Indices 1 2 3 4 5 6 
#
# 1 95.3492 53.4437 17.6561 0.0000 0.0000 0.0000
# 2 53.4437 134.9540 21.5177 0.0000 0.0000 0.0000
# 3 17.6561 21.5177 38.8705 0.0000 0.0000 0.0000
# 4 0.0000 0.0000 0.0000 9.2604 0.0000 0.0000
# 5 0.0000 0.0000 0.0000 0.0000 13.2837 0.0000
# 6 0.0000 0.0000 0.0000 0.0000 0.0000 22.7612
#
#
#
# Elastic Compliance Matrix: (Units=1/GPa)
#
#
# Indices 1 2 3 4 5 6 
#
# 1 0.013922 -0.004941 -0.003588 0.000000 0.000000 0.000000
# 2 -0.004941 0.009881 -0.003225 0.000000 0.000000 0.000000
# 3 -0.003588 -0.003225 0.029142 0.000000 0.000000 0.000000
# 4 0.000000 0.000000 0.000000 0.107986 0.000000 0.000000
# 5 0.000000 0.000000 0.000000 0.000000 0.075280 0.000000
# 6 0.000000 0.000000 0.000000 0.000000 0.000000 0.043934
#
#
# Mechanical properties :
#
#
# Convention : Reuss Voigt Hill
#
# Bulk Modulus (GPa) = 33.97346 50.48987 42.23167
# Shear Modulus (GPa) = 15.95065 20.83149 18.39107
#
# Velocity S-wave (km/s) = 3.21676 3.67612 3.45409
# Velocity P-wave (km/s) = 5.98633 7.12548 6.58060
#
# Compressibility (1/GPa) = 0.02943474
#
# Stress axis : x y z
#
# Youngs Moduli (GPa) = 71.83020 101.20495 34.31485
#
# Poissons Ratio (x) = 0.50006 0.12314
# Poissons Ratio (y) = 0.35492 0.11068
# Poissons Ratio (z) = 0.25776 0.32643
#
# Static dielectric constant tensor:
#      x y z
#    x 2.815830 0.000000 0.000000 
#    y 0.000000 3.426110 0.000000 
#    z 0.000000 0.000000 2.589700 
# 
# 
# High freq. dielectric constant tensor:
#      x y z
#    x 1.578140 0.000000 0.000000 
#    y 0.000000 1.600840 0.000000 
#    z 0.000000 0.000000 1.543430 
# 
# From -- ./inp_files/53268.got.cif
#   From: 2010.03.12/outbox.cif.g09.slc.cpg/sg63_27_cif.got.tgz:53268.got - 2010.04.10 19:34:48.
