data_PCOD8256559
_publ_section_title
;
Structure prediction by ZEFSAII (Michael W. Deem and Ramdas Pophale) SiO2 
 PCOD8256559
Probable space group: C M C M
;
_chemical_formula_sum "Si O2"
_cell_formula_units_Z 96
_cell_length_a 22.173596
_cell_length_b 12.221929
_cell_length_c 18.298685
_cell_angle_alpha 90.000000
_cell_angle_beta 90.000000
_cell_angle_gamma 90.000000
_cell_volume 4959.018952
_symmetry_space_group_name_H-M "C M C M"
_symmetry_group_IT_number 63
_symmetry_cell_setting 'orthorhombic'
loop_
_space_group_symop_operation_xyz
x,y,z
-x,-y,1/2+z
x,-y,-z
-x,y,1/2-z
-x,-y,-z
x,y,1/2-z
-x,y,z
x,-y,1/2+z
1/2+x,1/2+y,z
1/2-x,1/2-y,1/2+z
1/2+x,1/2-y,-z
1/2-x,1/2+y,1/2-z
1/2-x,1/2-y,-z
1/2+x,1/2+y,1/2-z
1/2-x,1/2+y,z
1/2+x,1/2-y,1/2+z
loop_
_atom_site_type_symbol
_atom_site_label
_atom_site_fract_x
_atom_site_fract_y
_atom_site_fract_z
Si Si1 0.124610 0.827664 0.669126
Si Si2 0.302882 0.252264 0.409769
Si Si3 0.303962 0.389311 0.540904
Si Si4 0.205276 0.385375 0.331948
Si Si5 0.379756 0.081578 0.163279
Si Si6 0.000000 0.498759 0.912345
Si Si7 0.000000 0.725208 0.666883
O O1 0.133603 0.879320 0.750000
O O2 0.149584 0.909966 0.607642
O O3 0.159064 0.713695 0.663427
O O4 0.055492 0.804850 0.652376
O O5 0.331434 0.298281 0.485047
O O6 0.258909 0.151730 0.426779
O O7 0.265954 0.355234 0.375885
O O8 0.354532 0.202755 0.357095
O O9 0.291090 0.500000 0.500000
O O10 0.226633 0.408657 0.250000
O O11 0.170042 0.491841 0.361647
O O12 0.392382 0.074470 0.250000
O O13 0.441197 0.062570 0.118869
O O14 0.000000 0.623980 0.887397
O O15 0.000000 0.500000 0.000000
O O16 0.000000 0.679105 0.750000
#
# Coordination Sequence:
#
# PCOD8256559 Si02
#       7
#    16  16  16  16  16   8   8
#     4   9  18  33  57  80 104 139 190 238 278 331
#     4  10  21  34  56  83 115 153 190 235 297 352
#     4  10  21  37  55  81 116 148 186 241 294 344
#     4   9  17  32  54  80 109 148 193 235 276 336
#     4  11  22  38  58  85 124 159 196 240 293 359
#     4  12  26  34  58  88 123 160 196 241 296 355
#     4  10  18  36  59  82 108 144 195 247 284 322
#
# _framework density 19.358668000000002
#
# number of rings (size 3 to 8) (size 9 to 14) (size 15 to 20)
#    0.000    2.000    1.667    2.250    2.333    2.667 
#    0.000    2.083    0.000    1.000    0.000    2.333 
#    0.000    0.000    0.000    0.000    0.000    0.000 
#
# Total GULP energy -595015.041287 kJ/mol
# GULP energy per Si atom -12396.146693 kJ/mol
# Density = 1.931461 g / cm^3
# Si number density = 19.358668 Si / 1000 Ang^3
#
#
#
# Elastic Constant Matrix: (Units=GPa)
#
#
# Indices 1 2 3 4 5 6 
#
# 1 93.7519 39.2101 66.9267 0.0000 0.0000 0.0000
# 2 39.2101 37.3674 32.3539 0.0000 0.0000 0.0000
# 3 66.9267 32.3539 127.4188 0.0000 0.0000 0.0000
# 4 0.0000 0.0000 0.0000 34.2695 0.0000 0.0000
# 5 0.0000 0.0000 0.0000 0.0000 25.3986 0.0000
# 6 0.0000 0.0000 0.0000 0.0000 0.0000 -10.1706
#
#
#
# Elastic Compliance Matrix: (Units=1/GPa)
#
#
# Indices 1 2 3 4 5 6 
#
# 1 0.023999 -0.018289 -0.007962 0.000000 0.000000 0.000000
# 2 -0.018289 0.048240 -0.002643 0.000000 0.000000 0.000000
# 3 -0.007962 -0.002643 0.012701 0.000000 0.000000 0.000000
# 4 0.000000 0.000000 0.000000 0.029180 0.000000 0.000000
# 5 0.000000 0.000000 0.000000 0.000000 0.039372 0.000000
# 6 0.000000 0.000000 0.000000 0.000000 0.000000 -0.098323
#
#
# Mechanical properties :
#
#
# Convention : Reuss Voigt Hill
#
# Bulk Modulus (GPa) = 36.82752 59.50215 48.16484
# Shear Modulus (GPa) = 40.98078 17.90266 29.44172
#
# Velocity S-wave (km/s) = 4.60599 3.04433 3.90404
# Velocity P-wave (km/s) = 6.88128 6.56968 6.72728
#
# Compressibility (1/GPa) = 0.02715360
#
# Stress axis : x y z
#
# Youngs Moduli (GPa) = 41.66829 20.72951 78.73403
#
# Poissons Ratio (x) = 0.37912 0.62685
# Poissons Ratio (y) = 0.76208 0.20807
# Poissons Ratio (z) = 0.33174 0.05478
#
# Static dielectric constant tensor:
#      x y z
#    x 3.474050 0.000000 0.000000 
#    y 0.000000 3.242730 0.000000 
#    z 0.000000 0.000000 3.950600 
# 
# 
# High freq. dielectric constant tensor:
#      x y z
#    x 1.736090 0.000000 0.000000 
#    y 0.000000 1.729940 0.000000 
#    z 0.000000 0.000000 1.769460 
# 
# From -- ./inp_files/48086.got.cif
#   From: 2010.03.12/outbox.cif.g09.slc.cpg/sg63_25_cif.got.tgz:48086.got - 2010.04.10 19:34:48.
