data_PCOD8256553
_publ_section_title
;
Structure prediction by ZEFSAII (Michael W. Deem and Ramdas Pophale) SiO2 
 PCOD8256553
Probable space group: C M C M
;
_chemical_formula_sum "Si O2"
_cell_formula_units_Z 96
_cell_length_a 10.770815
_cell_length_b 19.394970
_cell_length_c 26.027400
_cell_angle_alpha 90.000000
_cell_angle_beta 90.000000
_cell_angle_gamma 90.000000
_cell_volume 5437.114329
_symmetry_space_group_name_H-M "C M C M"
_symmetry_group_IT_number 63
_symmetry_cell_setting 'orthorhombic'
loop_
_space_group_symop_operation_xyz
x,y,z
-x,-y,1/2+z
x,-y,-z
-x,y,1/2-z
-x,-y,-z
x,y,1/2-z
-x,y,z
x,-y,1/2+z
1/2+x,1/2+y,z
1/2-x,1/2-y,1/2+z
1/2+x,1/2-y,-z
1/2-x,1/2+y,1/2-z
1/2-x,1/2-y,-z
1/2+x,1/2+y,1/2-z
1/2-x,1/2+y,z
1/2+x,1/2-y,1/2+z
loop_
_atom_site_type_symbol
_atom_site_label
_atom_site_fract_x
_atom_site_fract_y
_atom_site_fract_z
Si Si1 0.254591 0.913806 0.639311
Si Si2 0.000000 0.587664 0.886959
Si Si3 0.749088 0.287282 0.928608
Si Si4 0.000000 0.467746 0.809969
Si Si5 0.230918 0.530630 0.555914
Si Si6 0.500000 0.243130 0.880857
Si Si7 0.500000 0.371099 0.689130
Si Si8 0.861510 0.838810 0.027879
O O1 0.291215 0.840454 0.614850
O O2 0.372817 0.928855 0.675067
O O3 0.124800 0.910190 0.670315
O O4 0.232556 0.969964 0.594897
O O5 0.115333 0.573415 0.923501
O O6 0.000000 0.541381 0.836570
O O7 0.000000 0.663998 0.863322
O O8 0.616364 0.255505 0.916842
O O9 0.846505 0.224128 0.931481
O O10 0.739068 0.327850 0.982688
O O11 0.000000 0.479646 0.750000
O O12 0.200798 0.500000 0.500000
O O13 0.341814 0.586283 0.553406
O O14 0.500000 0.292672 0.831243
O O15 0.500000 0.369349 0.750000
O O16 0.000000 0.838010 0.005517
#
# Coordination Sequence:
#
# PCOD8256553 Si02
#       8
#    16   8  16   8  16   8   8  16
#     4  10  22  37  60  84 110 148 185 231 283 333
#     4  10  21  37  54  82 110 147 181 227 278 339
#     4  10  20  36  50  80 111 147 183 222 262 329
#     4  10  22  40  61  83 107 138 189 245 290 331
#     4  11  21  35  53  81 117 152 184 219 266 331
#     4  10  18  36  57  74 108 136 183 229 279 326
#     4  10  22  39  61  84 106 138 188 244 296 336
#     4  11  22  32  52  77 115 154 186 215 265 316
#
# _framework density 17.656424999999999
#
# number of rings (size 3 to 8) (size 9 to 14) (size 15 to 20)
#    0.000    1.667    4.167    0.750    2.333    0.667 
#    0.000    0.000    0.000    0.000    0.000    1.167 
#    0.000    0.000    0.000    0.000    0.000    0.000 
#
# Total GULP energy -595091.926781 kJ/mol
# GULP energy per Si atom -12397.748475 kJ/mol
# Density = 1.761624 g / cm^3
# Si number density = 17.656425 Si / 1000 Ang^3
#
#
#
# Elastic Constant Matrix: (Units=GPa)
#
#
# Indices 1 2 3 4 5 6 
#
# 1 97.9879 43.8949 41.6420 0.0000 0.0000 0.0000
# 2 43.8949 113.5984 46.2955 0.0000 0.0000 0.0000
# 3 41.6420 46.2955 111.7657 0.0000 0.0000 0.0000
# 4 0.0000 0.0000 0.0000 11.9630 0.0000 0.0000
# 5 0.0000 0.0000 0.0000 0.0000 20.6374 0.0000
# 6 0.0000 0.0000 0.0000 0.0000 0.0000 27.7642
#
#
#
# Elastic Compliance Matrix: (Units=1/GPa)
#
#
# Indices 1 2 3 4 5 6 
#
# 1 0.013342 -0.003765 -0.003411 0.000000 0.000000 0.000000
# 2 -0.003765 0.011653 -0.003424 0.000000 0.000000 0.000000
# 3 -0.003411 -0.003424 0.011637 0.000000 0.000000 0.000000
# 4 0.000000 0.000000 0.000000 0.083591 0.000000 0.000000
# 5 0.000000 0.000000 0.000000 0.000000 0.048456 0.000000
# 6 0.000000 0.000000 0.000000 0.000000 0.000000 0.036018
#
#
# Mechanical properties :
#
#
# Convention : Reuss Voigt Hill
#
# Bulk Modulus (GPa) = 64.80701 65.22410 65.01556
# Shear Modulus (GPa) = 21.64121 24.84089 23.24105
#
# Velocity S-wave (km/s) = 3.50478 3.75494 3.63201
# Velocity P-wave (km/s) = 7.29124 7.47130 7.38182
#
# Compressibility (1/GPa) = 0.01543043
#
# Stress axis : x y z
#
# Youngs Moduli (GPa) = 74.95326 85.81289 85.93523
#
# Poissons Ratio (x) = 0.32309 0.29315
# Poissons Ratio (y) = 0.28220 0.29426
# Poissons Ratio (z) = 0.25569 0.29384
#
# Static dielectric constant tensor:
#      x y z
#    x 3.268090 0.000000 0.000000 
#    y 0.000000 3.469470 0.000000 
#    z 0.000000 0.000000 3.058920 
# 
# 
# High freq. dielectric constant tensor:
#      x y z
#    x 1.685520 0.000000 0.000000 
#    y 0.000000 1.696370 0.000000 
#    z 0.000000 0.000000 1.662790 
# 
# From -- ./inp_files/68392.got.cif
#   From: 2010.03.12/outbox.cif.g09.slc.cpg/sg63_35_cif.got.tgz:68392.got - 2010.04.10 19:34:48.
