data_PCOD8256065
_publ_section_title
;
Structure prediction by ZEFSAII (Michael W. Deem and Ramdas Pophale) SiO2 
 PCOD8256065
Probable space group: C M C M
;
_chemical_formula_sum "Si O2"
_cell_formula_units_Z 96
_cell_length_a 10.367300
_cell_length_b 19.521666
_cell_length_c 25.854142
_cell_angle_alpha 90.000000
_cell_angle_beta 90.000000
_cell_angle_gamma 90.000000
_cell_volume 5232.541408
_symmetry_space_group_name_H-M "C M C M"
_symmetry_group_IT_number 63
_symmetry_cell_setting 'orthorhombic'
loop_
_space_group_symop_operation_xyz
x,y,z
-x,-y,1/2+z
x,-y,-z
-x,y,1/2-z
-x,-y,-z
x,y,1/2-z
-x,y,z
x,-y,1/2+z
1/2+x,1/2+y,z
1/2-x,1/2-y,1/2+z
1/2+x,1/2-y,-z
1/2-x,1/2+y,1/2-z
1/2-x,1/2-y,-z
1/2+x,1/2+y,1/2-z
1/2-x,1/2+y,z
1/2+x,1/2-y,1/2+z
loop_
_atom_site_type_symbol
_atom_site_label
_atom_site_fract_x
_atom_site_fract_y
_atom_site_fract_z
Si Si1 0.351147 0.327404 0.808830
Si Si2 0.267790 0.076384 0.007810
Si Si3 0.860292 0.284787 0.966867
Si Si4 0.648323 0.557434 0.384949
Si Si5 0.351334 0.732991 0.646275
Si Si6 0.151062 0.089997 0.898478
O O1 0.345983 0.353497 0.750000
O O2 0.500000 0.307245 0.823455
O O3 0.291690 0.386954 0.845696
O O4 0.254296 0.262690 0.814027
O O5 0.203235 0.104079 0.955727
O O6 0.372458 0.133475 0.023127
O O7 0.164710 0.075498 0.054592
O O8 0.328187 0.000000 0.000000
O O9 0.831035 0.272913 0.907088
O O10 0.000000 0.252549 0.981180
O O11 0.750000 0.250000 0.000000
O O12 0.500000 0.556463 0.370563
O O13 0.708110 0.481211 0.375031
O O14 0.500000 0.741052 0.666040
O O15 0.315539 0.652919 0.639053
O O16 0.000000 0.081654 0.905427
#
# Coordination Sequence:
#
# PCOD8256065 Si02
#       6
#    16  16  16  16  16  16
#     4  10  21  37  57  79 101 129 172 224 272 318
#     4  10  18  30  49  75 109 146 176 208 255 309
#     4  11  22  34  50  76 111 147 179 212 251 306
#     4   9  17  30  51  77 106 139 173 213 261 308
#     4  10  20  35  54  77 107 139 175 217 261 310
#     4   9  17  30  49  78 111 139 173 211 251 310
#
# _framework density 18.346726
#
# number of rings (size 3 to 8) (size 9 to 14) (size 15 to 20)
#    0.000    2.167    3.333    0.500    0.000    4.000 
#    0.000    0.833    0.000    4.000    0.000    0.000 
#    0.000    0.000    0.000    0.000    0.000    0.000 
#
# Total GULP energy -594718.893852 kJ/mol
# GULP energy per Si atom -12389.976955 kJ/mol
# Density = 1.830497 g / cm^3
# Si number density = 18.346726 Si / 1000 Ang^3
#
#
#
# Elastic Constant Matrix: (Units=GPa)
#
#
# Indices 1 2 3 4 5 6 
#
# 1 64.7667 35.0326 26.5728 0.0000 0.0000 0.0000
# 2 35.0326 96.1608 24.5596 0.0000 0.0000 0.0000
# 3 26.5728 24.5596 54.5386 0.0000 0.0000 0.0000
# 4 0.0000 0.0000 0.0000 21.0889 0.0000 0.0000
# 5 0.0000 0.0000 0.0000 0.0000 22.7304 0.0000
# 6 0.0000 0.0000 0.0000 0.0000 0.0000 23.1550
#
#
#
# Elastic Compliance Matrix: (Units=1/GPa)
#
#
# Indices 1 2 3 4 5 6 
#
# 1 0.021945 -0.005948 -0.008014 0.000000 0.000000 0.000000
# 2 -0.005948 0.013363 -0.003119 0.000000 0.000000 0.000000
# 3 -0.008014 -0.003119 0.023645 0.000000 0.000000 0.000000
# 4 0.000000 0.000000 0.000000 0.047418 0.000000 0.000000
# 5 0.000000 0.000000 0.000000 0.000000 0.043994 0.000000
# 6 0.000000 0.000000 0.000000 0.000000 0.000000 0.043187
#
#
# Mechanical properties :
#
#
# Convention : Reuss Voigt Hill
#
# Bulk Modulus (GPa) = 40.33830 43.08843 41.71337
# Shear Modulus (GPa) = 21.18829 22.01492 21.60161
#
# Velocity S-wave (km/s) = 3.40204 3.46777 3.43506
# Velocity P-wave (km/s) = 6.12097 6.29051 6.20632
#
# Compressibility (1/GPa) = 0.02479034
#
# Stress axis : x y z
#
# Youngs Moduli (GPa) = 45.56758 74.83367 42.29230
#
# Poissons Ratio (x) = 0.44513 0.33893
# Poissons Ratio (y) = 0.27105 0.13193
# Poissons Ratio (z) = 0.36517 0.23344
#
# Static dielectric constant tensor:
#      x y z
#    x 3.149490 0.000000 0.000000 
#    y 0.000000 3.920650 0.000000 
#    z 0.000000 0.000000 3.137420 
# 
# 
# High freq. dielectric constant tensor:
#      x y z
#    x 1.684590 0.000000 0.000000 
#    y 0.000000 1.727890 0.000000 
#    z 0.000000 0.000000 1.685980 
# 
# From -- ./inp_files/61492.got.cif
#   From: 2010.03.12/outbox.cif.g09.slc.cpg/sg63_31_cif.got.tgz:61492.got - 2010.04.10 19:34:48.
