data_PCOD8256350
_publ_section_title
;
Structure prediction by ZEFSAII (Michael W. Deem and Ramdas Pophale) SiO2 
 PCOD8256350
Probable space group: C M C M
;
_chemical_formula_sum "Si O2"
_cell_formula_units_Z 128
_cell_length_a 25.063046
_cell_length_b 12.218640
_cell_length_c 23.355014
_cell_angle_alpha 90.000000
_cell_angle_beta 90.000000
_cell_angle_gamma 90.000000
_cell_volume 7152.153923
_symmetry_space_group_name_H-M "C M C M"
_symmetry_group_IT_number 63
_symmetry_cell_setting 'orthorhombic'
loop_
_space_group_symop_operation_xyz
x,y,z
-x,-y,1/2+z
x,-y,-z
-x,y,1/2-z
-x,-y,-z
x,y,1/2-z
-x,y,z
x,-y,1/2+z
1/2+x,1/2+y,z
1/2-x,1/2-y,1/2+z
1/2+x,1/2-y,-z
1/2-x,1/2+y,1/2-z
1/2-x,1/2-y,-z
1/2+x,1/2+y,1/2-z
1/2-x,1/2+y,z
1/2+x,1/2-y,1/2+z
loop_
_atom_site_type_symbol
_atom_site_label
_atom_site_fract_x
_atom_site_fract_y
_atom_site_fract_z
Si Si1 0.663392 0.125320 0.003830
Si Si2 0.799302 0.630682 0.126941
Si Si3 0.783601 0.596296 0.818919
Si Si4 0.940374 0.123699 0.619632
Si Si5 0.311461 0.723185 0.098091
Si Si6 0.832806 0.161484 0.684721
Si Si7 0.401431 0.572179 0.448580
Si Si8 0.057708 0.269266 0.513721
O O1 0.669833 0.161239 0.069078
O O2 0.600486 0.141781 0.991987
O O3 0.695973 0.201604 0.959256
O O4 0.681874 0.000000 0.000000
O O5 0.809120 0.511055 0.152772
O O6 0.738222 0.646272 0.110385
O O7 0.822412 0.710358 0.175292
O O8 0.790192 0.599029 0.750000
O O9 0.817252 0.696806 0.846691
O O10 0.721014 0.600799 0.838283
O O11 0.889282 0.121988 0.660678
O O12 0.933352 0.228606 0.578634
O O13 0.000000 0.130676 0.648768
O O14 0.938390 0.007535 0.587986
O O15 0.358856 0.636363 0.090743
O O16 0.837589 0.133531 0.750000
O O17 0.373532 0.500000 0.500000
O O18 0.440740 0.661519 0.474793
O O19 0.000000 0.325197 0.506918
#
# Coordination Sequence:
#
# PCOD8256350 Si02
#       8
#    16  16  16  16  16  16  16  16
#     4  11  20  33  51  77 107 135 168 216 262 314
#     4  11  20  35  52  74 106 139 173 209 262 314
#     4  10  21  37  56  76 103 141 182 218 258 310
#     4  10  18  32  53  76 104 134 170 216 259 306
#     4  10  21  34  52  79 109 139 171 215 264 313
#     4  10  21  35  52  75 102 135 176 218 255 307
#     4   9  18  32  52  78 107 139 171 206 260 326
#     4   9  18  32  50  74 104 137 171 208 258 314
#
# _framework density 17.896708
#
# number of rings (size 3 to 8) (size 9 to 14) (size 15 to 20)
#    0.000    2.000    2.500    1.875    0.000    3.000 
#    0.000    0.625    0.000    0.000    0.000    0.000 
#    0.000    9.500    0.000    0.000    0.000    0.000 
#
# Total GULP energy -792854.957341 kJ/mol
# GULP energy per Si atom -12388.358708 kJ/mol
# Density = 1.785597 g / cm^3
# Si number density = 17.896708 Si / 1000 Ang^3
#
#
#
# Elastic Constant Matrix: (Units=GPa)
#
#
# Indices 1 2 3 4 5 6 
#
# 1 43.0345 12.4976 22.3977 0.0000 0.0000 0.0000
# 2 12.4976 56.5987 13.6240 0.0000 0.0000 0.0000
# 3 22.3977 13.6240 64.9579 0.0000 0.0000 0.0000
# 4 0.0000 0.0000 0.0000 19.7799 0.0000 0.0000
# 5 0.0000 0.0000 0.0000 0.0000 20.2113 0.0000
# 6 0.0000 0.0000 0.0000 0.0000 0.0000 19.2083
#
#
#
# Elastic Compliance Matrix: (Units=1/GPa)
#
#
# Indices 1 2 3 4 5 6 
#
# 1 0.029257 -0.004246 -0.009197 0.000000 0.000000 0.000000
# 2 -0.004246 0.019224 -0.002568 0.000000 0.000000 0.000000
# 3 -0.009197 -0.002568 0.019104 0.000000 0.000000 0.000000
# 4 0.000000 0.000000 0.000000 0.050556 0.000000 0.000000
# 5 0.000000 0.000000 0.000000 0.000000 0.049477 0.000000
# 6 0.000000 0.000000 0.000000 0.000000 0.000000 0.052061
#
#
# Mechanical properties :
#
#
# Convention : Reuss Voigt Hill
#
# Bulk Modulus (GPa) = 28.11947 29.06997 28.59472
# Shear Modulus (GPa) = 18.97119 19.57801 19.27460
#
# Velocity S-wave (km/s) = 3.25935 3.31107 3.28532
# Velocity P-wave (km/s) = 5.46907 5.55842 5.51393
#
# Compressibility (1/GPa) = 0.03556255
#
# Stress axis : x y z
#
# Youngs Moduli (GPa) = 34.17956 52.01835 52.34384
#
# Poissons Ratio (x) = 0.22089 0.48143
# Poissons Ratio (y) = 0.14514 0.13441
# Poissons Ratio (z) = 0.31436 0.13357
#
# Static dielectric constant tensor:
#      x y z
#    x 3.270390 0.000000 0.000000 
#    y 0.000000 3.230220 0.000000 
#    z 0.000000 0.000000 3.246820 
# 
# 
# High freq. dielectric constant tensor:
#      x y z
#    x 1.682040 0.000000 0.000000 
#    y 0.000000 1.693150 0.000000 
#    z 0.000000 0.000000 1.678360 
# 
# From -- ./inp_files/65574.got.cif
#   From: 2010.03.12/outbox.cif.g09.slc.cpg/sg63_33_cif.got.tgz:65574.got - 2010.04.10 19:34:48.
