data_PCOD8256842
_publ_section_title
;
Structure prediction by ZEFSAII (Michael W. Deem and Ramdas Pophale) SiO2 
 PCOD8256842
Probable space group: C M C M
;
_chemical_formula_sum "Si O2"
_cell_formula_units_Z 112
_cell_length_a 18.650845
_cell_length_b 19.009327
_cell_length_c 17.889939
_cell_angle_alpha 90.000000
_cell_angle_beta 90.000000
_cell_angle_gamma 90.000000
_cell_volume 6342.699178
_symmetry_space_group_name_H-M "C M C M"
_symmetry_group_IT_number 63
_symmetry_cell_setting 'orthorhombic'
loop_
_space_group_symop_operation_xyz
x,y,z
-x,-y,1/2+z
x,-y,-z
-x,y,1/2-z
-x,-y,-z
x,y,1/2-z
-x,y,z
x,-y,1/2+z
1/2+x,1/2+y,z
1/2-x,1/2-y,1/2+z
1/2+x,1/2-y,-z
1/2-x,1/2+y,1/2-z
1/2-x,1/2-y,-z
1/2+x,1/2+y,1/2-z
1/2-x,1/2+y,z
1/2+x,1/2-y,1/2+z
loop_
_atom_site_type_symbol
_atom_site_label
_atom_site_fract_x
_atom_site_fract_y
_atom_site_fract_z
Si Si1 0.329256 0.933599 0.054157
Si Si2 0.421020 0.009631 0.164599
Si Si3 0.083802 0.954136 0.663907
Si Si4 0.166594 0.056090 0.934779
Si Si5 0.417418 0.348144 0.535742
Si Si6 0.415869 0.834655 0.669500
Si Si7 0.083354 0.695445 0.008448
O O1 0.372668 0.949839 0.128511
O O2 0.247840 0.920163 0.079688
O O3 0.362431 0.864461 0.017251
O O4 0.336218 0.000000 0.000000
O O5 0.427121 0.988362 0.250000
O O6 0.500000 0.008242 0.126998
O O7 0.384972 0.086769 0.154911
O O8 0.102073 0.936413 0.750000
O O9 0.105231 0.886080 0.613491
O O10 0.000000 0.972345 0.653970
O O11 0.129996 0.022196 0.638821
O O12 0.124001 0.124110 0.962976
O O13 0.161663 0.000000 0.000000
O O14 0.500000 0.362948 0.519183
O O15 0.402040 0.264758 0.541099
O O16 0.385478 0.804776 0.750000
O O17 0.500000 0.844027 0.679899
O O18 0.398732 0.787541 0.596510
O O19 0.000000 0.671456 0.000691
#
# Coordination Sequence:
#
# PCOD8256842 Si02
#       7
#    16  16  16  16  16  16  16
#     4  11  20  30  47  73 101 135 174 210 252 299
#     4   9  17  29  45  65  92 129 171 216 257 286
#     4   9  17  33  59  82  97 122 164 215 264 311
#     4   9  19  33  50  74 100 127 162 203 258 313
#     4   9  18  34  53  75 103 133 167 211 262 312
#     4   8  14  26  44  66  93 127 169 214 253 287
#     4  10  19  30  49  74 102 141 180 214 255 301
#
# _framework density 17.658097000000001
#
# number of rings (size 3 to 8) (size 9 to 14) (size 15 to 20)
#    0.000    2.714    1.429    1.714    0.000    3.429 
#    0.000    1.429    0.000    5.143    0.000    0.000 
#    0.000    0.000    0.000    0.000    0.000    0.000 
#
# Total GULP energy -693945.360285 kJ/mol
# GULP energy per Si atom -12391.881434 kJ/mol
# Density = 1.761791 g / cm^3
# Si number density = 17.658097 Si / 1000 Ang^3
#
#
#
# Elastic Constant Matrix: (Units=GPa)
#
#
# Indices 1 2 3 4 5 6 
#
# 1 81.8345 46.0692 41.5934 0.0000 0.0000 0.0000
# 2 46.0692 81.1862 46.1297 0.0000 0.0000 0.0000
# 3 41.5934 46.1297 101.8243 0.0000 0.0000 0.0000
# 4 0.0000 0.0000 0.0000 23.4613 0.0000 0.0000
# 5 0.0000 0.0000 0.0000 0.0000 9.9298 0.0000
# 6 0.0000 0.0000 0.0000 0.0000 0.0000 17.2315
#
#
#
# Elastic Compliance Matrix: (Units=1/GPa)
#
#
# Indices 1 2 3 4 5 6 
#
# 1 0.019030 -0.008594 -0.003880 0.000000 0.000000 0.000000
# 2 -0.008594 0.020468 -0.005762 0.000000 0.000000 0.000000
# 3 -0.003880 -0.005762 0.014016 0.000000 0.000000 0.000000
# 4 0.000000 0.000000 0.000000 0.042623 0.000000 0.000000
# 5 0.000000 0.000000 0.000000 0.000000 0.100707 0.000000
# 6 0.000000 0.000000 0.000000 0.000000 0.000000 0.058033
#
#
# Mechanical properties :
#
#
# Convention : Reuss Voigt Hill
#
# Bulk Modulus (GPa) = 58.67918 59.15882 58.91900
# Shear Modulus (GPa) = 16.83329 18.86137 17.84733
#
# Velocity S-wave (km/s) = 3.09089 3.27179 3.18263
# Velocity P-wave (km/s) = 6.78535 6.91722 6.85160
#
# Compressibility (1/GPa) = 0.01704182
#
# Stress axis : x y z
#
# Youngs Moduli (GPa) = 52.54907 48.85662 71.34573
#
# Poissons Ratio (x) = 0.41987 0.27682
# Poissons Ratio (y) = 0.45160 0.41111
# Poissons Ratio (z) = 0.20389 0.28152
#
# Static dielectric constant tensor:
#      x y z
#    x 3.215510 0.000000 0.000000 
#    y 0.000000 3.106150 0.000000 
#    z 0.000000 0.000000 3.348220 
# 
# 
# High freq. dielectric constant tensor:
#      x y z
#    x 1.665310 0.000000 0.000000 
#    y 0.000000 1.658880 0.000000 
#    z 0.000000 0.000000 1.679870 
# 
# From -- ./inp_files/46127.got.cif
#   From: 2010.03.12/outbox.cif.g09.slc.cpg/sg63_24_cif.got.tgz:46127.got - 2010.04.10 19:34:48.
