data_PCOD8256358
_publ_section_title
;
Structure prediction by ZEFSAII (Michael W. Deem and Ramdas Pophale) SiO2 
 PCOD8256358
Probable space group: C M C M
;
_chemical_formula_sum "Si O2"
_cell_formula_units_Z 80
_cell_length_a 28.221806
_cell_length_b 17.513447
_cell_length_c 8.572254
_cell_angle_alpha 90.000000
_cell_angle_beta 90.000000
_cell_angle_gamma 90.000000
_cell_volume 4236.931723
_symmetry_space_group_name_H-M "C M C M"
_symmetry_group_IT_number 63
_symmetry_cell_setting 'orthorhombic'
loop_
_space_group_symop_operation_xyz
x,y,z
-x,-y,1/2+z
x,-y,-z
-x,y,1/2-z
-x,-y,-z
x,y,1/2-z
-x,y,z
x,-y,1/2+z
1/2+x,1/2+y,z
1/2-x,1/2-y,1/2+z
1/2+x,1/2-y,-z
1/2-x,1/2+y,1/2-z
1/2-x,1/2-y,-z
1/2+x,1/2+y,1/2-z
1/2-x,1/2+y,z
1/2+x,1/2-y,1/2+z
loop_
_atom_site_type_symbol
_atom_site_label
_atom_site_fract_x
_atom_site_fract_y
_atom_site_fract_z
Si Si1 0.055720 0.575779 0.423056
Si Si2 0.711817 0.418104 0.565867
Si Si3 0.215298 0.686024 0.935187
Si Si4 0.553816 0.235043 0.567936
Si Si5 0.144389 0.790587 0.067523
O O1 0.078701 0.500000 0.500000
O O2 0.077355 0.588390 0.250000
O O3 0.067410 0.647833 0.530861
O O4 0.000000 0.563604 0.408632
O O5 0.697291 0.500000 0.500000
O O6 0.716482 0.420982 0.750000
O O7 0.763133 0.394275 0.493924
O O8 0.670315 0.359671 0.519727
O O9 0.212394 0.687187 0.750000
O O10 0.250000 0.750000 0.000000
O O11 0.164273 0.707998 0.007764
O O12 0.560385 0.249516 0.750000
O O13 0.500000 0.252826 0.514393
O O14 0.588585 0.291785 0.473797
O O15 0.152915 0.800563 0.250000
#
# Coordination Sequence:
#
# PCOD8256358 Si02
#       5
#    16  16  16  16  16
#     4   9  16  27  44  66  92 124 163 208 257 307
#     4  11  21  36  57  83 112 142 177 217 265 320
#     4  10  18  32  53  78 106 137 171 209 257 311
#     4  10  20  34  52  75 104 141 185 230 273 318
#     4  11  21  35  55  80 109 143 181 221 267 317
#
# _framework density 18.881588000000001
#
# number of rings (size 3 to 8) (size 9 to 14) (size 15 to 20)
#    0.000    1.800    0.000    9.000    0.000    3.600 
#    0.000    1.000    0.000    0.600    0.000    0.000 
#    0.000    0.000    0.000    0.000    0.000    0.000 
#
# Total GULP energy -495898.558514 kJ/mol
# GULP energy per Si atom -12397.463963 kJ/mol
# Density = 1.883861 g / cm^3
# Si number density = 18.881588 Si / 1000 Ang^3
#
#
#
# Elastic Constant Matrix: (Units=GPa)
#
#
# Indices 1 2 3 4 5 6 
#
# 1 85.5291 34.0476 28.0746 0.0000 0.0000 0.0000
# 2 34.0476 76.6056 18.4303 0.0000 0.0000 0.0000
# 3 28.0746 18.4303 130.0846 0.0000 0.0000 0.0000
# 4 0.0000 0.0000 0.0000 31.8464 0.0000 0.0000
# 5 0.0000 0.0000 0.0000 0.0000 28.1822 0.0000
# 6 0.0000 0.0000 0.0000 0.0000 0.0000 14.9206
#
#
#
# Elastic Compliance Matrix: (Units=1/GPa)
#
#
# Indices 1 2 3 4 5 6 
#
# 1 0.014870 -0.006043 -0.002353 0.000000 0.000000 0.000000
# 2 -0.006043 0.015970 -0.000959 0.000000 0.000000 0.000000
# 3 -0.002353 -0.000959 0.008331 0.000000 0.000000 0.000000
# 4 0.000000 0.000000 0.000000 0.031401 0.000000 0.000000
# 5 0.000000 0.000000 0.000000 0.000000 0.035483 0.000000
# 6 0.000000 0.000000 0.000000 0.000000 0.000000 0.067022
#
#
# Mechanical properties :
#
#
# Convention : Reuss Voigt Hill
#
# Bulk Modulus (GPa) = 48.87045 50.36938 49.61992
# Shear Modulus (GPa) = 25.17544 29.10096 27.13820
#
# Velocity S-wave (km/s) = 3.65544 3.93012 3.79527
# Velocity P-wave (km/s) = 6.61477 6.87959 6.74848
#
# Compressibility (1/GPa) = 0.02046226
#
# Stress axis : x y z
#
# Youngs Moduli (GPa) = 67.25017 62.61641 120.03459
#
# Poissons Ratio (x) = 0.37838 0.28245
# Poissons Ratio (y) = 0.40638 0.11505
# Poissons Ratio (z) = 0.15824 0.06002
#
# Static dielectric constant tensor:
#      x y z
#    x 3.640660 0.000000 0.000000 
#    y 0.000000 3.383950 0.000000 
#    z 0.000000 0.000000 3.622160 
# 
# 
# High freq. dielectric constant tensor:
#      x y z
#    x 1.716780 0.000000 0.000000 
#    y 0.000000 1.706950 0.000000 
#    z 0.000000 0.000000 1.755440 
# 
# From -- ./inp_files/12040.got.cif
#   From: 2010.03.12/outbox.cif.g09.slc.cpg/sg63_7_cif.got.tgz:12040.got - 2010.04.10 19:34:48.
