data_PCOD8256428
_publ_section_title
;
Structure prediction by ZEFSAII (Michael W. Deem and Ramdas Pophale) SiO2 
 PCOD8256428
Probable space group: C M C M
;
_chemical_formula_sum "Si O2"
_cell_formula_units_Z 96
_cell_length_a 20.173349
_cell_length_b 14.365640
_cell_length_c 17.302878
_cell_angle_alpha 90.000000
_cell_angle_beta 90.000000
_cell_angle_gamma 90.000000
_cell_volume 5014.427153
_symmetry_space_group_name_H-M "C M C M"
_symmetry_group_IT_number 63
_symmetry_cell_setting 'orthorhombic'
loop_
_space_group_symop_operation_xyz
x,y,z
-x,-y,1/2+z
x,-y,-z
-x,y,1/2-z
-x,-y,-z
x,y,1/2-z
-x,y,z
x,-y,1/2+z
1/2+x,1/2+y,z
1/2-x,1/2-y,1/2+z
1/2+x,1/2-y,-z
1/2-x,1/2+y,1/2-z
1/2-x,1/2-y,-z
1/2+x,1/2+y,1/2-z
1/2-x,1/2+y,z
1/2+x,1/2-y,1/2+z
loop_
_atom_site_type_symbol
_atom_site_label
_atom_site_fract_x
_atom_site_fract_y
_atom_site_fract_z
Si Si1 0.864843 0.376116 0.660874
Si Si2 0.074773 0.180401 0.661192
Si Si3 0.798395 0.904864 0.096172
Si Si4 0.317514 0.789576 0.160578
Si Si5 0.426449 0.931904 0.341890
Si Si6 0.772034 0.113897 0.082283
O O1 0.842018 0.387941 0.750000
O O2 0.914819 0.290625 0.651229
O O3 0.901619 0.467686 0.629342
O O4 0.801358 0.357299 0.608021
O O5 0.086135 0.151365 0.750000
O O6 0.125069 0.122164 0.608146
O O7 0.000000 0.156612 0.634804
O O8 0.752190 0.843679 0.151954
O O9 0.791049 0.013574 0.116858
O O10 0.775574 0.884710 0.009545
O O11 0.328035 0.767166 0.250000
O O12 0.376853 0.852964 0.126715
O O13 0.321286 0.692351 0.115098
O O14 0.427396 0.931394 0.250000
O O15 0.500000 0.912940 0.375024
#
# Coordination Sequence:
#
# PCOD8256428 Si02
#       6
#    16  16  16  16  16  16
#     4  10  18  32  59  89 117 147 186 240 291 342
#     4  10  21  37  59  87 115 149 196 246 294 342
#     4  11  23  39  58  82 118 157 190 238 291 346
#     4  11  21  35  59  85 112 148 193 239 285 343
#     4   9  18  33  54  84 120 151 181 227 289 348
#     4  11  23  37  57  85 117 149 195 239 285 345
#
# _framework density 19.144757999999999
#
# number of rings (size 3 to 8) (size 9 to 14) (size 15 to 20)
#    0.000    1.667    3.333    2.000    0.000    4.000 
#    0.000    3.333    0.000    3.000    0.000    0.000 
#    0.000    0.000    0.000    0.000    0.000    0.000 
#
# Total GULP energy -595371.643272 kJ/mol
# GULP energy per Si atom -12403.575902 kJ/mol
# Density = 1.910118 g / cm^3
# Si number density = 19.144758 Si / 1000 Ang^3
#
#
#
# Elastic Constant Matrix: (Units=GPa)
#
#
# Indices 1 2 3 4 5 6 
#
# 1 130.0906 26.5769 25.5073 0.0000 0.0000 0.0000
# 2 26.5769 92.2954 15.1458 0.0000 0.0000 0.0000
# 3 25.5073 15.1458 45.1759 0.0000 0.0000 0.0000
# 4 0.0000 0.0000 0.0000 27.9822 0.0000 0.0000
# 5 0.0000 0.0000 0.0000 0.0000 13.5257 0.0000
# 6 0.0000 0.0000 0.0000 0.0000 0.0000 32.5605
#
#
#
# Elastic Compliance Matrix: (Units=1/GPa)
#
#
# Indices 1 2 3 4 5 6 
#
# 1 0.008931 -0.001846 -0.004424 0.000000 0.000000 0.000000
# 2 -0.001846 0.011847 -0.002930 0.000000 0.000000 0.000000
# 3 -0.004424 -0.002930 0.025616 0.000000 0.000000 0.000000
# 4 0.000000 0.000000 0.000000 0.035737 0.000000 0.000000
# 5 0.000000 0.000000 0.000000 0.000000 0.073933 0.000000
# 6 0.000000 0.000000 0.000000 0.000000 0.000000 0.030712
#
#
# Mechanical properties :
#
#
# Convention : Reuss Voigt Hill
#
# Bulk Modulus (GPa) = 35.72041 44.66910 40.19476
# Shear Modulus (GPa) = 23.30919 28.16914 25.73916
#
# Velocity S-wave (km/s) = 3.49309 3.84001 3.67065
# Velocity P-wave (km/s) = 5.91333 6.56078 6.24545
#
# Compressibility (1/GPa) = 0.02799520
#
# Stress axis : x y z
#
# Youngs Moduli (GPa) = 111.96336 84.40904 39.03832
#
# Poissons Ratio (x) = 0.15581 0.17271
# Poissons Ratio (y) = 0.20667 0.11437
# Poissons Ratio (z) = 0.49533 0.24729
#
# Static dielectric constant tensor:
#      x y z
#    x 3.550080 0.000000 0.000000 
#    y 0.000000 3.693360 0.000000 
#    z 0.000000 0.000000 3.237130 
# 
# 
# High freq. dielectric constant tensor:
#      x y z
#    x 1.738570 0.000000 0.000000 
#    y 0.000000 1.753150 0.000000 
#    z 0.000000 0.000000 1.722770 
# 
# From -- ./inp_files/35356.got.cif
#   From: 2010.03.12/outbox.cif.g09.slc.cpg/sg63_18_cif.got.tgz:35356.got - 2010.04.10 19:34:48.
