data_PCOD8256388
_publ_section_title
;
Structure prediction by ZEFSAII (Michael W. Deem and Ramdas Pophale) SiO2 
 PCOD8256388
Probable space group: C M C M
;
_chemical_formula_sum "Si O2"
_cell_formula_units_Z 88
_cell_length_a 19.852327
_cell_length_b 24.369498
_cell_length_c 8.741995
_cell_angle_alpha 90.000000
_cell_angle_beta 90.000000
_cell_angle_gamma 90.000000
_cell_volume 4229.300628
_symmetry_space_group_name_H-M "C M C M"
_symmetry_group_IT_number 63
_symmetry_cell_setting 'orthorhombic'
loop_
_space_group_symop_operation_xyz
x,y,z
-x,-y,1/2+z
x,-y,-z
-x,y,1/2-z
-x,-y,-z
x,y,1/2-z
-x,y,z
x,-y,1/2+z
1/2+x,1/2+y,z
1/2-x,1/2-y,1/2+z
1/2+x,1/2-y,-z
1/2-x,1/2+y,1/2-z
1/2-x,1/2-y,-z
1/2+x,1/2+y,1/2-z
1/2-x,1/2+y,z
1/2+x,1/2-y,1/2+z
loop_
_atom_site_type_symbol
_atom_site_label
_atom_site_fract_x
_atom_site_fract_y
_atom_site_fract_z
Si Si1 0.284746 0.339406 0.929334
Si Si2 0.640007 0.438877 0.433127
Si Si3 0.078066 0.340860 0.082857
Si Si4 0.500000 0.560496 0.066094
Si Si5 0.419492 0.946270 0.580161
Si Si6 0.660778 0.237285 0.073370
O O1 0.287692 0.351768 0.750000
O O2 0.214386 0.310022 0.978079
O O3 0.300523 0.396516 0.017377
O O4 0.338496 0.292968 0.976167
O O5 0.654363 0.500000 0.500000
O O6 0.635993 0.442689 0.250000
O O7 0.569569 0.413515 0.500719
O O8 0.109984 0.329601 0.250000
O O9 0.000000 0.351563 0.098844
O O10 0.110990 0.395494 0.012523
O O11 0.089502 0.289968 0.968579
O O12 0.500000 0.562359 0.250000
O O13 0.500000 0.500000 0.000000
O O14 0.389640 0.943186 0.750000
O O15 0.500000 0.946601 0.584161
O O16 0.390566 0.000000 0.500000
O O17 0.668021 0.252391 0.250000
#
# Coordination Sequence:
#
# PCOD8256388 Si02
#       6
#    16  16  16   8  16  16
#     4  10  21  39  61  84 111 146 188 232 281 337
#     4  11  21  36  59  88 121 155 193 235 286 342
#     4  10  20  34  53  78 109 143 180 226 280 333
#     4  10  18  32  54  82 118 156 190 228 279 338
#     4   9  16  27  45  69  98 133 172 213 261 318
#     4  10  21  38  60  83 109 145 189 234 282 338
#
# _framework density 20.807221999999999
#
# number of rings (size 3 to 8) (size 9 to 14) (size 15 to 20)
#    0.000    2.000    0.000    5.727    0.000    5.455 
#    1.636    0.909    0.000    4.364    0.000    0.000 
#    0.000    0.000    0.000    0.000    0.000    0.000 
#
# Total GULP energy -545247.692661 kJ/mol
# GULP energy per Si atom -12391.993015 kJ/mol
# Density = 2.075986 g / cm^3
# Si number density = 20.807222 Si / 1000 Ang^3
#
#
#
# Elastic Constant Matrix: (Units=GPa)
#
#
# Indices 1 2 3 4 5 6 
#
# 1 12.5611 21.5812 25.3274 0.0000 0.0000 0.0000
# 2 21.5812 118.8562 45.2070 0.0000 0.0000 0.0000
# 3 25.3274 45.2070 139.6771 0.0000 0.0000 0.0000
# 4 0.0000 0.0000 0.0000 40.5834 0.0000 0.0000
# 5 0.0000 0.0000 0.0000 0.0000 25.3558 0.0000
# 6 0.0000 0.0000 0.0000 0.0000 0.0000 17.1064
#
#
#
# Elastic Compliance Matrix: (Units=1/GPa)
#
#
# Indices 1 2 3 4 5 6 
#
# 1 0.160004 -0.020547 -0.022363 0.000000 0.000000 0.000000
# 2 -0.020547 0.012233 -0.000234 0.000000 0.000000 0.000000
# 3 -0.022363 -0.000234 0.011290 0.000000 0.000000 0.000000
# 4 0.000000 0.000000 0.000000 0.024641 0.000000 0.000000
# 5 0.000000 0.000000 0.000000 0.000000 0.039439 0.000000
# 6 0.000000 0.000000 0.000000 0.000000 0.000000 0.058457
#
#
# Mechanical properties :
#
#
# Convention : Reuss Voigt Hill
#
# Bulk Modulus (GPa) = 10.28383 50.59172 30.43777
# Shear Modulus (GPa) = 11.77124 28.54105 20.15614
#
# Velocity S-wave (km/s) = 2.38108 3.70765 3.11579
# Velocity P-wave (km/s) = 3.53731 6.53423 5.25399
#
# Compressibility (1/GPa) = 0.09724008
#
# Stress axis : x y z
#
# Youngs Moduli (GPa) = 6.24985 81.74532 88.57347
#
# Poissons Ratio (x) = 1.67959 1.98079
# Poissons Ratio (y) = 0.12841 0.02069
# Poissons Ratio (z) = 0.13977 0.01910
#
# Static dielectric constant tensor:
#      x y z
#    x 3.701590 0.000000 0.000000 
#    y 0.000000 3.757140 0.000000 
#    z 0.000000 0.000000 3.976020 
# 
# 
# High freq. dielectric constant tensor:
#      x y z
#    x 1.781660 0.000000 0.000000 
#    y 0.000000 1.811680 0.000000 
#    z 0.000000 0.000000 1.831860 
# 
# From -- ./inp_files/8176.got.cif
#   From: 2010.03.12/outbox.cif.g09.slc.cpg/sg63_5_cif.got.tgz:8176.got - 2010.04.10 19:34:48.
