data_PCOD8256205
_publ_section_title
;
Structure prediction by ZEFSAII (Michael W. Deem and Ramdas Pophale) SiO2 
 PCOD8256205
Probable space group: C M C M
;
_chemical_formula_sum "Si O2"
_cell_formula_units_Z 88
_cell_length_a 15.473421
_cell_length_b 33.714664
_cell_length_c 9.680577
_cell_angle_alpha 90.000000
_cell_angle_beta 90.000000
_cell_angle_gamma 90.000000
_cell_volume 5050.174929
_symmetry_space_group_name_H-M "C M C M"
_symmetry_group_IT_number 63
_symmetry_cell_setting 'orthorhombic'
loop_
_space_group_symop_operation_xyz
x,y,z
-x,-y,1/2+z
x,-y,-z
-x,y,1/2-z
-x,-y,-z
x,y,1/2-z
-x,y,z
x,-y,1/2+z
1/2+x,1/2+y,z
1/2-x,1/2-y,1/2+z
1/2+x,1/2-y,-z
1/2-x,1/2+y,1/2-z
1/2-x,1/2-y,-z
1/2+x,1/2+y,1/2-z
1/2-x,1/2+y,z
1/2+x,1/2-y,1/2+z
loop_
_atom_site_type_symbol
_atom_site_label
_atom_site_fract_x
_atom_site_fract_y
_atom_site_fract_z
Si Si1 0.739953 0.120820 0.586872
Si Si2 0.905716 0.832586 0.411980
Si Si3 0.599003 0.837025 0.591643
Si Si4 0.000000 0.963132 0.404124
Si Si5 0.834384 0.251302 0.908758
Si Si6 0.187604 0.038832 0.591908
O O1 0.729813 0.129154 0.750000
O O2 0.825363 0.142691 0.525737
O O3 0.656179 0.136318 0.508862
O O4 0.745857 0.073780 0.555381
O O5 0.907467 0.840805 0.250000
O O6 0.894169 0.786125 0.445045
O O7 0.000000 0.845524 0.473406
O O8 0.624515 0.846122 0.750000
O O9 0.500000 0.848220 0.563144
O O10 0.611535 0.790685 0.558535
O O11 0.908590 0.940869 0.430009
O O12 0.000000 0.979992 0.250000
O O13 0.000000 0.000000 0.500000
O O14 0.804494 0.249636 0.750000
O O15 0.750000 0.250000 0.000000
O O16 0.199064 0.025198 0.750000
O O17 0.204389 0.000000 0.500000
#
# Coordination Sequence:
#
# PCOD8256205 Si02
#       6
#    16  16  16   8  16  16
#     4  10  20  33  52  79 104 130 170 216 256 298
#     4   9  17  29  48  73 101 134 169 203 241 289
#     4  10  21  36  54  75 102 137 175 214 258 306
#     4   8  14  26  44  68  98 130 164 198 234 288
#     4  10  18  31  51  73 100 134 172 209 247 294
#     4   9  18  31  49  73 102 134 169 206 250 304
#
# _framework density 17.425139000000001
#
# number of rings (size 3 to 8) (size 9 to 14) (size 15 to 20)
#    0.000    2.545    1.818    0.545    1.273    3.273 
#    0.000    0.000    0.000    3.818    0.000    0.000 
#    0.000    0.000    0.000    0.000    0.000    0.000 
#
# Total GULP energy -545227.605749 kJ/mol
# GULP energy per Si atom -12391.536494 kJ/mol
# Density = 1.738548 g / cm^3
# Si number density = 17.425139 Si / 1000 Ang^3
#
#
#
# Elastic Constant Matrix: (Units=GPa)
#
#
# Indices 1 2 3 4 5 6 
#
# 1 113.7350 49.8256 46.0372 0.0000 0.0000 0.0000
# 2 49.8256 99.8601 44.7289 0.0000 0.0000 0.0000
# 3 46.0372 44.7289 55.4915 0.0000 0.0000 0.0000
# 4 0.0000 0.0000 0.0000 24.9667 0.0000 0.0000
# 5 0.0000 0.0000 0.0000 0.0000 26.7268 0.0000
# 6 0.0000 0.0000 0.0000 0.0000 0.0000 23.3266
#
#
#
# Elastic Compliance Matrix: (Units=1/GPa)
#
#
# Indices 1 2 3 4 5 6 
#
# 1 0.013697 -0.002730 -0.009163 0.000000 0.000000 0.000000
# 2 -0.002730 0.016217 -0.010806 0.000000 0.000000 0.000000
# 3 -0.009163 -0.010806 0.034333 0.000000 0.000000 0.000000
# 4 0.000000 0.000000 0.000000 0.040053 0.000000 0.000000
# 5 0.000000 0.000000 0.000000 0.000000 0.037416 0.000000
# 6 0.000000 0.000000 0.000000 0.000000 0.000000 0.042870
#
#
# Mechanical properties :
#
#
# Convention : Reuss Voigt Hill
#
# Bulk Modulus (GPa) = 53.05612 61.14111 57.09862
# Shear Modulus (GPa) = 21.16242 23.57033 22.36638
#
# Velocity S-wave (km/s) = 3.48871 3.68185 3.58658
# Velocity P-wave (km/s) = 6.83683 7.29649 7.07040
#
# Compressibility (1/GPa) = 0.01884797
#
# Stress axis : x y z
#
# Youngs Moduli (GPa) = 73.00661 61.66546 29.12622
#
# Poissons Ratio (x) = 0.16835 0.26689
# Poissons Ratio (y) = 0.19931 0.31475
# Poissons Ratio (z) = 0.66897 0.66638
#
# Static dielectric constant tensor:
#      x y z
#    x 18.930710 0.000000 0.000000 
#    y 0.000000 2.976340 0.000000 
#    z 0.000000 0.000000 3.071550 
# 
# 
# High freq. dielectric constant tensor:
#      x y z
#    x 1.668680 0.000000 0.000000 
#    y 0.000000 1.666600 0.000000 
#    z 0.000000 0.000000 1.649320 
# 
# From -- ./inp_files/19904.got.cif
#   From: 2010.03.12/outbox.cif.g09.slc.cpg/sg63_10_cif.got.tgz:19904.got - 2010.04.10 19:34:48.
