data_PCOD8256433
_publ_section_title
;
Structure prediction by ZEFSAII (Michael W. Deem and Ramdas Pophale) SiO2 
 PCOD8256433
Probable space group: C M C M
;
_chemical_formula_sum "Si O2"
_cell_formula_units_Z 96
_cell_length_a 12.232726
_cell_length_b 19.746854
_cell_length_c 23.215109
_cell_angle_alpha 90.000000
_cell_angle_beta 90.000000
_cell_angle_gamma 90.000000
_cell_volume 5607.791918
_symmetry_space_group_name_H-M "C M C M"
_symmetry_group_IT_number 63
_symmetry_cell_setting 'orthorhombic'
loop_
_space_group_symop_operation_xyz
x,y,z
-x,-y,1/2+z
x,-y,-z
-x,y,1/2-z
-x,-y,-z
x,y,1/2-z
-x,y,z
x,-y,1/2+z
1/2+x,1/2+y,z
1/2-x,1/2-y,1/2+z
1/2+x,1/2-y,-z
1/2-x,1/2+y,1/2-z
1/2-x,1/2-y,-z
1/2+x,1/2+y,1/2-z
1/2-x,1/2+y,z
1/2+x,1/2-y,1/2+z
loop_
_atom_site_type_symbol
_atom_site_label
_atom_site_fract_x
_atom_site_fract_y
_atom_site_fract_z
Si Si1 0.623679 0.730925 0.685656
Si Si2 0.280659 0.941346 0.928770
Si Si3 0.622564 0.078323 0.543374
Si Si4 0.375972 0.889757 0.685717
Si Si5 0.743825 0.797790 0.079142
Si Si6 0.629270 0.330605 0.966496
O O1 0.664615 0.713921 0.750000
O O2 0.500000 0.705150 0.677363
O O3 0.628718 0.810448 0.673861
O O4 0.701897 0.692929 0.641319
O O5 0.304957 0.927442 0.862135
O O6 0.164929 0.906338 0.946039
O O7 0.286381 0.022681 0.937532
O O8 0.368813 0.909722 0.974063
O O9 0.500000 0.054197 0.558751
O O10 0.645699 0.148410 0.575405
O O11 0.330435 0.906332 0.750000
O O12 0.500000 0.915731 0.681069
O O13 0.692420 0.723235 0.073677
O O14 0.836661 0.814352 0.031949
O O15 0.500000 0.323579 0.959764
#
# Coordination Sequence:
#
# PCOD8256433 Si02
#       6
#    16  16  16  16  16  16
#     4   9  17  30  50  75 100 128 165 207 249 291
#     4  10  18  33  50  72 100 131 166 205 249 295
#     4  10  20  32  51  76 103 134 161 198 255 307
#     4   9  16  27  48  74  96 123 163 209 246 281
#     4  10  19  33  49  74 102 130 163 204 249 297
#     4  10  20  32  50  74  99 131 167 205 247 293
#
# _framework density 17.119036999999999
#
# number of rings (size 3 to 8) (size 9 to 14) (size 15 to 20)
#    0.000    2.333    1.667    4.000    0.000    0.000 
#    0.000    8.333    0.000    4.500    0.000    0.000 
#    0.000    0.000    0.000    0.000    0.000    0.000 
#
# Total GULP energy -594893.988641 kJ/mol
# GULP energy per Si atom -12393.624763 kJ/mol
# Density = 1.708007 g / cm^3
# Si number density = 17.119037 Si / 1000 Ang^3
#
#
#
# Elastic Constant Matrix: (Units=GPa)
#
#
# Indices 1 2 3 4 5 6 
#
# 1 77.1490 22.6538 41.1076 0.0000 0.0000 0.0000
# 2 22.6538 60.8508 25.9644 0.0000 0.0000 0.0000
# 3 41.1076 25.9644 117.4270 0.0000 0.0000 0.0000
# 4 0.0000 0.0000 0.0000 19.8527 0.0000 0.0000
# 5 0.0000 0.0000 0.0000 0.0000 20.9952 0.0000
# 6 0.0000 0.0000 0.0000 0.0000 0.0000 20.2396
#
#
#
# Elastic Compliance Matrix: (Units=1/GPa)
#
#
# Indices 1 2 3 4 5 6 
#
# 1 0.016829 -0.004142 -0.004976 0.000000 0.000000 0.000000
# 2 -0.004142 0.019165 -0.002788 0.000000 0.000000 0.000000
# 3 -0.004976 -0.002788 0.010874 0.000000 0.000000 0.000000
# 4 0.000000 0.000000 0.000000 0.050371 0.000000 0.000000
# 5 0.000000 0.000000 0.000000 0.000000 0.047630 0.000000
# 6 0.000000 0.000000 0.000000 0.000000 0.000000 0.049408
#
#
# Mechanical properties :
#
#
# Convention : Reuss Voigt Hill
#
# Bulk Modulus (GPa) = 43.36913 48.31980 45.84447
# Shear Modulus (GPa) = 22.14599 23.26423 22.70511
#
# Velocity S-wave (km/s) = 3.60063 3.69042 3.64580
# Velocity P-wave (km/s) = 6.53261 6.81513 6.67536
#
# Compressibility (1/GPa) = 0.02305787
#
# Stress axis : x y z
#
# Youngs Moduli (GPa) = 59.41981 52.17798 91.96191
#
# Poissons Ratio (x) = 0.21614 0.45756
# Poissons Ratio (y) = 0.24613 0.25635
# Poissons Ratio (z) = 0.29565 0.14545
#
# Static dielectric constant tensor:
#      x y z
#    x 2.951220 0.000000 0.000000 
#    y 0.000000 3.076320 0.000000 
#    z 0.000000 0.000000 3.213350 
# 
# 
# High freq. dielectric constant tensor:
#      x y z
#    x 1.634750 0.000000 0.000000 
#    y 0.000000 1.646940 0.000000 
#    z 0.000000 0.000000 1.657000 
# 
# From -- ./inp_files/61454.got.cif
#   From: 2010.03.12/outbox.cif.g09.slc.cpg/sg63_31_cif.got.tgz:61454.got - 2010.04.10 19:34:48.
