data_PCOD8256801
_publ_section_title
;
Structure prediction by ZEFSAII (Michael W. Deem and Ramdas Pophale) SiO2 
 PCOD8256801
Probable space group: C M C M
;
_chemical_formula_sum "Si O2"
_cell_formula_units_Z 80
_cell_length_a 9.357454
_cell_length_b 27.605489
_cell_length_c 17.744541
_cell_angle_alpha 90.000000
_cell_angle_beta 90.000000
_cell_angle_gamma 90.000000
_cell_volume 4583.718256
_symmetry_space_group_name_H-M "C M C M"
_symmetry_group_IT_number 63
_symmetry_cell_setting 'orthorhombic'
loop_
_space_group_symop_operation_xyz
x,y,z
-x,-y,1/2+z
x,-y,-z
-x,y,1/2-z
-x,-y,-z
x,y,1/2-z
-x,y,z
x,-y,1/2+z
1/2+x,1/2+y,z
1/2-x,1/2-y,1/2+z
1/2+x,1/2-y,-z
1/2-x,1/2+y,1/2-z
1/2-x,1/2-y,-z
1/2+x,1/2+y,1/2-z
1/2-x,1/2+y,z
1/2+x,1/2-y,1/2+z
loop_
_atom_site_type_symbol
_atom_site_label
_atom_site_fract_x
_atom_site_fract_y
_atom_site_fract_z
Si Si1 0.832555 0.946595 0.516964
Si Si2 0.833238 0.691758 0.107654
Si Si3 0.337174 0.139004 0.954963
Si Si4 0.663270 0.394628 0.833193
Si Si5 0.834723 0.282475 0.336997
O O1 0.760607 0.908437 0.460403
O O2 0.793885 0.934052 0.603779
O O3 0.000000 0.944372 0.501092
O O4 0.771931 0.000000 0.500000
O O5 0.762704 0.652385 0.162639
O O6 0.763132 0.743424 0.121997
O O7 0.000000 0.694968 0.126332
O O8 0.802873 0.676913 0.021594
O O9 0.500000 0.121284 0.960848
O O10 0.306354 0.165684 0.876119
O O11 0.682648 0.417950 0.750000
O O12 0.500000 0.377707 0.845975
O O13 0.791536 0.287520 0.250000
O O14 0.000000 0.267202 0.346662
#
# Coordination Sequence:
#
# PCOD8256801 Si02
#       5
#    16  16  16  16  16
#     4   9  18  33  52  72  93 119 154 195 236 278
#     4  10  19  30  47  71  97 123 154 194 234 271
#     4   9  19  34  50  69  93 123 158 193 230 275
#     4   9  17  30  48  69  94 124 155 188 231 281
#     4  10  20  33  48  67  95 130 162 189 222 271
#
# _framework density 17.45308
#
# number of rings (size 3 to 8) (size 9 to 14) (size 15 to 20)
#    0.000    2.600    0.000    1.800    0.000    5.200 
#    0.000    1.000    0.000    1.200    0.000    0.000 
#    0.000    0.000    0.000    0.000    0.000    0.000 
#
# Total GULP energy -496032.365402 kJ/mol
# GULP energy per Si atom -12400.809135 kJ/mol
# Density = 1.741336 g / cm^3
# Si number density = 17.453080 Si / 1000 Ang^3
#
#
#
# Elastic Constant Matrix: (Units=GPa)
#
#
# Indices 1 2 3 4 5 6 
#
# 1 65.3529 53.8561 29.6412 0.0000 0.0000 0.0000
# 2 53.8561 122.2386 47.4920 0.0000 0.0000 0.0000
# 3 29.6412 47.4920 66.3696 0.0000 0.0000 0.0000
# 4 0.0000 0.0000 0.0000 17.1766 0.0000 0.0000
# 5 0.0000 0.0000 0.0000 0.0000 19.3076 0.0000
# 6 0.0000 0.0000 0.0000 0.0000 0.0000 28.0453
#
#
#
# Elastic Compliance Matrix: (Units=1/GPa)
#
#
# Indices 1 2 3 4 5 6 
#
# 1 0.024976 -0.009239 -0.004543 0.000000 0.000000 0.000000
# 2 -0.009239 0.014748 -0.006427 0.000000 0.000000 0.000000
# 3 -0.004543 -0.006427 0.021695 0.000000 0.000000 0.000000
# 4 0.000000 0.000000 0.000000 0.058219 0.000000 0.000000
# 5 0.000000 0.000000 0.000000 0.000000 0.051793 0.000000
# 6 0.000000 0.000000 0.000000 0.000000 0.000000 0.035657
#
#
# Mechanical properties :
#
#
# Convention : Reuss Voigt Hill
#
# Bulk Modulus (GPa) = 47.61783 57.32663 52.47223
# Shear Modulus (GPa) = 19.64589 21.10405 20.37497
#
# Velocity S-wave (km/s) = 3.35870 3.48111 3.42045
# Velocity P-wave (km/s) = 6.51028 7.00535 6.76235
#
# Compressibility (1/GPa) = 0.02100054
#
# Stress axis : x y z
#
# Youngs Moduli (GPa) = 40.03914 67.80484 46.09254
#
# Poissons Ratio (x) = 0.62642 0.20942
# Poissons Ratio (y) = 0.36990 0.29625
# Poissons Ratio (z) = 0.18192 0.43581
#
# Static dielectric constant tensor:
#      x y z
#    x 3.264760 0.000000 0.000000 
#    y 0.000000 3.099120 0.000000 
#    z 0.000000 0.000000 3.342540 
# 
# 
# High freq. dielectric constant tensor:
#      x y z
#    x 1.674640 0.000000 0.000000 
#    y 0.000000 1.655010 0.000000 
#    z 0.000000 0.000000 1.675240 
# 
# From -- ./inp_files/40426.got.cif
#   From: 2010.03.12/outbox.cif.g09.slc.cpg/sg63_21_cif.got.tgz:40426.got - 2010.04.10 19:34:48.
