data_PCOD8256702
_publ_section_title
;
Structure prediction by ZEFSAII (Michael W. Deem and Ramdas Pophale) SiO2 
 PCOD8256702
Probable space group: C M C M
;
_chemical_formula_sum "Si O2"
_cell_formula_units_Z 80
_cell_length_a 19.942468
_cell_length_b 25.153597
_cell_length_c 9.215254
_cell_angle_alpha 90.000000
_cell_angle_beta 90.000000
_cell_angle_gamma 90.000000
_cell_volume 4622.599975
_symmetry_space_group_name_H-M "C M C M"
_symmetry_group_IT_number 63
_symmetry_cell_setting 'orthorhombic'
loop_
_space_group_symop_operation_xyz
x,y,z
-x,-y,1/2+z
x,-y,-z
-x,y,1/2-z
-x,-y,-z
x,y,1/2-z
-x,y,z
x,-y,1/2+z
1/2+x,1/2+y,z
1/2-x,1/2-y,1/2+z
1/2+x,1/2-y,-z
1/2-x,1/2+y,1/2-z
1/2-x,1/2-y,-z
1/2+x,1/2+y,1/2-z
1/2-x,1/2+y,z
1/2+x,1/2-y,1/2+z
loop_
_atom_site_type_symbol
_atom_site_label
_atom_site_fract_x
_atom_site_fract_y
_atom_site_fract_z
Si Si1 0.500000 0.762100 0.907608
Si Si2 0.853176 0.741013 0.421511
Si Si3 0.594235 0.049868 0.587012
Si Si4 0.500000 0.885604 0.590598
Si Si5 0.252652 0.550594 0.911766
Si Si6 0.751508 0.331462 0.420604
O O1 0.500000 0.733402 0.750000
O O2 0.571284 0.747985 0.985574
O O3 0.500000 0.824073 0.884442
O O4 0.856874 0.728326 0.250000
O O5 0.817561 0.690675 0.498219
O O6 0.811411 0.794028 0.454769
O O7 0.565911 0.049908 0.750000
O O8 0.566743 0.100705 0.500817
O O9 0.673308 0.048430 0.588422
O O10 0.564426 0.000000 0.500000
O O11 0.500000 0.913284 0.750000
O O12 0.282095 0.545046 0.750000
O O13 0.269845 0.609289 0.976126
O O14 0.282388 0.500000 0.000000
O O15 0.769071 0.333898 0.250000
#
# Coordination Sequence:
#
# PCOD8256702 Si02
#       6
#     8  16  16   8  16  16
#     4   9  18  30  44  65  88 113 145 177 212 257
#     4   9  17  30  48  67  90 119 149 181 218 263
#     4  10  19  30  41  54  76 106 140 174 209 246
#     4  11  20  28  39  55  78 107 141 175 204 241
#     4   9  18  30  44  63  85 109 139 177 217 257
#     4   9  17  30  47  68  92 116 146 184 223 261
#
# _framework density 17.306277000000001
#
# number of rings (size 3 to 8) (size 9 to 14) (size 15 to 20)
#    0.000    2.600    0.000    2.400    0.000    1.600 
#    0.000    1.500    0.000    0.000    0.000    0.700 
#    0.000    0.000    0.000    0.000    0.000    0.000 
#
# Total GULP energy -495528.563190 kJ/mol
# GULP energy per Si atom -12388.214080 kJ/mol
# Density = 1.726689 g / cm^3
# Si number density = 17.306277 Si / 1000 Ang^3
#
#
#
# Elastic Constant Matrix: (Units=GPa)
#
#
# Indices 1 2 3 4 5 6 
#
# 1 86.3487 29.6923 19.5298 0.0000 0.0000 0.0000
# 2 29.6923 113.8798 34.1287 0.0000 0.0000 0.0000
# 3 19.5298 34.1287 75.8520 0.0000 0.0000 0.0000
# 4 0.0000 0.0000 0.0000 22.3392 0.0000 0.0000
# 5 0.0000 0.0000 0.0000 0.0000 15.7639 0.0000
# 6 0.0000 0.0000 0.0000 0.0000 0.0000 22.0311
#
#
#
# Elastic Compliance Matrix: (Units=1/GPa)
#
#
# Indices 1 2 3 4 5 6 
#
# 1 0.013006 -0.002760 -0.002107 0.000000 0.000000 0.000000
# 2 -0.002760 0.010735 -0.004120 0.000000 0.000000 0.000000
# 3 -0.002107 -0.004120 0.015580 0.000000 0.000000 0.000000
# 4 0.000000 0.000000 0.000000 0.044764 0.000000 0.000000
# 5 0.000000 0.000000 0.000000 0.000000 0.063436 0.000000
# 6 0.000000 0.000000 0.000000 0.000000 0.000000 0.045390
#
#
# Mechanical properties :
#
#
# Convention : Reuss Voigt Hill
#
# Bulk Modulus (GPa) = 46.84173 49.19800 48.01987
# Shear Modulus (GPa) = 22.93563 24.87551 23.90557
#
# Velocity S-wave (km/s) = 3.64439 3.79538 3.72065
# Velocity P-wave (km/s) = 6.69581 6.90623 6.80183
#
# Compressibility (1/GPa) = 0.02134848
#
# Stress axis : x y z
#
# Youngs Moduli (GPa) = 76.88467 93.14991 64.18614
#
# Poissons Ratio (x) = 0.25707 0.13525
# Poissons Ratio (y) = 0.21218 0.26443
# Poissons Ratio (z) = 0.16200 0.38375
#
# Static dielectric constant tensor:
#      x y z
#    x 3.133930 0.000000 0.000000 
#    y 0.000000 3.371890 0.000000 
#    z 0.000000 0.000000 3.376040 
# 
# 
# High freq. dielectric constant tensor:
#      x y z
#    x 1.640120 0.000000 0.000000 
#    y 0.000000 1.663000 0.000000 
#    z 0.000000 0.000000 1.659060 
# 
# From -- ./inp_files/8091.got.cif
#   From: 2010.03.12/outbox.cif.g09.slc.cpg/sg63_5_cif.got.tgz:8091.got - 2010.04.10 19:34:48.
