data_PCOD8256467
_publ_section_title
;
Structure prediction by ZEFSAII (Michael W. Deem and Ramdas Pophale) SiO2 
 PCOD8256467
Probable space group: C M C M
;
_chemical_formula_sum "Si O2"
_cell_formula_units_Z 96
_cell_length_a 27.993765
_cell_length_b 20.169280
_cell_length_c 9.092818
_cell_angle_alpha 90.000000
_cell_angle_beta 90.000000
_cell_angle_gamma 90.000000
_cell_volume 5133.933111
_symmetry_space_group_name_H-M "C M C M"
_symmetry_group_IT_number 63
_symmetry_cell_setting 'orthorhombic'
loop_
_space_group_symop_operation_xyz
x,y,z
-x,-y,1/2+z
x,-y,-z
-x,y,1/2-z
-x,-y,-z
x,y,1/2-z
-x,y,z
x,-y,1/2+z
1/2+x,1/2+y,z
1/2-x,1/2-y,1/2+z
1/2+x,1/2-y,-z
1/2-x,1/2+y,1/2-z
1/2-x,1/2-y,-z
1/2+x,1/2+y,1/2-z
1/2-x,1/2+y,z
1/2+x,1/2-y,1/2+z
loop_
_atom_site_type_symbol
_atom_site_label
_atom_site_fract_x
_atom_site_fract_y
_atom_site_fract_z
Si Si1 0.053596 0.328183 0.924386
Si Si2 0.708596 0.158898 0.920229
Si Si3 0.554936 0.559991 0.409979
Si Si4 0.365381 0.929576 0.574481
Si Si5 0.914919 0.184511 0.581643
Si Si6 0.808980 0.208840 0.583713
O O1 0.054249 0.327463 0.750000
O O2 0.090344 0.384131 0.979763
O O3 0.071169 0.256693 0.982432
O O4 0.000000 0.343400 0.983304
O O5 0.695248 0.147740 0.750000
O O6 0.765957 0.157045 0.946046
O O7 0.684169 0.101949 0.017518
O O8 0.690794 0.231092 0.969345
O O9 0.579998 0.500000 0.500000
O O10 0.579908 0.564798 0.250000
O O11 0.500000 0.541763 0.388193
O O12 0.557538 0.629807 0.490849
O O13 0.363115 0.936617 0.750000
O O14 0.373275 0.000000 0.500000
O O15 0.931640 0.179018 0.750000
O O16 0.858550 0.170338 0.565161
O O17 0.804706 0.238079 0.750000
#
# Coordination Sequence:
#
# PCOD8256467 Si02
#       6
#    16  16  16  16  16  16
#     4   9  18  33  55  81 109 144 186 230 278 333
#     4  10  19  33  55  82 110 140 178 220 270 324
#     4  10  21  36  53  76 107 143 182 222 267 322
#     4  11  22  38  57  79 111 148 192 236 284 337
#     4  10  18  33  57  83 110 143 181 222 270 324
#     4   9  18  33  55  83 111 140 175 218 266 322
#
# _framework density 18.699114000000002
#
# number of rings (size 3 to 8) (size 9 to 14) (size 15 to 20)
#    0.000    2.167    1.667    2.000    0.000    3.333 
#    0.000    0.833    0.000    2.500    0.000    0.000 
#    0.000    0.000    0.000    0.000    0.000    0.000 
#
# Total GULP energy -595120.062892 kJ/mol
# GULP energy per Si atom -12398.334644 kJ/mol
# Density = 1.865655 g / cm^3
# Si number density = 18.699114 Si / 1000 Ang^3
#
#
#
# Elastic Constant Matrix: (Units=GPa)
#
#
# Indices 1 2 3 4 5 6 
#
# 1 87.4443 44.0475 29.0406 0.0000 0.0000 0.0000
# 2 44.0475 137.8924 55.2539 0.0000 0.0000 0.0000
# 3 29.0406 55.2539 90.9361 0.0000 0.0000 0.0000
# 4 0.0000 0.0000 0.0000 32.8624 0.0000 0.0000
# 5 0.0000 0.0000 0.0000 0.0000 21.7645 0.0000
# 6 0.0000 0.0000 0.0000 0.0000 0.0000 26.6528
#
#
#
# Elastic Compliance Matrix: (Units=1/GPa)
#
#
# Indices 1 2 3 4 5 6 
#
# 1 0.013988 -0.003540 -0.002316 0.000000 0.000000 0.000000
# 2 -0.003540 0.010482 -0.005238 0.000000 0.000000 0.000000
# 3 -0.002316 -0.005238 0.014919 0.000000 0.000000 0.000000
# 4 0.000000 0.000000 0.000000 0.030430 0.000000 0.000000
# 5 0.000000 0.000000 0.000000 0.000000 0.045946 0.000000
# 6 0.000000 0.000000 0.000000 0.000000 0.000000 0.037519
#
#
# Mechanical properties :
#
#
# Convention : Reuss Voigt Hill
#
# Bulk Modulus (GPa) = 58.13919 63.66186 60.90053
# Shear Modulus (GPa) = 27.59259 28.78468 28.18863
#
# Velocity S-wave (km/s) = 3.84553 3.92772 3.88685
# Velocity P-wave (km/s) = 7.13281 7.39518 7.26518
#
# Compressibility (1/GPa) = 0.01720010
#
# Stress axis : x y z
#
# Youngs Moduli (GPa) = 71.48809 95.40212 67.02736
#
# Poissons Ratio (x) = 0.33775 0.15524
# Poissons Ratio (y) = 0.25309 0.35111
# Poissons Ratio (z) = 0.16557 0.49975
#
# Static dielectric constant tensor:
#      x y z
#    x 3.618500 0.000000 0.000000 
#    y 0.000000 3.243330 0.000000 
#    z 0.000000 0.000000 3.471060 
# 
# 
# High freq. dielectric constant tensor:
#      x y z
#    x 1.725100 0.000000 0.000000 
#    y 0.000000 1.710140 0.000000 
#    z 0.000000 0.000000 1.718320 
# 
# From -- ./inp_files/12358.got.cif
#   From: 2010.03.12/outbox.cif.g09.slc.cpg/sg63_7_cif.got.tgz:12358.got - 2010.04.10 19:34:48.
