data_PCOD8256200
_publ_section_title
;
Structure prediction by ZEFSAII (Michael W. Deem and Ramdas Pophale) SiO2 
 PCOD8256200
Probable space group: C M C M
;
_chemical_formula_sum "Si O2"
_cell_formula_units_Z 128
_cell_length_a 17.551850
_cell_length_b 18.378363
_cell_length_c 23.308545
_cell_angle_alpha 90.000000
_cell_angle_beta 90.000000
_cell_angle_gamma 90.000000
_cell_volume 7518.736903
_symmetry_space_group_name_H-M "C M C M"
_symmetry_group_IT_number 63
_symmetry_cell_setting 'orthorhombic'
loop_
_space_group_symop_operation_xyz
x,y,z
-x,-y,1/2+z
x,-y,-z
-x,y,1/2-z
-x,-y,-z
x,y,1/2-z
-x,y,z
x,-y,1/2+z
1/2+x,1/2+y,z
1/2-x,1/2-y,1/2+z
1/2+x,1/2-y,-z
1/2-x,1/2+y,1/2-z
1/2-x,1/2-y,-z
1/2+x,1/2+y,1/2-z
1/2-x,1/2+y,z
1/2+x,1/2-y,1/2+z
loop_
_atom_site_type_symbol
_atom_site_label
_atom_site_fract_x
_atom_site_fract_y
_atom_site_fract_z
Si Si1 0.672849 0.692396 0.920955
Si Si2 0.322870 0.886461 0.684422
Si Si3 0.415023 0.886648 0.424721
Si Si4 0.913284 0.470534 0.185735
Si Si5 0.729010 0.669603 0.412329
Si Si6 0.413391 0.722589 0.464288
Si Si7 0.733483 0.078190 0.517457
Si Si8 0.910554 0.240406 0.814785
O O1 0.743240 0.747215 0.913138
O O2 0.708856 0.614013 0.936222
O O3 0.627969 0.685891 0.860647
O O4 0.615953 0.721320 0.970274
O O5 0.296378 0.888449 0.750000
O O6 0.247017 0.871143 0.647202
O O7 0.383735 0.822665 0.672836
O O8 0.360654 0.962313 0.665865
O O9 0.500000 0.912737 0.443180
O O10 0.402201 0.902387 0.356891
O O11 0.405834 0.801954 0.437069
O O12 0.351804 0.932444 0.458581
O O13 0.891328 0.444572 0.250000
O O14 0.000000 0.499043 0.184558
O O15 0.638417 0.669015 0.425142
O O16 0.774329 0.629006 0.462344
O O17 0.500000 0.694289 0.462380
O O18 0.767256 0.000000 0.500000
O O19 0.887957 0.216464 0.750000
O O20 0.000000 0.237680 0.823666
#
# Coordination Sequence:
#
# PCOD8256200 Si02
#       8
#    16  16  16  16  16  16  16  16
#     4  10  18  33  50  71 100 133 163 201 246 296
#     4   9  17  29  48  72  97 128 163 199 245 297
#     4  10  19  31  46  70  99 132 169 199 234 289
#     4   9  17  30  46  67 102 139 164 194 240 295
#     4  10  18  33  50  70  96 129 162 203 251 286
#     4  10  18  31  51  70  95 132 168 200 240 294
#     4  11  20  32  49  71 100 131 162 200 243 289
#     4   9  17  29  49  75  98 122 160 207 251 294
#
# _framework density 17.024137
#
# number of rings (size 3 to 8) (size 9 to 14) (size 15 to 20)
#    0.000    2.250    2.500    2.250    0.000    1.750 
#    0.000    1.875    0.000   11.250    0.000    0.000 
#    0.000    0.000    0.000    0.000    0.000    0.000 
#
# Total GULP energy -793408.200827 kJ/mol
# GULP energy per Si atom -12397.003138 kJ/mol
# Density = 1.698539 g / cm^3
# Si number density = 17.024137 Si / 1000 Ang^3
#
#
#
# Elastic Constant Matrix: (Units=GPa)
#
#
# Indices 1 2 3 4 5 6 
#
# 1 105.5216 32.5427 61.7226 0.0000 0.0000 0.0000
# 2 32.5427 63.4635 44.1618 0.0000 0.0000 0.0000
# 3 61.7226 44.1618 112.7225 0.0000 0.0000 0.0000
# 4 0.0000 0.0000 0.0000 23.3264 0.0000 0.0000
# 5 0.0000 0.0000 0.0000 0.0000 26.8787 0.0000
# 6 0.0000 0.0000 0.0000 0.0000 0.0000 19.3348
#
#
#
# Elastic Compliance Matrix: (Units=1/GPa)
#
#
# Indices 1 2 3 4 5 6 
#
# 1 0.014243 -0.002580 -0.006788 0.000000 0.000000 0.000000
# 2 -0.002580 0.022130 -0.007257 0.000000 0.000000 0.000000
# 3 -0.006788 -0.007257 0.015432 0.000000 0.000000 0.000000
# 4 0.000000 0.000000 0.000000 0.042870 0.000000 0.000000
# 5 0.000000 0.000000 0.000000 0.000000 0.037204 0.000000
# 6 0.000000 0.000000 0.000000 0.000000 0.000000 0.051720
#
#
# Mechanical properties :
#
#
# Convention : Reuss Voigt Hill
#
# Bulk Modulus (GPa) = 53.89734 62.06241 57.97987
# Shear Modulus (GPa) = 22.41806 23.46000 22.93903
#
# Velocity S-wave (km/s) = 3.63277 3.71623 3.67473
# Velocity P-wave (km/s) = 7.02311 7.41272 7.22055
#
# Compressibility (1/GPa) = 0.01855379
#
# Stress axis : x y z
#
# Youngs Moduli (GPa) = 70.21015 45.18730 64.80225
#
# Poissons Ratio (x) = 0.11658 0.43989
# Poissons Ratio (y) = 0.18113 0.47030
# Poissons Ratio (z) = 0.47660 0.32794
#
# Static dielectric constant tensor:
#      x y z
#    x 3.202240 0.000000 0.000000 
#    y 0.000000 2.944850 0.000000 
#    z 0.000000 0.000000 3.358300 
# 
# 
# High freq. dielectric constant tensor:
#      x y z
#    x 1.647920 0.000000 0.000000 
#    y 0.000000 1.627850 0.000000 
#    z 0.000000 0.000000 1.662010 
# 
# From -- ./inp_files/64087.got.cif
#   From: 2010.03.12/outbox.cif.g09.slc.cpg/sg63_33_cif.got.tgz:64087.got - 2010.04.10 19:34:48.
