data_PCOD8256199
_publ_section_title
;
Structure prediction by ZEFSAII (Michael W. Deem and Ramdas Pophale) SiO2 
 PCOD8256199
Probable space group: C M C M
;
_chemical_formula_sum "Si O2"
_cell_formula_units_Z 96
_cell_length_a 25.418133
_cell_length_b 23.605771
_cell_length_c 8.607890
_cell_angle_alpha 90.000000
_cell_angle_beta 90.000000
_cell_angle_gamma 90.000000
_cell_volume 5164.859906
_symmetry_space_group_name_H-M "C M C M"
_symmetry_group_IT_number 63
_symmetry_cell_setting 'orthorhombic'
loop_
_space_group_symop_operation_xyz
x,y,z
-x,-y,1/2+z
x,-y,-z
-x,y,1/2-z
-x,-y,-z
x,y,1/2-z
-x,y,z
x,-y,1/2+z
1/2+x,1/2+y,z
1/2-x,1/2-y,1/2+z
1/2+x,1/2-y,-z
1/2-x,1/2+y,1/2-z
1/2-x,1/2-y,-z
1/2+x,1/2+y,1/2-z
1/2-x,1/2+y,z
1/2+x,1/2-y,1/2+z
loop_
_atom_site_type_symbol
_atom_site_label
_atom_site_fract_x
_atom_site_fract_y
_atom_site_fract_z
Si Si1 0.805291 0.060611 0.565649
Si Si2 0.500000 0.562136 0.565149
Si Si3 0.807541 0.560415 0.433019
Si Si4 0.061514 0.255299 0.567051
Si Si5 0.100713 0.369081 0.432665
Si Si6 0.597468 0.633460 0.933923
Si Si7 0.000000 0.562100 0.933529
O O1 0.802214 0.056165 0.750000
O O2 0.748819 0.078338 0.500073
O O3 0.846630 0.108432 0.510239
O O4 0.823543 0.000000 0.500000
O O5 0.500000 0.500000 0.500000
O O6 0.500000 0.560615 0.750000
O O7 0.448916 0.594317 0.498941
O O8 0.826474 0.500000 0.500000
O O9 0.803391 0.554584 0.250000
O O10 0.847979 0.609266 0.478679
O O11 0.068952 0.265052 0.750000
O O12 0.091157 0.303957 0.473038
O O13 0.089293 0.197649 0.508567
O O14 0.000000 0.253562 0.523322
O O15 0.109125 0.376465 0.250000
O O16 0.051172 0.405066 0.494568
O O17 0.593570 0.632758 0.750000
O O18 0.000000 0.559490 0.750000
O O19 0.000000 0.500000 0.000000
#
# Coordination Sequence:
#
# PCOD8256199 Si02
#       7
#    16   8  16  16  16  16   8
#     4  10  19  34  56  82 112 148 185 229 279 330
#     4  10  18  31  50  78 112 145 179 226 277 330
#     4  11  22  38  59  84 111 145 185 227 276 331
#     4  10  19  35  58  81 107 148 192 228 270 327
#     4  11  22  38  56  81 113 145 181 226 276 329
#     4   9  18  33  55  80 110 146 188 228 273 328
#     4  10  22  35  52  78 110 139 169 212 265 322
#
# _framework density 18.587145
#
# number of rings (size 3 to 8) (size 9 to 14) (size 15 to 20)
#    0.000    1.833    1.667    4.500    0.000    2.667 
#    0.000    4.167    0.000    0.000    0.000    0.000 
#    0.000    0.000    0.000    0.000    0.000    0.000 
#
# Total GULP energy -595319.132713 kJ/mol
# GULP energy per Si atom -12402.481932 kJ/mol
# Density = 1.854484 g / cm^3
# Si number density = 18.587145 Si / 1000 Ang^3
#
#
#
# Elastic Constant Matrix: (Units=GPa)
#
#
# Indices 1 2 3 4 5 6 
#
# 1 134.7739 83.2501 38.6465 0.0000 0.0000 0.0000
# 2 83.2501 151.2273 27.3459 0.0000 0.0000 0.0000
# 3 38.6465 27.3459 64.9226 0.0000 0.0000 0.0000
# 4 0.0000 0.0000 0.0000 30.3059 0.0000 0.0000
# 5 0.0000 0.0000 0.0000 0.0000 11.9028 0.0000
# 6 0.0000 0.0000 0.0000 0.0000 0.0000 35.5922
#
#
#
# Elastic Compliance Matrix: (Units=1/GPa)
#
#
# Indices 1 2 3 4 5 6 
#
# 1 0.012553 -0.006017 -0.004938 0.000000 0.000000 0.000000
# 2 -0.006017 0.010042 -0.000648 0.000000 0.000000 0.000000
# 3 -0.004938 -0.000648 0.018615 0.000000 0.000000 0.000000
# 4 0.000000 0.000000 0.000000 0.032997 0.000000 0.000000
# 5 0.000000 0.000000 0.000000 0.000000 0.084014 0.000000
# 6 0.000000 0.000000 0.000000 0.000000 0.000000 0.028096
#
#
# Mechanical properties :
#
#
# Convention : Reuss Voigt Hill
#
# Bulk Modulus (GPa) = 55.54278 72.15653 63.84966
# Shear Modulus (GPa) = 23.19929 29.00560 26.10245
#
# Velocity S-wave (km/s) = 3.53673 3.95463 3.75150
# Velocity P-wave (km/s) = 6.82826 7.73027 7.29322
#
# Compressibility (1/GPa) = 0.01800414
#
# Stress axis : x y z
#
# Youngs Moduli (GPa) = 79.66475 99.57947 53.71978
#
# Poissons Ratio (x) = 0.59920 0.26525
# Poissons Ratio (y) = 0.47937 0.03481
# Poissons Ratio (z) = 0.39336 0.06452
#
# Static dielectric constant tensor:
#      x y z
#    x 3.592880 0.000000 0.000000 
#    y 0.000000 3.461360 0.000000 
#    z 0.000000 0.000000 3.354220 
# 
# 
# High freq. dielectric constant tensor:
#      x y z
#    x 1.726560 0.000000 0.000000 
#    y 0.000000 1.723730 0.000000 
#    z 0.000000 0.000000 1.710720 
# 
# From -- ./inp_files/10512.got.cif
#   From: 2010.03.12/outbox.cif.g09.slc.cpg/sg63_6_cif.got.tgz:10512.got - 2010.04.10 19:34:48.
