data_PCOD8256318
_publ_section_title
;
Structure prediction by ZEFSAII (Michael W. Deem and Ramdas Pophale) SiO2 
 PCOD8256318
Probable space group: C M C M
;
_chemical_formula_sum "Si O2"
_cell_formula_units_Z 72
_cell_length_a 32.979356
_cell_length_b 14.426734
_cell_length_c 8.765496
_cell_angle_alpha 90.000000
_cell_angle_beta 90.000000
_cell_angle_gamma 90.000000
_cell_volume 4170.486224
_symmetry_space_group_name_H-M "C M C M"
_symmetry_group_IT_number 63
_symmetry_cell_setting 'orthorhombic'
loop_
_space_group_symop_operation_xyz
x,y,z
-x,-y,1/2+z
x,-y,-z
-x,y,1/2-z
-x,-y,-z
x,y,1/2-z
-x,y,z
x,-y,1/2+z
1/2+x,1/2+y,z
1/2-x,1/2-y,1/2+z
1/2+x,1/2-y,-z
1/2-x,1/2+y,1/2-z
1/2-x,1/2-y,-z
1/2+x,1/2+y,1/2-z
1/2-x,1/2+y,z
1/2+x,1/2-y,1/2+z
loop_
_atom_site_type_symbol
_atom_site_label
_atom_site_fract_x
_atom_site_fract_y
_atom_site_fract_z
Si Si1 0.000000 0.397728 0.931955
Si Si2 0.759810 0.653507 0.073629
Si Si3 0.846829 0.291934 0.926479
Si Si4 0.918509 0.601085 0.929944
Si Si5 0.184165 0.909880 0.071138
O O1 0.000000 0.396850 0.750000
O O2 0.000000 0.500000 0.000000
O O3 0.041151 0.351537 0.996567
O O4 0.747757 0.653890 0.250000
O O5 0.808180 0.639026 0.052774
O O6 0.750000 0.750000 0.000000
O O7 0.730964 0.581406 0.986535
O O8 0.860666 0.292147 0.750000
O O9 0.836698 0.186622 0.979978
O O10 0.881959 0.329743 0.034092
O O11 0.924121 0.590278 0.750000
O O12 0.909696 0.500000 0.000000
O O13 0.183769 0.918121 0.250000
O O14 0.161201 0.000000 0.000000
#
# Coordination Sequence:
#
# PCOD8256318 Si02
#       5
#     8  16  16  16  16
#     4  10  18  32  52  72  99 128 155 190 232 286
#     4   9  17  30  47  65  90 122 159 201 244 287
#     4   9  19  34  49  70  98 128 163 204 245 287
#     4  11  21  33  51  74 100 129 160 195 236 287
#     4  10  20  33  50  70  96 130 169 209 249 292
#
# _framework density 17.264174000000001
#
# number of rings (size 3 to 8) (size 9 to 14) (size 15 to 20)
#    0.000    2.222    0.000    7.000    0.000    6.222 
#    0.000    0.000    0.000    0.000    0.000    0.778 
#    0.000    0.000    0.000    0.000    0.000    0.000 
#
# Total GULP energy -446062.355777 kJ/mol
# GULP energy per Si atom -12390.620994 kJ/mol
# Density = 1.722488 g / cm^3
# Si number density = 17.264174 Si / 1000 Ang^3
#
#
#
# Elastic Constant Matrix: (Units=GPa)
#
#
# Indices 1 2 3 4 5 6 
#
# 1 104.2065 39.5646 53.9528 0.0000 0.0000 0.0000
# 2 39.5646 79.3550 36.5909 0.0000 0.0000 0.0000
# 3 53.9528 36.5909 116.8815 0.0000 0.0000 0.0000
# 4 0.0000 0.0000 0.0000 27.6748 0.0000 0.0000
# 5 0.0000 0.0000 0.0000 0.0000 31.5256 0.0000
# 6 0.0000 0.0000 0.0000 0.0000 0.0000 16.6963
#
#
#
# Elastic Compliance Matrix: (Units=1/GPa)
#
#
# Indices 1 2 3 4 5 6 
#
# 1 0.013941 -0.004655 -0.004978 0.000000 0.000000 0.000000
# 2 -0.004655 0.016282 -0.002948 0.000000 0.000000 0.000000
# 3 -0.004978 -0.002948 0.011776 0.000000 0.000000 0.000000
# 4 0.000000 0.000000 0.000000 0.036134 0.000000 0.000000
# 5 0.000000 0.000000 0.000000 0.000000 0.031720 0.000000
# 6 0.000000 0.000000 0.000000 0.000000 0.000000 0.059894
#
#
# Mechanical properties :
#
#
# Convention : Reuss Voigt Hill
#
# Bulk Modulus (GPa) = 59.39452 62.29550 60.84501
# Shear Modulus (GPa) = 24.93480 26.53498 25.73489
#
# Velocity S-wave (km/s) = 3.80453 3.92471 3.86509
# Velocity P-wave (km/s) = 7.33330 7.52993 7.43226
#
# Compressibility (1/GPa) = 0.01683657
#
# Stress axis : x y z
#
# Youngs Moduli (GPa) = 71.73004 61.41686 84.91510
#
# Poissons Ratio (x) = 0.28592 0.42269
# Poissons Ratio (y) = 0.33393 0.25036
# Poissons Ratio (z) = 0.35706 0.18108
#
# Static dielectric constant tensor:
#      x y z
#    x 3.684180 0.000000 0.000000 
#    y 0.000000 3.260710 0.000000 
#    z 0.000000 0.000000 3.009910 
# 
# 
# High freq. dielectric constant tensor:
#      x y z
#    x 1.652230 0.000000 0.000000 
#    y 0.000000 1.641800 0.000000 
#    z 0.000000 0.000000 1.682250 
# 
# From -- ./inp_files/13911.got.cif
#   From: 2010.03.12/outbox.cif.g09.slc.cpg/sg63_7_cif.got.tgz:13911.got - 2010.04.10 19:34:48.
