data_PCOD8256031
_publ_section_title
;
Structure prediction by ZEFSAII (Michael W. Deem and Ramdas Pophale) SiO2 
 PCOD8256031
Probable space group: C M C M
;
_chemical_formula_sum "Si O2"
_cell_formula_units_Z 96
_cell_length_a 8.509645
_cell_length_b 27.386779
_cell_length_c 24.056428
_cell_angle_alpha 90.000000
_cell_angle_beta 90.000000
_cell_angle_gamma 90.000000
_cell_volume 5606.393053
_symmetry_space_group_name_H-M "C M C M"
_symmetry_group_IT_number 63
_symmetry_cell_setting 'orthorhombic'
loop_
_space_group_symop_operation_xyz
x,y,z
-x,-y,1/2+z
x,-y,-z
-x,y,1/2-z
-x,-y,-z
x,y,1/2-z
-x,y,z
x,-y,1/2+z
1/2+x,1/2+y,z
1/2-x,1/2-y,1/2+z
1/2+x,1/2-y,-z
1/2-x,1/2+y,1/2-z
1/2-x,1/2-y,-z
1/2+x,1/2+y,1/2-z
1/2-x,1/2+y,z
1/2+x,1/2-y,1/2+z
loop_
_atom_site_type_symbol
_atom_site_label
_atom_site_fract_x
_atom_site_fract_y
_atom_site_fract_z
Si Si1 0.318260 0.325356 0.023501
Si Si2 0.315216 0.262894 0.583364
Si Si3 0.184520 0.986536 0.582713
Si Si4 0.813353 0.069909 0.311415
Si Si5 0.186541 0.820879 0.811526
Si Si6 0.681785 0.070819 0.983200
O O1 0.500000 0.339250 0.027292
O O2 0.274704 0.302297 0.964036
O O3 0.275272 0.287426 0.072162
O O4 0.216851 0.373682 0.032630
O O5 0.500000 0.251955 0.584731
O O6 0.249304 0.284027 0.641612
O O7 0.250690 0.966895 0.641701
O O8 0.215865 0.945424 0.536181
O O9 0.000000 0.997252 0.585107
O O10 0.274799 0.036590 0.569156
O O11 0.760343 0.051772 0.250000
O O12 0.747206 0.124547 0.322148
O O13 0.000000 0.072053 0.315088
O O14 0.238528 0.802715 0.750000
O O15 0.000000 0.822634 0.815828
O O16 0.500000 0.064160 0.997801
#
# Coordination Sequence:
#
# PCOD8256031 Si02
#       6
#    16  16  16  16  16  16
#     4  10  19  31  47  67  91 120 153 188 228 272
#     4   9  17  29  46  69  94 119 148 184 225 268
#     4  10  18  30  49  71  95 122 153 188 227 273
#     4   8  14  25  44  71  98 122 149 183 223 268
#     4   8  13  23  42  68  95 120 146 177 216 265
#     4  11  21  32  46  66  94 124 155 191 230 272
#
# _framework density 17.123308999999999
#
# number of rings (size 3 to 8) (size 9 to 14) (size 15 to 20)
#    0.000    2.667    0.000    5.500    0.000    3.333 
#    0.000    0.000    0.000    3.500    0.000    4.667 
#    0.000    0.000    0.000    0.000    0.000    0.000 
#
# Total GULP energy -595091.351812 kJ/mol
# GULP energy per Si atom -12397.736496 kJ/mol
# Density = 1.708434 g / cm^3
# Si number density = 17.123309 Si / 1000 Ang^3
#
#
#
# Elastic Constant Matrix: (Units=GPa)
#
#
# Indices 1 2 3 4 5 6 
#
# 1 35.5347 20.2766 11.2731 0.0000 0.0000 0.0000
# 2 20.2766 108.8660 62.1370 0.0000 0.0000 0.0000
# 3 11.2731 62.1370 131.5746 0.0000 0.0000 0.0000
# 4 0.0000 0.0000 0.0000 28.9799 0.0000 0.0000
# 5 0.0000 0.0000 0.0000 0.0000 11.2642 0.0000
# 6 0.0000 0.0000 0.0000 0.0000 0.0000 23.2880
#
#
#
# Elastic Compliance Matrix: (Units=1/GPa)
#
#
# Indices 1 2 3 4 5 6 
#
# 1 0.031489 -0.005921 0.000098 0.000000 0.000000 0.000000
# 2 -0.005921 0.013689 -0.005957 0.000000 0.000000 0.000000
# 3 0.000098 -0.005957 0.010405 0.000000 0.000000 0.000000
# 4 0.000000 0.000000 0.000000 0.034507 0.000000 0.000000
# 5 0.000000 0.000000 0.000000 0.000000 0.088777 0.000000
# 6 0.000000 0.000000 0.000000 0.000000 0.000000 0.042941
#
#
# Mechanical properties :
#
#
# Convention : Reuss Voigt Hill
#
# Bulk Modulus (GPa) = 31.22772 51.48317 41.35545
# Shear Modulus (GPa) = 19.52813 24.85899 22.19356
#
# Velocity S-wave (km/s) = 3.38071 3.81433 3.60405
# Velocity P-wave (km/s) = 5.78925 7.03777 6.44382
#
# Compressibility (1/GPa) = 0.03202283
#
# Stress axis : x y z
#
# Youngs Moduli (GPa) = 31.75721 73.05351 96.10606
#
# Poissons Ratio (x) = 0.43255 -0.00945
# Poissons Ratio (y) = 0.18804 0.57253
# Poissons Ratio (z) = -0.00312 0.43520
#
# Static dielectric constant tensor:
#      x y z
#    x 2.916560 0.000000 0.000000 
#    y 0.000000 3.180020 0.000000 
#    z 0.000000 0.000000 3.414600 
# 
# 
# High freq. dielectric constant tensor:
#      x y z
#    x 1.638820 0.000000 0.000000 
#    y 0.000000 1.650740 0.000000 
#    z 0.000000 0.000000 1.653000 
# 
# From -- ./inp_files/60195.got.cif
#   From: 2010.03.12/outbox.cif.g09.slc.cpg/sg63_31_cif.got.tgz:60195.got - 2010.04.10 19:34:48.
