data_PCOD8256516
_publ_section_title
;
Structure prediction by ZEFSAII (Michael W. Deem and Ramdas Pophale) SiO2 
 PCOD8256516
Probable space group: C M C M
;
_chemical_formula_sum "Si O2"
_cell_formula_units_Z 96
_cell_length_a 8.978627
_cell_length_b 25.166291
_cell_length_c 23.577094
_cell_angle_alpha 90.000000
_cell_angle_beta 90.000000
_cell_angle_gamma 90.000000
_cell_volume 5327.450450
_symmetry_space_group_name_H-M "C M C M"
_symmetry_group_IT_number 63
_symmetry_cell_setting 'orthorhombic'
loop_
_space_group_symop_operation_xyz
x,y,z
-x,-y,1/2+z
x,-y,-z
-x,y,1/2-z
-x,-y,-z
x,y,1/2-z
-x,y,z
x,-y,1/2+z
1/2+x,1/2+y,z
1/2-x,1/2-y,1/2+z
1/2+x,1/2-y,-z
1/2-x,1/2+y,1/2-z
1/2-x,1/2-y,-z
1/2+x,1/2+y,1/2-z
1/2-x,1/2+y,z
1/2+x,1/2-y,1/2+z
loop_
_atom_site_type_symbol
_atom_site_label
_atom_site_fract_x
_atom_site_fract_y
_atom_site_fract_z
Si Si1 0.673219 0.279327 0.250000
Si Si2 0.323665 0.107161 0.750000
Si Si3 0.324441 0.477014 0.941694
Si Si4 0.325264 0.768827 0.630344
Si Si5 0.176895 0.142007 0.435934
Si Si6 0.323416 0.331446 0.439425
Si Si7 0.824438 0.071834 0.862062
O O1 0.500000 0.295995 0.250000
O O2 0.767226 0.332716 0.250000
O O3 0.713837 0.244563 0.195212
O O4 0.500000 0.107310 0.750000
O O5 0.264437 0.075295 0.696018
O O6 0.500000 0.473042 0.950588
O O7 0.262735 0.418107 0.929027
O O8 0.284124 0.515168 0.889506
O O9 0.254243 0.500000 0.000000
O O10 0.500000 0.775995 0.621555
O O11 0.244876 0.823518 0.614770
O O12 0.262240 0.722014 0.589857
O O13 0.235013 0.164904 0.496212
O O14 0.000000 0.144548 0.431979
O O15 0.500000 0.332031 0.438573
O O16 0.266707 0.382133 0.404128
O O17 0.000000 0.077683 0.850234
#
# Coordination Sequence:
#
# PCOD8256516 Si02
#       7
#     8   8  16  16  16  16  16
#     4  10  20  38  61  76  97 141 194 228 256 317
#     4  12  24  36  53  82 115 139 172 226 280 319
#     4   9  16  30  57  85 105 133 181 229 264 307
#     4  10  20  34  52  77 106 143 185 217 260 328
#     4  10  19  32  52  83 114 139 171 221 274 315
#     4   9  16  29  54  81 106 136 176 219 261 315
#     4  10  18  34  59  82 106 142 183 220 261 318
#
# _framework density 18.019877000000001
#
# number of rings (size 3 to 8) (size 9 to 14) (size 15 to 20)
#    0.000    2.167    3.333    1.250    0.000    0.667 
#    0.000    2.500    0.000    4.000    0.000    0.000 
#    0.000    0.000    0.000    0.000    0.000    0.000 
#
# Total GULP energy -595224.811919 kJ/mol
# GULP energy per Si atom -12400.516915 kJ/mol
# Density = 1.797886 g / cm^3
# Si number density = 18.019877 Si / 1000 Ang^3
#
#
#
# Elastic Constant Matrix: (Units=GPa)
#
#
# Indices 1 2 3 4 5 6 
#
# 1 42.8934 37.2646 45.3142 0.0000 0.0000 0.0000
# 2 37.2646 162.7818 80.7067 0.0000 0.0000 0.0000
# 3 45.3142 80.7067 141.7196 0.0000 0.0000 0.0000
# 4 0.0000 0.0000 0.0000 26.4906 0.0000 0.0000
# 5 0.0000 0.0000 0.0000 0.0000 18.6417 0.0000
# 6 0.0000 0.0000 0.0000 0.0000 0.0000 22.6672
#
#
#
# Elastic Compliance Matrix: (Units=1/GPa)
#
#
# Indices 1 2 3 4 5 6 
#
# 1 0.036656 -0.003596 -0.009673 0.000000 0.000000 0.000000
# 2 -0.003596 0.008913 -0.003926 0.000000 0.000000 0.000000
# 3 -0.009673 -0.003926 0.012385 0.000000 0.000000 0.000000
# 4 0.000000 0.000000 0.000000 0.037749 0.000000 0.000000
# 5 0.000000 0.000000 0.000000 0.000000 0.053643 0.000000
# 6 0.000000 0.000000 0.000000 0.000000 0.000000 0.044117
#
#
# Mechanical properties :
#
#
# Convention : Reuss Voigt Hill
#
# Bulk Modulus (GPa) = 42.43634 74.88507 58.66071
# Shear Modulus (GPa) = 21.21274 25.83386 23.52330
#
# Velocity S-wave (km/s) = 3.43474 3.79044 3.61696
# Velocity P-wave (km/s) = 6.27142 7.79767 7.07582
#
# Compressibility (1/GPa) = 0.02356471
#
# Stress axis : x y z
#
# Youngs Moduli (GPa) = 27.28037 112.19802 80.74356
#
# Poissons Ratio (x) = 0.40342 0.78104
# Poissons Ratio (y) = 0.09809 0.31700
# Poissons Ratio (z) = 0.26388 0.44049
#
# Static dielectric constant tensor:
#      x y z
#    x 2.872120 0.000000 0.000000 
#    y 0.000000 3.474790 0.000000 
#    z 0.000000 0.000000 3.435900 
# 
# 
# High freq. dielectric constant tensor:
#      x y z
#    x 1.653100 0.000000 0.000000 
#    y 0.000000 1.702550 0.000000 
#    z 0.000000 0.000000 1.702810 
# 
# From -- ./inp_files/59997.got.cif
#   From: 2010.03.12/outbox.cif.g09.slc.cpg/sg63_30_cif.got.tgz:59997.got - 2010.04.10 19:34:48.
