data_PCOD8256144
_publ_section_title
;
Structure prediction by ZEFSAII (Michael W. Deem and Ramdas Pophale) SiO2 
 PCOD8256144
Probable space group: C M C M
;
_chemical_formula_sum "Si O2"
_cell_formula_units_Z 72
_cell_length_a 9.482436
_cell_length_b 22.764619
_cell_length_c 18.280967
_cell_angle_alpha 90.000000
_cell_angle_beta 90.000000
_cell_angle_gamma 90.000000
_cell_volume 3946.203442
_symmetry_space_group_name_H-M "C M C M"
_symmetry_group_IT_number 63
_symmetry_cell_setting 'orthorhombic'
loop_
_space_group_symop_operation_xyz
x,y,z
-x,-y,1/2+z
x,-y,-z
-x,y,1/2-z
-x,-y,-z
x,y,1/2-z
-x,y,z
x,-y,1/2+z
1/2+x,1/2+y,z
1/2-x,1/2-y,1/2+z
1/2+x,1/2-y,-z
1/2-x,1/2+y,1/2-z
1/2-x,1/2-y,-z
1/2+x,1/2+y,1/2-z
1/2-x,1/2+y,z
1/2+x,1/2-y,1/2+z
loop_
_atom_site_type_symbol
_atom_site_label
_atom_site_fract_x
_atom_site_fract_y
_atom_site_fract_z
Si Si1 0.333949 0.560490 0.750000
Si Si2 0.662330 0.809069 0.495394
Si Si3 0.155890 0.594380 0.112507
Si Si4 0.168218 0.070196 0.250000
Si Si5 0.341558 0.395260 0.404271
Si Si6 0.242439 0.000000 0.000000
O O1 0.500000 0.552891 0.750000
O O2 0.270588 0.495495 0.750000
O O3 0.284631 0.593697 0.677467
O O4 0.500000 0.795554 0.475179
O O5 0.750000 0.750000 0.500000
O O6 0.673802 0.843933 0.571150
O O7 0.730249 0.848661 0.432611
O O8 0.272495 0.598576 0.175805
O O9 0.167609 0.539594 0.056260
O O10 0.000000 0.590262 0.147372
O O11 0.000000 0.076612 0.250000
O O12 0.500000 0.368912 0.403998
O O13 0.350065 0.455571 0.451069
#
# Coordination Sequence:
#
# PCOD8256144 Si02
#       6
#     8  16  16   8  16   8
#     4   9  18  33  50  79 118 151 182 218 267 329
#     4  10  22  40  60  82 108 141 189 237 280 331
#     4  10  21  36  55  81 114 148 184 229 280 330
#     4  11  21  35  54  83 118 151 188 224 267 333
#     4  10  19  33  55  81 113 150 186 227 274 324
#     4  10  18  30  54  84 112 146 188 226 270 330
#
# _framework density 18.245384999999999
#
# number of rings (size 3 to 8) (size 9 to 14) (size 15 to 20)
#    0.000    2.000    2.222    1.667    0.000    5.333 
#    0.000    1.667    0.000    2.667    0.000    0.000 
#    0.000    0.000    0.000    0.000    0.000    0.000 
#
# Total GULP energy -446246.679118 kJ/mol
# GULP energy per Si atom -12395.741087 kJ/mol
# Density = 1.820386 g / cm^3
# Si number density = 18.245385 Si / 1000 Ang^3
#
#
#
# Elastic Constant Matrix: (Units=GPa)
#
#
# Indices 1 2 3 4 5 6 
#
# 1 135.7195 57.3500 62.1552 0.0000 0.0000 0.0000
# 2 57.3500 106.0576 43.9078 0.0000 0.0000 0.0000
# 3 62.1552 43.9078 131.7715 0.0000 0.0000 0.0000
# 4 0.0000 0.0000 0.0000 12.1540 0.0000 0.0000
# 5 0.0000 0.0000 0.0000 0.0000 31.7483 0.0000
# 6 0.0000 0.0000 0.0000 0.0000 0.0000 24.7751
#
#
#
# Elastic Compliance Matrix: (Units=1/GPa)
#
#
# Indices 1 2 3 4 5 6 
#
# 1 0.010903 -0.004369 -0.003687 0.000000 0.000000 0.000000
# 2 -0.004369 0.012689 -0.002167 0.000000 0.000000 0.000000
# 3 -0.003687 -0.002167 0.010050 0.000000 0.000000 0.000000
# 4 0.000000 0.000000 0.000000 0.082277 0.000000 0.000000
# 5 0.000000 0.000000 0.000000 0.000000 0.031498 0.000000
# 6 0.000000 0.000000 0.000000 0.000000 0.000000 0.040363
#
#
# Mechanical properties :
#
#
# Convention : Reuss Voigt Hill
#
# Bulk Modulus (GPa) = 75.78549 77.81937 76.80243
# Shear Modulus (GPa) = 23.51560 27.74454 25.63007
#
# Velocity S-wave (km/s) = 3.59395 3.90376 3.75206
# Velocity P-wave (km/s) = 7.67131 7.94124 7.80744
#
# Compressibility (1/GPa) = 0.01319514
#
# Stress axis : x y z
#
# Youngs Moduli (GPa) = 91.71852 78.81039 99.50210
#
# Poissons Ratio (x) = 0.34435 0.36685
# Poissons Ratio (y) = 0.40075 0.21563
# Poissons Ratio (z) = 0.33816 0.17079
#
# Static dielectric constant tensor:
#      x y z
#    x 3.292690 0.000000 0.000000 
#    y 0.000000 3.323670 0.000000 
#    z 0.000000 0.000000 4.026340 
# 
# 
# High freq. dielectric constant tensor:
#      x y z
#    x 1.707230 0.000000 0.000000 
#    y 0.000000 1.692090 0.000000 
#    z 0.000000 0.000000 1.710790 
# 
# From -- ./inp_files/40271.got.cif
#   From: 2010.03.12/outbox.cif.g09.slc.cpg/sg63_21_cif.got.tgz:40271.got - 2010.04.10 19:34:48.
