data_PCOD8256170
_publ_section_title
;
Structure prediction by ZEFSAII (Michael W. Deem and Ramdas Pophale) SiO2 
 PCOD8256170
Probable space group: C M C M
;
_chemical_formula_sum "Si O2"
_cell_formula_units_Z 88
_cell_length_a 18.984141
_cell_length_b 28.011373
_cell_length_c 9.205364
_cell_angle_alpha 90.000000
_cell_angle_beta 90.000000
_cell_angle_gamma 90.000000
_cell_volume 4895.153487
_symmetry_space_group_name_H-M "C M C M"
_symmetry_group_IT_number 63
_symmetry_cell_setting 'orthorhombic'
loop_
_space_group_symop_operation_xyz
x,y,z
-x,-y,1/2+z
x,-y,-z
-x,y,1/2-z
-x,-y,-z
x,y,1/2-z
-x,y,z
x,-y,1/2+z
1/2+x,1/2+y,z
1/2-x,1/2-y,1/2+z
1/2+x,1/2-y,-z
1/2-x,1/2+y,1/2-z
1/2-x,1/2-y,-z
1/2+x,1/2+y,1/2-z
1/2-x,1/2+y,z
1/2+x,1/2-y,1/2+z
loop_
_atom_site_type_symbol
_atom_site_label
_atom_site_fract_x
_atom_site_fract_y
_atom_site_fract_z
Si Si1 0.362967 0.817744 0.583097
Si Si2 0.000000 0.203665 0.971956
Si Si3 0.776609 0.868925 0.580766
Si Si4 0.155223 0.213332 0.592372
Si Si5 0.000000 0.100022 0.579961
Si Si6 0.645548 0.549779 0.921453
Si Si7 0.500000 0.803703 0.411526
O O1 0.386982 0.817001 0.750000
O O2 0.306061 0.859159 0.553821
O O3 0.324952 0.767201 0.544136
O O4 0.431594 0.826237 0.487188
O O5 0.000000 0.245459 0.094296
O O6 0.929017 0.211602 0.881123
O O7 0.000000 0.147688 0.021223
O O8 0.793059 0.877947 0.750000
O O9 0.821905 0.823308 0.531032
O O10 0.796391 0.914467 0.485161
O O11 0.189445 0.200570 0.750000
O O12 0.067901 0.068830 0.541420
O O13 0.000000 0.115241 0.750000
O O14 0.657127 0.544087 0.750000
O O15 0.656706 0.500000 0.000000
O O16 0.500000 0.823421 0.250000
#
# Coordination Sequence:
#
# PCOD8256170 Si02
#       7
#    16   8  16  16   8  16   8
#     4   9  20  36  53  74 106 146 178 210 263 323
#     4  10  18  31  48  74 107 146 184 221 265 315
#     4  11  22  35  52  77 106 138 178 222 268 322
#     4  10  18  31  51  73 103 144 184 222 262 311
#     4  10  19  35  56  75 102 141 186 225 269 319
#     4  11  23  40  58  78 103 138 182 231 280 323
#     4  10  21  34  52  81 111 138 178 225 262 307
#
# _framework density 17.976963999999999
#
# number of rings (size 3 to 8) (size 9 to 14) (size 15 to 20)
#    0.000    1.818    1.818    3.000    0.000    7.273 
#    0.000    1.364    0.000    0.000    0.000    0.636 
#    0.000    0.000    0.000    0.000    0.000    0.000 
#
# Total GULP energy -545401.323474 kJ/mol
# GULP energy per Si atom -12395.484624 kJ/mol
# Density = 1.793605 g / cm^3
# Si number density = 17.976964 Si / 1000 Ang^3
#
#
#
# Elastic Constant Matrix: (Units=GPa)
#
#
# Indices 1 2 3 4 5 6 
#
# 1 93.1065 51.1002 53.9437 0.0000 0.0000 0.0000
# 2 51.1002 102.5361 47.6506 0.0000 0.0000 0.0000
# 3 53.9437 47.6506 103.7479 0.0000 0.0000 0.0000
# 4 0.0000 0.0000 0.0000 27.1081 0.0000 0.0000
# 5 0.0000 0.0000 0.0000 0.0000 16.2706 0.0000
# 6 0.0000 0.0000 0.0000 0.0000 0.0000 22.9420
#
#
#
# Elastic Compliance Matrix: (Units=1/GPa)
#
#
# Indices 1 2 3 4 5 6 
#
# 1 0.017710 -0.005780 -0.006553 0.000000 0.000000 0.000000
# 2 -0.005780 0.014286 -0.003556 0.000000 0.000000 0.000000
# 3 -0.006553 -0.003556 0.014679 0.000000 0.000000 0.000000
# 4 0.000000 0.000000 0.000000 0.036889 0.000000 0.000000
# 5 0.000000 0.000000 0.000000 0.000000 0.061461 0.000000
# 6 0.000000 0.000000 0.000000 0.000000 0.000000 0.043588
#
#
# Mechanical properties :
#
#
# Convention : Reuss Voigt Hill
#
# Bulk Modulus (GPa) = 67.13305 67.19773 67.16539
# Shear Modulus (GPa) = 22.18699 23.04387 22.61543
#
# Velocity S-wave (km/s) = 3.51692 3.58419 3.55071
# Velocity P-wave (km/s) = 7.34279 7.38848 7.36567
#
# Compressibility (1/GPa) = 0.01489579
#
# Stress axis : x y z
#
# Youngs Moduli (GPa) = 56.46628 69.99911 68.12320
#
# Poissons Ratio (x) = 0.40462 0.44643
# Poissons Ratio (y) = 0.32640 0.24224
# Poissons Ratio (z) = 0.37004 0.24891
#
# Static dielectric constant tensor:
#      x y z
#    x 3.348750 0.000000 0.000000 
#    y 0.000000 3.225990 0.000000 
#    z 0.000000 0.000000 3.185620 
# 
# 
# High freq. dielectric constant tensor:
#      x y z
#    x 1.692260 0.000000 0.000000 
#    y 0.000000 1.669880 0.000000 
#    z 0.000000 0.000000 1.692690 
# 
# From -- ./inp_files/6942.got.cif
#   From: 2010.03.12/outbox.cif.g09.slc.cpg/sg63_4_cif.got.tgz:6942.got - 2010.04.10 19:34:48.
