data_PCOD8256482
_publ_section_title
;
Structure prediction by ZEFSAII (Michael W. Deem and Ramdas Pophale) SiO2 
 PCOD8256482
Probable space group: C M C M
;
_chemical_formula_sum "Si O2"
_cell_formula_units_Z 128
_cell_length_a 20.548501
_cell_length_b 11.355435
_cell_length_c 30.785669
_cell_angle_alpha 90.000000
_cell_angle_beta 90.000000
_cell_angle_gamma 90.000000
_cell_volume 7183.440803
_symmetry_space_group_name_H-M "C M C M"
_symmetry_group_IT_number 63
_symmetry_cell_setting 'orthorhombic'
loop_
_space_group_symop_operation_xyz
x,y,z
-x,-y,1/2+z
x,-y,-z
-x,y,1/2-z
-x,-y,-z
x,y,1/2-z
-x,y,z
x,-y,1/2+z
1/2+x,1/2+y,z
1/2-x,1/2-y,1/2+z
1/2+x,1/2-y,-z
1/2-x,1/2+y,1/2-z
1/2-x,1/2-y,-z
1/2+x,1/2+y,1/2-z
1/2-x,1/2+y,z
1/2+x,1/2-y,1/2+z
loop_
_atom_site_type_symbol
_atom_site_label
_atom_site_fract_x
_atom_site_fract_y
_atom_site_fract_z
Si Si1 0.573207 0.126208 0.488236
Si Si2 0.666665 0.088772 0.866078
Si Si3 0.218189 0.950204 0.954893
Si Si4 0.383251 0.271851 0.566317
Si Si5 0.159481 0.349642 0.908685
Si Si6 0.572506 0.570187 0.142792
Si Si7 0.074286 0.288421 0.199606
Si Si8 0.686508 0.397785 0.122810
O O1 0.500000 0.107273 0.472421
O O2 0.572334 0.206757 0.531156
O O3 0.609955 0.182148 0.447295
O O4 0.605348 0.000000 0.500000
O O5 0.659377 0.178479 0.906388
O O6 0.624430 0.126455 0.824822
O O7 0.743574 0.083911 0.853271
O O8 0.638073 0.961864 0.880085
O O9 0.161123 0.857113 0.962859
O O10 0.271518 0.877715 0.929310
O O11 0.193232 0.060285 0.926853
O O12 0.245350 0.000000 0.000000
O O13 0.425370 0.350025 0.599350
O O14 0.165567 0.238367 0.876658
O O15 0.500000 0.512467 0.144413
O O16 0.583455 0.654172 0.184127
O O17 0.629114 0.472571 0.145694
O O18 0.091442 0.294625 0.250000
O O19 0.000000 0.329559 0.190308
#
# Coordination Sequence:
#
# PCOD8256482 Si02
#       8
#    16  16  16  16  16  16  16  16
#     4  11  22  31  42  67 103 140 186 234 270 313
#     4  10  20  34  55  81 108 143 176 223 271 326
#     4  10  20  31  50  72  98 137 190 239 270 302
#     4  10  18  34  51  73  99 141 185 234 279 312
#     4  11  21  33  49  72 107 149 182 222 267 324
#     4   9  19  36  59  81 107 141 181 227 275 323
#     4   9  19  38  65  90 108 133 174 220 264 320
#     4  10  21  34  52  79 110 143 183 221 270 327
#
# _framework density 17.818759
#
# number of rings (size 3 to 8) (size 9 to 14) (size 15 to 20)
#    0.000    2.000    2.500    1.500    3.500    2.500 
#    0.000    0.625    0.000    4.875    0.000    1.750 
#    0.000    0.000    0.000    0.000    0.000    0.000 
#
# Total GULP energy -793484.508290 kJ/mol
# GULP energy per Si atom -12398.195442 kJ/mol
# Density = 1.777820 g / cm^3
# Si number density = 17.818759 Si / 1000 Ang^3
#
#
#
# Elastic Constant Matrix: (Units=GPa)
#
#
# Indices 1 2 3 4 5 6 
#
# 1 105.9860 42.0266 43.3201 0.0000 0.0000 0.0000
# 2 42.0266 98.0117 39.3970 0.0000 0.0000 0.0000
# 3 43.3201 39.3970 87.9791 0.0000 0.0000 0.0000
# 4 0.0000 0.0000 0.0000 15.9483 0.0000 0.0000
# 5 0.0000 0.0000 0.0000 0.0000 23.0582 0.0000
# 6 0.0000 0.0000 0.0000 0.0000 0.0000 25.6335
#
#
#
# Elastic Compliance Matrix: (Units=1/GPa)
#
#
# Indices 1 2 3 4 5 6 
#
# 1 0.012774 -0.003596 -0.004679 0.000000 0.000000 0.000000
# 2 -0.003596 0.013455 -0.004254 0.000000 0.000000 0.000000
# 3 -0.004679 -0.004254 0.015575 0.000000 0.000000 0.000000
# 4 0.000000 0.000000 0.000000 0.062702 0.000000 0.000000
# 5 0.000000 0.000000 0.000000 0.000000 0.043369 0.000000
# 6 0.000000 0.000000 0.000000 0.000000 0.000000 0.039011
#
#
# Mechanical properties :
#
#
# Convention : Reuss Voigt Hill
#
# Bulk Modulus (GPa) = 59.72162 60.16268 59.94215
# Shear Modulus (GPa) = 22.98551 24.07687 23.53119
#
# Velocity S-wave (km/s) = 3.59550 3.67987 3.63793
# Velocity P-wave (km/s) = 7.12922 7.20362 7.16652
#
# Compressibility (1/GPa) = 0.01674435
#
# Stress axis : x y z
#
# Youngs Moduli (GPa) = 78.28482 74.32144 64.20362
#
# Poissons Ratio (x) = 0.26729 0.30042
# Poissons Ratio (y) = 0.28155 0.27314
# Poissons Ratio (z) = 0.36631 0.31619
#
# Static dielectric constant tensor:
#      x y z
#    x 3.312990 0.000000 0.000000 
#    y 0.000000 3.321950 0.000000 
#    z 0.000000 0.000000 2.957170 
# 
# 
# High freq. dielectric constant tensor:
#      x y z
#    x 1.695590 0.000000 0.000000 
#    y 0.000000 1.689090 0.000000 
#    z 0.000000 0.000000 1.652380 
# 
# From -- ./inp_files/70836.got.cif
#   From: 2010.03.12/outbox.cif.g09.slc.cpg/sg63_36_cif.got.tgz:70836.got - 2010.04.10 19:34:48.
