data_PCOD8256876
_publ_section_title
;
Structure prediction by ZEFSAII (Michael W. Deem and Ramdas Pophale) SiO2 
 PCOD8256876
Probable space group: C M C M
;
_chemical_formula_sum "Si O2"
_cell_formula_units_Z 88
_cell_length_a 18.171385
_cell_length_b 14.743641
_cell_length_c 17.826586
_cell_angle_alpha 90.000000
_cell_angle_beta 90.000000
_cell_angle_gamma 90.000000
_cell_volume 4775.963028
_symmetry_space_group_name_H-M "C M C M"
_symmetry_group_IT_number 63
_symmetry_cell_setting 'orthorhombic'
loop_
_space_group_symop_operation_xyz
x,y,z
-x,-y,1/2+z
x,-y,-z
-x,y,1/2-z
-x,-y,-z
x,y,1/2-z
-x,y,z
x,-y,1/2+z
1/2+x,1/2+y,z
1/2-x,1/2-y,1/2+z
1/2+x,1/2-y,-z
1/2-x,1/2+y,1/2-z
1/2-x,1/2-y,-z
1/2+x,1/2+y,1/2-z
1/2-x,1/2+y,z
1/2+x,1/2-y,1/2+z
loop_
_atom_site_type_symbol
_atom_site_label
_atom_site_fract_x
_atom_site_fract_y
_atom_site_fract_z
Si Si1 0.295876 0.434220 0.899076
Si Si2 0.081207 0.134171 0.509006
Si Si3 0.360584 0.397741 0.332968
Si Si4 0.828028 0.500000 0.000000
Si Si5 0.696057 0.207505 0.334990
Si Si6 0.084478 0.664885 0.459616
O O1 0.356481 0.420323 0.964378
O O2 0.325944 0.501718 0.835493
O O3 0.272070 0.336645 0.865736
O O4 0.223996 0.485943 0.928736
O O5 0.082856 0.112737 0.598221
O O6 0.092829 0.241006 0.495445
O O7 0.000000 0.104949 0.480095
O O8 0.397982 0.387762 0.250000
O O9 0.299509 0.317255 0.342238
O O10 0.879479 0.412125 0.012141
O O11 0.684463 0.176143 0.250000
O O12 0.625845 0.170112 0.380124
O O13 0.000000 0.641336 0.442838
#
# Coordination Sequence:
#
# PCOD8256876 Si02
#       6
#    16  16  16   8  16  16
#     4  11  20  33  54  80 106 141 179 221 262 315
#     4  10  21  36  53  77 110 145 178 219 268 315
#     4  10  20  34  52  76 106 139 176 219 267 313
#     4  10  19  30  53  80 104 134 174 224 267 304
#     4   9  20  34  52  77 107 138 174 220 266 316
#     4   9  19  33  53  78 107 138 174 217 266 318
#
# _framework density 18.425602999999999
#
# number of rings (size 3 to 8) (size 9 to 14) (size 15 to 20)
#    0.000    2.182    1.818    0.818    2.545    4.364 
#    0.000    3.636    0.000    1.636    0.000    0.000 
#    0.000    0.000    0.000    0.000    0.000    0.000 
#
# Total GULP energy -545227.732683 kJ/mol
# GULP energy per Si atom -12391.539379 kJ/mol
# Density = 1.838367 g / cm^3
# Si number density = 18.425603 Si / 1000 Ang^3
#
#
#
# Elastic Constant Matrix: (Units=GPa)
#
#
# Indices 1 2 3 4 5 6 
#
# 1 107.7903 51.6520 39.4841 0.0000 0.0000 0.0000
# 2 51.6520 106.8246 38.9322 0.0000 0.0000 0.0000
# 3 39.4841 38.9322 83.9851 0.0000 0.0000 0.0000
# 4 0.0000 0.0000 0.0000 22.9248 0.0000 0.0000
# 5 0.0000 0.0000 0.0000 0.0000 13.2538 0.0000
# 6 0.0000 0.0000 0.0000 0.0000 0.0000 16.8832
#
#
#
# Elastic Compliance Matrix: (Units=1/GPa)
#
#
# Indices 1 2 3 4 5 6 
#
# 1 0.013038 -0.004898 -0.003859 0.000000 0.000000 0.000000
# 2 -0.004898 0.013104 -0.003772 0.000000 0.000000 0.000000
# 3 -0.003859 -0.003772 0.015470 0.000000 0.000000 0.000000
# 4 0.000000 0.000000 0.000000 0.043621 0.000000 0.000000
# 5 0.000000 0.000000 0.000000 0.000000 0.075450 0.000000
# 6 0.000000 0.000000 0.000000 0.000000 0.000000 0.059230
#
#
# Mechanical properties :
#
#
# Convention : Reuss Voigt Hill
#
# Bulk Modulus (GPa) = 60.40824 62.08185 61.24504
# Shear Modulus (GPa) = 19.96103 21.84781 20.90442
#
# Velocity S-wave (km/s) = 3.29497 3.44718 3.37193
# Velocity P-wave (km/s) = 6.87982 7.04347 6.96212
#
# Compressibility (1/GPa) = 0.01655403
#
# Stress axis : x y z
#
# Youngs Moduli (GPa) = 76.70020 76.31306 64.64248
#
# Poissons Ratio (x) = 0.37375 0.24947
# Poissons Ratio (y) = 0.37565 0.24383
# Poissons Ratio (z) = 0.29600 0.28785
#
# Static dielectric constant tensor:
#      x y z
#    x 3.305440 0.000000 0.000000 
#    y 0.000000 3.735330 0.000000 
#    z 0.000000 0.000000 3.214810 
# 
# 
# High freq. dielectric constant tensor:
#      x y z
#    x 1.697290 0.000000 0.000000 
#    y 0.000000 1.732340 0.000000 
#    z 0.000000 0.000000 1.692650 
# 
# From -- ./inp_files/45527.got.cif
#   From: 2010.03.12/outbox.cif.g09.slc.cpg/sg63_23_cif.got.tgz:45527.got - 2010.04.10 19:34:48.
