data_PCOD8256160
_publ_section_title
;
Structure prediction by ZEFSAII (Michael W. Deem and Ramdas Pophale) SiO2 
 PCOD8256160
Probable space group: C M C M
;
_chemical_formula_sum "Si O2"
_cell_formula_units_Z 128
_cell_length_a 22.698830
_cell_length_b 18.481426
_cell_length_c 18.460934
_cell_angle_alpha 90.000000
_cell_angle_beta 90.000000
_cell_angle_gamma 90.000000
_cell_volume 7744.486368
_symmetry_space_group_name_H-M "C M C M"
_symmetry_group_IT_number 63
_symmetry_cell_setting 'orthorhombic'
loop_
_space_group_symop_operation_xyz
x,y,z
-x,-y,1/2+z
x,-y,-z
-x,y,1/2-z
-x,-y,-z
x,y,1/2-z
-x,y,z
x,-y,1/2+z
1/2+x,1/2+y,z
1/2-x,1/2-y,1/2+z
1/2+x,1/2-y,-z
1/2-x,1/2+y,1/2-z
1/2-x,1/2-y,-z
1/2+x,1/2+y,1/2-z
1/2-x,1/2+y,z
1/2+x,1/2-y,1/2+z
loop_
_atom_site_type_symbol
_atom_site_label
_atom_site_fract_x
_atom_site_fract_y
_atom_site_fract_z
Si Si1 0.333364 0.728520 0.940996
Si Si2 0.169110 0.694523 0.832499
Si Si3 0.130958 0.481178 0.915391
Si Si4 0.565501 0.160248 0.062086
Si Si5 0.219581 0.180160 0.411824
Si Si6 0.213961 0.120266 0.833213
Si Si7 0.436244 0.879490 0.101286
Si Si8 0.748401 0.536004 0.165212
O O1 0.397693 0.764925 0.937591
O O2 0.285619 0.792017 0.927980
O O3 0.332626 0.665712 0.880241
O O4 0.321066 0.689287 0.017384
O O5 0.155413 0.680348 0.750000
O O6 0.190494 0.775778 0.846192
O O7 0.220225 0.640667 0.861028
O O8 0.108732 0.681924 0.874168
O O9 0.101697 0.403380 0.898419
O O10 0.087323 0.540574 0.881640
O O11 0.189187 0.485150 0.867629
O O12 0.144717 0.500000 0.000000
O O13 0.500000 0.173684 0.096542
O O14 0.555539 0.129650 0.983087
O O15 0.220160 0.098072 0.384550
O O16 0.206358 0.144868 0.750000
O O17 0.205719 0.034116 0.841765
O O18 0.500000 0.869790 0.139633
O O19 0.754656 0.558507 0.250000
#
# Coordination Sequence:
#
# PCOD8256160 Si02
#       8
#    16  16  16  16  16  16  16  16
#     4  10  19  32  53  76  98 130 170 215 251 300
#     4  10  18  31  46  68 101 134 169 211 252 293
#     4  10  20  31  50  74 104 140 177 208 237 292
#     4  10  19  34  51  74 102 134 173 214 255 294
#     4  10  20  31  50  74 101 131 170 209 255 301
#     4   9  20  33  49  73 103 132 164 208 259 306
#     4  10  19  31  48  71 102 140 180 212 243 288
#     4  11  21  33  50  76 107 141 168 203 258 311
#
# _framework density 16.527887
#
# number of rings (size 3 to 8) (size 9 to 14) (size 15 to 20)
#    0.000    2.000    3.750    0.750    1.750    2.250 
#    0.000    0.000    0.000    2.250    0.000    2.625 
#    0.000    2.000    0.000    0.000    0.000    0.000 
#
# Total GULP energy -793322.447929 kJ/mol
# GULP energy per Si atom -12395.663249 kJ/mol
# Density = 1.649027 g / cm^3
# Si number density = 16.527887 Si / 1000 Ang^3
#
#
#
# Elastic Constant Matrix: (Units=GPa)
#
#
# Indices 1 2 3 4 5 6 
#
# 1 71.7706 41.3168 16.5467 0.0000 0.0000 0.0000
# 2 41.3168 105.1947 30.4586 0.0000 0.0000 0.0000
# 3 16.5467 30.4586 42.4363 0.0000 0.0000 0.0000
# 4 0.0000 0.0000 0.0000 26.2444 0.0000 0.0000
# 5 0.0000 0.0000 0.0000 0.0000 10.1310 0.0000
# 6 0.0000 0.0000 0.0000 0.0000 0.0000 16.8575
#
#
#
# Elastic Compliance Matrix: (Units=1/GPa)
#
#
# Indices 1 2 3 4 5 6 
#
# 1 0.018209 -0.006433 -0.002483 0.000000 0.000000 0.000000
# 2 -0.006433 0.014273 -0.007736 0.000000 0.000000 0.000000
# 3 -0.002483 -0.007736 0.030085 0.000000 0.000000 0.000000
# 4 0.000000 0.000000 0.000000 0.038103 0.000000 0.000000
# 5 0.000000 0.000000 0.000000 0.000000 0.098707 0.000000
# 6 0.000000 0.000000 0.000000 0.000000 0.000000 0.059321
#
#
# Mechanical properties :
#
#
# Convention : Reuss Voigt Hill
#
# Bulk Modulus (GPa) = 34.17204 44.00508 39.08856
# Shear Modulus (GPa) = 16.56966 19.38520 17.97743
#
# Velocity S-wave (km/s) = 3.16971 3.42845 3.30161
# Velocity P-wave (km/s) = 5.84092 6.50806 6.18349
#
# Compressibility (1/GPa) = 0.02926369
#
# Stress axis : x y z
#
# Youngs Moduli (GPa) = 54.91782 70.06370 33.23891
#
# Poissons Ratio (x) = 0.45072 0.08252
# Poissons Ratio (y) = 0.35329 0.25713
# Poissons Ratio (z) = 0.13635 0.54200
#
# Static dielectric constant tensor:
#      x y z
#    x 3.075480 0.000000 0.000000 
#    y 0.000000 3.115850 0.000000 
#    z 0.000000 0.000000 3.065980 
# 
# 
# High freq. dielectric constant tensor:
#      x y z
#    x 1.608230 0.000000 0.000000 
#    y 0.000000 1.633320 0.000000 
#    z 0.000000 0.000000 1.629960 
# 
# From -- ./inp_files/56966.got.cif
#   From: 2010.03.12/outbox.cif.g09.slc.cpg/sg63_29_cif.got.tgz:56966.got - 2010.04.10 19:34:48.
