data_PCOD8256807
_publ_section_title
;
Structure prediction by ZEFSAII (Michael W. Deem and Ramdas Pophale) SiO2 
 PCOD8256807
Probable space group: C M C M
;
_chemical_formula_sum "Si O2"
_cell_formula_units_Z 80
_cell_length_a 18.629369
_cell_length_b 26.533965
_cell_length_c 9.093234
_cell_angle_alpha 90.000000
_cell_angle_beta 90.000000
_cell_angle_gamma 90.000000
_cell_volume 4494.885819
_symmetry_space_group_name_H-M "C M C M"
_symmetry_group_IT_number 63
_symmetry_cell_setting 'orthorhombic'
loop_
_space_group_symop_operation_xyz
x,y,z
-x,-y,1/2+z
x,-y,-z
-x,y,1/2-z
-x,-y,-z
x,y,1/2-z
-x,y,z
x,-y,1/2+z
1/2+x,1/2+y,z
1/2-x,1/2-y,1/2+z
1/2+x,1/2-y,-z
1/2-x,1/2+y,1/2-z
1/2-x,1/2-y,-z
1/2+x,1/2+y,1/2-z
1/2-x,1/2+y,z
1/2+x,1/2-y,1/2+z
loop_
_atom_site_type_symbol
_atom_site_label
_atom_site_fract_x
_atom_site_fract_y
_atom_site_fract_z
Si Si1 0.848889 0.050321 0.077396
Si Si2 0.417660 0.655273 0.421641
Si Si3 0.277281 0.900924 0.080951
Si Si4 0.078880 0.448914 0.420841
Si Si5 0.209799 0.204825 0.578608
O O1 0.846680 0.040663 0.250000
O O2 0.899716 0.097479 0.035514
O O3 0.768811 0.061680 0.020165
O O4 0.879527 0.000000 0.000000
O O5 0.402563 0.663955 0.250000
O O6 0.500000 0.666053 0.462789
O O7 0.369025 0.694772 0.511270
O O8 0.260782 0.914994 0.250000
O O9 0.361337 0.907118 0.041686
O O10 0.259203 0.843355 0.048215
O O11 0.100774 0.500000 0.500000
O O12 0.077954 0.461368 0.250000
O O13 0.000000 0.429512 0.472450
O O14 0.200933 0.217022 0.750000
O O15 0.250000 0.250000 0.500000
#
# Coordination Sequence:
#
# PCOD8256807 Si02
#       5
#    16  16  16  16  16
#     4  10  19  30  47  72 101 133 167 202 242 291
#     4   9  19  36  55  75 101 133 168 206 250 299
#     4   9  18  32  49  69  94 126 165 205 243 290
#     4   9  17  29  45  66  93 124 157 193 234 280
#     4  10  20  35  55  77 100 128 165 207 252 301
#
# _framework density 17.798005
#
# number of rings (size 3 to 8) (size 9 to 14) (size 15 to 20)
#    0.000    2.600    0.000    1.800    0.000    4.800 
#    0.000    1.000    0.000    3.600    0.000    0.000 
#    0.000    0.000    0.000    0.000    0.000    0.000 
#
# Total GULP energy -495976.231131 kJ/mol
# GULP energy per Si atom -12399.405778 kJ/mol
# Density = 1.775750 g / cm^3
# Si number density = 17.798005 Si / 1000 Ang^3
#
#
#
# Elastic Constant Matrix: (Units=GPa)
#
#
# Indices 1 2 3 4 5 6 
#
# 1 139.9632 59.4163 51.8547 0.0000 0.0000 0.0000
# 2 59.4163 90.3034 50.2073 0.0000 0.0000 0.0000
# 3 51.8547 50.2073 77.4480 0.0000 0.0000 0.0000
# 4 0.0000 0.0000 0.0000 32.0782 0.0000 0.0000
# 5 0.0000 0.0000 0.0000 0.0000 27.0109 0.0000
# 6 0.0000 0.0000 0.0000 0.0000 0.0000 21.1331
#
#
#
# Elastic Compliance Matrix: (Units=1/GPa)
#
#
# Indices 1 2 3 4 5 6 
#
# 1 0.010670 -0.004767 -0.004054 0.000000 0.000000 0.000000
# 2 -0.004767 0.019444 -0.009413 0.000000 0.000000 0.000000
# 3 -0.004054 -0.009413 0.021729 0.000000 0.000000 0.000000
# 4 0.000000 0.000000 0.000000 0.031174 0.000000 0.000000
# 5 0.000000 0.000000 0.000000 0.000000 0.037022 0.000000
# 6 0.000000 0.000000 0.000000 0.000000 0.000000 0.047319
#
#
# Mechanical properties :
#
#
# Convention : Reuss Voigt Hill
#
# Bulk Modulus (GPa) = 65.04281 70.07459 67.55870
# Shear Modulus (GPa) = 23.92908 25.79353 24.86130
#
# Velocity S-wave (km/s) = 3.67069 3.81101 3.74151
# Velocity P-wave (km/s) = 7.38848 7.66960 7.53035
#
# Compressibility (1/GPa) = 0.01537449
#
# Stress axis : x y z
#
# Youngs Moduli (GPa) = 93.71880 51.43049 46.02197
#
# Poissons Ratio (x) = 0.24515 0.18658
# Poissons Ratio (y) = 0.44672 0.43322
# Poissons Ratio (z) = 0.37995 0.48414
#
# Static dielectric constant tensor:
#      x y z
#    x 3.474470 0.000000 0.000000 
#    y 0.000000 3.224580 0.000000 
#    z 0.000000 0.000000 3.350010 
# 
# 
# High freq. dielectric constant tensor:
#      x y z
#    x 1.690730 0.000000 0.000000 
#    y 0.000000 1.670970 0.000000 
#    z 0.000000 0.000000 1.692630 
# 
# From -- ./inp_files/6361.got.cif
#   From: 2010.03.12/outbox.cif.g09.slc.cpg/sg63_4_cif.got.tgz:6361.got - 2010.04.10 19:34:48.
