data_PCOD8256000
_publ_section_title
;
Structure prediction by ZEFSAII (Michael W. Deem and Ramdas Pophale) SiO2 
 PCOD8256000
Probable space group: C M C M
;
_chemical_formula_sum "Si O2"
_cell_formula_units_Z 80
_cell_length_a 14.800695
_cell_length_b 32.154215
_cell_length_c 9.546637
_cell_angle_alpha 90.000000
_cell_angle_beta 90.000000
_cell_angle_gamma 90.000000
_cell_volume 4543.289696
_symmetry_space_group_name_H-M "C M C M"
_symmetry_group_IT_number 63
_symmetry_cell_setting 'orthorhombic'
loop_
_space_group_symop_operation_xyz
x,y,z
-x,-y,1/2+z
x,-y,-z
-x,y,1/2-z
-x,-y,-z
x,y,1/2-z
-x,y,z
x,-y,1/2+z
1/2+x,1/2+y,z
1/2-x,1/2-y,1/2+z
1/2+x,1/2-y,-z
1/2-x,1/2+y,1/2-z
1/2-x,1/2-y,-z
1/2+x,1/2+y,1/2-z
1/2-x,1/2+y,z
1/2+x,1/2-y,1/2+z
loop_
_atom_site_type_symbol
_atom_site_label
_atom_site_fract_x
_atom_site_fract_y
_atom_site_fract_z
Si Si1 0.896609 0.644643 0.085458
Si Si2 0.095503 0.821531 0.410422
Si Si3 0.237039 0.114791 0.914819
Si Si4 0.397226 0.459702 0.411863
Si Si5 0.331773 0.765257 0.908419
O O1 0.879464 0.638529 0.250000
O O2 0.877133 0.692187 0.038336
O O3 0.000000 0.633866 0.047025
O O4 0.831326 0.613490 0.999470
O O5 0.094799 0.836689 0.250000
O O6 0.182644 0.844676 0.475096
O O7 0.095977 0.771726 0.419952
O O8 0.000000 0.835821 0.479901
O O9 0.259524 0.117275 0.750000
O O10 0.174642 0.075608 0.952287
O O11 0.371003 0.500000 0.500000
O O12 0.388487 0.471699 0.250000
O O13 0.500000 0.444841 0.445755
O O14 0.297054 0.770823 0.750000
O O15 0.250000 0.750000 0.000000
#
# Coordination Sequence:
#
# PCOD8256000 Si02
#       5
#    16  16  16  16  16
#     4  10  21  35  50  70  99 136 175 213 254 298
#     4   9  16  27  46  70  95 126 163 201 242 289
#     4  10  19  32  52  77 101 128 166 209 247 291
#     4   9  18  33  54  81 110 136 162 194 240 302
#     4  10  18  30  48  68  94 130 171 210 249 293
#
# _framework density 17.608385999999999
#
# number of rings (size 3 to 8) (size 9 to 14) (size 15 to 20)
#    0.000    2.400    2.000    1.200    0.000    6.000 
#    0.000    0.000    0.000    5.400    0.000    0.000 
#    0.000    0.000    0.000    0.000    0.000    0.000 
#
# Total GULP energy -495706.474684 kJ/mol
# GULP energy per Si atom -12392.661867 kJ/mol
# Density = 1.756831 g / cm^3
# Si number density = 17.608386 Si / 1000 Ang^3
#
#
#
# Elastic Constant Matrix: (Units=GPa)
#
#
# Indices 1 2 3 4 5 6 
#
# 1 148.2467 52.1283 54.7790 0.0000 0.0000 0.0000
# 2 52.1283 89.1085 37.6699 0.0000 0.0000 0.0000
# 3 54.7790 37.6699 48.7329 0.0000 0.0000 0.0000
# 4 0.0000 0.0000 0.0000 24.6817 0.0000 0.0000
# 5 0.0000 0.0000 0.0000 0.0000 26.9086 0.0000
# 6 0.0000 0.0000 0.0000 0.0000 0.0000 24.1739
#
#
#
# Elastic Compliance Matrix: (Units=1/GPa)
#
#
# Indices 1 2 3 4 5 6 
#
# 1 0.011754 -0.001917 -0.011731 0.000000 0.000000 0.000000
# 2 -0.001917 0.016982 -0.010972 0.000000 0.000000 0.000000
# 3 -0.011731 -0.010972 0.042187 0.000000 0.000000 0.000000
# 4 0.000000 0.000000 0.000000 0.040516 0.000000 0.000000
# 5 0.000000 0.000000 0.000000 0.000000 0.037163 0.000000
# 6 0.000000 0.000000 0.000000 0.000000 0.000000 0.041367
#
#
# Mechanical properties :
#
#
# Convention : Reuss Voigt Hill
#
# Bulk Modulus (GPa) = 46.11675 63.91585 55.01630
# Shear Modulus (GPa) = 20.28920 24.58691 22.43806
#
# Velocity S-wave (km/s) = 3.39816 3.74079 3.57358
# Velocity P-wave (km/s) = 6.45319 7.41858 6.95266
#
# Compressibility (1/GPa) = 0.02168410
#
# Stress axis : x y z
#
# Youngs Moduli (GPa) = 85.07548 58.88551 23.70392
#
# Poissons Ratio (x) = 0.11290 0.27806
# Poissons Ratio (y) = 0.16311 0.26008
# Poissons Ratio (z) = 0.99799 0.64609
#
# Static dielectric constant tensor:
#      x y z
#    x 3.736950 0.000000 0.000000 
#    y 0.000000 3.251990 0.000000 
#    z 0.000000 0.000000 3.056490 
# 
# 
# High freq. dielectric constant tensor:
#      x y z
#    x 1.685040 0.000000 0.000000 
#    y 0.000000 1.664280 0.000000 
#    z 0.000000 0.000000 1.653420 
# 
# From -- ./inp_files/17839.got.cif
#   From: 2010.03.12/outbox.cif.g09.slc.cpg/sg63_9_cif.got.tgz:17839.got - 2010.04.10 19:34:48.
