data_PCOD8256255
_publ_section_title
;
Structure prediction by ZEFSAII (Michael W. Deem and Ramdas Pophale) SiO2 
 PCOD8256255
Probable space group: C M C M
;
_chemical_formula_sum "Si O2"
_cell_formula_units_Z 96
_cell_length_a 9.378898
_cell_length_b 30.013826
_cell_length_c 18.992541
_cell_angle_alpha 90.000000
_cell_angle_beta 90.000000
_cell_angle_gamma 90.000000
_cell_volume 5346.335957
_symmetry_space_group_name_H-M "C M C M"
_symmetry_group_IT_number 63
_symmetry_cell_setting 'orthorhombic'
loop_
_space_group_symop_operation_xyz
x,y,z
-x,-y,1/2+z
x,-y,-z
-x,y,1/2-z
-x,-y,-z
x,y,1/2-z
-x,y,z
x,-y,1/2+z
1/2+x,1/2+y,z
1/2-x,1/2-y,1/2+z
1/2+x,1/2-y,-z
1/2-x,1/2+y,1/2-z
1/2-x,1/2-y,-z
1/2+x,1/2+y,1/2-z
1/2-x,1/2+y,z
1/2+x,1/2-y,1/2+z
loop_
_atom_site_type_symbol
_atom_site_label
_atom_site_fract_x
_atom_site_fract_y
_atom_site_fract_z
Si Si1 0.337990 0.400522 0.170902
Si Si2 0.668794 0.162536 0.440342
Si Si3 0.831726 0.471872 0.397750
Si Si4 0.831932 0.734349 0.171300
Si Si5 0.168395 0.436849 0.547639
Si Si6 0.330489 0.682839 0.920799
O O1 0.323089 0.382036 0.250000
O O2 0.500000 0.413045 0.153397
O O3 0.245563 0.445516 0.164589
O O4 0.283451 0.362222 0.118574
O O5 0.500000 0.164454 0.455969
O O6 0.708702 0.188913 0.369348
O O7 0.724148 0.111752 0.429166
O O8 0.750146 0.185435 0.505042
O O9 0.783702 0.524032 0.398197
O O10 0.777259 0.448860 0.469803
O O11 0.000000 0.467378 0.387471
O O12 0.764116 0.733392 0.250000
O O13 0.774814 0.776290 0.126831
O O14 0.000000 0.738954 0.178393
O O15 0.000000 0.437067 0.545247
O O16 0.500000 0.685283 0.933170
#
# Coordination Sequence:
#
# PCOD8256255 Si02
#       6
#    16  16  16  16  16  16
#     4  10  20  32  46  68 100 133 164 201 243 287
#     4  10  18  31  53  77  98 123 161 207 243 281
#     4   9  16  30  49  68  95 128 159 193 240 292
#     4   9  18  32  50  72  98 129 162 197 242 293
#     4   8  15  28  48  72  97 122 151 196 246 283
#     4  10  19  32  50  72  98 129 163 199 242 292
#
# _framework density 17.956223000000001
#
# number of rings (size 3 to 8) (size 9 to 14) (size 15 to 20)
#    0.000    2.667    1.667    2.000    0.000    2.333 
#    0.000    3.333    0.000    6.000    0.000    0.000 
#    0.000    0.000    0.000    0.000    0.000    0.000 
#
# Total GULP energy -594976.051289 kJ/mol
# GULP energy per Si atom -12395.334402 kJ/mol
# Density = 1.791535 g / cm^3
# Si number density = 17.956223 Si / 1000 Ang^3
#
#
#
# Elastic Constant Matrix: (Units=GPa)
#
#
# Indices 1 2 3 4 5 6 
#
# 1 29.1391 27.4843 24.6967 0.0000 0.0000 0.0000
# 2 27.4843 146.1439 59.9633 0.0000 0.0000 0.0000
# 3 24.6967 59.9633 94.8203 0.0000 0.0000 0.0000
# 4 0.0000 0.0000 0.0000 26.0413 0.0000 0.0000
# 5 0.0000 0.0000 0.0000 0.0000 22.8630 0.0000
# 6 0.0000 0.0000 0.0000 0.0000 0.0000 19.3652
#
#
#
# Elastic Compliance Matrix: (Units=1/GPa)
#
#
# Indices 1 2 3 4 5 6 
#
# 1 0.046717 -0.005122 -0.008928 0.000000 0.000000 0.000000
# 2 -0.005122 0.009802 -0.004864 0.000000 0.000000 0.000000
# 3 -0.008928 -0.004864 0.015948 0.000000 0.000000 0.000000
# 4 0.000000 0.000000 0.000000 0.038401 0.000000 0.000000
# 5 0.000000 0.000000 0.000000 0.000000 0.043739 0.000000
# 6 0.000000 0.000000 0.000000 0.000000 0.000000 0.051639
#
#
# Mechanical properties :
#
#
# Convention : Reuss Voigt Hill
#
# Bulk Modulus (GPa) = 28.87150 54.93242 41.90196
# Shear Modulus (GPa) = 19.56022 24.18449 21.87235
#
# Velocity S-wave (km/s) = 3.30408 3.67394 3.49391
# Velocity P-wave (km/s) = 5.53802 6.97538 6.29784
#
# Compressibility (1/GPa) = 0.03463623
#
# Stress axis : x y z
#
# Youngs Moduli (GPa) = 21.40553 102.02244 62.70408
#
# Poissons Ratio (x) = 0.52259 0.55985
# Poissons Ratio (y) = 0.10965 0.30502
# Poissons Ratio (z) = 0.19112 0.49628
#
# Static dielectric constant tensor:
#      x y z
#    x 2.909240 0.000000 0.000000 
#    y 0.000000 3.716920 0.000000 
#    z 0.000000 0.000000 3.258630 
# 
# 
# High freq. dielectric constant tensor:
#      x y z
#    x 1.652200 0.000000 0.000000 
#    y 0.000000 1.710100 0.000000 
#    z 0.000000 0.000000 1.681620 
# 
# From -- ./inp_files/42691.got.cif
#   From: 2010.03.12/outbox.cif.g09.slc.cpg/sg63_22_cif.got.tgz:42691.got - 2010.04.10 19:34:48.
