data_PCOD8256335
_publ_section_title
;
Structure prediction by ZEFSAII (Michael W. Deem and Ramdas Pophale) SiO2 
 PCOD8256335
Probable space group: C M C M
;
_chemical_formula_sum "Si O2"
_cell_formula_units_Z 72
_cell_length_a 16.126087
_cell_length_b 27.452936
_cell_length_c 8.782390
_cell_angle_alpha 90.000000
_cell_angle_beta 90.000000
_cell_angle_gamma 90.000000
_cell_volume 3888.038127
_symmetry_space_group_name_H-M "C M C M"
_symmetry_group_IT_number 63
_symmetry_cell_setting 'orthorhombic'
loop_
_space_group_symop_operation_xyz
x,y,z
-x,-y,1/2+z
x,-y,-z
-x,y,1/2-z
-x,-y,-z
x,y,1/2-z
-x,y,z
x,-y,1/2+z
1/2+x,1/2+y,z
1/2-x,1/2-y,1/2+z
1/2+x,1/2-y,-z
1/2-x,1/2+y,1/2-z
1/2-x,1/2-y,-z
1/2+x,1/2+y,1/2-z
1/2-x,1/2+y,z
1/2+x,1/2-y,1/2+z
loop_
_atom_site_type_symbol
_atom_site_label
_atom_site_fract_x
_atom_site_fract_y
_atom_site_fract_z
Si Si1 0.000000 0.945915 0.432425
Si Si2 0.333582 0.604460 0.929276
Si Si3 0.761657 0.697579 0.930004
Si Si4 0.832232 0.551685 0.569933
Si Si5 0.405608 0.141766 0.075749
O O1 0.079755 0.915898 0.495569
O O2 0.000000 0.950017 0.250000
O O3 0.000000 0.000000 0.500000
O O4 0.341847 0.606824 0.750000
O O5 0.308875 0.658912 0.987851
O O6 0.260818 0.567422 0.976946
O O7 0.758667 0.701554 0.750000
O O8 0.750000 0.750000 0.000000
O O9 0.851870 0.679580 0.979481
O O10 0.852424 0.500000 0.500000
O O11 0.844005 0.551138 0.750000
O O12 0.897989 0.588376 0.496655
O O13 0.374770 0.140801 0.250000
O O14 0.500000 0.159358 0.065064
#
# Coordination Sequence:
#
# PCOD8256335 Si02
#       5
#     8  16  16  16  16
#     4  10  18  32  52  76 108 142 176 218 263 314
#     4   8  17  32  51  75 104 139 179 217 261 317
#     4  10  20  37  58  80 107 141 180 222 272 326
#     4  10  19  32  51  76 106 142 180 218 264 319
#     4  10  21  37  56  79 105 136 177 222 270 324
#
# _framework density 18.518336999999999
#
# number of rings (size 3 to 8) (size 9 to 14) (size 15 to 20)
#    0.000    2.444    0.000    4.000    0.000    2.222 
#    2.000    5.556    0.000    0.000    0.000    0.000 
#    0.000    0.000    0.000    0.000    0.000    0.000 
#
# Total GULP energy -446301.355049 kJ/mol
# GULP energy per Si atom -12397.259862 kJ/mol
# Density = 1.847619 g / cm^3
# Si number density = 18.518337 Si / 1000 Ang^3
#
#
#
# Elastic Constant Matrix: (Units=GPa)
#
#
# Indices 1 2 3 4 5 6 
#
# 1 99.7442 52.1046 27.2671 0.0000 0.0000 0.0000
# 2 52.1046 162.8356 40.8459 0.0000 0.0000 0.0000
# 3 27.2671 40.8459 68.6525 0.0000 0.0000 0.0000
# 4 0.0000 0.0000 0.0000 36.2331 0.0000 0.0000
# 5 0.0000 0.0000 0.0000 0.0000 23.8602 0.0000
# 6 0.0000 0.0000 0.0000 0.0000 0.0000 20.5401
#
#
#
# Elastic Compliance Matrix: (Units=1/GPa)
#
#
# Indices 1 2 3 4 5 6 
#
# 1 0.012560 -0.003253 -0.003053 0.000000 0.000000 0.000000
# 2 -0.003253 0.008061 -0.003504 0.000000 0.000000 0.000000
# 3 -0.003053 -0.003504 0.017863 0.000000 0.000000 0.000000
# 4 0.000000 0.000000 0.000000 0.027599 0.000000 0.000000
# 5 0.000000 0.000000 0.000000 0.000000 0.041911 0.000000
# 6 0.000000 0.000000 0.000000 0.000000 0.000000 0.048685
#
#
# Mechanical properties :
#
#
# Convention : Reuss Voigt Hill
#
# Bulk Modulus (GPa) = 53.01076 63.51861 58.26469
# Shear Modulus (GPa) = 27.38421 30.19434 28.78927
#
# Velocity S-wave (km/s) = 3.84964 4.04234 3.94716
# Velocity P-wave (km/s) = 6.96045 7.49414 7.23222
#
# Compressibility (1/GPa) = 0.01886409
#
# Stress axis : x y z
#
# Youngs Moduli (GPa) = 79.62068 124.05358 55.98040
#
# Poissons Ratio (x) = 0.40355 0.17090
# Poissons Ratio (y) = 0.25901 0.19616
# Poissons Ratio (z) = 0.24307 0.43468
#
# Static dielectric constant tensor:
#      x y z
#    x 3.571570 0.000000 0.000000 
#    y 0.000000 3.554510 0.000000 
#    z 0.000000 0.000000 3.322230 
# 
# 
# High freq. dielectric constant tensor:
#      x y z
#    x 1.715880 0.000000 0.000000 
#    y 0.000000 1.720960 0.000000 
#    z 0.000000 0.000000 1.710800 
# 
# From -- ./inp_files/4647.got.cif
#   From: 2010.03.12/outbox.cif.g09.slc.cpg/sg63_3_cif.got.tgz:4647.got - 2010.04.10 19:34:48.
