data_PCOD8256759
_publ_section_title
;
Structure prediction by ZEFSAII (Michael W. Deem and Ramdas Pophale) SiO2 
 PCOD8256759
Probable space group: C M C M
;
_chemical_formula_sum "Si O2"
_cell_formula_units_Z 112
_cell_length_a 24.566587
_cell_length_b 17.155075
_cell_length_c 16.957834
_cell_angle_alpha 90.000000
_cell_angle_beta 90.000000
_cell_angle_gamma 90.000000
_cell_volume 7146.737414
_symmetry_space_group_name_H-M "C M C M"
_symmetry_group_IT_number 63
_symmetry_cell_setting 'orthorhombic'
loop_
_space_group_symop_operation_xyz
x,y,z
-x,-y,1/2+z
x,-y,-z
-x,y,1/2-z
-x,-y,-z
x,y,1/2-z
-x,y,z
x,-y,1/2+z
1/2+x,1/2+y,z
1/2-x,1/2-y,1/2+z
1/2+x,1/2-y,-z
1/2-x,1/2+y,1/2-z
1/2-x,1/2-y,-z
1/2+x,1/2+y,1/2-z
1/2-x,1/2+y,z
1/2+x,1/2-y,1/2+z
loop_
_atom_site_type_symbol
_atom_site_label
_atom_site_fract_x
_atom_site_fract_y
_atom_site_fract_z
Si Si1 0.620850 0.926632 0.547123
Si Si2 0.200619 0.671503 0.531598
Si Si3 0.062903 0.310994 0.841282
Si Si4 0.261030 0.774634 0.871902
Si Si5 0.856523 0.176696 0.664413
Si Si6 0.204110 0.944103 0.431751
Si Si7 0.777676 0.553877 0.338295
O O1 0.642379 0.870821 0.476054
O O2 0.576943 0.884584 0.602756
O O3 0.672117 0.951699 0.601324
O O4 0.595005 0.000000 0.500000
O O5 0.204827 0.726227 0.610254
O O6 0.206269 0.724880 0.454516
O O7 0.249517 0.608835 0.528997
O O8 0.076601 0.332508 0.750000
O O9 0.097130 0.235379 0.868284
O O10 0.000000 0.290665 0.852043
O O11 0.300773 0.724233 0.817402
O O12 0.250586 0.859838 0.837216
O O13 0.874972 0.143407 0.750000
O O14 0.845961 0.106301 0.603265
O O15 0.180261 0.000000 0.500000
O O16 0.230892 0.993282 0.360982
O O17 0.798047 0.534338 0.250000
#
# Coordination Sequence:
#
# PCOD8256759 Si02
#       7
#    16  16  16  16  16  16  16
#     4  11  18  30  47  67  94 122 150 189 223 276
#     4   9  15  26  40  64  87 119 151 181 209 273
#     4  10  21  36  52  68  88 119 160 202 242 272
#     4   9  16  24  43  61  88 119 153 184 214 267
#     4  10  19  30  46  68  91 119 158 196 229 266
#     4  11  18  29  42  66  96 127 155 177 222 280
#     4  11  18  26  40  63  94 129 154 179 220 273
#
# _framework density 15.671487000000001
#
# number of rings (size 3 to 8) (size 9 to 14) (size 15 to 20)
#    0.000    1.857    7.143    1.286    0.000    0.286 
#    0.000    0.000    0.000    0.429    0.000    0.000 
#    0.000    0.000    0.000    0.857    0.000    0.000 
#
# Total GULP energy -693821.950119 kJ/mol
# GULP energy per Si atom -12389.677681 kJ/mol
# Density = 1.563582 g / cm^3
# Si number density = 15.671487 Si / 1000 Ang^3
#
#
#
# Elastic Constant Matrix: (Units=GPa)
#
#
# Indices 1 2 3 4 5 6 
#
# 1 52.9276 26.4471 25.5432 0.0000 0.0000 0.0000
# 2 26.4471 83.5104 37.1333 0.0000 0.0000 0.0000
# 3 25.5432 37.1333 69.5252 0.0000 0.0000 0.0000
# 4 0.0000 0.0000 0.0000 19.1319 0.0000 0.0000
# 5 0.0000 0.0000 0.0000 0.0000 15.2164 0.0000
# 6 0.0000 0.0000 0.0000 0.0000 0.0000 14.0932
#
#
#
# Elastic Compliance Matrix: (Units=1/GPa)
#
#
# Indices 1 2 3 4 5 6 
#
# 1 0.024409 -0.004908 -0.006346 0.000000 0.000000 0.000000
# 2 -0.004908 0.016691 -0.007111 0.000000 0.000000 0.000000
# 3 -0.006346 -0.007111 0.020513 0.000000 0.000000 0.000000
# 4 0.000000 0.000000 0.000000 0.052269 0.000000 0.000000
# 5 0.000000 0.000000 0.000000 0.000000 0.065719 0.000000
# 6 0.000000 0.000000 0.000000 0.000000 0.000000 0.070956
#
#
# Mechanical properties :
#
#
# Convention : Reuss Voigt Hill
#
# Bulk Modulus (GPa) = 40.19082 42.69006 41.44044
# Shear Modulus (GPa) = 16.91576 17.47760 17.19668
#
# Velocity S-wave (km/s) = 3.28898 3.34316 3.31618
# Velocity P-wave (km/s) = 6.33441 6.49631 6.41587
#
# Compressibility (1/GPa) = 0.02488130
#
# Stress axis : x y z
#
# Youngs Moduli (GPa) = 40.96838 59.91220 48.74948
#
# Poissons Ratio (x) = 0.29407 0.30938
# Poissons Ratio (y) = 0.20108 0.34668
# Poissons Ratio (z) = 0.26000 0.42606
#
# Static dielectric constant tensor:
#      x y z
#    x 2.601060 0.000000 0.000000 
#    y 0.000000 3.207570 0.000000 
#    z 0.000000 0.000000 3.084760 
# 
# 
# High freq. dielectric constant tensor:
#      x y z
#    x 1.538800 0.000000 0.000000 
#    y 0.000000 1.608210 0.000000 
#    z 0.000000 0.000000 1.604650 
# 
# From -- ./inp_files/48382.got.cif
#   From: 2010.03.12/outbox.cif.g09.slc.cpg/sg63_25_cif.got.tgz:48382.got - 2010.04.10 19:34:48.
