data_PCOD8256479
_publ_section_title
;
Structure prediction by ZEFSAII (Michael W. Deem and Ramdas Pophale) SiO2 
 PCOD8256479
Probable space group: C M C M
;
_chemical_formula_sum "Si O2"
_cell_formula_units_Z 56
_cell_length_a 7.636832
_cell_length_b 13.765220
_cell_length_c 28.034523
_cell_angle_alpha 90.000000
_cell_angle_beta 90.000000
_cell_angle_gamma 90.000000
_cell_volume 2947.063982
_symmetry_space_group_name_H-M "C M C M"
_symmetry_group_IT_number 63
_symmetry_cell_setting 'orthorhombic'
loop_
_space_group_symop_operation_xyz
x,y,z
-x,-y,1/2+z
x,-y,-z
-x,y,1/2-z
-x,-y,-z
x,y,1/2-z
-x,y,z
x,-y,1/2+z
1/2+x,1/2+y,z
1/2-x,1/2-y,1/2+z
1/2+x,1/2-y,-z
1/2-x,1/2+y,1/2-z
1/2-x,1/2-y,-z
1/2+x,1/2+y,1/2-z
1/2-x,1/2+y,z
1/2+x,1/2-y,1/2+z
loop_
_atom_site_type_symbol
_atom_site_label
_atom_site_fract_x
_atom_site_fract_y
_atom_site_fract_z
Si Si1 0.000000 0.712788 0.399318
Si Si2 0.198354 0.963805 0.196199
Si Si3 0.308219 0.153245 0.891090
Si Si4 0.500000 0.001033 0.056322
Si Si5 0.000000 0.615307 0.303977
O O1 0.172265 0.772551 0.415193
O O2 0.000000 0.610822 0.425820
O O3 0.000000 0.702391 0.341782
O O4 0.227806 0.925347 0.250000
O O5 0.239628 0.875040 0.161234
O O6 0.327463 0.052545 0.185537
O O7 0.000000 0.000898 0.188606
O O8 0.500000 0.203787 0.886501
O O9 0.327598 0.055807 0.923775
O O10 0.500000 0.000000 0.000000
O O11 0.000000 0.656767 0.250000
#
# Coordination Sequence:
#
# PCOD8256479 Si02
#       5
#     8  16  16   8   8
#     4  12  22  40  68  91 125 165 201 255 311 375
#     4  10  18  33  61  90 126 167 204 248 299 364
#     4  10  22  40  61  96 121 160 207 249 309 374
#     4  10  24  48  65  90 127 157 205 272 317 360
#     4  10  20  36  58  89 129 170 205 243 303 365
#
# _framework density 19.001964999999998
#
# number of rings (size 3 to 8) (size 9 to 14) (size 15 to 20)
#    0.857    0.857    5.714    0.000    0.000    3.429 
#    2.571    0.714    0.000    0.000    0.000    0.000 
#    0.000    0.000    0.000    0.000    0.000    0.000 
#
# Total GULP energy -347077.413658 kJ/mol
# GULP energy per Si atom -12395.621916 kJ/mol
# Density = 1.895872 g / cm^3
# Si number density = 19.001965 Si / 1000 Ang^3
#
#
#
# Elastic Constant Matrix: (Units=GPa)
#
#
# Indices 1 2 3 4 5 6 
#
# 1 164.5670 63.7523 35.1030 0.0000 0.0000 0.0000
# 2 63.7523 116.1251 48.8663 0.0000 0.0000 0.0000
# 3 35.1030 48.8663 106.9456 0.0000 0.0000 0.0000
# 4 0.0000 0.0000 0.0000 14.1294 0.0000 0.0000
# 5 0.0000 0.0000 0.0000 0.0000 4.5764 0.0000
# 6 0.0000 0.0000 0.0000 0.0000 0.0000 32.5567
#
#
#
# Elastic Compliance Matrix: (Units=1/GPa)
#
#
# Indices 1 2 3 4 5 6 
#
# 1 0.007766 -0.003950 -0.000744 0.000000 0.000000 0.000000
# 2 -0.003950 0.012671 -0.004493 0.000000 0.000000 0.000000
# 3 -0.000744 -0.004493 0.011648 0.000000 0.000000 0.000000
# 4 0.000000 0.000000 0.000000 0.070774 0.000000 0.000000
# 5 0.000000 0.000000 0.000000 0.000000 0.218514 0.000000
# 6 0.000000 0.000000 0.000000 0.000000 0.000000 0.030716
#
#
# Mechanical properties :
#
#
# Convention : Reuss Voigt Hill
#
# Bulk Modulus (GPa) = 72.94124 75.89788 74.41956
# Shear Modulus (GPa) = 13.33218 26.24690 19.78954
#
# Velocity S-wave (km/s) = 2.65169 3.72058 3.23065
# Velocity P-wave (km/s) = 6.91699 7.64760 7.29145
#
# Compressibility (1/GPa) = 0.01370966
#
# Stress axis : x y z
#
# Youngs Moduli (GPa) = 128.77435 78.92204 85.85378
#
# Poissons Ratio (x) = 0.31176 0.06387
# Poissons Ratio (y) = 0.50868 0.38574
# Poissons Ratio (z) = 0.09580 0.35460
#
# Static dielectric constant tensor:
#      x y z
#    x 3.723650 0.000000 0.000000 
#    y 0.000000 3.160510 0.000000 
#    z 0.000000 0.000000 3.450470 
# 
# 
# High freq. dielectric constant tensor:
#      x y z
#    x 1.746100 0.000000 0.000000 
#    y 0.000000 1.715960 0.000000 
#    z 0.000000 0.000000 1.727880 
# 
# From -- ./inp_files/66226.got.cif
#   From: 2010.03.12/outbox.cif.g09.slc.cpg/sg63_34_cif.got.tgz:66226.got - 2010.04.10 19:34:48.
