data_PCOD8256506
_publ_section_title
;
Structure prediction by ZEFSAII (Michael W. Deem and Ramdas Pophale) SiO2 
 PCOD8256506
Probable space group: C M C M
;
_chemical_formula_sum "Si O2"
_cell_formula_units_Z 104
_cell_length_a 9.425391
_cell_length_b 21.364180
_cell_length_c 25.955984
_cell_angle_alpha 90.000000
_cell_angle_beta 90.000000
_cell_angle_gamma 90.000000
_cell_volume 5226.646182
_symmetry_space_group_name_H-M "C M C M"
_symmetry_group_IT_number 63
_symmetry_cell_setting 'orthorhombic'
loop_
_space_group_symop_operation_xyz
x,y,z
-x,-y,1/2+z
x,-y,-z
-x,y,1/2-z
-x,-y,-z
x,y,1/2-z
-x,y,z
x,-y,1/2+z
1/2+x,1/2+y,z
1/2-x,1/2-y,1/2+z
1/2+x,1/2-y,-z
1/2-x,1/2+y,1/2-z
1/2-x,1/2-y,-z
1/2+x,1/2+y,1/2-z
1/2-x,1/2+y,z
1/2+x,1/2-y,1/2+z
loop_
_atom_site_type_symbol
_atom_site_label
_atom_site_fract_x
_atom_site_fract_y
_atom_site_fract_z
Si Si1 0.347024 0.918901 0.918069
Si Si2 0.334073 0.660443 0.250000
Si Si3 0.343860 0.961278 0.348827
Si Si4 0.167750 0.532048 0.250000
Si Si5 0.221100 0.000000 0.500000
Si Si6 0.156723 0.101660 0.575560
Si Si7 0.331005 0.782594 0.453294
Si Si8 0.835378 0.187053 0.135261
O O1 0.500000 0.884518 0.920526
O O2 0.238785 0.872642 0.890376
O O3 0.362241 0.982591 0.887746
O O4 0.306878 0.941720 0.975289
O O5 0.500000 0.644959 0.250000
O O6 0.248358 0.596794 0.250000
O O7 0.293969 0.696920 0.196270
O O8 0.500000 0.929371 0.341165
O O9 0.229419 0.911750 0.369296
O O10 0.282758 0.989712 0.296927
O O11 0.000000 0.546615 0.250000
O O12 0.133045 0.963304 0.456182
O O13 0.262553 0.149060 0.547337
O O14 0.000000 0.130932 0.584015
O O15 0.500000 0.785738 0.463962
O O16 0.250000 0.750000 0.500000
O O17 0.298591 0.748220 0.398657
O O18 0.000000 0.171341 0.130997
#
# Coordination Sequence:
#
# PCOD8256506 Si02
#       8
#    16   8  16   8   8  16  16  16
#     4  10  19  32  54  82 113 148 189 236 286 341
#     4  10  20  36  59  88 119 153 194 242 294 353
#     4   9  19  34  54  81 115 149 184 229 285 344
#     4  10  18  34  57  86 119 153 190 234 288 347
#     4  10  22  36  54  82 116 150 190 234 292 352
#     4  11  23  39  58  82 113 150 191 237 289 348
#     4  11  24  42  62  85 117 157 202 250 301 359
#     4  10  22  38  58  85 118 153 193 242 298 357
#
# _framework density 19.898036999999999
#
# number of rings (size 3 to 8) (size 9 to 14) (size 15 to 20)
#    0.000    1.846    1.538    2.308    0.000    9.231 
#    0.000    0.769    0.000    2.769    0.000    0.000 
#    0.000    0.000    0.000    0.000    0.000    0.000 
#
# Total GULP energy -644218.271224 kJ/mol
# GULP energy per Si atom -12388.812908 kJ/mol
# Density = 1.985275 g / cm^3
# Si number density = 19.898037 Si / 1000 Ang^3
#
#
#
# Elastic Constant Matrix: (Units=GPa)
#
#
# Indices 1 2 3 4 5 6 
#
# 1 106.1438 39.4004 42.9757 0.0000 0.0000 0.0000
# 2 39.4004 69.2309 36.4791 0.0000 0.0000 0.0000
# 3 42.9757 36.4791 131.2414 0.0000 0.0000 0.0000
# 4 0.0000 0.0000 0.0000 44.7384 0.0000 0.0000
# 5 0.0000 0.0000 0.0000 0.0000 18.2539 0.0000
# 6 0.0000 0.0000 0.0000 0.0000 0.0000 27.7677
#
#
#
# Elastic Compliance Matrix: (Units=1/GPa)
#
#
# Indices 1 2 3 4 5 6 
#
# 1 0.012608 -0.005858 -0.002500 0.000000 0.000000 0.000000
# 2 -0.005858 0.019645 -0.003542 0.000000 0.000000 0.000000
# 3 -0.002500 -0.003542 0.009423 0.000000 0.000000 0.000000
# 4 0.000000 0.000000 0.000000 0.022352 0.000000 0.000000
# 5 0.000000 0.000000 0.000000 0.000000 0.054783 0.000000
# 6 0.000000 0.000000 0.000000 0.000000 0.000000 0.036013
#
#
# Mechanical properties :
#
#
# Convention : Reuss Voigt Hill
#
# Bulk Modulus (GPa) = 55.94476 60.48070 58.21273
# Shear Modulus (GPa) = 27.08816 30.66939 28.87878
#
# Velocity S-wave (km/s) = 3.69365 3.93023 3.81378
# Velocity P-wave (km/s) = 6.80937 7.14541 6.97941
#
# Compressibility (1/GPa) = 0.01787478
#
# Stress axis : x y z
#
# Youngs Moduli (GPa) = 79.31497 50.90441 106.12529
#
# Poissons Ratio (x) = 0.29819 0.26535
# Poissons Ratio (y) = 0.46462 0.37591
# Poissons Ratio (z) = 0.19831 0.18031
#
# Static dielectric constant tensor:
#      x y z
#    x 3.800210 0.000000 0.000000 
#    y 0.000000 3.445220 0.000000 
#    z 0.000000 0.000000 4.094540 
# 
# 
# High freq. dielectric constant tensor:
#      x y z
#    x 1.777860 0.000000 0.000000 
#    y 0.000000 1.752380 0.000000 
#    z 0.000000 0.000000 1.786550 
# 
# From -- ./inp_files/67125.got.cif
#   From: 2010.03.12/outbox.cif.g09.slc.cpg/sg63_34_cif.got.tgz:67125.got - 2010.04.10 19:34:48.
