data_PCOD8256146
_publ_section_title
;
Structure prediction by ZEFSAII (Michael W. Deem and Ramdas Pophale) SiO2 
 PCOD8256146
Probable space group: C M C M
;
_chemical_formula_sum "Si O2"
_cell_formula_units_Z 96
_cell_length_a 21.417897
_cell_length_b 12.120589
_cell_length_c 19.222818
_cell_angle_alpha 90.000000
_cell_angle_beta 90.000000
_cell_angle_gamma 90.000000
_cell_volume 4990.196011
_symmetry_space_group_name_H-M "C M C M"
_symmetry_group_IT_number 63
_symmetry_cell_setting 'orthorhombic'
loop_
_space_group_symop_operation_xyz
x,y,z
-x,-y,1/2+z
x,-y,-z
-x,y,1/2-z
-x,-y,-z
x,y,1/2-z
-x,y,z
x,-y,1/2+z
1/2+x,1/2+y,z
1/2-x,1/2-y,1/2+z
1/2+x,1/2-y,-z
1/2-x,1/2+y,1/2-z
1/2-x,1/2-y,-z
1/2+x,1/2+y,1/2-z
1/2-x,1/2+y,z
1/2+x,1/2-y,1/2+z
loop_
_atom_site_type_symbol
_atom_site_label
_atom_site_fract_x
_atom_site_fract_y
_atom_site_fract_z
Si Si1 0.666874 0.258130 0.939649
Si Si2 0.000000 0.275544 0.672174
Si Si3 0.072277 0.052992 0.075613
Si Si4 0.378070 0.368893 0.328634
Si Si5 0.365792 0.976883 0.081912
Si Si6 0.500000 0.015939 0.082254
Si Si7 0.697168 0.802075 0.906204
O O1 0.604607 0.327023 0.923043
O O2 0.666891 0.139157 0.901312
O O3 0.728635 0.320400 0.913067
O O4 0.667579 0.239390 0.021946
O O5 0.059768 0.200833 0.662232
O O6 0.000000 0.330297 0.750000
O O7 0.000000 0.357740 0.607204
O O8 0.000000 0.065083 0.099666
O O9 0.113780 0.979024 0.126744
O O10 0.075928 0.000000 0.000000
O O11 0.366489 0.406646 0.250000
O O12 0.319471 0.293151 0.351123
O O13 0.436279 0.963715 0.111845
O O14 0.330651 0.079599 0.118338
O O15 0.366398 0.000000 0.000000
O O16 0.500000 0.000000 0.000000
#
# Coordination Sequence:
#
# PCOD8256146 Si02
#       7
#    16   8  16  16  16   8  16
#     4  10  22  35  59  87 124 156 191 251 310 357
#     4  10  20  36  58  88 124 160 201 246 300 355
#     4  11  23  37  60  92 125 161 209 260 308 367
#     4  11  22  39  62  88 122 163 208 253 303 363
#     4   9  19  32  51  86 114 148 186 235 294 350
#     4  10  18  30  55  82 119 150 192 250 289 334
#     4  10  20  37  59  85 119 158 203 246 297 358
#
# _framework density 19.237722000000002
#
# number of rings (size 3 to 8) (size 9 to 14) (size 15 to 20)
#    0.000    1.833    4.167    0.000    3.500    0.667 
#    1.500    0.833    0.000    3.000    0.000    0.000 
#    0.000    0.000    0.000    0.000    0.000    0.000 
#
# Total GULP energy -595010.407994 kJ/mol
# GULP energy per Si atom -12396.050167 kJ/mol
# Density = 1.919394 g / cm^3
# Si number density = 19.237722 Si / 1000 Ang^3
#
#
#
# Elastic Constant Matrix: (Units=GPa)
#
#
# Indices 1 2 3 4 5 6 
#
# 1 89.0324 47.9810 13.4397 0.0000 0.0000 0.0000
# 2 47.9810 119.1746 30.8057 0.0000 0.0000 0.0000
# 3 13.4397 30.8057 60.7480 0.0000 0.0000 0.0000
# 4 0.0000 0.0000 0.0000 22.7415 0.0000 0.0000
# 5 0.0000 0.0000 0.0000 0.0000 21.8940 0.0000
# 6 0.0000 0.0000 0.0000 0.0000 0.0000 26.1453
#
#
#
# Elastic Compliance Matrix: (Units=1/GPa)
#
#
# Indices 1 2 3 4 5 6 
#
# 1 0.014348 -0.005704 -0.000282 0.000000 0.000000 0.000000
# 2 -0.005704 0.011924 -0.004785 0.000000 0.000000 0.000000
# 3 -0.000282 -0.004785 0.018950 0.000000 0.000000 0.000000
# 4 0.000000 0.000000 0.000000 0.043972 0.000000 0.000000
# 5 0.000000 0.000000 0.000000 0.000000 0.045675 0.000000
# 6 0.000000 0.000000 0.000000 0.000000 0.000000 0.038248
#
#
# Mechanical properties :
#
#
# Convention : Reuss Voigt Hill
#
# Bulk Modulus (GPa) = 42.22720 50.37864 46.30292
# Shear Modulus (GPa) = 24.68483 25.93806 25.31144
#
# Velocity S-wave (km/s) = 3.58599 3.67589 3.63122
# Velocity P-wave (km/s) = 6.25649 6.65286 6.45771
#
# Compressibility (1/GPa) = 0.02368142
#
# Stress axis : x y z
#
# Youngs Moduli (GPa) = 69.69427 83.86147 52.76951
#
# Poissons Ratio (x) = 0.47834 0.01487
# Poissons Ratio (y) = 0.39753 0.25250
# Poissons Ratio (z) = 0.01964 0.40128
#
# Static dielectric constant tensor:
#      x y z
#    x 3.655070 0.000000 0.000000 
#    y 0.000000 3.538530 0.000000 
#    z 0.000000 0.000000 3.327780 
# 
# 
# High freq. dielectric constant tensor:
#      x y z
#    x 1.759370 0.000000 0.000000 
#    y 0.000000 1.747830 0.000000 
#    z 0.000000 0.000000 1.703680 
# 
# From -- ./inp_files/57533.got.cif
#   From: 2010.03.12/outbox.cif.g09.slc.cpg/sg63_29_cif.got.tgz:57533.got - 2010.04.10 19:34:48.
