data_PCOD8256966
_publ_section_title
;
Structure prediction by ZEFSAII (Michael W. Deem and Ramdas Pophale) SiO2 
 PCOD8256966
Probable space group: C M C M
;
_chemical_formula_sum "Si O2"
_cell_formula_units_Z 96
_cell_length_a 24.970837
_cell_length_b 14.326581
_cell_length_c 15.467809
_cell_angle_alpha 90.000000
_cell_angle_beta 90.000000
_cell_angle_gamma 90.000000
_cell_volume 5533.557919
_symmetry_space_group_name_H-M "C M C M"
_symmetry_group_IT_number 63
_symmetry_cell_setting 'orthorhombic'
loop_
_space_group_symop_operation_xyz
x,y,z
-x,-y,1/2+z
x,-y,-z
-x,y,1/2-z
-x,-y,-z
x,y,1/2-z
-x,y,z
x,-y,1/2+z
1/2+x,1/2+y,z
1/2-x,1/2-y,1/2+z
1/2+x,1/2-y,-z
1/2-x,1/2+y,1/2-z
1/2-x,1/2-y,-z
1/2+x,1/2+y,1/2-z
1/2-x,1/2+y,z
1/2+x,1/2-y,1/2+z
loop_
_atom_site_type_symbol
_atom_site_label
_atom_site_fract_x
_atom_site_fract_y
_atom_site_fract_z
Si Si1 0.311917 0.398851 0.993863
Si Si2 0.223768 0.591584 0.149803
Si Si3 0.561159 0.252976 0.750000
Si Si4 0.235639 0.795473 0.345197
Si Si5 0.144224 0.743748 0.608763
Si Si6 0.941465 0.531557 0.750000
Si Si7 0.373138 0.969430 0.090582
O O1 0.274819 0.414974 0.911131
O O2 0.352995 0.315130 0.972420
O O3 0.341224 0.500000 0.000000
O O4 0.279112 0.369917 0.080538
O O5 0.237029 0.566636 0.250000
O O6 0.202070 0.698756 0.143171
O O7 0.183800 0.515549 0.110429
O O8 0.500000 0.294634 0.750000
O O9 0.596456 0.285019 0.668041
O O10 0.557474 0.142291 0.750000
O O11 0.223546 0.839117 0.250000
O O12 0.298051 0.765189 0.345338
O O13 0.129630 0.640917 0.579096
O O14 0.911971 0.494745 0.834606
O O15 0.000000 0.487302 0.750000
O O16 0.397746 0.000000 0.000000
#
# Coordination Sequence:
#
# PCOD8256966 Si02
#       7
#    16  16   8  16  16   8  16
#     4  11  22  32  46  73 107 137 168 200 239 295
#     4  10  19  31  48  72 100 136 170 193 232 291
#     4   9  18  34  55  74  93 125 166 215 264 294
#     4  10  19  32  48  71 106 141 167 200 236 290
#     4  10  19  33  50  72 104 129 164 211 248 286
#     4   9  20  34  47  72 101 123 160 211 250 286
#     4  11  19  31  52  72  97 135 168 197 239 299
#
# _framework density 17.348693000000001
#
# number of rings (size 3 to 8) (size 9 to 14) (size 15 to 20)
#    0.000    1.833    1.667    5.500    1.167    2.333 
#    0.000    0.000    0.000    0.500    0.000    0.000 
#    0.000    0.000    0.000    0.000    0.000    0.000 
#
# Total GULP energy -594627.853058 kJ/mol
# GULP energy per Si atom -12388.080272 kJ/mol
# Density = 1.730921 g / cm^3
# Si number density = 17.348693 Si / 1000 Ang^3
#
#
#
# Elastic Constant Matrix: (Units=GPa)
#
#
# Indices 1 2 3 4 5 6 
#
# 1 72.6310 23.5246 39.2535 0.0000 0.0000 0.0000
# 2 23.5246 90.1313 42.9597 0.0000 0.0000 0.0000
# 3 39.2535 42.9597 140.2449 0.0000 0.0000 0.0000
# 4 0.0000 0.0000 0.0000 6.4017 0.0000 0.0000
# 5 0.0000 0.0000 0.0000 0.0000 -28.9373 0.0000
# 6 0.0000 0.0000 0.0000 0.0000 0.0000 8.1200
#
#
#
# Elastic Compliance Matrix: (Units=1/GPa)
#
#
# Indices 1 2 3 4 5 6 
#
# 1 0.016687 -0.002493 -0.003907 0.000000 0.000000 0.000000
# 2 -0.002493 0.013364 -0.003396 0.000000 0.000000 0.000000
# 3 -0.003907 -0.003396 0.009264 0.000000 0.000000 0.000000
# 4 0.000000 0.000000 0.000000 0.156208 0.000000 0.000000
# 5 0.000000 0.000000 0.000000 0.000000 -0.034558 0.000000
# 6 0.000000 0.000000 0.000000 0.000000 0.000000 0.123152
#
#
# Mechanical properties :
#
#
# Convention : Reuss Voigt Hill
#
# Bulk Modulus (GPa) = 50.70083 57.16476 53.93280
# Shear Modulus (GPa) = 16.11423 10.26819 13.19121
#
# Velocity S-wave (km/s) = 3.05100 2.43548 2.76045
# Velocity P-wave (km/s) = 6.45752 6.39771 6.42768
#
# Compressibility (1/GPa) = 0.01972354
#
# Stress axis : x y z
#
# Youngs Moduli (GPa) = 59.92589 74.82633 107.94327
#
# Poissons Ratio (x) = 0.18656 0.42172
# Poissons Ratio (y) = 0.14941 0.36656
# Poissons Ratio (z) = 0.23413 0.25410
#
# Static dielectric constant tensor:
#      x y z
#    x 3.104840 0.000000 0.000000 
#    y 0.000000 3.535170 0.000000 
#    z 0.000000 0.000000 3.470190 
# 
# 
# High freq. dielectric constant tensor:
#      x y z
#    x 1.613610 0.000000 0.000000 
#    y 0.000000 1.668230 0.000000 
#    z 0.000000 0.000000 1.686240 
# 
# From -- ./inp_files/36803.got.cif
#   From: 2010.03.12/outbox.cif.g09.slc.cpg/sg63_19_cif.got.tgz:36803.got - 2010.04.10 19:34:48.
