data_PCOD8256041
_publ_section_title
;
Structure prediction by ZEFSAII (Michael W. Deem and Ramdas Pophale) SiO2 
 PCOD8256041
Probable space group: C M C M
;
_chemical_formula_sum "Si O2"
_cell_formula_units_Z 80
_cell_length_a 8.559583
_cell_length_b 27.347226
_cell_length_c 18.563294
_cell_angle_alpha 90.000000
_cell_angle_beta 90.000000
_cell_angle_gamma 90.000000
_cell_volume 4345.311653
_symmetry_space_group_name_H-M "C M C M"
_symmetry_group_IT_number 63
_symmetry_cell_setting 'orthorhombic'
loop_
_space_group_symop_operation_xyz
x,y,z
-x,-y,1/2+z
x,-y,-z
-x,y,1/2-z
-x,-y,-z
x,y,1/2-z
-x,y,z
x,-y,1/2+z
1/2+x,1/2+y,z
1/2-x,1/2-y,1/2+z
1/2+x,1/2-y,-z
1/2-x,1/2+y,1/2-z
1/2-x,1/2-y,-z
1/2+x,1/2+y,1/2-z
1/2-x,1/2+y,z
1/2+x,1/2-y,1/2+z
loop_
_atom_site_type_symbol
_atom_site_label
_atom_site_fract_x
_atom_site_fract_y
_atom_site_fract_z
Si Si1 0.185213 0.072904 0.036659
Si Si2 0.814085 0.023636 0.892850
Si Si3 0.816562 0.181640 0.040003
Si Si4 0.184576 0.072441 0.750000
Si Si5 0.180775 0.772605 0.111951
Si Si6 0.319436 0.821175 0.250000
O O1 0.246714 0.126932 0.055915
O O2 0.000000 0.075193 0.030647
O O3 0.236442 0.033314 0.097227
O O4 0.251681 0.055559 0.959337
O O5 0.742041 0.045605 0.819734
O O6 0.000000 0.027198 0.891580
O O7 0.723036 0.216692 0.093762
O O8 0.000000 0.187773 0.055326
O O9 0.778940 0.193818 0.956844
O O10 0.220501 0.129455 0.750000
O O11 0.000000 0.066003 0.750000
O O12 0.281755 0.789863 0.179331
O O13 0.000000 0.776408 0.132916
O O14 0.500000 0.835035 0.250000
#
# Coordination Sequence:
#
# PCOD8256041 Si02
#       6
#    16  16  16   8  16   8
#     4   8  13  24  43  68  97 127 159 197 239 280
#     4   8  14  24  42  69  98 126 159 198 236 280
#     4   9  17  31  52  76 102 133 168 207 248 290
#     4  10  18  30  49  72  95 121 156 197 243 292
#     4  10  20  34  52  74 100 131 168 207 249 299
#     4  12  24  36  51  72  99 129 162 205 255 302
#
# _framework density 18.410647000000001
#
# number of rings (size 3 to 8) (size 9 to 14) (size 15 to 20)
#    0.000    2.800    0.000    3.900    0.000    4.000 
#    0.000    1.000    0.000    4.800    0.000    4.200 
#    0.000    0.000    0.000    0.000    0.000    0.000 
#
# Total GULP energy -495860.571909 kJ/mol
# GULP energy per Si atom -12396.514298 kJ/mol
# Density = 1.836874 g / cm^3
# Si number density = 18.410647 Si / 1000 Ang^3
#
#
#
# Elastic Constant Matrix: (Units=GPa)
#
#
# Indices 1 2 3 4 5 6 
#
# 1 20.1807 5.0783 11.2788 0.0000 0.0000 0.0000
# 2 5.0783 151.9236 52.8200 0.0000 0.0000 0.0000
# 3 11.2788 52.8200 103.9783 0.0000 0.0000 0.0000
# 4 0.0000 0.0000 0.0000 22.9916 0.0000 0.0000
# 5 0.0000 0.0000 0.0000 0.0000 14.3928 0.0000
# 6 0.0000 0.0000 0.0000 0.0000 0.0000 21.1840
#
#
#
# Elastic Compliance Matrix: (Units=1/GPa)
#
#
# Indices 1 2 3 4 5 6 
#
# 1 0.052760 0.000275 -0.005863 0.000000 0.000000 0.000000
# 2 0.000275 0.007996 -0.004091 0.000000 0.000000 0.000000
# 3 -0.005863 -0.004091 0.012332 0.000000 0.000000 0.000000
# 4 0.000000 0.000000 0.000000 0.043494 0.000000 0.000000
# 5 0.000000 0.000000 0.000000 0.000000 0.069479 0.000000
# 6 0.000000 0.000000 0.000000 0.000000 0.000000 0.047205
#
#
# Mechanical properties :
#
#
# Convention : Reuss Voigt Hill
#
# Bulk Modulus (GPa) = 18.61217 46.04853 32.33035
# Shear Modulus (GPa) = 18.48201 25.50740 21.99470
#
# Velocity S-wave (km/s) = 3.17184 3.72623 3.46015
# Velocity P-wave (km/s) = 4.85237 6.60146 5.79330
#
# Compressibility (1/GPa) = 0.05372829
#
# Stress axis : x y z
#
# Youngs Moduli (GPa) = 18.95391 125.06909 81.09153
#
# Poissons Ratio (x) = -0.03435 0.47540
# Poissons Ratio (y) = -0.00521 0.33178
# Poissons Ratio (z) = 0.11112 0.51172
#
# Static dielectric constant tensor:
#      x y z
#    x 2.949910 0.000000 0.000000 
#    y 0.000000 3.659090 0.000000 
#    z 0.000000 0.000000 3.494600 
# 
# 
# High freq. dielectric constant tensor:
#      x y z
#    x 1.671090 0.000000 0.000000 
#    y 0.000000 1.725850 0.000000 
#    z 0.000000 0.000000 1.703410 
# 
# From -- ./inp_files/40596.got.cif
#   From: 2010.03.12/outbox.cif.g09.slc.cpg/sg63_21_cif.got.tgz:40596.got - 2010.04.10 19:34:48.
