data_PCOD8256624
_publ_section_title
;
Structure prediction by ZEFSAII (Michael W. Deem and Ramdas Pophale) SiO2 
 PCOD8256624
Probable space group: C M C M
;
_chemical_formula_sum "Si O2"
_cell_formula_units_Z 72
_cell_length_a 22.723103
_cell_length_b 23.224600
_cell_length_c 9.043125
_cell_angle_alpha 90.000000
_cell_angle_beta 90.000000
_cell_angle_gamma 90.000000
_cell_volume 4772.373372
_symmetry_space_group_name_H-M "C M C M"
_symmetry_group_IT_number 63
_symmetry_cell_setting 'orthorhombic'
loop_
_space_group_symop_operation_xyz
x,y,z
-x,-y,1/2+z
x,-y,-z
-x,y,1/2-z
-x,-y,-z
x,y,1/2-z
-x,y,z
x,-y,1/2+z
1/2+x,1/2+y,z
1/2-x,1/2-y,1/2+z
1/2+x,1/2-y,-z
1/2-x,1/2+y,1/2-z
1/2-x,1/2-y,-z
1/2+x,1/2+y,1/2-z
1/2-x,1/2+y,z
1/2+x,1/2-y,1/2+z
loop_
_atom_site_type_symbol
_atom_site_label
_atom_site_fract_x
_atom_site_fract_y
_atom_site_fract_z
Si Si1 0.222053 0.662378 0.581552
Si Si2 0.175842 0.777452 0.918374
Si Si3 0.500000 0.438613 0.076288
Si Si4 0.606548 0.616659 0.417191
Si Si5 0.732503 0.439945 0.579011
O O1 0.226441 0.641393 0.750000
O O2 0.167536 0.708016 0.559521
O O3 0.279443 0.699366 0.540847
O O4 0.218575 0.605441 0.480651
O O5 0.199778 0.789093 0.750000
O O6 0.115593 0.814157 0.936565
O O7 0.500000 0.447962 0.250000
O O8 0.500000 0.500000 0.000000
O O9 0.442293 0.403397 0.031577
O O10 0.586223 0.602048 0.250000
O O11 0.667398 0.584043 0.453868
O O12 0.741826 0.500000 0.500000
O O13 0.744177 0.449246 0.750000
#
# Coordination Sequence:
#
# PCOD8256624 Si02
#       5
#    16  16   8  16  16
#     4   9  15  24  40  60  80 101 126 158 195 235
#     4   8  15  27  42  59  77  99 128 160 196 238
#     4  12  24  34  44  58  76 102 137 174 211 244
#     4   9  18  32  46  58  75 101 134 171 206 238
#     4  10  19  29  41  58  80 107 137 166 198 237
#
# _framework density 15.086833
#
# number of rings (size 3 to 8) (size 9 to 14) (size 15 to 20)
#    0.000    2.667    0.000    4.333    0.000    7.111 
#    0.000    0.000    0.000    0.000    0.000    0.000 
#    0.000    0.000    0.000    1.000    0.000   11.111 
#
# Total GULP energy -446020.460417 kJ/mol
# GULP energy per Si atom -12389.457234 kJ/mol
# Density = 1.505249 g / cm^3
# Si number density = 15.086833 Si / 1000 Ang^3
#
#
#
# Elastic Constant Matrix: (Units=GPa)
#
#
# Indices 1 2 3 4 5 6 
#
# 1 33.9565 43.0868 28.3288 0.0000 0.0000 0.0000
# 2 43.0868 138.0194 63.4299 0.0000 0.0000 0.0000
# 3 28.3288 63.4299 95.6194 0.0000 0.0000 0.0000
# 4 0.0000 0.0000 0.0000 27.5918 0.0000 0.0000
# 5 0.0000 0.0000 0.0000 0.0000 16.4256 0.0000
# 6 0.0000 0.0000 0.0000 0.0000 0.0000 20.1240
#
#
#
# Elastic Compliance Matrix: (Units=1/GPa)
#
#
# Indices 1 2 3 4 5 6 
#
# 1 0.051515 -0.013045 -0.006609 0.000000 0.000000 0.000000
# 2 -0.013045 0.013726 -0.005241 0.000000 0.000000 0.000000
# 3 -0.006609 -0.005241 0.015893 0.000000 0.000000 0.000000
# 4 0.000000 0.000000 0.000000 0.036243 0.000000 0.000000
# 5 0.000000 0.000000 0.000000 0.000000 0.060881 0.000000
# 6 0.000000 0.000000 0.000000 0.000000 0.000000 0.049692
#
#
# Mechanical properties :
#
#
# Convention : Reuss Voigt Hill
#
# Bulk Modulus (GPa) = 31.90257 59.69850 45.80054
# Shear Modulus (GPa) = 17.34990 21.67826 19.51408
#
# Velocity S-wave (km/s) = 3.39485 3.79476 3.60036
# Velocity P-wave (km/s) = 6.04637 7.67177 6.90705
#
# Compressibility (1/GPa) = 0.03134543
#
# Stress axis : x y z
#
# Youngs Moduli (GPa) = 19.41167 72.85391 62.92267
#
# Poissons Ratio (x) = 0.95036 0.41585
# Poissons Ratio (y) = 0.25322 0.32975
# Poissons Ratio (z) = 0.12829 0.38180
#
# Static dielectric constant tensor:
#      x y z
#    x 2.534980 0.000000 0.000000 
#    y 0.000000 3.287360 0.000000 
#    z 0.000000 0.000000 3.022160 
# 
# 
# High freq. dielectric constant tensor:
#      x y z
#    x 1.505970 0.000000 0.000000 
#    y 0.000000 1.589610 0.000000 
#    z 0.000000 0.000000 1.593310 
# 
# From -- ./inp_files/7996.got.cif
#   From: 2010.03.12/outbox.cif.g09.slc.cpg/sg63_4_cif.got.tgz:7996.got - 2010.04.10 19:34:48.
