data_PCOD8256681
_publ_section_title
;
Structure prediction by ZEFSAII (Michael W. Deem and Ramdas Pophale) SiO2 
 PCOD8256681
Probable space group: C M C M
;
_chemical_formula_sum "Si O2"
_cell_formula_units_Z 128
_cell_length_a 28.194282
_cell_length_b 27.680515
_cell_length_c 9.803735
_cell_angle_alpha 90.000000
_cell_angle_beta 90.000000
_cell_angle_gamma 90.000000
_cell_volume 7651.150923
_symmetry_space_group_name_H-M "C M C M"
_symmetry_group_IT_number 63
_symmetry_cell_setting 'orthorhombic'
loop_
_space_group_symop_operation_xyz
x,y,z
-x,-y,1/2+z
x,-y,-z
-x,y,1/2-z
-x,-y,-z
x,y,1/2-z
-x,y,z
x,-y,1/2+z
1/2+x,1/2+y,z
1/2-x,1/2-y,1/2+z
1/2+x,1/2-y,-z
1/2-x,1/2+y,1/2-z
1/2-x,1/2-y,-z
1/2+x,1/2+y,1/2-z
1/2-x,1/2+y,z
1/2+x,1/2-y,1/2+z
loop_
_atom_site_type_symbol
_atom_site_label
_atom_site_fract_x
_atom_site_fract_y
_atom_site_fract_z
Si Si1 0.795650 0.113543 0.098160
Si Si2 0.052204 0.678346 0.087771
Si Si3 0.946127 0.960383 0.402237
Si Si4 0.267773 0.793213 0.905362
Si Si5 0.947639 0.787099 0.087688
Si Si6 0.350231 0.861216 0.912219
Si Si7 0.118625 0.130369 0.594900
Si Si8 0.792171 0.547483 0.090199
O O1 0.816210 0.105740 0.250000
O O2 0.771029 0.165145 0.089802
O O3 0.759430 0.070316 0.063796
O O4 0.837283 0.111943 0.990282
O O5 0.051932 0.677626 0.250000
O O6 0.061873 0.732738 0.036586
O O7 0.095665 0.645353 0.033188
O O8 0.000000 0.660395 0.035251
O O9 0.942712 0.981232 0.250000
O O10 0.921416 0.909476 0.413703
O O11 0.000000 0.951440 0.448088
O O12 0.921717 0.000000 0.500000
O O13 0.274002 0.774031 0.750000
O O14 0.317100 0.816445 0.961978
O O15 0.250000 0.750000 0.000000
O O16 0.946824 0.790095 0.250000
O O17 0.905565 0.821342 0.031488
O O18 0.000000 0.803584 0.036368
O O19 0.347213 0.860305 0.750000
O O20 0.331185 0.913313 0.961015
O O21 0.135805 0.138891 0.750000
O O22 0.798994 0.534853 0.250000
O O23 0.798875 0.500000 0.000000
#
# Coordination Sequence:
#
# PCOD8256681 Si02
#       8
#    16  16  16  16  16  16  16  16
#     4   9  20  35  45  63  95 125 150 185 235 279
#     4   8  13  22  40  68  98 124 151 184 224 273
#     4   9  18  32  47  63  85 113 149 194 242 288
#     4   9  18  31  47  66  93 126 156 188 226 268
#     4   8  14  24  39  64  95 121 149 190 235 270
#     4   8  15  28  45  67  96 126 153 185 233 279
#     4  10  19  29  46  69  90 116 154 197 236 272
#     4   9  18  34  53  69  90 122 156 192 232 276
#
# _framework density 16.729509
#
# number of rings (size 3 to 8) (size 9 to 14) (size 15 to 20)
#    0.000    3.250    0.000    2.625    1.750    3.500 
#    0.000    4.375    0.000    1.500    0.000    0.000 
#    0.000    1.500    0.000    0.000    0.000    0.000 
#
# Total GULP energy -793062.344360 kJ/mol
# GULP energy per Si atom -12391.599131 kJ/mol
# Density = 1.669143 g / cm^3
# Si number density = 16.729509 Si / 1000 Ang^3
#
#
#
# Elastic Constant Matrix: (Units=GPa)
#
#
# Indices 1 2 3 4 5 6 
#
# 1 114.7603 56.3474 41.8818 0.0000 0.0000 0.0000
# 2 56.3474 100.3711 41.1279 0.0000 0.0000 0.0000
# 3 41.8818 41.1279 49.4401 0.0000 0.0000 0.0000
# 4 0.0000 0.0000 0.0000 23.7453 0.0000 0.0000
# 5 0.0000 0.0000 0.0000 0.0000 10.2000 0.0000
# 6 0.0000 0.0000 0.0000 0.0000 0.0000 17.3066
#
#
#
# Elastic Compliance Matrix: (Units=1/GPa)
#
#
# Indices 1 2 3 4 5 6 
#
# 1 0.013833 -0.004497 -0.007978 0.000000 0.000000 0.000000
# 2 -0.004497 0.016577 -0.009981 0.000000 0.000000 0.000000
# 3 -0.007978 -0.009981 0.035287 0.000000 0.000000 0.000000
# 4 0.000000 0.000000 0.000000 0.042114 0.000000 0.000000
# 5 0.000000 0.000000 0.000000 0.000000 0.098039 0.000000
# 6 0.000000 0.000000 0.000000 0.000000 0.000000 0.057781
#
#
# Mechanical properties :
#
#
# Convention : Reuss Voigt Hill
#
# Bulk Modulus (GPa) = 48.10653 60.36511 54.23582
# Shear Modulus (GPa) = 15.84932 18.59801 17.22366
#
# Velocity S-wave (km/s) = 3.08130 3.33782 3.21212
# Velocity P-wave (km/s) = 6.44028 7.14255 6.80049
#
# Compressibility (1/GPa) = 0.02078720
#
# Stress axis : x y z
#
# Youngs Moduli (GPa) = 72.28961 60.32353 28.33898
#
# Poissons Ratio (x) = 0.27128 0.22607
# Poissons Ratio (y) = 0.32509 0.28284
# Poissons Ratio (z) = 0.57669 0.60207
#
# Static dielectric constant tensor:
#      x y z
#    x 3.389720 0.000000 0.000000 
#    y 0.000000 3.131860 0.000000 
#    z 0.000000 0.000000 2.878000 
# 
# 
# High freq. dielectric constant tensor:
#      x y z
#    x 1.647370 0.000000 0.000000 
#    y 0.000000 1.638260 0.000000 
#    z 0.000000 0.000000 1.600650 
# 
# From -- ./inp_files/25312.got.cif
#   From: 2010.03.12/outbox.cif.g09.slc.cpg/sg63_13_cif.got.tgz:25312.got - 2010.04.10 19:34:48.
