data_PCOD8256005
_publ_section_title
;
Structure prediction by ZEFSAII (Michael W. Deem and Ramdas Pophale) SiO2 
 PCOD8256005
Probable space group: C M C M
;
_chemical_formula_sum "Si O2"
_cell_formula_units_Z 88
_cell_length_a 25.133716
_cell_length_b 8.958765
_cell_length_c 21.292712
_cell_angle_alpha 90.000000
_cell_angle_beta 90.000000
_cell_angle_gamma 90.000000
_cell_volume 4794.417259
_symmetry_space_group_name_H-M "C M C M"
_symmetry_group_IT_number 63
_symmetry_cell_setting 'orthorhombic'
loop_
_space_group_symop_operation_xyz
x,y,z
-x,-y,1/2+z
x,-y,-z
-x,y,1/2-z
-x,-y,-z
x,y,1/2-z
-x,y,z
x,-y,1/2+z
1/2+x,1/2+y,z
1/2-x,1/2-y,1/2+z
1/2+x,1/2-y,-z
1/2-x,1/2+y,1/2-z
1/2-x,1/2-y,-z
1/2+x,1/2+y,1/2-z
1/2-x,1/2+y,z
1/2+x,1/2-y,1/2+z
loop_
_atom_site_type_symbol
_atom_site_label
_atom_site_fract_x
_atom_site_fract_y
_atom_site_fract_z
Si Si1 0.873749 0.985769 0.428487
Si Si2 0.937794 0.818092 0.178127
Si Si3 0.836410 0.308419 0.106070
Si Si4 0.313101 0.000000 0.000000
Si Si5 0.716459 0.247116 0.413976
Si Si6 0.144131 0.573551 0.180079
O O1 0.915252 0.922954 0.377407
O O2 0.820691 0.886336 0.432946
O O3 0.897127 0.000000 0.500000
O O4 0.860908 0.147321 0.400713
O O5 0.925778 0.877291 0.250000
O O6 0.912566 0.653874 0.169583
O O7 0.000000 0.802483 0.167136
O O8 0.852479 0.419915 0.049064
O O9 0.772378 0.308092 0.109888
O O10 0.860233 0.395658 0.166105
O O11 0.275653 0.132494 0.027569
O O12 0.689949 0.152243 0.359355
O O13 0.164319 0.593105 0.250000
#
# Coordination Sequence:
#
# PCOD8256005 Si02
#       6
#    16  16  16   8  16  16
#     4  11  21  33  55  89 119 143 181 236 280 320
#     4   9  20  42  65  79 101 142 187 231 286 347
#     4  11  21  31  51  80 115 149 185 218 265 322
#     4  10  18  30  48  70 107 152 191 210 240 312
#     4  10  20  32  51  79 113 156 187 216 262 323
#     4   9  20  37  54  76 105 143 189 227 269 328
#
# _framework density 18.354680999999999
#
# number of rings (size 3 to 8) (size 9 to 14) (size 15 to 20)
#    0.000    2.000    1.818    2.727    2.545    1.818 
#    0.000    4.545    0.000    3.273    0.000    0.000 
#    0.000    0.000    0.000    0.000    0.000    0.000 
#
# Total GULP energy -545242.662759 kJ/mol
# GULP energy per Si atom -12391.878699 kJ/mol
# Density = 1.831291 g / cm^3
# Si number density = 18.354681 Si / 1000 Ang^3
#
#
#
# Elastic Constant Matrix: (Units=GPa)
#
#
# Indices 1 2 3 4 5 6 
#
# 1 88.2968 40.0895 50.2903 0.0000 0.0000 0.0000
# 2 40.0895 135.6340 54.5504 0.0000 0.0000 0.0000
# 3 50.2903 54.5504 101.4342 0.0000 0.0000 0.0000
# 4 0.0000 0.0000 0.0000 31.3710 0.0000 0.0000
# 5 0.0000 0.0000 0.0000 0.0000 15.6175 0.0000
# 6 0.0000 0.0000 0.0000 0.0000 0.0000 13.6850
#
#
#
# Elastic Compliance Matrix: (Units=1/GPa)
#
#
# Indices 1 2 3 4 5 6 
#
# 1 0.016191 -0.001987 -0.006959 0.000000 0.000000 0.000000
# 2 -0.001987 0.009651 -0.004205 0.000000 0.000000 0.000000
# 3 -0.006959 -0.004205 0.015570 0.000000 0.000000 0.000000
# 4 0.000000 0.000000 0.000000 0.031877 0.000000 0.000000
# 5 0.000000 0.000000 0.000000 0.000000 0.064031 0.000000
# 6 0.000000 0.000000 0.000000 0.000000 0.000000 0.073073
#
#
# Mechanical properties :
#
#
# Convention : Reuss Voigt Hill
#
# Bulk Modulus (GPa) = 66.17862 68.35837 67.26850
# Shear Modulus (GPa) = 20.68409 24.16370 22.42390
#
# Velocity S-wave (km/s) = 3.36059 3.63228 3.49907
# Velocity P-wave (km/s) = 7.15485 7.41047 7.28378
#
# Compressibility (1/GPa) = 0.01511062
#
# Stress axis : x y z
#
# Youngs Moduli (GPa) = 61.76263 103.61216 64.22451
#
# Poissons Ratio (x) = 0.20586 0.44693
# Poissons Ratio (y) = 0.12271 0.27009
# Poissons Ratio (z) = 0.42980 0.43573
#
# Static dielectric constant tensor:
#      x y z
#    x 3.016340 0.000000 0.000000 
#    y 0.000000 3.681810 0.000000 
#    z 0.000000 0.000000 3.761890 
# 
# 
# High freq. dielectric constant tensor:
#      x y z
#    x 1.670030 0.000000 0.000000 
#    y 0.000000 1.726990 0.000000 
#    z 0.000000 0.000000 1.725420 
# 
# From -- ./inp_files/57328.got.cif
#   From: 2010.03.12/outbox.cif.g09.slc.cpg/sg63_29_cif.got.tgz:57328.got - 2010.04.10 19:34:48.
