data_PCOD8256072
_publ_section_title
;
Structure prediction by ZEFSAII (Michael W. Deem and Ramdas Pophale) SiO2 
 PCOD8256072
Probable space group: C M C M
;
_chemical_formula_sum "Si O2"
_cell_formula_units_Z 80
_cell_length_a 9.021378
_cell_length_b 14.701452
_cell_length_c 33.641537
_cell_angle_alpha 90.000000
_cell_angle_beta 90.000000
_cell_angle_gamma 90.000000
_cell_volume 4461.788092
_symmetry_space_group_name_H-M "C M C M"
_symmetry_group_IT_number 63
_symmetry_cell_setting 'orthorhombic'
loop_
_space_group_symop_operation_xyz
x,y,z
-x,-y,1/2+z
x,-y,-z
-x,y,1/2-z
-x,-y,-z
x,y,1/2-z
-x,y,z
x,-y,1/2+z
1/2+x,1/2+y,z
1/2-x,1/2-y,1/2+z
1/2+x,1/2-y,-z
1/2-x,1/2+y,1/2-z
1/2-x,1/2-y,-z
1/2+x,1/2+y,1/2-z
1/2-x,1/2+y,z
1/2+x,1/2-y,1/2+z
loop_
_atom_site_type_symbol
_atom_site_label
_atom_site_fract_x
_atom_site_fract_y
_atom_site_fract_z
Si Si1 0.324479 0.348612 0.999969
Si Si2 0.824150 0.000034 0.560629
Si Si3 0.676261 0.498832 0.350351
Si Si4 0.172508 0.360404 0.704556
Si Si5 0.675698 0.654707 0.706557
O O1 0.500000 0.333885 0.000027
O O2 0.272333 0.407747 0.038253
O O3 0.250000 0.250000 0.000000
O O4 0.272386 0.407666 0.961643
O O5 0.000000 0.000286 0.561095
O O6 0.757653 0.000125 0.605099
O O7 0.500000 0.498173 0.351774
O O8 0.728226 0.585975 0.326347
O O9 0.740475 0.410285 0.327650
O O10 0.206017 0.389676 0.750000
O O11 0.223004 0.257144 0.697458
O O12 0.000000 0.374645 0.694877
O O13 0.737693 0.624909 0.750000
O O14 0.500000 0.647837 0.707672
#
# Coordination Sequence:
#
# PCOD8256072 Si02
#       5
#    16  16  16  16  16
#     4   9  17  33  53  70  93 126 158 188 231 283
#     4   8  17  32  48  69  98 126 151 188 240 288
#     4  10  18  30  50  72  92 120 161 200 231 272
#     4   9  18  32  47  66  96 129 156 189 237 280
#     4   8  15  28  45  64  88 120 155 187 223 273
#
# _framework density 17.930031
#
# number of rings (size 3 to 8) (size 9 to 14) (size 15 to 20)
#    0.000    3.200    0.000    3.000    0.000    2.800 
#    0.000    7.000    0.000    1.200    0.000    0.000 
#    0.000    0.000    0.000    0.000    0.000    0.000 
#
# Total GULP energy -495715.602334 kJ/mol
# GULP energy per Si atom -12392.890058 kJ/mol
# Density = 1.788922 g / cm^3
# Si number density = 17.930031 Si / 1000 Ang^3
#
#
#
# Elastic Constant Matrix: (Units=GPa)
#
#
# Indices 1 2 3 4 5 6 
#
# 1 16.1598 23.3308 21.4345 0.0000 0.0000 0.0000
# 2 23.3308 151.0698 93.5199 0.0000 0.0000 0.0000
# 3 21.4345 93.5199 172.5243 0.0000 0.0000 0.0000
# 4 0.0000 0.0000 0.0000 4.3404 0.0000 0.0000
# 5 0.0000 0.0000 0.0000 0.0000 18.1617 0.0000
# 6 0.0000 0.0000 0.0000 0.0000 0.0000 30.0785
#
#
#
# Elastic Compliance Matrix: (Units=1/GPa)
#
#
# Indices 1 2 3 4 5 6 
#
# 1 0.082439 -0.009619 -0.005028 0.000000 0.000000 0.000000
# 2 -0.009619 0.011085 -0.004814 0.000000 0.000000 0.000000
# 3 -0.005028 -0.004814 0.009030 0.000000 0.000000 0.000000
# 4 0.000000 0.000000 0.000000 0.230393 0.000000 0.000000
# 5 0.000000 0.000000 0.000000 0.000000 0.055061 0.000000
# 6 0.000000 0.000000 0.000000 0.000000 0.000000 0.033246
#
#
# Mechanical properties :
#
#
# Convention : Reuss Voigt Hill
#
# Bulk Modulus (GPa) = 15.71528 68.48049 42.09789
# Shear Modulus (GPa) = 10.38666 23.94736 17.16701
#
# Velocity S-wave (km/s) = 2.40945 3.65855 3.09762
# Velocity P-wave (km/s) = 4.06502 7.49151 6.02691
#
# Compressibility (1/GPa) = 0.06363232
#
# Stress axis : x y z
#
# Youngs Moduli (GPa) = 12.13025 90.21269 110.73777
#
# Poissons Ratio (x) = 0.86775 0.55680
# Poissons Ratio (y) = 0.11668 0.53306
# Poissons Ratio (z) = 0.06099 0.43426
#
# Static dielectric constant tensor:
#      x y z
#    x 2.806900 0.000000 0.000000 
#    y 0.000000 3.428740 0.000000 
#    z 0.000000 0.000000 4.947150 
# 
# 
# High freq. dielectric constant tensor:
#      x y z
#    x 1.645470 0.000000 0.000000 
#    y 0.000000 1.702240 0.000000 
#    z 0.000000 0.000000 1.701260 
# 
# From -- ./inp_files/72508.got.cif
#   From: 2010.03.12/outbox.cif.g09.slc.cpg/sg63_37_cif.got.tgz:72508.got - 2010.04.10 19:34:48.
