data_PCOD8256169
_publ_section_title
;
Structure prediction by ZEFSAII (Michael W. Deem and Ramdas Pophale) SiO2 
 PCOD8256169
Probable space group: C M C M
;
_chemical_formula_sum "Si O2"
_cell_formula_units_Z 56
_cell_length_a 20.303249
_cell_length_b 16.432107
_cell_length_c 10.258081
_cell_angle_alpha 90.000000
_cell_angle_beta 90.000000
_cell_angle_gamma 90.000000
_cell_volume 3422.353915
_symmetry_space_group_name_H-M "C M C M"
_symmetry_group_IT_number 63
_symmetry_cell_setting 'orthorhombic'
loop_
_space_group_symop_operation_xyz
x,y,z
-x,-y,1/2+z
x,-y,-z
-x,y,1/2-z
-x,-y,-z
x,y,1/2-z
-x,y,z
x,-y,1/2+z
1/2+x,1/2+y,z
1/2-x,1/2-y,1/2+z
1/2+x,1/2-y,-z
1/2-x,1/2+y,1/2-z
1/2-x,1/2-y,-z
1/2+x,1/2+y,1/2-z
1/2-x,1/2+y,z
1/2+x,1/2-y,1/2+z
loop_
_atom_site_type_symbol
_atom_site_label
_atom_site_fract_x
_atom_site_fract_y
_atom_site_fract_z
Si Si1 0.133695 0.346352 0.026697
Si Si2 0.307454 0.740263 0.250000
Si Si3 0.271630 0.000000 0.500000
Si Si4 0.726211 0.434705 0.750000
Si Si5 0.832655 0.687438 0.250000
Si Si6 0.000000 0.573098 0.601673
O O1 0.124738 0.306157 0.882693
O O2 0.162820 0.277506 0.119704
O O3 0.183014 0.422279 0.028177
O O4 0.063209 0.371303 0.080528
O O5 0.323319 0.642818 0.250000
O O6 0.227761 0.752577 0.250000
O O7 0.220620 0.011646 0.380238
O O8 0.802226 0.403478 0.750000
O O9 0.000000 0.500000 0.500000
O O10 0.000000 0.538841 0.750000
#
# Coordination Sequence:
#
# PCOD8256169 Si02
#       6
#    16   8   8   8   8   8
#     4  11  20  35  51  74 108 140 184 215 256 315
#     4  10  19  34  51  72 103 140 178 217 272 316
#     4  10  18  31  48  72 100 137 170 216 250 314
#     4   8  19  29  47  72  97 133 170 207 273 300
#     4   8  20  31  52  72  92 141 172 222 267 302
#     4  12  26  34  52  74 108 152 190 215 250 308
#
# _framework density 16.363005999999999
#
# number of rings (size 3 to 8) (size 9 to 14) (size 15 to 20)
#    0.857    1.143    2.857    1.714    2.000    0.000 
#    0.000    0.000    0.000    0.000    0.000    0.000 
#    0.000    4.571    0.000    0.000    0.000    0.000 
#
# Total GULP energy -346936.274181 kJ/mol
# GULP energy per Si atom -12390.581221 kJ/mol
# Density = 1.632576 g / cm^3
# Si number density = 16.363006 Si / 1000 Ang^3
#
#
#
# Elastic Constant Matrix: (Units=GPa)
#
#
# Indices 1 2 3 4 5 6 
#
# 1 51.4226 39.1985 43.0171 0.0000 0.0000 0.0000
# 2 39.1985 74.4542 61.9656 0.0000 0.0000 0.0000
# 3 43.0171 61.9656 184.0101 0.0000 0.0000 0.0000
# 4 0.0000 0.0000 0.0000 34.7688 0.0000 0.0000
# 5 0.0000 0.0000 0.0000 0.0000 20.3858 0.0000
# 6 0.0000 0.0000 0.0000 0.0000 0.0000 9.8284
#
#
#
# Elastic Compliance Matrix: (Units=1/GPa)
#
#
# Indices 1 2 3 4 5 6 
#
# 1 0.033367 -0.015388 -0.002619 0.000000 0.000000 0.000000
# 2 -0.015388 0.025757 -0.005077 0.000000 0.000000 0.000000
# 3 -0.002619 -0.005077 0.007756 0.000000 0.000000 0.000000
# 4 0.000000 0.000000 0.000000 0.028761 0.000000 0.000000
# 5 0.000000 0.000000 0.000000 0.000000 0.049054 0.000000
# 6 0.000000 0.000000 0.000000 0.000000 0.000000 0.101746
#
#
# Mechanical properties :
#
#
# Convention : Reuss Voigt Hill
#
# Bulk Modulus (GPa) = 48.27431 66.47214 57.37323
# Shear Modulus (GPa) = 16.69381 24.04366 20.36873
#
# Velocity S-wave (km/s) = 3.19755 3.83742 3.53201
# Velocity P-wave (km/s) = 6.57256 7.76827 7.19530
#
# Compressibility (1/GPa) = 0.02071495
#
# Stress axis : x y z
#
# Youngs Moduli (GPa) = 29.96980 38.82381 128.92941
#
# Poissons Ratio (x) = 0.59741 0.33761
# Poissons Ratio (y) = 0.46116 0.65452
# Poissons Ratio (z) = 0.07848 0.19709
#
# Static dielectric constant tensor:
#      x y z
#    x 2.793050 0.000000 0.000000 
#    y 0.000000 2.972560 0.000000 
#    z 0.000000 0.000000 3.488770 
# 
# 
# High freq. dielectric constant tensor:
#      x y z
#    x 1.580650 0.000000 0.000000 
#    y 0.000000 1.607120 0.000000 
#    z 0.000000 0.000000 1.662270 
# 
# From -- ./inp_files/5591.got.cif
#   From: 2010.03.12/outbox.cif.g09.slc.cpg/sg63_3_cif.got.tgz:5591.got - 2010.04.10 19:34:48.
