data_PCOD8256566
_publ_section_title
;
Structure prediction by ZEFSAII (Michael W. Deem and Ramdas Pophale) SiO2 
 PCOD8256566
Probable space group: C M C M
;
_chemical_formula_sum "Si O2"
_cell_formula_units_Z 88
_cell_length_a 27.359862
_cell_length_b 19.591723
_cell_length_c 8.832750
_cell_angle_alpha 90.000000
_cell_angle_beta 90.000000
_cell_angle_gamma 90.000000
_cell_volume 4734.591050
_symmetry_space_group_name_H-M "C M C M"
_symmetry_group_IT_number 63
_symmetry_cell_setting 'orthorhombic'
loop_
_space_group_symop_operation_xyz
x,y,z
-x,-y,1/2+z
x,-y,-z
-x,y,1/2-z
-x,-y,-z
x,y,1/2-z
-x,y,z
x,-y,1/2+z
1/2+x,1/2+y,z
1/2-x,1/2-y,1/2+z
1/2+x,1/2-y,-z
1/2-x,1/2+y,1/2-z
1/2-x,1/2-y,-z
1/2+x,1/2+y,1/2-z
1/2-x,1/2+y,z
1/2+x,1/2-y,1/2+z
loop_
_atom_site_type_symbol
_atom_site_label
_atom_site_fract_x
_atom_site_fract_y
_atom_site_fract_z
Si Si1 0.131893 0.071998 0.428950
Si Si2 0.185542 0.702964 0.924028
Si Si3 0.208972 0.158341 0.574638
Si Si4 0.579072 0.168381 0.573659
Si Si5 0.500000 0.074283 0.071076
Si Si6 0.554187 0.680692 0.429251
O O1 0.130175 0.065636 0.250000
O O2 0.185559 0.096387 0.480694
O O3 0.092578 0.126203 0.494453
O O4 0.118392 0.000000 0.500000
O O5 0.186391 0.728530 0.750000
O O6 0.233053 0.657470 0.960726
O O7 0.137172 0.657717 0.954044
O O8 0.184944 0.770013 0.027091
O O9 0.198248 0.146120 0.750000
O O10 0.565222 0.160555 0.750000
O O11 0.549056 0.112967 0.480158
O O12 0.565451 0.243392 0.511428
O O13 0.500000 0.067690 0.250000
O O14 0.500000 0.000000 0.000000
O O15 0.558878 0.681509 0.250000
O O16 0.500000 0.658917 0.482022
#
# Coordination Sequence:
#
# PCOD8256566 Si02
#       6
#    16  16  16  16   8  16
#     4  11  22  37  55  78 112 154 196 237 289 345
#     4   9  18  33  56  85 114 147 186 230 281 335
#     4  10  19  32  53  83 116 147 187 235 283 334
#     4  10  18  36  63  87 113 149 188 230 281 339
#     4  12  26  42  60  88 119 150 185 228 285 345
#     4   9  17  32  57  83 108 144 189 229 278 335
#
# _framework density 18.58661
#
# number of rings (size 3 to 8) (size 9 to 14) (size 15 to 20)
#    0.000    2.000    2.727    1.909    0.000    1.818 
#    0.000    0.909    0.000    0.000    0.000    0.000 
#    0.000    0.000    0.000    0.000    0.000    0.000 
#
# Total GULP energy -545628.047310 kJ/mol
# GULP energy per Si atom -12400.637439 kJ/mol
# Density = 1.854431 g / cm^3
# Si number density = 18.586610 Si / 1000 Ang^3
#
#
#
# Elastic Constant Matrix: (Units=GPa)
#
#
# Indices 1 2 3 4 5 6 
#
# 1 137.8643 69.0444 40.2190 0.0000 0.0000 0.0000
# 2 69.0444 133.4380 49.4874 0.0000 0.0000 0.0000
# 3 40.2190 49.4874 75.2383 0.0000 0.0000 0.0000
# 4 0.0000 0.0000 0.0000 31.2905 0.0000 0.0000
# 5 0.0000 0.0000 0.0000 0.0000 25.4793 0.0000
# 6 0.0000 0.0000 0.0000 0.0000 0.0000 27.1352
#
#
#
# Elastic Compliance Matrix: (Units=1/GPa)
#
#
# Indices 1 2 3 4 5 6 
#
# 1 0.010164 -0.004291 -0.002611 0.000000 0.000000 0.000000
# 2 -0.004291 0.011723 -0.005417 0.000000 0.000000 0.000000
# 3 -0.002611 -0.005417 0.018250 0.000000 0.000000 0.000000
# 4 0.000000 0.000000 0.000000 0.031959 0.000000 0.000000
# 5 0.000000 0.000000 0.000000 0.000000 0.039248 0.000000
# 6 0.000000 0.000000 0.000000 0.000000 0.000000 0.036853
#
#
# Mechanical properties :
#
#
# Convention : Reuss Voigt Hill
#
# Bulk Modulus (GPa) = 64.51928 73.78248 69.15088
# Shear Modulus (GPa) = 28.08973 29.30030 28.69502
#
# Velocity S-wave (km/s) = 3.89175 3.97472 3.93345
# Velocity P-wave (km/s) = 7.41501 7.80047 7.61018
#
# Compressibility (1/GPa) = 0.01549924
#
# Stress axis : x y z
#
# Youngs Moduli (GPa) = 98.38513 85.29949 54.79457
#
# Poissons Ratio (x) = 0.36601 0.14307
# Poissons Ratio (y) = 0.42216 0.29684
# Poissons Ratio (z) = 0.25688 0.46209
#
# Static dielectric constant tensor:
#      x y z
#    x 3.739770 0.000000 0.000000 
#    y 0.000000 3.255420 0.000000 
#    z 0.000000 0.000000 3.253480 
# 
# 
# High freq. dielectric constant tensor:
#      x y z
#    x 1.738170 0.000000 0.000000 
#    y 0.000000 1.698160 0.000000 
#    z 0.000000 0.000000 1.705410 
# 
# From -- ./inp_files/14212.got.cif
#   From: 2010.03.12/outbox.cif.g09.slc.cpg/sg63_8_cif.got.tgz:14212.got - 2010.04.10 19:34:48.
