data_PCOD8256024
_publ_section_title
;
Structure prediction by ZEFSAII (Michael W. Deem and Ramdas Pophale) SiO2 
 PCOD8256024
Probable space group: C M C M
;
_chemical_formula_sum "Si O2"
_cell_formula_units_Z 88
_cell_length_a 9.951383
_cell_length_b 20.151483
_cell_length_c 24.495811
_cell_angle_alpha 90.000000
_cell_angle_beta 90.000000
_cell_angle_gamma 90.000000
_cell_volume 4912.270529
_symmetry_space_group_name_H-M "C M C M"
_symmetry_group_IT_number 63
_symmetry_cell_setting 'orthorhombic'
loop_
_space_group_symop_operation_xyz
x,y,z
-x,-y,1/2+z
x,-y,-z
-x,y,1/2-z
-x,-y,-z
x,y,1/2-z
-x,y,z
x,-y,1/2+z
1/2+x,1/2+y,z
1/2-x,1/2-y,1/2+z
1/2+x,1/2-y,-z
1/2-x,1/2+y,1/2-z
1/2-x,1/2-y,-z
1/2+x,1/2+y,1/2-z
1/2-x,1/2+y,z
1/2+x,1/2-y,1/2+z
loop_
_atom_site_type_symbol
_atom_site_label
_atom_site_fract_x
_atom_site_fract_y
_atom_site_fract_z
Si Si1 0.659082 0.574615 0.189323
Si Si2 0.649110 0.140034 0.478700
Si Si3 0.848095 0.338313 0.397190
Si Si4 0.246834 0.000000 0.500000
Si Si5 0.343814 0.690395 0.387550
Si Si6 0.152871 0.955192 0.385984
O O1 0.722315 0.569689 0.250000
O O2 0.500000 0.571843 0.192930
O O3 0.704248 0.644177 0.162411
O O4 0.710287 0.514018 0.152032
O O5 0.500000 0.157594 0.456922
O O6 0.671741 0.170833 0.538276
O O7 0.760672 0.172349 0.440984
O O8 0.659646 0.060388 0.481077
O O9 0.819472 0.266652 0.370081
O O10 0.744797 0.391632 0.373100
O O11 0.000000 0.362318 0.384294
O O12 0.155286 0.022725 0.550793
O O13 0.500000 0.677712 0.401986
O O14 0.000000 0.936956 0.370851
#
# Coordination Sequence:
#
# PCOD8256024 Si02
#       6
#    16  16  16   8  16  16
#     4   9  18  34  55  77  99 130 175 220 259 297
#     4  10  19  30  47  74 108 142 167 201 256 312
#     4   9  20  34  49  74 110 141 165 202 259 315
#     4  10  18  30  48  78 106 136 168 208 256 310
#     4  10  19  34  53  74 101 136 176 215 250 298
#     4  10  19  32  53  78 102 132 172 215 253 301
#
# _framework density 17.914323
#
# number of rings (size 3 to 8) (size 9 to 14) (size 15 to 20)
#    0.000    2.364    1.818    1.091    0.000    4.364 
#    0.000    0.909    0.000    3.273    0.000    0.000 
#    0.000    0.000    0.000    0.000    0.000    0.000 
#
# Total GULP energy -545547.810787 kJ/mol
# GULP energy per Si atom -12398.813882 kJ/mol
# Density = 1.787355 g / cm^3
# Si number density = 17.914323 Si / 1000 Ang^3
#
#
#
# Elastic Constant Matrix: (Units=GPa)
#
#
# Indices 1 2 3 4 5 6 
#
# 1 73.9157 55.2487 34.8291 0.0000 0.0000 0.0000
# 2 55.2487 142.1636 56.6374 0.0000 0.0000 0.0000
# 3 34.8291 56.6374 71.1053 0.0000 0.0000 0.0000
# 4 0.0000 0.0000 0.0000 19.8344 0.0000 0.0000
# 5 0.0000 0.0000 0.0000 0.0000 9.0199 0.0000
# 6 0.0000 0.0000 0.0000 0.0000 0.0000 27.0720
#
#
#
# Elastic Compliance Matrix: (Units=1/GPa)
#
#
# Indices 1 2 3 4 5 6 
#
# 1 0.020383 -0.005777 -0.005383 0.000000 0.000000 0.000000
# 2 -0.005777 0.011941 -0.006682 0.000000 0.000000 0.000000
# 3 -0.005383 -0.006682 0.022022 0.000000 0.000000 0.000000
# 4 0.000000 0.000000 0.000000 0.050418 0.000000 0.000000
# 5 0.000000 0.000000 0.000000 0.000000 0.110866 0.000000
# 6 0.000000 0.000000 0.000000 0.000000 0.000000 0.036939
#
#
# Mechanical properties :
#
#
# Convention : Reuss Voigt Hill
#
# Bulk Modulus (GPa) = 53.57910 64.51277 59.04594
# Shear Modulus (GPa) = 16.97944 20.54988 18.76466
#
# Velocity S-wave (km/s) = 3.08200 3.39059 3.23997
# Velocity P-wave (km/s) = 6.52981 7.17065 6.85772
#
# Compressibility (1/GPa) = 0.01866399
#
# Stress axis : x y z
#
# Youngs Moduli (GPa) = 49.05961 83.74289 45.40828
#
# Poissons Ratio (x) = 0.48379 0.24441
# Poissons Ratio (y) = 0.28342 0.30341
# Poissons Ratio (z) = 0.26407 0.55955
#
# Static dielectric constant tensor:
#      x y z
#    x 3.130500 0.000000 0.000000 
#    y 0.000000 3.453360 0.000000 
#    z 0.000000 0.000000 3.268340 
# 
# 
# High freq. dielectric constant tensor:
#      x y z
#    x 1.675840 0.000000 0.000000 
#    y 0.000000 1.704410 0.000000 
#    z 0.000000 0.000000 1.663800 
# 
# From -- ./inp_files/59629.got.cif
#   From: 2010.03.12/outbox.cif.g09.slc.cpg/sg63_30_cif.got.tgz:59629.got - 2010.04.10 19:34:48.
