data_PCOD8256873
_publ_section_title
;
Structure prediction by ZEFSAII (Michael W. Deem and Ramdas Pophale) SiO2 
 PCOD8256873
Probable space group: C M C M
;
_chemical_formula_sum "Si O2"
_cell_formula_units_Z 96
_cell_length_a 20.073864
_cell_length_b 28.951489
_cell_length_c 8.881463
_cell_angle_alpha 90.000000
_cell_angle_beta 90.000000
_cell_angle_gamma 90.000000
_cell_volume 5161.624334
_symmetry_space_group_name_H-M "C M C M"
_symmetry_group_IT_number 63
_symmetry_cell_setting 'orthorhombic'
loop_
_space_group_symop_operation_xyz
x,y,z
-x,-y,1/2+z
x,-y,-z
-x,y,1/2-z
-x,-y,-z
x,y,1/2-z
-x,y,z
x,-y,1/2+z
1/2+x,1/2+y,z
1/2-x,1/2-y,1/2+z
1/2+x,1/2-y,-z
1/2-x,1/2+y,1/2-z
1/2-x,1/2-y,-z
1/2+x,1/2+y,1/2-z
1/2-x,1/2+y,z
1/2+x,1/2-y,1/2+z
loop_
_atom_site_type_symbol
_atom_site_label
_atom_site_fract_x
_atom_site_fract_y
_atom_site_fract_z
Si Si1 0.333125 0.288842 0.077475
Si Si2 0.925422 0.872243 0.072443
Si Si3 0.298396 0.190367 0.080909
Si Si4 0.322232 0.550400 0.928431
Si Si5 0.574423 0.953843 0.925881
Si Si6 0.815049 0.599149 0.576537
O O1 0.310537 0.301600 0.250000
O O2 0.394412 0.322088 0.030611
O O3 0.349938 0.233872 0.071182
O O4 0.276747 0.294114 0.951858
O O5 0.930029 0.877034 0.250000
O O6 0.879647 0.914572 0.011667
O O7 0.000000 0.875589 0.002213
O O8 0.301588 0.169310 0.250000
O O9 0.312180 0.153504 0.951150
O O10 0.325870 0.545060 0.750000
O O11 0.251627 0.572644 0.976942
O O12 0.331884 0.500000 0.000000
O O13 0.575297 0.960665 0.750000
O O14 0.500000 0.942956 0.984637
O O15 0.622632 0.913522 0.974270
O O16 0.602974 0.000000 0.000000
O O17 0.829482 0.588705 0.750000
#
# Coordination Sequence:
#
# PCOD8256873 Si02
#       6
#    16  16  16  16  16  16
#     4   9  17  33  53  77 105 136 178 219 265 327
#     4   9  17  33  56  77 103 142 184 224 269 324
#     4  10  19  30  52  81 108 136 172 222 274 322
#     4  10  21  35  52  77 106 138 180 228 272 318
#     4  10  21  37  56  79 108 142 182 223 266 325
#     4  11  21  35  55  79 110 145 181 226 271 323
#
# _framework density 18.598796
#
# number of rings (size 3 to 8) (size 9 to 14) (size 15 to 20)
#    0.000    2.167    1.667    2.000    0.000    4.667 
#    0.000    0.833    0.000    4.500    0.000    0.000 
#    0.000    0.000    0.000    0.000    0.000    0.000 
#
# Total GULP energy -594847.753512 kJ/mol
# GULP energy per Si atom -12392.661531 kJ/mol
# Density = 1.855646 g / cm^3
# Si number density = 18.598796 Si / 1000 Ang^3
#
#
#
# Elastic Constant Matrix: (Units=GPa)
#
#
# Indices 1 2 3 4 5 6 
#
# 1 103.7612 63.3899 25.1395 0.0000 0.0000 0.0000
# 2 63.3899 126.0388 22.6537 0.0000 0.0000 0.0000
# 3 25.1395 22.6537 37.5678 0.0000 0.0000 0.0000
# 4 0.0000 0.0000 0.0000 30.7402 0.0000 0.0000
# 5 0.0000 0.0000 0.0000 0.0000 18.9647 0.0000
# 6 0.0000 0.0000 0.0000 0.0000 0.0000 22.8608
#
#
#
# Elastic Compliance Matrix: (Units=1/GPa)
#
#
# Indices 1 2 3 4 5 6 
#
# 1 0.015097 -0.006479 -0.006195 0.000000 0.000000 0.000000
# 2 -0.006479 0.011679 -0.002707 0.000000 0.000000 0.000000
# 3 -0.006195 -0.002707 0.032397 0.000000 0.000000 0.000000
# 4 0.000000 0.000000 0.000000 0.032531 0.000000 0.000000
# 5 0.000000 0.000000 0.000000 0.000000 0.052730 0.000000
# 6 0.000000 0.000000 0.000000 0.000000 0.000000 0.043743
#
#
# Mechanical properties :
#
#
# Convention : Reuss Voigt Hill
#
# Bulk Modulus (GPa) = 35.19941 54.41489 44.80715
# Shear Modulus (GPa) = 21.89052 24.92543 23.40798
#
# Velocity S-wave (km/s) = 3.43444 3.66480 3.55149
# Velocity P-wave (km/s) = 5.89016 6.87229 6.40009
#
# Compressibility (1/GPa) = 0.02840957
#
# Stress axis : x y z
#
# Youngs Moduli (GPa) = 66.23882 85.62170 30.86741
#
# Poissons Ratio (x) = 0.55477 0.19124
# Poissons Ratio (y) = 0.42918 0.08355
# Poissons Ratio (z) = 0.41038 0.23177
#
# Static dielectric constant tensor:
#      x y z
#    x 3.507380 0.000000 0.000000 
#    y 0.000000 3.601050 0.000000 
#    z 0.000000 0.000000 3.180300 
# 
# 
# High freq. dielectric constant tensor:
#      x y z
#    x 1.702680 0.000000 0.000000 
#    y 0.000000 1.730960 0.000000 
#    z 0.000000 0.000000 1.707380 
# 
# From -- ./inp_files/8642.got.cif
#   From: 2010.03.12/outbox.cif.g09.slc.cpg/sg63_5_cif.got.tgz:8642.got - 2010.04.10 19:34:48.
