data_PCOD8256234
_publ_section_title
;
Structure prediction by ZEFSAII (Michael W. Deem and Ramdas Pophale) SiO2 
 PCOD8256234
Probable space group: C M C M
;
_chemical_formula_sum "Si O2"
_cell_formula_units_Z 112
_cell_length_a 13.190667
_cell_length_b 24.188572
_cell_length_c 19.141308
_cell_angle_alpha 90.000000
_cell_angle_beta 90.000000
_cell_angle_gamma 90.000000
_cell_volume 6107.290781
_symmetry_space_group_name_H-M "C M C M"
_symmetry_group_IT_number 63
_symmetry_cell_setting 'orthorhombic'
loop_
_space_group_symop_operation_xyz
x,y,z
-x,-y,1/2+z
x,-y,-z
-x,y,1/2-z
-x,-y,-z
x,y,1/2-z
-x,y,z
x,-y,1/2+z
1/2+x,1/2+y,z
1/2-x,1/2-y,1/2+z
1/2+x,1/2-y,-z
1/2-x,1/2+y,1/2-z
1/2-x,1/2-y,-z
1/2+x,1/2+y,1/2-z
1/2-x,1/2+y,z
1/2+x,1/2-y,1/2+z
loop_
_atom_site_type_symbol
_atom_site_label
_atom_site_fract_x
_atom_site_fract_y
_atom_site_fract_z
Si Si1 0.616305 0.390681 0.168240
Si Si2 0.112586 0.409137 0.493990
Si Si3 0.819281 0.008101 0.328055
Si Si4 0.118538 0.874958 0.828457
Si Si5 0.620778 0.279956 0.566959
Si Si6 0.260295 0.679584 0.561132
Si Si7 0.388557 0.992545 0.613922
O O1 0.646200 0.388746 0.250000
O O2 0.500000 0.373822 0.156354
O O3 0.633972 0.452768 0.137132
O O4 0.687916 0.348026 0.128171
O O5 0.197248 0.363083 0.485608
O O6 0.125325 0.454697 0.434701
O O7 0.126636 0.436964 0.569317
O O8 0.000000 0.382642 0.488978
O O9 0.861791 0.010190 0.250000
O O10 0.855792 0.065266 0.363786
O O11 0.697079 0.005171 0.327159
O O12 0.166839 0.869333 0.750000
O O13 0.158683 0.827268 0.879597
O O14 0.000000 0.868539 0.822145
O O15 0.500000 0.270019 0.570137
O O16 0.651741 0.295338 0.487770
O O17 0.681924 0.225313 0.589813
O O18 0.500000 0.992838 0.649139
#
# Coordination Sequence:
#
# PCOD8256234 Si02
#       7
#    16  16  16  16  16  16  16
#     4  10  21  36  54  78 106 135 169 210 262 321
#     4   9  17  30  49  71  99 137 173 209 253 304
#     4  10  18  31  52  76 104 137 169 207 257 311
#     4   9  18  34  54  75 103 137 172 210 254 307
#     4  10  22  36  53  79 105 135 177 220 260 302
#     4  11  20  35  56  75 105 137 173 220 264 309
#     4   9  17  29  46  71 103 136 170 205 249 306
#
# _framework density 18.338737999999999
#
# number of rings (size 3 to 8) (size 9 to 14) (size 15 to 20)
#    0.000    2.286    1.429    3.000    0.000    2.571 
#    0.000    0.000    0.000    5.571    0.000    0.000 
#    0.000    0.000    0.000    0.000    0.000    0.000 
#
# Total GULP energy -694134.089201 kJ/mol
# GULP energy per Si atom -12395.251593 kJ/mol
# Density = 1.829700 g / cm^3
# Si number density = 18.338738 Si / 1000 Ang^3
#
#
#
# Elastic Constant Matrix: (Units=GPa)
#
#
# Indices 1 2 3 4 5 6 
#
# 1 87.8218 49.4839 27.5981 0.0000 0.0000 0.0000
# 2 49.4839 125.5062 37.8981 0.0000 0.0000 0.0000
# 3 27.5981 37.8981 50.3743 0.0000 0.0000 0.0000
# 4 0.0000 0.0000 0.0000 20.2289 0.0000 0.0000
# 5 0.0000 0.0000 0.0000 0.0000 26.9401 0.0000
# 6 0.0000 0.0000 0.0000 0.0000 0.0000 31.2431
#
#
#
# Elastic Compliance Matrix: (Units=1/GPa)
#
#
# Indices 1 2 3 4 5 6 
#
# 1 0.015577 -0.004613 -0.005064 0.000000 0.000000 0.000000
# 2 -0.004613 0.011676 -0.006257 0.000000 0.000000 0.000000
# 3 -0.005064 -0.006257 0.027333 0.000000 0.000000 0.000000
# 4 0.000000 0.000000 0.000000 0.049434 0.000000 0.000000
# 5 0.000000 0.000000 0.000000 0.000000 0.037119 0.000000
# 6 0.000000 0.000000 0.000000 0.000000 0.000000 0.032007
#
#
# Mechanical properties :
#
#
# Convention : Reuss Voigt Hill
#
# Bulk Modulus (GPa) = 44.01609 54.85139 49.43374
# Shear Modulus (GPa) = 23.51989 25.59723 24.55856
#
# Velocity S-wave (km/s) = 3.58512 3.74010 3.66343
# Velocity P-wave (km/s) = 6.41804 6.97324 6.70140
#
# Compressibility (1/GPa) = 0.02271897
#
# Stress axis : x y z
#
# Youngs Moduli (GPa) = 64.19727 85.64792 36.58578
#
# Poissons Ratio (x) = 0.39505 0.18527
# Poissons Ratio (y) = 0.29611 0.22892
# Poissons Ratio (z) = 0.32509 0.53590
#
# Static dielectric constant tensor:
#      x y z
#    x 3.438750 0.000000 0.000000 
#    y 0.000000 3.496820 0.000000 
#    z 0.000000 0.000000 3.172880 
# 
# 
# High freq. dielectric constant tensor:
#      x y z
#    x 1.716780 0.000000 0.000000 
#    y 0.000000 1.713010 0.000000 
#    z 0.000000 0.000000 1.684300 
# 
# From -- ./inp_files/53171.got.cif
#   From: 2010.03.12/outbox.cif.g09.slc.cpg/sg63_27_cif.got.tgz:53171.got - 2010.04.10 19:34:48.
