data_PCOD8256899
_publ_section_title
;
Structure prediction by ZEFSAII (Michael W. Deem and Ramdas Pophale) SiO2 
 PCOD8256899
Probable space group: C M C M
;
_chemical_formula_sum "Si O2"
_cell_formula_units_Z 96
_cell_length_a 26.394476
_cell_length_b 28.494573
_cell_length_c 8.750552
_cell_angle_alpha 90.000000
_cell_angle_beta 90.000000
_cell_angle_gamma 90.000000
_cell_volume 6581.284237
_symmetry_space_group_name_H-M "C M C M"
_symmetry_group_IT_number 63
_symmetry_cell_setting 'orthorhombic'
loop_
_space_group_symop_operation_xyz
x,y,z
-x,-y,1/2+z
x,-y,-z
-x,y,1/2-z
-x,-y,-z
x,y,1/2-z
-x,y,z
x,-y,1/2+z
1/2+x,1/2+y,z
1/2-x,1/2-y,1/2+z
1/2+x,1/2-y,-z
1/2-x,1/2+y,1/2-z
1/2-x,1/2-y,-z
1/2+x,1/2+y,1/2-z
1/2-x,1/2+y,z
1/2+x,1/2-y,1/2+z
loop_
_atom_site_type_symbol
_atom_site_label
_atom_site_fract_x
_atom_site_fract_y
_atom_site_fract_z
Si Si1 0.710568 0.047704 0.070316
Si Si2 0.399356 0.048212 0.569034
Si Si3 0.201657 0.226250 0.572232
Si Si4 0.057772 0.638033 0.074897
Si Si5 0.759497 0.637919 0.574555
Si Si6 0.858218 0.698871 0.928851
O O1 0.704839 0.041712 0.250000
O O2 0.656277 0.058033 0.996022
O O3 0.746435 0.091780 0.030061
O O4 0.733983 0.000000 0.000000
O O5 0.396428 0.044053 0.750000
O O6 0.435417 0.090781 0.522631
O O7 0.421711 0.000000 0.500000
O O8 0.199130 0.238767 0.750000
O O9 0.250000 0.250000 0.500000
O O10 0.209406 0.170206 0.547977
O O11 0.152296 0.247913 0.488912
O O12 0.072207 0.627442 0.250000
O O13 0.000000 0.654741 0.058719
O O14 0.092162 0.679935 0.012204
O O15 0.763136 0.622036 0.750000
O O16 0.810445 0.666067 0.529549
O O17 0.868627 0.700379 0.750000
#
# Coordination Sequence:
#
# PCOD8256899 Si02
#       6
#    16  16  16  16  16  16
#     4  11  20  29  44  62  84 112 141 174 211 252
#     4  11  21  34  49  62  79 103 136 176 220 264
#     4   9  17  28  44  64  87 109 134 167 206 250
#     4  11  23  36  49  64  81 105 139 177 220 265
#     4   9  17  29  44  64  86 109 136 169 207 249
#     4  10  19  31  47  64  85 108 134 171 213 257
#
# _framework density 14.586817999999999
#
# number of rings (size 3 to 8) (size 9 to 14) (size 15 to 20)
#    0.000    1.833    1.667    6.500    0.000    5.000 
#    0.000    0.000    0.000    0.000    0.000    0.000 
#    0.000    0.000    0.000    0.000    0.000    0.833 
#
# Total GULP energy -595106.719857 kJ/mol
# GULP energy per Si atom -12398.056664 kJ/mol
# Density = 1.455362 g / cm^3
# Si number density = 14.586818 Si / 1000 Ang^3
#
#
#
# Elastic Constant Matrix: (Units=GPa)
#
#
# Indices 1 2 3 4 5 6 
#
# 1 47.7905 44.9324 30.7342 0.0000 0.0000 0.0000
# 2 44.9324 88.6955 49.6635 0.0000 0.0000 0.0000
# 3 30.7342 49.6635 111.7754 0.0000 0.0000 0.0000
# 4 0.0000 0.0000 0.0000 27.4270 0.0000 0.0000
# 5 0.0000 0.0000 0.0000 0.0000 16.7839 0.0000
# 6 0.0000 0.0000 0.0000 0.0000 0.0000 21.2810
#
#
#
# Elastic Compliance Matrix: (Units=1/GPa)
#
#
# Indices 1 2 3 4 5 6 
#
# 1 0.040555 -0.019037 -0.002693 0.000000 0.000000 0.000000
# 2 -0.019037 0.023945 -0.005404 0.000000 0.000000 0.000000
# 3 -0.002693 -0.005404 0.012088 0.000000 0.000000 0.000000
# 4 0.000000 0.000000 0.000000 0.036460 0.000000 0.000000
# 5 0.000000 0.000000 0.000000 0.000000 0.059581 0.000000
# 6 0.000000 0.000000 0.000000 0.000000 0.000000 0.046990
#
#
# Mechanical properties :
#
#
# Convention : Reuss Voigt Hill
#
# Bulk Modulus (GPa) = 44.80422 55.43575 50.11999
# Shear Modulus (GPa) = 17.77287 21.29380 19.53333
#
# Velocity S-wave (km/s) = 3.49437 3.82487 3.66335
# Velocity P-wave (km/s) = 6.86026 7.58899 7.23380
#
# Compressibility (1/GPa) = 0.02231933
#
# Stress axis : x y z
#
# Youngs Moduli (GPa) = 24.65793 41.76285 82.72531
#
# Poissons Ratio (x) = 0.79504 0.22275
# Poissons Ratio (y) = 0.46942 0.44709
# Poissons Ratio (z) = 0.06640 0.22571
#
# Static dielectric constant tensor:
#      x y z
#    x 2.576770 0.000000 0.000000 
#    y 0.000000 3.133640 0.000000 
#    z 0.000000 0.000000 3.013860 
# 
# 
# High freq. dielectric constant tensor:
#      x y z
#    x 1.500110 0.000000 0.000000 
#    y 0.000000 1.553400 0.000000 
#    z 0.000000 0.000000 1.579880 
# 
# From -- ./inp_files/12987.got.cif
#   From: 2010.03.12/outbox.cif.g09.slc.cpg/sg63_7_cif.got.tgz:12987.got - 2010.04.10 19:34:48.
