data_PCOD8256782
_publ_section_title
;
Structure prediction by ZEFSAII (Michael W. Deem and Ramdas Pophale) SiO2 
 PCOD8256782
Probable space group: C M C M
;
_chemical_formula_sum "Si O2"
_cell_formula_units_Z 96
_cell_length_a 25.330839
_cell_length_b 9.641087
_cell_length_c 22.843825
_cell_angle_alpha 90.000000
_cell_angle_beta 90.000000
_cell_angle_gamma 90.000000
_cell_volume 5578.846357
_symmetry_space_group_name_H-M "C M C M"
_symmetry_group_IT_number 63
_symmetry_cell_setting 'orthorhombic'
loop_
_space_group_symop_operation_xyz
x,y,z
-x,-y,1/2+z
x,-y,-z
-x,y,1/2-z
-x,-y,-z
x,y,1/2-z
-x,y,z
x,-y,1/2+z
1/2+x,1/2+y,z
1/2-x,1/2-y,1/2+z
1/2+x,1/2-y,-z
1/2-x,1/2+y,1/2-z
1/2-x,1/2-y,-z
1/2+x,1/2+y,1/2-z
1/2-x,1/2+y,z
1/2+x,1/2-y,1/2+z
loop_
_atom_site_type_symbol
_atom_site_label
_atom_site_fract_x
_atom_site_fract_y
_atom_site_fract_z
Si Si1 0.724268 0.341168 0.817413
Si Si2 0.939127 0.822391 0.681883
Si Si3 0.301209 0.157130 0.504466
Si Si4 0.354267 0.143088 0.627888
Si Si5 0.834507 0.332285 0.620199
Si Si6 0.861980 0.063462 0.682757
O O1 0.742653 0.344721 0.750000
O O2 0.687908 0.205578 0.826290
O O3 0.773796 0.331432 0.859813
O O4 0.690807 0.478133 0.834537
O O5 0.930902 0.783008 0.750000
O O6 0.911630 0.707279 0.641090
O O7 0.000000 0.829599 0.664297
O O8 0.913564 0.972305 0.669093
O O9 0.250000 0.250000 0.500000
O O10 0.335311 0.183392 0.562663
O O11 0.338674 0.189523 0.449365
O O12 0.280858 0.000000 0.500000
O O13 0.359893 0.978910 0.638149
O O14 0.866972 0.206318 0.647791
O O15 0.858846 0.104951 0.750000
#
# Coordination Sequence:
#
# PCOD8256782 Si02
#       6
#    16  16  16  16  16  16
#     4  10  19  30  46  71 105 142 171 201 249 314
#     4   9  19  38  60  77  97 131 175 220 266 314
#     4  10  21  33  49  73 105 143 181 211 248 300
#     4  10  20  34  51  75 104 137 177 215 254 306
#     4  11  20  30  48  74 108 137 170 211 255 308
#     4   9  19  32  49  75 102 132 169 211 262 310
#
# _framework density 17.207858999999999
#
# number of rings (size 3 to 8) (size 9 to 14) (size 15 to 20)
#    0.000    2.167    1.667    3.000    2.333    4.000 
#    0.000    0.833    0.000    8.500    0.000    0.000 
#    0.000    0.000    0.000    0.000    0.000    0.000 
#
# Total GULP energy -595227.195491 kJ/mol
# GULP energy per Si atom -12400.566573 kJ/mol
# Density = 1.716869 g / cm^3
# Si number density = 17.207859 Si / 1000 Ang^3
#
#
#
# Elastic Constant Matrix: (Units=GPa)
#
#
# Indices 1 2 3 4 5 6 
#
# 1 104.8110 50.7378 36.7722 0.0000 0.0000 0.0000
# 2 50.7378 131.4023 50.6112 0.0000 0.0000 0.0000
# 3 36.7722 50.6112 74.1096 0.0000 0.0000 0.0000
# 4 0.0000 0.0000 0.0000 29.3996 0.0000 0.0000
# 5 0.0000 0.0000 0.0000 0.0000 17.0799 0.0000
# 6 0.0000 0.0000 0.0000 0.0000 0.0000 11.4920
#
#
#
# Elastic Compliance Matrix: (Units=1/GPa)
#
#
# Indices 1 2 3 4 5 6 
#
# 1 0.012534 -0.003317 -0.003954 0.000000 0.000000 0.000000
# 2 -0.003317 0.011204 -0.006006 0.000000 0.000000 0.000000
# 3 -0.003954 -0.006006 0.019557 0.000000 0.000000 0.000000
# 4 0.000000 0.000000 0.000000 0.034014 0.000000 0.000000
# 5 0.000000 0.000000 0.000000 0.000000 0.058548 0.000000
# 6 0.000000 0.000000 0.000000 0.000000 0.000000 0.087017
#
#
# Mechanical properties :
#
#
# Convention : Reuss Voigt Hill
#
# Bulk Modulus (GPa) = 59.73095 65.17390 62.45243
# Shear Modulus (GPa) = 19.60723 23.07442 21.34083
#
# Velocity S-wave (km/s) = 3.37921 3.66583 3.52544
# Velocity P-wave (km/s) = 7.07193 7.47493 7.27622
#
# Compressibility (1/GPa) = 0.01674174
#
# Stress axis : x y z
#
# Youngs Moduli (GPa) = 79.78425 89.25304 51.13249
#
# Poissons Ratio (x) = 0.29602 0.20218
# Poissons Ratio (y) = 0.26462 0.30709
# Poissons Ratio (z) = 0.31547 0.53604
#
# Static dielectric constant tensor:
#      x y z
#    x 2.931400 0.000000 0.000000 
#    y 0.000000 3.326600 0.000000 
#    z 0.000000 0.000000 3.383070 
# 
# 
# High freq. dielectric constant tensor:
#      x y z
#    x 1.627060 0.000000 0.000000 
#    y 0.000000 1.673110 0.000000 
#    z 0.000000 0.000000 1.668190 
# 
# From -- ./inp_files/58062.got.cif
#   From: 2010.03.12/outbox.cif.g09.slc.cpg/sg63_30_cif.got.tgz:58062.got - 2010.04.10 19:34:48.
