data_PCOD8256766
_publ_section_title
;
Structure prediction by ZEFSAII (Michael W. Deem and Ramdas Pophale) SiO2 
 PCOD8256766
Probable space group: C M C M
;
_chemical_formula_sum "Si O2"
_cell_formula_units_Z 80
_cell_length_a 16.828926
_cell_length_b 24.264265
_cell_length_c 12.509072
_cell_angle_alpha 90.000000
_cell_angle_beta 90.000000
_cell_angle_gamma 90.000000
_cell_volume 5107.973476
_symmetry_space_group_name_H-M "C M C M"
_symmetry_group_IT_number 63
_symmetry_cell_setting 'orthorhombic'
loop_
_space_group_symop_operation_xyz
x,y,z
-x,-y,1/2+z
x,-y,-z
-x,y,1/2-z
-x,-y,-z
x,y,1/2-z
-x,y,z
x,-y,1/2+z
1/2+x,1/2+y,z
1/2-x,1/2-y,1/2+z
1/2+x,1/2-y,-z
1/2-x,1/2+y,1/2-z
1/2-x,1/2-y,-z
1/2+x,1/2+y,1/2-z
1/2-x,1/2+y,z
1/2+x,1/2-y,1/2+z
loop_
_atom_site_type_symbol
_atom_site_label
_atom_site_fract_x
_atom_site_fract_y
_atom_site_fract_z
Si Si1 0.404743 0.264134 0.250000
Si Si2 0.330574 0.350753 0.627461
Si Si3 0.906466 0.108348 0.750000
Si Si4 0.093301 0.937360 0.473504
Si Si5 0.812802 0.709854 0.054346
Si Si6 0.906778 0.734501 0.868375
O O1 0.500000 0.255143 0.250000
O O2 0.380688 0.328100 0.250000
O O3 0.366358 0.237771 0.145098
O O4 0.341103 0.367581 0.750000
O O5 0.360791 0.401096 0.558734
O O6 0.236731 0.340917 0.603202
O O7 0.382738 0.296789 0.600309
O O8 0.873790 0.077730 0.855614
O O9 0.000000 0.103180 0.750000
O O10 0.000000 0.925029 0.483434
O O11 0.113595 0.000000 0.500000
O O12 0.750000 0.750000 0.000000
O O13 0.870862 0.692284 0.956302
O O14 0.872941 0.720369 0.750000
O O15 0.000000 0.728730 0.869950
#
# Coordination Sequence:
#
# PCOD8256766 Si02
#       6
#     8  16   8  16  16  16
#     4  11  20  32  51  72 101 137 170 205 249 306
#     4  10  19  32  47  67  96 129 164 202 242 289
#     4   9  18  32  45  66  94 123 162 201 240 284
#     4  10  21  34  50  70  93 128 170 209 244 283
#     4  10  19  30  46  68  99 130 165 201 245 294
#     4   9  17  29  46  69  96 129 166 197 234 291
#
# _framework density 15.661788
#
# number of rings (size 3 to 8) (size 9 to 14) (size 15 to 20)
#    0.000    2.200    1.000    3.600    2.800    2.800 
#    1.800    0.000    0.000    0.000    0.000    0.000 
#    0.000    3.200    1.200    0.000    0.000    0.000 
#
# Total GULP energy -495783.943785 kJ/mol
# GULP energy per Si atom -12394.598595 kJ/mol
# Density = 1.562614 g / cm^3
# Si number density = 15.661788 Si / 1000 Ang^3
#
#
#
# Elastic Constant Matrix: (Units=GPa)
#
#
# Indices 1 2 3 4 5 6 
#
# 1 61.8896 27.5697 41.1940 0.0000 0.0000 0.0000
# 2 27.5697 56.7698 42.0668 0.0000 0.0000 0.0000
# 3 41.1940 42.0668 129.3043 0.0000 0.0000 0.0000
# 4 0.0000 0.0000 0.0000 15.9787 0.0000 0.0000
# 5 0.0000 0.0000 0.0000 0.0000 34.0476 0.0000
# 6 0.0000 0.0000 0.0000 0.0000 0.0000 21.3502
#
#
#
# Elastic Compliance Matrix: (Units=1/GPa)
#
#
# Indices 1 2 3 4 5 6 
#
# 1 0.022672 -0.007456 -0.004797 0.000000 0.000000 0.000000
# 2 -0.007456 0.025662 -0.005973 0.000000 0.000000 0.000000
# 3 -0.004797 -0.005973 0.011205 0.000000 0.000000 0.000000
# 4 0.000000 0.000000 0.000000 0.062583 0.000000 0.000000
# 5 0.000000 0.000000 0.000000 0.000000 0.029371 0.000000
# 6 0.000000 0.000000 0.000000 0.000000 0.000000 0.046838
#
#
# Mechanical properties :
#
#
# Convention : Reuss Voigt Hill
#
# Bulk Modulus (GPa) = 43.31489 52.18054 47.74771
# Shear Modulus (GPa) = 20.62026 23.41753 22.01889
#
# Velocity S-wave (km/s) = 3.63243 3.87098 3.75360
# Velocity P-wave (km/s) = 6.73121 7.30539 7.02417
#
# Compressibility (1/GPa) = 0.02308675
#
# Stress axis : x y z
#
# Youngs Moduli (GPa) = 44.10693 38.96796 89.24244
#
# Poissons Ratio (x) = 0.29053 0.42813
# Poissons Ratio (y) = 0.32884 0.53309
# Poissons Ratio (z) = 0.21160 0.23277
#
# Static dielectric constant tensor:
#      x y z
#    x 3.175790 0.000000 0.000000 
#    y 0.000000 2.675420 0.000000 
#    z 0.000000 0.000000 3.394450 
# 
# 
# High freq. dielectric constant tensor:
#      x y z
#    x 1.591690 0.000000 0.000000 
#    y 0.000000 1.549050 0.000000 
#    z 0.000000 0.000000 1.633390 
# 
# From -- ./inp_files/21060.got.cif
#   From: 2010.03.12/outbox.cif.g09.slc.cpg/sg63_11_cif.got.tgz:21060.got - 2010.04.10 19:34:48.
