data_PCOD8256591
_publ_section_title
;
Structure prediction by ZEFSAII (Michael W. Deem and Ramdas Pophale) SiO2 
 PCOD8256591
Probable space group: C M C M
;
_chemical_formula_sum "Si O2"
_cell_formula_units_Z 80
_cell_length_a 28.617321
_cell_length_b 22.478131
_cell_length_c 8.975313
_cell_angle_alpha 90.000000
_cell_angle_beta 90.000000
_cell_angle_gamma 90.000000
_cell_volume 5773.494757
_symmetry_space_group_name_H-M "C M C M"
_symmetry_group_IT_number 63
_symmetry_cell_setting 'orthorhombic'
loop_
_space_group_symop_operation_xyz
x,y,z
-x,-y,1/2+z
x,-y,-z
-x,y,1/2-z
-x,-y,-z
x,y,1/2-z
-x,y,z
x,-y,1/2+z
1/2+x,1/2+y,z
1/2-x,1/2-y,1/2+z
1/2+x,1/2-y,-z
1/2-x,1/2+y,1/2-z
1/2-x,1/2-y,-z
1/2+x,1/2+y,1/2-z
1/2-x,1/2+y,z
1/2+x,1/2-y,1/2+z
loop_
_atom_site_type_symbol
_atom_site_label
_atom_site_fract_x
_atom_site_fract_y
_atom_site_fract_z
Si Si1 0.321694 0.759547 0.581866
Si Si2 0.281463 0.936717 0.076505
Si Si3 0.872770 0.640356 0.576557
Si Si4 0.554574 0.061071 0.422376
Si Si5 0.271042 0.662231 0.418117
O O1 0.338782 0.747603 0.750000
O O2 0.361441 0.795459 0.493433
O O3 0.313155 0.696597 0.500480
O O4 0.274336 0.796760 0.582032
O O5 0.271039 0.944123 0.250000
O O6 0.330691 0.905084 0.046889
O O7 0.239504 0.898648 0.005211
O O8 0.283480 0.000000 0.000000
O O9 0.882726 0.649041 0.750000
O O10 0.918907 0.615812 0.497445
O O11 0.568486 0.056336 0.250000
O O12 0.500000 0.073032 0.445065
O O13 0.570185 0.000000 0.500000
O O14 0.286563 0.647203 0.250000
#
# Coordination Sequence:
#
# PCOD8256591 Si02
#       5
#    16  16  16  16  16
#     4   9  16  26  40  56  74  95 120 152 188 224
#     4  10  19  28  38  54  75  99 127 158 192 227
#     4  10  19  29  42  58  75  96 125 160 195 231
#     4  10  20  32  44  57  74  97 125 158 197 238
#     4   9  16  26  39  54  73  96 122 152 186 223
#
# _framework density 13.856425
#
# number of rings (size 3 to 8) (size 9 to 14) (size 15 to 20)
#    0.000    2.400    0.000    3.600    0.000   10.000 
#    0.000    0.000    0.000    0.000    0.000    0.000 
#    0.000    0.000    0.000    0.000    0.000    1.000 
#
# Total GULP energy -496069.472036 kJ/mol
# GULP energy per Si atom -12401.736801 kJ/mol
# Density = 1.382489 g / cm^3
# Si number density = 13.856425 Si / 1000 Ang^3
#
#
#
# Elastic Constant Matrix: (Units=GPa)
#
#
# Indices 1 2 3 4 5 6 
#
# 1 38.4865 22.2007 36.4576 0.0000 0.0000 0.0000
# 2 22.2007 42.4919 47.1885 0.0000 0.0000 0.0000
# 3 36.4576 47.1885 127.9621 0.0000 0.0000 0.0000
# 4 0.0000 0.0000 0.0000 28.5566 0.0000 0.0000
# 5 0.0000 0.0000 0.0000 0.0000 20.1259 0.0000
# 6 0.0000 0.0000 0.0000 0.0000 0.0000 23.1894
#
#
#
# Elastic Compliance Matrix: (Units=1/GPa)
#
#
# Indices 1 2 3 4 5 6 
#
# 1 0.039930 -0.013935 -0.006238 0.000000 0.000000 0.000000
# 2 -0.013935 0.044719 -0.012521 0.000000 0.000000 0.000000
# 3 -0.006238 -0.012521 0.014209 0.000000 0.000000 0.000000
# 4 0.000000 0.000000 0.000000 0.035018 0.000000 0.000000
# 5 0.000000 0.000000 0.000000 0.000000 0.049687 0.000000
# 6 0.000000 0.000000 0.000000 0.000000 0.000000 0.043123
#
#
# Mechanical properties :
#
#
# Convention : Reuss Voigt Hill
#
# Bulk Modulus (GPa) = 29.87613 46.73712 38.30662
# Shear Modulus (GPa) = 16.48899 21.24729 18.86814
#
# Velocity S-wave (km/s) = 3.45336 3.92010 3.69411
# Velocity P-wave (km/s) = 6.12446 7.36833 6.77500
#
# Compressibility (1/GPa) = 0.03347154
#
# Stress axis : x y z
#
# Youngs Moduli (GPa) = 25.04355 22.36164 70.37655
#
# Poissons Ratio (x) = 0.31162 0.43898
# Poissons Ratio (y) = 0.34899 0.88118
# Poissons Ratio (z) = 0.15621 0.27999
#
# Static dielectric constant tensor:
#      x y z
#    x 2.441160 0.000000 0.000000 
#    y 0.000000 2.674930 0.000000 
#    z 0.000000 0.000000 2.996920 
# 
# 
# High freq. dielectric constant tensor:
#      x y z
#    x 1.479330 0.000000 0.000000 
#    y 0.000000 1.512070 0.000000 
#    z 0.000000 0.000000 1.554410 
# 
# From -- ./inp_files/14035.got.cif
#   From: 2010.03.12/outbox.cif.g09.slc.cpg/sg63_8_cif.got.tgz:14035.got - 2010.04.10 19:34:48.
