data_PCOD8256898
_publ_section_title
;
Structure prediction by ZEFSAII (Michael W. Deem and Ramdas Pophale) SiO2 
 PCOD8256898
Probable space group: C M C M
;
_chemical_formula_sum "Si O2"
_cell_formula_units_Z 96
_cell_length_a 22.195278
_cell_length_b 16.750735
_cell_length_c 15.695274
_cell_angle_alpha 90.000000
_cell_angle_beta 90.000000
_cell_angle_gamma 90.000000
_cell_volume 5835.302288
_symmetry_space_group_name_H-M "C M C M"
_symmetry_group_IT_number 63
_symmetry_cell_setting 'orthorhombic'
loop_
_space_group_symop_operation_xyz
x,y,z
-x,-y,1/2+z
x,-y,-z
-x,y,1/2-z
-x,-y,-z
x,y,1/2-z
-x,y,z
x,-y,1/2+z
1/2+x,1/2+y,z
1/2-x,1/2-y,1/2+z
1/2+x,1/2-y,-z
1/2-x,1/2+y,1/2-z
1/2-x,1/2-y,-z
1/2+x,1/2+y,1/2-z
1/2-x,1/2+y,z
1/2+x,1/2-y,1/2+z
loop_
_atom_site_type_symbol
_atom_site_label
_atom_site_fract_x
_atom_site_fract_y
_atom_site_fract_z
Si Si1 0.928251 0.750409 0.250000
Si Si2 0.156642 0.829605 0.559288
Si Si3 0.777461 0.406993 0.997788
Si Si4 0.725243 0.200090 0.845152
Si Si5 0.653635 0.777161 0.900677
Si Si6 0.571256 0.433150 0.250000
Si Si7 0.570590 0.464275 0.908588
O O1 0.901536 0.709532 0.335225
O O2 0.906256 0.842441 0.250000
O O3 0.000000 0.740293 0.250000
O O4 0.212134 0.889248 0.541674
O O5 0.174791 0.763702 0.628117
O O6 0.134584 0.785967 0.473282
O O7 0.102053 0.878789 0.600114
O O8 0.828690 0.361887 0.942775
O O9 0.792020 0.500000 0.000000
O O10 0.778445 0.376609 0.094654
O O11 0.712588 0.170283 0.750000
O O12 0.789743 0.242379 0.849953
O O13 0.500000 0.434267 0.250000
O O14 0.595500 0.477025 0.165081
O O15 0.500000 0.450064 0.898469
O O16 0.587673 0.500000 0.000000
#
# Coordination Sequence:
#
# PCOD8256898 Si02
#       7
#     8  16  16  16  16   8  16
#     4  11  20  32  51  70  95 129 169 202 236 294
#     4   9  18  30  50  70  97 136 166 191 236 296
#     4   9  18  33  50  72 101 127 160 204 250 294
#     4   9  17  32  50  70  99 131 158 199 247 285
#     4   9  18  33  49  69 100 128 156 205 245 283
#     4   9  20  32  43  68  99 129 164 200 234 270
#     4  10  19  31  46  68 103 136 163 201 236 271
#
# _framework density 16.451589999999999
#
# number of rings (size 3 to 8) (size 9 to 14) (size 15 to 20)
#    0.000    2.667    0.833    3.500    1.167    3.333 
#    1.500    0.000    0.000    0.500    0.000    0.000 
#    0.000    0.000    0.000    0.000    0.000    0.000 
#
# Total GULP energy -595173.890933 kJ/mol
# GULP energy per Si atom -12399.456061 kJ/mol
# Density = 1.641415 g / cm^3
# Si number density = 16.451590 Si / 1000 Ang^3
#
#
#
# Elastic Constant Matrix: (Units=GPa)
#
#
# Indices 1 2 3 4 5 6 
#
# 1 55.1446 28.7566 31.9486 0.0000 0.0000 0.0000
# 2 28.7566 105.2668 40.2121 0.0000 0.0000 0.0000
# 3 31.9486 40.2121 123.4662 0.0000 0.0000 0.0000
# 4 0.0000 0.0000 0.0000 16.8161 0.0000 0.0000
# 5 0.0000 0.0000 0.0000 0.0000 19.0372 0.0000
# 6 0.0000 0.0000 0.0000 0.0000 0.0000 24.8794
#
#
#
# Elastic Compliance Matrix: (Units=1/GPa)
#
#
# Indices 1 2 3 4 5 6 
#
# 1 0.023135 -0.004606 -0.004486 0.000000 0.000000 0.000000
# 2 -0.004606 0.011767 -0.002640 0.000000 0.000000 0.000000
# 3 -0.004486 -0.002640 0.010120 0.000000 0.000000 0.000000
# 4 0.000000 0.000000 0.000000 0.059467 0.000000 0.000000
# 5 0.000000 0.000000 0.000000 0.000000 0.052529 0.000000
# 6 0.000000 0.000000 0.000000 0.000000 0.000000 0.040194
#
#
# Mechanical properties :
#
#
# Convention : Reuss Voigt Hill
#
# Bulk Modulus (GPa) = 46.39027 53.96801 50.17914
# Shear Modulus (GPa) = 21.94298 24.34389 23.14344
#
# Velocity S-wave (km/s) = 3.65607 3.85090 3.75475
# Velocity P-wave (km/s) = 6.78835 7.25589 7.02601
#
# Compressibility (1/GPa) = 0.02155624
#
# Stress axis : x y z
#
# Youngs Moduli (GPa) = 43.22371 84.98603 98.81186
#
# Poissons Ratio (x) = 0.39147 0.44331
# Poissons Ratio (y) = 0.19910 0.26090
# Poissons Ratio (z) = 0.19392 0.22439
#
# Static dielectric constant tensor:
#      x y z
#    x 2.859780 0.000000 0.000000 
#    y 0.000000 2.929560 0.000000 
#    z 0.000000 0.000000 3.218600 
# 
# 
# High freq. dielectric constant tensor:
#      x y z
#    x 1.608540 0.000000 0.000000 
#    y 0.000000 1.616690 0.000000 
#    z 0.000000 0.000000 1.643510 
# 
# From -- ./inp_files/36828.got.cif
#   From: 2010.03.12/outbox.cif.g09.slc.cpg/sg63_19_cif.got.tgz:36828.got - 2010.04.10 19:34:48.
