data_PCOD8256099
_publ_section_title
;
Structure prediction by ZEFSAII (Michael W. Deem and Ramdas Pophale) SiO2 
 PCOD8256099
Probable space group: C M C M
;
_chemical_formula_sum "Si O2"
_cell_formula_units_Z 88
_cell_length_a 8.965085
_cell_length_b 20.161250
_cell_length_c 25.240607
_cell_angle_alpha 90.000000
_cell_angle_beta 90.000000
_cell_angle_gamma 90.000000
_cell_volume 4562.172069
_symmetry_space_group_name_H-M "C M C M"
_symmetry_group_IT_number 63
_symmetry_cell_setting 'orthorhombic'
loop_
_space_group_symop_operation_xyz
x,y,z
-x,-y,1/2+z
x,-y,-z
-x,y,1/2-z
-x,-y,-z
x,y,1/2-z
-x,y,z
x,-y,1/2+z
1/2+x,1/2+y,z
1/2-x,1/2-y,1/2+z
1/2+x,1/2-y,-z
1/2-x,1/2+y,1/2-z
1/2-x,1/2-y,-z
1/2+x,1/2+y,1/2-z
1/2-x,1/2+y,z
1/2+x,1/2-y,1/2+z
loop_
_atom_site_type_symbol
_atom_site_label
_atom_site_fract_x
_atom_site_fract_y
_atom_site_fract_z
Si Si1 0.257024 0.000000 0.500000
Si Si2 0.676216 0.695424 0.882750
Si Si3 0.666644 0.468932 0.613662
Si Si4 0.321556 0.325693 0.591838
Si Si5 0.666424 0.145480 0.986114
Si Si6 0.323033 0.421793 0.309103
O O1 0.158971 0.995479 0.553307
O O2 0.354212 0.933236 0.496265
O O3 0.500000 0.705754 0.889310
O O4 0.757399 0.765763 0.873059
O O5 0.739601 0.657899 0.933672
O O6 0.717098 0.650360 0.832180
O O7 0.500000 0.462282 0.634636
O O8 0.738291 0.395250 0.616505
O O9 0.749016 0.520581 0.653302
O O10 0.500000 0.323894 0.588691
O O11 0.254513 0.317677 0.533064
O O12 0.500000 0.176011 0.981138
O O13 0.255978 0.428093 0.250000
O O14 0.500000 0.429493 0.308386
#
# Coordination Sequence:
#
# PCOD8256099 Si02
#       6
#     8  16  16  16  16  16
#     4  10  18  30  50  80 111 144 175 220 275 330
#     4  11  21  35  55  79 108 145 184 226 271 321
#     4   9  17  31  53  80 109 140 179 224 270 322
#     4  10  21  35  53  79 113 147 179 220 271 330
#     4  11  21  33  51  79 114 148 180 219 270 330
#     4   9  18  34  57  82 105 137 186 234 272 318
#
# _framework density 19.289057
#
# number of rings (size 3 to 8) (size 9 to 14) (size 15 to 20)
#    0.000    2.000    1.818    2.727    0.000    1.455 
#    0.000    0.909    0.000    3.273    0.000    0.000 
#    0.000    0.000    0.000    0.000    0.000    0.000 
#
# Total GULP energy -545314.505150 kJ/mol
# GULP energy per Si atom -12393.511481 kJ/mol
# Density = 1.924515 g / cm^3
# Si number density = 19.289057 Si / 1000 Ang^3
#
#
#
# Elastic Constant Matrix: (Units=GPa)
#
#
# Indices 1 2 3 4 5 6 
#
# 1 67.2972 27.8778 16.9161 0.0000 0.0000 0.0000
# 2 27.8778 142.7572 74.2253 0.0000 0.0000 0.0000
# 3 16.9161 74.2253 128.8670 0.0000 0.0000 0.0000
# 4 0.0000 0.0000 0.0000 26.7374 0.0000 0.0000
# 5 0.0000 0.0000 0.0000 0.0000 12.3480 0.0000
# 6 0.0000 0.0000 0.0000 0.0000 0.0000 22.7996
#
#
#
# Elastic Compliance Matrix: (Units=1/GPa)
#
#
# Indices 1 2 3 4 5 6 
#
# 1 0.016184 -0.002935 -0.000434 0.000000 0.000000 0.000000
# 2 -0.002935 0.010532 -0.005681 0.000000 0.000000 0.000000
# 3 -0.000434 -0.005681 0.011089 0.000000 0.000000 0.000000
# 4 0.000000 0.000000 0.000000 0.037401 0.000000 0.000000
# 5 0.000000 0.000000 0.000000 0.000000 0.080985 0.000000
# 6 0.000000 0.000000 0.000000 0.000000 0.000000 0.043860
#
#
# Mechanical properties :
#
#
# Convention : Reuss Voigt Hill
#
# Bulk Modulus (GPa) = 50.74708 64.10664 57.42686
# Shear Modulus (GPa) = 22.25003 27.03717 24.64360
#
# Velocity S-wave (km/s) = 3.40001 3.74797 3.57822
# Velocity P-wave (km/s) = 6.46369 7.21364 6.84894
#
# Compressibility (1/GPa) = 0.01970557
#
# Stress axis : x y z
#
# Youngs Moduli (GPa) = 61.78821 94.95132 90.17954
#
# Poissons Ratio (x) = 0.27866 0.03915
# Poissons Ratio (y) = 0.18134 0.51230
# Poissons Ratio (z) = 0.02682 0.53940
#
# Static dielectric constant tensor:
#      x y z
#    x 3.155410 0.000000 0.000000 
#    y 0.000000 3.910690 0.000000 
#    z 0.000000 0.000000 3.532730 
# 
# 
# High freq. dielectric constant tensor:
#      x y z
#    x 1.720140 0.000000 0.000000 
#    y 0.000000 1.772960 0.000000 
#    z 0.000000 0.000000 1.720700 
# 
# From -- ./inp_files/59654.got.cif
#   From: 2010.03.12/outbox.cif.g09.slc.cpg/sg63_30_cif.got.tgz:59654.got - 2010.04.10 19:34:48.
