data_PCOD8256773
_publ_section_title
;
Structure prediction by ZEFSAII (Michael W. Deem and Ramdas Pophale) SiO2 
 PCOD8256773
Probable space group: C M C M
;
_chemical_formula_sum "Si O2"
_cell_formula_units_Z 80
_cell_length_a 9.404962
_cell_length_b 31.437434
_cell_length_c 14.413711
_cell_angle_alpha 90.000000
_cell_angle_beta 90.000000
_cell_angle_gamma 90.000000
_cell_volume 4261.671261
_symmetry_space_group_name_H-M "C M C M"
_symmetry_group_IT_number 63
_symmetry_cell_setting 'orthorhombic'
loop_
_space_group_symop_operation_xyz
x,y,z
-x,-y,1/2+z
x,-y,-z
-x,y,1/2-z
-x,-y,-z
x,y,1/2-z
-x,y,z
x,-y,1/2+z
1/2+x,1/2+y,z
1/2-x,1/2-y,1/2+z
1/2+x,1/2-y,-z
1/2-x,1/2+y,1/2-z
1/2-x,1/2-y,-z
1/2+x,1/2+y,1/2-z
1/2-x,1/2+y,z
1/2+x,1/2-y,1/2+z
loop_
_atom_site_type_symbol
_atom_site_label
_atom_site_fract_x
_atom_site_fract_y
_atom_site_fract_z
Si Si1 0.656308 0.523242 0.098189
Si Si2 0.336768 0.565363 0.649565
Si Si3 0.336811 0.809940 0.511285
Si Si4 0.667105 0.733600 0.857161
Si Si5 0.164364 0.593940 0.477908
O O1 0.500000 0.541108 0.123745
O O2 0.701994 0.484778 0.165670
O O3 0.655732 0.500000 0.000000
O O4 0.763763 0.563172 0.098754
O O5 0.319541 0.587652 0.750000
O O6 0.500000 0.569226 0.613461
O O7 0.232592 0.588302 0.578951
O O8 0.500000 0.802924 0.482227
O O9 0.293808 0.778815 0.595696
O O10 0.244624 0.802566 0.418114
O O11 0.312013 0.857235 0.550984
O O12 0.720065 0.733366 0.750000
O O13 0.500000 0.724437 0.861051
O O14 0.000000 0.581611 0.483862
#
# Coordination Sequence:
#
# PCOD8256773 Si02
#       5
#    16  16  16  16  16
#     4   8  15  29  47  64  85 118 155 188 224 265
#     4   9  18  32  48  66  91 124 160 197 236 276
#     4   9  19  34  50  72 102 130 156 194 246 295
#     4   9  18  34  55  74  93 124 165 202 237 286
#     4  10  19  30  46  69  96 124 153 188 234 285
#
# _framework density 18.771978000000001
#
# number of rings (size 3 to 8) (size 9 to 14) (size 15 to 20)
#    0.000    3.000    0.000    1.800    0.000    6.800 
#    0.000    5.000    0.000    1.200    0.000    0.000 
#    0.000    0.000    0.000    0.000    0.000    0.000 
#
# Total GULP energy -495665.139317 kJ/mol
# GULP energy per Si atom -12391.628483 kJ/mol
# Density = 1.872925 g / cm^3
# Si number density = 18.771978 Si / 1000 Ang^3
#
#
#
# Elastic Constant Matrix: (Units=GPa)
#
#
# Indices 1 2 3 4 5 6 
#
# 1 69.8495 30.6524 10.2527 0.0000 0.0000 0.0000
# 2 30.6524 68.9908 -3.5902 0.0000 0.0000 0.0000
# 3 10.2527 -3.5902 56.9282 0.0000 0.0000 0.0000
# 4 0.0000 0.0000 0.0000 13.3408 0.0000 0.0000
# 5 0.0000 0.0000 0.0000 0.0000 15.9376 0.0000
# 6 0.0000 0.0000 0.0000 0.0000 0.0000 30.6586
#
#
#
# Elastic Compliance Matrix: (Units=1/GPa)
#
#
# Indices 1 2 3 4 5 6 
#
# 1 0.018602 -0.008467 -0.003884 0.000000 0.000000 0.000000
# 2 -0.008467 0.018396 0.002685 0.000000 0.000000 0.000000
# 3 -0.003884 0.002685 0.018435 0.000000 0.000000 0.000000
# 4 0.000000 0.000000 0.000000 0.074958 0.000000 0.000000
# 5 0.000000 0.000000 0.000000 0.000000 0.062745 0.000000
# 6 0.000000 0.000000 0.000000 0.000000 0.000000 0.032617
#
#
# Mechanical properties :
#
#
# Convention : Reuss Voigt Hill
#
# Bulk Modulus (GPa) = 27.70004 30.04424 28.87214
# Shear Modulus (GPa) = 19.44619 22.55097 20.99858
#
# Velocity S-wave (km/s) = 3.22206 3.46975 3.34820
# Velocity P-wave (km/s) = 5.35073 5.66496 5.51009
#
# Compressibility (1/GPa) = 0.03610103
#
# Stress axis : x y z
#
# Youngs Moduli (GPa) = 53.75689 54.35878 54.24507
#
# Poissons Ratio (x) = 0.46026 0.21070
# Poissons Ratio (y) = 0.45516 -0.14565
# Poissons Ratio (z) = 0.20880 -0.14596
#
# Static dielectric constant tensor:
#      x y z
#    x 3.397690 0.000000 0.000000 
#    y 0.000000 3.541760 0.000000 
#    z 0.000000 0.000000 4.524770 
# 
# 
# High freq. dielectric constant tensor:
#      x y z
#    x 1.721230 0.000000 0.000000 
#    y 0.000000 1.723190 0.000000 
#    z 0.000000 0.000000 1.712700 
# 
# From -- ./inp_files/40691.got.cif
#   From: 2010.03.12/outbox.cif.g09.slc.cpg/sg63_21_cif.got.tgz:40691.got - 2010.04.10 19:34:48.
