data_PCOD8256565
_publ_section_title
;
Structure prediction by ZEFSAII (Michael W. Deem and Ramdas Pophale) SiO2 
 PCOD8256565
Probable space group: C M C M
;
_chemical_formula_sum "Si O2"
_cell_formula_units_Z 88
_cell_length_a 15.454420
_cell_length_b 16.553412
_cell_length_c 17.324858
_cell_angle_alpha 90.000000
_cell_angle_beta 90.000000
_cell_angle_gamma 90.000000
_cell_volume 4432.103757
_symmetry_space_group_name_H-M "C M C M"
_symmetry_group_IT_number 63
_symmetry_cell_setting 'orthorhombic'
loop_
_space_group_symop_operation_xyz
x,y,z
-x,-y,1/2+z
x,-y,-z
-x,y,1/2-z
-x,-y,-z
x,y,1/2-z
-x,y,z
x,-y,1/2+z
1/2+x,1/2+y,z
1/2-x,1/2-y,1/2+z
1/2+x,1/2-y,-z
1/2-x,1/2+y,1/2-z
1/2-x,1/2-y,-z
1/2+x,1/2+y,1/2-z
1/2-x,1/2+y,z
1/2+x,1/2-y,1/2+z
loop_
_atom_site_type_symbol
_atom_site_label
_atom_site_fract_x
_atom_site_fract_y
_atom_site_fract_z
Si Si1 0.097556 0.656644 0.663523
Si Si2 0.000000 0.373518 0.658310
Si Si3 0.837097 0.773821 0.541934
Si Si4 0.328157 0.458577 0.582332
Si Si5 0.361515 0.989635 0.907903
Si Si6 0.000000 0.781252 0.065966
Si Si7 0.500000 0.469466 0.411835
O O1 0.134533 0.656845 0.750000
O O2 0.158349 0.713757 0.613799
O O3 0.096392 0.566456 0.631572
O O4 0.000000 0.690206 0.661380
O O5 0.914928 0.411778 0.619207
O O6 0.000000 0.387034 0.750000
O O7 0.000000 0.277957 0.639719
O O8 0.750000 0.750000 0.500000
O O9 0.836729 0.863297 0.574866
O O10 0.916332 0.761601 0.484510
O O11 0.326603 0.500000 0.500000
O O12 0.237194 0.479706 0.622938
O O13 0.412343 0.494487 0.627972
O O14 0.365998 0.000000 0.000000
O O15 0.000000 0.873073 0.095557
O O16 0.500000 0.500000 0.500000
#
# Coordination Sequence:
#
# PCOD8256565 Si02
#       7
#    16   8  16  16  16   8   8
#     4  11  24  41  63  94 134 171 208 270 344 391
#     4  12  25  41  61  90 131 170 202 255 327 392
#     4  12  22  38  65  98 127 164 217 269 315 383
#     4  10  19  36  61  96 122 154 208 267 312 361
#     4  11  22  40  66  95 125 161 218 264 315 389
#     4  12  22  39  66  93 123 162 215 265 317 371
#     4  10  18  36  62  95 119 153 202 266 319 356
#
# _framework density 19.855131
#
# number of rings (size 3 to 8) (size 9 to 14) (size 15 to 20)
#    0.000    0.909    5.455    5.182    0.000    0.000 
#    0.000    4.545    0.000    1.091    0.000    0.000 
#    0.000    0.000    0.000    0.000    0.000    0.000 
#
# Total GULP energy -545589.715946 kJ/mol
# GULP energy per Si atom -12399.766271 kJ/mol
# Density = 1.980994 g / cm^3
# Si number density = 19.855131 Si / 1000 Ang^3
#
#
#
# Elastic Constant Matrix: (Units=GPa)
#
#
# Indices 1 2 3 4 5 6 
#
# 1 173.4145 43.2999 46.0668 0.0000 0.0000 0.0000
# 2 43.2999 151.1155 41.6330 0.0000 0.0000 0.0000
# 3 46.0668 41.6330 92.6127 0.0000 0.0000 0.0000
# 4 0.0000 0.0000 0.0000 16.6600 0.0000 0.0000
# 5 0.0000 0.0000 0.0000 0.0000 16.8321 0.0000
# 6 0.0000 0.0000 0.0000 0.0000 0.0000 15.8102
#
#
#
# Elastic Compliance Matrix: (Units=1/GPa)
#
#
# Indices 1 2 3 4 5 6 
#
# 1 0.006819 -0.001164 -0.002869 0.000000 0.000000 0.000000
# 2 -0.001164 0.007751 -0.002906 0.000000 0.000000 0.000000
# 3 -0.002869 -0.002906 0.013531 0.000000 0.000000 0.000000
# 4 0.000000 0.000000 0.000000 0.060024 0.000000 0.000000
# 5 0.000000 0.000000 0.000000 0.000000 0.059410 0.000000
# 6 0.000000 0.000000 0.000000 0.000000 0.000000 0.063250
#
#
# Mechanical properties :
#
#
# Convention : Reuss Voigt Hill
#
# Bulk Modulus (GPa) = 70.29841 75.46022 72.87931
# Shear Modulus (GPa) = 21.79555 28.93665 25.36610
#
# Velocity S-wave (km/s) = 3.31679 3.82172 3.57817
# Velocity P-wave (km/s) = 7.08172 7.58696 7.33869
#
# Compressibility (1/GPa) = 0.01422507
#
# Stress axis : x y z
#
# Youngs Moduli (GPa) = 146.64567 129.00879 73.90467
#
# Poissons Ratio (x) = 0.15011 0.21202
# Poissons Ratio (y) = 0.17063 0.21475
# Poissons Ratio (z) = 0.42071 0.37487
#
# Static dielectric constant tensor:
#      x y z
#    x 4.723480 0.000000 0.000000 
#    y 0.000000 3.339850 0.000000 
#    z 0.000000 0.000000 3.162190 
# 
# 
# High freq. dielectric constant tensor:
#      x y z
#    x 1.798150 0.000000 0.000000 
#    y 0.000000 1.789460 0.000000 
#    z 0.000000 0.000000 1.731690 
# 
# From -- ./inp_files/45580.got.cif
#   From: 2010.03.12/outbox.cif.g09.slc.cpg/sg63_23_cif.got.tgz:45580.got - 2010.04.10 19:34:48.
