data_PCOD8256443
_publ_section_title
;
Structure prediction by ZEFSAII (Michael W. Deem and Ramdas Pophale) SiO2 
 PCOD8256443
Probable space group: C M C M
;
_chemical_formula_sum "Si O2"
_cell_formula_units_Z 88
_cell_length_a 25.045362
_cell_length_b 8.870186
_cell_length_c 20.518168
_cell_angle_alpha 90.000000
_cell_angle_beta 90.000000
_cell_angle_gamma 90.000000
_cell_volume 4558.255046
_symmetry_space_group_name_H-M "C M C M"
_symmetry_group_IT_number 63
_symmetry_cell_setting 'orthorhombic'
loop_
_space_group_symop_operation_xyz
x,y,z
-x,-y,1/2+z
x,-y,-z
-x,y,1/2-z
-x,-y,-z
x,y,1/2-z
-x,y,z
x,-y,1/2+z
1/2+x,1/2+y,z
1/2-x,1/2-y,1/2+z
1/2+x,1/2-y,-z
1/2-x,1/2+y,1/2-z
1/2-x,1/2-y,-z
1/2+x,1/2+y,1/2-z
1/2-x,1/2+y,z
1/2+x,1/2-y,1/2+z
loop_
_atom_site_type_symbol
_atom_site_label
_atom_site_fract_x
_atom_site_fract_y
_atom_site_fract_z
Si Si1 0.914283 0.814661 0.376680
Si Si2 0.310250 0.830523 0.827812
Si Si3 0.500000 0.815774 0.123557
Si Si4 0.700746 0.824952 0.326778
Si Si5 0.500000 0.325920 0.016050
Si Si6 0.599463 0.355937 0.673904
Si Si7 0.500000 0.875509 0.680329
O O1 0.855544 0.743740 0.372987
O O2 0.945826 0.785944 0.444375
O O3 0.948356 0.731426 0.321392
O O4 0.911561 0.992575 0.365487
O O5 0.321467 0.812990 0.750000
O O6 0.256839 0.743647 0.848954
O O7 0.304713 0.003236 0.850346
O O8 0.448604 0.757922 0.162047
O O9 0.500000 0.997323 0.124665
O O10 0.500000 0.772126 0.048532
O O11 0.696232 0.822509 0.250000
O O12 0.652932 0.721897 0.354633
O O13 0.500000 0.500000 0.000000
O O14 0.605363 0.394564 0.750000
O O15 0.500000 0.958998 0.750000
#
# Coordination Sequence:
#
# PCOD8256443 Si02
#       7
#    16  16   8  16   8  16   8
#     4  11  22  35  59  80 116 158 193 245 285 349
#     4  10  18  33  53  84 118 152 187 234 298 358
#     4  12  23  38  60  79 114 154 197 245 288 346
#     4   9  19  32  53  84 125 155 185 229 292 370
#     4  11  23  45  58  82 110 158 214 242 291 335
#     4  11  20  33  55  87 114 150 189 236 299 352
#     4  11  22  36  54  89 121 143 181 243 304 354
#
# _framework density 19.305634000000001
#
# number of rings (size 3 to 8) (size 9 to 14) (size 15 to 20)
#    0.000    1.455    1.818    5.182    0.000    5.818 
#    0.000    0.000    0.000    1.091    0.000    0.000 
#    0.000    0.000    0.000    0.000    0.000    0.000 
#
# Total GULP energy -545565.409171 kJ/mol
# GULP energy per Si atom -12399.213845 kJ/mol
# Density = 1.926169 g / cm^3
# Si number density = 19.305634 Si / 1000 Ang^3
#
#
#
# Elastic Constant Matrix: (Units=GPa)
#
#
# Indices 1 2 3 4 5 6 
#
# 1 156.7544 58.0018 19.6285 0.0000 0.0000 0.0000
# 2 58.0018 128.9367 14.5807 0.0000 0.0000 0.0000
# 3 19.6285 14.5807 58.2736 0.0000 0.0000 0.0000
# 4 0.0000 0.0000 0.0000 26.5279 0.0000 0.0000
# 5 0.0000 0.0000 0.0000 0.0000 15.0667 0.0000
# 6 0.0000 0.0000 0.0000 0.0000 0.0000 41.4901
#
#
#
# Elastic Compliance Matrix: (Units=1/GPa)
#
#
# Indices 1 2 3 4 5 6 
#
# 1 0.007834 -0.003320 -0.001808 0.000000 0.000000 0.000000
# 2 -0.003320 0.009388 -0.001231 0.000000 0.000000 0.000000
# 3 -0.001808 -0.001231 0.018077 0.000000 0.000000 0.000000
# 4 0.000000 0.000000 0.000000 0.037696 0.000000 0.000000
# 5 0.000000 0.000000 0.000000 0.000000 0.066371 0.000000
# 6 0.000000 0.000000 0.000000 0.000000 0.000000 0.024102
#
#
# Mechanical properties :
#
#
# Convention : Reuss Voigt Hill
#
# Bulk Modulus (GPa) = 44.28223 58.70964 51.49594
# Shear Modulus (GPa) = 27.21611 33.40051 30.30831
#
# Velocity S-wave (km/s) = 3.75874 4.16395 3.96652
# Velocity P-wave (km/s) = 6.46720 7.32083 6.90722
#
# Compressibility (1/GPa) = 0.02258242
#
# Stress axis : x y z
#
# Youngs Moduli (GPa) = 127.64595 106.51556 55.31747
#
# Poissons Ratio (x) = 0.35360 0.10002
# Poissons Ratio (y) = 0.42375 0.06809
# Poissons Ratio (z) = 0.23081 0.13111
#
# Static dielectric constant tensor:
#      x y z
#    x 3.805390 0.000000 0.000000 
#    y 0.000000 3.730000 0.000000 
#    z 0.000000 0.000000 3.148560 
# 
# 
# High freq. dielectric constant tensor:
#      x y z
#    x 1.766190 0.000000 0.000000 
#    y 0.000000 1.771630 0.000000 
#    z 0.000000 0.000000 1.703420 
# 
# From -- ./inp_files/57398.got.cif
#   From: 2010.03.12/outbox.cif.g09.slc.cpg/sg63_29_cif.got.tgz:57398.got - 2010.04.10 19:34:48.
