data_PCOD8256368
_publ_section_title
;
Structure prediction by ZEFSAII (Michael W. Deem and Ramdas Pophale) SiO2 
 PCOD8256368
Probable space group: C M C M
;
_chemical_formula_sum "Si O2"
_cell_formula_units_Z 96
_cell_length_a 8.915828
_cell_length_b 20.787962
_cell_length_c 28.421644
_cell_angle_alpha 90.000000
_cell_angle_beta 90.000000
_cell_angle_gamma 90.000000
_cell_volume 5267.721320
_symmetry_space_group_name_H-M "C M C M"
_symmetry_group_IT_number 63
_symmetry_cell_setting 'orthorhombic'
loop_
_space_group_symop_operation_xyz
x,y,z
-x,-y,1/2+z
x,-y,-z
-x,y,1/2-z
-x,-y,-z
x,y,1/2-z
-x,y,z
x,-y,1/2+z
1/2+x,1/2+y,z
1/2-x,1/2-y,1/2+z
1/2+x,1/2-y,-z
1/2-x,1/2+y,1/2-z
1/2-x,1/2-y,-z
1/2+x,1/2+y,1/2-z
1/2-x,1/2+y,z
1/2+x,1/2-y,1/2+z
loop_
_atom_site_type_symbol
_atom_site_label
_atom_site_fract_x
_atom_site_fract_y
_atom_site_fract_z
Si Si1 0.822619 0.258892 0.107291
Si Si2 0.178323 0.130819 0.443938
Si Si3 0.678304 0.502110 0.396953
Si Si4 0.822271 0.874159 0.050638
Si Si5 0.821656 0.947352 0.301148
Si Si6 0.174375 0.800823 0.196803
O O1 0.763189 0.194276 0.082290
O O2 0.752570 0.319702 0.081711
O O3 0.769708 0.256605 0.161476
O O4 0.000000 0.263296 0.104663
O O5 0.236767 0.131998 0.497392
O O6 0.000000 0.126998 0.443632
O O7 0.245564 0.068281 0.417413
O O8 0.500000 0.505589 0.395787
O O9 0.729137 0.443496 0.430165
O O10 0.740710 0.491278 0.343718
O O11 0.000000 0.865703 0.054197
O O12 0.762544 0.972253 0.250000
O O13 0.769352 0.874105 0.309070
O O14 0.000000 0.948008 0.300929
O O15 0.203497 0.776764 0.250000
O O16 0.000000 0.795273 0.183673
#
# Coordination Sequence:
#
# PCOD8256368 Si02
#       6
#    16  16  16  16  16  16
#     4  11  21  32  47  73 109 136 158 196 251 308
#     4   9  19  31  45  71 104 133 163 206 255 297
#     4   9  15  27  49  74  96 122 164 214 254 285
#     4  10  18  32  54  73  92 129 179 216 241 280
#     4   8  13  23  44  74  97 112 147 205 251 280
#     4   9  17  32  54  77  97 123 167 211 241 282
#
# _framework density 18.224198999999999
#
# number of rings (size 3 to 8) (size 9 to 14) (size 15 to 20)
#    0.000    2.667    1.667    2.500    0.000    2.333 
#    0.000    1.667    0.000    7.000    0.000    0.000 
#    0.000    0.000    0.000    0.000    0.000    0.000 
#
# Total GULP energy -595027.948596 kJ/mol
# GULP energy per Si atom -12396.415596 kJ/mol
# Density = 1.818272 g / cm^3
# Si number density = 18.224199 Si / 1000 Ang^3
#
#
#
# Elastic Constant Matrix: (Units=GPa)
#
#
# Indices 1 2 3 4 5 6 
#
# 1 22.0317 23.7937 22.6485 0.0000 0.0000 0.0000
# 2 23.7937 104.3108 57.4921 0.0000 0.0000 0.0000
# 3 22.6485 57.4921 156.1791 0.0000 0.0000 0.0000
# 4 0.0000 0.0000 0.0000 17.6007 0.0000 0.0000
# 5 0.0000 0.0000 0.0000 0.0000 20.9389 0.0000
# 6 0.0000 0.0000 0.0000 0.0000 0.0000 16.1231
#
#
#
# Elastic Compliance Matrix: (Units=1/GPa)
#
#
# Indices 1 2 3 4 5 6 
#
# 1 0.062996 -0.011710 -0.004825 0.000000 0.000000 0.000000
# 2 -0.011710 0.014204 -0.003530 0.000000 0.000000 0.000000
# 3 -0.004825 -0.003530 0.008402 0.000000 0.000000 0.000000
# 4 0.000000 0.000000 0.000000 0.056816 0.000000 0.000000
# 5 0.000000 0.000000 0.000000 0.000000 0.047758 0.000000
# 6 0.000000 0.000000 0.000000 0.000000 0.000000 0.062023
#
#
# Mechanical properties :
#
#
# Convention : Reuss Voigt Hill
#
# Bulk Modulus (GPa) = 21.99219 54.48779 38.23999
# Shear Modulus (GPa) = 16.26089 22.83836 19.54963
#
# Velocity S-wave (km/s) = 2.99033 3.54388 3.27881
# Velocity P-wave (km/s) = 4.90067 6.83440 5.94666
#
# Compressibility (1/GPa) = 0.04547068
#
# Stress axis : x y z
#
# Youngs Moduli (GPa) = 15.87411 70.40384 119.01699
#
# Poissons Ratio (x) = 0.82446 0.57421
# Poissons Ratio (y) = 0.18589 0.42018
# Poissons Ratio (z) = 0.07659 0.24856
#
# Static dielectric constant tensor:
#      x y z
#    x 2.831220 0.000000 0.000000 
#    y 0.000000 3.416600 0.000000 
#    z 0.000000 0.000000 3.866110 
# 
# 
# High freq. dielectric constant tensor:
#      x y z
#    x 1.649040 0.000000 0.000000 
#    y 0.000000 1.692990 0.000000 
#    z 0.000000 0.000000 1.730000 
# 
# From -- ./inp_files/66937.got.cif
#   From: 2010.03.12/outbox.cif.g09.slc.cpg/sg63_34_cif.got.tgz:66937.got - 2010.04.10 19:34:48.
