data_PCOD8256207
_publ_section_title
;
Structure prediction by ZEFSAII (Michael W. Deem and Ramdas Pophale) SiO2 
 PCOD8256207
Probable space group: C M C M
;
_chemical_formula_sum "Si O2"
_cell_formula_units_Z 64
_cell_length_a 26.560599
_cell_length_b 5.266502
_cell_length_c 25.098509
_cell_angle_alpha 90.000000
_cell_angle_beta 90.000000
_cell_angle_gamma 90.000000
_cell_volume 3510.815775
_symmetry_space_group_name_H-M "C M C M"
_symmetry_group_IT_number 63
_symmetry_cell_setting 'orthorhombic'
loop_
_space_group_symop_operation_xyz
x,y,z
-x,-y,1/2+z
x,-y,-z
-x,y,1/2-z
-x,-y,-z
x,y,1/2-z
-x,y,z
x,-y,1/2+z
1/2+x,1/2+y,z
1/2-x,1/2-y,1/2+z
1/2+x,1/2-y,-z
1/2-x,1/2+y,1/2-z
1/2-x,1/2-y,-z
1/2+x,1/2+y,1/2-z
1/2-x,1/2+y,z
1/2+x,1/2-y,1/2+z
loop_
_atom_site_type_symbol
_atom_site_label
_atom_site_fract_x
_atom_site_fract_y
_atom_site_fract_z
Si Si1 0.443393 0.787288 0.340245
Si Si2 0.219014 0.778465 0.312088
Si Si3 0.056797 0.563785 0.057887
Si Si4 0.891479 0.781805 0.348927
O O1 0.500000 0.774737 0.317035
O O2 0.413185 0.537649 0.322367
O O3 0.444559 0.811056 0.404957
O O4 0.414899 0.038478 0.317358
O O5 0.204778 0.780122 0.250000
O O6 0.249471 0.526830 0.327710
O O7 0.168443 0.780657 0.346399
O O8 0.091543 0.770598 0.088631
O O9 0.000000 0.673754 0.051523
O O10 0.079904 0.500000 0.000000
#
# Coordination Sequence:
#
# PCOD8256207 Si02
#       4
#    16  16  16  16
#     4   9  17  29  48  74 104 135 163 195 237 293
#     4  10  21  37  57  77  94 121 170 223 262 299
#     4   8  16  29  48  76 106 136 169 199 233 290
#     4  10  18  31  51  73 101 133 164 208 256 293
#
# _framework density 18.229379999999999
#
# number of rings (size 3 to 8) (size 9 to 14) (size 15 to 20)
#    1.500    1.250    0.000    3.000    0.000    1.000 
#    0.000    3.750    0.000    9.750    0.000    0.000 
#    0.000    0.000    0.000    0.000    0.000    0.000 
#
# Total GULP energy -396437.811787 kJ/mol
# GULP energy per Si atom -12388.681618 kJ/mol
# Density = 1.818789 g / cm^3
# Si number density = 18.229380 Si / 1000 Ang^3
#
#
#
# Elastic Constant Matrix: (Units=GPa)
#
#
# Indices 1 2 3 4 5 6 
#
# 1 146.5299 66.3804 24.7213 0.0000 0.0000 0.0000
# 2 66.3804 155.7047 7.7072 0.0000 0.0000 0.0000
# 3 24.7213 7.7072 32.6733 0.0000 0.0000 0.0000
# 4 0.0000 0.0000 0.0000 0.6979 0.0000 0.0000
# 5 0.0000 0.0000 0.0000 0.0000 25.0362 0.0000
# 6 0.0000 0.0000 0.0000 0.0000 0.0000 33.2941
#
#
#
# Elastic Compliance Matrix: (Units=1/GPa)
#
#
# Indices 1 2 3 4 5 6 
#
# 1 0.009615 -0.003783 -0.006383 0.000000 0.000000 0.000000
# 2 -0.003783 0.007987 0.000978 0.000000 0.000000 0.000000
# 3 -0.006383 0.000978 0.035204 0.000000 0.000000 0.000000
# 4 0.000000 0.000000 0.000000 1.432825 0.000000 0.000000
# 5 0.000000 0.000000 0.000000 0.000000 0.039942 0.000000
# 6 0.000000 0.000000 0.000000 0.000000 0.000000 0.030035
#
#
# Mechanical properties :
#
#
# Convention : Reuss Voigt Hill
#
# Bulk Modulus (GPa) = 29.04300 59.16953 44.10626
# Shear Modulus (GPa) = 3.15366 27.54560 15.34963
#
# Velocity S-wave (km/s) = 1.31672 3.89145 2.90492
# Velocity P-wave (km/s) = 4.27530 7.26085 5.95811
#
# Compressibility (1/GPa) = 0.03443171
#
# Stress axis : x y z
#
# Youngs Moduli (GPa) = 104.00142 125.20551 28.40548
#
# Poissons Ratio (x) = 0.47369 0.18130
# Poissons Ratio (y) = 0.39346 -0.02779
# Poissons Ratio (z) = 0.66381 -0.12251
#
# Static dielectric constant tensor:
#      x y z
#    x 3.160460 0.000000 0.000000 
#    y 0.000000 3.361700 0.000000 
#    z 0.000000 0.000000 2.957020 
# 
# 
# High freq. dielectric constant tensor:
#      x y z
#    x 1.697010 0.000000 0.000000 
#    y 0.000000 1.710570 0.000000 
#    z 0.000000 0.000000 1.664560 
# 
# From -- ./inp_files/64845.got.cif
#   From: 2010.03.12/outbox.cif.g09.slc.cpg/sg63_33_cif.got.tgz:64845.got - 2010.04.10 19:34:48.
