data_PCOD8256143
_publ_section_title
;
Structure prediction by ZEFSAII (Michael W. Deem and Ramdas Pophale) SiO2 
 PCOD8256143
Probable space group: C M C M
;
_chemical_formula_sum "Si O2"
_cell_formula_units_Z 64
_cell_length_a 8.803688
_cell_length_b 18.295203
_cell_length_c 20.675967
_cell_angle_alpha 90.000000
_cell_angle_beta 90.000000
_cell_angle_gamma 90.000000
_cell_volume 3330.179982
_symmetry_space_group_name_H-M "C M C M"
_symmetry_group_IT_number 63
_symmetry_cell_setting 'orthorhombic'
loop_
_space_group_symop_operation_xyz
x,y,z
-x,-y,1/2+z
x,-y,-z
-x,y,1/2-z
-x,-y,-z
x,y,1/2-z
-x,y,z
x,-y,1/2+z
1/2+x,1/2+y,z
1/2-x,1/2-y,1/2+z
1/2+x,1/2-y,-z
1/2-x,1/2+y,1/2-z
1/2-x,1/2-y,-z
1/2+x,1/2+y,1/2-z
1/2-x,1/2+y,z
1/2+x,1/2-y,1/2+z
loop_
_atom_site_type_symbol
_atom_site_label
_atom_site_fract_x
_atom_site_fract_y
_atom_site_fract_z
Si Si1 0.327872 0.430518 0.750000
Si Si2 0.177039 0.580417 0.750000
Si Si3 0.676242 0.415304 0.118193
Si Si4 0.322373 0.829036 0.498605
Si Si5 0.328950 0.412358 0.610137
O O1 0.500000 0.465668 0.750000
O O2 0.202782 0.493614 0.750000
O O3 0.308830 0.383220 0.684359
O O4 0.253224 0.613822 0.685508
O O5 0.000000 0.598953 0.750000
O O6 0.500000 0.395311 0.117240
O O7 0.757625 0.375268 0.059992
O O8 0.704242 0.501416 0.109236
O O9 0.500000 0.820617 0.489666
O O10 0.250000 0.750000 0.500000
O O11 0.289315 0.870421 0.565629
O O12 0.500000 0.396752 0.585180
#
# Coordination Sequence:
#
# PCOD8256143 Si02
#       5
#     8   8  16  16  16
#     4   8  16  32  55  82 113 146 177 217 271 327
#     4  10  18  30  53  86 117 142 177 225 271 319
#     4  10  20  37  60  84 112 146 183 224 273 328
#     4  12  25  39  55  78 110 147 188 232 279 330
#     4   9  18  35  59  85 112 144 181 222 272 327
#
# _framework density 19.218178999999999
#
# number of rings (size 3 to 8) (size 9 to 14) (size 15 to 20)
#    0.000    2.000    0.000    6.375    0.000    8.000 
#    0.000    1.250    0.000    1.500    0.000    0.000 
#    0.000    0.000    0.000    0.000    0.000    0.000 
#
# Total GULP energy -396755.033495 kJ/mol
# GULP energy per Si atom -12398.594797 kJ/mol
# Density = 1.917444 g / cm^3
# Si number density = 19.218179 Si / 1000 Ang^3
#
#
#
# Elastic Constant Matrix: (Units=GPa)
#
#
# Indices 1 2 3 4 5 6 
#
# 1 152.6037 45.7390 73.4999 0.0000 0.0000 0.0000
# 2 45.7390 57.8605 52.8856 0.0000 0.0000 0.0000
# 3 73.4999 52.8856 174.2616 0.0000 0.0000 0.0000
# 4 0.0000 0.0000 0.0000 -8.5465 0.0000 0.0000
# 5 0.0000 0.0000 0.0000 0.0000 35.5954 0.0000
# 6 0.0000 0.0000 0.0000 0.0000 0.0000 28.6865
#
#
#
# Elastic Compliance Matrix: (Units=1/GPa)
#
#
# Indices 1 2 3 4 5 6 
#
# 1 0.009219 -0.005167 -0.002320 0.000000 0.000000 0.000000
# 2 -0.005167 0.026813 -0.005958 0.000000 0.000000 0.000000
# 3 -0.002320 -0.005958 0.008525 0.000000 0.000000 0.000000
# 4 0.000000 0.000000 0.000000 -0.117007 0.000000 0.000000
# 5 0.000000 0.000000 0.000000 0.000000 0.028094 0.000000
# 6 0.000000 0.000000 0.000000 0.000000 0.000000 0.034860
#
#
# Mechanical properties :
#
#
# Convention : Reuss Voigt Hill
#
# Bulk Modulus (GPa) = 56.60275 80.99722 68.79998
# Shear Modulus (GPa) = 214.74104 25.32050 120.03077
#
# Velocity S-wave (km/s) = 10.58211 3.63372 7.91154
# Velocity P-wave (km/s) = 13.37254 7.73581 10.92400
#
# Compressibility (1/GPa) = 0.01766699
#
# Stress axis : x y z
#
# Youngs Moduli (GPa) = 108.46990 37.29507 117.29703
#
# Poissons Ratio (x) = 0.19270 0.27217
# Poissons Ratio (y) = 0.56045 0.69887
# Poissons Ratio (z) = 0.25169 0.22221
#
# Static dielectric constant tensor:
#      x y z
#    x 3.548260 0.000000 0.000000 
#    y 0.000000 3.115340 0.000000 
#    z 0.000000 0.000000 4.007920 
# 
# 
# High freq. dielectric constant tensor:
#      x y z
#    x 1.753260 0.000000 0.000000 
#    y 0.000000 1.703060 0.000000 
#    z 0.000000 0.000000 1.775480 
# 
# From -- ./inp_files/50367.got.cif
#   From: 2010.03.12/outbox.cif.g09.slc.cpg/sg63_26_cif.got.tgz:50367.got - 2010.04.10 19:34:48.
