data_PCOD8256451
_publ_section_title
;
Structure prediction by ZEFSAII (Michael W. Deem and Ramdas Pophale) SiO2 
 PCOD8256451
Probable space group: C M C M
;
_chemical_formula_sum "Si O2"
_cell_formula_units_Z 80
_cell_length_a 21.449723
_cell_length_b 13.845612
_cell_length_c 13.703578
_cell_angle_alpha 90.000000
_cell_angle_beta 90.000000
_cell_angle_gamma 90.000000
_cell_volume 4069.750838
_symmetry_space_group_name_H-M "C M C M"
_symmetry_group_IT_number 63
_symmetry_cell_setting 'orthorhombic'
loop_
_space_group_symop_operation_xyz
x,y,z
-x,-y,1/2+z
x,-y,-z
-x,y,1/2-z
-x,-y,-z
x,y,1/2-z
-x,y,z
x,-y,1/2+z
1/2+x,1/2+y,z
1/2-x,1/2-y,1/2+z
1/2+x,1/2-y,-z
1/2-x,1/2+y,1/2-z
1/2-x,1/2-y,-z
1/2+x,1/2+y,1/2-z
1/2-x,1/2+y,z
1/2+x,1/2-y,1/2+z
loop_
_atom_site_type_symbol
_atom_site_label
_atom_site_fract_x
_atom_site_fract_y
_atom_site_fract_z
Si Si1 0.881843 0.944943 0.641978
Si Si2 0.780325 0.327006 0.357056
Si Si3 0.927589 0.138510 0.946667
Si Si4 0.243040 0.534487 0.393162
Si Si5 0.330819 0.784902 0.555143
O O1 0.909118 0.923071 0.750000
O O2 0.916807 0.879724 0.562111
O O3 0.807626 0.921894 0.647059
O O4 0.893133 0.057236 0.616807
O O5 0.790626 0.277657 0.250000
O O6 0.781013 0.441770 0.334625
O O7 0.715681 0.298891 0.409189
O O8 0.832065 0.296970 0.436735
O O9 0.899208 0.243879 0.917916
O O10 0.000000 0.138881 0.921437
O O11 0.259321 0.500000 0.500000
O O12 0.188297 0.615577 0.391137
#
# Coordination Sequence:
#
# PCOD8256451 Si02
#       5
#    16  16  16  16  16
#     4  11  20  35  56  81 110 144 185 229 285 337
#     4  10  19  33  55  83 112 141 177 232 293 334
#     4  11  23  38  53  76 114 155 190 225 264 325
#     4  10  18  33  55  81 115 140 170 232 293 334
#     4  10  21  35  53  82 113 144 187 228 272 334
#
# _framework density 19.657222999999998
#
# number of rings (size 3 to 8) (size 9 to 14) (size 15 to 20)
#    0.000    1.600    4.000    4.200    0.000    5.600 
#    0.000    0.000    0.000    5.400    0.000    0.000 
#    0.000    0.000    0.000    0.000    0.000    0.000 
#
# Total GULP energy -495603.307619 kJ/mol
# GULP energy per Si atom -12390.082690 kJ/mol
# Density = 1.961248 g / cm^3
# Si number density = 19.657223 Si / 1000 Ang^3
#
#
#
# Elastic Constant Matrix: (Units=GPa)
#
#
# Indices 1 2 3 4 5 6 
#
# 1 71.5235 35.9491 5.5639 0.0000 0.0000 0.0000
# 2 35.9491 103.0762 14.5345 0.0000 0.0000 0.0000
# 3 5.5639 14.5345 104.1359 0.0000 0.0000 0.0000
# 4 0.0000 0.0000 0.0000 6.3523 0.0000 0.0000
# 5 0.0000 0.0000 0.0000 0.0000 31.5216 0.0000
# 6 0.0000 0.0000 0.0000 0.0000 0.0000 23.6238
#
#
#
# Elastic Compliance Matrix: (Units=1/GPa)
#
#
# Indices 1 2 3 4 5 6 
#
# 1 0.016954 -0.005901 -0.000082 0.000000 0.000000 0.000000
# 2 -0.005901 0.011950 -0.001353 0.000000 0.000000 0.000000
# 3 -0.000082 -0.001353 0.009796 0.000000 0.000000 0.000000
# 4 0.000000 0.000000 0.000000 0.157424 0.000000 0.000000
# 5 0.000000 0.000000 0.000000 0.000000 0.031724 0.000000
# 6 0.000000 0.000000 0.000000 0.000000 0.000000 0.042330
#
#
# Mechanical properties :
#
#
# Convention : Reuss Voigt Hill
#
# Bulk Modulus (GPa) = 41.61790 43.42562 42.52176
# Shear Modulus (GPa) = 17.07300 27.14542 22.10921
#
# Velocity S-wave (km/s) = 2.95029 3.72013 3.35735
# Velocity P-wave (km/s) = 5.72917 6.37118 6.05868
#
# Compressibility (1/GPa) = 0.02402813
#
# Stress axis : x y z
#
# Youngs Moduli (GPa) = 58.98349 83.67892 102.08230
#
# Poissons Ratio (x) = 0.49381 0.00839
# Poissons Ratio (y) = 0.34808 0.13808
# Poissons Ratio (z) = 0.00485 0.11319
#
# Static dielectric constant tensor:
#      x y z
#    x 3.150140 0.000000 0.000000 
#    y 0.000000 3.797840 0.000000 
#    z 0.000000 0.000000 3.771420 
# 
# 
# High freq. dielectric constant tensor:
#      x y z
#    x 1.707620 0.000000 0.000000 
#    y 0.000000 1.761860 0.000000 
#    z 0.000000 0.000000 1.777560 
# 
# From -- ./inp_files/35101.got.cif
#   From: 2010.03.12/outbox.cif.g09.slc.cpg/sg63_18_cif.got.tgz:35101.got - 2010.04.10 19:34:48.
