data_PCOD8256859
_publ_section_title
;
Structure prediction by ZEFSAII (Michael W. Deem and Ramdas Pophale) SiO2 
 PCOD8256859
Probable space group: C M C M
;
_chemical_formula_sum "Si O2"
_cell_formula_units_Z 128
_cell_length_a 13.091352
_cell_length_b 24.562461
_cell_length_c 22.254675
_cell_angle_alpha 90.000000
_cell_angle_beta 90.000000
_cell_angle_gamma 90.000000
_cell_volume 7156.120334
_symmetry_space_group_name_H-M "C M C M"
_symmetry_group_IT_number 63
_symmetry_cell_setting 'orthorhombic'
loop_
_space_group_symop_operation_xyz
x,y,z
-x,-y,1/2+z
x,-y,-z
-x,y,1/2-z
-x,-y,-z
x,y,1/2-z
-x,y,z
x,-y,1/2+z
1/2+x,1/2+y,z
1/2-x,1/2-y,1/2+z
1/2+x,1/2-y,-z
1/2-x,1/2+y,1/2-z
1/2-x,1/2-y,-z
1/2+x,1/2+y,1/2-z
1/2-x,1/2+y,z
1/2+x,1/2-y,1/2+z
loop_
_atom_site_type_symbol
_atom_site_label
_atom_site_fract_x
_atom_site_fract_y
_atom_site_fract_z
Si Si1 0.381014 0.078600 0.529106
Si Si2 0.751623 0.271690 0.901811
Si Si3 0.621142 0.801848 0.486122
Si Si4 0.283030 0.461641 0.680987
Si Si5 0.120262 0.190494 0.680030
Si Si6 0.617290 0.650898 0.180517
Si Si7 0.612157 0.569174 0.678993
Si Si8 0.118928 0.526806 0.408485
O O1 0.500000 0.077208 0.515918
O O2 0.345828 0.140034 0.542498
O O3 0.333752 0.056558 0.466867
O O4 0.357344 0.038130 0.584390
O O5 0.664829 0.243159 0.941564
O O6 0.812162 0.230399 0.859524
O O7 0.695282 0.316017 0.860936
O O8 0.832969 0.298924 0.946768
O O9 0.500000 0.794220 0.490717
O O10 0.255283 0.468700 0.750000
O O11 0.364170 0.413423 0.670819
O O12 0.324031 0.518522 0.652989
O O13 0.176849 0.448512 0.648442
O O14 0.140352 0.203066 0.750000
O O15 0.157367 0.128939 0.663903
O O16 0.000000 0.197478 0.665508
O O17 0.637463 0.666731 0.250000
O O18 0.500000 0.663685 0.162949
O O19 0.603285 0.562364 0.750000
O O20 0.500000 0.565283 0.650009
O O21 0.000000 0.538010 0.397925
#
# Coordination Sequence:
#
# PCOD8256859 Si02
#       8
#    16  16  16  16  16  16  16  16
#     4   8  16  32  50  67  90 128 173 209 247 296
#     4  11  21  33  54  78 102 138 177 216 266 309
#     4  10  21  35  51  74 103 136 178 222 261 308
#     4  10  19  30  50  77 102 134 168 202 254 311
#     4   9  18  33  53  77 106 135 168 217 268 315
#     4  10  21  37  55  77 107 139 174 214 254 310
#     4   8  15  29  48  71  98 129 166 204 245 297
#     4   9  17  30  50  73  99 131 165 210 256 302
#
# _framework density 17.886787000000002
#
# number of rings (size 3 to 8) (size 9 to 14) (size 15 to 20)
#    0.000    2.625    0.000    3.750    1.750    1.750 
#    0.000    0.625    0.000    1.500    0.000    4.375 
#    0.000    0.000    0.000    0.000    0.000    0.000 
#
# Total GULP energy -793136.394968 kJ/mol
# GULP energy per Si atom -12392.756171 kJ/mol
# Density = 1.784608 g / cm^3
# Si number density = 17.886787 Si / 1000 Ang^3
#
#
#
# Elastic Constant Matrix: (Units=GPa)
#
#
# Indices 1 2 3 4 5 6 
#
# 1 81.2990 32.3539 40.8089 0.0000 0.0000 0.0000
# 2 32.3539 78.1175 27.7986 0.0000 0.0000 0.0000
# 3 40.8089 27.7986 65.5049 0.0000 0.0000 0.0000
# 4 0.0000 0.0000 0.0000 17.8085 0.0000 0.0000
# 5 0.0000 0.0000 0.0000 0.0000 24.9197 0.0000
# 6 0.0000 0.0000 0.0000 0.0000 0.0000 25.7495
#
#
#
# Elastic Compliance Matrix: (Units=1/GPa)
#
#
# Indices 1 2 3 4 5 6 
#
# 1 0.019060 -0.004321 -0.010040 0.000000 0.000000 0.000000
# 2 -0.004321 0.016058 -0.004123 0.000000 0.000000 0.000000
# 3 -0.010040 -0.004123 0.023271 0.000000 0.000000 0.000000
# 4 0.000000 0.000000 0.000000 0.056153 0.000000 0.000000
# 5 0.000000 0.000000 0.000000 0.000000 0.040129 0.000000
# 6 0.000000 0.000000 0.000000 0.000000 0.000000 0.038836
#
#
# Mechanical properties :
#
#
# Convention : Reuss Voigt Hill
#
# Bulk Modulus (GPa) = 46.68460 47.42715 47.05587
# Shear Modulus (GPa) = 21.04253 21.95952 21.50103
#
# Velocity S-wave (km/s) = 3.43363 3.50765 3.47084
# Velocity P-wave (km/s) = 6.47120 6.55573 6.51360
#
# Compressibility (1/GPa) = 0.02142034
#
# Stress axis : x y z
#
# Youngs Moduli (GPa) = 52.46667 62.27451 42.97272
#
# Poissons Ratio (x) = 0.26909 0.43146
# Poissons Ratio (y) = 0.22671 0.17716
# Poissons Ratio (z) = 0.52678 0.25673
#
# Static dielectric constant tensor:
#      x y z
#    x 3.162580 0.000000 0.000000 
#    y 0.000000 3.659740 0.000000 
#    z 0.000000 0.000000 3.121770 
# 
# 
# High freq. dielectric constant tensor:
#      x y z
#    x 1.682040 0.000000 0.000000 
#    y 0.000000 1.703620 0.000000 
#    z 0.000000 0.000000 1.675280 
# 
# From -- ./inp_files/62031.got.cif
#   From: 2010.03.12/outbox.cif.g09.slc.cpg/sg63_32_cif.got.tgz:62031.got - 2010.04.10 19:34:48.
