data_PCOD8256083
_publ_section_title
;
Structure prediction by ZEFSAII (Michael W. Deem and Ramdas Pophale) SiO2 
 PCOD8256083
Probable space group: C M C M
;
_chemical_formula_sum "Si O2"
_cell_formula_units_Z 128
_cell_length_a 9.219757
_cell_length_b 28.953638
_cell_length_c 25.967700
_cell_angle_alpha 90.000000
_cell_angle_beta 90.000000
_cell_angle_gamma 90.000000
_cell_volume 6931.960832
_symmetry_space_group_name_H-M "C M C M"
_symmetry_group_IT_number 63
_symmetry_cell_setting 'orthorhombic'
loop_
_space_group_symop_operation_xyz
x,y,z
-x,-y,1/2+z
x,-y,-z
-x,y,1/2-z
-x,-y,-z
x,y,1/2-z
-x,y,z
x,-y,1/2+z
1/2+x,1/2+y,z
1/2-x,1/2-y,1/2+z
1/2+x,1/2-y,-z
1/2-x,1/2+y,1/2-z
1/2-x,1/2-y,-z
1/2+x,1/2+y,1/2-z
1/2-x,1/2+y,z
1/2+x,1/2-y,1/2+z
loop_
_atom_site_type_symbol
_atom_site_label
_atom_site_fract_x
_atom_site_fract_y
_atom_site_fract_z
Si Si1 0.172262 0.856967 0.693444
Si Si2 0.171907 0.303828 0.401023
Si Si3 0.672772 0.300735 0.903996
Si Si4 0.164079 0.039658 0.190082
Si Si5 0.327127 0.864267 0.192504
Si Si6 0.828783 0.646192 0.494910
Si Si7 0.171875 0.457292 0.141100
Si Si8 0.828375 0.453821 0.474367
O O1 0.232513 0.842096 0.750000
O O2 0.228179 0.821810 0.650112
O O3 0.000000 0.857131 0.695927
O O4 0.223877 0.908727 0.679743
O O5 0.230026 0.251690 0.405676
O O6 0.234292 0.327199 0.348761
O O7 0.222700 0.332519 0.450702
O O8 0.000000 0.303908 0.397665
O O9 0.500000 0.303824 0.909354
O O10 0.743070 0.328775 0.950087
O O11 0.170794 0.027842 0.250000
O O12 0.267708 0.005664 0.159845
O O13 0.000000 0.034307 0.169601
O O14 0.269154 0.852568 0.250000
O O15 0.500000 0.863290 0.191706
O O16 0.272447 0.915303 0.176711
O O17 0.785418 0.592052 0.493761
O O18 0.000000 0.653459 0.486959
O O19 0.229951 0.448452 0.083543
O O20 0.000000 0.460399 0.142567
O O21 0.760277 0.500000 0.500000
O O22 0.000000 0.458421 0.472777
#
# Coordination Sequence:
#
# PCOD8256083 Si02
#       8
#    16  16  16  16  16  16  16  16
#     4   8  16  32  50  69  97 130 159 194 243 291
#     4   9  17  31  48  70  98 128 159 198 245 293
#     4  10  20  32  52  77  97 121 163 209 241 279
#     4   9  18  32  48  66  94 130 159 186 233 294
#     4   9  16  27  46  73 101 126 156 202 255 293
#     4  10  19  34  53  71  99 134 163 192 241 301
#     4  10  18  30  50  74  98 123 162 209 243 279
#     4   9  18  31  48  71  99 132 163 195 240 293
#
# _framework density 18.465194
#
# number of rings (size 3 to 8) (size 9 to 14) (size 15 to 20)
#    0.000    2.750    1.250    1.500    1.750    1.250 
#    0.000    3.125    0.000    2.625    0.000    0.000 
#    0.000    0.000    0.000    0.000    0.000    0.000 
#
# Total GULP energy -793359.050491 kJ/mol
# GULP energy per Si atom -12396.235164 kJ/mol
# Density = 1.842317 g / cm^3
# Si number density = 18.465194 Si / 1000 Ang^3
#
#
#
# Elastic Constant Matrix: (Units=GPa)
#
#
# Indices 1 2 3 4 5 6 
#
# 1 15.3097 20.0606 20.9042 0.0000 0.0000 0.0000
# 2 20.0606 152.7619 83.1793 0.0000 0.0000 0.0000
# 3 20.9042 83.1793 142.4318 0.0000 0.0000 0.0000
# 4 0.0000 0.0000 0.0000 34.5966 0.0000 0.0000
# 5 0.0000 0.0000 0.0000 0.0000 17.1420 0.0000
# 6 0.0000 0.0000 0.0000 0.0000 0.0000 18.1811
#
#
#
# Elastic Compliance Matrix: (Units=1/GPa)
#
#
# Indices 1 2 3 4 5 6 
#
# 1 0.085839 -0.006470 -0.008820 0.000000 0.000000 0.000000
# 2 -0.006470 0.010086 -0.004941 0.000000 0.000000 0.000000
# 3 -0.008820 -0.004941 0.011201 0.000000 0.000000 0.000000
# 4 0.000000 0.000000 0.000000 0.028905 0.000000 0.000000
# 5 0.000000 0.000000 0.000000 0.000000 0.058336 0.000000
# 6 0.000000 0.000000 0.000000 0.000000 0.000000 0.055002
#
#
# Mechanical properties :
#
#
# Convention : Reuss Voigt Hill
#
# Bulk Modulus (GPa) = 15.00045 62.08796 38.54421
# Shear Modulus (GPa) = 16.02306 26.40789 21.21547
#
# Velocity S-wave (km/s) = 2.94894 3.78583 3.39329
# Velocity P-wave (km/s) = 4.44256 7.26686 6.02261
#
# Compressibility (1/GPa) = 0.06666465
#
# Stress axis : x y z
#
# Youngs Moduli (GPa) = 11.64976 99.14839 89.28073
#
# Poissons Ratio (x) = 0.64147 0.78745
# Poissons Ratio (y) = 0.07537 0.44110
# Poissons Ratio (z) = 0.10275 0.48985
#
# Static dielectric constant tensor:
#      x y z
#    x 2.824320 0.000000 0.000000 
#    y 0.000000 3.670880 0.000000 
#    z 0.000000 0.000000 3.738790 
# 
# 
# High freq. dielectric constant tensor:
#      x y z
#    x 1.650570 0.000000 0.000000 
#    y 0.000000 1.729540 0.000000 
#    z 0.000000 0.000000 1.727920 
# 
# From -- ./inp_files/62180.got.cif
#   From: 2010.03.12/outbox.cif.g09.slc.cpg/sg63_32_cif.got.tgz:62180.got - 2010.04.10 19:34:48.
