data_PCOD8256315
_publ_section_title
;
Structure prediction by ZEFSAII (Michael W. Deem and Ramdas Pophale) SiO2 
 PCOD8256315
Probable space group: C M C M
;
_chemical_formula_sum "Si O2"
_cell_formula_units_Z 96
_cell_length_a 17.467993
_cell_length_b 16.270977
_cell_length_c 18.908414
_cell_angle_alpha 90.000000
_cell_angle_beta 90.000000
_cell_angle_gamma 90.000000
_cell_volume 5374.174241
_symmetry_space_group_name_H-M "C M C M"
_symmetry_group_IT_number 63
_symmetry_cell_setting 'orthorhombic'
loop_
_space_group_symop_operation_xyz
x,y,z
-x,-y,1/2+z
x,-y,-z
-x,y,1/2-z
-x,-y,-z
x,y,1/2-z
-x,y,z
x,-y,1/2+z
1/2+x,1/2+y,z
1/2-x,1/2-y,1/2+z
1/2+x,1/2-y,-z
1/2-x,1/2+y,1/2-z
1/2-x,1/2-y,-z
1/2+x,1/2+y,1/2-z
1/2-x,1/2+y,z
1/2+x,1/2-y,1/2+z
loop_
_atom_site_type_symbol
_atom_site_label
_atom_site_fract_x
_atom_site_fract_y
_atom_site_fract_z
Si Si1 0.292892 0.220266 0.669903
Si Si2 0.213817 0.309611 0.942650
Si Si3 0.590188 0.062906 0.063816
Si Si4 0.086312 0.142953 0.329878
Si Si5 0.678158 0.537642 0.074598
Si Si6 0.304742 0.965609 0.166292
O O1 0.266186 0.224825 0.750000
O O2 0.218687 0.255160 0.628634
O O3 0.364296 0.277659 0.651099
O O4 0.322852 0.129611 0.650916
O O5 0.127901 0.346790 0.953304
O O6 0.265529 0.389158 0.942351
O O7 0.250000 0.250000 0.000000
O O8 0.500000 0.076108 0.076759
O O9 0.628568 0.023305 0.133989
O O10 0.606129 0.000000 0.000000
O O11 0.103251 0.112873 0.250000
O O12 0.103533 0.068544 0.383485
O O13 0.000000 0.171368 0.339655
O O14 0.723459 0.477288 0.127272
O O15 0.651539 0.500000 0.000000
O O16 0.298170 0.985263 0.250000
#
# Coordination Sequence:
#
# PCOD8256315 Si02
#       6
#    16  16  16  16  16  16
#     4   9  18  31  50  74  97 127 169 213 251 294
#     4  10  18  32  52  71  96 132 169 203 245 296
#     4  10  21  35  51  75 107 137 164 203 258 311
#     4   9  18  32  48  69  99 131 162 203 257 307
#     4  10  19  31  50  74  99 128 167 211 251 295
#     4  10  19  33  54  77 100 130 169 207 246 296
#
# _framework density 17.863209000000001
#
# number of rings (size 3 to 8) (size 9 to 14) (size 15 to 20)
#    0.000    2.333    0.000    4.500    0.000    5.333 
#    0.000    6.667    0.000    3.000    0.000    2.333 
#    0.000    0.000    0.000    0.000    0.000    0.000 
#
# Total GULP energy -594790.377485 kJ/mol
# GULP energy per Si atom -12391.466198 kJ/mol
# Density = 1.782255 g / cm^3
# Si number density = 17.863209 Si / 1000 Ang^3
#
#
#
# Elastic Constant Matrix: (Units=GPa)
#
#
# Indices 1 2 3 4 5 6 
#
# 1 86.9357 42.2294 42.2694 0.0000 0.0000 0.0000
# 2 42.2294 88.9066 60.9885 0.0000 0.0000 0.0000
# 3 42.2694 60.9885 110.7067 0.0000 0.0000 0.0000
# 4 0.0000 0.0000 0.0000 34.0928 0.0000 0.0000
# 5 0.0000 0.0000 0.0000 0.0000 23.8392 0.0000
# 6 0.0000 0.0000 0.0000 0.0000 0.0000 19.5358
#
#
#
# Elastic Compliance Matrix: (Units=1/GPa)
#
#
# Indices 1 2 3 4 5 6 
#
# 1 0.015550 -0.005326 -0.003003 0.000000 0.000000 0.000000
# 2 -0.005326 0.019905 -0.008932 0.000000 0.000000 0.000000
# 3 -0.003003 -0.008932 0.015100 0.000000 0.000000 0.000000
# 4 0.000000 0.000000 0.000000 0.029332 0.000000 0.000000
# 5 0.000000 0.000000 0.000000 0.000000 0.041948 0.000000
# 6 0.000000 0.000000 0.000000 0.000000 0.000000 0.051188
#
#
# Mechanical properties :
#
#
# Convention : Reuss Voigt Hill
#
# Bulk Modulus (GPa) = 62.37249 64.16931 63.27090
# Shear Modulus (GPa) = 23.48642 24.89767 24.19205
#
# Velocity S-wave (km/s) = 3.62994 3.73741 3.68407
# Velocity P-wave (km/s) = 7.24991 7.39086 7.32073
#
# Compressibility (1/GPa) = 0.01603271
#
# Stress axis : x y z
#
# Youngs Moduli (GPa) = 64.30858 50.23928 66.22423
#
# Poissons Ratio (x) = 0.26757 0.19888
# Poissons Ratio (y) = 0.34250 0.59152
# Poissons Ratio (z) = 0.19313 0.44874
#
# Static dielectric constant tensor:
#      x y z
#    x 2.992170 0.000000 0.000000 
#    y 0.000000 3.187250 0.000000 
#    z 0.000000 0.000000 3.526160 
# 
# 
# High freq. dielectric constant tensor:
#      x y z
#    x 1.664200 0.000000 0.000000 
#    y 0.000000 1.693450 0.000000 
#    z 0.000000 0.000000 1.705570 
# 
# From -- ./inp_files/45772.got.cif
#   From: 2010.03.12/outbox.cif.g09.slc.cpg/sg63_23_cif.got.tgz:45772.got - 2010.04.10 19:34:48.
