data_PCOD8256104
_publ_section_title
;
Structure prediction by ZEFSAII (Michael W. Deem and Ramdas Pophale) SiO2 
 PCOD8256104
Probable space group: C M C M
;
_chemical_formula_sum "Si O2"
_cell_formula_units_Z 80
_cell_length_a 8.486194
_cell_length_b 27.691701
_cell_length_c 18.190430
_cell_angle_alpha 90.000000
_cell_angle_beta 90.000000
_cell_angle_gamma 90.000000
_cell_volume 4274.699150
_symmetry_space_group_name_H-M "C M C M"
_symmetry_group_IT_number 63
_symmetry_cell_setting 'orthorhombic'
loop_
_space_group_symop_operation_xyz
x,y,z
-x,-y,1/2+z
x,-y,-z
-x,y,1/2-z
-x,-y,-z
x,y,1/2-z
-x,y,z
x,-y,1/2+z
1/2+x,1/2+y,z
1/2-x,1/2-y,1/2+z
1/2+x,1/2-y,-z
1/2-x,1/2+y,1/2-z
1/2-x,1/2-y,-z
1/2+x,1/2+y,1/2-z
1/2-x,1/2+y,z
1/2+x,1/2-y,1/2+z
loop_
_atom_site_type_symbol
_atom_site_label
_atom_site_fract_x
_atom_site_fract_y
_atom_site_fract_z
Si Si1 0.314668 0.687654 0.887835
Si Si2 0.317293 0.091517 0.667493
Si Si3 0.315068 0.851698 0.533321
Si Si4 0.683996 0.447594 0.024171
Si Si5 0.686766 0.790634 0.831530
O O1 0.500000 0.682190 0.874935
O O2 0.226912 0.647647 0.839249
O O3 0.250529 0.739511 0.861983
O O4 0.276518 0.680293 0.973537
O O5 0.279956 0.073652 0.750000
O O6 0.500000 0.085176 0.648106
O O7 0.217397 0.059419 0.610703
O O8 0.500000 0.843558 0.521692
O O9 0.274699 0.908074 0.524783
O O10 0.259730 0.833468 0.613695
O O11 0.500000 0.441654 0.008886
O O12 0.745518 0.500000 0.000000
O O13 0.756474 0.800619 0.750000
O O14 0.500000 0.788410 0.827651
#
# Coordination Sequence:
#
# PCOD8256104 Si02
#       5
#    16  16  16  16  16
#     4  10  18  30  51  74 101 136 169 201 239 290
#     4  10  20  33  51  78 107 130 160 205 251 294
#     4  10  19  32  52  74  99 130 165 209 251 292
#     4  10  21  37  56  75  97 128 166 207 251 302
#     4   9  18  31  47  71 102 136 171 202 238 288
#
# _framework density 18.714766999999998
#
# number of rings (size 3 to 8) (size 9 to 14) (size 15 to 20)
#    0.000    2.200    0.000    6.000    0.000    4.000 
#    0.000    4.000    0.000   10.800    0.000    0.000 
#    0.000    0.000    0.000    0.000    0.000    0.000 
#
# Total GULP energy -495995.403305 kJ/mol
# GULP energy per Si atom -12399.885083 kJ/mol
# Density = 1.867217 g / cm^3
# Si number density = 18.714767 Si / 1000 Ang^3
#
#
#
# Elastic Constant Matrix: (Units=GPa)
#
#
# Indices 1 2 3 4 5 6 
#
# 1 24.7854 5.4847 7.1597 0.0000 0.0000 0.0000
# 2 5.4847 113.2965 71.5229 0.0000 0.0000 0.0000
# 3 7.1597 71.5229 131.6108 0.0000 0.0000 0.0000
# 4 0.0000 0.0000 0.0000 20.4344 0.0000 0.0000
# 5 0.0000 0.0000 0.0000 0.0000 21.3515 0.0000
# 6 0.0000 0.0000 0.0000 0.0000 0.0000 22.5449
#
#
#
# Elastic Compliance Matrix: (Units=1/GPa)
#
#
# Indices 1 2 3 4 5 6 
#
# 1 0.041048 -0.000879 -0.001755 0.000000 0.000000 0.000000
# 2 -0.000879 0.013455 -0.007264 0.000000 0.000000 0.000000
# 3 -0.001755 -0.007264 0.011641 0.000000 0.000000 0.000000
# 4 0.000000 0.000000 0.000000 0.048937 0.000000 0.000000
# 5 0.000000 0.000000 0.000000 0.000000 0.046835 0.000000
# 6 0.000000 0.000000 0.000000 0.000000 0.000000 0.044356
#
#
# Mechanical properties :
#
#
# Convention : Reuss Voigt Hill
#
# Bulk Modulus (GPa) = 21.57634 48.66969 35.12301
# Shear Modulus (GPa) = 20.70242 25.23451 22.96846
#
# Velocity S-wave (km/s) = 3.32958 3.67601 3.50707
# Velocity P-wave (km/s) = 5.13181 6.63927 5.93361
#
# Compressibility (1/GPa) = 0.04634707
#
# Stress axis : x y z
#
# Youngs Moduli (GPa) = 24.36179 74.32376 85.90158
#
# Poissons Ratio (x) = 0.06533 0.15079
# Poissons Ratio (y) = 0.02141 0.62399
# Poissons Ratio (z) = 0.04276 0.53989
#
# Static dielectric constant tensor:
#      x y z
#    x 3.323950 0.000000 0.000000 
#    y 0.000000 3.416850 0.000000 
#    z 0.000000 0.000000 3.652420 
# 
# 
# High freq. dielectric constant tensor:
#      x y z
#    x 1.719570 0.000000 0.000000 
#    y 0.000000 1.711560 0.000000 
#    z 0.000000 0.000000 1.730460 
# 
# From -- ./inp_files/40712.got.cif
#   From: 2010.03.12/outbox.cif.g09.slc.cpg/sg63_21_cif.got.tgz:40712.got - 2010.04.10 19:34:48.
