data_PCOD8256889
_publ_section_title
;
Structure prediction by ZEFSAII (Michael W. Deem and Ramdas Pophale) SiO2 
 PCOD8256889
Probable space group: C M C M
;
_chemical_formula_sum "Si O2"
_cell_formula_units_Z 104
_cell_length_a 28.227074
_cell_length_b 28.202521
_cell_length_c 9.135502
_cell_angle_alpha 90.000000
_cell_angle_beta 90.000000
_cell_angle_gamma 90.000000
_cell_volume 7272.541532
_symmetry_space_group_name_H-M "C M C M"
_symmetry_group_IT_number 63
_symmetry_cell_setting 'orthorhombic'
loop_
_space_group_symop_operation_xyz
x,y,z
-x,-y,1/2+z
x,-y,-z
-x,y,1/2-z
-x,-y,-z
x,y,1/2-z
-x,y,z
x,-y,1/2+z
1/2+x,1/2+y,z
1/2-x,1/2-y,1/2+z
1/2+x,1/2-y,-z
1/2-x,1/2+y,1/2-z
1/2-x,1/2-y,-z
1/2+x,1/2+y,1/2-z
1/2-x,1/2+y,z
1/2+x,1/2-y,1/2+z
loop_
_atom_site_type_symbol
_atom_site_label
_atom_site_fract_x
_atom_site_fract_y
_atom_site_fract_z
Si Si1 0.079668 0.409615 0.589432
Si Si2 0.445949 0.196389 0.085800
Si Si3 0.816977 0.550158 0.078641
Si Si4 0.782645 0.642353 0.924915
Si Si5 0.640840 0.778449 0.416366
Si Si6 0.720928 0.710049 0.419736
Si Si7 0.500000 0.952161 0.083365
O O1 0.059746 0.424870 0.750000
O O2 0.081743 0.353293 0.583431
O O3 0.128779 0.435207 0.561429
O O4 0.046398 0.423390 0.456601
O O5 0.449295 0.216089 0.250000
O O6 0.500000 0.193866 0.021099
O O7 0.409827 0.228986 0.995464
O O8 0.802397 0.547314 0.250000
O O9 0.807750 0.500000 0.000000
O O10 0.787707 0.590325 0.993876
O O11 0.778420 0.639166 0.750000
O O12 0.825515 0.678000 0.973051
O O13 0.733044 0.661579 0.994010
O O14 0.628952 0.790383 0.250000
O O15 0.666380 0.727127 0.432135
O O16 0.736137 0.705600 0.250000
O O17 0.750000 0.750000 0.500000
O O18 0.500000 0.964415 0.250000
O O19 0.500000 0.000000 0.000000
#
# Coordination Sequence:
#
# PCOD8256889 Si02
#       7
#    16  16  16  16  16  16   8
#     4  10  20  35  48  59  77 102 136 178 221 264
#     4  10  19  31  46  62  82 109 141 176 217 263
#     4  11  22  34  48  63  82 111 142 179 222 265
#     4  10  19  31  47  67  88 109 138 176 215 263
#     4   9  18  30  45  65  87 108 136 174 213 257
#     4   9  17  29  45  67  89 110 135 168 213 260
#     4  12  24  34  46  58  70  94 128 176 226 268
#
# _framework density 14.300364999999999
#
# number of rings (size 3 to 8) (size 9 to 14) (size 15 to 20)
#    0.000    2.000    2.308    3.462    0.000    6.462 
#    0.000    0.000    0.000    0.000    0.000    0.000 
#    0.000    0.000    0.000    0.000    0.000    0.769 
#
# Total GULP energy -644263.795775 kJ/mol
# GULP energy per Si atom -12389.688380 kJ/mol
# Density = 1.426782 g / cm^3
# Si number density = 14.300365 Si / 1000 Ang^3
#
#
#
# Elastic Constant Matrix: (Units=GPa)
#
#
# Indices 1 2 3 4 5 6 
#
# 1 59.9290 44.2236 40.5817 0.0000 0.0000 0.0000
# 2 44.2236 71.8670 42.9621 0.0000 0.0000 0.0000
# 3 40.5817 42.9621 97.0695 0.0000 0.0000 0.0000
# 4 0.0000 0.0000 0.0000 24.1150 0.0000 0.0000
# 5 0.0000 0.0000 0.0000 0.0000 19.9340 0.0000
# 6 0.0000 0.0000 0.0000 0.0000 0.0000 -9.6021
#
#
#
# Elastic Compliance Matrix: (Units=1/GPa)
#
#
# Indices 1 2 3 4 5 6 
#
# 1 0.033430 -0.016612 -0.006624 0.000000 0.000000 0.000000
# 2 -0.016612 0.027175 -0.005083 0.000000 0.000000 0.000000
# 3 -0.006624 -0.005083 0.015321 0.000000 0.000000 0.000000
# 4 0.000000 0.000000 0.000000 0.041468 0.000000 0.000000
# 5 0.000000 0.000000 0.000000 0.000000 0.050166 0.000000
# 6 0.000000 0.000000 0.000000 0.000000 0.000000 -0.104144
#
#
# Mechanical properties :
#
#
# Convention : Reuss Voigt Hill
#
# Bulk Modulus (GPa) = 51.84166 53.82228 52.83197
# Shear Modulus (GPa) = 39.53138 13.62924 26.58031
#
# Velocity S-wave (km/s) = 5.26342 3.09053 4.31596
# Velocity P-wave (km/s) = 8.55972 7.10309 7.86520
#
# Compressibility (1/GPa) = 0.01928951
#
# Stress axis : x y z
#
# Youngs Moduli (GPa) = 29.91306 36.79849 65.27113
#
# Poissons Ratio (x) = 0.61128 0.43235
# Poissons Ratio (y) = 0.49690 0.33175
# Poissons Ratio (z) = 0.19814 0.18703
#
# Static dielectric constant tensor:
#      x y z
#    x 2.769670 0.000000 0.000000 
#    y 0.000000 2.739200 0.000000 
#    z 0.000000 0.000000 2.896800 
# 
# 
# High freq. dielectric constant tensor:
#      x y z
#    x 1.518280 0.000000 0.000000 
#    y 0.000000 1.514520 0.000000 
#    z 0.000000 0.000000 1.562290 
# 
# From -- ./inp_files/11110.got.cif
#   From: 2010.03.12/outbox.cif.g09.slc.cpg/sg63_6_cif.got.tgz:11110.got - 2010.04.10 19:34:48.
