data_PCOD8256118
_publ_section_title
;
Structure prediction by ZEFSAII (Michael W. Deem and Ramdas Pophale) SiO2 
 PCOD8256118
Probable space group: C M C M
;
_chemical_formula_sum "Si O2"
_cell_formula_units_Z 64
_cell_length_a 21.091764
_cell_length_b 18.677480
_cell_length_c 8.715018
_cell_angle_alpha 90.000000
_cell_angle_beta 90.000000
_cell_angle_gamma 90.000000
_cell_volume 3433.202908
_symmetry_space_group_name_H-M "C M C M"
_symmetry_group_IT_number 63
_symmetry_cell_setting 'orthorhombic'
loop_
_space_group_symop_operation_xyz
x,y,z
-x,-y,1/2+z
x,-y,-z
-x,y,1/2-z
-x,-y,-z
x,y,1/2-z
-x,y,z
x,-y,1/2+z
1/2+x,1/2+y,z
1/2-x,1/2-y,1/2+z
1/2+x,1/2-y,-z
1/2-x,1/2+y,1/2-z
1/2-x,1/2-y,-z
1/2+x,1/2+y,1/2-z
1/2-x,1/2+y,z
1/2+x,1/2-y,1/2+z
loop_
_atom_site_type_symbol
_atom_site_label
_atom_site_fract_x
_atom_site_fract_y
_atom_site_fract_z
Si Si1 0.000000 0.420789 0.932864
Si Si2 0.000000 0.076976 0.929205
Si Si3 0.136414 0.078396 0.568632
Si Si4 0.128338 0.578655 0.932053
Si Si5 0.248456 0.328044 0.431162
O O1 0.000000 0.419820 0.750000
O O2 0.000000 0.500000 0.000000
O O3 0.935534 0.384962 0.997422
O O4 0.932810 0.113563 0.976959
O O5 0.000000 0.065994 0.750000
O O6 0.000000 0.000000 0.000000
O O7 0.143641 0.070961 0.750000
O O8 0.190673 0.129810 0.502237
O O9 0.145176 0.000000 0.500000
O O10 0.121644 0.571992 0.750000
O O11 0.185514 0.629968 0.982611
O O12 0.140911 0.500000 0.000000
O O13 0.251907 0.321756 0.250000
O O14 0.250000 0.250000 0.500000
#
# Coordination Sequence:
#
# PCOD8256118 Si02
#       5
#     8   8  16  16  16
#     4  10  18  30  51  78 103 129 161 205 255 306
#     4   8  14  26  47  72  99 123 151 195 241 284
#     4   9  17  31  51  76 100 127 162 201 244 291
#     4  10  19  33  53  77 102 131 167 211 257 304
#     4  10  22  36  50  70 101 137 172 209 250 294
#
# _framework density 18.641484999999999
#
# number of rings (size 3 to 8) (size 9 to 14) (size 15 to 20)
#    0.000    2.500    0.000    4.125    0.000    3.000 
#    0.000    1.250    0.000    1.500    0.000    0.000 
#    0.000    0.000    0.000    0.000    0.000    0.000 
#
# Total GULP energy -396483.727906 kJ/mol
# GULP energy per Si atom -12390.116497 kJ/mol
# Density = 1.859906 g / cm^3
# Si number density = 18.641485 Si / 1000 Ang^3
#
#
#
# Elastic Constant Matrix: (Units=GPa)
#
#
# Indices 1 2 3 4 5 6 
#
# 1 234.0074 89.7698 52.1214 0.0000 0.0000 0.0000
# 2 89.7698 99.9183 27.6496 0.0000 0.0000 0.0000
# 3 52.1214 27.6496 54.1031 0.0000 0.0000 0.0000
# 4 0.0000 0.0000 0.0000 26.3854 0.0000 0.0000
# 5 0.0000 0.0000 0.0000 0.0000 22.7006 0.0000
# 6 0.0000 0.0000 0.0000 0.0000 0.0000 6.4960
#
#
#
# Elastic Compliance Matrix: (Units=1/GPa)
#
#
# Indices 1 2 3 4 5 6 
#
# 1 0.007282 -0.005359 -0.004276 0.000000 0.000000 0.000000
# 2 -0.005359 0.015600 -0.002810 0.000000 0.000000 0.000000
# 3 -0.004276 -0.002810 0.024039 0.000000 0.000000 0.000000
# 4 0.000000 0.000000 0.000000 0.037900 0.000000 0.000000
# 5 0.000000 0.000000 0.000000 0.000000 0.044052 0.000000
# 6 0.000000 0.000000 0.000000 0.000000 0.000000 0.153941
#
#
# Mechanical properties :
#
#
# Convention : Reuss Voigt Hill
#
# Bulk Modulus (GPa) = 45.39149 80.79006 63.09077
# Shear Modulus (GPa) = 15.87063 25.68225 20.77644
#
# Velocity S-wave (km/s) = 2.92097 3.71576 3.34208
# Velocity P-wave (km/s) = 5.98153 7.86397 6.98644
#
# Compressibility (1/GPa) = 0.02203056
#
# Stress axis : x y z
#
# Youngs Moduli (GPa) = 137.33434 64.10191 41.59905
#
# Poissons Ratio (x) = 0.34350 0.17789
# Poissons Ratio (y) = 0.73592 0.11690
# Poissons Ratio (z) = 0.58728 0.18014
#
# Static dielectric constant tensor:
#      x y z
#    x 4.602390 0.000000 0.000000 
#    y 0.000000 3.075100 0.000000 
#    z 0.000000 0.000000 3.359510 
# 
# 
# High freq. dielectric constant tensor:
#      x y z
#    x 1.759640 0.000000 0.000000 
#    y 0.000000 1.677580 0.000000 
#    z 0.000000 0.000000 1.721860 
# 
# From -- ./inp_files/7533.got.cif
#   From: 2010.03.12/outbox.cif.g09.slc.cpg/sg63_4_cif.got.tgz:7533.got - 2010.04.10 19:34:48.
