data_PCOD8256718
_publ_section_title
;
Structure prediction by ZEFSAII (Michael W. Deem and Ramdas Pophale) SiO2 
 PCOD8256718
Probable space group: C M C M
;
_chemical_formula_sum "Si O2"
_cell_formula_units_Z 104
_cell_length_a 24.536722
_cell_length_b 32.837637
_cell_length_c 8.926612
_cell_angle_alpha 90.000000
_cell_angle_beta 90.000000
_cell_angle_gamma 90.000000
_cell_volume 7192.420968
_symmetry_space_group_name_H-M "C M C M"
_symmetry_group_IT_number 63
_symmetry_cell_setting 'orthorhombic'
loop_
_space_group_symop_operation_xyz
x,y,z
-x,-y,1/2+z
x,-y,-z
-x,y,1/2-z
-x,-y,-z
x,y,1/2-z
-x,y,z
x,-y,1/2+z
1/2+x,1/2+y,z
1/2-x,1/2-y,1/2+z
1/2+x,1/2-y,-z
1/2-x,1/2+y,1/2-z
1/2-x,1/2-y,-z
1/2+x,1/2+y,1/2-z
1/2-x,1/2+y,z
1/2+x,1/2-y,1/2+z
loop_
_atom_site_type_symbol
_atom_site_label
_atom_site_fract_x
_atom_site_fract_y
_atom_site_fract_z
Si Si1 0.058895 0.336494 0.073345
Si Si2 0.730884 0.186383 0.424131
Si Si3 0.000000 0.457341 0.576772
Si Si4 0.059420 0.748005 0.079486
Si Si5 0.119004 0.455790 0.927142
Si Si6 0.835643 0.618515 0.571773
Si Si7 0.824654 0.770663 0.077842
O O1 0.061676 0.339290 0.250000
O O2 0.108929 0.361527 0.006297
O O3 0.000000 0.353610 0.015578
O O4 0.064430 0.289706 0.030068
O O5 0.730504 0.175782 0.250000
O O6 0.714196 0.145948 0.514363
O O7 0.792061 0.198146 0.473531
O O8 0.690624 0.223905 0.463087
O O9 0.000000 0.500000 0.500000
O O10 0.058243 0.436503 0.534528
O O11 0.000000 0.466963 0.750000
O O12 0.064381 0.731899 0.250000
O O13 0.110672 0.777803 0.047257
O O14 0.000000 0.769764 0.055813
O O15 0.128688 0.459096 0.750000
O O16 0.125891 0.500000 0.000000
O O17 0.164866 0.426556 0.000111
O O18 0.832951 0.615401 0.750000
O O19 0.808922 0.779340 0.250000
#
# Coordination Sequence:
#
# PCOD8256718 Si02
#       7
#    16  16   8  16  16  16  16
#     4   9  18  29  39  55  79 105 133 168 210 252
#     4  10  19  30  44  61  80 107 140 173 208 247
#     4   8  16  30  46  62  78 100 130 166 208 256
#     4   9  16  27  43  61  81 106 136 170 208 250
#     4  10  20  34  48  62  80 103 133 169 211 257
#     4  11  21  31  45  62  82 105 135 173 214 256
#     4   9  17  29  43  60  83 108 136 170 209 248
#
# _framework density 14.459664
#
# number of rings (size 3 to 8) (size 9 to 14) (size 15 to 20)
#    0.000    2.462    1.538    1.385    1.077    2.462 
#    0.000    0.000    0.000    0.000    0.000    0.000 
#    0.000    0.000    0.000    0.000    0.000    0.769 
#
# Total GULP energy -644312.551336 kJ/mol
# GULP energy per Si atom -12390.625987 kJ/mol
# Density = 1.442675 g / cm^3
# Si number density = 14.459664 Si / 1000 Ang^3
#
#
#
# Elastic Constant Matrix: (Units=GPa)
#
#
# Indices 1 2 3 4 5 6 
#
# 1 85.7760 35.0636 24.9012 0.0000 0.0000 0.0000
# 2 35.0636 61.8598 28.0990 0.0000 0.0000 0.0000
# 3 24.9012 28.0990 44.9321 0.0000 0.0000 0.0000
# 4 0.0000 0.0000 0.0000 20.7454 0.0000 0.0000
# 5 0.0000 0.0000 0.0000 0.0000 18.4742 0.0000
# 6 0.0000 0.0000 0.0000 0.0000 0.0000 20.6257
#
#
#
# Elastic Compliance Matrix: (Units=1/GPa)
#
#
# Indices 1 2 3 4 5 6 
#
# 1 0.015773 -0.006942 -0.004400 0.000000 0.000000 0.000000
# 2 -0.006942 0.025635 -0.012184 0.000000 0.000000 0.000000
# 3 -0.004400 -0.012184 0.032314 0.000000 0.000000 0.000000
# 4 0.000000 0.000000 0.000000 0.048203 0.000000 0.000000
# 5 0.000000 0.000000 0.000000 0.000000 0.054129 0.000000
# 6 0.000000 0.000000 0.000000 0.000000 0.000000 0.048483
#
#
# Mechanical properties :
#
#
# Convention : Reuss Voigt Hill
#
# Bulk Modulus (GPa) = 37.49573 40.96616 39.23094
# Shear Modulus (GPa) = 17.82656 18.93602 18.38129
#
# Velocity S-wave (km/s) = 3.51500 3.62273 3.56927
# Velocity P-wave (km/s) = 6.51623 6.77435 6.64654
#
# Compressibility (1/GPa) = 0.02666971
#
# Stress axis : x y z
#
# Youngs Moduli (GPa) = 63.39760 39.00944 30.94653
#
# Poissons Ratio (x) = 0.27080 0.13617
# Poissons Ratio (y) = 0.44011 0.37705
# Poissons Ratio (z) = 0.27897 0.47529
#
# Static dielectric constant tensor:
#      x y z
#    x 2.946700 0.000000 0.000000 
#    y 0.000000 2.484970 0.000000 
#    z 0.000000 0.000000 2.749020 
# 
# 
# High freq. dielectric constant tensor:
#      x y z
#    x 1.536030 0.000000 0.000000 
#    y 0.000000 1.506810 0.000000 
#    z 0.000000 0.000000 1.563420 
# 
# From -- ./inp_files/13303.got.cif
#   From: 2010.03.12/outbox.cif.g09.slc.cpg/sg63_7_cif.got.tgz:13303.got - 2010.04.10 19:34:48.
