data_PCOD8256509
_publ_section_title
;
Structure prediction by ZEFSAII (Michael W. Deem and Ramdas Pophale) SiO2 
 PCOD8256509
Probable space group: C M C M
;
_chemical_formula_sum "Si O2"
_cell_formula_units_Z 88
_cell_length_a 27.411049
_cell_length_b 19.596063
_cell_length_c 9.205383
_cell_angle_alpha 90.000000
_cell_angle_beta 90.000000
_cell_angle_gamma 90.000000
_cell_volume 4944.658988
_symmetry_space_group_name_H-M "C M C M"
_symmetry_group_IT_number 63
_symmetry_cell_setting 'orthorhombic'
loop_
_space_group_symop_operation_xyz
x,y,z
-x,-y,1/2+z
x,-y,-z
-x,y,1/2-z
-x,-y,-z
x,y,1/2-z
-x,y,z
x,-y,1/2+z
1/2+x,1/2+y,z
1/2-x,1/2-y,1/2+z
1/2+x,1/2-y,-z
1/2-x,1/2+y,1/2-z
1/2-x,1/2-y,-z
1/2+x,1/2+y,1/2-z
1/2-x,1/2+y,z
1/2+x,1/2-y,1/2+z
loop_
_atom_site_type_symbol
_atom_site_label
_atom_site_fract_x
_atom_site_fract_y
_atom_site_fract_z
Si Si1 0.411525 0.331224 0.078233
Si Si2 0.000000 0.928168 0.421159
Si Si3 0.554212 0.816416 0.922672
Si Si4 0.128010 0.430127 0.582175
Si Si5 0.709613 0.829305 0.916153
Si Si6 0.818155 0.803382 0.919532
O O1 0.403295 0.332183 0.250000
O O2 0.451798 0.386615 0.031529
O O3 0.428907 0.257432 0.020912
O O4 0.360175 0.347209 0.999204
O O5 0.000000 0.940317 0.250000
O O6 0.000000 0.000000 0.500000
O O7 0.555175 0.814614 0.750000
O O8 0.500000 0.831717 0.981208
O O9 0.589703 0.875271 0.981816
O O10 0.121224 0.500000 0.500000
O O11 0.117307 0.444158 0.750000
O O12 0.182504 0.401025 0.557618
O O13 0.701972 0.804407 0.750000
O O14 0.766596 0.840783 0.950394
O O15 0.684955 0.773008 0.018145
O O16 0.830108 0.799312 0.750000
#
# Coordination Sequence:
#
# PCOD8256509 Si02
#       6
#    16   8  16  16  16  16
#     4  10  18  34  58  81 105 140 181 214 260 325
#     4  10  22  38  60  84 109 144 180 217 268 333
#     4   9  16  30  54  78  99 133 182 220 252 306
#     4  10  20  34  52  73 104 143 178 219 264 310
#     4   9  18  34  52  73 104 143 179 214 264 324
#     4  10  19  30  52  83 108 131 171 228 273 306
#
# _framework density 17.796980000000001
#
# number of rings (size 3 to 8) (size 9 to 14) (size 15 to 20)
#    0.000    2.364    2.727    0.545    0.000    2.545 
#    0.000    0.909    0.000    5.455    0.000    0.000 
#    0.000    0.000    0.000    0.000    0.000    0.000 
#
# Total GULP energy -545563.359168 kJ/mol
# GULP energy per Si atom -12399.167254 kJ/mol
# Density = 1.775647 g / cm^3
# Si number density = 17.796980 Si / 1000 Ang^3
#
#
#
# Elastic Constant Matrix: (Units=GPa)
#
#
# Indices 1 2 3 4 5 6 
#
# 1 153.4127 70.9519 48.3908 0.0000 0.0000 0.0000
# 2 70.9519 129.9509 40.8284 0.0000 0.0000 0.0000
# 3 48.3908 40.8284 51.5171 0.0000 0.0000 0.0000
# 4 0.0000 0.0000 0.0000 29.5888 0.0000 0.0000
# 5 0.0000 0.0000 0.0000 0.0000 27.8641 0.0000
# 6 0.0000 0.0000 0.0000 0.0000 0.0000 25.4393
#
#
#
# Elastic Compliance Matrix: (Units=1/GPa)
#
#
# Indices 1 2 3 4 5 6 
#
# 1 0.010302 -0.003441 -0.006949 0.000000 0.000000 0.000000
# 2 -0.003441 0.011396 -0.005799 0.000000 0.000000 0.000000
# 3 -0.006949 -0.005799 0.030535 0.000000 0.000000 0.000000
# 4 0.000000 0.000000 0.000000 0.033797 0.000000 0.000000
# 5 0.000000 0.000000 0.000000 0.000000 0.035888 0.000000
# 6 0.000000 0.000000 0.000000 0.000000 0.000000 0.039309
#
#
# Mechanical properties :
#
#
# Convention : Reuss Voigt Hill
#
# Bulk Modulus (GPa) = 50.37048 72.80254 61.58651
# Shear Modulus (GPa) = 24.97190 28.22574 26.59882
#
# Velocity S-wave (km/s) = 3.74993 3.98676 3.87016
# Velocity P-wave (km/s) = 6.86393 7.88596 7.39263
#
# Compressibility (1/GPa) = 0.01985290
#
# Stress axis : x y z
#
# Youngs Moduli (GPa) = 97.06809 87.74868 32.74957
#
# Poissons Ratio (x) = 0.30198 0.22759
# Poissons Ratio (y) = 0.33405 0.18992
# Poissons Ratio (z) = 0.67457 0.50887
#
# Static dielectric constant tensor:
#      x y z
#    x 3.666020 0.000000 0.000000 
#    y 0.000000 3.063530 0.000000 
#    z 0.000000 0.000000 3.081200 
# 
# 
# High freq. dielectric constant tensor:
#      x y z
#    x 1.707870 0.000000 0.000000 
#    y 0.000000 1.663280 0.000000 
#    z 0.000000 0.000000 1.666500 
# 
# From -- ./inp_files/14245.got.cif
#   From: 2010.03.12/outbox.cif.g09.slc.cpg/sg63_8_cif.got.tgz:14245.got - 2010.04.10 19:34:48.
