data_PCOD8256044
_publ_section_title
;
Structure prediction by ZEFSAII (Michael W. Deem and Ramdas Pophale) SiO2 
 PCOD8256044
Probable space group: C M C M
;
_chemical_formula_sum "Si O2"
_cell_formula_units_Z 72
_cell_length_a 15.651691
_cell_length_b 28.540094
_cell_length_c 8.826816
_cell_angle_alpha 90.000000
_cell_angle_beta 90.000000
_cell_angle_gamma 90.000000
_cell_volume 3942.945172
_symmetry_space_group_name_H-M "C M C M"
_symmetry_group_IT_number 63
_symmetry_cell_setting 'orthorhombic'
loop_
_space_group_symop_operation_xyz
x,y,z
-x,-y,1/2+z
x,-y,-z
-x,y,1/2-z
-x,-y,-z
x,y,1/2-z
-x,y,z
x,-y,1/2+z
1/2+x,1/2+y,z
1/2-x,1/2-y,1/2+z
1/2+x,1/2-y,-z
1/2-x,1/2+y,1/2-z
1/2-x,1/2-y,-z
1/2+x,1/2+y,1/2-z
1/2-x,1/2+y,z
1/2+x,1/2-y,1/2+z
loop_
_atom_site_type_symbol
_atom_site_label
_atom_site_fract_x
_atom_site_fract_y
_atom_site_fract_z
Si Si1 0.670421 0.613948 0.427068
Si Si2 0.673528 0.721259 0.070964
Si Si3 0.000000 0.777580 0.077917
Si Si4 0.000000 0.551705 0.568816
Si Si5 0.500000 0.611033 0.919795
Si Si6 0.170680 0.550960 0.069855
O O1 0.655486 0.611496 0.250000
O O2 0.685817 0.667335 0.478858
O O3 0.585609 0.591840 0.501441
O O4 0.751039 0.583608 0.478708
O O5 0.673677 0.727386 0.250000
O O6 0.750000 0.750000 0.000000
O O7 0.584303 0.741498 0.006399
O O8 0.000000 0.759144 0.250000
O O9 0.000000 0.833257 0.069792
O O10 0.000000 0.500000 0.500000
O O11 0.913748 0.575402 0.503524
O O12 0.000000 0.551595 0.750000
O O13 0.500000 0.592173 0.750000
O O14 0.159714 0.546992 0.250000
O O15 0.187079 0.500000 0.000000
#
# Coordination Sequence:
#
# PCOD8256044 Si02
#       6
#    16  16   8   8   8  16
#     4   9  19  34  52  72  99 132 164 197 242 294
#     4  10  19  33  52  75 100 130 165 203 244 291
#     4   9  17  31  50  73  98 129 165 202 243 292
#     4  10  18  30  49  72  97 128 162 199 239 288
#     4   9  17  29  50  75  98 125 163 205 241 282
#     4  10  19  33  52  74  98 128 163 201 241 287
#
# _framework density 18.260462
#
# number of rings (size 3 to 8) (size 9 to 14) (size 15 to 20)
#    0.000    2.444    0.000    4.333    0.000    5.333 
#    0.000    1.667    0.000    2.667    0.000    0.000 
#    0.000    0.000    0.000    0.000    0.000    0.000 
#
# Total GULP energy -446337.770149 kJ/mol
# GULP energy per Si atom -12398.271393 kJ/mol
# Density = 1.821890 g / cm^3
# Si number density = 18.260462 Si / 1000 Ang^3
#
#
#
# Elastic Constant Matrix: (Units=GPa)
#
#
# Indices 1 2 3 4 5 6 
#
# 1 220.5253 63.2254 82.8948 0.0000 0.0000 0.0000
# 2 63.2254 47.9993 33.3595 0.0000 0.0000 0.0000
# 3 82.8948 33.3595 99.6769 0.0000 0.0000 0.0000
# 4 0.0000 0.0000 0.0000 21.2469 0.0000 0.0000
# 5 0.0000 0.0000 0.0000 0.0000 40.6184 0.0000
# 6 0.0000 0.0000 0.0000 0.0000 0.0000 32.0583
#
#
#
# Elastic Compliance Matrix: (Units=1/GPa)
#
#
# Indices 1 2 3 4 5 6 
#
# 1 0.008517 -0.008205 -0.004337 0.000000 0.000000 0.000000
# 2 -0.008205 0.035052 -0.004908 0.000000 0.000000 0.000000
# 3 -0.004337 -0.004908 0.015282 0.000000 0.000000 0.000000
# 4 0.000000 0.000000 0.000000 0.047066 0.000000 0.000000
# 5 0.000000 0.000000 0.000000 0.000000 0.024619 0.000000
# 6 0.000000 0.000000 0.000000 0.000000 0.000000 0.031193
#
#
# Mechanical properties :
#
#
# Convention : Reuss Voigt Hill
#
# Bulk Modulus (GPa) = 41.75079 80.79566 61.27323
# Shear Modulus (GPa) = 24.43636 31.36616 27.90126
#
# Velocity S-wave (km/s) = 3.66213 4.14902 3.91315
# Velocity P-wave (km/s) = 6.38711 8.20334 7.35153
#
# Compressibility (1/GPa) = 0.02395164
#
# Stress axis : x y z
#
# Youngs Moduli (GPa) = 117.40708 28.52914 65.43620
#
# Poissons Ratio (x) = 0.23407 0.28382
# Poissons Ratio (y) = 0.96329 0.32114
# Poissons Ratio (z) = 0.50924 0.14001
#
# Static dielectric constant tensor:
#      x y z
#    x 3.963200 0.000000 0.000000 
#    y 0.000000 3.035430 0.000000 
#    z 0.000000 0.000000 3.454470 
# 
# 
# High freq. dielectric constant tensor:
#      x y z
#    x 1.731960 0.000000 0.000000 
#    y 0.000000 1.658500 0.000000 
#    z 0.000000 0.000000 1.720820 
# 
# From -- ./inp_files/4992.got.cif
#   From: 2010.03.12/outbox.cif.g09.slc.cpg/sg63_3_cif.got.tgz:4992.got - 2010.04.10 19:34:48.
