data_PCOD8256429
_publ_section_title
;
Structure prediction by ZEFSAII (Michael W. Deem and Ramdas Pophale) SiO2 
 PCOD8256429
Probable space group: C M C M
;
_chemical_formula_sum "Si O2"
_cell_formula_units_Z 96
_cell_length_a 19.638512
_cell_length_b 14.332407
_cell_length_c 16.971979
_cell_angle_alpha 90.000000
_cell_angle_beta 90.000000
_cell_angle_gamma 90.000000
_cell_volume 4777.054506
_symmetry_space_group_name_H-M "C M C M"
_symmetry_group_IT_number 63
_symmetry_cell_setting 'orthorhombic'
loop_
_space_group_symop_operation_xyz
x,y,z
-x,-y,1/2+z
x,-y,-z
-x,y,1/2-z
-x,-y,-z
x,y,1/2-z
-x,y,z
x,-y,1/2+z
1/2+x,1/2+y,z
1/2-x,1/2-y,1/2+z
1/2+x,1/2-y,-z
1/2-x,1/2+y,1/2-z
1/2-x,1/2-y,-z
1/2+x,1/2+y,1/2-z
1/2-x,1/2+y,z
1/2+x,1/2-y,1/2+z
loop_
_atom_site_type_symbol
_atom_site_label
_atom_site_fract_x
_atom_site_fract_y
_atom_site_fract_z
Si Si1 0.322595 0.845458 0.339802
Si Si2 0.132483 0.002507 0.159733
Si Si3 0.711055 0.765470 0.584173
Si Si4 0.773908 0.519750 0.410974
Si Si5 0.577804 0.304299 0.341151
Si Si6 0.074842 0.197141 0.155889
O O1 0.341539 0.843683 0.250000
O O2 0.248001 0.801892 0.353716
O O3 0.377261 0.777287 0.382281
O O4 0.327804 0.953010 0.366320
O O5 0.155690 0.017125 0.250000
O O6 0.199065 0.982697 0.108496
O O7 0.097480 0.095508 0.125639
O O8 0.081133 0.916400 0.151161
O O9 0.750000 0.750000 0.500000
O O10 0.717737 0.872524 0.611281
O O11 0.630572 0.740916 0.594775
O O12 0.790567 0.500000 0.500000
O O13 0.594932 0.275386 0.250000
O O14 0.500000 0.274219 0.361963
O O15 0.076373 0.197149 0.250000
O O16 0.000000 0.217787 0.123262
#
# Coordination Sequence:
#
# PCOD8256429 Si02
#       6
#    16  16  16  16  16  16
#     4  11  22  37  60  89 118 156 207 256 307 370
#     4  10  18  32  59  90 120 154 199 252 310 376
#     4  12  23  40  64  87 126 169 210 257 314 379
#     4  12  23  37  60  86 124 158 206 258 314 370
#     4  10  21  38  62  94 130 164 205 263 325 384
#     4   9  18  33  55  84 117 152 193 246 305 362
#
# _framework density 20.096064999999999
#
# number of rings (size 3 to 8) (size 9 to 14) (size 15 to 20)
#    0.000    1.333    5.000    1.500    0.000    4.000 
#    0.000    1.667    0.000    5.000    0.000    0.000 
#    0.000    0.000    0.000    0.000    0.000    0.000 
#
# Total GULP energy -594858.719098 kJ/mol
# GULP energy per Si atom -12392.889981 kJ/mol
# Density = 2.005033 g / cm^3
# Si number density = 20.096065 Si / 1000 Ang^3
#
#
#
# Elastic Constant Matrix: (Units=GPa)
#
#
# Indices 1 2 3 4 5 6 
#
# 1 126.9367 35.9362 31.8347 0.0000 0.0000 0.0000
# 2 35.9362 124.6967 24.0703 0.0000 0.0000 0.0000
# 3 31.8347 24.0703 51.0941 0.0000 0.0000 0.0000
# 4 0.0000 0.0000 0.0000 26.5448 0.0000 0.0000
# 5 0.0000 0.0000 0.0000 0.0000 22.4140 0.0000
# 6 0.0000 0.0000 0.0000 0.0000 0.0000 31.8199
#
#
#
# Elastic Compliance Matrix: (Units=1/GPa)
#
#
# Indices 1 2 3 4 5 6 
#
# 1 0.009687 -0.001789 -0.005192 0.000000 0.000000 0.000000
# 2 -0.001789 0.009152 -0.003197 0.000000 0.000000 0.000000
# 3 -0.005192 -0.003197 0.024313 0.000000 0.000000 0.000000
# 4 0.000000 0.000000 0.000000 0.037672 0.000000 0.000000
# 5 0.000000 0.000000 0.000000 0.000000 0.044615 0.000000
# 6 0.000000 0.000000 0.000000 0.000000 0.000000 0.031427
#
#
# Mechanical properties :
#
#
# Convention : Reuss Voigt Hill
#
# Bulk Modulus (GPa) = 43.86963 54.04554 48.95758
# Shear Modulus (GPa) = 27.05318 30.21482 28.63400
#
# Velocity S-wave (km/s) = 3.67303 3.88173 3.77882
# Velocity P-wave (km/s) = 6.31392 6.85875 6.59196
#
# Compressibility (1/GPa) = 0.02279481
#
# Stress axis : x y z
#
# Youngs Moduli (GPa) = 103.23407 109.26358 41.13042
#
# Poissons Ratio (x) = 0.19550 0.21357
# Poissons Ratio (y) = 0.18472 0.13148
# Poissons Ratio (z) = 0.53604 0.34929
#
# Static dielectric constant tensor:
#      x y z
#    x 3.680030 0.000000 0.000000 
#    y 0.000000 2.566290 0.000000 
#    z 0.000000 0.000000 3.443630 
# 
# 
# High freq. dielectric constant tensor:
#      x y z
#    x 1.771480 0.000000 0.000000 
#    y 0.000000 1.791710 0.000000 
#    z 0.000000 0.000000 1.760340 
# 
# From -- ./inp_files/35345.got.cif
#   From: 2010.03.12/outbox.cif.g09.slc.cpg/sg63_18_cif.got.tgz:35345.got - 2010.04.10 19:34:48.
