data_PCOD8256154
_publ_section_title
;
Structure prediction by ZEFSAII (Michael W. Deem and Ramdas Pophale) SiO2 
 PCOD8256154
Probable space group: C M C M
;
_chemical_formula_sum "Si O2"
_cell_formula_units_Z 96
_cell_length_a 27.868203
_cell_length_b 28.529507
_cell_length_c 9.076124
_cell_angle_alpha 90.000000
_cell_angle_beta 90.000000
_cell_angle_gamma 90.000000
_cell_volume 7216.118444
_symmetry_space_group_name_H-M "C M C M"
_symmetry_group_IT_number 63
_symmetry_cell_setting 'orthorhombic'
loop_
_space_group_symop_operation_xyz
x,y,z
-x,-y,1/2+z
x,-y,-z
-x,y,1/2-z
-x,-y,-z
x,y,1/2-z
-x,y,z
x,-y,1/2+z
1/2+x,1/2+y,z
1/2-x,1/2-y,1/2+z
1/2+x,1/2-y,-z
1/2-x,1/2+y,1/2-z
1/2-x,1/2-y,-z
1/2+x,1/2+y,1/2-z
1/2-x,1/2+y,z
1/2+x,1/2-y,1/2+z
loop_
_atom_site_type_symbol
_atom_site_label
_atom_site_fract_x
_atom_site_fract_y
_atom_site_fract_z
Si Si1 0.000000 0.308697 0.579704
Si Si2 0.000000 0.406764 0.426397
Si Si3 0.092017 0.548237 0.423853
Si Si4 0.660782 0.867661 0.581031
Si Si5 0.102889 0.276622 0.919281
Si Si6 0.740861 0.821408 0.416192
Si Si7 0.319555 0.726537 0.416135
O O1 0.046144 0.276324 0.548381
O O2 0.000000 0.326795 0.750000
O O3 0.000000 0.352606 0.471281
O O4 0.954165 0.432167 0.493624
O O5 0.000000 0.411356 0.250000
O O6 0.107149 0.500000 0.500000
O O7 0.080965 0.542362 0.250000
O O8 0.136925 0.582428 0.450037
O O9 0.675598 0.861587 0.750000
O O10 0.622456 0.827854 0.535617
O O11 0.709655 0.863056 0.487823
O O12 0.114396 0.265970 0.750000
O O13 0.128354 0.235676 0.012396
O O14 0.752684 0.835547 0.250000
O O15 0.710686 0.773940 0.426428
O O16 0.791337 0.814778 0.499866
O O17 0.327322 0.709888 0.250000
#
# Coordination Sequence:
#
# PCOD8256154 Si02
#       7
#     8   8  16  16  16  16  16
#     4  10  18  31  45  58  76 102 129 160 197 237
#     4  12  23  33  46  60  73  94 126 164 202 243
#     4  11  22  36  48  59  75  96 124 160 202 244
#     4   9  17  29  44  57  73  95 118 149 191 235
#     4   9  16  27  42  56  73  97 124 152 189 228
#     4   9  16  25  39  57  76  94 117 145 178 222
#     4   9  16  25  37  55  77  97 118 145 180 219
#
# _framework density 13.303551000000001
#
# number of rings (size 3 to 8) (size 9 to 14) (size 15 to 20)
#    0.000    2.333    1.667    2.500    0.000    6.000 
#    0.000    0.000    0.000    0.000    0.000    0.000 
#    0.000    0.000    0.000    0.000    0.000    0.000 
#
# Total GULP energy -595164.776483 kJ/mol
# GULP energy per Si atom -12399.266177 kJ/mol
# Density = 1.327327 g / cm^3
# Si number density = 13.303551 Si / 1000 Ang^3
#
#
#
# Elastic Constant Matrix: (Units=GPa)
#
#
# Indices 1 2 3 4 5 6 
#
# 1 91.6554 45.2343 58.0606 0.0000 0.0000 0.0000
# 2 45.2343 39.0848 40.0611 0.0000 0.0000 0.0000
# 3 58.0606 40.0611 104.5870 0.0000 0.0000 0.0000
# 4 0.0000 0.0000 0.0000 18.6749 0.0000 0.0000
# 5 0.0000 0.0000 0.0000 0.0000 22.4338 0.0000
# 6 0.0000 0.0000 0.0000 0.0000 0.0000 50.9604
#
#
#
# Elastic Compliance Matrix: (Units=1/GPa)
#
#
# Indices 1 2 3 4 5 6 
#
# 1 0.026917 -0.026073 -0.004956 0.000000 0.000000 0.000000
# 2 -0.026073 0.067378 -0.011334 0.000000 0.000000 0.000000
# 3 -0.004956 -0.011334 0.016654 0.000000 0.000000 0.000000
# 4 0.000000 0.000000 0.000000 0.053548 0.000000 0.000000
# 5 0.000000 0.000000 0.000000 0.000000 0.044576 0.000000
# 6 0.000000 0.000000 0.000000 0.000000 0.000000 0.019623
#
#
# Mechanical properties :
#
#
# Convention : Reuss Voigt Hill
#
# Bulk Modulus (GPa) = 38.13423 58.00435 48.06929
# Shear Modulus (GPa) = 15.52008 24.54525 20.03267
#
# Velocity S-wave (km/s) = 3.41928 4.30002 3.88469
# Velocity P-wave (km/s) = 6.65699 8.26734 7.50548
#
# Compressibility (1/GPa) = 0.02622316
#
# Stress axis : x y z
#
# Youngs Moduli (GPa) = 37.15059 14.84169 60.04451
#
# Poissons Ratio (x) = 0.38696 0.29759
# Poissons Ratio (y) = 0.96861 0.68057
# Poissons Ratio (z) = 0.18412 0.16822
#
# Static dielectric constant tensor:
#      x y z
#    x 2.626640 0.000000 0.000000 
#    y 0.000000 2.363660 0.000000 
#    z 0.000000 0.000000 2.804320 
# 
# 
# High freq. dielectric constant tensor:
#      x y z
#    x 1.495000 0.000000 0.000000 
#    y 0.000000 1.452850 0.000000 
#    z 0.000000 0.000000 1.521290 
# 
# From -- ./inp_files/14961.got.cif
#   From: 2010.03.12/outbox.cif.g09.slc.cpg/sg63_8_cif.got.tgz:14961.got - 2010.04.10 19:34:48.
