data_PCOD8256967
_publ_section_title
;
Structure prediction by ZEFSAII (Michael W. Deem and Ramdas Pophale) SiO2 
 PCOD8256967
Probable space group: C M C M
;
_chemical_formula_sum "Si O2"
_cell_formula_units_Z 128
_cell_length_a 20.275485
_cell_length_b 19.641221
_cell_length_c 18.862886
_cell_angle_alpha 90.000000
_cell_angle_beta 90.000000
_cell_angle_gamma 90.000000
_cell_volume 7511.866721
_symmetry_space_group_name_H-M "C M C M"
_symmetry_group_IT_number 63
_symmetry_cell_setting 'orthorhombic'
loop_
_space_group_symop_operation_xyz
x,y,z
-x,-y,1/2+z
x,-y,-z
-x,y,1/2-z
-x,-y,-z
x,y,1/2-z
-x,y,z
x,-y,1/2+z
1/2+x,1/2+y,z
1/2-x,1/2-y,1/2+z
1/2+x,1/2-y,-z
1/2-x,1/2+y,1/2-z
1/2-x,1/2-y,-z
1/2+x,1/2+y,1/2-z
1/2-x,1/2+y,z
1/2+x,1/2-y,1/2+z
loop_
_atom_site_type_symbol
_atom_site_label
_atom_site_fract_x
_atom_site_fract_y
_atom_site_fract_z
Si Si1 0.423752 0.352056 0.068134
Si Si2 0.177038 0.782367 0.332475
Si Si3 0.190672 0.644197 0.833406
Si Si4 0.255389 0.854455 0.668187
Si Si5 0.620106 0.644398 0.411271
Si Si6 0.240725 0.494445 0.168212
Si Si7 0.072331 0.267586 0.332015
Si Si8 0.630214 0.493877 0.419343
O O1 0.500000 0.330139 0.062809
O O2 0.388120 0.305229 0.126189
O O3 0.421216 0.432054 0.089702
O O4 0.385720 0.339599 0.994505
O O5 0.164772 0.797633 0.250000
O O6 0.241372 0.822575 0.361275
O O7 0.188689 0.701771 0.346076
O O8 0.187057 0.654988 0.750000
O O9 0.187698 0.563766 0.853670
O O10 0.127057 0.682179 0.866738
O O11 0.230447 0.849056 0.750000
O O12 0.194559 0.842487 0.615367
O O13 0.286357 0.929471 0.652935
O O14 0.571985 0.694293 0.369406
O O15 0.598138 0.566124 0.395825
O O16 0.259175 0.485603 0.250000
O O17 0.306921 0.477092 0.127294
O O18 0.087418 0.254817 0.250000
O O19 0.000000 0.300547 0.342957
O O20 0.654818 0.500000 0.500000
#
# Coordination Sequence:
#
# PCOD8256967 Si02
#       8
#    16  16  16  16  16  16  16  16
#     4  11  23  35  48  69  99 137 173 204 240 284
#     4  10  19  34  53  72  97 128 164 209 251 286
#     4   9  16  29  50  73  96 125 157 197 245 287
#     4   9  17  31  53  78 100 125 161 205 251 292
#     4  10  19  32  50  71 100 131 163 198 241 297
#     4   9  16  29  51  74  96 123 159 201 242 286
#     4  10  19  31  48  72 101 129 156 193 246 303
#     4   9  19  32  47  67  95 131 164 199 238 283
#
# _framework density 17.039705999999999
#
# number of rings (size 3 to 8) (size 9 to 14) (size 15 to 20)
#    0.000    2.375    2.500    0.750    0.000    4.000 
#    0.000    0.000    0.000    0.750    0.000    3.500 
#    0.000    2.500    0.000    0.000    0.000    0.000 
#
# Total GULP energy -793221.678518 kJ/mol
# GULP energy per Si atom -12394.088727 kJ/mol
# Density = 1.700092 g / cm^3
# Si number density = 17.039706 Si / 1000 Ang^3
#
#
#
# Elastic Constant Matrix: (Units=GPa)
#
#
# Indices 1 2 3 4 5 6 
#
# 1 86.9081 59.8436 41.1197 0.0000 0.0000 0.0000
# 2 59.8436 121.3565 41.2972 0.0000 0.0000 0.0000
# 3 41.1197 41.2972 56.0509 0.0000 0.0000 0.0000
# 4 0.0000 0.0000 0.0000 21.3867 0.0000 0.0000
# 5 0.0000 0.0000 0.0000 0.0000 15.5315 0.0000
# 6 0.0000 0.0000 0.0000 0.0000 0.0000 22.6217
#
#
#
# Elastic Compliance Matrix: (Units=1/GPa)
#
#
# Indices 1 2 3 4 5 6 
#
# 1 0.021213 -0.006893 -0.010483 0.000000 0.000000 0.000000
# 2 -0.006893 0.013237 -0.004696 0.000000 0.000000 0.000000
# 3 -0.010483 -0.004696 0.028992 0.000000 0.000000 0.000000
# 4 0.000000 0.000000 0.000000 0.046758 0.000000 0.000000
# 5 0.000000 0.000000 0.000000 0.000000 0.064385 0.000000
# 6 0.000000 0.000000 0.000000 0.000000 0.000000 0.044205
#
#
# Mechanical properties :
#
#
# Convention : Reuss Voigt Hill
#
# Bulk Modulus (GPa) = 51.82225 60.98181 56.40203
# Shear Modulus (GPa) = 18.56191 20.04498 19.30344
#
# Velocity S-wave (km/s) = 3.30408 3.43354 3.36944
# Velocity P-wave (km/s) = 6.71078 7.18225 6.95052
#
# Compressibility (1/GPa) = 0.01929673
#
# Stress axis : x y z
#
# Youngs Moduli (GPa) = 47.14079 75.54335 34.49254
#
# Poissons Ratio (x) = 0.52073 0.36160
# Poissons Ratio (y) = 0.32495 0.16198
# Poissons Ratio (z) = 0.49420 0.35476
#
# Static dielectric constant tensor:
#      x y z
#    x 2.957190 0.000000 0.000000 
#    y 0.000000 3.519870 0.000000 
#    z 0.000000 0.000000 3.093610 
# 
# 
# High freq. dielectric constant tensor:
#      x y z
#    x 1.622550 0.000000 0.000000 
#    y 0.000000 1.668750 0.000000 
#    z 0.000000 0.000000 1.642320 
# 
# From -- ./inp_files/47524.got.cif
#   From: 2010.03.12/outbox.cif.g09.slc.cpg/sg63_24_cif.got.tgz:47524.got - 2010.04.10 19:34:48.
