data_PCOD8256643
_publ_section_title
;
Structure prediction by ZEFSAII (Michael W. Deem and Ramdas Pophale) SiO2 
 PCOD8256643
Probable space group: C M C M
;
_chemical_formula_sum "Si O2"
_cell_formula_units_Z 96
_cell_length_a 9.227001
_cell_length_b 27.444688
_cell_length_c 23.819635
_cell_angle_alpha 90.000000
_cell_angle_beta 90.000000
_cell_angle_gamma 90.000000
_cell_volume 6031.897708
_symmetry_space_group_name_H-M "C M C M"
_symmetry_group_IT_number 63
_symmetry_cell_setting 'orthorhombic'
loop_
_space_group_symop_operation_xyz
x,y,z
-x,-y,1/2+z
x,-y,-z
-x,y,1/2-z
-x,-y,-z
x,y,1/2-z
-x,y,z
x,-y,1/2+z
1/2+x,1/2+y,z
1/2-x,1/2-y,1/2+z
1/2+x,1/2-y,-z
1/2-x,1/2+y,1/2-z
1/2-x,1/2-y,-z
1/2+x,1/2+y,1/2-z
1/2-x,1/2+y,z
1/2+x,1/2-y,1/2+z
loop_
_atom_site_type_symbol
_atom_site_label
_atom_site_fract_x
_atom_site_fract_y
_atom_site_fract_z
Si Si1 0.831020 0.677517 0.026690
Si Si2 0.170966 0.923454 0.187255
Si Si3 0.667369 0.825195 0.186504
Si Si4 0.832569 0.738012 0.917821
Si Si5 0.328798 0.482203 0.083306
Si Si6 0.171772 0.077069 0.023323
O O1 0.766957 0.715310 0.071734
O O2 0.754156 0.626405 0.036582
O O3 0.000000 0.671535 0.038637
O O4 0.799664 0.696255 0.963744
O O5 0.217412 0.939369 0.250000
O O6 0.240664 0.872343 0.170455
O O7 0.227233 0.965044 0.144430
O O8 0.000000 0.916444 0.182448
O O9 0.701629 0.807528 0.250000
O O10 0.500000 0.839662 0.179658
O O11 0.708401 0.782184 0.143657
O O12 0.000000 0.754083 0.921366
O O13 0.500000 0.481380 0.080011
O O14 0.279420 0.537446 0.070463
O O15 0.274088 0.444014 0.036432
O O16 0.000000 0.086792 0.024284
#
# Coordination Sequence:
#
# PCOD8256643 Si02
#       6
#    16  16  16  16  16  16
#     4  10  19  29  43  65  89 111 140 177 213 250
#     4   9  16  26  42  64  88 111 136 169 208 249
#     4   9  17  29  45  65  88 112 139 172 210 253
#     4   9  18  31  45  62  86 115 142 170 209 255
#     4   8  15  27  43  63  84 110 143 172 202 246
#     4   9  16  28  45  61  82 113 144 173 206 246
#
# _framework density 15.91539
#
# number of rings (size 3 to 8) (size 9 to 14) (size 15 to 20)
#    0.000    3.000    0.000    2.500    0.000    1.333 
#    0.000    2.500    0.000    1.000    0.000    4.667 
#    0.000    0.000    0.000    0.000    0.000    0.000 
#
# Total GULP energy -595046.472523 kJ/mol
# GULP energy per Si atom -12396.801511 kJ/mol
# Density = 1.587917 g / cm^3
# Si number density = 15.915390 Si / 1000 Ang^3
#
#
#
# Elastic Constant Matrix: (Units=GPa)
#
#
# Indices 1 2 3 4 5 6 
#
# 1 49.2339 51.9964 36.0600 0.0000 0.0000 0.0000
# 2 51.9964 133.8894 71.8142 0.0000 0.0000 0.0000
# 3 36.0600 71.8142 109.9123 0.0000 0.0000 0.0000
# 4 0.0000 0.0000 0.0000 25.1241 0.0000 0.0000
# 5 0.0000 0.0000 0.0000 0.0000 16.3355 0.0000
# 6 0.0000 0.0000 0.0000 0.0000 0.0000 27.3906
#
#
#
# Elastic Compliance Matrix: (Units=1/GPa)
#
#
# Indices 1 2 3 4 5 6 
#
# 1 0.035580 -0.011633 -0.004072 0.000000 0.000000 0.000000
# 2 -0.011633 0.015302 -0.006181 0.000000 0.000000 0.000000
# 3 -0.004072 -0.006181 0.014473 0.000000 0.000000 0.000000
# 4 0.000000 0.000000 0.000000 0.039802 0.000000 0.000000
# 5 0.000000 0.000000 0.000000 0.000000 0.061216 0.000000
# 6 0.000000 0.000000 0.000000 0.000000 0.000000 0.036509
#
#
# Mechanical properties :
#
#
# Convention : Reuss Voigt Hill
#
# Bulk Modulus (GPa) = 46.33654 68.08633 57.21143
# Shear Modulus (GPa) = 19.69664 22.64769 21.17216
#
# Velocity S-wave (km/s) = 3.52175 3.77637 3.65128
# Velocity P-wave (km/s) = 6.76125 7.86687 7.33492
#
# Compressibility (1/GPa) = 0.02158124
#
# Stress axis : x y z
#
# Youngs Moduli (GPa) = 28.10576 65.34954 69.09449
#
# Poissons Ratio (x) = 0.76024 0.28135
# Poissons Ratio (y) = 0.32697 0.42711
# Poissons Ratio (z) = 0.11445 0.40396
#
# Static dielectric constant tensor:
#      x y z
#    x 2.881210 0.000000 0.000000 
#    y 0.000000 2.977560 0.000000 
#    z 0.000000 0.000000 3.290630 
# 
# 
# High freq. dielectric constant tensor:
#      x y z
#    x 1.598230 0.000000 0.000000 
#    y 0.000000 1.600890 0.000000 
#    z 0.000000 0.000000 1.606200 
# 
# From -- ./inp_files/59891.got.cif
#   From: 2010.03.12/outbox.cif.g09.slc.cpg/sg63_30_cif.got.tgz:59891.got - 2010.04.10 19:34:48.
