data_PCOD8256043
_publ_section_title
;
Structure prediction by ZEFSAII (Michael W. Deem and Ramdas Pophale) SiO2 
 PCOD8256043
Probable space group: C M C M
;
_chemical_formula_sum "Si O2"
_cell_formula_units_Z 80
_cell_length_a 25.637100
_cell_length_b 20.036193
_cell_length_c 8.791302
_cell_angle_alpha 90.000000
_cell_angle_beta 90.000000
_cell_angle_gamma 90.000000
_cell_volume 4515.827075
_symmetry_space_group_name_H-M "C M C M"
_symmetry_group_IT_number 63
_symmetry_cell_setting 'orthorhombic'
loop_
_space_group_symop_operation_xyz
x,y,z
-x,-y,1/2+z
x,-y,-z
-x,y,1/2-z
-x,-y,-z
x,y,1/2-z
-x,y,z
x,-y,1/2+z
1/2+x,1/2+y,z
1/2-x,1/2-y,1/2+z
1/2+x,1/2-y,-z
1/2-x,1/2+y,1/2-z
1/2-x,1/2-y,-z
1/2+x,1/2+y,1/2-z
1/2-x,1/2+y,z
1/2+x,1/2-y,1/2+z
loop_
_atom_site_type_symbol
_atom_site_label
_atom_site_fract_x
_atom_site_fract_y
_atom_site_fract_z
Si Si1 0.308253 0.681357 0.070297
Si Si2 0.000000 0.070935 0.073164
Si Si3 0.190150 0.680765 0.428560
Si Si4 0.500000 0.926351 0.068013
Si Si5 0.387579 0.427414 0.570329
Si Si6 0.394679 0.927165 0.569214
O O1 0.312794 0.685012 0.250000
O O2 0.249204 0.665581 0.017450
O O3 0.344363 0.622584 0.003448
O O4 0.329252 0.751284 0.005956
O O5 0.944757 0.105055 0.027206
O O6 0.000000 0.058547 0.250000
O O7 0.000000 0.000000 0.000000
O O8 0.187552 0.691933 0.250000
O O9 0.153569 0.619557 0.478453
O O10 0.500000 0.925706 0.250000
O O11 0.553068 0.893245 0.003022
O O12 0.500000 0.000000 0.000000
O O13 0.379109 0.500000 0.500000
O O14 0.381281 0.434979 0.750000
O O15 0.401237 0.933267 0.750000
O O16 0.383839 0.000000 0.500000
#
# Coordination Sequence:
#
# PCOD8256043 Si02
#       6
#    16   8  16   8  16  16
#     4   9  18  33  50  68  93 126 162 198 237 281
#     4   8  14  26  43  64  91 121 149 181 225 270
#     4   9  19  34  50  68  93 126 160 195 238 285
#     4  10  18  30  49  72  97 125 157 191 235 286
#     4   9  17  29  47  70  95 122 154 192 231 273
#     4  10  19  32  50  72  98 125 157 197 240 287
#
# _framework density 17.71547
#
# number of rings (size 3 to 8) (size 9 to 14) (size 15 to 20)
#    0.000    2.800    0.000    2.700    0.000    3.200 
#    0.000    1.000    0.000    1.200    0.000    0.000 
#    0.000    0.000    0.000    0.000    0.000    0.000 
#
# Total GULP energy -495643.805270 kJ/mol
# GULP energy per Si atom -12391.095132 kJ/mol
# Density = 1.767515 g / cm^3
# Si number density = 17.715470 Si / 1000 Ang^3
#
#
#
# Elastic Constant Matrix: (Units=GPa)
#
#
# Indices 1 2 3 4 5 6 
#
# 1 147.2037 89.6375 40.0170 0.0000 0.0000 0.0000
# 2 89.6375 110.1288 32.1972 0.0000 0.0000 0.0000
# 3 40.0170 32.1972 46.0307 0.0000 0.0000 0.0000
# 4 0.0000 0.0000 0.0000 26.5350 0.0000 0.0000
# 5 0.0000 0.0000 0.0000 0.0000 19.9790 0.0000
# 6 0.0000 0.0000 0.0000 0.0000 0.0000 12.7848
#
#
#
# Elastic Compliance Matrix: (Units=1/GPa)
#
#
# Indices 1 2 3 4 5 6 
#
# 1 0.014485 -0.010193 -0.005463 0.000000 0.000000 0.000000
# 2 -0.010193 0.018587 -0.004140 0.000000 0.000000 0.000000
# 3 -0.005463 -0.004140 0.029370 0.000000 0.000000 0.000000
# 4 0.000000 0.000000 0.000000 0.037686 0.000000 0.000000
# 5 0.000000 0.000000 0.000000 0.000000 0.050053 0.000000
# 6 0.000000 0.000000 0.000000 0.000000 0.000000 0.078218
#
#
# Mechanical properties :
#
#
# Convention : Reuss Voigt Hill
#
# Bulk Modulus (GPa) = 43.76336 69.67408 56.71872
# Shear Modulus (GPa) = 18.14180 21.29386 19.71783
#
# Velocity S-wave (km/s) = 3.20357 3.47074 3.33983
# Velocity P-wave (km/s) = 6.20008 7.44824 6.85263
#
# Compressibility (1/GPa) = 0.02285017
#
# Stress axis : x y z
#
# Youngs Moduli (GPa) = 69.03599 53.80153 34.04858
#
# Poissons Ratio (x) = 0.54839 0.18601
# Poissons Ratio (y) = 0.70367 0.14096
# Poissons Ratio (z) = 0.37716 0.22273
#
# Static dielectric constant tensor:
#      x y z
#    x 4.249180 0.000000 0.000000 
#    y 0.000000 3.097290 0.000000 
#    z 0.000000 0.000000 3.205350 
# 
# 
# High freq. dielectric constant tensor:
#      x y z
#    x 1.704020 0.000000 0.000000 
#    y 0.000000 1.655290 0.000000 
#    z 0.000000 0.000000 1.683180 
# 
# From -- ./inp_files/10068.got.cif
#   From: 2010.03.12/outbox.cif.g09.slc.cpg/sg63_6_cif.got.tgz:10068.got - 2010.04.10 19:34:48.
