data_PCOD8256214
_publ_section_title
;
Structure prediction by ZEFSAII (Michael W. Deem and Ramdas Pophale) SiO2 
 PCOD8256214
Probable space group: C M C M
;
_chemical_formula_sum "Si O2"
_cell_formula_units_Z 112
_cell_length_a 21.941769
_cell_length_b 12.305093
_cell_length_c 23.857988
_cell_angle_alpha 90.000000
_cell_angle_beta 90.000000
_cell_angle_gamma 90.000000
_cell_volume 6441.549593
_symmetry_space_group_name_H-M "C M C M"
_symmetry_group_IT_number 63
_symmetry_cell_setting 'orthorhombic'
loop_
_space_group_symop_operation_xyz
x,y,z
-x,-y,1/2+z
x,-y,-z
-x,y,1/2-z
-x,-y,-z
x,y,1/2-z
-x,y,z
x,-y,1/2+z
1/2+x,1/2+y,z
1/2-x,1/2-y,1/2+z
1/2+x,1/2-y,-z
1/2-x,1/2+y,1/2-z
1/2-x,1/2-y,-z
1/2+x,1/2+y,1/2-z
1/2-x,1/2+y,z
1/2+x,1/2-y,1/2+z
loop_
_atom_site_type_symbol
_atom_site_label
_atom_site_fract_x
_atom_site_fract_y
_atom_site_fract_z
Si Si1 0.326225 0.430955 0.861286
Si Si2 0.931766 0.692997 0.924992
Si Si3 0.765477 0.139405 0.687023
Si Si4 0.867804 0.714350 0.688149
Si Si5 0.819427 0.620904 0.986362
Si Si6 0.263411 0.228547 0.085136
Si Si7 0.569198 0.445435 0.941101
O O1 0.289839 0.520218 0.826551
O O2 0.350032 0.341055 0.817713
O O3 0.282100 0.372721 0.906282
O O4 0.382943 0.486793 0.894300
O O5 0.916247 0.681226 0.859100
O O6 0.887971 0.619155 0.962828
O O7 0.923808 0.815994 0.945997
O O8 0.000000 0.650437 0.934018
O O9 0.785487 0.172009 0.750000
O O10 0.692162 0.139664 0.681506
O O11 0.792445 0.229247 0.643682
O O12 0.896677 0.697680 0.750000
O O13 0.774079 0.670081 0.940185
O O14 0.797939 0.500000 0.000000
O O15 0.816804 0.692648 0.043165
O O16 0.500000 0.476535 0.923205
O O17 0.586201 0.500000 0.000000
#
# Coordination Sequence:
#
# PCOD8256214 Si02
#       7
#    16  16  16  16  16  16  16
#     4  10  18  31  51  76 102 135 169 209 256 305
#     4  10  20  36  51  74 103 133 177 220 256 304
#     4  10  19  31  51  77 107 136 169 208 255 308
#     4   9  18  34  50  74 105 133 169 213 261 306
#     4  11  21  35  52  75 106 136 176 211 262 313
#     4  10  21  34  50  78 105 139 166 212 258 316
#     4   9  18  31  49  73 104 137 171 210 255 309
#
# _framework density 17.387119999999999
#
# number of rings (size 3 to 8) (size 9 to 14) (size 15 to 20)
#    0.000    2.143    4.286    1.286    2.000    1.714 
#    0.000    0.000    0.000    1.286    0.000    0.000 
#    0.000    0.000    0.000    0.000    0.000    0.000 
#
# Total GULP energy -694267.305454 kJ/mol
# GULP energy per Si atom -12397.630455 kJ/mol
# Density = 1.734755 g / cm^3
# Si number density = 17.387120 Si / 1000 Ang^3
#
#
#
# Elastic Constant Matrix: (Units=GPa)
#
#
# Indices 1 2 3 4 5 6 
#
# 1 74.7910 33.3267 48.2110 0.0000 0.0000 0.0000
# 2 33.3267 56.8595 44.0279 0.0000 0.0000 0.0000
# 3 48.2110 44.0279 130.4944 0.0000 0.0000 0.0000
# 4 0.0000 0.0000 0.0000 25.5188 0.0000 0.0000
# 5 0.0000 0.0000 0.0000 0.0000 18.2739 0.0000
# 6 0.0000 0.0000 0.0000 0.0000 0.0000 13.3891
#
#
#
# Elastic Compliance Matrix: (Units=1/GPa)
#
#
# Indices 1 2 3 4 5 6 
#
# 1 0.019980 -0.008115 -0.004644 0.000000 0.000000 0.000000
# 2 -0.008115 0.027103 -0.006146 0.000000 0.000000 0.000000
# 3 -0.004644 -0.006146 0.011452 0.000000 0.000000 0.000000
# 4 0.000000 0.000000 0.000000 0.039187 0.000000 0.000000
# 5 0.000000 0.000000 0.000000 0.000000 0.054723 0.000000
# 6 0.000000 0.000000 0.000000 0.000000 0.000000 0.074687
#
#
# Mechanical properties :
#
#
# Convention : Reuss Voigt Hill
#
# Bulk Modulus (GPa) = 48.24980 57.03066 52.64023
# Shear Modulus (GPa) = 18.39247 20.54166 19.46707
#
# Velocity S-wave (km/s) = 3.25594 3.44092 3.34971
# Velocity P-wave (km/s) = 6.47653 6.97555 6.73067
#
# Compressibility (1/GPa) = 0.02072547
#
# Stress axis : x y z
#
# Youngs Moduli (GPa) = 50.05015 36.89649 87.31774
#
# Poissons Ratio (x) = 0.29942 0.40547
# Poissons Ratio (y) = 0.40616 0.53667
# Poissons Ratio (z) = 0.23241 0.22677
#
# Static dielectric constant tensor:
#      x y z
#    x 3.154090 0.000000 0.000000 
#    y 0.000000 3.030400 0.000000 
#    z 0.000000 0.000000 3.458710 
# 
# 
# High freq. dielectric constant tensor:
#      x y z
#    x 1.648160 0.000000 0.000000 
#    y 0.000000 1.651790 0.000000 
#    z 0.000000 0.000000 1.681630 
# 
# From -- ./inp_files/65115.got.cif
#   From: 2010.03.12/outbox.cif.g09.slc.cpg/sg63_33_cif.got.tgz:65115.got - 2010.04.10 19:34:48.
