data_PCOD8256544
_publ_section_title
;
Structure prediction by ZEFSAII (Michael W. Deem and Ramdas Pophale) SiO2 
 PCOD8256544
Probable space group: C M C M
;
_chemical_formula_sum "Si O2"
_cell_formula_units_Z 96
_cell_length_a 11.436945
_cell_length_b 18.664951
_cell_length_c 24.365916
_cell_angle_alpha 90.000000
_cell_angle_beta 90.000000
_cell_angle_gamma 90.000000
_cell_volume 5201.392527
_symmetry_space_group_name_H-M "C M C M"
_symmetry_group_IT_number 63
_symmetry_cell_setting 'orthorhombic'
loop_
_space_group_symop_operation_xyz
x,y,z
-x,-y,1/2+z
x,-y,-z
-x,y,1/2-z
-x,-y,-z
x,y,1/2-z
-x,y,z
x,-y,1/2+z
1/2+x,1/2+y,z
1/2-x,1/2-y,1/2+z
1/2+x,1/2-y,-z
1/2-x,1/2+y,1/2-z
1/2-x,1/2-y,-z
1/2+x,1/2+y,1/2-z
1/2-x,1/2+y,z
1/2+x,1/2-y,1/2+z
loop_
_atom_site_type_symbol
_atom_site_label
_atom_site_fract_x
_atom_site_fract_y
_atom_site_fract_z
Si Si1 0.634379 0.111900 0.813329
Si Si2 0.267398 0.261195 0.130784
Si Si3 0.636350 0.369244 0.914363
Si Si4 0.787162 0.980083 0.117791
Si Si5 0.000000 0.070716 0.687059
Si Si6 0.863129 0.138931 0.541525
Si Si7 0.500000 0.260178 0.186704
O O1 0.658293 0.091821 0.750000
O O2 0.500000 0.131208 0.823695
O O3 0.712467 0.180609 0.828223
O O4 0.667027 0.044881 0.852807
O O5 0.174093 0.198422 0.121745
O O6 0.298735 0.296365 0.072383
O O7 0.383811 0.228142 0.158481
O O8 0.500000 0.386362 0.904259
O O9 0.715623 0.436272 0.896282
O O10 0.661251 0.352071 0.977569
O O11 0.810670 0.936820 0.061550
O O12 0.886270 0.963786 0.161659
O O13 0.000000 0.050352 0.750000
O O14 0.000000 0.155053 0.676512
O O15 0.000000 0.140660 0.555675
O O16 0.500000 0.238375 0.250000
#
# Coordination Sequence:
#
# PCOD8256544 Si02
#       7
#    16  16  16  16   8  16   8
#     4  10  21  38  60  81 106 145 190 229 276 336
#     4  11  20  37  58  83 116 145 184 233 276 333
#     4  11  23  35  55  84 120 150 181 225 287 331
#     4  11  19  36  58  83 113 142 183 235 274 331
#     4  11  18  32  60  86 102 134 186 240 279 319
#     4  10  18  35  59  86 108 147 190 229 269 331
#     4  11  20  36  63  85 104 143 198 240 277 323
#
# _framework density 18.456596000000001
#
# number of rings (size 3 to 8) (size 9 to 14) (size 15 to 20)
#    0.000    1.333    5.833    2.500    0.000    1.333 
#    1.500    3.333    1.833    4.000    0.000    0.000 
#    0.000    0.000    0.000    0.000    0.000    0.000 
#
# Total GULP energy -595339.028049 kJ/mol
# GULP energy per Si atom -12402.896418 kJ/mol
# Density = 1.841459 g / cm^3
# Si number density = 18.456596 Si / 1000 Ang^3
#
#
#
# Elastic Constant Matrix: (Units=GPa)
#
#
# Indices 1 2 3 4 5 6 
#
# 1 85.0579 19.1772 34.3035 0.0000 0.0000 0.0000
# 2 19.1772 81.3495 22.8296 0.0000 0.0000 0.0000
# 3 34.3035 22.8296 81.8828 0.0000 0.0000 0.0000
# 4 0.0000 0.0000 0.0000 9.9889 0.0000 0.0000
# 5 0.0000 0.0000 0.0000 0.0000 12.7783 0.0000
# 6 0.0000 0.0000 0.0000 0.0000 0.0000 29.3320
#
#
#
# Elastic Compliance Matrix: (Units=1/GPa)
#
#
# Indices 1 2 3 4 5 6 
#
# 1 0.014398 -0.001846 -0.005517 0.000000 0.000000 0.000000
# 2 -0.001846 0.013573 -0.003011 0.000000 0.000000 0.000000
# 3 -0.005517 -0.003011 0.015363 0.000000 0.000000 0.000000
# 4 0.000000 0.000000 0.000000 0.100111 0.000000 0.000000
# 5 0.000000 0.000000 0.000000 0.000000 0.078258 0.000000
# 6 0.000000 0.000000 0.000000 0.000000 0.000000 0.034092
#
#
# Mechanical properties :
#
#
# Convention : Reuss Voigt Hill
#
# Bulk Modulus (GPa) = 44.27473 44.54564 44.41019
# Shear Modulus (GPa) = 17.60119 21.88517 19.74318
#
# Velocity S-wave (km/s) = 3.09148 3.44723 3.27419
# Velocity P-wave (km/s) = 6.06495 6.32711 6.19741
#
# Compressibility (1/GPa) = 0.02258625
#
# Stress axis : x y z
#
# Youngs Moduli (GPa) = 69.45454 73.67707 65.08989
#
# Poissons Ratio (x) = 0.13599 0.35911
# Poissons Ratio (y) = 0.12820 0.19598
# Poissons Ratio (z) = 0.38319 0.22184
#
# Static dielectric constant tensor:
#      x y z
#    x 3.307340 0.000000 0.000000 
#    y 0.000000 3.221450 0.000000 
#    z 0.000000 0.000000 3.460300 
# 
# 
# High freq. dielectric constant tensor:
#      x y z
#    x 1.713560 0.000000 0.000000 
#    y 0.000000 1.692150 0.000000 
#    z 0.000000 0.000000 1.726580 
# 
# From -- ./inp_files/61549.got.cif
#   From: 2010.03.12/outbox.cif.g09.slc.cpg/sg63_31_cif.got.tgz:61549.got - 2010.04.10 19:34:48.
