data_PCOD8256163
_publ_section_title
;
Structure prediction by ZEFSAII (Michael W. Deem and Ramdas Pophale) SiO2 
 PCOD8256163
Probable space group: C M C M
;
_chemical_formula_sum "Si O2"
_cell_formula_units_Z 96
_cell_length_a 8.939826
_cell_length_b 27.244477
_cell_length_c 22.778306
_cell_angle_alpha 90.000000
_cell_angle_beta 90.000000
_cell_angle_gamma 90.000000
_cell_volume 5547.904342
_symmetry_space_group_name_H-M "C M C M"
_symmetry_group_IT_number 63
_symmetry_cell_setting 'orthorhombic'
loop_
_space_group_symop_operation_xyz
x,y,z
-x,-y,1/2+z
x,-y,-z
-x,y,1/2-z
-x,-y,-z
x,y,1/2-z
-x,y,z
x,-y,1/2+z
1/2+x,1/2+y,z
1/2-x,1/2-y,1/2+z
1/2+x,1/2-y,-z
1/2-x,1/2+y,1/2-z
1/2-x,1/2-y,-z
1/2+x,1/2+y,1/2-z
1/2-x,1/2+y,z
1/2+x,1/2-y,1/2+z
loop_
_atom_site_type_symbol
_atom_site_label
_atom_site_fract_x
_atom_site_fract_y
_atom_site_fract_z
Si Si1 0.828855 0.396741 0.961734
Si Si2 0.324882 0.201234 0.976688
Si Si3 0.821787 0.624875 0.750000
Si Si4 0.673688 0.349850 0.368154
Si Si5 0.672601 0.969806 0.869459
Si Si6 0.169888 0.052123 0.936126
Si Si7 0.178225 0.488806 0.250000
O O1 0.801538 0.413902 0.893681
O O2 0.000000 0.407887 0.980146
O O3 0.794779 0.339430 0.972484
O O4 0.719575 0.429121 0.000753
O O5 0.500000 0.209625 0.966114
O O6 0.251157 0.186133 0.914998
O O7 0.250000 0.250000 0.000000
O O8 0.756742 0.653938 0.694063
O O9 0.768097 0.567883 0.750000
O O10 0.000000 0.628534 0.750000
O O11 0.500000 0.334876 0.362089
O O12 0.692612 0.405712 0.388136
O O13 0.500000 0.981634 0.862391
O O14 0.733154 0.005680 0.919081
O O15 0.746397 0.981655 0.806145
O O16 0.000000 0.035022 0.940489
O O17 0.000000 0.490566 0.250000
#
# Coordination Sequence:
#
# PCOD8256163 Si02
#       7
#    16  16   8  16  16  16   8
#     4   9  19  32  49  70  95 127 165 206 251 304
#     4  10  20  36  56  78 100 129 169 219 274 325
#     4  11  19  31  51  76 105 140 175 210 247 296
#     4  10  20  33  50  75 106 139 171 210 256 307
#     4  10  18  31  47  67  96 133 170 202 237 289
#     4  10  19  29  44  69 101 132 164 202 245 293
#     4   9  18  29  47  70  97 136 175 204 235 284
#
# _framework density 17.303832
#
# number of rings (size 3 to 8) (size 9 to 14) (size 15 to 20)
#    0.000    2.167    1.667    2.250    0.000    4.667 
#    0.000    0.417    0.000    1.000    0.000    3.500 
#    0.000    0.000    0.000    0.000    0.000    0.000 
#
# Total GULP energy -594953.976666 kJ/mol
# GULP energy per Si atom -12394.874514 kJ/mol
# Density = 1.726445 g / cm^3
# Si number density = 17.303832 Si / 1000 Ang^3
#
#
#
# Elastic Constant Matrix: (Units=GPa)
#
#
# Indices 1 2 3 4 5 6 
#
# 1 65.3016 37.0239 50.7116 0.0000 0.0000 0.0000
# 2 37.0239 95.4155 70.0146 0.0000 0.0000 0.0000
# 3 50.7116 70.0146 108.6107 0.0000 0.0000 0.0000
# 4 0.0000 0.0000 0.0000 21.5173 0.0000 0.0000
# 5 0.0000 0.0000 0.0000 0.0000 22.4148 0.0000
# 6 0.0000 0.0000 0.0000 0.0000 0.0000 22.7908
#
#
#
# Elastic Compliance Matrix: (Units=1/GPa)
#
#
# Indices 1 2 3 4 5 6 
#
# 1 0.024242 -0.002089 -0.009972 0.000000 0.000000 0.000000
# 2 -0.002089 0.020068 -0.011961 0.000000 0.000000 0.000000
# 3 -0.009972 -0.011961 0.021574 0.000000 0.000000 0.000000
# 4 0.000000 0.000000 0.000000 0.046474 0.000000 0.000000
# 5 0.000000 0.000000 0.000000 0.000000 0.044613 0.000000
# 6 0.000000 0.000000 0.000000 0.000000 0.000000 0.043877
#
#
# Mechanical properties :
#
#
# Convention : Reuss Voigt Hill
#
# Bulk Modulus (GPa) = 56.05661 64.98091 60.51876
# Shear Modulus (GPa) = 19.62009 20.78310 20.20160
#
# Velocity S-wave (km/s) = 3.37093 3.46940 3.42052
# Velocity P-wave (km/s) = 6.90049 7.32690 7.11689
#
# Compressibility (1/GPa) = 0.01783911
#
# Stress axis : x y z
#
# Youngs Moduli (GPa) = 41.25034 49.83027 46.35208
#
# Poissons Ratio (x) = 0.10410 0.46223
# Poissons Ratio (y) = 0.08618 0.55443
# Poissons Ratio (z) = 0.41136 0.59603
#
# Static dielectric constant tensor:
#      x y z
#    x 3.224070 0.000000 0.000000 
#    y 0.000000 3.130550 0.000000 
#    z 0.000000 0.000000 3.425770 
# 
# 
# High freq. dielectric constant tensor:
#      x y z
#    x 1.669920 0.000000 0.000000 
#    y 0.000000 1.640270 0.000000 
#    z 0.000000 0.000000 1.666980 
# 
# From -- ./inp_files/60307.got.cif
#   From: 2010.03.12/outbox.cif.g09.slc.cpg/sg63_31_cif.got.tgz:60307.got - 2010.04.10 19:34:48.
