data_PCOD8256905
_publ_section_title
;
Structure prediction by ZEFSAII (Michael W. Deem and Ramdas Pophale) SiO2 
 PCOD8256905
Probable space group: C M C M
;
_chemical_formula_sum "Si O2"
_cell_formula_units_Z 96
_cell_length_a 9.703733
_cell_length_b 29.478106
_cell_length_c 20.662848
_cell_angle_alpha 90.000000
_cell_angle_beta 90.000000
_cell_angle_gamma 90.000000
_cell_volume 5910.559525
_symmetry_space_group_name_H-M "C M C M"
_symmetry_group_IT_number 63
_symmetry_cell_setting 'orthorhombic'
loop_
_space_group_symop_operation_xyz
x,y,z
-x,-y,1/2+z
x,-y,-z
-x,y,1/2-z
-x,-y,-z
x,y,1/2-z
-x,y,z
x,-y,1/2+z
1/2+x,1/2+y,z
1/2-x,1/2-y,1/2+z
1/2+x,1/2-y,-z
1/2-x,1/2+y,1/2-z
1/2-x,1/2-y,-z
1/2+x,1/2+y,1/2-z
1/2-x,1/2+y,z
1/2+x,1/2-y,1/2+z
loop_
_atom_site_type_symbol
_atom_site_label
_atom_site_fract_x
_atom_site_fract_y
_atom_site_fract_z
Si Si1 0.162086 0.215169 0.958961
Si Si2 0.154057 0.887380 0.006994
Si Si3 0.844086 0.491069 0.179204
Si Si4 0.344190 0.408809 0.347210
Si Si5 0.661143 0.960714 0.949798
Si Si6 0.663170 0.690656 0.820274
O O1 0.194984 0.165249 0.986225
O O2 0.212921 0.218852 0.883391
O O3 0.000000 0.226356 0.965092
O O4 0.250000 0.250000 0.000000
O O5 0.160030 0.911941 0.075746
O O6 0.000000 0.891366 0.978050
O O7 0.259903 0.913539 0.960941
O O8 0.835290 0.515109 0.250000
O O9 0.750049 0.447094 0.182865
O O10 0.796702 0.525150 0.122951
O O11 0.000000 0.475204 0.164008
O O12 0.500000 0.415626 0.321938
O O13 0.282041 0.360801 0.323620
O O14 0.500000 0.950546 0.957294
O O15 0.706997 0.000000 0.000000
O O16 0.707505 0.712029 0.750000
O O17 0.500000 0.687608 0.826440
#
# Coordination Sequence:
#
# PCOD8256905 Si02
#       6
#    16  16  16  16  16  16
#     4   9  18  32  50  73  97 121 153 192 236 282
#     4   9  18  31  48  71  95 120 153 194 233 271
#     4  10  20  31  42  61  93 126 154 192 235 268
#     4   9  16  27  45  68  92 119 151 184 223 275
#     4  10  19  31  47  67  91 123 162 192 221 271
#     4   8  14  26  45  68  94 121 149 184 225 274
#
# _framework density 16.242117
#
# number of rings (size 3 to 8) (size 9 to 14) (size 15 to 20)
#    0.000    2.833    1.667    2.500    0.000    2.667 
#    0.000    2.500    0.000    2.500    0.000    7.000 
#    0.000    0.000    0.000    0.000    0.000    0.000 
#
# Total GULP energy -594815.098348 kJ/mol
# GULP energy per Si atom -12391.981216 kJ/mol
# Density = 1.620515 g / cm^3
# Si number density = 16.242117 Si / 1000 Ang^3
#
#
#
# Elastic Constant Matrix: (Units=GPa)
#
#
# Indices 1 2 3 4 5 6 
#
# 1 51.5327 40.5921 43.1079 0.0000 0.0000 0.0000
# 2 40.5921 72.4181 59.8332 0.0000 0.0000 0.0000
# 3 43.1079 59.8332 135.3421 0.0000 0.0000 0.0000
# 4 0.0000 0.0000 0.0000 21.4406 0.0000 0.0000
# 5 0.0000 0.0000 0.0000 0.0000 14.9494 0.0000
# 6 0.0000 0.0000 0.0000 0.0000 0.0000 28.9300
#
#
#
# Elastic Compliance Matrix: (Units=1/GPa)
#
#
# Indices 1 2 3 4 5 6 
#
# 1 0.036083 -0.016904 -0.004020 0.000000 0.000000 0.000000
# 2 -0.016904 0.029674 -0.007735 0.000000 0.000000 0.000000
# 3 -0.004020 -0.007735 0.012088 0.000000 0.000000 0.000000
# 4 0.000000 0.000000 0.000000 0.046640 0.000000 0.000000
# 5 0.000000 0.000000 0.000000 0.000000 0.066892 0.000000
# 6 0.000000 0.000000 0.000000 0.000000 0.000000 0.034566
#
#
# Mechanical properties :
#
#
# Convention : Reuss Voigt Hill
#
# Bulk Modulus (GPa) = 48.71195 60.70659 54.70927
# Shear Modulus (GPa) = 17.23516 20.78133 19.00824
#
# Velocity S-wave (km/s) = 3.26105 3.58085 3.42468
# Velocity P-wave (km/s) = 6.65098 7.38606 7.02813
#
# Compressibility (1/GPa) = 0.02052884
#
# Stress axis : x y z
#
# Youngs Moduli (GPa) = 27.71381 33.69906 82.72451
#
# Poissons Ratio (x) = 0.56966 0.33252
# Poissons Ratio (y) = 0.46848 0.63983
# Poissons Ratio (z) = 0.11140 0.26065
#
# Static dielectric constant tensor:
#      x y z
#    x 2.912200 0.000000 0.000000 
#    y 0.000000 2.758270 0.000000 
#    z 0.000000 0.000000 3.297950 
# 
# 
# High freq. dielectric constant tensor:
#      x y z
#    x 1.608680 0.000000 0.000000 
#    y 0.000000 1.588870 0.000000 
#    z 0.000000 0.000000 1.633440 
# 
# From -- ./inp_files/53064.got.cif
#   From: 2010.03.12/outbox.cif.g09.slc.cpg/sg63_27_cif.got.tgz:53064.got - 2010.04.10 19:34:48.
