data_PCOD8256261
_publ_section_title
;
Structure prediction by ZEFSAII (Michael W. Deem and Ramdas Pophale) SiO2 
 PCOD8256261
Probable space group: C M C M
;
_chemical_formula_sum "Si O2"
_cell_formula_units_Z 64
_cell_length_a 8.614529
_cell_length_b 20.788207
_cell_length_c 18.231340
_cell_angle_alpha 90.000000
_cell_angle_beta 90.000000
_cell_angle_gamma 90.000000
_cell_volume 3264.879526
_symmetry_space_group_name_H-M "C M C M"
_symmetry_group_IT_number 63
_symmetry_cell_setting 'orthorhombic'
loop_
_space_group_symop_operation_xyz
x,y,z
-x,-y,1/2+z
x,-y,-z
-x,y,1/2-z
-x,-y,-z
x,y,1/2-z
-x,y,z
x,-y,1/2+z
1/2+x,1/2+y,z
1/2-x,1/2-y,1/2+z
1/2+x,1/2-y,-z
1/2-x,1/2+y,1/2-z
1/2-x,1/2-y,-z
1/2+x,1/2+y,1/2-z
1/2-x,1/2+y,z
1/2+x,1/2-y,1/2+z
loop_
_atom_site_type_symbol
_atom_site_label
_atom_site_fract_x
_atom_site_fract_y
_atom_site_fract_z
Si Si1 0.683035 0.383305 0.573976
Si Si2 0.179116 0.006609 0.665235
Si Si3 0.816358 0.252856 0.581388
Si Si4 0.318458 0.123462 0.913462
O O1 0.500000 0.374057 0.575966
O O2 0.736739 0.445443 0.619093
O O3 0.760004 0.321105 0.614045
O O4 0.736499 0.392297 0.490450
O O5 0.204947 0.990510 0.750000
O O6 0.283101 0.067428 0.643937
O O7 0.000000 0.022428 0.647786
O O8 0.750000 0.250000 0.500000
O O9 0.745935 0.190233 0.622097
O O10 0.000000 0.248723 0.582656
O O11 0.500000 0.129872 0.927758
#
# Coordination Sequence:
#
# PCOD8256261 Si02
#       4
#    16  16  16  16
#     4  10  19  34  57  82 108 139 176 220 269 320
#     4  10  22  39  56  76 106 143 180 219 265 316
#     4  10  18  31  53  80 109 138 173 220 268 315
#     4  11  21  34  55  82 110 140 177 220 264 315
#
# _framework density 19.602561000000001
#
# number of rings (size 3 to 8) (size 9 to 14) (size 15 to 20)
#    0.000    1.750    0.000    9.000    0.000    5.500 
#    0.000    1.250    0.000    4.500    0.000    0.000 
#    0.000    0.000    0.000    0.000    0.000    0.000 
#
# Total GULP energy -396796.315615 kJ/mol
# GULP energy per Si atom -12399.884863 kJ/mol
# Density = 1.955795 g / cm^3
# Si number density = 19.602561 Si / 1000 Ang^3
#
#
#
# Elastic Constant Matrix: (Units=GPa)
#
#
# Indices 1 2 3 4 5 6 
#
# 1 92.3578 44.8174 4.8503 0.0000 0.0000 0.0000
# 2 44.8174 149.4970 23.9489 0.0000 0.0000 0.0000
# 3 4.8503 23.9489 40.7496 0.0000 0.0000 0.0000
# 4 0.0000 0.0000 0.0000 5.8714 0.0000 0.0000
# 5 0.0000 0.0000 0.0000 0.0000 16.8034 0.0000
# 6 0.0000 0.0000 0.0000 0.0000 0.0000 38.7451
#
#
#
# Elastic Compliance Matrix: (Units=1/GPa)
#
#
# Indices 1 2 3 4 5 6 
#
# 1 0.012694 -0.003934 0.000801 0.000000 0.000000 0.000000
# 2 -0.003934 0.008603 -0.004588 0.000000 0.000000 0.000000
# 3 0.000801 -0.004588 0.027141 0.000000 0.000000 0.000000
# 4 0.000000 0.000000 0.000000 0.170317 0.000000 0.000000
# 5 0.000000 0.000000 0.000000 0.000000 0.059512 0.000000
# 6 0.000000 0.000000 0.000000 0.000000 0.000000 0.025810
#
#
# Mechanical properties :
#
#
# Convention : Reuss Voigt Hill
#
# Bulk Modulus (GPa) = 30.30569 47.75974 39.03271
# Shear Modulus (GPa) = 15.12775 26.21648 20.67212
#
# Velocity S-wave (km/s) = 2.78100 3.66102 3.25092
# Velocity P-wave (km/s) = 5.07992 6.50290 5.83495
#
# Compressibility (1/GPa) = 0.03299711
#
# Stress axis : x y z
#
# Youngs Moduli (GPa) = 78.77502 116.23247 36.84428
#
# Poissons Ratio (x) = 0.45725 -0.02951
# Poissons Ratio (y) = 0.30990 0.16904
# Poissons Ratio (z) = -0.06310 0.53328
#
# Static dielectric constant tensor:
#      x y z
#    x 3.608000 0.000000 0.000000 
#    y 0.000000 4.472100 0.000000 
#    z 0.000000 0.000000 3.173830 
# 
# 
# High freq. dielectric constant tensor:
#      x y z
#    x 1.773610 0.000000 0.000000 
#    y 0.000000 1.791810 0.000000 
#    z 0.000000 0.000000 1.715370 
# 
# From -- ./inp_files/39799.got.cif
#   From: 2010.03.12/outbox.cif.g09.slc.cpg/sg63_20_cif.got.tgz:39799.got - 2010.04.10 19:34:48.
