data_PCOD8256760
_publ_section_title
;
Structure prediction by ZEFSAII (Michael W. Deem and Ramdas Pophale) SiO2 
 PCOD8256760
Probable space group: C M C M
;
_chemical_formula_sum "Si O2"
_cell_formula_units_Z 96
_cell_length_a 22.850429
_cell_length_b 13.277963
_cell_length_c 18.739063
_cell_angle_alpha 90.000000
_cell_angle_beta 90.000000
_cell_angle_gamma 90.000000
_cell_volume 5685.565713
_symmetry_space_group_name_H-M "C M C M"
_symmetry_group_IT_number 63
_symmetry_cell_setting 'orthorhombic'
loop_
_space_group_symop_operation_xyz
x,y,z
-x,-y,1/2+z
x,-y,-z
-x,y,1/2-z
-x,-y,-z
x,y,1/2-z
-x,y,z
x,-y,1/2+z
1/2+x,1/2+y,z
1/2-x,1/2-y,1/2+z
1/2+x,1/2-y,-z
1/2-x,1/2+y,1/2-z
1/2-x,1/2-y,-z
1/2+x,1/2+y,1/2-z
1/2-x,1/2+y,z
1/2+x,1/2-y,1/2+z
loop_
_atom_site_type_symbol
_atom_site_label
_atom_site_fract_x
_atom_site_fract_y
_atom_site_fract_z
Si Si1 0.253087 0.859766 0.572305
Si Si2 0.765850 0.450487 0.332937
Si Si3 0.564547 0.374694 0.667416
Si Si4 0.833439 0.738855 0.830434
Si Si5 0.815447 0.161251 0.566213
Si Si6 0.434538 0.443783 0.426710
O O1 0.205890 0.802690 0.618153
O O2 0.220717 0.891927 0.498739
O O3 0.306748 0.782106 0.559132
O O4 0.277215 0.954216 0.616522
O O5 0.755337 0.481044 0.250000
O O6 0.823996 0.380721 0.340818
O O7 0.710328 0.385269 0.360398
O O8 0.563922 0.401355 0.750000
O O9 0.500000 0.352884 0.637116
O O10 0.600437 0.272438 0.651870
O O11 0.590099 0.474365 0.629697
O O12 0.816603 0.769770 0.750000
O O13 0.885412 0.142985 0.565361
O O14 0.441425 0.500000 0.500000
O O15 0.500000 0.401819 0.404978
#
# Coordination Sequence:
#
# PCOD8256760 Si02
#       6
#    16  16  16  16  16  16
#     4  10  19  31  47  66  92 122 151 185 226 271
#     4  10  19  30  46  68  92 118 150 188 228 269
#     4   9  17  29  45  65  90 120 152 187 226 266
#     4   9  17  28  44  67  91 117 151 189 228 269
#     4  10  20  32  47  68  92 121 153 184 223 270
#     4  10  19  30  46  68  92 117 146 181 221 265
#
# _framework density 16.884862999999999
#
# number of rings (size 3 to 8) (size 9 to 14) (size 15 to 20)
#    0.000    2.333    0.000    4.000    0.000    2.667 
#    0.000    0.000    0.000    1.000    0.000    0.000 
#    0.000   12.000    0.000    0.000    0.000    0.000 
#
# Total GULP energy -594785.187042 kJ/mol
# GULP energy per Si atom -12391.358063 kJ/mol
# Density = 1.684643 g / cm^3
# Si number density = 16.884863 Si / 1000 Ang^3
#
#
#
# Elastic Constant Matrix: (Units=GPa)
#
#
# Indices 1 2 3 4 5 6 
#
# 1 92.8718 48.6095 34.3123 0.0000 0.0000 0.0000
# 2 48.6095 82.5486 37.6314 0.0000 0.0000 0.0000
# 3 34.3123 37.6314 72.2130 0.0000 0.0000 0.0000
# 4 0.0000 0.0000 0.0000 30.4189 0.0000 0.0000
# 5 0.0000 0.0000 0.0000 0.0000 19.9641 0.0000
# 6 0.0000 0.0000 0.0000 0.0000 0.0000 22.8748
#
#
#
# Elastic Compliance Matrix: (Units=1/GPa)
#
#
# Indices 1 2 3 4 5 6 
#
# 1 0.016243 -0.007930 -0.003585 0.000000 0.000000 0.000000
# 2 -0.007930 0.019761 -0.006529 0.000000 0.000000 0.000000
# 3 -0.003585 -0.006529 0.018954 0.000000 0.000000 0.000000
# 4 0.000000 0.000000 0.000000 0.032874 0.000000 0.000000
# 5 0.000000 0.000000 0.000000 0.000000 0.050090 0.000000
# 6 0.000000 0.000000 0.000000 0.000000 0.000000 0.043716
#
#
# Mechanical properties :
#
#
# Convention : Reuss Voigt Hill
#
# Bulk Modulus (GPa) = 53.00130 54.30441 53.65286
# Shear Modulus (GPa) = 22.31974 23.12357 22.72166
#
# Velocity S-wave (km/s) = 3.63971 3.70467 3.67233
# Velocity P-wave (km/s) = 7.00866 7.10851 7.05876
#
# Compressibility (1/GPa) = 0.01886746
#
# Stress axis : x y z
#
# Youngs Moduli (GPa) = 61.56525 50.60600 52.75931
#
# Poissons Ratio (x) = 0.40133 0.18915
# Poissons Ratio (y) = 0.48824 0.34448
# Poissons Ratio (z) = 0.22073 0.33042
#
# Static dielectric constant tensor:
#      x y z
#    x 3.371140 0.000000 0.000000 
#    y 0.000000 3.336210 0.000000 
#    z 0.000000 0.000000 3.284010 
# 
# 
# High freq. dielectric constant tensor:
#      x y z
#    x 1.630380 0.000000 0.000000 
#    y 0.000000 1.630940 0.000000 
#    z 0.000000 0.000000 1.669560 
# 
# From -- ./inp_files/48948.got.cif
#   From: 2010.03.12/outbox.cif.g09.slc.cpg/sg63_25_cif.got.tgz:48948.got - 2010.04.10 19:34:48.
