data_PCOD8256063
_publ_section_title
;
Structure prediction by ZEFSAII (Michael W. Deem and Ramdas Pophale) SiO2 
 PCOD8256063
Probable space group: C M C M
;
_chemical_formula_sum "Si O2"
_cell_formula_units_Z 112
_cell_length_a 16.867985
_cell_length_b 17.408283
_cell_length_c 20.642092
_cell_angle_alpha 90.000000
_cell_angle_beta 90.000000
_cell_angle_gamma 90.000000
_cell_volume 6061.398731
_symmetry_space_group_name_H-M "C M C M"
_symmetry_group_IT_number 63
_symmetry_cell_setting 'orthorhombic'
loop_
_space_group_symop_operation_xyz
x,y,z
-x,-y,1/2+z
x,-y,-z
-x,y,1/2-z
-x,-y,-z
x,y,1/2-z
-x,y,z
x,-y,1/2+z
1/2+x,1/2+y,z
1/2-x,1/2-y,1/2+z
1/2+x,1/2-y,-z
1/2-x,1/2+y,1/2-z
1/2-x,1/2-y,-z
1/2+x,1/2+y,1/2-z
1/2-x,1/2+y,z
1/2+x,1/2-y,1/2+z
loop_
_atom_site_type_symbol
_atom_site_label
_atom_site_fract_x
_atom_site_fract_y
_atom_site_fract_z
Si Si1 0.086238 0.407254 0.824484
Si Si2 0.408496 0.596928 0.677277
Si Si3 0.406470 0.926815 0.323564
Si Si4 0.828209 0.074756 0.955806
Si Si5 0.409442 0.720183 0.999467
Si Si6 0.149270 0.253733 0.636617
Si Si7 0.697136 0.818981 0.409159
O O1 0.073576 0.426733 0.750000
O O2 0.116928 0.488809 0.853253
O O3 0.147550 0.337679 0.831577
O O4 0.000000 0.384717 0.854413
O O5 0.383018 0.568206 0.750000
O O6 0.500000 0.575790 0.664885
O O7 0.356059 0.558266 0.619243
O O8 0.398844 0.689480 0.676692
O O9 0.377270 0.917345 0.250000
O O10 0.500000 0.914673 0.329643
O O11 0.363959 0.862069 0.364139
O O12 0.744418 0.120101 0.954390
O O13 0.892957 0.129348 0.990138
O O14 0.818953 0.000000 0.000000
O O15 0.500000 0.731828 0.021162
O O16 0.350820 0.756013 0.051374
O O17 0.391639 0.763774 0.932895
O O18 0.240417 0.228199 0.633866
#
# Coordination Sequence:
#
# PCOD8256063 Si02
#       7
#    16  16  16  16  16  16  16
#     4   9  17  30  50  75 101 129 162 203 252 306
#     4   9  17  30  51  79 107 137 176 219 263 316
#     4   9  19  35  53  74 102 139 180 217 259 313
#     4  10  21  36  55  79 110 143 173 213 270 328
#     4  10  20  35  54  74  98 132 174 214 251 303
#     4  10  18  30  49  75 105 130 160 208 266 315
#     4  10  21  34  52  74 102 137 175 216 256 307
#
# _framework density 18.477584
#
# number of rings (size 3 to 8) (size 9 to 14) (size 15 to 20)
#    0.000    2.714    0.000    6.000    0.000    7.429 
#    0.000    0.000    0.000    4.286    0.000    3.000 
#    0.000    0.000    0.000    0.000    0.000    0.000 
#
# Total GULP energy -693917.306544 kJ/mol
# GULP energy per Si atom -12391.380474 kJ/mol
# Density = 1.843553 g / cm^3
# Si number density = 18.477584 Si / 1000 Ang^3
#
#
#
# Elastic Constant Matrix: (Units=GPa)
#
#
# Indices 1 2 3 4 5 6 
#
# 1 64.8920 27.8890 21.2164 0.0000 0.0000 0.0000
# 2 27.8890 77.0422 44.1561 0.0000 0.0000 0.0000
# 3 21.2164 44.1561 70.9422 0.0000 0.0000 0.0000
# 4 0.0000 0.0000 0.0000 27.1797 0.0000 0.0000
# 5 0.0000 0.0000 0.0000 0.0000 21.2457 0.0000
# 6 0.0000 0.0000 0.0000 0.0000 0.0000 14.4580
#
#
#
# Elastic Compliance Matrix: (Units=1/GPa)
#
#
# Indices 1 2 3 4 5 6 
#
# 1 0.018451 -0.005467 -0.002115 0.000000 0.000000 0.000000
# 2 -0.005467 0.021798 -0.011933 0.000000 0.000000 0.000000
# 3 -0.002115 -0.011933 0.022156 0.000000 0.000000 0.000000
# 4 0.000000 0.000000 0.000000 0.036792 0.000000 0.000000
# 5 0.000000 0.000000 0.000000 0.000000 0.047068 0.000000
# 6 0.000000 0.000000 0.000000 0.000000 0.000000 0.069166
#
#
# Mechanical properties :
#
#
# Convention : Reuss Voigt Hill
#
# Bulk Modulus (GPa) = 42.78031 44.37770 43.57900
# Shear Modulus (GPa) = 19.06555 20.55102 19.80828
#
# Velocity S-wave (km/s) = 3.21568 3.33860 3.27772
# Velocity P-wave (km/s) = 6.08196 6.23946 6.16122
#
# Compressibility (1/GPa) = 0.02337524
#
# Stress axis : x y z
#
# Youngs Moduli (GPa) = 54.19644 45.87575 45.13485
#
# Poissons Ratio (x) = 0.25080 0.09548
# Poissons Ratio (y) = 0.29629 0.53858
# Poissons Ratio (z) = 0.11465 0.54742
#
# Static dielectric constant tensor:
#      x y z
#    x 3.336570 0.000000 0.000000 
#    y 0.000000 3.287120 0.000000 
#    z 0.000000 0.000000 3.367020 
# 
# 
# High freq. dielectric constant tensor:
#      x y z
#    x 1.715570 0.000000 0.000000 
#    y 0.000000 1.702050 0.000000 
#    z 0.000000 0.000000 1.703270 
# 
# From -- ./inp_files/55829.got.cif
#   From: 2010.03.12/outbox.cif.g09.slc.cpg/sg63_28_cif.got.tgz:55829.got - 2010.04.10 19:34:48.
