data_PCOD8256253
_publ_section_title
;
Structure prediction by ZEFSAII (Michael W. Deem and Ramdas Pophale) SiO2 
 PCOD8256253
Probable space group: C M C M
;
_chemical_formula_sum "Si O2"
_cell_formula_units_Z 112
_cell_length_a 23.015943
_cell_length_b 11.904348
_cell_length_c 23.355237
_cell_angle_alpha 90.000000
_cell_angle_beta 90.000000
_cell_angle_gamma 90.000000
_cell_volume 6399.096598
_symmetry_space_group_name_H-M "C M C M"
_symmetry_group_IT_number 63
_symmetry_cell_setting 'orthorhombic'
loop_
_space_group_symop_operation_xyz
x,y,z
-x,-y,1/2+z
x,-y,-z
-x,y,1/2-z
-x,-y,-z
x,y,1/2-z
-x,y,z
x,-y,1/2+z
1/2+x,1/2+y,z
1/2-x,1/2-y,1/2+z
1/2+x,1/2-y,-z
1/2-x,1/2+y,1/2-z
1/2-x,1/2-y,-z
1/2+x,1/2+y,1/2-z
1/2-x,1/2+y,z
1/2+x,1/2-y,1/2+z
loop_
_atom_site_type_symbol
_atom_site_label
_atom_site_fract_x
_atom_site_fract_y
_atom_site_fract_z
Si Si1 0.068811 0.685782 0.630694
Si Si2 0.567996 0.124242 0.502468
Si Si3 0.934609 0.727966 0.388828
Si Si4 0.724018 0.817358 0.684459
Si Si5 0.140592 0.121191 0.814849
Si Si6 0.384546 0.039934 0.181906
Si Si7 0.650422 0.360200 0.816596
O O1 0.080072 0.681522 0.563065
O O2 0.104355 0.586840 0.662022
O O3 0.096074 0.802730 0.651719
O O4 0.000000 0.680042 0.645343
O O5 0.500000 0.111507 0.489803
O O6 0.594563 0.198707 0.450651
O O7 0.596343 0.000000 0.500000
O O8 0.905125 0.835416 0.360724
O O9 0.932523 0.619329 0.347360
O O10 0.000000 0.765289 0.398295
O O11 0.734376 0.849510 0.750000
O O12 0.700085 0.691124 0.676693
O O13 0.787915 0.820446 0.655913
O O14 0.678251 0.910856 0.660893
O O15 0.117574 0.140957 0.750000
O O16 0.150032 0.992145 0.827651
O O17 0.390660 0.048561 0.250000
O O18 0.644560 0.329307 0.750000
#
# Coordination Sequence:
#
# PCOD8256253 Si02
#       7
#    16  16  16  16  16  16  16
#     4  11  22  34  51  81 113 142 178 217 272 329
#     4   9  17  33  53  74 102 139 182 222 262 314
#     4  10  18  31  53  77 101 136 179 221 263 308
#     4   8  17  33  53  76 101 135 184 221 253 308
#     4   9  19  34  51  77 107 137 176 218 262 319
#     4  10  19  30  50  81 109 134 169 222 269 312
#     4  10  21  35  53  76 109 148 173 210 269 326
#
# _framework density 17.502469999999999
#
# number of rings (size 3 to 8) (size 9 to 14) (size 15 to 20)
#    0.000    2.429    1.429    2.143    2.000    3.429 
#    0.000    2.143    0.000    6.000    7.429    0.000 
#    0.000    0.000    0.000    0.000    0.000    0.000 
#
# Total GULP energy -694079.820159 kJ/mol
# GULP energy per Si atom -12394.282503 kJ/mol
# Density = 1.746263 g / cm^3
# Si number density = 17.502470 Si / 1000 Ang^3
#
#
#
# Elastic Constant Matrix: (Units=GPa)
#
#
# Indices 1 2 3 4 5 6 
#
# 1 83.4058 49.4029 38.9441 0.0000 0.0000 0.0000
# 2 49.4029 113.2422 47.0128 0.0000 0.0000 0.0000
# 3 38.9441 47.0128 95.5784 0.0000 0.0000 0.0000
# 4 0.0000 0.0000 0.0000 24.2914 0.0000 0.0000
# 5 0.0000 0.0000 0.0000 0.0000 4.7862 0.0000
# 6 0.0000 0.0000 0.0000 0.0000 0.0000 20.9753
#
#
#
# Elastic Compliance Matrix: (Units=1/GPa)
#
#
# Indices 1 2 3 4 5 6 
#
# 1 0.017426 -0.005849 -0.004223 0.000000 0.000000 0.000000
# 2 -0.005849 0.013060 -0.004041 0.000000 0.000000 0.000000
# 3 -0.004223 -0.004041 0.014171 0.000000 0.000000 0.000000
# 4 0.000000 0.000000 0.000000 0.041167 0.000000 0.000000
# 5 0.000000 0.000000 0.000000 0.000000 0.208934 0.000000
# 6 0.000000 0.000000 0.000000 0.000000 0.000000 0.047675
#
#
# Mechanical properties :
#
#
# Convention : Reuss Voigt Hill
#
# Bulk Modulus (GPa) = 60.86107 62.54956 61.70531
# Shear Modulus (GPa) = 13.29308 20.46835 16.88071
#
# Velocity S-wave (km/s) = 2.75889 3.42344 3.10897
# Velocity P-wave (km/s) = 6.70798 7.17229 6.94401
#
# Compressibility (1/GPa) = 0.01643087
#
# Stress axis : x y z
#
# Youngs Moduli (GPa) = 57.38550 76.57125 70.56681
#
# Poissons Ratio (x) = 0.44786 0.29803
# Poissons Ratio (y) = 0.33564 0.28513
# Poissons Ratio (z) = 0.24236 0.30939
#
# Static dielectric constant tensor:
#      x y z
#    x 3.237320 0.000000 0.000000 
#    y 0.000000 3.183640 0.000000 
#    z 0.000000 0.000000 3.237600 
# 
# 
# High freq. dielectric constant tensor:
#      x y z
#    x 1.661500 0.000000 0.000000 
#    y 0.000000 1.673290 0.000000 
#    z 0.000000 0.000000 1.660350 
# 
# From -- ./inp_files/65096.got.cif
#   From: 2010.03.12/outbox.cif.g09.slc.cpg/sg63_33_cif.got.tgz:65096.got - 2010.04.10 19:34:48.
