data_PCOD8256947
_publ_section_title
;
Structure prediction by ZEFSAII (Michael W. Deem and Ramdas Pophale) SiO2 
 PCOD8256947
Probable space group: C M C M
;
_chemical_formula_sum "Si O2"
_cell_formula_units_Z 80
_cell_length_a 13.012014
_cell_length_b 12.899650
_cell_length_c 27.722104
_cell_angle_alpha 90.000000
_cell_angle_beta 90.000000
_cell_angle_gamma 90.000000
_cell_volume 4653.166977
_symmetry_space_group_name_H-M "C M C M"
_symmetry_group_IT_number 63
_symmetry_cell_setting 'orthorhombic'
loop_
_space_group_symop_operation_xyz
x,y,z
-x,-y,1/2+z
x,-y,-z
-x,y,1/2-z
-x,-y,-z
x,y,1/2-z
-x,y,z
x,-y,1/2+z
1/2+x,1/2+y,z
1/2-x,1/2-y,1/2+z
1/2+x,1/2-y,-z
1/2-x,1/2+y,1/2-z
1/2-x,1/2-y,-z
1/2+x,1/2+y,1/2-z
1/2-x,1/2+y,z
1/2+x,1/2-y,1/2+z
loop_
_atom_site_type_symbol
_atom_site_label
_atom_site_fract_x
_atom_site_fract_y
_atom_site_fract_z
Si Si1 0.619804 0.328791 0.039980
Si Si2 0.380228 0.590804 0.304767
Si Si3 0.119198 0.277178 0.372242
Si Si4 0.262023 0.353706 0.552602
Si Si5 0.773143 0.044682 0.882033
O O1 0.500000 0.332014 0.028105
O O2 0.656892 0.209492 0.043656
O O3 0.640975 0.388137 0.090089
O O4 0.683968 0.385584 0.997593
O O5 0.340329 0.589803 0.250000
O O6 0.500000 0.565084 0.308169
O O7 0.357684 0.704516 0.326251
O O8 0.321642 0.501737 0.333786
O O9 0.155580 0.218645 0.420224
O O10 0.177882 0.385248 0.365622
O O11 0.000000 0.303192 0.377483
O O12 0.231914 0.454540 0.582907
#
# Coordination Sequence:
#
# PCOD8256947 Si02
#       5
#    16  16  16  16  16
#     4  10  19  31  48  69  96 129 161 192 228 275
#     4   9  18  33  51  70  93 120 151 191 238 283
#     4   9  18  32  49  69  94 124 157 192 232 280
#     4   9  19  32  45  68  99 127 157 193 233 273
#     4  10  19  31  49  73  95 120 157 197 233 273
#
# _framework density 17.192591
#
# number of rings (size 3 to 8) (size 9 to 14) (size 15 to 20)
#    0.000    2.600    0.000    1.800    0.000    4.800 
#    0.000    0.000    0.000    7.200    0.000    0.000 
#    0.000    0.000    0.000    0.000    0.000    0.000 
#
# Total GULP energy -496053.535067 kJ/mol
# GULP energy per Si atom -12401.338377 kJ/mol
# Density = 1.715346 g / cm^3
# Si number density = 17.192591 Si / 1000 Ang^3
#
#
#
# Elastic Constant Matrix: (Units=GPa)
#
#
# Indices 1 2 3 4 5 6 
#
# 1 73.8486 55.6983 37.4294 0.0000 0.0000 0.0000
# 2 55.6983 102.3222 44.6754 0.0000 0.0000 0.0000
# 3 37.4294 44.6754 108.4456 0.0000 0.0000 0.0000
# 4 0.0000 0.0000 0.0000 22.5958 0.0000 0.0000
# 5 0.0000 0.0000 0.0000 0.0000 21.2997 0.0000
# 6 0.0000 0.0000 0.0000 0.0000 0.0000 25.2214
#
#
#
# Elastic Compliance Matrix: (Units=1/GPa)
#
#
# Indices 1 2 3 4 5 6 
#
# 1 0.024040 -0.011539 -0.003544 0.000000 0.000000 0.000000
# 2 -0.011539 0.017455 -0.003208 0.000000 0.000000 0.000000
# 3 -0.003544 -0.003208 0.011766 0.000000 0.000000 0.000000
# 4 0.000000 0.000000 0.000000 0.044256 0.000000 0.000000
# 5 0.000000 0.000000 0.000000 0.000000 0.046949 0.000000
# 6 0.000000 0.000000 0.000000 0.000000 0.000000 0.039649
#
#
# Mechanical properties :
#
#
# Convention : Reuss Voigt Hill
#
# Bulk Modulus (GPa) = 59.95397 62.24697 61.10047
# Shear Modulus (GPa) = 22.09884 23.61093 22.85488
#
# Velocity S-wave (km/s) = 3.58909 3.70985 3.64997
# Velocity P-wave (km/s) = 7.21964 7.39155 7.30610
#
# Compressibility (1/GPa) = 0.01667946
#
# Stress axis : x y z
#
# Youngs Moduli (GPa) = 41.59704 57.29070 84.99086
#
# Poissons Ratio (x) = 0.66107 0.30119
# Poissons Ratio (y) = 0.47998 0.27267
# Poissons Ratio (z) = 0.14741 0.18380
#
# Static dielectric constant tensor:
#      x y z
#    x 3.017250 0.000000 0.000000 
#    y 0.000000 3.230940 0.000000 
#    z 0.000000 0.000000 3.278670 
# 
# 
# High freq. dielectric constant tensor:
#      x y z
#    x 1.648280 0.000000 0.000000 
#    y 0.000000 1.665570 0.000000 
#    z 0.000000 0.000000 1.664880 
# 
# From -- ./inp_files/68080.got.cif
#   From: 2010.03.12/outbox.cif.g09.slc.cpg/sg63_35_cif.got.tgz:68080.got - 2010.04.10 19:34:48.
