data_PCOD8256672
_publ_section_title
;
Structure prediction by ZEFSAII (Michael W. Deem and Ramdas Pophale) SiO2 
 PCOD8256672
Probable space group: C M C M
;
_chemical_formula_sum "Si O2"
_cell_formula_units_Z 96
_cell_length_a 9.300867
_cell_length_b 27.633306
_cell_length_c 23.308130
_cell_angle_alpha 90.000000
_cell_angle_beta 90.000000
_cell_angle_gamma 90.000000
_cell_volume 5990.508822
_symmetry_space_group_name_H-M "C M C M"
_symmetry_group_IT_number 63
_symmetry_cell_setting 'orthorhombic'
loop_
_space_group_symop_operation_xyz
x,y,z
-x,-y,1/2+z
x,-y,-z
-x,y,1/2-z
-x,-y,-z
x,y,1/2-z
-x,y,z
x,-y,1/2+z
1/2+x,1/2+y,z
1/2-x,1/2-y,1/2+z
1/2+x,1/2-y,-z
1/2-x,1/2+y,1/2-z
1/2-x,1/2-y,-z
1/2+x,1/2+y,1/2-z
1/2-x,1/2+y,z
1/2+x,1/2-y,1/2+z
loop_
_atom_site_type_symbol
_atom_site_label
_atom_site_fract_x
_atom_site_fract_y
_atom_site_fract_z
Si Si1 0.664942 0.429995 0.684089
Si Si2 0.833586 0.180480 0.316336
Si Si3 0.669791 0.018373 0.088721
Si Si4 0.167634 0.735719 0.412206
Si Si5 0.830066 0.426349 0.477971
Si Si6 0.667819 0.818275 0.471046
O O1 0.689061 0.443576 0.750000
O O2 0.500000 0.436281 0.666487
O O3 0.713506 0.374869 0.672667
O O4 0.758693 0.467500 0.648273
O O5 0.809305 0.194192 0.250000
O O6 0.734576 0.214893 0.354240
O O7 0.000000 0.187802 0.333163
O O8 0.500000 0.023063 0.095497
O O9 0.713740 0.963177 0.072890
O O10 0.728733 0.053858 0.038746
O O11 0.242879 0.786557 0.426221
O O12 0.195777 0.698427 0.463864
O O13 0.000000 0.745076 0.402249
O O14 0.771011 0.372793 0.465180
O O15 0.000000 0.424073 0.483615
O O16 0.500000 0.814199 0.455222
#
# Coordination Sequence:
#
# PCOD8256672 Si02
#       6
#    16  16  16  16  16  16
#     4   9  18  31  45  64  92 121 146 176 218 266
#     4   9  18  32  48  65  88 120 151 177 215 270
#     4   9  16  28  47  69  91 115 147 185 220 255
#     4  10  19  29  45  70  93 114 146 188 227 259
#     4   8  15  28  46  67  91 119 148 180 218 259
#     4   9  17  30  46  64  91 125 152 175 215 270
#
# _framework density 16.02535
#
# number of rings (size 3 to 8) (size 9 to 14) (size 15 to 20)
#    0.000    3.000    0.000    3.500    0.000    3.333 
#    0.000    5.000    0.000    1.000    0.000    2.333 
#    0.000    0.000    0.000    0.000    0.000    0.000 
#
# Total GULP energy -595113.708871 kJ/mol
# GULP energy per Si atom -12398.202268 kJ/mol
# Density = 1.598888 g / cm^3
# Si number density = 16.025350 Si / 1000 Ang^3
#
#
#
# Elastic Constant Matrix: (Units=GPa)
#
#
# Indices 1 2 3 4 5 6 
#
# 1 59.5827 49.0399 44.8918 0.0000 0.0000 0.0000
# 2 49.0399 134.9674 57.4544 0.0000 0.0000 0.0000
# 3 44.8918 57.4544 82.7292 0.0000 0.0000 0.0000
# 4 0.0000 0.0000 0.0000 28.4641 0.0000 0.0000
# 5 0.0000 0.0000 0.0000 0.0000 27.6464 0.0000
# 6 0.0000 0.0000 0.0000 0.0000 0.0000 21.4379
#
#
#
# Elastic Compliance Matrix: (Units=1/GPa)
#
#
# Indices 1 2 3 4 5 6 
#
# 1 0.031381 -0.005897 -0.012933 0.000000 0.000000 0.000000
# 2 -0.005897 0.011627 -0.004875 0.000000 0.000000 0.000000
# 3 -0.012933 -0.004875 0.022491 0.000000 0.000000 0.000000
# 4 0.000000 0.000000 0.000000 0.035132 0.000000 0.000000
# 5 0.000000 0.000000 0.000000 0.000000 0.036171 0.000000
# 6 0.000000 0.000000 0.000000 0.000000 0.000000 0.046646
#
#
# Mechanical properties :
#
#
# Convention : Reuss Voigt Hill
#
# Bulk Modulus (GPa) = 55.28108 64.45019 59.86564
# Shear Modulus (GPa) = 21.10692 23.90255 22.50473
#
# Velocity S-wave (km/s) = 3.63312 3.86624 3.75149
# Velocity P-wave (km/s) = 7.22290 7.76115 7.49686
#
# Compressibility (1/GPa) = 0.01808937
#
# Stress axis : x y z
#
# Youngs Moduli (GPa) = 31.86626 86.00681 44.46124
#
# Poissons Ratio (x) = 0.50715 0.57504
# Poissons Ratio (y) = 0.18790 0.21675
# Poissons Ratio (z) = 0.41214 0.41929
#
# Static dielectric constant tensor:
#      x y z
#    x 2.852700 0.000000 0.000000 
#    y 0.000000 3.200320 0.000000 
#    z 0.000000 0.000000 2.873000 
# 
# 
# High freq. dielectric constant tensor:
#      x y z
#    x 1.602380 0.000000 0.000000 
#    y 0.000000 1.612010 0.000000 
#    z 0.000000 0.000000 1.603620 
# 
# From -- ./inp_files/51321.got.cif
#   From: 2010.03.12/outbox.cif.g09.slc.cpg/sg63_26_cif.got.tgz:51321.got - 2010.04.10 19:34:48.
