data_PCOD8256638
_publ_section_title
;
Structure prediction by ZEFSAII (Michael W. Deem and Ramdas Pophale) SiO2 
 PCOD8256638
Probable space group: C M C M
;
_chemical_formula_sum "Si O2"
_cell_formula_units_Z 80
_cell_length_a 16.636915
_cell_length_b 17.297292
_cell_length_c 14.372305
_cell_angle_alpha 90.000000
_cell_angle_beta 90.000000
_cell_angle_gamma 90.000000
_cell_volume 4135.969616
_symmetry_space_group_name_H-M "C M C M"
_symmetry_group_IT_number 63
_symmetry_cell_setting 'orthorhombic'
loop_
_space_group_symop_operation_xyz
x,y,z
-x,-y,1/2+z
x,-y,-z
-x,y,1/2-z
-x,-y,-z
x,y,1/2-z
-x,y,z
x,-y,1/2+z
1/2+x,1/2+y,z
1/2-x,1/2-y,1/2+z
1/2+x,1/2-y,-z
1/2-x,1/2+y,1/2-z
1/2-x,1/2-y,-z
1/2+x,1/2+y,1/2-z
1/2-x,1/2+y,z
1/2+x,1/2-y,1/2+z
loop_
_atom_site_type_symbol
_atom_site_label
_atom_site_fract_x
_atom_site_fract_y
_atom_site_fract_z
Si Si1 0.410314 0.027847 0.639134
Si Si2 0.905692 0.771498 0.145036
Si Si3 0.405496 0.804359 0.148152
Si Si4 0.817701 0.810070 0.976801
Si Si5 0.193085 0.385279 0.641748
O O1 0.413595 0.025522 0.750000
O O2 0.500000 0.013290 0.599372
O O3 0.376032 0.112246 0.607400
O O4 0.352346 0.960530 0.601681
O O5 0.890604 0.801358 0.250000
O O6 0.866201 0.687586 0.129468
O O7 0.000000 0.764277 0.123878
O O8 0.863460 0.832773 0.073452
O O9 0.366335 0.790762 0.250000
O O10 0.500000 0.810318 0.158247
O O11 0.384112 0.732283 0.085109
O O12 0.775514 0.879008 0.919036
O O13 0.750000 0.750000 0.000000
O O14 0.216940 0.394847 0.750000
#
# Coordination Sequence:
#
# PCOD8256638 Si02
#       5
#    16  16  16  16  16
#     4   8  14  26  46  72 101 133 164 190 223 276
#     4   9  17  29  44  60  82 118 162 204 242 279
#     4   9  17  30  49  72 100 133 163 192 231 283
#     4  10  19  29  42  65  97 129 159 195 240 288
#     4   9  16  27  45  69  98 127 154 191 237 287
#
# _framework density 19.342502
#
# number of rings (size 3 to 8) (size 9 to 14) (size 15 to 20)
#    0.000    3.000    0.000    3.000    0.000    3.200 
#    0.000    4.000    0.000   10.800    0.000    1.400 
#    0.000   35.200    0.000  122.000    0.000    0.000 
#
# Total GULP energy -495594.506130 kJ/mol
# GULP energy per Si atom -12389.862653 kJ/mol
# Density = 1.929848 g / cm^3
# Si number density = 19.342502 Si / 1000 Ang^3
#
#
#
# Elastic Constant Matrix: (Units=GPa)
#
#
# Indices 1 2 3 4 5 6 
#
# 1 79.5145 33.6150 52.1971 0.0000 0.0000 0.0000
# 2 33.6150 55.8075 25.7515 0.0000 0.0000 0.0000
# 3 52.1971 25.7515 91.5386 0.0000 0.0000 0.0000
# 4 0.0000 0.0000 0.0000 5.9995 0.0000 0.0000
# 5 0.0000 0.0000 0.0000 0.0000 28.1279 0.0000
# 6 0.0000 0.0000 0.0000 0.0000 0.0000 23.1300
#
#
#
# Elastic Compliance Matrix: (Units=1/GPa)
#
#
# Indices 1 2 3 4 5 6 
#
# 1 0.023601 -0.009200 -0.010870 0.000000 0.000000 0.000000
# 2 -0.009200 0.024178 -0.001556 0.000000 0.000000 0.000000
# 3 -0.010870 -0.001556 0.017560 0.000000 0.000000 0.000000
# 4 0.000000 0.000000 0.000000 0.166679 0.000000 0.000000
# 5 0.000000 0.000000 0.000000 0.000000 0.035552 0.000000
# 6 0.000000 0.000000 0.000000 0.000000 0.000000 0.043234
#
#
# Mechanical properties :
#
#
# Convention : Reuss Voigt Hill
#
# Bulk Modulus (GPa) = 45.27262 49.99864 47.63563
# Shear Modulus (GPa) = 13.83439 19.13795 16.48617
#
# Velocity S-wave (km/s) = 2.67729 3.14892 2.92263
# Velocity P-wave (km/s) = 5.74576 6.25509 6.00583
#
# Compressibility (1/GPa) = 0.02208840
#
# Stress axis : x y z
#
# Youngs Moduli (GPa) = 42.37095 41.35960 56.94744
#
# Poissons Ratio (x) = 0.38052 0.61900
# Poissons Ratio (y) = 0.38982 0.08859
# Poissons Ratio (z) = 0.46056 0.06434
#
# Static dielectric constant tensor:
#      x y z
#    x 3.643200 0.000000 0.000000 
#    y 0.000000 2.838670 0.000000 
#    z 0.000000 0.000000 3.758220 
# 
# 
# High freq. dielectric constant tensor:
#      x y z
#    x 1.739700 0.000000 0.000000 
#    y 0.000000 1.696600 0.000000 
#    z 0.000000 0.000000 1.770620 
# 
# From -- ./inp_files/33836.got.cif
#   From: 2010.03.12/outbox.cif.g09.slc.cpg/sg63_17_cif.got.tgz:33836.got - 2010.04.10 19:34:48.
