data_PCOD8256327
_publ_section_title
;
Structure prediction by ZEFSAII (Michael W. Deem and Ramdas Pophale) SiO2 
 PCOD8256327
Probable space group: C M C M
;
_chemical_formula_sum "Si O2"
_cell_formula_units_Z 80
_cell_length_a 8.920596
_cell_length_b 25.543087
_cell_length_c 19.695235
_cell_angle_alpha 90.000000
_cell_angle_beta 90.000000
_cell_angle_gamma 90.000000
_cell_volume 4487.747576
_symmetry_space_group_name_H-M "C M C M"
_symmetry_group_IT_number 63
_symmetry_cell_setting 'orthorhombic'
loop_
_space_group_symop_operation_xyz
x,y,z
-x,-y,1/2+z
x,-y,-z
-x,y,1/2-z
-x,-y,-z
x,y,1/2-z
-x,y,z
x,-y,1/2+z
1/2+x,1/2+y,z
1/2-x,1/2-y,1/2+z
1/2+x,1/2-y,-z
1/2-x,1/2+y,1/2-z
1/2-x,1/2-y,-z
1/2+x,1/2+y,1/2-z
1/2-x,1/2+y,z
1/2+x,1/2-y,1/2+z
loop_
_atom_site_type_symbol
_atom_site_label
_atom_site_fract_x
_atom_site_fract_y
_atom_site_fract_z
Si Si1 0.677649 0.343233 0.605254
Si Si2 0.826966 0.019504 0.923705
Si Si3 0.327583 0.062055 0.327768
Si Si4 0.174806 0.868124 0.454716
Si Si5 0.675780 0.256071 0.072627
O O1 0.500000 0.338854 0.608540
O O2 0.733836 0.385232 0.659396
O O3 0.739439 0.360156 0.530851
O O4 0.746851 0.285711 0.623302
O O5 0.762651 0.079155 0.919772
O O6 0.000000 0.015199 0.900826
O O7 0.728453 0.985615 0.873243
O O8 0.806926 0.000000 0.000000
O O9 0.304885 0.045580 0.250000
O O10 0.500000 0.073489 0.344907
O O11 0.205222 0.817165 0.406871
O O12 0.000000 0.877563 0.465755
O O13 0.500000 0.244532 0.068114
O O14 0.750000 0.250000 0.000000
#
# Coordination Sequence:
#
# PCOD8256327 Si02
#       5
#    16  16  16  16  16
#     4  10  18  32  52  74 102 135 174 218 265 317
#     4  10  18  33  56  79 105 138 177 221 263 313
#     4  11  24  38  51  74 108 142 177 221 272 325
#     4   8  15  28  48  76 106 134 165 210 260 307
#     4   9  16  27  45  73 107 138 168 206 256 310
#
# _framework density 17.826315000000001
#
# number of rings (size 3 to 8) (size 9 to 14) (size 15 to 20)
#    0.000    2.400    2.000    3.000    0.000    2.000 
#    0.000    2.000    0.000    1.200    0.000    2.800 
#    0.000    0.000    0.000    0.000    0.000    0.000 
#
# Total GULP energy -495716.550666 kJ/mol
# GULP energy per Si atom -12392.913767 kJ/mol
# Density = 1.778574 g / cm^3
# Si number density = 17.826315 Si / 1000 Ang^3
#
#
#
# Elastic Constant Matrix: (Units=GPa)
#
#
# Indices 1 2 3 4 5 6 
#
# 1 89.6299 54.7281 30.9936 0.0000 0.0000 0.0000
# 2 54.7281 163.6279 35.7849 0.0000 0.0000 0.0000
# 3 30.9936 35.7849 50.8759 0.0000 0.0000 0.0000
# 4 0.0000 0.0000 0.0000 18.4021 0.0000 0.0000
# 5 0.0000 0.0000 0.0000 0.0000 19.6591 0.0000
# 6 0.0000 0.0000 0.0000 0.0000 0.0000 32.8656
#
#
#
# Elastic Compliance Matrix: (Units=1/GPa)
#
#
# Indices 1 2 3 4 5 6 
#
# 1 0.015894 -0.003780 -0.007024 0.000000 0.000000 0.000000
# 2 -0.003780 0.008121 -0.003410 0.000000 0.000000 0.000000
# 3 -0.007024 -0.003410 0.026333 0.000000 0.000000 0.000000
# 4 0.000000 0.000000 0.000000 0.054342 0.000000 0.000000
# 5 0.000000 0.000000 0.000000 0.000000 0.050867 0.000000
# 6 0.000000 0.000000 0.000000 0.000000 0.000000 0.030427
#
#
# Mechanical properties :
#
#
# Convention : Reuss Voigt Hill
#
# Bulk Modulus (GPa) = 45.61777 60.79413 53.20595
# Shear Modulus (GPa) = 22.55123 26.36050 24.45586
#
# Velocity S-wave (km/s) = 3.56062 3.84961 3.70793
# Velocity P-wave (km/s) = 6.52301 7.34418 6.94574
#
# Compressibility (1/GPa) = 0.02192128
#
# Stress axis : x y z
#
# Youngs Moduli (GPa) = 62.91765 123.13222 37.97527
#
# Poissons Ratio (x) = 0.46542 0.26673
# Poissons Ratio (y) = 0.23782 0.12948
# Poissons Ratio (z) = 0.44192 0.41984
#
# Static dielectric constant tensor:
#      x y z
#    x 3.273550 0.000000 0.000000 
#    y 0.000000 4.050850 0.000000 
#    z 0.000000 0.000000 3.025420 
# 
# 
# High freq. dielectric constant tensor:
#      x y z
#    x 1.682860 0.000000 0.000000 
#    y 0.000000 1.715530 0.000000 
#    z 0.000000 0.000000 1.632320 
# 
# From -- ./inp_files/40413.got.cif
#   From: 2010.03.12/outbox.cif.g09.slc.cpg/sg63_21_cif.got.tgz:40413.got - 2010.04.10 19:34:48.
