data_PCOD8256159
_publ_section_title
;
Structure prediction by ZEFSAII (Michael W. Deem and Ramdas Pophale) SiO2 
 PCOD8256159
Probable space group: C M C M
;
_chemical_formula_sum "Si O2"
_cell_formula_units_Z 80
_cell_length_a 27.222945
_cell_length_b 26.139452
_cell_length_c 7.541419
_cell_angle_alpha 90.000000
_cell_angle_beta 90.000000
_cell_angle_gamma 90.000000
_cell_volume 5366.419946
_symmetry_space_group_name_H-M "C M C M"
_symmetry_group_IT_number 63
_symmetry_cell_setting 'orthorhombic'
loop_
_space_group_symop_operation_xyz
x,y,z
-x,-y,1/2+z
x,-y,-z
-x,y,1/2-z
-x,-y,-z
x,y,1/2-z
-x,y,z
x,-y,1/2+z
1/2+x,1/2+y,z
1/2-x,1/2-y,1/2+z
1/2+x,1/2-y,-z
1/2-x,1/2+y,1/2-z
1/2-x,1/2-y,-z
1/2+x,1/2+y,1/2-z
1/2-x,1/2+y,z
1/2+x,1/2-y,1/2+z
loop_
_atom_site_type_symbol
_atom_site_label
_atom_site_fract_x
_atom_site_fract_y
_atom_site_fract_z
Si Si1 0.715576 0.297216 0.044012
Si Si2 0.874219 0.442181 0.043157
Si Si3 0.443605 0.099808 0.250000
Si Si4 0.443567 0.221209 0.250000
Si Si5 0.805352 0.646717 0.541552
Si Si6 0.872329 0.261380 0.449424
O O1 0.703706 0.301858 0.250000
O O2 0.748573 0.345917 0.974862
O O3 0.750000 0.250000 0.000000
O O4 0.663061 0.289096 0.948310
O O5 0.887753 0.434834 0.250000
O O6 0.826312 0.408744 0.989000
O O7 0.859906 0.500000 0.000000
O O8 0.920284 0.424169 0.927409
O O9 0.500000 0.082926 0.250000
O O10 0.437604 0.160304 0.250000
O O11 0.500000 0.237777 0.250000
O O12 0.419307 0.245925 0.425222
O O13 0.804511 0.655618 0.750000
O O14 0.841941 0.690627 0.468130
O O15 0.891323 0.271384 0.250000
#
# Coordination Sequence:
#
# PCOD8256159 Si02
#       6
#    16  16   8   8  16  16
#     4   9  15  25  43  67  87 112 136 167 214 258
#     4  11  21  36  50  65  85 110 142 187 233 272
#     4  11  24  38  50  63  76 108 152 193 238 267
#     4  11  22  34  50  65  84 118 150 181 228 267
#     4   8  16  28  45  65  87 110 138 175 218 263
#     4  10  18  31  46  65  91 110 139 182 216 255
#
# _framework density 14.907518
#
# number of rings (size 3 to 8) (size 9 to 14) (size 15 to 20)
#    0.000    2.200    4.000    1.800    0.000    1.200 
#    1.800    2.000    0.000    0.000    0.000    0.000 
#    0.000    0.000    0.000    0.000    0.000    1.000 
#
# Total GULP energy -495588.252639 kJ/mol
# GULP energy per Si atom -12389.706316 kJ/mol
# Density = 1.487359 g / cm^3
# Si number density = 14.907518 Si / 1000 Ang^3
#
#
#
# Elastic Constant Matrix: (Units=GPa)
#
#
# Indices 1 2 3 4 5 6 
#
# 1 112.4474 54.8180 41.5082 0.0000 0.0000 0.0000
# 2 54.8180 55.1454 21.3790 0.0000 0.0000 0.0000
# 3 41.5082 21.3790 82.4492 0.0000 0.0000 0.0000
# 4 0.0000 0.0000 0.0000 11.4950 0.0000 0.0000
# 5 0.0000 0.0000 0.0000 0.0000 18.9222 0.0000
# 6 0.0000 0.0000 0.0000 0.0000 0.0000 20.0677
#
#
#
# Elastic Compliance Matrix: (Units=1/GPa)
#
#
# Indices 1 2 3 4 5 6 
#
# 1 0.019076 -0.016943 -0.005210 0.000000 0.000000 0.000000
# 2 -0.016943 0.035209 -0.000600 0.000000 0.000000 0.000000
# 3 -0.005210 -0.000600 0.014907 0.000000 0.000000 0.000000
# 4 0.000000 0.000000 0.000000 0.086994 0.000000 0.000000
# 5 0.000000 0.000000 0.000000 0.000000 0.052848 0.000000
# 6 0.000000 0.000000 0.000000 0.000000 0.000000 0.049831
#
#
# Mechanical properties :
#
#
# Convention : Reuss Voigt Hill
#
# Bulk Modulus (GPa) = 42.21920 53.93917 48.07919
# Shear Modulus (GPa) = 16.01195 18.91944 17.46570
#
# Velocity S-wave (km/s) = 3.28088 3.56634 3.42658
# Velocity P-wave (km/s) = 6.53716 7.29516 6.92654
#
# Compressibility (1/GPa) = 0.02368591
#
# Stress axis : x y z
#
# Youngs Moduli (GPa) = 52.42207 28.40215 67.08105
#
# Poissons Ratio (x) = 0.48121 0.34952
# Poissons Ratio (y) = 0.88817 0.04024
# Poissons Ratio (z) = 0.27314 0.01704
#
# Static dielectric constant tensor:
#      x y z
#    x 3.001570 0.000000 0.000000 
#    y 0.000000 2.803900 0.000000 
#    z 0.000000 0.000000 2.972250 
# 
# 
# High freq. dielectric constant tensor:
#      x y z
#    x 1.553000 0.000000 0.000000 
#    y 0.000000 1.523160 0.000000 
#    z 0.000000 0.000000 1.584620 
# 
# From -- ./inp_files/10644.got.cif
#   From: 2010.03.12/outbox.cif.g09.slc.cpg/sg63_6_cif.got.tgz:10644.got - 2010.04.10 19:34:48.
