data_PCOD8256391
_publ_section_title
;
Structure prediction by ZEFSAII (Michael W. Deem and Ramdas Pophale) SiO2 
 PCOD8256391
Probable space group: C M C M
;
_chemical_formula_sum "Si O2"
_cell_formula_units_Z 96
_cell_length_a 8.403887
_cell_length_b 25.099677
_cell_length_c 23.857776
_cell_angle_alpha 90.000000
_cell_angle_beta 90.000000
_cell_angle_gamma 90.000000
_cell_volume 5032.436384
_symmetry_space_group_name_H-M "C M C M"
_symmetry_group_IT_number 63
_symmetry_cell_setting 'orthorhombic'
loop_
_space_group_symop_operation_xyz
x,y,z
-x,-y,1/2+z
x,-y,-z
-x,y,1/2-z
-x,-y,-z
x,y,1/2-z
-x,y,z
x,-y,1/2+z
1/2+x,1/2+y,z
1/2-x,1/2-y,1/2+z
1/2+x,1/2-y,-z
1/2-x,1/2+y,1/2-z
1/2-x,1/2-y,-z
1/2+x,1/2+y,1/2-z
1/2-x,1/2+y,z
1/2+x,1/2-y,1/2+z
loop_
_atom_site_type_symbol
_atom_site_label
_atom_site_fract_x
_atom_site_fract_y
_atom_site_fract_z
Si Si1 0.186784 0.607353 0.750000
Si Si2 0.688749 0.831064 0.060880
Si Si3 0.186752 0.765509 0.636757
Si Si4 0.310322 0.929665 0.132422
Si Si5 0.310759 0.144641 0.062623
Si Si6 0.310964 0.975766 0.942339
Si Si7 0.184033 0.224350 0.750000
O O1 0.260366 0.579401 0.694746
O O2 0.216396 0.670184 0.750000
O O3 0.000000 0.598489 0.750000
O O4 0.500000 0.833050 0.061524
O O5 0.751431 0.778668 0.092814
O O6 0.756697 0.883164 0.092238
O O7 0.748482 0.831187 0.996752
O O8 0.227621 0.823379 0.612563
O O9 0.274607 0.759218 0.695723
O O10 0.000000 0.759110 0.646773
O O11 0.500000 0.926331 0.133430
O O12 0.253560 0.986871 0.109051
O O13 0.500000 0.148295 0.068761
O O14 0.248809 0.083948 0.067440
O O15 0.500000 0.974860 0.946670
O O16 0.241367 0.000000 0.000000
O O17 0.000000 0.209434 0.750000
#
# Coordination Sequence:
#
# PCOD8256391 Si02
#       7
#     8  16  16  16  16  16   8
#     4  10  18  32  55  78 107 137 172 220 270 329
#     4   9  16  28  51  79 108 139 178 223 267 318
#     4  11  22  37  55  77 108 147 183 217 270 337
#     4   9  15  26  48  79 105 135 180 223 267 319
#     4  10  19  32  52  82 114 144 181 230 272 310
#     4   9  15  26  48  77 108 141 179 225 270 311
#     4  12  24  38  57  80 105 135 178 230 274 319
#
# _framework density 19.076248
#
# number of rings (size 3 to 8) (size 9 to 14) (size 15 to 20)
#    0.000    2.167    3.333    1.750    0.000    0.000 
#    0.000    1.667    0.000    4.500    0.000    0.000 
#    0.000    0.000    0.000    0.000    0.000    0.000 
#
# Total GULP energy -595152.764534 kJ/mol
# GULP energy per Si atom -12399.015928 kJ/mol
# Density = 1.903283 g / cm^3
# Si number density = 19.076248 Si / 1000 Ang^3
#
#
#
# Elastic Constant Matrix: (Units=GPa)
#
#
# Indices 1 2 3 4 5 6 
#
# 1 17.0214 3.6790 7.1423 0.0000 0.0000 0.0000
# 2 3.6790 140.5733 70.1278 0.0000 0.0000 0.0000
# 3 7.1423 70.1278 153.0131 0.0000 0.0000 0.0000
# 4 0.0000 0.0000 0.0000 36.7892 0.0000 0.0000
# 5 0.0000 0.0000 0.0000 0.0000 14.2850 0.0000
# 6 0.0000 0.0000 0.0000 0.0000 0.0000 15.6836
#
#
#
# Elastic Compliance Matrix: (Units=1/GPa)
#
#
# Indices 1 2 3 4 5 6 
#
# 1 0.059929 -0.000224 -0.002695 0.000000 0.000000 0.000000
# 2 -0.000224 0.009223 -0.004217 0.000000 0.000000 0.000000
# 3 -0.002695 -0.004217 0.008594 0.000000 0.000000 0.000000
# 4 0.000000 0.000000 0.000000 0.027182 0.000000 0.000000
# 5 0.000000 0.000000 0.000000 0.000000 0.070003 0.000000
# 6 0.000000 0.000000 0.000000 0.000000 0.000000 0.063761
#
#
# Mechanical properties :
#
#
# Convention : Reuss Voigt Hill
#
# Bulk Modulus (GPa) = 15.75430 52.50069 34.12749
# Shear Modulus (GPa) = 18.24013 28.66213 23.45113
#
# Velocity S-wave (km/s) = 3.09555 3.88042 3.50999
# Velocity P-wave (km/s) = 4.58837 6.90349 5.86137
#
# Compressibility (1/GPa) = 0.06347474
#
# Stress axis : x y z
#
# Youngs Moduli (GPa) = 16.68650 108.42298 116.36431
#
# Poissons Ratio (x) = 0.02430 0.31356
# Poissons Ratio (y) = 0.00374 0.49066
# Poissons Ratio (z) = 0.04496 0.45718
#
# Static dielectric constant tensor:
#      x y z
#    x 2.928550 0.000000 0.000000 
#    y 0.000000 3.592790 0.000000 
#    z 0.000000 0.000000 3.765090 
# 
# 
# High freq. dielectric constant tensor:
#      x y z
#    x 1.689620 0.000000 0.000000 
#    y 0.000000 1.741740 0.000000 
#    z 0.000000 0.000000 1.747940 
# 
# From -- ./inp_files/60033.got.cif
#   From: 2010.03.12/outbox.cif.g09.slc.cpg/sg63_31_cif.got.tgz:60033.got - 2010.04.10 19:34:48.
