data_PCOD8256432
_publ_section_title
;
Structure prediction by ZEFSAII (Michael W. Deem and Ramdas Pophale) SiO2 
 PCOD8256432
Probable space group: C M C M
;
_chemical_formula_sum "Si O2"
_cell_formula_units_Z 128
_cell_length_a 23.543451
_cell_length_b 12.542903
_cell_length_c 25.797876
_cell_angle_alpha 90.000000
_cell_angle_beta 90.000000
_cell_angle_gamma 90.000000
_cell_volume 7618.195908
_symmetry_space_group_name_H-M "C M C M"
_symmetry_group_IT_number 63
_symmetry_cell_setting 'orthorhombic'
loop_
_space_group_symop_operation_xyz
x,y,z
-x,-y,1/2+z
x,-y,-z
-x,y,1/2-z
-x,-y,-z
x,y,1/2-z
-x,y,z
x,-y,1/2+z
1/2+x,1/2+y,z
1/2-x,1/2-y,1/2+z
1/2+x,1/2-y,-z
1/2-x,1/2+y,1/2-z
1/2-x,1/2-y,-z
1/2+x,1/2+y,1/2-z
1/2-x,1/2+y,z
1/2+x,1/2-y,1/2+z
loop_
_atom_site_type_symbol
_atom_site_label
_atom_site_fract_x
_atom_site_fract_y
_atom_site_fract_z
Si Si1 0.934338 0.673014 0.982393
Si Si2 0.694802 0.322125 0.887461
Si Si3 0.861653 0.398200 0.925298
Si Si4 0.793518 0.805651 0.071326
Si Si5 0.064847 0.556013 0.874723
Si Si6 0.631176 0.617271 0.482583
Si Si7 0.156129 0.349759 0.189900
Si Si8 0.735610 0.986403 0.374683
O O1 0.923969 0.633307 0.923984
O O2 0.920386 0.798651 0.988466
O O3 0.000000 0.653738 0.999008
O O4 0.891037 0.605013 0.018080
O O5 0.730798 0.247444 0.927399
O O6 0.649272 0.384978 0.922457
O O7 0.664321 0.257290 0.842632
O O8 0.735181 0.404237 0.856931
O O9 0.839976 0.280425 0.908181
O O10 0.909888 0.438248 0.885511
O O11 0.809409 0.484192 0.921369
O O12 0.786829 0.909322 0.107322
O O13 0.813166 0.846470 0.015145
O O14 0.094136 0.605649 0.824099
O O15 0.000000 0.542840 0.860687
O O16 0.609951 0.500000 0.500000
O O17 0.160391 0.323229 0.250000
O O18 0.203626 0.436589 0.174445
#
# Coordination Sequence:
#
# PCOD8256432 Si02
#       8
#    16  16  16  16  16  16  16  16
#     4  10  20  33  48  70 101 134 169 206 252 301
#     4  10  18  33  48  71  99 135 167 200 241 300
#     4   9  18  30  49  74 101 134 165 200 244 302
#     4   9  18  30  44  73 105 134 164 196 235 292
#     4  10  19  34  52  70  96 128 167 212 254 297
#     4  11  19  30  48  72 101 135 167 206 239 296
#     4  10  21  35  51  73  99 127 166 213 254 295
#     4   9  18  33  50  73 104 134 167 201 242 299
#
# _framework density 16.801879
#
# number of rings (size 3 to 8) (size 9 to 14) (size 15 to 20)
#    0.000    2.250    2.500    1.125    0.000    2.000 
#    6.750    0.000    0.000    0.000    0.000    0.000 
#    0.000    0.000    0.000    0.625    0.000    0.000 
#
# Total GULP energy -793011.494211 kJ/mol
# GULP energy per Si atom -12390.804597 kJ/mol
# Density = 1.676364 g / cm^3
# Si number density = 16.801879 Si / 1000 Ang^3
#
#
#
# Elastic Constant Matrix: (Units=GPa)
#
#
# Indices 1 2 3 4 5 6 
#
# 1 78.2030 33.5991 39.6495 0.0000 0.0000 0.0000
# 2 33.5991 92.4225 33.8689 0.0000 0.0000 0.0000
# 3 39.6495 33.8689 80.0040 0.0000 0.0000 0.0000
# 4 0.0000 0.0000 0.0000 13.3840 0.0000 0.0000
# 5 0.0000 0.0000 0.0000 0.0000 15.3785 0.0000
# 6 0.0000 0.0000 0.0000 0.0000 0.0000 19.6043
#
#
#
# Elastic Compliance Matrix: (Units=1/GPa)
#
#
# Indices 1 2 3 4 5 6 
#
# 1 0.018204 -0.003920 -0.007362 0.000000 0.000000 0.000000
# 2 -0.003920 0.013651 -0.003836 0.000000 0.000000 0.000000
# 3 -0.007362 -0.003836 0.017772 0.000000 0.000000 0.000000
# 4 0.000000 0.000000 0.000000 0.074716 0.000000 0.000000
# 5 0.000000 0.000000 0.000000 0.000000 0.065026 0.000000
# 6 0.000000 0.000000 0.000000 0.000000 0.000000 0.051009
#
#
# Mechanical properties :
#
#
# Convention : Reuss Voigt Hill
#
# Bulk Modulus (GPa) = 51.57303 51.65161 51.61232
# Shear Modulus (GPa) = 18.04542 19.24083 18.64313
#
# Velocity S-wave (km/s) = 3.28077 3.38769 3.33466
# Velocity P-wave (km/s) = 6.71660 6.79045 6.75363
#
# Compressibility (1/GPa) = 0.01938998
#
# Stress axis : x y z
#
# Youngs Moduli (GPa) = 54.93239 73.25625 56.26777
#
# Poissons Ratio (x) = 0.28716 0.41427
# Poissons Ratio (y) = 0.21533 0.21585
# Poissons Ratio (z) = 0.40444 0.28103
#
# Static dielectric constant tensor:
#      x y z
#    x 3.151290 0.000000 0.000000 
#    y 0.000000 3.351170 0.000000 
#    z 0.000000 0.000000 2.725490 
# 
# 
# High freq. dielectric constant tensor:
#      x y z
#    x 1.640900 0.000000 0.000000 
#    y 0.000000 1.658690 0.000000 
#    z 0.000000 0.000000 1.601360 
# 
# From -- ./inp_files/70841.got.cif
#   From: 2010.03.12/outbox.cif.g09.slc.cpg/sg63_36_cif.got.tgz:70841.got - 2010.04.10 19:34:48.
