data_PCOD8256519
_publ_section_title
;
Structure prediction by ZEFSAII (Michael W. Deem and Ramdas Pophale) SiO2 
 PCOD8256519
Probable space group: C M C M
;
_chemical_formula_sum "Si O2"
_cell_formula_units_Z 112
_cell_length_a 19.290317
_cell_length_b 12.039705
_cell_length_c 23.851668
_cell_angle_alpha 90.000000
_cell_angle_beta 90.000000
_cell_angle_gamma 90.000000
_cell_volume 5539.543359
_symmetry_space_group_name_H-M "C M C M"
_symmetry_group_IT_number 63
_symmetry_cell_setting 'orthorhombic'
loop_
_space_group_symop_operation_xyz
x,y,z
-x,-y,1/2+z
x,-y,-z
-x,y,1/2-z
-x,-y,-z
x,y,1/2-z
-x,y,z
x,-y,1/2+z
1/2+x,1/2+y,z
1/2-x,1/2-y,1/2+z
1/2+x,1/2-y,-z
1/2-x,1/2+y,1/2-z
1/2-x,1/2-y,-z
1/2+x,1/2+y,1/2-z
1/2-x,1/2+y,z
1/2+x,1/2-y,1/2+z
loop_
_atom_site_type_symbol
_atom_site_label
_atom_site_fract_x
_atom_site_fract_y
_atom_site_fract_z
Si Si1 0.357095 0.053704 0.313850
Si Si2 0.573056 0.441074 0.943910
Si Si3 0.823542 0.656281 0.879194
Si Si4 0.295916 0.373293 0.813057
Si Si5 0.419906 0.193169 0.977289
Si Si6 0.079339 0.713463 0.395326
Si Si7 0.171043 0.082243 0.625290
O O1 0.383396 0.060073 0.250000
O O2 0.286736 0.124486 0.322006
O O3 0.413757 0.107259 0.355172
O O4 0.347679 0.924848 0.329387
O O5 0.500000 0.446291 0.907734
O O6 0.592216 0.316254 0.956702
O O7 0.640435 0.500258 0.920684
O O8 0.552780 0.500000 0.000000
O O9 0.829353 0.783043 0.855710
O O10 0.870054 0.627378 0.934150
O O11 0.744582 0.628589 0.895469
O O12 0.314457 0.336691 0.750000
O O13 0.323367 0.500246 0.820943
O O14 0.500000 0.152752 0.971570
O O15 0.394057 0.182673 0.041825
O O16 0.119838 0.814729 0.365740
O O17 0.000000 0.751108 0.400413
#
# Coordination Sequence:
#
# PCOD8256519 Si02
#       7
#    16  16  16  16  16  16  16
#     4  10  23  42  62  86 119 164 208 249 305 364
#     4  10  18  34  59  86 120 160 193 233 298 369
#     4  11  22  40  64  91 121 161 206 253 304 364
#     4  10  21  39  62  88 120 156 204 260 308 354
#     4  10  22  39  62  89 123 164 201 247 308 370
#     4  11  23  41  63  92 127 163 203 249 306 368
#     4  11  21  36  60  95 119 152 202 255 306 359
#
# _framework density 20.218273
#
# number of rings (size 3 to 8) (size 9 to 14) (size 15 to 20)
#    0.000    1.571    4.286    0.857    0.000    3.143 
#    5.143    1.429    0.000    4.286    0.000    0.000 
#    0.000    0.000    0.000    0.000    0.000    0.000 
#
# Total GULP energy -693886.254925 kJ/mol
# GULP energy per Si atom -12390.825981 kJ/mol
# Density = 2.017226 g / cm^3
# Si number density = 20.218273 Si / 1000 Ang^3
#
#
#
# Elastic Constant Matrix: (Units=GPa)
#
#
# Indices 1 2 3 4 5 6 
#
# 1 77.7214 31.4269 51.0508 0.0000 0.0000 0.0000
# 2 31.4269 79.7053 42.3821 0.0000 0.0000 0.0000
# 3 51.0508 42.3821 112.0086 0.0000 0.0000 0.0000
# 4 0.0000 0.0000 0.0000 30.9482 0.0000 0.0000
# 5 0.0000 0.0000 0.0000 0.0000 23.0836 0.0000
# 6 0.0000 0.0000 0.0000 0.0000 0.0000 26.0942
#
#
#
# Elastic Compliance Matrix: (Units=1/GPa)
#
#
# Indices 1 2 3 4 5 6 
#
# 1 0.019175 -0.003647 -0.007360 0.000000 0.000000 0.000000
# 2 -0.003647 0.016400 -0.004543 0.000000 0.000000 0.000000
# 3 -0.007360 -0.004543 0.014001 0.000000 0.000000 0.000000
# 4 0.000000 0.000000 0.000000 0.032312 0.000000 0.000000
# 5 0.000000 0.000000 0.000000 0.000000 0.043321 0.000000
# 6 0.000000 0.000000 0.000000 0.000000 0.000000 0.038323
#
#
# Mechanical properties :
#
#
# Convention : Reuss Voigt Hill
#
# Bulk Modulus (GPa) = 54.12245 57.68388 55.90316
# Shear Modulus (GPa) = 24.90150 25.66357 25.28254
#
# Velocity S-wave (km/s) = 3.51327 3.56662 3.54005
# Velocity P-wave (km/s) = 6.57910 6.74934 6.66477
#
# Compressibility (1/GPa) = 0.01847662
#
# Stress axis : x y z
#
# Youngs Moduli (GPa) = 52.15027 60.97549 71.42211
#
# Poissons Ratio (x) = 0.22239 0.52564
# Poissons Ratio (y) = 0.19021 0.32448
# Poissons Ratio (z) = 0.38381 0.27702
#
# Static dielectric constant tensor:
#      x y z
#    x 3.778000 0.000000 0.000000 
#    y 0.000000 3.741530 0.000000 
#    z 0.000000 0.000000 3.603450 
# 
# 
# High freq. dielectric constant tensor:
#      x y z
#    x 1.783760 0.000000 0.000000 
#    y 0.000000 1.798040 0.000000 
#    z 0.000000 0.000000 1.773690 
# 
# From -- ./inp_files/64663.got.cif
#   From: 2010.03.12/outbox.cif.g09.slc.cpg/sg63_33_cif.got.tgz:64663.got - 2010.04.10 19:34:48.
