data_PCOD8256241
_publ_section_title
;
Structure prediction by ZEFSAII (Michael W. Deem and Ramdas Pophale) SiO2 
 PCOD8256241
Probable space group: C M C M
;
_chemical_formula_sum "Si O2"
_cell_formula_units_Z 80
_cell_length_a 20.462219
_cell_length_b 8.477671
_cell_length_c 21.994239
_cell_angle_alpha 90.000000
_cell_angle_beta 90.000000
_cell_angle_gamma 90.000000
_cell_volume 3815.383761
_symmetry_space_group_name_H-M "C M C M"
_symmetry_group_IT_number 63
_symmetry_cell_setting 'orthorhombic'
loop_
_space_group_symop_operation_xyz
x,y,z
-x,-y,1/2+z
x,-y,-z
-x,y,1/2-z
-x,-y,-z
x,y,1/2-z
-x,y,z
x,-y,1/2+z
1/2+x,1/2+y,z
1/2-x,1/2-y,1/2+z
1/2+x,1/2-y,-z
1/2-x,1/2+y,1/2-z
1/2-x,1/2-y,-z
1/2+x,1/2+y,1/2-z
1/2-x,1/2+y,z
1/2+x,1/2-y,1/2+z
loop_
_atom_site_type_symbol
_atom_site_label
_atom_site_fract_x
_atom_site_fract_y
_atom_site_fract_z
Si Si1 0.150176 0.375052 0.750000
Si Si2 0.801804 0.132339 0.372951
Si Si3 0.269113 0.189930 0.750000
Si Si4 0.426133 0.991751 0.144206
Si Si5 0.192379 0.557688 0.933301
Si Si6 0.571769 0.631482 0.180213
O O1 0.189568 0.208107 0.750000
O O2 0.207740 0.508691 0.750000
O O3 0.103507 0.382715 0.691532
O O4 0.795703 0.227079 0.310256
O O5 0.802309 0.253139 0.429908
O O6 0.745367 0.006045 0.384162
O O7 0.873820 0.052115 0.364551
O O8 0.500000 0.040448 0.126298
O O9 0.380626 0.997988 0.084150
O O10 0.423960 0.821286 0.175378
O O11 0.210525 0.500000 0.000000
O O12 0.583247 0.583449 0.250000
O O13 0.500000 0.574272 0.158587
#
# Coordination Sequence:
#
# PCOD8256241 Si02
#       6
#     8  16   8  16  16  16
#     4  12  19  32  54  88 115 133 175 217 284 324
#     4  11  19  35  54  80 107 132 176 221 275 317
#     4  12  18  32  54  88 106 135 167 225 277 316
#     4  10  18  31  52  78 108 139 174 224 270 313
#     4  11  23  36  53  77 107 146 184 220 260 316
#     4   9  15  26  49  79 106 129 166 217 268 316
#
# _framework density 20.967748
#
# number of rings (size 3 to 8) (size 9 to 14) (size 15 to 20)
#    0.000    1.400    8.000    0.900    0.000    0.400 
#    0.000    0.000    0.000    1.800    0.000    2.800 
#    0.000    0.000    0.000    0.000    0.000    0.000 
#
# Total GULP energy -495770.014038 kJ/mol
# GULP energy per Si atom -12394.250351 kJ/mol
# Density = 2.092002 g / cm^3
# Si number density = 20.967748 Si / 1000 Ang^3
#
#
#
# Elastic Constant Matrix: (Units=GPa)
#
#
# Indices 1 2 3 4 5 6 
#
# 1 195.7132 32.9268 28.7440 0.0000 0.0000 0.0000
# 2 32.9268 21.9600 6.8071 0.0000 0.0000 0.0000
# 3 28.7440 6.8071 58.7319 0.0000 0.0000 0.0000
# 4 0.0000 0.0000 0.0000 13.5590 0.0000 0.0000
# 5 0.0000 0.0000 0.0000 0.0000 22.6570 0.0000
# 6 0.0000 0.0000 0.0000 0.0000 0.0000 24.4756
#
#
#
# Elastic Compliance Matrix: (Units=1/GPa)
#
#
# Indices 1 2 3 4 5 6 
#
# 1 0.007129 -0.009966 -0.002334 0.000000 0.000000 0.000000
# 2 -0.009966 0.061165 -0.002212 0.000000 0.000000 0.000000
# 3 -0.002334 -0.002212 0.018425 0.000000 0.000000 0.000000
# 4 0.000000 0.000000 0.000000 0.073752 0.000000 0.000000
# 5 0.000000 0.000000 0.000000 0.000000 0.044137 0.000000
# 6 0.000000 0.000000 0.000000 0.000000 0.000000 0.040857
#
#
# Mechanical properties :
#
#
# Convention : Reuss Voigt Hill
#
# Bulk Modulus (GPa) = 17.33207 45.92899 31.63053
# Shear Modulus (GPa) = 17.02302 26.00012 21.51157
#
# Velocity S-wave (km/s) = 2.85242 3.52519 3.20650
# Velocity P-wave (km/s) = 4.37406 6.20656 5.36907
#
# Compressibility (1/GPa) = 0.05769651
#
# Stress axis : x y z
#
# Youngs Moduli (GPa) = 140.27385 16.34912 54.27366
#
# Poissons Ratio (x) = 0.16293 0.12667
# Poissons Ratio (y) = 1.39791 0.12005
# Poissons Ratio (z) = 0.32739 0.03616
#
# Static dielectric constant tensor:
#      x y z
#    x 4.537430 0.000000 0.000000 
#    y 0.000000 3.364360 0.000000 
#    z 0.000000 0.000000 3.425520 
# 
# 
# High freq. dielectric constant tensor:
#      x y z
#    x 1.845740 0.000000 0.000000 
#    y 0.000000 1.774720 0.000000 
#    z 0.000000 0.000000 1.792660 
# 
# From -- ./inp_files/64287.got.cif
#   From: 2010.03.12/outbox.cif.g09.slc.cpg/sg63_33_cif.got.tgz:64287.got - 2010.04.10 19:34:48.
