data_PCOD8256847
_publ_section_title
;
Structure prediction by ZEFSAII (Michael W. Deem and Ramdas Pophale) SiO2 
 PCOD8256847
Probable space group: C M C M
;
_chemical_formula_sum "Si O2"
_cell_formula_units_Z 72
_cell_length_a 25.146587
_cell_length_b 17.197666
_cell_length_c 9.320814
_cell_angle_alpha 90.000000
_cell_angle_beta 90.000000
_cell_angle_gamma 90.000000
_cell_volume 4030.903496
_symmetry_space_group_name_H-M "C M C M"
_symmetry_group_IT_number 63
_symmetry_cell_setting 'orthorhombic'
loop_
_space_group_symop_operation_xyz
x,y,z
-x,-y,1/2+z
x,-y,-z
-x,y,1/2-z
-x,-y,-z
x,y,1/2-z
-x,y,z
x,-y,1/2+z
1/2+x,1/2+y,z
1/2-x,1/2-y,1/2+z
1/2+x,1/2-y,-z
1/2-x,1/2+y,1/2-z
1/2-x,1/2-y,-z
1/2+x,1/2+y,1/2-z
1/2-x,1/2+y,z
1/2+x,1/2-y,1/2+z
loop_
_atom_site_type_symbol
_atom_site_label
_atom_site_fract_x
_atom_site_fract_y
_atom_site_fract_z
Si Si1 0.350408 0.070286 0.585130
Si Si2 0.802292 0.737798 0.588992
Si Si3 0.000000 0.080118 0.084401
Si Si4 0.084401 0.209032 0.081681
Si Si5 0.440740 0.141421 0.412292
O O1 0.360026 0.047107 0.750000
O O2 0.316304 0.147700 0.571538
O O3 0.406512 0.082106 0.506112
O O4 0.320972 0.000000 0.500000
O O5 0.786942 0.758714 0.750000
O O6 0.750000 0.750000 0.500000
O O7 0.852360 0.792578 0.542280
O O8 0.946137 0.128498 0.047538
O O9 0.000000 0.057800 0.250000
O O10 0.000000 0.000000 0.000000
O O11 0.078065 0.231408 0.250000
O O12 0.057199 0.274209 0.985708
O O13 0.417912 0.148909 0.250000
O O14 0.500000 0.107664 0.408282
#
# Coordination Sequence:
#
# PCOD8256847 Si02
#       5
#    16  16   8  16  16
#     4  10  21  36  53  75 104 137 173 213 260 309
#     4   9  19  35  56  80 103 134 178 220 264 319
#     4  10  20  34  54  78 109 144 179 226 278 324
#     4   9  18  34  54  75 103 141 180 218 265 321
#     4  10  19  30  49  77 105 136 172 208 251 307
#
# _framework density 17.862000999999999
#
# number of rings (size 3 to 8) (size 9 to 14) (size 15 to 20)
#    0.000    2.444    1.111    2.667    0.000    7.111 
#    0.000    1.111    0.000    5.333    0.000    0.000 
#    0.000    0.000    0.000    0.000    0.000    0.000 
#
# Total GULP energy -446182.577547 kJ/mol
# GULP energy per Si atom -12393.960487 kJ/mol
# Density = 1.782135 g / cm^3
# Si number density = 17.862001 Si / 1000 Ang^3
#
#
#
# Elastic Constant Matrix: (Units=GPa)
#
#
# Indices 1 2 3 4 5 6 
#
# 1 125.9659 38.8615 54.3635 0.0000 0.0000 0.0000
# 2 38.8615 89.3895 47.1835 0.0000 0.0000 0.0000
# 3 54.3635 47.1835 108.5353 0.0000 0.0000 0.0000
# 4 0.0000 0.0000 0.0000 36.0813 0.0000 0.0000
# 5 0.0000 0.0000 0.0000 0.0000 32.0737 0.0000
# 6 0.0000 0.0000 0.0000 0.0000 0.0000 11.3243
#
#
#
# Elastic Compliance Matrix: (Units=1/GPa)
#
#
# Indices 1 2 3 4 5 6 
#
# 1 0.010486 -0.002318 -0.004244 0.000000 0.000000 0.000000
# 2 -0.002318 0.015031 -0.005373 0.000000 0.000000 0.000000
# 3 -0.004244 -0.005373 0.013675 0.000000 0.000000 0.000000
# 4 0.000000 0.000000 0.000000 0.027715 0.000000 0.000000
# 5 0.000000 0.000000 0.000000 0.000000 0.031178 0.000000
# 6 0.000000 0.000000 0.000000 0.000000 0.000000 0.088306
#
#
# Mechanical properties :
#
#
# Convention : Reuss Voigt Hill
#
# Bulk Modulus (GPa) = 65.27201 67.18974 66.23087
# Shear Modulus (GPa) = 23.21590 28.12800 25.67195
#
# Velocity S-wave (km/s) = 3.60910 3.97260 3.79521
# Velocity P-wave (km/s) = 7.34773 7.66419 7.50763
#
# Compressibility (1/GPa) = 0.01532050
#
# Stress axis : x y z
#
# Youngs Moduli (GPa) = 95.36938 66.52877 73.12406
#
# Poissons Ratio (x) = 0.15423 0.31036
# Poissons Ratio (y) = 0.22109 0.39292
# Poissons Ratio (z) = 0.40477 0.35748
#
# Static dielectric constant tensor:
#      x y z
#    x 3.267300 0.000000 0.000000 
#    y 0.000000 3.295990 0.000000 
#    z 0.000000 0.000000 3.464110 
# 
# 
# High freq. dielectric constant tensor:
#      x y z
#    x 1.680290 0.000000 0.000000 
#    y 0.000000 1.676240 0.000000 
#    z 0.000000 0.000000 1.702000 
# 
# From -- ./inp_files/11754.got.cif
#   From: 2010.03.12/outbox.cif.g09.slc.cpg/sg63_6_cif.got.tgz:11754.got - 2010.04.10 19:34:48.
