data_PCOD8256396
_publ_section_title
;
Structure prediction by ZEFSAII (Michael W. Deem and Ramdas Pophale) SiO2 
 PCOD8256396
Probable space group: C M C M
;
_chemical_formula_sum "Si O2"
_cell_formula_units_Z 96
_cell_length_a 27.032408
_cell_length_b 10.216043
_cell_length_c 18.851261
_cell_angle_alpha 90.000000
_cell_angle_beta 90.000000
_cell_angle_gamma 90.000000
_cell_volume 5206.044215
_symmetry_space_group_name_H-M "C M C M"
_symmetry_group_IT_number 63
_symmetry_cell_setting 'orthorhombic'
loop_
_space_group_symop_operation_xyz
x,y,z
-x,-y,1/2+z
x,-y,-z
-x,y,1/2-z
-x,-y,-z
x,y,1/2-z
-x,y,z
x,-y,1/2+z
1/2+x,1/2+y,z
1/2-x,1/2-y,1/2+z
1/2+x,1/2-y,-z
1/2-x,1/2+y,1/2-z
1/2-x,1/2-y,-z
1/2+x,1/2+y,1/2-z
1/2-x,1/2+y,z
1/2+x,1/2-y,1/2+z
loop_
_atom_site_type_symbol
_atom_site_label
_atom_site_fract_x
_atom_site_fract_y
_atom_site_fract_z
Si Si1 0.611621 0.652573 0.333467
Si Si2 0.056761 0.342383 0.949861
Si Si3 0.899244 0.588332 0.595960
Si Si4 0.557334 0.450012 0.075745
Si Si5 0.296768 0.966009 0.166872
Si Si6 0.221773 0.820923 0.668489
O O1 0.611118 0.645838 0.250000
O O2 0.584426 0.787925 0.356129
O O3 0.584677 0.524918 0.361816
O O4 0.667505 0.653506 0.364716
O O5 0.065718 0.460197 0.893339
O O6 0.068169 0.203608 0.913627
O O7 0.000000 0.345484 0.977442
O O8 0.094952 0.363946 0.014548
O O9 0.844234 0.542672 0.616483
O O10 0.500000 0.483792 0.082487
O O11 0.577403 0.500000 0.000000
O O12 0.312577 0.983663 0.250000
O O13 0.264754 0.832169 0.159034
O O14 0.264010 0.085597 0.135593
O O15 0.219000 0.862117 0.750000
#
# Coordination Sequence:
#
# PCOD8256396 Si02
#       6
#    16  16  16  16  16  16
#     4  10  20  35  57  83 110 141 183 230 272 315
#     4  10  21  36  56  76 102 146 187 217 265 337
#     4  10  18  32  55  80 106 134 182 226 264 319
#     4  10  20  36  56  78 107 146 187 223 270 329
#     4   9  17  31  52  76 104 139 177 218 266 319
#     4   8  16  30  49  74 103 138 175 211 262 326
#
# _framework density 18.440104000000002
#
# number of rings (size 3 to 8) (size 9 to 14) (size 15 to 20)
#    0.000    2.500    1.667    2.500    0.000    2.333 
#    0.000    3.333    3.667   17.000    0.000    0.000 
#    0.000    0.000    0.000    0.000    0.000    0.000 
#
# Total GULP energy -594837.497299 kJ/mol
# GULP energy per Si atom -12392.447860 kJ/mol
# Density = 1.839813 g / cm^3
# Si number density = 18.440104 Si / 1000 Ang^3
#
#
#
# Elastic Constant Matrix: (Units=GPa)
#
#
# Indices 1 2 3 4 5 6 
#
# 1 73.7279 54.9517 39.8761 0.0000 0.0000 0.0000
# 2 54.9517 148.3993 39.3556 0.0000 0.0000 0.0000
# 3 39.8761 39.3556 56.3494 0.0000 0.0000 0.0000
# 4 0.0000 0.0000 0.0000 27.6162 0.0000 0.0000
# 5 0.0000 0.0000 0.0000 0.0000 26.6323 0.0000
# 6 0.0000 0.0000 0.0000 0.0000 0.0000 37.2313
#
#
#
# Elastic Compliance Matrix: (Units=1/GPa)
#
#
# Indices 1 2 3 4 5 6 
#
# 1 0.025358 -0.005684 -0.013975 0.000000 0.000000 0.000000
# 2 -0.005684 0.009544 -0.002644 0.000000 0.000000 0.000000
# 3 -0.013975 -0.002644 0.029483 0.000000 0.000000 0.000000
# 4 0.000000 0.000000 0.000000 0.036211 0.000000 0.000000
# 5 0.000000 0.000000 0.000000 0.000000 0.037548 0.000000
# 6 0.000000 0.000000 0.000000 0.000000 0.000000 0.026859
#
#
# Mechanical properties :
#
#
# Convention : Reuss Voigt Hill
#
# Bulk Modulus (GPa) = 50.55745 60.76039 55.65892
# Shear Modulus (GPa) = 23.12642 27.91548 25.52095
#
# Velocity S-wave (km/s) = 3.54522 3.89504 3.72424
# Velocity P-wave (km/s) = 6.65092 7.29727 6.98158
#
# Compressibility (1/GPa) = 0.01977948
#
# Stress axis : x y z
#
# Youngs Moduli (GPa) = 39.43467 104.77322 33.91821
#
# Poissons Ratio (x) = 0.59552 0.47402
# Poissons Ratio (y) = 0.22414 0.08967
# Poissons Ratio (z) = 0.55111 0.27700
#
# Static dielectric constant tensor:
#      x y z
#    x 3.368840 0.000000 0.000000 
#    y 0.000000 3.918160 0.000000 
#    z 0.000000 0.000000 3.074080 
# 
# 
# High freq. dielectric constant tensor:
#      x y z
#    x 1.700410 0.000000 0.000000 
#    y 0.000000 1.739720 0.000000 
#    z 0.000000 0.000000 1.676970 
# 
# From -- ./inp_files/47993.got.cif
#   From: 2010.03.12/outbox.cif.g09.slc.cpg/sg63_24_cif.got.tgz:47993.got - 2010.04.10 19:34:48.
