data_PCOD8256960
_publ_section_title
;
Structure prediction by ZEFSAII (Michael W. Deem and Ramdas Pophale) SiO2 
 PCOD8256960
Probable space group: C M C M
;
_chemical_formula_sum "Si O2"
_cell_formula_units_Z 112
_cell_length_a 13.937215
_cell_length_b 16.826193
_cell_length_c 27.206845
_cell_angle_alpha 90.000000
_cell_angle_beta 90.000000
_cell_angle_gamma 90.000000
_cell_volume 6380.284552
_symmetry_space_group_name_H-M "C M C M"
_symmetry_group_IT_number 63
_symmetry_cell_setting 'orthorhombic'
loop_
_space_group_symop_operation_xyz
x,y,z
-x,-y,1/2+z
x,-y,-z
-x,y,1/2-z
-x,-y,-z
x,y,1/2-z
-x,y,z
x,-y,1/2+z
1/2+x,1/2+y,z
1/2-x,1/2-y,1/2+z
1/2+x,1/2-y,-z
1/2-x,1/2+y,1/2-z
1/2-x,1/2-y,-z
1/2+x,1/2+y,1/2-z
1/2-x,1/2+y,z
1/2+x,1/2-y,1/2+z
loop_
_atom_site_type_symbol
_atom_site_label
_atom_site_fract_x
_atom_site_fract_y
_atom_site_fract_z
Si Si1 0.388734 0.143658 0.846045
Si Si2 0.605365 0.289742 0.004605
Si Si3 0.887647 0.528015 0.193485
Si Si4 0.732879 0.219023 0.572615
Si Si5 0.106844 0.047795 0.452695
Si Si6 0.103808 0.190483 0.194310
Si Si7 0.259373 0.611809 0.375544
O O1 0.500000 0.142929 0.863792
O O2 0.316492 0.155083 0.891744
O O3 0.366086 0.217382 0.810176
O O4 0.363791 0.064247 0.816421
O O5 0.500000 0.258632 0.020465
O O6 0.664652 0.314189 0.053651
O O7 0.662419 0.222326 0.974610
O O8 0.593355 0.361491 0.967256
O O9 0.855708 0.548172 0.250000
O O10 0.836880 0.579270 0.150424
O O11 0.000000 0.545333 0.187723
O O12 0.756515 0.305142 0.596196
O O13 0.188754 0.045452 0.410272
O O14 0.000000 0.015567 0.436276
O O15 0.145112 0.000000 0.500000
O O16 0.100523 0.165255 0.250000
O O17 0.171255 0.127152 0.169557
O O18 0.000000 0.180546 0.168959
#
# Coordination Sequence:
#
# PCOD8256960 Si02
#       7
#    16  16  16  16  16  16  16
#     4   9  17  30  49  70  94 122 159 202 244 286
#     4   9  17  30  47  68  97 126 158 196 238 284
#     4  10  21  35  50  70  98 133 168 202 243 288
#     4   9  18  30  48  73  94 126 162 200 239 282
#     4   9  18  31  48  71  96 125 156 191 237 288
#     4   9  16  28  49  74  95 116 150 200 253 294
#     4  10  19  31  48  71  97 126 159 199 237 288
#
# _framework density 17.554075000000001
#
# number of rings (size 3 to 8) (size 9 to 14) (size 15 to 20)
#    0.000    2.714    0.000    1.714    2.000    5.714 
#    0.000    0.000    0.000    0.429    0.000    0.000 
#    0.000    4.571    0.000    0.000    0.000    0.000 
#
# Total GULP energy -693797.394678 kJ/mol
# GULP energy per Si atom -12389.239191 kJ/mol
# Density = 1.751412 g / cm^3
# Si number density = 17.554075 Si / 1000 Ang^3
#
#
#
# Elastic Constant Matrix: (Units=GPa)
#
#
# Indices 1 2 3 4 5 6 
#
# 1 102.4048 21.8869 55.5918 0.0000 0.0000 0.0000
# 2 21.8869 35.9243 15.3231 0.0000 0.0000 0.0000
# 3 55.5918 15.3231 86.7124 0.0000 0.0000 0.0000
# 4 0.0000 0.0000 0.0000 22.4543 0.0000 0.0000
# 5 0.0000 0.0000 0.0000 0.0000 32.6390 0.0000
# 6 0.0000 0.0000 0.0000 0.0000 0.0000 21.1614
#
#
#
# Elastic Compliance Matrix: (Units=1/GPa)
#
#
# Indices 1 2 3 4 5 6 
#
# 1 0.016030 -0.005822 -0.009248 0.000000 0.000000 0.000000
# 2 -0.005822 0.032220 -0.001961 0.000000 0.000000 0.000000
# 3 -0.009248 -0.001961 0.017808 0.000000 0.000000 0.000000
# 4 0.000000 0.000000 0.000000 0.044535 0.000000 0.000000
# 5 0.000000 0.000000 0.000000 0.000000 0.030638 0.000000
# 6 0.000000 0.000000 0.000000 0.000000 0.000000 0.047256
#
#
# Mechanical properties :
#
#
# Convention : Reuss Voigt Hill
#
# Bulk Modulus (GPa) = 31.25435 45.62722 38.44079
# Shear Modulus (GPa) = 21.43955 24.06690 22.75322
#
# Velocity S-wave (km/s) = 3.49856 3.70674 3.60415
# Velocity P-wave (km/s) = 5.84493 6.66098 6.26625
#
# Compressibility (1/GPa) = 0.03199555
#
# Stress axis : x y z
#
# Youngs Moduli (GPa) = 62.38354 31.03689 56.15454
#
# Poissons Ratio (x) = 0.18068 0.51932
# Poissons Ratio (y) = 0.36317 0.11014
# Poissons Ratio (z) = 0.57693 0.06087
#
# Static dielectric constant tensor:
#      x y z
#    x 3.458710 0.000000 0.000000 
#    y 0.000000 2.989720 0.000000 
#    z 0.000000 0.000000 3.332120 
# 
# 
# High freq. dielectric constant tensor:
#      x y z
#    x 1.675690 0.000000 0.000000 
#    y 0.000000 1.652850 0.000000 
#    z 0.000000 0.000000 1.677650 
# 
# From -- ./inp_files/69394.got.cif
#   From: 2010.03.12/outbox.cif.g09.slc.cpg/sg63_35_cif.got.tgz:69394.got - 2010.04.10 19:34:48.
