data_PCOD8256219
_publ_section_title
;
Structure prediction by ZEFSAII (Michael W. Deem and Ramdas Pophale) SiO2 
 PCOD8256219
Probable space group: C M C M
;
_chemical_formula_sum "Si O2"
_cell_formula_units_Z 96
_cell_length_a 25.092821
_cell_length_b 9.563266
_cell_length_c 21.618272
_cell_angle_alpha 90.000000
_cell_angle_beta 90.000000
_cell_angle_gamma 90.000000
_cell_volume 5187.722073
_symmetry_space_group_name_H-M "C M C M"
_symmetry_group_IT_number 63
_symmetry_cell_setting 'orthorhombic'
loop_
_space_group_symop_operation_xyz
x,y,z
-x,-y,1/2+z
x,-y,-z
-x,y,1/2-z
-x,-y,-z
x,y,1/2-z
-x,y,z
x,-y,1/2+z
1/2+x,1/2+y,z
1/2-x,1/2-y,1/2+z
1/2+x,1/2-y,-z
1/2-x,1/2+y,1/2-z
1/2-x,1/2-y,-z
1/2+x,1/2+y,1/2-z
1/2-x,1/2+y,z
1/2+x,1/2-y,1/2+z
loop_
_atom_site_type_symbol
_atom_site_label
_atom_site_fract_x
_atom_site_fract_y
_atom_site_fract_z
Si Si1 0.360458 0.276710 0.883774
Si Si2 0.219827 0.971872 0.819130
Si Si3 0.694696 0.334849 0.005903
Si Si4 0.337894 0.001158 0.677802
Si Si5 0.643758 0.300975 0.361062
Si Si6 0.437417 0.484753 0.822678
O O1 0.307704 0.346463 0.855293
O O2 0.413380 0.355598 0.861163
O O3 0.368302 0.118213 0.861562
O O4 0.350099 0.285052 0.956891
O O5 0.227232 0.917241 0.750000
O O6 0.277651 0.997684 0.848316
O O7 0.186429 0.114882 0.819721
O O8 0.665405 0.302012 0.069696
O O9 0.707213 0.500000 0.000000
O O10 0.750000 0.250000 0.000000
O O11 0.340738 0.040008 0.750000
O O12 0.365280 0.853315 0.664997
O O13 0.586545 0.374803 0.352867
O O14 0.422218 0.471594 0.750000
O O15 0.500000 0.486824 0.832723
#
# Coordination Sequence:
#
# PCOD8256219 Si02
#       6
#    16  16  16  16  16  16
#     4  11  22  36  55  83 119 154 203 244 293 355
#     4  10  18  31  51  77 112 153 190 234 291 357
#     4  12  24  38  58  86 125 168 204 235 283 351
#     4  11  21  33  54  85 118 154 190 243 307 362
#     4  11  22  36  55  83 119 154 203 244 293 355
#     4  10  21  41  66  87 111 151 205 266 319 358
#
# _framework density 18.505231999999999
#
# number of rings (size 3 to 8) (size 9 to 14) (size 15 to 20)
#    0.000    1.167    3.333    7.000    2.333    2.667 
#    0.000    2.500    0.000    3.000    0.000    2.333 
#    0.000    0.000    0.000    0.000    0.000    0.000 
#
# Total GULP energy -595224.602408 kJ/mol
# GULP energy per Si atom -12400.512550 kJ/mol
# Density = 1.846311 g / cm^3
# Si number density = 18.505232 Si / 1000 Ang^3
#
#
#
# Elastic Constant Matrix: (Units=GPa)
#
#
# Indices 1 2 3 4 5 6 
#
# 1 103.9237 28.1432 33.2792 0.0000 0.0000 0.0000
# 2 28.1432 115.0224 5.0700 0.0000 0.0000 0.0000
# 3 33.2792 5.0700 85.1398 0.0000 0.0000 0.0000
# 4 0.0000 0.0000 0.0000 29.8213 0.0000 0.0000
# 5 0.0000 0.0000 0.0000 0.0000 22.7378 0.0000
# 6 0.0000 0.0000 0.0000 0.0000 0.0000 16.8363
#
#
#
# Elastic Compliance Matrix: (Units=1/GPa)
#
#
# Indices 1 2 3 4 5 6 
#
# 1 0.011772 -0.002684 -0.004441 0.000000 0.000000 0.000000
# 2 -0.002684 0.009329 0.000494 0.000000 0.000000 0.000000
# 3 -0.004441 0.000494 0.013452 0.000000 0.000000 0.000000
# 4 0.000000 0.000000 0.000000 0.033533 0.000000 0.000000
# 5 0.000000 0.000000 0.000000 0.000000 0.043980 0.000000
# 6 0.000000 0.000000 0.000000 0.000000 0.000000 0.059395
#
#
# Mechanical properties :
#
#
# Convention : Reuss Voigt Hill
#
# Bulk Modulus (GPa) = 46.97378 48.56341 47.76859
# Shear Modulus (GPa) = 26.06595 29.71866 27.89231
#
# Velocity S-wave (km/s) = 3.75717 4.01179 3.88656
# Velocity P-wave (km/s) = 6.65289 6.91081 6.78308
#
# Compressibility (1/GPa) = 0.02128847
#
# Stress axis : x y z
#
# Youngs Moduli (GPa) = 84.94968 107.19236 74.33818
#
# Poissons Ratio (x) = 0.28775 0.33017
# Poissons Ratio (y) = 0.22805 -0.03671
# Poissons Ratio (z) = 0.37730 -0.05293
#
# Static dielectric constant tensor:
#      x y z
#    x 3.114160 0.000000 0.000000 
#    y 0.000000 3.516620 0.000000 
#    z 0.000000 0.000000 3.739870 
# 
# 
# High freq. dielectric constant tensor:
#      x y z
#    x 1.682730 0.000000 0.000000 
#    y 0.000000 1.724790 0.000000 
#    z 0.000000 0.000000 1.728280 
# 
# From -- ./inp_files/58059.got.cif
#   From: 2010.03.12/outbox.cif.g09.slc.cpg/sg63_30_cif.got.tgz:58059.got - 2010.04.10 19:34:48.
