data_PCOD8256856
_publ_section_title
;
Structure prediction by ZEFSAII (Michael W. Deem and Ramdas Pophale) SiO2 
 PCOD8256856
Probable space group: C M C M
;
_chemical_formula_sum "Si O2"
_cell_formula_units_Z 112
_cell_length_a 19.239869
_cell_length_b 12.724848
_cell_length_c 27.070033
_cell_angle_alpha 90.000000
_cell_angle_beta 90.000000
_cell_angle_gamma 90.000000
_cell_volume 6627.404819
_symmetry_space_group_name_H-M "C M C M"
_symmetry_group_IT_number 63
_symmetry_cell_setting 'orthorhombic'
loop_
_space_group_symop_operation_xyz
x,y,z
-x,-y,1/2+z
x,-y,-z
-x,y,1/2-z
-x,-y,-z
x,y,1/2-z
-x,y,z
x,-y,1/2+z
1/2+x,1/2+y,z
1/2-x,1/2-y,1/2+z
1/2+x,1/2-y,-z
1/2-x,1/2+y,1/2-z
1/2-x,1/2-y,-z
1/2+x,1/2+y,1/2-z
1/2-x,1/2+y,z
1/2+x,1/2-y,1/2+z
loop_
_atom_site_type_symbol
_atom_site_label
_atom_site_fract_x
_atom_site_fract_y
_atom_site_fract_z
Si Si1 0.923366 0.607430 0.528576
Si Si2 0.285007 0.641754 0.057094
Si Si3 0.580465 0.520680 0.306471
Si Si4 0.578026 0.764575 0.193817
Si Si5 0.323621 0.570069 0.890654
Si Si6 0.846634 0.241750 0.963190
Si Si7 0.174067 0.661509 0.613973
O O1 0.919883 0.500000 0.500000
O O2 0.911452 0.703836 0.490155
O O3 0.865723 0.598235 0.571062
O O4 0.000000 0.625588 0.551489
O O5 0.308623 0.526002 0.072345
O O6 0.202160 0.663811 0.057730
O O7 0.321379 0.718981 0.095885
O O8 0.306854 0.665080 0.001058
O O9 0.593736 0.483679 0.250000
O O10 0.500000 0.499905 0.320853
O O11 0.598501 0.642989 0.311398
O O12 0.631354 0.457858 0.342754
O O13 0.583818 0.801441 0.250000
O O14 0.500000 0.781314 0.173962
O O15 0.629432 0.839635 0.163741
O O16 0.366582 0.662631 0.918624
O O17 0.248410 0.611892 0.873709
#
# Coordination Sequence:
#
# PCOD8256856 Si02
#       7
#    16  16  16  16  16  16  16
#     4  10  20  34  50  70 101 139 175 208 244 297
#     4   9  17  31  45  67 103 133 161 198 253 298
#     4   9  19  35  53  72  99 135 168 204 259 317
#     4   9  17  32  52  71  96 130 167 207 252 304
#     4  11  19  30  52  76 101 128 167 212 256 300
#     4   9  19  30  47  71  97 134 169 204 245 296
#     4  10  19  30  50  75 100 131 167 211 249 302
#
# _framework density 16.899526000000002
#
# number of rings (size 3 to 8) (size 9 to 14) (size 15 to 20)
#    0.000    2.429    1.429    3.429    0.000    1.143 
#    0.000    0.000    0.000    2.571    0.000    0.000 
#    0.000   17.714    0.000    0.000    0.000    0.000 
#
# Total GULP energy -694070.295406 kJ/mol
# GULP energy per Si atom -12394.112418 kJ/mol
# Density = 1.686106 g / cm^3
# Si number density = 16.899526 Si / 1000 Ang^3
#
#
#
# Elastic Constant Matrix: (Units=GPa)
#
#
# Indices 1 2 3 4 5 6 
#
# 1 84.2598 31.9318 48.5313 0.0000 0.0000 0.0000
# 2 31.9318 65.0737 30.5805 0.0000 0.0000 0.0000
# 3 48.5313 30.5805 86.4029 0.0000 0.0000 0.0000
# 4 0.0000 0.0000 0.0000 24.4595 0.0000 0.0000
# 5 0.0000 0.0000 0.0000 0.0000 29.5495 0.0000
# 6 0.0000 0.0000 0.0000 0.0000 0.0000 19.9728
#
#
#
# Elastic Compliance Matrix: (Units=1/GPa)
#
#
# Indices 1 2 3 4 5 6 
#
# 1 0.018872 -0.005133 -0.008784 0.000000 0.000000 0.000000
# 2 -0.005133 0.019829 -0.004135 0.000000 0.000000 0.000000
# 3 -0.008784 -0.004135 0.017971 0.000000 0.000000 0.000000
# 4 0.000000 0.000000 0.000000 0.040884 0.000000 0.000000
# 5 0.000000 0.000000 0.000000 0.000000 0.033841 0.000000
# 6 0.000000 0.000000 0.000000 0.000000 0.000000 0.050068
#
#
# Mechanical properties :
#
#
# Convention : Reuss Voigt Hill
#
# Bulk Modulus (GPa) = 48.61652 50.86929 49.74290
# Shear Modulus (GPa) = 22.27912 23.10924 22.69418
#
# Velocity S-wave (km/s) = 3.63482 3.70192 3.66852
# Velocity P-wave (km/s) = 6.81515 6.95978 6.88785
#
# Compressibility (1/GPa) = 0.02056914
#
# Stress axis : x y z
#
# Youngs Moduli (GPa) = 52.98729 50.43089 55.64565
#
# Poissons Ratio (x) = 0.25886 0.48877
# Poissons Ratio (y) = 0.27198 0.23009
# Poissons Ratio (z) = 0.46542 0.20853
#
# Static dielectric constant tensor:
#      x y z
#    x 3.202010 0.000000 0.000000 
#    y 0.000000 2.991950 0.000000 
#    z 0.000000 0.000000 3.069380 
# 
# 
# High freq. dielectric constant tensor:
#      x y z
#    x 1.645810 0.000000 0.000000 
#    y 0.000000 1.639030 0.000000 
#    z 0.000000 0.000000 1.645370 
# 
# From -- ./inp_files/64646.got.cif
#   From: 2010.03.12/outbox.cif.g09.slc.cpg/sg63_33_cif.got.tgz:64646.got - 2010.04.10 19:34:48.
