data_PCOD8256761
_publ_section_title
;
Structure prediction by ZEFSAII (Michael W. Deem and Ramdas Pophale) SiO2 
 PCOD8256761
Probable space group: C M C M
;
_chemical_formula_sum "Si O2"
_cell_formula_units_Z 96
_cell_length_a 25.230753
_cell_length_b 25.276724
_cell_length_c 9.052700
_cell_angle_alpha 90.000000
_cell_angle_beta 90.000000
_cell_angle_gamma 90.000000
_cell_volume 5773.366485
_symmetry_space_group_name_H-M "C M C M"
_symmetry_group_IT_number 63
_symmetry_cell_setting 'orthorhombic'
loop_
_space_group_symop_operation_xyz
x,y,z
-x,-y,1/2+z
x,-y,-z
-x,y,1/2-z
-x,-y,-z
x,y,1/2-z
-x,y,z
x,-y,1/2+z
1/2+x,1/2+y,z
1/2-x,1/2-y,1/2+z
1/2+x,1/2-y,-z
1/2-x,1/2+y,1/2-z
1/2-x,1/2-y,-z
1/2+x,1/2+y,1/2-z
1/2-x,1/2+y,z
1/2+x,1/2-y,1/2+z
loop_
_atom_site_type_symbol
_atom_site_label
_atom_site_fract_x
_atom_site_fract_y
_atom_site_fract_z
Si Si1 0.436997 0.252264 0.083691
Si Si2 0.644756 0.443316 0.924524
Si Si3 0.254201 0.443760 0.422796
Si Si4 0.560970 0.852358 0.423666
Si Si5 0.439581 0.643894 0.078210
Si Si6 0.862983 0.444243 0.421705
O O1 0.415415 0.250870 0.250000
O O2 0.500000 0.252565 0.076759
O O3 0.416055 0.200279 0.000010
O O4 0.415741 0.305388 0.006416
O O5 0.652296 0.450372 0.750000
O O6 0.594401 0.407385 0.963322
O O7 0.635008 0.500000 0.000000
O O8 0.697125 0.414168 0.994390
O O9 0.252540 0.500000 0.500000
O O10 0.267354 0.448842 0.250000
O O11 0.195805 0.419017 0.448417
O O12 0.568061 0.844609 0.250000
O O13 0.500000 0.862775 0.466957
O O14 0.594646 0.902144 0.482631
O O15 0.435975 0.657476 0.250000
O O16 0.500000 0.631909 0.030318
O O17 0.871836 0.500000 0.500000
O O18 0.872038 0.455300 0.250000
#
# Coordination Sequence:
#
# PCOD8256761 Si02
#       6
#    16  16  16  16  16  16
#     4   9  17  29  46  68  90 114 149 188 221 257
#     4  10  19  30  46  68  92 118 149 182 218 263
#     4   9  16  28  45  63  86 116 151 187 219 256
#     4   9  17  30  47  66  91 122 151 180 220 269
#     4   9  18  32  48  66  90 120 149 178 218 267
#     4   9  18  30  45  67  92 120 152 184 221 264
#
# _framework density 16.628079
#
# number of rings (size 3 to 8) (size 9 to 14) (size 15 to 20)
#    0.000    2.833    0.000    2.500    0.000    5.333 
#    0.000    0.000    0.000    1.000    0.000    0.000 
#    0.000    0.000    0.000    0.000    0.000    0.000 
#
# Total GULP energy -594900.624588 kJ/mol
# GULP energy per Si atom -12393.763012 kJ/mol
# Density = 1.659023 g / cm^3
# Si number density = 16.628079 Si / 1000 Ang^3
#
#
#
# Elastic Constant Matrix: (Units=GPa)
#
#
# Indices 1 2 3 4 5 6 
#
# 1 95.3052 64.6840 45.2503 0.0000 0.0000 0.0000
# 2 64.6840 114.2986 54.2006 0.0000 0.0000 0.0000
# 3 45.2503 54.2006 79.6664 0.0000 0.0000 0.0000
# 4 0.0000 0.0000 0.0000 23.8477 0.0000 0.0000
# 5 0.0000 0.0000 0.0000 0.0000 20.2865 0.0000
# 6 0.0000 0.0000 0.0000 0.0000 0.0000 4.6258
#
#
#
# Elastic Compliance Matrix: (Units=1/GPa)
#
#
# Indices 1 2 3 4 5 6 
#
# 1 0.018261 -0.007995 -0.004933 0.000000 0.000000 0.000000
# 2 -0.007995 0.016416 -0.006628 0.000000 0.000000 0.000000
# 3 -0.004933 -0.006628 0.019863 0.000000 0.000000 0.000000
# 4 0.000000 0.000000 0.000000 0.041933 0.000000 0.000000
# 5 0.000000 0.000000 0.000000 0.000000 0.049294 0.000000
# 6 0.000000 0.000000 0.000000 0.000000 0.000000 0.216179
#
#
# Mechanical properties :
#
#
# Convention : Reuss Voigt Hill
#
# Bulk Modulus (GPa) = 64.81042 68.61555 66.71298
# Shear Modulus (GPa) = 12.30921 18.09436 15.20178
#
# Velocity S-wave (km/s) = 2.72374 3.30234 3.02689
# Velocity P-wave (km/s) = 6.99662 7.47630 7.24043
#
# Compressibility (1/GPa) = 0.01542962
#
# Stress axis : x y z
#
# Youngs Moduli (GPa) = 54.76155 60.91435 50.34436
#
# Poissons Ratio (x) = 0.48702 0.24833
# Poissons Ratio (y) = 0.43783 0.33366
# Poissons Ratio (z) = 0.27012 0.40372
#
# Static dielectric constant tensor:
#      x y z
#    x 3.635720 0.000000 0.000000 
#    y 0.000000 3.010710 0.000000 
#    z 0.000000 0.000000 3.232750 
# 
# 
# High freq. dielectric constant tensor:
#      x y z
#    x 1.629370 0.000000 0.000000 
#    y 0.000000 1.619470 0.000000 
#    z 0.000000 0.000000 1.648330 
# 
# From -- ./inp_files/10678.got.cif
#   From: 2010.03.12/outbox.cif.g09.slc.cpg/sg63_6_cif.got.tgz:10678.got - 2010.04.10 19:34:48.
