data_PCOD8256548
_publ_section_title
;
Structure prediction by ZEFSAII (Michael W. Deem and Ramdas Pophale) SiO2 
 PCOD8256548
Probable space group: C M C M
;
_chemical_formula_sum "Si O2"
_cell_formula_units_Z 64
_cell_length_a 15.589256
_cell_length_b 20.135032
_cell_length_c 10.303503
_cell_angle_alpha 90.000000
_cell_angle_beta 90.000000
_cell_angle_gamma 90.000000
_cell_volume 3234.168292
_symmetry_space_group_name_H-M "C M C M"
_symmetry_group_IT_number 63
_symmetry_cell_setting 'orthorhombic'
loop_
_space_group_symop_operation_xyz
x,y,z
-x,-y,1/2+z
x,-y,-z
-x,y,1/2-z
-x,-y,-z
x,y,1/2-z
-x,y,z
x,-y,1/2+z
1/2+x,1/2+y,z
1/2-x,1/2-y,1/2+z
1/2+x,1/2-y,-z
1/2-x,1/2+y,1/2-z
1/2-x,1/2-y,-z
1/2+x,1/2+y,1/2-z
1/2-x,1/2+y,z
1/2+x,1/2-y,1/2+z
loop_
_atom_site_type_symbol
_atom_site_label
_atom_site_fract_x
_atom_site_fract_y
_atom_site_fract_z
Si Si1 0.682080 0.445598 0.400154
Si Si2 0.000000 0.102295 0.534516
Si Si3 0.355193 0.767451 0.250000
Si Si4 0.169736 0.297598 0.750000
Si Si5 0.791270 0.322263 0.017562
Si Si6 0.000000 0.788883 0.250000
Si Si7 0.500000 0.659619 0.250000
O O1 0.721158 0.500000 0.500000
O O2 0.700166 0.465482 0.250000
O O3 0.581040 0.441449 0.425140
O O4 0.722227 0.374388 0.431740
O O5 0.000000 0.169677 0.617113
O O6 0.000000 0.115383 0.379476
O O7 0.254701 0.747898 0.250000
O O8 0.368772 0.813260 0.377877
O O9 0.414853 0.703717 0.250000
O O10 0.170155 0.344362 0.621739
O O11 0.085445 0.253639 0.750000
O O12 0.750000 0.250000 0.000000
#
# Coordination Sequence:
#
# PCOD8256548 Si02
#       7
#    16   8   8   8  16   4   4
#     4  12  26  43  62  89 128 177 221 261 318 387
#     4  12  23  38  59  86 135 178 215 255 305 387
#     4  10  18  36  52  88 125 162 205 263 314 363
#     4  10  20  32  58  90 125 158 207 257 316 381
#     4  10  20  37  62  85 119 159 208 267 313 360
#     4  12  20  38  63  98 131 178 208 258 332 380
#     4  12  24  34  63 100 131 172 214 258 330 384
#
# _framework density 19.788705
#
# number of rings (size 3 to 8) (size 9 to 14) (size 15 to 20)
#    0.000    1.000    2.500    7.875    3.500    0.000 
#    0.000    0.000    0.000    0.000    0.000    5.250 
#    0.000    0.000    0.000    0.000    0.000    0.000 
#
# Total GULP energy -396545.920465 kJ/mol
# GULP energy per Si atom -12392.060015 kJ/mol
# Density = 1.974366 g / cm^3
# Si number density = 19.788705 Si / 1000 Ang^3
#
#
#
# Elastic Constant Matrix: (Units=GPa)
#
#
# Indices 1 2 3 4 5 6 
#
# 1 54.9445 19.8805 15.4958 0.0000 0.0000 0.0000
# 2 19.8805 79.0489 39.4309 0.0000 0.0000 0.0000
# 3 15.4958 39.4309 224.1128 0.0000 0.0000 0.0000
# 4 0.0000 0.0000 0.0000 38.6996 0.0000 0.0000
# 5 0.0000 0.0000 0.0000 0.0000 22.2727 0.0000
# 6 0.0000 0.0000 0.0000 0.0000 0.0000 69.4762
#
#
#
# Elastic Compliance Matrix: (Units=1/GPa)
#
#
# Indices 1 2 3 4 5 6 
#
# 1 0.020083 -0.004778 -0.000548 0.000000 0.000000 0.000000
# 2 -0.004778 0.015004 -0.002309 0.000000 0.000000 0.000000
# 3 -0.000548 -0.002309 0.004906 0.000000 0.000000 0.000000
# 4 0.000000 0.000000 0.000000 0.025840 0.000000 0.000000
# 5 0.000000 0.000000 0.000000 0.000000 0.044898 0.000000
# 6 0.000000 0.000000 0.000000 0.000000 0.000000 0.014393
#
#
# Mechanical properties :
#
#
# Convention : Reuss Voigt Hill
#
# Bulk Modulus (GPa) = 40.44743 56.41343 48.43043
# Shear Modulus (GPa) = 33.63913 44.97629 39.30771
#
# Velocity S-wave (km/s) = 4.12748 4.77259 4.46171
# Velocity P-wave (km/s) = 6.57258 7.67723 7.14628
#
# Compressibility (1/GPa) = 0.02472345
#
# Stress axis : x y z
#
# Youngs Moduli (GPa) = 49.79241 66.64912 203.82081
#
# Poissons Ratio (x) = 0.31842 0.11171
# Poissons Ratio (y) = 0.23788 0.47072
# Poissons Ratio (z) = 0.02729 0.15393
#
# Static dielectric constant tensor:
#      x y z
#    x 3.327820 0.000000 0.000000 
#    y 0.000000 3.302540 0.000000 
#    z 0.000000 0.000000 6.881900 
# 
# 
# High freq. dielectric constant tensor:
#      x y z
#    x 1.735400 0.000000 0.000000 
#    y 0.000000 1.733800 0.000000 
#    z 0.000000 0.000000 1.822000 
# 
# From -- ./inp_files/19036.got.cif
#   From: 2010.03.12/outbox.cif.g09.slc.cpg/sg63_10_cif.got.tgz:19036.got - 2010.04.10 19:34:48.
