data_PCOD8256230
_publ_section_title
;
Structure prediction by ZEFSAII (Michael W. Deem and Ramdas Pophale) SiO2 
 PCOD8256230
Probable space group: C M C M
;
_chemical_formula_sum "Si O2"
_cell_formula_units_Z 80
_cell_length_a 9.353619
_cell_length_b 25.169871
_cell_length_c 18.846603
_cell_angle_alpha 90.000000
_cell_angle_beta 90.000000
_cell_angle_gamma 90.000000
_cell_volume 4437.044127
_symmetry_space_group_name_H-M "C M C M"
_symmetry_group_IT_number 63
_symmetry_cell_setting 'orthorhombic'
loop_
_space_group_symop_operation_xyz
x,y,z
-x,-y,1/2+z
x,-y,-z
-x,y,1/2-z
-x,-y,-z
x,y,1/2-z
-x,y,z
x,-y,1/2+z
1/2+x,1/2+y,z
1/2-x,1/2-y,1/2+z
1/2+x,1/2-y,-z
1/2-x,1/2+y,1/2-z
1/2-x,1/2-y,-z
1/2+x,1/2+y,1/2-z
1/2-x,1/2+y,z
1/2+x,1/2-y,1/2+z
loop_
_atom_site_type_symbol
_atom_site_label
_atom_site_fract_x
_atom_site_fract_y
_atom_site_fract_z
Si Si1 0.164359 0.316541 0.668802
Si Si2 0.170474 0.017126 0.830081
Si Si3 0.169244 0.089870 0.095201
Si Si4 0.165376 0.775517 0.435888
Si Si5 0.330872 0.605430 0.564320
O O1 0.212558 0.312565 0.750000
O O2 0.261963 0.358517 0.629233
O O3 0.188086 0.258538 0.635051
O O4 0.000000 0.334405 0.661444
O O5 0.229566 0.021909 0.750000
O O6 0.233777 0.065838 0.876387
O O7 0.000000 0.017984 0.830608
O O8 0.225248 0.962133 0.864019
O O9 0.000000 0.096186 0.101810
O O10 0.217448 0.085646 0.013360
O O11 0.250000 0.750000 0.500000
O O12 0.224462 0.834834 0.421176
O O13 0.000000 0.777919 0.458778
O O14 0.500000 0.603423 0.570269
#
# Coordination Sequence:
#
# PCOD8256230 Si02
#       5
#    16  16  16  16  16
#     4  10  21  34  49  73 104 134 164 202 248 295
#     4   9  17  28  45  73 104 130 161 206 254 295
#     4  10  18  31  52  76 100 128 166 207 247 294
#     4  10  19  33  52  73  98 131 167 203 245 291
#     4   9  17  29  48  72  98 129 164 205 249 291
#
# _framework density 18.030021000000001
#
# number of rings (size 3 to 8) (size 9 to 14) (size 15 to 20)
#    0.000    2.400    2.000    1.200    0.000    4.400 
#    0.000    4.000    0.000    3.600    0.000    0.000 
#    0.000    0.000    0.000    0.000    0.000    0.000 
#
# Total GULP energy -495980.773217 kJ/mol
# GULP energy per Si atom -12399.519330 kJ/mol
# Density = 1.798898 g / cm^3
# Si number density = 18.030021 Si / 1000 Ang^3
#
#
#
# Elastic Constant Matrix: (Units=GPa)
#
#
# Indices 1 2 3 4 5 6 
#
# 1 21.0027 23.2851 22.6608 0.0000 0.0000 0.0000
# 2 23.2851 149.0883 82.5131 0.0000 0.0000 0.0000
# 3 22.6608 82.5131 156.2630 0.0000 0.0000 0.0000
# 4 0.0000 0.0000 0.0000 34.1569 0.0000 0.0000
# 5 0.0000 0.0000 0.0000 0.0000 16.7431 0.0000
# 6 0.0000 0.0000 0.0000 0.0000 0.0000 21.8544
#
#
#
# Elastic Compliance Matrix: (Units=1/GPa)
#
#
# Indices 1 2 3 4 5 6 
#
# 1 0.060598 -0.006500 -0.005355 0.000000 0.000000 0.000000
# 2 -0.006500 0.010174 -0.004430 0.000000 0.000000 0.000000
# 3 -0.005355 -0.004430 0.009515 0.000000 0.000000 0.000000
# 4 0.000000 0.000000 0.000000 0.029277 0.000000 0.000000
# 5 0.000000 0.000000 0.000000 0.000000 0.059726 0.000000
# 6 0.000000 0.000000 0.000000 0.000000 0.000000 0.045757
#
#
# Mechanical properties :
#
#
# Convention : Reuss Voigt Hill
#
# Bulk Modulus (GPa) = 20.95722 64.80801 42.88262
# Shear Modulus (GPa) = 18.97362 27.74388 23.35875
#
# Velocity S-wave (km/s) = 3.24749 3.92696 3.60328
# Velocity P-wave (km/s) = 5.07054 7.52223 6.41460
#
# Compressibility (1/GPa) = 0.04771626
#
# Stress axis : x y z
#
# Youngs Moduli (GPa) = 16.50229 98.28615 105.09540
#
# Poissons Ratio (x) = 0.63891 0.56280
# Poissons Ratio (y) = 0.10727 0.46555
# Poissons Ratio (z) = 0.08837 0.43539
#
# Static dielectric constant tensor:
#      x y z
#    x 2.900130 0.000000 0.000000 
#    y 0.000000 3.657510 0.000000 
#    z 0.000000 0.000000 3.623940 
# 
# 
# High freq. dielectric constant tensor:
#      x y z
#    x 1.645040 0.000000 0.000000 
#    y 0.000000 1.713600 0.000000 
#    z 0.000000 0.000000 1.709590 
# 
# From -- ./inp_files/29687.got.cif
#   From: 2010.03.12/outbox.cif.g09.slc.cpg/sg63_15_cif.got.tgz:29687.got - 2010.04.10 19:34:48.
