data_PCOD8256115
_publ_section_title
;
Structure prediction by ZEFSAII (Michael W. Deem and Ramdas Pophale) SiO2 
 PCOD8256115
Probable space group: C M C M
;
_chemical_formula_sum "Si O2"
_cell_formula_units_Z 96
_cell_length_a 25.455204
_cell_length_b 14.639643
_cell_length_c 14.287608
_cell_angle_alpha 90.000000
_cell_angle_beta 90.000000
_cell_angle_gamma 90.000000
_cell_volume 5324.349974
_symmetry_space_group_name_H-M "C M C M"
_symmetry_group_IT_number 63
_symmetry_cell_setting 'orthorhombic'
loop_
_space_group_symop_operation_xyz
x,y,z
-x,-y,1/2+z
x,-y,-z
-x,y,1/2-z
-x,-y,-z
x,y,1/2-z
-x,y,z
x,-y,1/2+z
1/2+x,1/2+y,z
1/2-x,1/2-y,1/2+z
1/2+x,1/2-y,-z
1/2-x,1/2+y,1/2-z
1/2-x,1/2-y,-z
1/2+x,1/2+y,1/2-z
1/2-x,1/2+y,z
1/2+x,1/2-y,1/2+z
loop_
_atom_site_type_symbol
_atom_site_label
_atom_site_fract_x
_atom_site_fract_y
_atom_site_fract_z
Si Si1 0.387045 0.412061 0.935932
Si Si2 0.221013 0.922684 0.854740
Si Si3 0.270349 0.635941 0.644103
Si Si4 0.812027 0.394772 0.990676
Si Si5 0.062583 0.809509 0.250000
Si Si6 0.061691 0.980198 0.750000
Si Si7 0.874770 0.234743 0.926387
O O1 0.327423 0.384220 0.913044
O O2 0.419231 0.425861 0.840991
O O3 0.393011 0.500000 0.000000
O O4 0.406262 0.325459 0.996498
O O5 0.220653 0.884089 0.750000
O O6 0.273789 0.887134 0.901665
O O7 0.213250 0.030825 0.856865
O O8 0.257740 0.668492 0.750000
O O9 0.217604 0.645905 0.581982
O O10 0.318971 0.691358 0.602551
O O11 0.863639 0.335013 0.969174
O O12 0.829770 0.500000 0.000000
O O13 0.086089 0.757291 0.339137
O O14 0.000000 0.802285 0.250000
O O15 0.082554 0.915294 0.250000
O O16 0.000000 0.980955 0.750000
#
# Coordination Sequence:
#
# PCOD8256115 Si02
#       7
#    16  16  16  16   8   8  16
#     4  12  20  34  56  81 115 153 188 225 279 342
#     4  10  18  30  51  77 115 154 185 223 268 334
#     4  10  18  31  51  80 117 149 181 223 274 335
#     4  10  22  38  52  82 118 153 193 234 279 334
#     4  11  24  40  61  89 115 141 188 245 295 343
#     4  11  24  40  57  83 117 149 186 235 291 347
#     4  12  22  36  59  84 114 154 192 238 282 337
#
# _framework density 18.030369
#
# number of rings (size 3 to 8) (size 9 to 14) (size 15 to 20)
#    0.000    1.167    6.667    1.000    1.167    1.000 
#    1.500    0.000    0.000    0.500    0.000    1.167 
#    0.000    0.000    0.000    0.000    0.000    0.000 
#
# Total GULP energy -595177.417962 kJ/mol
# GULP energy per Si atom -12399.529541 kJ/mol
# Density = 1.798933 g / cm^3
# Si number density = 18.030369 Si / 1000 Ang^3
#
#
#
# Elastic Constant Matrix: (Units=GPa)
#
#
# Indices 1 2 3 4 5 6 
#
# 1 56.3809 34.8339 33.3125 0.0000 0.0000 0.0000
# 2 34.8339 50.2552 36.7063 0.0000 0.0000 0.0000
# 3 33.3125 36.7063 138.6517 0.0000 0.0000 0.0000
# 4 0.0000 0.0000 0.0000 11.9081 0.0000 0.0000
# 5 0.0000 0.0000 0.0000 0.0000 5.1619 0.0000
# 6 0.0000 0.0000 0.0000 0.0000 0.0000 17.4589
#
#
#
# Elastic Compliance Matrix: (Units=1/GPa)
#
#
# Indices 1 2 3 4 5 6 
#
# 1 0.031563 -0.020256 -0.002221 0.000000 0.000000 0.000000
# 2 -0.020256 0.037667 -0.005105 0.000000 0.000000 0.000000
# 3 -0.002221 -0.005105 0.009098 0.000000 0.000000 0.000000
# 4 0.000000 0.000000 0.000000 0.083976 0.000000 0.000000
# 5 0.000000 0.000000 0.000000 0.000000 0.193726 0.000000
# 6 0.000000 0.000000 0.000000 0.000000 0.000000 0.057277
#
#
# Mechanical properties :
#
#
# Convention : Reuss Voigt Hill
#
# Bulk Modulus (GPa) = 43.16988 50.55482 46.86235
# Shear Modulus (GPa) = 10.49995 16.26813 13.38404
#
# Velocity S-wave (km/s) = 2.41581 3.00703 2.72748
# Velocity P-wave (km/s) = 5.63705 6.33687 5.99717
#
# Compressibility (1/GPa) = 0.02316430
#
# Stress axis : x y z
#
# Youngs Moduli (GPa) = 31.68241 26.54824 109.92011
#
# Poissons Ratio (x) = 0.53775 0.24413
# Poissons Ratio (y) = 0.64174 0.56118
# Poissons Ratio (z) = 0.07037 0.13554
#
# Static dielectric constant tensor:
#      x y z
#    x 2.953360 0.000000 0.000000 
#    y 0.000000 3.284840 0.000000 
#    z 0.000000 0.000000 3.846790 
# 
# 
# High freq. dielectric constant tensor:
#      x y z
#    x 1.653650 0.000000 0.000000 
#    y 0.000000 1.678610 0.000000 
#    z 0.000000 0.000000 1.724190 
# 
# From -- ./inp_files/36802.got.cif
#   From: 2010.03.12/outbox.cif.g09.slc.cpg/sg63_19_cif.got.tgz:36802.got - 2010.04.10 19:34:48.
