data_PCOD8256436
_publ_section_title
;
Structure prediction by ZEFSAII (Michael W. Deem and Ramdas Pophale) SiO2 
 PCOD8256436
Probable space group: C M C M
;
_chemical_formula_sum "Si O2"
_cell_formula_units_Z 80
_cell_length_a 11.145513
_cell_length_b 20.274301
_cell_length_c 19.551797
_cell_angle_alpha 90.000000
_cell_angle_beta 90.000000
_cell_angle_gamma 90.000000
_cell_volume 4418.070402
_symmetry_space_group_name_H-M "C M C M"
_symmetry_group_IT_number 63
_symmetry_cell_setting 'orthorhombic'
loop_
_space_group_symop_operation_xyz
x,y,z
-x,-y,1/2+z
x,-y,-z
-x,y,1/2-z
-x,-y,-z
x,y,1/2-z
-x,y,z
x,-y,1/2+z
1/2+x,1/2+y,z
1/2-x,1/2-y,1/2+z
1/2+x,1/2-y,-z
1/2-x,1/2+y,1/2-z
1/2-x,1/2-y,-z
1/2+x,1/2+y,1/2-z
1/2-x,1/2+y,z
1/2+x,1/2-y,1/2+z
loop_
_atom_site_type_symbol
_atom_site_label
_atom_site_fract_x
_atom_site_fract_y
_atom_site_fract_z
Si Si1 0.640159 0.236157 0.403154
Si Si2 0.233193 0.388433 0.828604
Si Si3 0.500000 0.028714 0.174918
Si Si4 0.639643 0.439067 0.955827
Si Si5 0.713091 0.160821 0.531219
Si Si6 0.000000 0.561204 0.553107
O O1 0.500000 0.249160 0.381937
O O2 0.708091 0.186780 0.351451
O O3 0.641831 0.210146 0.481114
O O4 0.724583 0.302114 0.403968
O O5 0.279465 0.389290 0.750000
O O6 0.109029 0.423954 0.839429
O O7 0.321597 0.431477 0.876380
O O8 0.500000 0.998561 0.250000
O O9 0.500000 0.965365 0.128811
O O10 0.500000 0.449008 0.955514
O O11 0.697241 0.500000 0.000000
O O12 0.675185 0.371326 0.991879
O O13 0.619476 0.104320 0.550046
O O14 0.000000 0.500000 0.500000
#
# Coordination Sequence:
#
# PCOD8256436 Si02
#       6
#    16  16   8  16  16   8
#     4  10  18  33  51  75 109 141 179 227 278 331
#     4  10  20  35  56  82 107 145 194 237 284 341
#     4  10  20  34  56  80 106 134 180 237 277 321
#     4  10  20  34  53  80 113 145 184 234 286 342
#     4  10  20  31  52  81 106 140 181 231 278 331
#     4  12  20  34  58  82 110 144 190 229 281 327
#
# _framework density 18.107453
#
# number of rings (size 3 to 8) (size 9 to 14) (size 15 to 20)
#    0.000    1.800    2.000    4.800    0.000    0.400 
#    1.800    1.000    0.000    1.200    0.000    2.800 
#    0.000    0.000    0.000    0.000    0.000    0.000 
#
# Total GULP energy -495571.294774 kJ/mol
# GULP energy per Si atom -12389.282369 kJ/mol
# Density = 1.806624 g / cm^3
# Si number density = 18.107453 Si / 1000 Ang^3
#
#
#
# Elastic Constant Matrix: (Units=GPa)
#
#
# Indices 1 2 3 4 5 6 
#
# 1 82.9977 46.9954 40.2649 0.0000 0.0000 0.0000
# 2 46.9954 101.7937 54.1354 0.0000 0.0000 0.0000
# 3 40.2649 54.1354 101.1900 0.0000 0.0000 0.0000
# 4 0.0000 0.0000 0.0000 29.9582 0.0000 0.0000
# 5 0.0000 0.0000 0.0000 0.0000 22.2247 0.0000
# 6 0.0000 0.0000 0.0000 0.0000 0.0000 40.6201
#
#
#
# Elastic Compliance Matrix: (Units=1/GPa)
#
#
# Indices 1 2 3 4 5 6 
#
# 1 0.017218 -0.006017 -0.003632 0.000000 0.000000 0.000000
# 2 -0.006017 0.015833 -0.006076 0.000000 0.000000 0.000000
# 3 -0.003632 -0.006076 0.014578 0.000000 0.000000 0.000000
# 4 0.000000 0.000000 0.000000 0.033380 0.000000 0.000000
# 5 0.000000 0.000000 0.000000 0.000000 0.044995 0.000000
# 6 0.000000 0.000000 0.000000 0.000000 0.000000 0.024618
#
#
# Mechanical properties :
#
#
# Convention : Reuss Voigt Hill
#
# Bulk Modulus (GPa) = 61.81162 63.19698 62.50430
# Shear Modulus (GPa) = 26.67147 28.19965 27.43556
#
# Velocity S-wave (km/s) = 3.84207 3.95061 3.89672
# Velocity P-wave (km/s) = 7.34113 7.46904 7.40536
#
# Compressibility (1/GPa) = 0.01617819
#
# Stress axis : x y z
#
# Youngs Moduli (GPa) = 58.07972 63.15803 68.59521
#
# Poissons Ratio (x) = 0.38005 0.24913
# Poissons Ratio (y) = 0.34949 0.41680
# Poissons Ratio (z) = 0.21094 0.38376
#
# Static dielectric constant tensor:
#      x y z
#    x 3.346190 0.000000 0.000000 
#    y 0.000000 3.472660 0.000000 
#    z 0.000000 0.000000 3.356110 
# 
# 
# High freq. dielectric constant tensor:
#      x y z
#    x 1.706700 0.000000 0.000000 
#    y 0.000000 1.703530 0.000000 
#    z 0.000000 0.000000 1.677650 
# 
# From -- ./inp_files/52476.got.cif
#   From: 2010.03.12/outbox.cif.g09.slc.cpg/sg63_27_cif.got.tgz:52476.got - 2010.04.10 19:34:48.
