data_PCOD8256182
_publ_section_title
;
Structure prediction by ZEFSAII (Michael W. Deem and Ramdas Pophale) SiO2 
 PCOD8256182
Probable space group: C M C M
;
_chemical_formula_sum "Si O2"
_cell_formula_units_Z 88
_cell_length_a 19.650548
_cell_length_b 27.549771
_cell_length_c 9.025139
_cell_angle_alpha 90.000000
_cell_angle_beta 90.000000
_cell_angle_gamma 90.000000
_cell_volume 4885.922329
_symmetry_space_group_name_H-M "C M C M"
_symmetry_group_IT_number 63
_symmetry_cell_setting 'orthorhombic'
loop_
_space_group_symop_operation_xyz
x,y,z
-x,-y,1/2+z
x,-y,-z
-x,y,1/2-z
-x,-y,-z
x,y,1/2-z
-x,y,z
x,-y,1/2+z
1/2+x,1/2+y,z
1/2-x,1/2-y,1/2+z
1/2+x,1/2-y,-z
1/2-x,1/2+y,1/2-z
1/2-x,1/2-y,-z
1/2+x,1/2+y,1/2-z
1/2-x,1/2+y,z
1/2+x,1/2-y,1/2+z
loop_
_atom_site_type_symbol
_atom_site_label
_atom_site_fract_x
_atom_site_fract_y
_atom_site_fract_z
Si Si1 0.147307 0.319447 0.571942
Si Si2 0.500000 0.291136 0.991760
Si Si3 0.649307 0.279725 0.584532
Si Si4 0.000000 0.900557 0.080359
Si Si5 0.500000 0.187154 0.411751
Si Si6 0.864779 0.949576 0.077509
Si Si7 0.269724 0.362288 0.423222
O O1 0.149407 0.317177 0.750000
O O2 0.171614 0.268240 0.504620
O O3 0.070323 0.330507 0.511347
O O4 0.197306 0.360402 0.507785
O O5 0.500000 0.342529 0.073193
O O6 0.500000 0.245929 0.105845
O O7 0.431878 0.285890 0.894684
O O8 0.681243 0.278089 0.750000
O O9 0.677586 0.324588 0.492592
O O10 0.932302 0.924026 0.007470
O O11 0.000000 0.915180 0.250000
O O12 0.500000 0.163957 0.250000
O O13 0.875765 0.959092 0.250000
O O14 0.799526 0.915691 0.050231
O O15 0.849578 0.000000 0.000000
O O16 0.260375 0.350858 0.250000
#
# Coordination Sequence:
#
# PCOD8256182 Si02
#       7
#    16   8  16   8   8  16  16
#     4  10  20  35  54  77 104 137 172 209 256 311
#     4  10  18  31  49  74 105 140 184 220 259 296
#     4  11  21  33  49  74 106 139 178 220 259 302
#     4  10  18  34  55  75 102 140 182 223 267 309
#     4   8  17  31  52  77 104 137 170 206 250 308
#     4  10  22  38  56  77 102 136 178 224 271 314
#     4  11  22  36  53  74 102 137 174 214 263 315
#
# _framework density 18.010929000000001
#
# number of rings (size 3 to 8) (size 9 to 14) (size 15 to 20)
#    0.000    1.818    1.818    3.000    0.000    2.909 
#    0.000    1.364    0.000    0.000    0.000    0.636 
#    0.000    0.000    0.000    0.000    0.000    0.000 
#
# Total GULP energy -545342.762478 kJ/mol
# GULP energy per Si atom -12394.153693 kJ/mol
# Density = 1.796994 g / cm^3
# Si number density = 18.010929 Si / 1000 Ang^3
#
#
#
# Elastic Constant Matrix: (Units=GPa)
#
#
# Indices 1 2 3 4 5 6 
#
# 1 125.0790 54.7897 40.5053 0.0000 0.0000 0.0000
# 2 54.7897 83.0028 36.5667 0.0000 0.0000 0.0000
# 3 40.5053 36.5667 82.9153 0.0000 0.0000 0.0000
# 4 0.0000 0.0000 0.0000 25.8019 0.0000 0.0000
# 5 0.0000 0.0000 0.0000 0.0000 21.2257 0.0000
# 6 0.0000 0.0000 0.0000 0.0000 0.0000 19.9844
#
#
#
# Elastic Compliance Matrix: (Units=1/GPa)
#
#
# Indices 1 2 3 4 5 6 
#
# 1 0.011778 -0.006503 -0.002886 0.000000 0.000000 0.000000
# 2 -0.006503 0.018544 -0.005001 0.000000 0.000000 0.000000
# 3 -0.002886 -0.005001 0.015676 0.000000 0.000000 0.000000
# 4 0.000000 0.000000 0.000000 0.038757 0.000000 0.000000
# 5 0.000000 0.000000 0.000000 0.000000 0.047113 0.000000
# 6 0.000000 0.000000 0.000000 0.000000 0.000000 0.050039
#
#
# Mechanical properties :
#
#
# Convention : Reuss Voigt Hill
#
# Bulk Modulus (GPa) = 58.08082 61.63561 59.85821
# Shear Modulus (GPa) = 23.10257 24.01142 23.55700
#
# Velocity S-wave (km/s) = 3.58536 3.65521 3.62045
# Velocity P-wave (km/s) = 7.03259 7.21869 7.12625
#
# Compressibility (1/GPa) = 0.01721739
#
# Stress axis : x y z
#
# Youngs Moduli (GPa) = 84.90246 53.92613 63.79278
#
# Poissons Ratio (x) = 0.35071 0.18409
# Poissons Ratio (y) = 0.55216 0.31903
# Poissons Ratio (z) = 0.24500 0.26969
#
# Static dielectric constant tensor:
#      x y z
#    x 3.694320 0.000000 0.000000 
#    y 0.000000 3.012840 0.000000 
#    z 0.000000 0.000000 3.169600 
# 
# 
# High freq. dielectric constant tensor:
#      x y z
#    x 1.711720 0.000000 0.000000 
#    y 0.000000 1.657690 0.000000 
#    z 0.000000 0.000000 1.690160 
# 
# From -- ./inp_files/8263.got.cif
#   From: 2010.03.12/outbox.cif.g09.slc.cpg/sg63_5_cif.got.tgz:8263.got - 2010.04.10 19:34:48.
