data_PCOD8256871
_publ_section_title
;
Structure prediction by ZEFSAII (Michael W. Deem and Ramdas Pophale) SiO2 
 PCOD8256871
Probable space group: C M C M
;
_chemical_formula_sum "Si O2"
_cell_formula_units_Z 80
_cell_length_a 18.368577
_cell_length_b 9.817576
_cell_length_c 24.751872
_cell_angle_alpha 90.000000
_cell_angle_beta 90.000000
_cell_angle_gamma 90.000000
_cell_volume 4463.626379
_symmetry_space_group_name_H-M "C M C M"
_symmetry_group_IT_number 63
_symmetry_cell_setting 'orthorhombic'
loop_
_space_group_symop_operation_xyz
x,y,z
-x,-y,1/2+z
x,-y,-z
-x,y,1/2-z
-x,-y,-z
x,y,1/2-z
-x,y,z
x,-y,1/2+z
1/2+x,1/2+y,z
1/2-x,1/2-y,1/2+z
1/2+x,1/2-y,-z
1/2-x,1/2+y,1/2-z
1/2-x,1/2-y,-z
1/2+x,1/2+y,1/2-z
1/2-x,1/2+y,z
1/2+x,1/2-y,1/2+z
loop_
_atom_site_type_symbol
_atom_site_label
_atom_site_fract_x
_atom_site_fract_y
_atom_site_fract_z
Si Si1 0.666350 0.883545 0.463111
Si Si2 0.339578 0.632127 0.971146
Si Si3 0.674253 0.701850 0.647411
Si Si4 0.680987 0.027269 0.651049
Si Si5 0.419957 0.294093 0.250000
Si Si6 0.581111 0.973620 0.250000
O O1 0.633825 0.745065 0.486436
O O2 0.753194 0.879308 0.466859
O O3 0.641616 0.916437 0.402539
O O4 0.632951 0.000000 0.500000
O O5 0.365313 0.663516 0.909618
O O6 0.373596 0.500000 0.000000
O O7 0.743901 0.607617 0.658469
O O8 0.620551 0.660526 0.695583
O O9 0.695044 0.863425 0.647985
O O10 0.626426 0.072197 0.697954
O O11 0.500000 0.361624 0.250000
O O12 0.427303 0.133646 0.250000
O O13 0.500000 0.907170 0.250000
#
# Coordination Sequence:
#
# PCOD8256871 Si02
#       6
#    16  16  16  16   8   8
#     4   9  15  26  42  70 104 128 154 195 243 294
#     4   9  17  26  44  72 104 132 158 196 247 295
#     4  10  19  31  51  80 102 127 167 205 248 293
#     4  10  19  30  52  78 102 130 163 208 248 292
#     4   9  19  36  55  71  96 133 172 210 246 293
#     4   9  19  36  53  71  98 133 170 208 252 295
#
# _framework density 17.922647999999999
#
# number of rings (size 3 to 8) (size 9 to 14) (size 15 to 20)
#    0.000    2.600    2.000    0.600    8.400    0.000 
#    0.000    0.000    0.000    4.800    0.000    0.000 
#    0.000    0.000    0.000    0.000    0.000    0.000 
#
# Total GULP energy -495574.286400 kJ/mol
# GULP energy per Si atom -12389.357160 kJ/mol
# Density = 1.788186 g / cm^3
# Si number density = 17.922648 Si / 1000 Ang^3
#
#
#
# Elastic Constant Matrix: (Units=GPa)
#
#
# Indices 1 2 3 4 5 6 
#
# 1 65.8834 31.2174 63.0690 0.0000 0.0000 0.0000
# 2 31.2174 111.0279 68.3857 0.0000 0.0000 0.0000
# 3 63.0690 68.3857 199.8537 0.0000 0.0000 0.0000
# 4 0.0000 0.0000 0.0000 29.0276 0.0000 0.0000
# 5 0.0000 0.0000 0.0000 0.0000 50.0190 0.0000
# 6 0.0000 0.0000 0.0000 0.0000 0.0000 8.4729
#
#
#
# Elastic Compliance Matrix: (Units=1/GPa)
#
#
# Indices 1 2 3 4 5 6 
#
# 1 0.022262 -0.002448 -0.006188 0.000000 0.000000 0.000000
# 2 -0.002448 0.011681 -0.003224 0.000000 0.000000 0.000000
# 3 -0.006188 -0.003224 0.008060 0.000000 0.000000 0.000000
# 4 0.000000 0.000000 0.000000 0.034450 0.000000 0.000000
# 5 0.000000 0.000000 0.000000 0.000000 0.019992 0.000000
# 6 0.000000 0.000000 0.000000 0.000000 0.000000 0.118023
#
#
# Mechanical properties :
#
#
# Convention : Reuss Voigt Hill
#
# Bulk Modulus (GPa) = 54.69833 78.01213 66.35523
# Shear Modulus (GPa) = 20.46813 31.77675 26.12244
#
# Velocity S-wave (km/s) = 3.38305 4.21526 3.82188
# Velocity P-wave (km/s) = 6.77093 8.20444 7.52191
#
# Compressibility (1/GPa) = 0.01828209
#
# Stress axis : x y z
#
# Youngs Moduli (GPa) = 44.92058 85.60813 124.07511
#
# Poissons Ratio (x) = 0.20958 0.76771
# Poissons Ratio (y) = 0.10997 0.40008
# Poissons Ratio (z) = 0.27795 0.27604
#
# Static dielectric constant tensor:
#      x y z
#    x 2.935670 0.000000 0.000000 
#    y 0.000000 3.425190 0.000000 
#    z 0.000000 0.000000 3.866710 
# 
# 
# High freq. dielectric constant tensor:
#      x y z
#    x 1.634100 0.000000 0.000000 
#    y 0.000000 1.689440 0.000000 
#    z 0.000000 0.000000 1.719760 
# 
# From -- ./inp_files/63623.got.cif
#   From: 2010.03.12/outbox.cif.g09.slc.cpg/sg63_32_cif.got.tgz:63623.got - 2010.04.10 19:34:48.
