data_PCOD8256357
_publ_section_title
;
Structure prediction by ZEFSAII (Michael W. Deem and Ramdas Pophale) SiO2 
 PCOD8256357
Probable space group: C M C M
;
_chemical_formula_sum "Si O2"
_cell_formula_units_Z 72
_cell_length_a 15.659560
_cell_length_b 29.263930
_cell_length_c 8.520725
_cell_angle_alpha 90.000000
_cell_angle_beta 90.000000
_cell_angle_gamma 90.000000
_cell_volume 3904.709719
_symmetry_space_group_name_H-M "C M C M"
_symmetry_group_IT_number 63
_symmetry_cell_setting 'orthorhombic'
loop_
_space_group_symop_operation_xyz
x,y,z
-x,-y,1/2+z
x,-y,-z
-x,y,1/2-z
-x,-y,-z
x,y,1/2-z
-x,y,z
x,-y,1/2+z
1/2+x,1/2+y,z
1/2-x,1/2-y,1/2+z
1/2+x,1/2-y,-z
1/2-x,1/2+y,1/2-z
1/2-x,1/2-y,-z
1/2+x,1/2+y,1/2-z
1/2-x,1/2+y,z
1/2+x,1/2-y,1/2+z
loop_
_atom_site_type_symbol
_atom_site_label
_atom_site_fract_x
_atom_site_fract_y
_atom_site_fract_z
Si Si1 0.000000 0.387997 0.923646
Si Si2 0.500000 0.550972 0.935578
Si Si3 0.500000 0.219906 0.420558
Si Si4 0.679454 0.114263 0.935127
Si Si5 0.682206 0.785430 0.938296
Si Si6 0.674559 0.449304 0.934945
O O1 0.000000 0.410862 0.750000
O O2 0.000000 0.334241 0.901875
O O3 0.084679 0.402619 0.017937
O O4 0.500000 0.552056 0.750000
O O5 0.500000 0.500000 0.000000
O O6 0.587229 0.574175 0.998755
O O7 0.500000 0.243578 0.250000
O O8 0.410470 0.232646 0.504628
O O9 0.689472 0.112212 0.750000
O O10 0.701994 0.164935 0.993876
O O11 0.745485 0.080529 0.015322
O O12 0.681058 0.788183 0.750000
O O13 0.750000 0.750000 0.000000
O O14 0.667731 0.451768 0.750000
O O15 0.687401 0.500000 0.000000
#
# Coordination Sequence:
#
# PCOD8256357 Si02
#       6
#     8   8   8  16  16  16
#     4   9  17  33  54  77 104 139 176 215 261 316
#     4  10  18  32  53  78 105 138 177 217 259 314
#     4   7  14  29  50  71  98 133 170 206 252 308
#     4  11  21  35  55  81 108 140 179 221 264 314
#     4  10  19  34  54  78 105 138 176 219 264 312
#     4  11  21  36  56  80 108 141 178 220 265 315
#
# _framework density 18.439271000000002
#
# number of rings (size 3 to 8) (size 9 to 14) (size 15 to 20)
#    0.000    2.000    0.000    8.667    0.000    0.000 
#    0.000    3.333    0.000    1.333    0.000    0.000 
#    0.000    0.000    0.000    0.000    0.000    0.000 
#
# Total GULP energy -446133.666665 kJ/mol
# GULP energy per Si atom -12392.601852 kJ/mol
# Density = 1.839730 g / cm^3
# Si number density = 18.439271 Si / 1000 Ang^3
#
#
#
# Elastic Constant Matrix: (Units=GPa)
#
#
# Indices 1 2 3 4 5 6 
#
# 1 175.5956 60.6606 43.6407 0.0000 0.0000 0.0000
# 2 60.6606 60.4077 25.9856 0.0000 0.0000 0.0000
# 3 43.6407 25.9856 136.9155 0.0000 0.0000 0.0000
# 4 0.0000 0.0000 0.0000 26.9000 0.0000 0.0000
# 5 0.0000 0.0000 0.0000 0.0000 32.7806 0.0000
# 6 0.0000 0.0000 0.0000 0.0000 0.0000 27.4430
#
#
#
# Elastic Compliance Matrix: (Units=1/GPa)
#
#
# Indices 1 2 3 4 5 6 
#
# 1 0.008910 -0.008412 -0.001243 0.000000 0.000000 0.000000
# 2 -0.008412 0.025969 -0.002247 0.000000 0.000000 0.000000
# 3 -0.001243 -0.002247 0.008127 0.000000 0.000000 0.000000
# 4 0.000000 0.000000 0.000000 0.037175 0.000000 0.000000
# 5 0.000000 0.000000 0.000000 0.000000 0.030506 0.000000
# 6 0.000000 0.000000 0.000000 0.000000 0.000000 0.036439
#
#
# Mechanical properties :
#
#
# Convention : Reuss Voigt Hill
#
# Bulk Modulus (GPa) = 52.08602 70.38808 61.23705
# Shear Modulus (GPa) = 28.19587 33.60017 30.89802
#
# Velocity S-wave (km/s) = 3.91464 4.27336 4.09793
# Velocity P-wave (km/s) = 6.98149 7.91231 7.46143
#
# Compressibility (1/GPa) = 0.01919901
#
# Stress axis : x y z
#
# Youngs Moduli (GPa) = 112.23258 38.50809 123.05264
#
# Poissons Ratio (x) = 0.32395 0.15300
# Poissons Ratio (y) = 0.94416 0.27653
# Poissons Ratio (z) = 0.13955 0.08654
#
# Static dielectric constant tensor:
#      x y z
#    x 4.291040 0.000000 0.000000 
#    y 0.000000 3.002150 0.000000 
#    z 0.000000 0.000000 3.512760 
# 
# 
# High freq. dielectric constant tensor:
#      x y z
#    x 1.743860 0.000000 0.000000 
#    y 0.000000 1.668950 0.000000 
#    z 0.000000 0.000000 1.727050 
# 
# From -- ./inp_files/4990.got.cif
#   From: 2010.03.12/outbox.cif.g09.slc.cpg/sg63_3_cif.got.tgz:4990.got - 2010.04.10 19:34:48.
