data_PCOD8256637
_publ_section_title
;
Structure prediction by ZEFSAII (Michael W. Deem and Ramdas Pophale) SiO2 
 PCOD8256637
Probable space group: C M C M
;
_chemical_formula_sum "Si O2"
_cell_formula_units_Z 96
_cell_length_a 22.826830
_cell_length_b 26.843568
_cell_length_c 8.913160
_cell_angle_alpha 90.000000
_cell_angle_beta 90.000000
_cell_angle_gamma 90.000000
_cell_volume 5461.570551
_symmetry_space_group_name_H-M "C M C M"
_symmetry_group_IT_number 63
_symmetry_cell_setting 'orthorhombic'
loop_
_space_group_symop_operation_xyz
x,y,z
-x,-y,1/2+z
x,-y,-z
-x,y,1/2-z
-x,-y,-z
x,y,1/2-z
-x,y,z
x,-y,1/2+z
1/2+x,1/2+y,z
1/2-x,1/2-y,1/2+z
1/2+x,1/2-y,-z
1/2-x,1/2+y,1/2-z
1/2-x,1/2-y,-z
1/2+x,1/2+y,1/2-z
1/2-x,1/2+y,z
1/2+x,1/2-y,1/2+z
loop_
_atom_site_type_symbol
_atom_site_label
_atom_site_fract_x
_atom_site_fract_y
_atom_site_fract_z
Si Si1 0.743984 0.300162 0.584463
Si Si2 0.848876 0.631913 0.086525
Si Si3 0.433403 0.304872 0.073529
Si Si4 0.833305 0.123261 0.575056
Si Si5 0.932082 0.702337 0.575335
Si Si6 0.753006 0.553288 0.428707
O O1 0.713254 0.296297 0.750000
O O2 0.750000 0.250000 0.500000
O O3 0.808336 0.320604 0.610447
O O4 0.710355 0.332977 0.464608
O O5 0.874416 0.615903 0.250000
O O6 0.808823 0.586922 0.019277
O O7 0.901073 0.651286 0.980559
O O8 0.427976 0.295990 0.250000
O O9 0.500000 0.314862 0.022339
O O10 0.397227 0.354935 0.027494
O O11 0.408776 0.254145 0.997496
O O12 0.831293 0.109916 0.750000
O O13 0.810104 0.074827 0.484516
O O14 0.920153 0.706961 0.750000
O O15 0.000000 0.695869 0.535011
O O16 0.763599 0.500000 0.500000
O O17 0.750166 0.550935 0.250000
#
# Coordination Sequence:
#
# PCOD8256637 Si02
#       6
#    16  16  16  16  16  16
#     4  10  19  29  42  65  97 128 160 198 241 290
#     4   9  19  33  48  68  94 126 161 196 238 291
#     4   9  18  32  49  70 100 138 173 202 235 281
#     4  10  19  31  49  72  97 127 163 201 244 292
#     4  10  20  31  46  72 103 134 168 204 239 278
#     4  10  21  37  56  77  99 123 157 202 253 303
#
# _framework density 17.577362000000001
#
# number of rings (size 3 to 8) (size 9 to 14) (size 15 to 20)
#    0.000    2.333    0.000    4.000    0.000   10.333 
#    0.000    0.000    0.000    1.000    0.000    0.000 
#    0.000    0.000    0.000    0.000    0.000    0.000 
#
# Total GULP energy -594653.319800 kJ/mol
# GULP energy per Si atom -12388.610829 kJ/mol
# Density = 1.753735 g / cm^3
# Si number density = 17.577362 Si / 1000 Ang^3
#
#
#
# Elastic Constant Matrix: (Units=GPa)
#
#
# Indices 1 2 3 4 5 6 
#
# 1 69.4283 40.5285 36.3487 0.0000 0.0000 0.0000
# 2 40.5285 118.4415 44.1661 0.0000 0.0000 0.0000
# 3 36.3487 44.1661 71.3804 0.0000 0.0000 0.0000
# 4 0.0000 0.0000 0.0000 26.1494 0.0000 0.0000
# 5 0.0000 0.0000 0.0000 0.0000 25.2926 0.0000
# 6 0.0000 0.0000 0.0000 0.0000 0.0000 24.7007
#
#
#
# Elastic Compliance Matrix: (Units=1/GPa)
#
#
# Indices 1 2 3 4 5 6 
#
# 1 0.021120 -0.004181 -0.008168 0.000000 0.000000 0.000000
# 2 -0.004181 0.011803 -0.005174 0.000000 0.000000 0.000000
# 3 -0.008168 -0.005174 0.021370 0.000000 0.000000 0.000000
# 4 0.000000 0.000000 0.000000 0.038242 0.000000 0.000000
# 5 0.000000 0.000000 0.000000 0.000000 0.039537 0.000000
# 6 0.000000 0.000000 0.000000 0.000000 0.000000 0.040485
#
#
# Mechanical properties :
#
#
# Convention : Reuss Voigt Hill
#
# Bulk Modulus (GPa) = 51.95497 55.70409 53.82953
# Shear Modulus (GPa) = 23.36238 24.44231 23.90234
#
# Velocity S-wave (km/s) = 3.64966 3.73306 3.69160
# Velocity P-wave (km/s) = 6.88347 7.09511 6.99009
#
# Compressibility (1/GPa) = 0.01924743
#
# Stress axis : x y z
#
# Youngs Moduli (GPa) = 47.34759 84.72401 46.79443
#
# Poissons Ratio (x) = 0.35425 0.38221
# Poissons Ratio (y) = 0.19797 0.24211
# Poissons Ratio (z) = 0.38673 0.43835
#
# Static dielectric constant tensor:
#      x y z
#    x 3.356900 0.000000 0.000000 
#    y 0.000000 2.986950 0.000000 
#    z 0.000000 0.000000 3.272700 
# 
# 
# High freq. dielectric constant tensor:
#      x y z
#    x 1.666880 0.000000 0.000000 
#    y 0.000000 1.657440 0.000000 
#    z 0.000000 0.000000 1.689350 
# 
# From -- ./inp_files/8601.got.cif
#   From: 2010.03.12/outbox.cif.g09.slc.cpg/sg63_5_cif.got.tgz:8601.got - 2010.04.10 19:34:48.
