data_PCOD8256849
_publ_section_title
;
Structure prediction by ZEFSAII (Michael W. Deem and Ramdas Pophale) SiO2 
 PCOD8256849
Probable space group: C M C M
;
_chemical_formula_sum "Si O2"
_cell_formula_units_Z 96
_cell_length_a 16.866487
_cell_length_b 12.239743
_cell_length_c 24.067538
_cell_angle_alpha 90.000000
_cell_angle_beta 90.000000
_cell_angle_gamma 90.000000
_cell_volume 4968.537832
_symmetry_space_group_name_H-M "C M C M"
_symmetry_group_IT_number 63
_symmetry_cell_setting 'orthorhombic'
loop_
_space_group_symop_operation_xyz
x,y,z
-x,-y,1/2+z
x,-y,-z
-x,y,1/2-z
-x,-y,-z
x,y,1/2-z
-x,y,z
x,-y,1/2+z
1/2+x,1/2+y,z
1/2-x,1/2-y,1/2+z
1/2+x,1/2-y,-z
1/2-x,1/2+y,1/2-z
1/2-x,1/2-y,-z
1/2+x,1/2+y,1/2-z
1/2-x,1/2+y,z
1/2+x,1/2-y,1/2+z
loop_
_atom_site_type_symbol
_atom_site_label
_atom_site_fract_x
_atom_site_fract_y
_atom_site_fract_z
Si Si1 0.295506 0.580855 0.132352
Si Si2 0.087597 0.334794 0.985700
Si Si3 0.773435 0.426666 0.449793
Si Si4 0.321564 0.250020 0.109060
Si Si5 0.592089 0.420515 0.186876
Si Si6 0.413256 0.602675 0.035684
O O1 0.234123 0.490471 0.108568
O O2 0.241725 0.686125 0.149412
O O3 0.350982 0.527340 0.179974
O O4 0.353407 0.624815 0.085101
O O5 0.129583 0.343072 0.925063
O O6 0.000000 0.386971 0.983670
O O7 0.135860 0.398625 0.033830
O O8 0.082319 0.206613 0.996499
O O9 0.737024 0.500000 0.500000
O O10 0.722814 0.316623 0.440330
O O11 0.379074 0.324551 0.146057
O O12 0.600338 0.379915 0.250000
O O13 0.500000 0.448506 0.173386
O O14 0.500000 0.577896 0.061427
O O15 0.384573 0.500000 0.000000
#
# Coordination Sequence:
#
# PCOD8256849 Si02
#       6
#    16  16  16  16  16  16
#     4  11  20  34  58  80 108 141 182 226 274 327
#     4  11  21  32  48  76 115 153 182 208 250 316
#     4  11  20  33  51  76 113 152 180 214 258 311
#     4  11  21  35  57  83 109 143 185 227 275 330
#     4  10  23  42  61  82 107 136 180 241 297 339
#     4  10  19  30  49  78 110 144 180 217 259 313
#
# _framework density 19.321579
#
# number of rings (size 3 to 8) (size 9 to 14) (size 15 to 20)
#    0.000    1.333    3.333    5.000    0.000    2.333 
#    0.000    0.000    0.000    0.500    0.000    0.000 
#    0.000   10.667    0.000    0.000    0.000    0.000 
#
# Total GULP energy -594726.428613 kJ/mol
# GULP energy per Si atom -12390.133929 kJ/mol
# Density = 1.927760 g / cm^3
# Si number density = 19.321579 Si / 1000 Ang^3
#
#
#
# Elastic Constant Matrix: (Units=GPa)
#
#
# Indices 1 2 3 4 5 6 
#
# 1 150.3665 42.8866 39.6854 0.0000 0.0000 0.0000
# 2 42.8866 57.4937 13.1878 0.0000 0.0000 0.0000
# 3 39.6854 13.1878 64.5136 0.0000 0.0000 0.0000
# 4 0.0000 0.0000 0.0000 17.4610 0.0000 0.0000
# 5 0.0000 0.0000 0.0000 0.0000 25.4290 0.0000
# 6 0.0000 0.0000 0.0000 0.0000 0.0000 27.4712
#
#
#
# Elastic Compliance Matrix: (Units=1/GPa)
#
#
# Indices 1 2 3 4 5 6 
#
# 1 0.009626 -0.006108 -0.004673 0.000000 0.000000 0.000000
# 2 -0.006108 0.022125 -0.000765 0.000000 0.000000 0.000000
# 3 -0.004673 -0.000765 0.018531 0.000000 0.000000 0.000000
# 4 0.000000 0.000000 0.000000 0.057270 0.000000 0.000000
# 5 0.000000 0.000000 0.000000 0.000000 0.039325 0.000000
# 6 0.000000 0.000000 0.000000 0.000000 0.000000 0.036402
#
#
# Mechanical properties :
#
#
# Convention : Reuss Voigt Hill
#
# Bulk Modulus (GPa) = 36.77840 51.54370 44.16105
# Shear Modulus (GPa) = 23.20877 25.84652 24.52764
#
# Velocity S-wave (km/s) = 3.46957 3.66143 3.56679
# Velocity P-wave (km/s) = 5.92678 6.67903 6.31412
#
# Compressibility (1/GPa) = 0.02718987
#
# Stress axis : x y z
#
# Youngs Moduli (GPa) = 103.88684 45.19718 53.96249
#
# Poissons Ratio (x) = 0.27609 0.25215
# Poissons Ratio (y) = 0.63459 0.04129
# Poissons Ratio (z) = 0.48542 0.03459
#
# Static dielectric constant tensor:
#      x y z
#    x 3.937460 0.000000 0.000000 
#    y 0.000000 3.593690 0.000000 
#    z 0.000000 0.000000 3.102600 
# 
# 
# High freq. dielectric constant tensor:
#      x y z
#    x 1.776530 0.000000 0.000000 
#    y 0.000000 1.752480 0.000000 
#    z 0.000000 0.000000 1.695700 
# 
# From -- ./inp_files/63674.got.cif
#   From: 2010.03.12/outbox.cif.g09.slc.cpg/sg63_32_cif.got.tgz:63674.got - 2010.04.10 19:34:48.
