data_PCOD8256168
_publ_section_title
;
Structure prediction by ZEFSAII (Michael W. Deem and Ramdas Pophale) SiO2 
 PCOD8256168
Probable space group: C M C M
;
_chemical_formula_sum "Si O2"
_cell_formula_units_Z 96
_cell_length_a 22.387763
_cell_length_b 27.136693
_cell_length_c 9.024953
_cell_angle_alpha 90.000000
_cell_angle_beta 90.000000
_cell_angle_gamma 90.000000
_cell_volume 5482.928356
_symmetry_space_group_name_H-M "C M C M"
_symmetry_group_IT_number 63
_symmetry_cell_setting 'orthorhombic'
loop_
_space_group_symop_operation_xyz
x,y,z
-x,-y,1/2+z
x,-y,-z
-x,y,1/2-z
-x,-y,-z
x,y,1/2-z
-x,y,z
x,-y,1/2+z
1/2+x,1/2+y,z
1/2-x,1/2-y,1/2+z
1/2+x,1/2-y,-z
1/2-x,1/2+y,1/2-z
1/2-x,1/2-y,-z
1/2+x,1/2+y,1/2-z
1/2-x,1/2+y,z
1/2+x,1/2-y,1/2+z
loop_
_atom_site_type_symbol
_atom_site_label
_atom_site_fract_x
_atom_site_fract_y
_atom_site_fract_z
Si Si1 0.681569 0.191733 0.415892
Si Si2 0.198126 0.137937 0.080109
Si Si3 0.382114 0.109043 0.577511
Si Si4 0.235810 0.448119 0.424794
Si Si5 0.000000 0.261758 0.925939
Si Si6 0.380243 0.709829 0.579712
Si Si7 0.500000 0.125384 0.074635
O O1 0.659954 0.176405 0.250000
O O2 0.750724 0.179166 0.437183
O O3 0.641040 0.163081 0.533474
O O4 0.672090 0.249730 0.438496
O O5 0.187419 0.122982 0.250000
O O6 0.215375 0.089524 0.988623
O O7 0.137695 0.161638 0.014087
O O8 0.396865 0.108347 0.750000
O O9 0.331185 0.069443 0.535102
O O10 0.442127 0.096750 0.487503
O O11 0.247663 0.500000 0.500000
O O12 0.245059 0.451985 0.250000
O O13 0.058158 0.232554 0.983313
O O14 0.000000 0.264415 0.750000
O O15 0.000000 0.318035 0.984544
O O16 0.387590 0.693684 0.750000
O O17 0.500000 0.121913 0.250000
#
# Coordination Sequence:
#
# PCOD8256168 Si02
#       7
#    16  16  16  16   8  16   8
#     4   9  17  30  48  69  99 138 174 207 248 304
#     4  10  20  32  49  76 104 132 168 210 258 309
#     4  10  20  32  49  75 103 131 170 218 261 301
#     4  10  21  38  58  78 101 129 164 213 268 317
#     4   9  18  31  49  70  99 142 183 214 244 289
#     4  10  18  31  48  70 102 139 177 211 248 296
#     4  11  19  33  52  70  99 142 185 214 250 301
#
# _framework density 17.508891999999999
#
# number of rings (size 3 to 8) (size 9 to 14) (size 15 to 20)
#    0.000    2.167    1.667    2.250    0.000    3.333 
#    0.000    0.833    0.000    0.000    0.000    0.583 
#    0.000    0.000    0.000    0.000    0.000    0.000 
#
# Total GULP energy -595211.549039 kJ/mol
# GULP energy per Si atom -12400.240605 kJ/mol
# Density = 1.746904 g / cm^3
# Si number density = 17.508892 Si / 1000 Ang^3
#
#
#
# Elastic Constant Matrix: (Units=GPa)
#
#
# Indices 1 2 3 4 5 6 
#
# 1 51.7724 35.9153 21.8849 0.0000 0.0000 0.0000
# 2 35.9153 92.0758 40.7472 0.0000 0.0000 0.0000
# 3 21.8849 40.7472 71.9922 0.0000 0.0000 0.0000
# 4 0.0000 0.0000 0.0000 29.0822 0.0000 0.0000
# 5 0.0000 0.0000 0.0000 0.0000 25.8352 0.0000
# 6 0.0000 0.0000 0.0000 0.0000 0.0000 17.1712
#
#
#
# Elastic Compliance Matrix: (Units=1/GPa)
#
#
# Indices 1 2 3 4 5 6 
#
# 1 0.026956 -0.009190 -0.002993 0.000000 0.000000 0.000000
# 2 -0.009190 0.017623 -0.007181 0.000000 0.000000 0.000000
# 3 -0.002993 -0.007181 0.018865 0.000000 0.000000 0.000000
# 4 0.000000 0.000000 0.000000 0.034385 0.000000 0.000000
# 5 0.000000 0.000000 0.000000 0.000000 0.038707 0.000000
# 6 0.000000 0.000000 0.000000 0.000000 0.000000 0.058237
#
#
# Mechanical properties :
#
#
# Convention : Reuss Voigt Hill
#
# Bulk Modulus (GPa) = 40.45968 45.88167 43.17068
# Shear Modulus (GPa) = 20.68351 22.23726 21.46039
#
# Velocity S-wave (km/s) = 3.44075 3.56765 3.50478
# Velocity P-wave (km/s) = 6.24046 6.57514 6.40998
#
# Compressibility (1/GPa) = 0.02471596
#
# Stress axis : x y z
#
# Youngs Moduli (GPa) = 37.09804 56.74359 53.00948
#
# Poissons Ratio (x) = 0.52147 0.15864
# Poissons Ratio (y) = 0.34093 0.38066
# Poissons Ratio (z) = 0.11103 0.40747
#
# Static dielectric constant tensor:
#      x y z
#    x 3.199510 0.000000 0.000000 
#    y 0.000000 2.988720 0.000000 
#    z 0.000000 0.000000 3.252780 
# 
# 
# High freq. dielectric constant tensor:
#      x y z
#    x 1.662030 0.000000 0.000000 
#    y 0.000000 1.648140 0.000000 
#    z 0.000000 0.000000 1.678600 
# 
# From -- ./inp_files/10547.got.cif
#   From: 2010.03.12/outbox.cif.g09.slc.cpg/sg63_6_cif.got.tgz:10547.got - 2010.04.10 19:34:48.
