data_PCOD8256084
_publ_section_title
;
Structure prediction by ZEFSAII (Michael W. Deem and Ramdas Pophale) SiO2 
 PCOD8256084
Probable space group: C M C M
;
_chemical_formula_sum "Si O2"
_cell_formula_units_Z 104
_cell_length_a 24.496430
_cell_length_b 25.216016
_cell_length_c 8.987229
_cell_angle_alpha 90.000000
_cell_angle_beta 90.000000
_cell_angle_gamma 90.000000
_cell_volume 5551.432660
_symmetry_space_group_name_H-M "C M C M"
_symmetry_group_IT_number 63
_symmetry_cell_setting 'orthorhombic'
loop_
_space_group_symop_operation_xyz
x,y,z
-x,-y,1/2+z
x,-y,-z
-x,y,1/2-z
-x,-y,-z
x,y,1/2-z
-x,y,z
x,-y,1/2+z
1/2+x,1/2+y,z
1/2-x,1/2-y,1/2+z
1/2+x,1/2-y,-z
1/2-x,1/2+y,1/2-z
1/2-x,1/2-y,-z
1/2+x,1/2+y,1/2-z
1/2-x,1/2+y,z
1/2+x,1/2-y,1/2+z
loop_
_atom_site_type_symbol
_atom_site_label
_atom_site_fract_x
_atom_site_fract_y
_atom_site_fract_z
Si Si1 0.000000 0.058135 0.425769
Si Si2 0.437721 0.265900 0.574452
Si Si3 0.398435 0.552470 0.583609
Si Si4 0.149598 0.839875 0.415924
Si Si5 0.118278 0.656283 0.574071
Si Si6 0.264330 0.804219 0.075584
Si Si7 0.936574 0.555271 0.425128
O O1 0.945842 0.083981 0.492385
O O2 0.000000 0.059878 0.250000
O O3 0.000000 0.000000 0.500000
O O4 0.436413 0.272659 0.750000
O O5 0.500000 0.275741 0.515787
O O6 0.394947 0.308961 0.513250
O O7 0.419471 0.206469 0.529828
O O8 0.377485 0.500000 0.500000
O O9 0.417681 0.535971 0.750000
O O10 0.352889 0.596579 0.586777
O O11 0.142556 0.816351 0.250000
O O12 0.211675 0.837855 0.471217
O O13 0.116088 0.645565 0.750000
O O14 0.179873 0.668826 0.517509
O O15 0.097863 0.603905 0.490973
O O16 0.270944 0.794797 0.250000
O O17 0.250000 0.750000 0.000000
O O18 0.917590 0.500000 0.500000
O O19 0.925671 0.551122 0.250000
O O20 0.000000 0.565817 0.461047
#
# Coordination Sequence:
#
# PCOD8256084 Si02
#       7
#     8  16  16  16  16  16  16
#     4  10  18  30  50  74  98 130 170 212 257 310
#     4  10  21  35  53  82 115 147 184 227 278 335
#     4  10  20  35  52  73 102 136 175 218 268 320
#     4  10  22  37  55  79 109 143 182 229 280 329
#     4  10  20  36  59  84 115 152 189 234 285 337
#     4  10  20  37  59  82 109 146 189 234 279 331
#     4  10  21  37  59  88 121 157 196 237 285 344
#
# _framework density 18.733903000000002
#
# number of rings (size 3 to 8) (size 9 to 14) (size 15 to 20)
#    0.000    2.000    1.538    3.000    1.077    4.308 
#    0.000    0.769    0.000    1.846    0.000    0.000 
#    0.000    0.000    0.000    0.000    0.000    0.000 
#
# Total GULP energy -644272.998237 kJ/mol
# GULP energy per Si atom -12389.865351 kJ/mol
# Density = 1.869126 g / cm^3
# Si number density = 18.733903 Si / 1000 Ang^3
#
#
#
# Elastic Constant Matrix: (Units=GPa)
#
#
# Indices 1 2 3 4 5 6 
#
# 1 141.4168 61.3933 43.9569 0.0000 0.0000 0.0000
# 2 61.3933 117.9322 46.8604 0.0000 0.0000 0.0000
# 3 43.9569 46.8604 83.7271 0.0000 0.0000 0.0000
# 4 0.0000 0.0000 0.0000 31.4473 0.0000 0.0000
# 5 0.0000 0.0000 0.0000 0.0000 22.3755 0.0000
# 6 0.0000 0.0000 0.0000 0.0000 0.0000 33.8138
#
#
#
# Elastic Compliance Matrix: (Units=1/GPa)
#
#
# Indices 1 2 3 4 5 6 
#
# 1 0.009654 -0.003873 -0.002901 0.000000 0.000000 0.000000
# 2 -0.003873 0.012458 -0.004939 0.000000 0.000000 0.000000
# 3 -0.002901 -0.004939 0.016231 0.000000 0.000000 0.000000
# 4 0.000000 0.000000 0.000000 0.031799 0.000000 0.000000
# 5 0.000000 0.000000 0.000000 0.000000 0.044692 0.000000
# 6 0.000000 0.000000 0.000000 0.000000 0.000000 0.029574
#
#
# Mechanical properties :
#
#
# Convention : Reuss Voigt Hill
#
# Bulk Modulus (GPa) = 67.03720 71.94413 69.49066
# Shear Modulus (GPa) = 28.93392 30.25169 29.59280
#
# Velocity S-wave (km/s) = 3.93424 4.02283 3.97878
# Velocity P-wave (km/s) = 7.51659 7.75010 7.63424
#
# Compressibility (1/GPa) = 0.01491709
#
# Stress axis : x y z
#
# Youngs Moduli (GPa) = 103.57891 80.26693 61.61089
#
# Poissons Ratio (x) = 0.31090 0.17872
# Poissons Ratio (y) = 0.40119 0.30431
# Poissons Ratio (z) = 0.30046 0.39646
#
# Static dielectric constant tensor:
#      x y z
#    x 4.061920 0.000000 0.000000 
#    y 0.000000 3.253870 0.000000 
#    z 0.000000 0.000000 -1.227350 
# 
# 
# High freq. dielectric constant tensor:
#      x y z
#    x 1.728010 0.000000 0.000000 
#    y 0.000000 1.727910 0.000000 
#    z 0.000000 0.000000 1.727430 
# 
# From -- ./inp_files/10860.got.cif
#   From: 2010.03.12/outbox.cif.g09.slc.cpg/sg63_6_cif.got.tgz:10860.got - 2010.04.10 19:34:48.
