data_PCOD8256020
_publ_section_title
;
Structure prediction by ZEFSAII (Michael W. Deem and Ramdas Pophale) SiO2 
 PCOD8256020
Probable space group: C M C M
;
_chemical_formula_sum "Si O2"
_cell_formula_units_Z 80
_cell_length_a 8.939042
_cell_length_b 20.615797
_cell_length_c 24.631417
_cell_angle_alpha 90.000000
_cell_angle_beta 90.000000
_cell_angle_gamma 90.000000
_cell_volume 4539.212388
_symmetry_space_group_name_H-M "C M C M"
_symmetry_group_IT_number 63
_symmetry_cell_setting 'orthorhombic'
loop_
_space_group_symop_operation_xyz
x,y,z
-x,-y,1/2+z
x,-y,-z
-x,y,1/2-z
-x,-y,-z
x,y,1/2-z
-x,y,z
x,-y,1/2+z
1/2+x,1/2+y,z
1/2-x,1/2-y,1/2+z
1/2+x,1/2-y,-z
1/2-x,1/2+y,1/2-z
1/2-x,1/2-y,-z
1/2+x,1/2+y,1/2-z
1/2-x,1/2+y,z
1/2+x,1/2-y,1/2+z
loop_
_atom_site_type_symbol
_atom_site_label
_atom_site_fract_x
_atom_site_fract_y
_atom_site_fract_z
Si Si1 0.832523 0.391931 0.750000
Si Si2 0.325398 0.388450 0.641700
Si Si3 0.824366 0.737009 0.858958
Si Si4 0.669957 0.737675 0.750000
Si Si5 0.677798 0.306373 0.034827
Si Si6 0.322312 0.565334 0.473450
O O1 0.753382 0.417408 0.804739
O O2 0.826952 0.314850 0.750000
O O3 0.000000 0.419001 0.750000
O O4 0.500000 0.398857 0.650622
O O5 0.289275 0.312825 0.632507
O O6 0.265145 0.426504 0.588611
O O7 0.758176 0.711555 0.802239
O O8 0.739545 0.695924 0.904416
O O9 0.000000 0.722915 0.861286
O O10 0.500000 0.711569 0.750000
O O11 0.500000 0.298410 0.034011
O O12 0.750000 0.250000 0.000000
O O13 0.730492 0.374428 0.009690
O O14 0.254903 0.500000 0.500000
O O15 0.500000 0.562499 0.472294
#
# Coordination Sequence:
#
# PCOD8256020 Si02
#       6
#     8  16  16   8  16  16
#     4   9  17  27  43  70  99 128 159 201 251 294
#     4   9  16  29  48  71  97 128 164 203 247 296
#     4  10  18  30  48  74 103 134 168 208 256 306
#     4   9  17  29  45  72 103 134 165 207 259 302
#     4  11  20  32  51  76 102 133 169 211 255 301
#     4   9  18  33  52  74 101 133 172 213 252 297
#
# _framework density 17.624203000000001
#
# number of rings (size 3 to 8) (size 9 to 14) (size 15 to 20)
#    0.000    2.400    2.000    1.800    0.000    3.200 
#    0.000    0.000    0.000    6.600    0.000    4.200 
#    0.000    0.000    0.000    0.000    0.000    0.000 
#
# Total GULP energy -495965.912413 kJ/mol
# GULP energy per Si atom -12399.147810 kJ/mol
# Density = 1.758409 g / cm^3
# Si number density = 17.624203 Si / 1000 Ang^3
#
#
#
# Elastic Constant Matrix: (Units=GPa)
#
#
# Indices 1 2 3 4 5 6 
#
# 1 74.9815 34.6976 58.8499 0.0000 0.0000 0.0000
# 2 34.6976 83.3415 66.0517 0.0000 0.0000 0.0000
# 3 58.8499 66.0517 196.9279 0.0000 0.0000 0.0000
# 4 0.0000 0.0000 0.0000 20.7466 0.0000 0.0000
# 5 0.0000 0.0000 0.0000 0.0000 35.1533 0.0000
# 6 0.0000 0.0000 0.0000 0.0000 0.0000 13.0724
#
#
#
# Elastic Compliance Matrix: (Units=1/GPa)
#
#
# Indices 1 2 3 4 5 6 
#
# 1 0.018609 -0.004549 -0.004035 0.000000 0.000000 0.000000
# 2 -0.004549 0.017456 -0.004495 0.000000 0.000000 0.000000
# 3 -0.004035 -0.004495 0.007792 0.000000 0.000000 0.000000
# 4 0.000000 0.000000 0.000000 0.048201 0.000000 0.000000
# 5 0.000000 0.000000 0.000000 0.000000 0.028447 0.000000
# 6 0.000000 0.000000 0.000000 0.000000 0.000000 0.076497
#
#
# Mechanical properties :
#
#
# Convention : Reuss Voigt Hill
#
# Bulk Modulus (GPa) = 56.50853 74.93881 65.72367
# Shear Modulus (GPa) = 21.82843 26.83790 24.33317
#
# Velocity S-wave (km/s) = 3.52312 3.90652 3.71976
# Velocity P-wave (km/s) = 6.97728 7.93477 7.47138
#
# Compressibility (1/GPa) = 0.01769644
#
# Stress axis : x y z
#
# Youngs Moduli (GPa) = 53.73782 57.28833 128.34312
#
# Poissons Ratio (x) = 0.26063 0.51788
# Poissons Ratio (y) = 0.24448 0.57693
# Poissons Ratio (z) = 0.21684 0.25752
#
# Static dielectric constant tensor:
#      x y z
#    x 3.207580 0.000000 0.000000 
#    y 0.000000 3.032020 0.000000 
#    z 0.000000 0.000000 3.663240 
# 
# 
# High freq. dielectric constant tensor:
#      x y z
#    x 1.672870 0.000000 0.000000 
#    y 0.000000 1.629170 0.000000 
#    z 0.000000 0.000000 1.704500 
# 
# From -- ./inp_files/59500.got.cif
#   From: 2010.03.12/outbox.cif.g09.slc.cpg/sg63_30_cif.got.tgz:59500.got - 2010.04.10 19:34:48.
