data_PCOD8256692
_publ_section_title
;
Structure prediction by ZEFSAII (Michael W. Deem and Ramdas Pophale) SiO2 
 PCOD8256692
Probable space group: C M C M
;
_chemical_formula_sum "Si O2"
_cell_formula_units_Z 112
_cell_length_a 15.545505
_cell_length_b 24.047903
_cell_length_c 13.947834
_cell_angle_alpha 90.000000
_cell_angle_beta 90.000000
_cell_angle_gamma 90.000000
_cell_volume 5214.213578
_symmetry_space_group_name_H-M "C M C M"
_symmetry_group_IT_number 63
_symmetry_cell_setting 'orthorhombic'
loop_
_space_group_symop_operation_xyz
x,y,z
-x,-y,1/2+z
x,-y,-z
-x,y,1/2-z
-x,-y,-z
x,y,1/2-z
-x,y,z
x,-y,1/2+z
1/2+x,1/2+y,z
1/2-x,1/2-y,1/2+z
1/2+x,1/2-y,-z
1/2-x,1/2+y,1/2-z
1/2-x,1/2-y,-z
1/2+x,1/2+y,1/2-z
1/2-x,1/2+y,z
1/2+x,1/2-y,1/2+z
loop_
_atom_site_type_symbol
_atom_site_label
_atom_site_fract_x
_atom_site_fract_y
_atom_site_fract_z
Si Si1 0.403666 0.820424 0.498672
Si Si2 0.596878 0.302072 0.544993
Si Si3 0.260973 0.144065 0.364239
Si Si4 0.270218 0.021762 0.353484
Si Si5 0.139502 0.860617 0.358228
Si Si6 0.327825 0.904812 0.361617
Si Si7 0.593463 0.482669 0.107140
O O1 0.500000 0.821971 0.542269
O O2 0.389031 0.763666 0.439139
O O3 0.335225 0.820297 0.585442
O O4 0.396929 0.872414 0.425517
O O5 0.500000 0.319200 0.577056
O O6 0.665596 0.335867 0.607876
O O7 0.608771 0.313536 0.431654
O O8 0.270099 0.147473 0.250000
O O9 0.275750 0.081217 0.406561
O O10 0.314576 0.029349 0.250000
O O11 0.315123 0.968205 0.403816
O O12 0.170091 0.007780 0.330543
O O13 0.119226 0.840681 0.250000
O O14 0.240525 0.870278 0.372448
O O15 0.088104 0.916564 0.381626
O O16 0.356181 0.907394 0.250000
O O17 0.500000 0.506761 0.138237
O O18 0.616023 0.500000 0.000000
#
# Coordination Sequence:
#
# PCOD8256692 Si02
#       7
#    16  16  16  16  16  16  16
#     4  11  25  44  66  92 123 165 218 272 325 377
#     4  11  24  42  63  94 132 167 213 262 312 381
#     4  11  24  43  65  90 129 171 210 259 320 384
#     4   9  20  36  56  85 118 160 206 254 311 379
#     4  10  20  35  59  89 124 166 210 255 312 380
#     4   9  19  38  64  92 123 159 206 264 322 376
#     4  10  19  29  47  80 120 161 203 248 301 370
#
# _framework density 21.479749000000002
#
# number of rings (size 3 to 8) (size 9 to 14) (size 15 to 20)
#    0.000    1.857    1.429    3.000    2.000    5.714 
#    0.000    5.714    0.000    2.571    0.000    0.000 
#    0.000    0.000    0.000    0.000    0.000    0.000 
#
# Total GULP energy -694024.576598 kJ/mol
# GULP energy per Si atom -12393.296011 kJ/mol
# Density = 2.143086 g / cm^3
# Si number density = 21.479749 Si / 1000 Ang^3
#
#
#
# Elastic Constant Matrix: (Units=GPa)
#
#
# Indices 1 2 3 4 5 6 
#
# 1 91.2331 34.6188 30.0967 0.0000 0.0000 0.0000
# 2 34.6188 106.8126 25.2330 0.0000 0.0000 0.0000
# 3 30.0967 25.2330 76.3314 0.0000 0.0000 0.0000
# 4 0.0000 0.0000 0.0000 13.6493 0.0000 0.0000
# 5 0.0000 0.0000 0.0000 0.0000 7.3057 0.0000
# 6 0.0000 0.0000 0.0000 0.0000 0.0000 28.6028
#
#
#
# Elastic Compliance Matrix: (Units=1/GPa)
#
#
# Indices 1 2 3 4 5 6 
#
# 1 0.013664 -0.003423 -0.004256 0.000000 0.000000 0.000000
# 2 -0.003423 0.011013 -0.002291 0.000000 0.000000 0.000000
# 3 -0.004256 -0.002291 0.015536 0.000000 0.000000 0.000000
# 4 0.000000 0.000000 0.000000 0.073264 0.000000 0.000000
# 5 0.000000 0.000000 0.000000 0.000000 0.136879 0.000000
# 6 0.000000 0.000000 0.000000 0.000000 0.000000 0.034962
#
#
# Mechanical properties :
#
#
# Convention : Reuss Voigt Hill
#
# Bulk Modulus (GPa) = 49.32667 50.47491 49.90079
# Shear Modulus (GPa) = 16.02491 22.20681 19.11586
#
# Velocity S-wave (km/s) = 2.73435 3.21884 2.98644
# Velocity P-wave (km/s) = 5.74308 6.11264 5.93074
#
# Compressibility (1/GPa) = 0.02027301
#
# Stress axis : x y z
#
# Youngs Moduli (GPa) = 73.18584 90.80318 64.36613
#
# Poissons Ratio (x) = 0.31083 0.27394
# Poissons Ratio (y) = 0.25053 0.14745
# Poissons Ratio (z) = 0.31147 0.20801
#
# Static dielectric constant tensor:
#      x y z
#    x 3.708410 0.000000 0.000000 
#    y 0.000000 3.935270 0.000000 
#    z 0.000000 0.000000 3.679050 
# 
# 
# High freq. dielectric constant tensor:
#      x y z
#    x 1.826010 0.000000 0.000000 
#    y 0.000000 1.841670 0.000000 
#    z 0.000000 0.000000 1.837290 
# 
# From -- ./inp_files/32282.got.cif
#   From: 2010.03.12/outbox.cif.g09.slc.cpg/sg63_17_cif.got.tgz:32282.got - 2010.04.10 19:34:48.
