data_PCOD8256523
_publ_section_title
;
Structure prediction by ZEFSAII (Michael W. Deem and Ramdas Pophale) SiO2 
 PCOD8256523
Probable space group: C M C M
;
_chemical_formula_sum "Si O2"
_cell_formula_units_Z 104
_cell_length_a 20.744971
_cell_length_b 30.045442
_cell_length_c 8.676891
_cell_angle_alpha 90.000000
_cell_angle_beta 90.000000
_cell_angle_gamma 90.000000
_cell_volume 5408.235209
_symmetry_space_group_name_H-M "C M C M"
_symmetry_group_IT_number 63
_symmetry_cell_setting 'orthorhombic'
loop_
_space_group_symop_operation_xyz
x,y,z
-x,-y,1/2+z
x,-y,-z
-x,y,1/2-z
-x,-y,-z
x,y,1/2-z
-x,y,z
x,-y,1/2+z
1/2+x,1/2+y,z
1/2-x,1/2-y,1/2+z
1/2+x,1/2-y,-z
1/2-x,1/2+y,1/2-z
1/2-x,1/2-y,-z
1/2+x,1/2+y,1/2-z
1/2-x,1/2+y,z
1/2+x,1/2-y,1/2+z
loop_
_atom_site_type_symbol
_atom_site_label
_atom_site_fract_x
_atom_site_fract_y
_atom_site_fract_z
Si Si1 0.286116 0.873482 0.570218
Si Si2 0.500000 0.049109 0.433660
Si Si3 0.311866 0.224971 0.432153
Si Si4 0.632077 0.950697 0.067580
Si Si5 0.072392 0.044386 0.068542
Si Si6 0.362290 0.367096 0.930170
Si Si7 0.071768 0.783489 0.068035
O O1 0.295610 0.884592 0.750000
O O2 0.319241 0.826930 0.521663
O O3 0.312212 0.915527 0.474303
O O4 0.212249 0.864475 0.528360
O O5 0.500000 0.050526 0.250000
O O6 0.434066 0.070736 0.498000
O O7 0.500000 0.000000 0.500000
O O8 0.304825 0.229509 0.250000
O O9 0.250000 0.250000 0.500000
O O10 0.377288 0.247431 0.496505
O O11 0.625912 0.955611 0.250000
O O12 0.647008 0.000000 0.000000
O O13 0.072813 0.040901 0.250000
O O14 0.114643 0.085172 0.010757
O O15 0.000000 0.050198 0.004362
O O16 0.104440 0.000000 0.000000
O O17 0.375266 0.359582 0.750000
O O18 0.403965 0.331907 0.022713
O O19 0.068755 0.780179 0.250000
O O20 0.000000 0.774730 0.999330
#
# Coordination Sequence:
#
# PCOD8256523 Si02
#       7
#    16   8  16  16  16  16  16
#     4  10  21  37  56  83 114 148 190 236 288 345
#     4  10  18  34  60  86 114 150 190 234 286 342
#     4  10  20  37  60  83 113 150 191 236 288 348
#     4  11  22  38  60  86 118 153 193 239 286 344
#     4   9  18  32  49  71 101 137 176 222 274 327
#     4  10  20  35  56  80 108 143 188 235 281 338
#     4  10  21  36  56  84 115 146 187 235 283 343
#
# _framework density 19.229932999999999
#
# number of rings (size 3 to 8) (size 9 to 14) (size 15 to 20)
#    0.000    2.000    1.538    3.462    0.000    3.385 
#    1.385    3.077    0.000    0.000    0.000    0.000 
#    0.000    0.000    0.000    0.000    0.000    0.000 
#
# Total GULP energy -644653.778859 kJ/mol
# GULP energy per Si atom -12397.188055 kJ/mol
# Density = 1.918616 g / cm^3
# Si number density = 19.229933 Si / 1000 Ang^3
#
#
#
# Elastic Constant Matrix: (Units=GPa)
#
#
# Indices 1 2 3 4 5 6 
#
# 1 124.0765 65.3811 30.6107 0.0000 0.0000 0.0000
# 2 65.3811 133.4844 28.9293 0.0000 0.0000 0.0000
# 3 30.6107 28.9293 63.1790 0.0000 0.0000 0.0000
# 4 0.0000 0.0000 0.0000 26.2984 0.0000 0.0000
# 5 0.0000 0.0000 0.0000 0.0000 27.5481 0.0000
# 6 0.0000 0.0000 0.0000 0.0000 0.0000 33.2649
#
#
#
# Elastic Compliance Matrix: (Units=1/GPa)
#
#
# Indices 1 2 3 4 5 6 
#
# 1 0.011454 -0.004893 -0.003309 0.000000 0.000000 0.000000
# 2 -0.004893 0.010407 -0.002395 0.000000 0.000000 0.000000
# 3 -0.003309 -0.002395 0.018528 0.000000 0.000000 0.000000
# 4 0.000000 0.000000 0.000000 0.038025 0.000000 0.000000
# 5 0.000000 0.000000 0.000000 0.000000 0.036300 0.000000
# 6 0.000000 0.000000 0.000000 0.000000 0.000000 0.030062
#
#
# Mechanical properties :
#
#
# Convention : Reuss Voigt Hill
#
# Bulk Modulus (GPa) = 52.09567 63.39804 57.74686
# Shear Modulus (GPa) = 29.00758 30.47688 29.74223
#
# Velocity S-wave (km/s) = 3.88810 3.98536 3.93703
# Velocity P-wave (km/s) = 6.87795 7.36325 7.12473
#
# Compressibility (1/GPa) = 0.01919545
#
# Stress axis : x y z
#
# Youngs Moduli (GPa) = 87.30283 96.08737 53.97288
#
# Poissons Ratio (x) = 0.47018 0.17860
# Poissons Ratio (y) = 0.42719 0.12924
# Poissons Ratio (z) = 0.28890 0.23009
#
# Static dielectric constant tensor:
#      x y z
#    x 3.980010 0.000000 0.000000 
#    y 0.000000 3.604040 0.000000 
#    z 0.000000 0.000000 3.403450 
# 
# 
# High freq. dielectric constant tensor:
#      x y z
#    x 1.754140 0.000000 0.000000 
#    y 0.000000 1.748750 0.000000 
#    z 0.000000 0.000000 1.736780 
# 
# From -- ./inp_files/9083.got.cif
#   From: 2010.03.12/outbox.cif.g09.slc.cpg/sg63_5_cif.got.tgz:9083.got - 2010.04.10 19:34:48.
