data_PCOD8256746
_publ_section_title
;
Structure prediction by ZEFSAII (Michael W. Deem and Ramdas Pophale) SiO2 
 PCOD8256746
Probable space group: C M C M
;
_chemical_formula_sum "Si O2"
_cell_formula_units_Z 112
_cell_length_a 13.772876
_cell_length_b 28.876583
_cell_length_c 14.286251
_cell_angle_alpha 90.000000
_cell_angle_beta 90.000000
_cell_angle_gamma 90.000000
_cell_volume 5681.836272
_symmetry_space_group_name_H-M "C M C M"
_symmetry_group_IT_number 63
_symmetry_cell_setting 'orthorhombic'
loop_
_space_group_symop_operation_xyz
x,y,z
-x,-y,1/2+z
x,-y,-z
-x,y,1/2-z
-x,-y,-z
x,y,1/2-z
-x,y,z
x,-y,1/2+z
1/2+x,1/2+y,z
1/2-x,1/2-y,1/2+z
1/2+x,1/2-y,-z
1/2-x,1/2+y,1/2-z
1/2-x,1/2-y,-z
1/2+x,1/2+y,1/2-z
1/2-x,1/2+y,z
1/2+x,1/2-y,1/2+z
loop_
_atom_site_type_symbol
_atom_site_label
_atom_site_fract_x
_atom_site_fract_y
_atom_site_fract_z
Si Si1 0.785031 0.410649 0.145450
Si Si2 0.889237 0.757720 0.643456
Si Si3 0.390959 0.529209 0.862190
Si Si4 0.745982 0.159685 0.360122
Si Si5 0.613674 0.167477 0.525887
Si Si6 0.711873 0.559642 0.145740
Si Si7 0.608419 0.998087 0.610362
O O1 0.771891 0.389938 0.250000
O O2 0.682142 0.430138 0.104510
O O3 0.824957 0.371819 0.077310
O O4 0.860201 0.452850 0.152526
O O5 0.870217 0.741644 0.750000
O O6 0.824513 0.801440 0.616501
O O7 0.862639 0.715672 0.575885
O O8 0.000000 0.773257 0.629455
O O9 0.383785 0.526361 0.750000
O O10 0.500000 0.540008 0.896470
O O11 0.355686 0.479278 0.905263
O O12 0.719133 0.157623 0.250000
O O13 0.648219 0.170776 0.418274
O O14 0.791004 0.111028 0.398054
O O15 0.500000 0.155213 0.529860
O O16 0.671385 0.564841 0.250000
O O17 0.823355 0.542739 0.147682
O O18 0.500000 0.986780 0.644595
O O19 0.615643 0.000000 0.500000
#
# Coordination Sequence:
#
# PCOD8256746 Si02
#       7
#    16  16  16  16  16  16  16
#     4  10  20  33  52  79 109 143 183 224 268 319
#     4   9  19  37  61  86 108 133 170 218 273 328
#     4   8  15  30  51  74 103 140 180 222 268 316
#     4  10  21  37  56  79 109 143 179 220 267 321
#     4  11  22  36  56  81 110 143 179 222 268 317
#     4   9  18  30  46  70  97 130 172 213 255 306
#     4  10  19  30  45  67  99 138 176 216 260 304
#
# _framework density 19.711936000000001
#
# number of rings (size 3 to 8) (size 9 to 14) (size 15 to 20)
#    0.000    2.429    0.000    3.429    0.000    5.143 
#    0.000    5.000    0.000   15.429    0.000    2.000 
#    0.000    0.000    0.000    0.000    0.000    0.000 
#
# Total GULP energy -694191.507803 kJ/mol
# GULP energy per Si atom -12396.276925 kJ/mol
# Density = 1.966707 g / cm^3
# Si number density = 19.711936 Si / 1000 Ang^3
#
#
#
# Elastic Constant Matrix: (Units=GPa)
#
#
# Indices 1 2 3 4 5 6 
#
# 1 137.0020 74.2866 35.0352 0.0000 0.0000 0.0000
# 2 74.2866 139.2986 41.7946 0.0000 0.0000 0.0000
# 3 35.0352 41.7946 69.0352 0.0000 0.0000 0.0000
# 4 0.0000 0.0000 0.0000 28.0307 0.0000 0.0000
# 5 0.0000 0.0000 0.0000 0.0000 28.6130 0.0000
# 6 0.0000 0.0000 0.0000 0.0000 0.0000 7.4029
#
#
#
# Elastic Compliance Matrix: (Units=1/GPa)
#
#
# Indices 1 2 3 4 5 6 
#
# 1 0.010581 -0.004926 -0.002387 0.000000 0.000000 0.000000
# 2 -0.004926 0.011066 -0.004199 0.000000 0.000000 0.000000
# 3 -0.002387 -0.004199 0.018239 0.000000 0.000000 0.000000
# 4 0.000000 0.000000 0.000000 0.035675 0.000000 0.000000
# 5 0.000000 0.000000 0.000000 0.000000 0.034949 0.000000
# 6 0.000000 0.000000 0.000000 0.000000 0.000000 0.135082
#
#
# Mechanical properties :
#
#
# Convention : Reuss Voigt Hill
#
# Bulk Modulus (GPa) = 59.31174 71.95205 65.63189
# Shear Modulus (GPa) = 18.23233 25.75730 21.99481
#
# Velocity S-wave (km/s) = 3.04458 3.61873 3.34400
# Velocity P-wave (km/s) = 6.52026 7.35128 6.94821
#
# Compressibility (1/GPa) = 0.01686007
#
# Stress axis : x y z
#
# Youngs Moduli (GPa) = 94.50983 90.36704 54.82701
#
# Poissons Ratio (x) = 0.44519 0.13089
# Poissons Ratio (y) = 0.46560 0.23024
# Poissons Ratio (z) = 0.22562 0.37948
#
# Static dielectric constant tensor:
#      x y z
#    x 3.646630 0.000000 0.000000 
#    y 0.000000 3.623450 0.000000 
#    z 0.000000 0.000000 3.566120 
# 
# 
# High freq. dielectric constant tensor:
#      x y z
#    x 1.759760 0.000000 0.000000 
#    y 0.000000 1.759670 0.000000 
#    z 0.000000 0.000000 1.770060 
# 
# From -- ./inp_files/32346.got.cif
#   From: 2010.03.12/outbox.cif.g09.slc.cpg/sg63_17_cif.got.tgz:32346.got - 2010.04.10 19:34:48.
