data_PCOD8256025
_publ_section_title
;
Structure prediction by ZEFSAII (Michael W. Deem and Ramdas Pophale) SiO2 
 PCOD8256025
Probable space group: C M C M
;
_chemical_formula_sum "Si O2"
_cell_formula_units_Z 80
_cell_length_a 18.694322
_cell_length_b 13.759496
_cell_length_c 16.885445
_cell_angle_alpha 90.000000
_cell_angle_beta 90.000000
_cell_angle_gamma 90.000000
_cell_volume 4343.349283
_symmetry_space_group_name_H-M "C M C M"
_symmetry_group_IT_number 63
_symmetry_cell_setting 'orthorhombic'
loop_
_space_group_symop_operation_xyz
x,y,z
-x,-y,1/2+z
x,-y,-z
-x,y,1/2-z
-x,-y,-z
x,y,1/2-z
-x,y,z
x,-y,1/2+z
1/2+x,1/2+y,z
1/2-x,1/2-y,1/2+z
1/2+x,1/2-y,-z
1/2-x,1/2+y,1/2-z
1/2-x,1/2-y,-z
1/2+x,1/2+y,1/2-z
1/2-x,1/2+y,z
1/2+x,1/2-y,1/2+z
loop_
_atom_site_type_symbol
_atom_site_label
_atom_site_fract_x
_atom_site_fract_y
_atom_site_fract_z
Si Si1 0.500000 0.974163 0.090950
Si Si2 0.362085 0.124337 0.656637
Si Si3 0.143371 0.220127 0.844535
Si Si4 0.286928 0.316027 0.843986
Si Si5 0.214238 0.970631 0.343913
Si Si6 0.500000 0.814065 0.842934
O O1 0.500000 0.071507 0.142507
O O2 0.569208 0.910179 0.109272
O O3 0.500000 0.000000 0.000000
O O4 0.376821 0.115133 0.750000
O O5 0.346448 0.236531 0.631885
O O6 0.294472 0.058910 0.630734
O O7 0.141449 0.223809 0.750000
O O8 0.208917 0.285387 0.876510
O O9 0.069972 0.262631 0.880701
O O10 0.156602 0.109090 0.874094
O O11 0.282317 0.320049 0.750000
O O12 0.305614 0.422927 0.878820
O O13 0.211591 0.972689 0.250000
O O14 0.500000 0.796324 0.750000
#
# Coordination Sequence:
#
# PCOD8256025 Si02
#       6
#     8  16  16  16  16   8
#     4  12  24  34  45  64  92 120 149 192 239 274
#     4   9  17  30  49  70  91 119 155 186 220 273
#     4   8  14  23  40  70  98 119 148 183 219 261
#     4   8  13  23  42  68  95 119 144 182 225 260
#     4   8  13  24  45  73 100 120 146 188 227 259
#     4  10  18  30  49  68  89 118 151 186 225 270
#
# _framework density 18.418966000000001
#
# number of rings (size 3 to 8) (size 9 to 14) (size 15 to 20)
#    0.000    3.200    0.000    4.500    0.000    3.200 
#    0.000    1.000    0.000   15.600    0.000    1.400 
#    0.000    0.000    0.000    0.000    0.000    0.000 
#
# Total GULP energy -495668.165973 kJ/mol
# GULP energy per Si atom -12391.704149 kJ/mol
# Density = 1.837704 g / cm^3
# Si number density = 18.418966 Si / 1000 Ang^3
#
#
#
# Elastic Constant Matrix: (Units=GPa)
#
#
# Indices 1 2 3 4 5 6 
#
# 1 115.8677 64.7948 2.6122 0.0000 0.0000 0.0000
# 2 64.7948 172.9423 -3.4664 0.0000 0.0000 0.0000
# 3 2.6122 -3.4664 6.3824 0.0000 0.0000 0.0000
# 4 0.0000 0.0000 0.0000 2.6797 0.0000 0.0000
# 5 0.0000 0.0000 0.0000 0.0000 2.1445 0.0000
# 6 0.0000 0.0000 0.0000 0.0000 0.0000 26.3546
#
#
#
# Elastic Compliance Matrix: (Units=1/GPa)
#
#
# Indices 1 2 3 4 5 6 
#
# 1 0.011215 -0.004341 -0.006948 0.000000 0.000000 0.000000
# 2 -0.004341 0.007526 0.005864 0.000000 0.000000 0.000000
# 3 -0.006948 0.005864 0.162709 0.000000 0.000000 0.000000
# 4 0.000000 0.000000 0.000000 0.373175 0.000000 0.000000
# 5 0.000000 0.000000 0.000000 0.000000 0.466319 0.000000
# 6 0.000000 0.000000 0.000000 0.000000 0.000000 0.037944
#
#
# Mechanical properties :
#
#
# Convention : Reuss Voigt Hill
#
# Bulk Modulus (GPa) = 5.86162 47.00819 26.43490
# Shear Modulus (GPa) = 4.43812 21.65253 13.04533
#
# Velocity S-wave (km/s) = 1.55395 3.43236 2.66419
# Velocity P-wave (km/s) = 2.53160 6.42535 4.88335
#
# Compressibility (1/GPa) = 0.17060137
#
# Stress axis : x y z
#
# Youngs Moduli (GPa) = 89.16873 132.86902 6.14594
#
# Poissons Ratio (x) = 0.57678 0.04270
# Poissons Ratio (y) = 0.38708 -0.03604
# Poissons Ratio (z) = 0.61951 -0.77918
#
# Static dielectric constant tensor:
#      x y z
#    x 3.499070 0.000000 0.000000 
#    y 0.000000 4.096910 0.000000 
#    z 0.000000 0.000000 2.694170 
# 
# 
# High freq. dielectric constant tensor:
#      x y z
#    x 1.703960 0.000000 0.000000 
#    y 0.000000 1.731260 0.000000 
#    z 0.000000 0.000000 1.645580 
# 
# From -- ./inp_files/45472.got.cif
#   From: 2010.03.12/outbox.cif.g09.slc.cpg/sg63_23_cif.got.tgz:45472.got - 2010.04.10 19:34:48.
