data_PCOD8256016
_publ_section_title
;
Structure prediction by ZEFSAII (Michael W. Deem and Ramdas Pophale) SiO2 
 PCOD8256016
Probable space group: C M C M
;
_chemical_formula_sum "Si O2"
_cell_formula_units_Z 80
_cell_length_a 19.438033
_cell_length_b 17.297184
_cell_length_c 14.236736
_cell_angle_alpha 90.000000
_cell_angle_beta 90.000000
_cell_angle_gamma 90.000000
_cell_volume 4786.721411
_symmetry_space_group_name_H-M "C M C M"
_symmetry_group_IT_number 63
_symmetry_cell_setting 'orthorhombic'
loop_
_space_group_symop_operation_xyz
x,y,z
-x,-y,1/2+z
x,-y,-z
-x,y,1/2-z
-x,-y,-z
x,y,1/2-z
-x,y,z
x,-y,1/2+z
1/2+x,1/2+y,z
1/2-x,1/2-y,1/2+z
1/2+x,1/2-y,-z
1/2-x,1/2+y,1/2-z
1/2-x,1/2-y,-z
1/2+x,1/2+y,1/2-z
1/2-x,1/2+y,z
1/2+x,1/2-y,1/2+z
loop_
_atom_site_type_symbol
_atom_site_label
_atom_site_fract_x
_atom_site_fract_y
_atom_site_fract_z
Si Si1 0.830904 0.954207 0.144407
Si Si2 0.668568 0.242740 0.513721
Si Si3 0.421645 0.686289 0.858011
Si Si4 0.793158 0.416276 0.492511
Si Si5 0.690362 0.624240 0.141739
O O1 0.801724 0.944662 0.250000
O O2 0.898675 0.902807 0.129127
O O3 0.772564 0.923932 0.074818
O O4 0.851599 0.043840 0.127025
O O5 0.750000 0.250000 0.500000
O O6 0.626103 0.257834 0.419340
O O7 0.655758 0.152241 0.543418
O O8 0.647868 0.304893 0.594014
O O9 0.413738 0.712396 0.750000
O O10 0.500000 0.693332 0.892185
O O11 0.831173 0.500000 0.500000
O O12 0.765312 0.389464 0.594869
O O13 0.701522 0.645301 0.250000
#
# Coordination Sequence:
#
# PCOD8256016 Si02
#       5
#    16  16  16  16  16
#     4   9  16  29  46  66  96 127 160 201 243 291
#     4  10  18  30  48  72  95 127 165 209 250 292
#     4  10  20  33  50  73 101 131 164 203 248 298
#     4   9  17  30  47  69  97 124 165 209 250 292
#     4   9  17  27  43  67  97 128 159 199 243 290
#
# _framework density 16.712902
#
# number of rings (size 3 to 8) (size 9 to 14) (size 15 to 20)
#    0.000    2.600    4.000    0.000    0.000    4.000 
#    0.000    2.000    0.000    2.400    0.000    0.000 
#    0.000    0.000    0.000    0.000    0.000    0.000 
#
# Total GULP energy -495540.868295 kJ/mol
# GULP energy per Si atom -12388.521707 kJ/mol
# Density = 1.667486 g / cm^3
# Si number density = 16.712902 Si / 1000 Ang^3
#
#
#
# Elastic Constant Matrix: (Units=GPa)
#
#
# Indices 1 2 3 4 5 6 
#
# 1 60.5978 38.2336 33.3934 0.0000 0.0000 0.0000
# 2 38.2336 165.2587 53.2823 0.0000 0.0000 0.0000
# 3 33.3934 53.2823 95.5863 0.0000 0.0000 0.0000
# 4 0.0000 0.0000 0.0000 21.3103 0.0000 0.0000
# 5 0.0000 0.0000 0.0000 0.0000 18.0561 0.0000
# 6 0.0000 0.0000 0.0000 0.0000 0.0000 13.2947
#
#
#
# Elastic Compliance Matrix: (Units=1/GPa)
#
#
# Indices 1 2 3 4 5 6 
#
# 1 0.021696 -0.003140 -0.005829 0.000000 0.000000 0.000000
# 2 -0.003140 0.007831 -0.003268 0.000000 0.000000 0.000000
# 3 -0.005829 -0.003268 0.014320 0.000000 0.000000 0.000000
# 4 0.000000 0.000000 0.000000 0.046926 0.000000 0.000000
# 5 0.000000 0.000000 0.000000 0.000000 0.055383 0.000000
# 6 0.000000 0.000000 0.000000 0.000000 0.000000 0.075218
#
#
# Mechanical properties :
#
#
# Convention : Reuss Voigt Hill
#
# Bulk Modulus (GPa) = 51.62098 63.47348 57.54723
# Shear Modulus (GPa) = 19.81718 23.63444 21.72581
#
# Velocity S-wave (km/s) = 3.44720 3.76459 3.60938
# Velocity P-wave (km/s) = 6.84092 7.54701 7.20262
#
# Compressibility (1/GPa) = 0.01937197
#
# Stress axis : x y z
#
# Youngs Moduli (GPa) = 46.09221 127.69141 69.83202
#
# Poissons Ratio (x) = 0.40095 0.40706
# Poissons Ratio (y) = 0.14473 0.22824
# Poissons Ratio (z) = 0.26868 0.41735
#
# Static dielectric constant tensor:
#      x y z
#    x 2.615420 0.000000 0.000000 
#    y 0.000000 3.992340 0.000000 
#    z 0.000000 0.000000 3.300410 
# 
# 
# High freq. dielectric constant tensor:
#      x y z
#    x 1.567290 0.000000 0.000000 
#    y 0.000000 1.664380 0.000000 
#    z 0.000000 0.000000 1.650440 
# 
# From -- ./inp_files/33875.got.cif
#   From: 2010.03.12/outbox.cif.g09.slc.cpg/sg63_17_cif.got.tgz:33875.got - 2010.04.10 19:34:48.
