data_PCOD8256851
_publ_section_title
;
Structure prediction by ZEFSAII (Michael W. Deem and Ramdas Pophale) SiO2 
 PCOD8256851
Probable space group: C M C M
;
_chemical_formula_sum "Si O2"
_cell_formula_units_Z 104
_cell_length_a 26.287295
_cell_length_b 22.198000
_cell_length_c 8.969121
_cell_angle_alpha 90.000000
_cell_angle_beta 90.000000
_cell_angle_gamma 90.000000
_cell_volume 5233.709690
_symmetry_space_group_name_H-M "C M C M"
_symmetry_group_IT_number 63
_symmetry_cell_setting 'orthorhombic'
loop_
_space_group_symop_operation_xyz
x,y,z
-x,-y,1/2+z
x,-y,-z
-x,y,1/2-z
-x,-y,-z
x,y,1/2-z
-x,y,z
x,-y,1/2+z
1/2+x,1/2+y,z
1/2-x,1/2-y,1/2+z
1/2+x,1/2-y,-z
1/2-x,1/2+y,1/2-z
1/2-x,1/2-y,-z
1/2+x,1/2+y,1/2-z
1/2-x,1/2+y,z
1/2+x,1/2-y,1/2+z
loop_
_atom_site_type_symbol
_atom_site_label
_atom_site_fract_x
_atom_site_fract_y
_atom_site_fract_z
Si Si1 0.000000 0.563950 0.576701
Si Si2 0.058297 0.220617 0.912751
Si Si3 0.151378 0.941093 0.074252
Si Si4 0.294595 0.330498 0.577366
Si Si5 0.306897 0.805641 0.419969
Si Si6 0.417950 0.839867 0.421134
Si Si7 0.559192 0.395561 0.577230
O O1 0.000000 0.500000 0.500000
O O2 0.948652 0.600239 0.530789
O O3 0.000000 0.550962 0.750000
O O4 0.085753 0.215213 0.750000
O O5 0.000000 0.205360 0.887745
O O6 0.062860 0.287097 0.974878
O O7 0.078568 0.171306 0.030101
O O8 0.155081 0.946575 0.250000
O O9 0.178385 0.880405 0.021486
O O10 0.092407 0.941397 0.020976
O O11 0.177649 0.000000 0.000000
O O12 0.299254 0.348195 0.750000
O O13 0.319541 0.264759 0.544966
O O14 0.235221 0.329554 0.533158
O O15 0.286774 0.810724 0.250000
O O16 0.357185 0.846584 0.442598
O O17 0.431048 0.823741 0.250000
O O18 0.572592 0.403683 0.750000
O O19 0.500000 0.407749 0.545220
#
# Coordination Sequence:
#
# PCOD8256851 Si02
#       7
#     8  16  16  16  16  16  16
#     4  10  22  38  56  78 110 154 199 242 295 354
#     4  10  19  30  49  81 116 148 184 231 284 335
#     4  12  25  41  61  83 113 153 197 240 285 341
#     4  10  20  37  60  88 120 151 189 236 292 351
#     4   9  19  35  59  88 117 148 186 237 294 350
#     4  10  19  34  56  81 110 149 195 239 288 351
#     4  10  21  37  57  82 115 153 193 236 281 332
#
# _framework density 19.871182000000001
#
# number of rings (size 3 to 8) (size 9 to 14) (size 15 to 20)
#    0.000    1.846    0.769    3.692    0.000    4.923 
#    0.000    0.769    0.000    1.846    0.000    0.000 
#    0.000    0.000    0.000    0.000    0.000    0.000 
#
# Total GULP energy -644701.800185 kJ/mol
# GULP energy per Si atom -12398.111542 kJ/mol
# Density = 1.982595 g / cm^3
# Si number density = 19.871182 Si / 1000 Ang^3
#
#
#
# Elastic Constant Matrix: (Units=GPa)
#
#
# Indices 1 2 3 4 5 6 
#
# 1 85.1092 46.9264 34.0051 0.0000 0.0000 0.0000
# 2 46.9264 97.9132 46.8851 0.0000 0.0000 0.0000
# 3 34.0051 46.8851 121.8031 0.0000 0.0000 0.0000
# 4 0.0000 0.0000 0.0000 34.4663 0.0000 0.0000
# 5 0.0000 0.0000 0.0000 0.0000 31.3528 0.0000
# 6 0.0000 0.0000 0.0000 0.0000 0.0000 20.5968
#
#
#
# Elastic Compliance Matrix: (Units=1/GPa)
#
#
# Indices 1 2 3 4 5 6 
#
# 1 0.016319 -0.006914 -0.001895 0.000000 0.000000 0.000000
# 2 -0.006914 0.015450 -0.004017 0.000000 0.000000 0.000000
# 3 -0.001895 -0.004017 0.010285 0.000000 0.000000 0.000000
# 4 0.000000 0.000000 0.000000 0.029014 0.000000 0.000000
# 5 0.000000 0.000000 0.000000 0.000000 0.031895 0.000000
# 6 0.000000 0.000000 0.000000 0.000000 0.000000 0.048551
#
#
# Mechanical properties :
#
#
# Convention : Reuss Voigt Hill
#
# Bulk Modulus (GPa) = 60.96324 62.27317 61.61821
# Shear Modulus (GPa) = 27.37742 29.08378 28.23060
#
# Velocity S-wave (km/s) = 3.71583 3.82987 3.77328
# Velocity P-wave (km/s) = 7.01111 7.13889 7.07529
#
# Compressibility (1/GPa) = 0.01640333
#
# Stress axis : x y z
#
# Youngs Moduli (GPa) = 61.27983 64.72439 97.22770
#
# Poissons Ratio (x) = 0.44749 0.18420
# Poissons Ratio (y) = 0.42367 0.39056
# Poissons Ratio (z) = 0.11610 0.26000
#
# Static dielectric constant tensor:
#      x y z
#    x 3.658970 0.000000 0.000000 
#    y 0.000000 3.494010 0.000000 
#    z 0.000000 0.000000 3.762430 
# 
# 
# High freq. dielectric constant tensor:
#      x y z
#    x 1.770180 0.000000 0.000000 
#    y 0.000000 1.757980 0.000000 
#    z 0.000000 0.000000 1.782570 
# 
# From -- ./inp_files/12533.got.cif
#   From: 2010.03.12/outbox.cif.g09.slc.cpg/sg63_7_cif.got.tgz:12533.got - 2010.04.10 19:34:48.
