data_PCOD8256181
_publ_section_title
;
Structure prediction by ZEFSAII (Michael W. Deem and Ramdas Pophale) SiO2 
 PCOD8256181
Probable space group: C M C M
;
_chemical_formula_sum "Si O2"
_cell_formula_units_Z 120
_cell_length_a 22.606011
_cell_length_b 25.597541
_cell_length_c 12.544979
_cell_angle_alpha 90.000000
_cell_angle_beta 90.000000
_cell_angle_gamma 90.000000
_cell_volume 7259.256139
_symmetry_space_group_name_H-M "C M C M"
_symmetry_group_IT_number 63
_symmetry_cell_setting 'orthorhombic'
loop_
_space_group_symop_operation_xyz
x,y,z
-x,-y,1/2+z
x,-y,-z
-x,y,1/2-z
-x,-y,-z
x,y,1/2-z
-x,y,z
x,-y,1/2+z
1/2+x,1/2+y,z
1/2-x,1/2-y,1/2+z
1/2+x,1/2-y,-z
1/2-x,1/2+y,1/2-z
1/2-x,1/2-y,-z
1/2+x,1/2+y,1/2-z
1/2-x,1/2+y,z
1/2+x,1/2-y,1/2+z
loop_
_atom_site_type_symbol
_atom_site_label
_atom_site_fract_x
_atom_site_fract_y
_atom_site_fract_z
Si Si1 0.321414 0.413208 0.875081
Si Si2 0.177817 0.750856 0.374433
Si Si3 0.932615 0.255105 0.500937
Si Si4 0.255653 0.500000 0.500000
Si Si5 0.933371 0.849756 0.625638
Si Si6 0.318271 0.083774 0.874252
Si Si7 0.933677 0.639491 0.626054
Si Si8 0.751444 0.832118 0.494592
O O1 0.314293 0.420322 0.750000
O O2 0.301153 0.467051 0.928568
O O3 0.388740 0.396781 0.906619
O O4 0.278684 0.367702 0.913807
O O5 0.192429 0.746273 0.250000
O O6 0.107606 0.745069 0.393264
O O7 0.198167 0.806018 0.422235
O O8 0.210793 0.707249 0.441642
O O9 0.916595 0.204405 0.430991
O O10 0.918650 0.306995 0.434175
O O11 0.000000 0.253674 0.539798
O O12 0.210490 0.465620 0.431558
O O13 0.927378 0.837661 0.750000
O O14 0.000000 0.867768 0.595742
O O15 0.309621 0.074339 0.750000
O O16 0.387822 0.092838 0.903793
O O17 0.286368 0.136446 0.909044
O O18 0.927816 0.653319 0.750000
O O19 0.000000 0.619886 0.597752
#
# Coordination Sequence:
#
# PCOD8256181 Si02
#       8
#    16  16  16   8  16  16  16  16
#     4  10  19  34  54  73  96 128 164 207 254 300
#     4  11  21  32  46  72 105 137 170 202 240 295
#     4  10  18  31  49  73 105 136 167 200 238 288
#     4  10  22  34  50  76 104 122 162 204 264 308
#     4   9  17  30  51  77 102 130 165 204 243 286
#     4  10  19  34  54  73  96 128 164 207 254 300
#     4   9  17  30  51  77 102 130 165 204 243 286
#     4  10  20  34  48  72 100 134 168 202 244 290
#
# _framework density 16.530618
#
# number of rings (size 3 to 8) (size 9 to 14) (size 15 to 20)
#    0.000    2.133    2.667    1.600    0.000    1.867 
#    0.000    0.667    0.000    0.000    0.000    0.000 
#    0.000    0.000    0.000    0.000    0.000    0.000 
#
# Total GULP energy -743726.838913 kJ/mol
# GULP energy per Si atom -12395.447315 kJ/mol
# Density = 1.649299 g / cm^3
# Si number density = 16.530618 Si / 1000 Ang^3
#
#
#
# Elastic Constant Matrix: (Units=GPa)
#
#
# Indices 1 2 3 4 5 6 
#
# 1 103.5883 39.9702 43.3922 0.0000 0.0000 0.0000
# 2 39.9702 77.3289 37.2263 0.0000 0.0000 0.0000
# 3 43.3922 37.2263 40.8576 0.0000 0.0000 0.0000
# 4 0.0000 0.0000 0.0000 7.2160 0.0000 0.0000
# 5 0.0000 0.0000 0.0000 0.0000 25.5352 0.0000
# 6 0.0000 0.0000 0.0000 0.0000 0.0000 26.4708
#
#
#
# Elastic Compliance Matrix: (Units=1/GPa)
#
#
# Indices 1 2 3 4 5 6 
#
# 1 0.017391 -0.000174 -0.018312 0.000000 0.000000 0.000000
# 2 -0.000174 0.023037 -0.020805 0.000000 0.000000 0.000000
# 3 -0.018312 -0.020805 0.062878 0.000000 0.000000 0.000000
# 4 0.000000 0.000000 0.000000 0.138582 0.000000 0.000000
# 5 0.000000 0.000000 0.000000 0.000000 0.039162 0.000000
# 6 0.000000 0.000000 0.000000 0.000000 0.000000 0.037778
#
#
# Mechanical properties :
#
#
# Convention : Reuss Voigt Hill
#
# Bulk Modulus (GPa) = 40.44317 51.43912 45.94115
# Shear Modulus (GPa) = 12.32588 18.59013 15.45801
#
# Velocity S-wave (km/s) = 2.73360 3.35713 3.06128
# Velocity P-wave (km/s) = 5.87215 6.79795 6.35194
#
# Compressibility (1/GPa) = 0.02472605
#
# Stress axis : x y z
#
# Youngs Moduli (GPa) = 57.49996 43.40795 15.90372
#
# Poissons Ratio (x) = 0.00756 0.29122
# Poissons Ratio (y) = 0.01001 0.33087
# Poissons Ratio (z) = 1.05291 0.90309
#
# Static dielectric constant tensor:
#      x y z
#    x 3.407030 0.000000 0.000000 
#    y 0.000000 3.056490 0.000000 
#    z 0.000000 0.000000 2.968520 
# 
# 
# High freq. dielectric constant tensor:
#      x y z
#    x 1.650510 0.000000 0.000000 
#    y 0.000000 1.623690 0.000000 
#    z 0.000000 0.000000 1.627930 
# 
# From -- ./inp_files/23046.got.cif
#   From: 2010.03.12/outbox.cif.g09.slc.cpg/sg63_12_cif.got.tgz:23046.got - 2010.04.10 19:34:48.
