data_PCOD8256319
_publ_section_title
;
Structure prediction by ZEFSAII (Michael W. Deem and Ramdas Pophale) SiO2 
 PCOD8256319
Probable space group: C M C M
;
_chemical_formula_sum "Si O2"
_cell_formula_units_Z 96
_cell_length_a 25.100804
_cell_length_b 25.271464
_cell_length_c 8.763735
_cell_angle_alpha 90.000000
_cell_angle_beta 90.000000
_cell_angle_gamma 90.000000
_cell_volume 5559.135644
_symmetry_space_group_name_H-M "C M C M"
_symmetry_group_IT_number 63
_symmetry_cell_setting 'orthorhombic'
loop_
_space_group_symop_operation_xyz
x,y,z
-x,-y,1/2+z
x,-y,-z
-x,y,1/2-z
-x,-y,-z
x,y,1/2-z
-x,y,z
x,-y,1/2+z
1/2+x,1/2+y,z
1/2-x,1/2-y,1/2+z
1/2+x,1/2-y,-z
1/2-x,1/2+y,1/2-z
1/2-x,1/2-y,-z
1/2+x,1/2+y,1/2-z
1/2-x,1/2+y,z
1/2+x,1/2-y,1/2+z
loop_
_atom_site_type_symbol
_atom_site_label
_atom_site_fract_x
_atom_site_fract_y
_atom_site_fract_z
Si Si1 0.114688 0.557089 0.928236
Si Si2 0.000000 0.941494 0.567639
Si Si3 0.309557 0.138367 0.423198
Si Si4 0.807181 0.755099 0.072727
Si Si5 0.892597 0.942032 0.068821
Si Si6 0.184234 0.140267 0.427618
Si Si7 0.500000 0.943235 0.071035
O O1 0.115885 0.547701 0.750000
O O2 0.056789 0.582564 0.979648
O O3 0.125805 0.500000 0.000000
O O4 0.160810 0.597726 0.968755
O O5 0.053956 0.914831 0.502596
O O6 0.000000 0.941027 0.750000
O O7 0.000000 0.000000 0.500000
O O8 0.318876 0.120365 0.250000
O O9 0.334246 0.197363 0.448611
O O10 0.246984 0.137028 0.461346
O O11 0.802029 0.769717 0.250000
O O12 0.750000 0.750000 0.000000
O O13 0.838069 0.802648 0.986363
O O14 0.898127 0.946340 0.250000
O O15 0.842835 0.906077 0.023707
O O16 0.882947 0.000000 0.000000
O O17 0.170632 0.133955 0.250000
O O18 0.500000 0.949266 0.250000
O O19 0.500000 0.000000 0.000000
#
# Coordination Sequence:
#
# PCOD8256319 Si02
#       7
#    16   8  16  16  16  16   8
#     4  10  19  31  49  70  96 126 159 197 240 287
#     4  10  18  32  52  73  98 129 166 204 242 288
#     4   9  19  33  49  71 100 128 159 197 241 291
#     4   9  17  31  50  71  95 126 163 203 241 287
#     4  11  21  34  52  75 102 132 166 204 245 292
#     4  10  20  34  51  73 100 130 163 202 245 293
#     4   8  16  30  46  67  90 119 158 198 234 276
#
# _framework density 17.268872000000002
#
# number of rings (size 3 to 8) (size 9 to 14) (size 15 to 20)
#    0.000    2.333    0.000    5.750    0.000    5.333 
#    0.000    0.000    0.000    1.000    0.000    2.333 
#    0.000    0.000    0.000    0.000    0.000    0.000 
#
# Total GULP energy -594722.578093 kJ/mol
# GULP energy per Si atom -12390.053710 kJ/mol
# Density = 1.722957 g / cm^3
# Si number density = 17.268872 Si / 1000 Ang^3
#
#
#
# Elastic Constant Matrix: (Units=GPa)
#
#
# Indices 1 2 3 4 5 6 
#
# 1 70.3506 45.1905 36.9281 0.0000 0.0000 0.0000
# 2 45.1905 94.4658 43.1671 0.0000 0.0000 0.0000
# 3 36.9281 43.1671 102.0403 0.0000 0.0000 0.0000
# 4 0.0000 0.0000 0.0000 32.0048 0.0000 0.0000
# 5 0.0000 0.0000 0.0000 0.0000 23.9394 0.0000
# 6 0.0000 0.0000 0.0000 0.0000 0.0000 1.2176
#
#
#
# Elastic Compliance Matrix: (Units=1/GPa)
#
#
# Indices 1 2 3 4 5 6 
#
# 1 0.021972 -0.008525 -0.004345 0.000000 0.000000 0.000000
# 2 -0.008525 0.016431 -0.003865 0.000000 0.000000 0.000000
# 3 -0.004345 -0.003865 0.013008 0.000000 0.000000 0.000000
# 4 0.000000 0.000000 0.000000 0.031245 0.000000 0.000000
# 5 0.000000 0.000000 0.000000 0.000000 0.041772 0.000000
# 6 0.000000 0.000000 0.000000 0.000000 0.000000 0.821319
#
#
# Mechanical properties :
#
#
# Convention : Reuss Voigt Hill
#
# Bulk Modulus (GPa) = 55.74626 57.49203 56.61914
# Shear Modulus (GPa) = 5.07513 20.87042 12.97277
#
# Velocity S-wave (km/s) = 1.71618 3.48020 2.74382
# Velocity P-wave (km/s) = 6.02316 7.03659 6.54951
#
# Compressibility (1/GPa) = 0.01793842
#
# Stress axis : x y z
#
# Youngs Moduli (GPa) = 45.51345 60.86231 76.87742
#
# Poissons Ratio (x) = 0.51887 0.33403
# Poissons Ratio (y) = 0.38801 0.29717
# Poissons Ratio (z) = 0.19775 0.23526
#
# Static dielectric constant tensor:
#      x y z
#    x 3.553430 0.000000 0.000000 
#    y 0.000000 3.304560 0.000000 
#    z 0.000000 0.000000 3.374400 
# 
# 
# High freq. dielectric constant tensor:
#      x y z
#    x 1.652270 0.000000 0.000000 
#    y 0.000000 1.649710 0.000000 
#    z 0.000000 0.000000 1.683900 
# 
# From -- ./inp_files/12815.got.cif
#   From: 2010.03.12/outbox.cif.g09.slc.cpg/sg63_7_cif.got.tgz:12815.got - 2010.04.10 19:34:48.
