data_PCOD8256522
_publ_section_title
;
Structure prediction by ZEFSAII (Michael W. Deem and Ramdas Pophale) SiO2 
 PCOD8256522
Probable space group: C M C M
;
_chemical_formula_sum "Si O2"
_cell_formula_units_Z 88
_cell_length_a 18.121607
_cell_length_b 30.207936
_cell_length_c 8.741854
_cell_angle_alpha 90.000000
_cell_angle_beta 90.000000
_cell_angle_gamma 90.000000
_cell_volume 4785.433761
_symmetry_space_group_name_H-M "C M C M"
_symmetry_group_IT_number 63
_symmetry_cell_setting 'orthorhombic'
loop_
_space_group_symop_operation_xyz
x,y,z
-x,-y,1/2+z
x,-y,-z
-x,y,1/2-z
-x,-y,-z
x,y,1/2-z
-x,y,z
x,-y,1/2+z
1/2+x,1/2+y,z
1/2-x,1/2-y,1/2+z
1/2+x,1/2-y,-z
1/2-x,1/2+y,1/2-z
1/2-x,1/2-y,-z
1/2+x,1/2+y,1/2-z
1/2-x,1/2+y,z
1/2+x,1/2-y,1/2+z
loop_
_atom_site_type_symbol
_atom_site_label
_atom_site_fract_x
_atom_site_fract_y
_atom_site_fract_z
Si Si1 0.213983 0.207821 0.924371
Si Si2 0.650055 0.548575 0.431768
Si Si3 0.081079 0.262348 0.924987
Si Si4 0.917994 0.647271 0.929277
Si Si5 0.765112 0.613630 0.568626
Si Si6 0.000000 0.049124 0.933084
O O1 0.239971 0.206944 0.750000
O O2 0.126928 0.217175 0.945622
O O3 0.233476 0.160342 0.995511
O O4 0.250000 0.250000 0.000000
O O5 0.660614 0.500000 0.500000
O O6 0.642396 0.546020 0.250000
O O7 0.723002 0.575592 0.477489
O O8 0.575694 0.571395 0.503155
O O9 0.081775 0.278013 0.750000
O O10 0.000000 0.250241 0.983941
O O11 0.111363 0.304514 0.018934
O O12 0.926435 0.648832 0.750000
O O13 0.853344 0.611979 0.971640
O O14 0.000000 0.635935 0.000320
O O15 0.751402 0.607957 0.750000
O O16 0.000000 0.049803 0.750000
O O17 0.000000 0.000000 0.000000
#
# Coordination Sequence:
#
# PCOD8256522 Si02
#       6
#    16  16  16  16  16   8
#     4  10  19  31  48  71 102 138 176 218 265 315
#     4  11  22  38  60  84 110 139 176 219 264 315
#     4   9  17  29  45  66  96 134 177 218 257 306
#     4   9  17  30  50  74 101 136 179 223 266 315
#     4  10  20  34  51  77 108 140 180 222 272 326
#     4  10  18  34  60  86 112 142 174 212 258 310
#
# _framework density 18.389137000000002
#
# number of rings (size 3 to 8) (size 9 to 14) (size 15 to 20)
#    0.000    2.182    1.818    3.545    0.000    1.455 
#    1.636    0.000    0.000    0.545    0.000    0.000 
#    0.000    0.000    0.000    0.000    0.000    0.000 
#
# Total GULP energy -545152.552609 kJ/mol
# GULP energy per Si atom -12389.830741 kJ/mol
# Density = 1.834728 g / cm^3
# Si number density = 18.389137 Si / 1000 Ang^3
#
#
#
# Elastic Constant Matrix: (Units=GPa)
#
#
# Indices 1 2 3 4 5 6 
#
# 1 123.9719 53.6525 46.7515 0.0000 0.0000 0.0000
# 2 53.6525 73.2412 30.3010 0.0000 0.0000 0.0000
# 3 46.7515 30.3010 74.2394 0.0000 0.0000 0.0000
# 4 0.0000 0.0000 0.0000 24.2638 0.0000 0.0000
# 5 0.0000 0.0000 0.0000 0.0000 26.2578 0.0000
# 6 0.0000 0.0000 0.0000 0.0000 0.0000 28.6351
#
#
#
# Elastic Compliance Matrix: (Units=1/GPa)
#
#
# Indices 1 2 3 4 5 6 
#
# 1 0.013352 -0.007582 -0.005313 0.000000 0.000000 0.000000
# 2 -0.007582 0.020734 -0.003687 0.000000 0.000000 0.000000
# 3 -0.005313 -0.003687 0.018321 0.000000 0.000000 0.000000
# 4 0.000000 0.000000 0.000000 0.041214 0.000000 0.000000
# 5 0.000000 0.000000 0.000000 0.000000 0.038084 0.000000
# 6 0.000000 0.000000 0.000000 0.000000 0.000000 0.034922
#
#
# Mechanical properties :
#
#
# Convention : Reuss Voigt Hill
#
# Bulk Modulus (GPa) = 51.97569 59.20693 55.59131
# Shear Modulus (GPa) = 24.24765 25.21449 24.73107
#
# Velocity S-wave (km/s) = 3.63517 3.70694 3.67123
# Velocity P-wave (km/s) = 6.77827 7.11255 6.94743
#
# Compressibility (1/GPa) = 0.01923976
#
# Stress axis : x y z
#
# Youngs Moduli (GPa) = 74.89753 48.23085 54.58236
#
# Poissons Ratio (x) = 0.36571 0.29001
# Poissons Ratio (y) = 0.56791 0.20127
# Poissons Ratio (z) = 0.39795 0.17785
#
# Static dielectric constant tensor:
#      x y z
#    x 4.575600 0.000000 0.000000 
#    y 0.000000 3.140490 0.000000 
#    z 0.000000 0.000000 3.375830 
# 
# 
# High freq. dielectric constant tensor:
#      x y z
#    x 1.736930 0.000000 0.000000 
#    y 0.000000 1.667860 0.000000 
#    z 0.000000 0.000000 1.706630 
# 
# From -- ./inp_files/6809.got.cif
#   From: 2010.03.12/outbox.cif.g09.slc.cpg/sg63_4_cif.got.tgz:6809.got - 2010.04.10 19:34:48.
