data_PCOD8256972
_publ_section_title
;
Structure prediction by ZEFSAII (Michael W. Deem and Ramdas Pophale) SiO2 
 PCOD8256972
Probable space group: C M C M
;
_chemical_formula_sum "Si O2"
_cell_formula_units_Z 96
_cell_length_a 8.678998
_cell_length_b 23.328713
_cell_length_c 27.316510
_cell_angle_alpha 90.000000
_cell_angle_beta 90.000000
_cell_angle_gamma 90.000000
_cell_volume 5530.769777
_symmetry_space_group_name_H-M "C M C M"
_symmetry_group_IT_number 63
_symmetry_cell_setting 'orthorhombic'
loop_
_space_group_symop_operation_xyz
x,y,z
-x,-y,1/2+z
x,-y,-z
-x,y,1/2-z
-x,-y,-z
x,y,1/2-z
-x,y,z
x,-y,1/2+z
1/2+x,1/2+y,z
1/2-x,1/2-y,1/2+z
1/2+x,1/2-y,-z
1/2-x,1/2+y,1/2-z
1/2-x,1/2-y,-z
1/2+x,1/2+y,1/2-z
1/2-x,1/2+y,z
1/2+x,1/2-y,1/2+z
loop_
_atom_site_type_symbol
_atom_site_label
_atom_site_fract_x
_atom_site_fract_y
_atom_site_fract_z
Si Si1 0.683492 0.970432 0.568078
Si Si2 0.317736 0.913094 0.469920
Si Si3 0.316673 0.236819 0.147270
Si Si4 0.681488 0.106304 0.152928
Si Si5 0.327551 0.606622 0.250000
Si Si6 0.175148 0.242734 0.250000
Si Si7 0.684262 0.214768 0.546334
O O1 0.500000 0.966793 0.567313
O O2 0.747808 0.936355 0.521210
O O3 0.754791 0.936965 0.613779
O O4 0.732364 0.037764 0.569387
O O5 0.500000 0.907706 0.472183
O O6 0.251774 0.850367 0.458069
O O7 0.500000 0.243495 0.145775
O O8 0.261828 0.170942 0.143786
O O9 0.257201 0.263888 0.199261
O O10 0.243505 0.265389 0.099332
O O11 0.500000 0.104838 0.151688
O O12 0.740102 0.081299 0.203757
O O13 0.500000 0.583739 0.250000
O O14 0.317716 0.674761 0.250000
O O15 0.000000 0.265679 0.250000
O O16 0.500000 0.218804 0.544794
O O17 0.750000 0.250000 0.500000
#
# Coordination Sequence:
#
# PCOD8256972 Si02
#       7
#    16  16  16  16   8   8  16
#     4   8  13  25  46  68  88 113 147 189 227 264
#     4   8  15  27  44  67  92 116 148 188 229 268
#     4  10  19  31  48  72  99 127 157 193 236 283
#     4   9  16  27  46  69  91 116 150 187 225 268
#     4   9  17  27  41  64  95 122 145 180 228 273
#     4   9  17  31  49  70  95 126 161 196 234 277
#     4  11  21  32  47  70  99 129 159 195 237 284
#
# _framework density 17.357437999999998
#
# number of rings (size 3 to 8) (size 9 to 14) (size 15 to 20)
#    0.000    2.833    0.000    3.500    0.000    5.333 
#    0.000    0.000    0.000    3.000    0.000   10.500 
#    0.000    0.000    0.000    0.000    0.000    0.000 
#
# Total GULP energy -594649.673846 kJ/mol
# GULP energy per Si atom -12388.534872 kJ/mol
# Density = 1.731793 g / cm^3
# Si number density = 17.357438 Si / 1000 Ang^3
#
#
#
# Elastic Constant Matrix: (Units=GPa)
#
#
# Indices 1 2 3 4 5 6 
#
# 1 36.5975 26.8010 32.3953 0.0000 0.0000 0.0000
# 2 26.8010 118.0063 77.0691 0.0000 0.0000 0.0000
# 3 32.3953 77.0691 157.2078 0.0000 0.0000 0.0000
# 4 0.0000 0.0000 0.0000 27.6466 0.0000 0.0000
# 5 0.0000 0.0000 0.0000 0.0000 26.8009 0.0000
# 6 0.0000 0.0000 0.0000 0.0000 0.0000 14.1080
#
#
#
# Elastic Compliance Matrix: (Units=1/GPa)
#
#
# Indices 1 2 3 4 5 6 
#
# 1 0.035167 -0.004787 -0.004900 0.000000 0.000000 0.000000
# 2 -0.004787 0.013117 -0.005444 0.000000 0.000000 0.000000
# 3 -0.004900 -0.005444 0.010040 0.000000 0.000000 0.000000
# 4 0.000000 0.000000 0.000000 0.036171 0.000000 0.000000
# 5 0.000000 0.000000 0.000000 0.000000 0.037312 0.000000
# 6 0.000000 0.000000 0.000000 0.000000 0.000000 0.070882
#
#
# Mechanical properties :
#
#
# Convention : Reuss Voigt Hill
#
# Bulk Modulus (GPa) = 35.63557 64.92693 50.28125
# Shear Modulus (GPa) = 20.63526 25.41416 23.02471
#
# Velocity S-wave (km/s) = 3.45170 3.83059 3.64607
# Velocity P-wave (km/s) = 6.03827 7.55325 6.83785
#
# Compressibility (1/GPa) = 0.02806185
#
# Stress axis : x y z
#
# Youngs Moduli (GPa) = 28.43559 76.23907 99.60601
#
# Poissons Ratio (x) = 0.36494 0.48808
# Poissons Ratio (y) = 0.13611 0.54224
# Poissons Ratio (z) = 0.13934 0.41504
#
# Static dielectric constant tensor:
#      x y z
#    x 2.994190 0.000000 0.000000 
#    y 0.000000 3.358660 0.000000 
#    z 0.000000 0.000000 3.552680 
# 
# 
# High freq. dielectric constant tensor:
#      x y z
#    x 1.647070 0.000000 0.000000 
#    y 0.000000 1.646640 0.000000 
#    z 0.000000 0.000000 1.679800 
# 
# From -- ./inp_files/60063.got.cif
#   From: 2010.03.12/outbox.cif.g09.slc.cpg/sg63_31_cif.got.tgz:60063.got - 2010.04.10 19:34:48.
