data_PCOD8256105
_publ_section_title
;
Structure prediction by ZEFSAII (Michael W. Deem and Ramdas Pophale) SiO2 
 PCOD8256105
Probable space group: C M C M
;
_chemical_formula_sum "Si O2"
_cell_formula_units_Z 80
_cell_length_a 23.745246
_cell_length_b 19.762231
_cell_length_c 10.047650
_cell_angle_alpha 90.000000
_cell_angle_beta 90.000000
_cell_angle_gamma 90.000000
_cell_volume 4714.950559
_symmetry_space_group_name_H-M "C M C M"
_symmetry_group_IT_number 63
_symmetry_cell_setting 'orthorhombic'
loop_
_space_group_symop_operation_xyz
x,y,z
-x,-y,1/2+z
x,-y,-z
-x,y,1/2-z
-x,-y,-z
x,y,1/2-z
-x,y,z
x,-y,1/2+z
1/2+x,1/2+y,z
1/2-x,1/2-y,1/2+z
1/2+x,1/2-y,-z
1/2-x,1/2+y,1/2-z
1/2-x,1/2-y,-z
1/2+x,1/2+y,1/2-z
1/2-x,1/2+y,z
1/2+x,1/2-y,1/2+z
loop_
_atom_site_type_symbol
_atom_site_label
_atom_site_fract_x
_atom_site_fract_y
_atom_site_fract_z
Si Si1 0.678262 0.059528 0.750000
Si Si2 0.220591 0.649361 0.978930
Si Si3 0.062896 0.741384 0.975191
Si Si4 0.437457 0.829737 0.750000
Si Si5 0.674895 0.706843 0.098684
Si Si6 0.063191 0.367928 0.250000
Si Si7 0.328845 0.902136 0.750000
O O1 0.709602 0.087008 0.880943
O O2 0.611256 0.074687 0.750000
O O3 0.687831 0.979901 0.750000
O O4 0.192950 0.715062 0.913244
O O5 0.287690 0.660574 0.000254
O O6 0.194105 0.636335 0.121970
O O7 0.108868 0.799020 0.940467
O O8 0.071806 0.676915 0.880686
O O9 0.000000 0.771567 0.954924
O O10 0.072975 0.718275 0.124845
O O11 0.500000 0.860753 0.750000
O O12 0.396380 0.894089 0.750000
O O13 0.683422 0.682463 0.250000
O O14 0.000000 0.400274 0.250000
#
# Coordination Sequence:
#
# PCOD8256105 Si02
#       7
#     8  16  16   8  16   8   8
#     4  12  22  37  50  71 104 138 184 218 250 305
#     4  11  22  34  50  78  97 132 176 211 270 301
#     4  10  18  30  51  74 102 132 164 210 261 303
#     4  10  20  32  45  72 106 136 178 215 247 290
#     4  11  19  33  56  74 103 127 170 220 259 329
#     4  10  18  32  49  68  96 134 180 215 243 290
#     4  12  22  35  52  69 104 142 180 216 248 299
#
# _framework density 16.967303999999999
#
# number of rings (size 3 to 8) (size 9 to 14) (size 15 to 20)
#    0.000    1.200    7.000    0.600    0.000    1.200 
#    0.000    0.000    0.000    6.000    0.000    0.000 
#    0.000    4.800    0.000    0.000    0.000    0.000 
#
# Total GULP energy -495976.107688 kJ/mol
# GULP energy per Si atom -12399.402692 kJ/mol
# Density = 1.692869 g / cm^3
# Si number density = 16.967304 Si / 1000 Ang^3
#
#
#
# Elastic Constant Matrix: (Units=GPa)
#
#
# Indices 1 2 3 4 5 6 
#
# 1 131.5371 30.5372 22.2127 0.0000 0.0000 0.0000
# 2 30.5372 30.8600 4.9721 0.0000 0.0000 0.0000
# 3 22.2127 4.9721 102.7292 0.0000 0.0000 0.0000
# 4 0.0000 0.0000 0.0000 10.1372 0.0000 0.0000
# 5 0.0000 0.0000 0.0000 0.0000 29.0914 0.0000
# 6 0.0000 0.0000 0.0000 0.0000 0.0000 19.1743
#
#
#
# Elastic Compliance Matrix: (Units=1/GPa)
#
#
# Indices 1 2 3 4 5 6 
#
# 1 0.010164 -0.009780 -0.001724 0.000000 0.000000 0.000000
# 2 -0.009780 0.042069 0.000079 0.000000 0.000000 0.000000
# 3 -0.001724 0.000079 0.010103 0.000000 0.000000 0.000000
# 4 0.000000 0.000000 0.000000 0.098646 0.000000 0.000000
# 5 0.000000 0.000000 0.000000 0.000000 0.034374 0.000000
# 6 0.000000 0.000000 0.000000 0.000000 0.000000 0.052153
#
#
# Mechanical properties :
#
#
# Convention : Reuss Voigt Hill
#
# Bulk Modulus (GPa) = 25.32590 42.28560 33.80575
# Shear Modulus (GPa) = 17.63518 25.50753 21.57135
#
# Velocity S-wave (km/s) = 3.22741 3.88149 3.56947
# Velocity P-wave (km/s) = 5.37094 6.71296 6.07910
#
# Compressibility (1/GPa) = 0.03948526
#
# Stress axis : x y z
#
# Youngs Moduli (GPa) = 98.38549 23.77022 98.97670
#
# Poissons Ratio (x) = 0.23247 0.17067
# Poissons Ratio (y) = 0.96221 -0.00777
# Poissons Ratio (z) = 0.16966 -0.00187
#
# Static dielectric constant tensor:
#      x y z
#    x 3.591650 0.000000 0.000000 
#    y 0.000000 2.626770 0.000000 
#    z 0.000000 0.000000 3.418740 
# 
# 
# High freq. dielectric constant tensor:
#      x y z
#    x 1.669580 0.000000 0.000000 
#    y 0.000000 1.586080 0.000000 
#    z 0.000000 0.000000 1.679630 
# 
# From -- ./inp_files/10154.got.cif
#   From: 2010.03.12/outbox.cif.g09.slc.cpg/sg63_6_cif.got.tgz:10154.got - 2010.04.10 19:34:48.
