data_PCOD8256252
_publ_section_title
;
Structure prediction by ZEFSAII (Michael W. Deem and Ramdas Pophale) SiO2 
 PCOD8256252
Probable space group: C M C M
;
_chemical_formula_sum "Si O2"
_cell_formula_units_Z 80
_cell_length_a 25.872405
_cell_length_b 9.719054
_cell_length_c 17.609217
_cell_angle_alpha 90.000000
_cell_angle_beta 90.000000
_cell_angle_gamma 90.000000
_cell_volume 4427.930966
_symmetry_space_group_name_H-M "C M C M"
_symmetry_group_IT_number 63
_symmetry_cell_setting 'orthorhombic'
loop_
_space_group_symop_operation_xyz
x,y,z
-x,-y,1/2+z
x,-y,-z
-x,y,1/2-z
-x,-y,-z
x,y,1/2-z
-x,y,z
x,-y,1/2+z
1/2+x,1/2+y,z
1/2-x,1/2-y,1/2+z
1/2+x,1/2-y,-z
1/2-x,1/2+y,1/2-z
1/2-x,1/2-y,-z
1/2+x,1/2+y,1/2-z
1/2-x,1/2+y,z
1/2+x,1/2-y,1/2+z
loop_
_atom_site_type_symbol
_atom_site_label
_atom_site_fract_x
_atom_site_fract_y
_atom_site_fract_z
Si Si1 0.664437 0.281867 0.339913
Si Si2 0.860379 0.502561 0.410397
Si Si3 0.216666 0.301271 0.160321
Si Si4 0.362625 0.422354 0.660981
Si Si5 0.058905 0.303352 0.339394
O O1 0.658019 0.262485 0.250000
O O2 0.635456 0.159122 0.382245
O O3 0.724337 0.285666 0.363898
O O4 0.638385 0.422834 0.371617
O O5 0.858705 0.500000 0.500000
O O6 0.807923 0.436372 0.377682
O O7 0.911431 0.424589 0.381998
O O8 0.210371 0.321519 0.250000
O O9 0.185726 0.167317 0.130418
O O10 0.354949 0.436949 0.750000
O O11 0.415955 0.344953 0.640263
O O12 0.063582 0.331412 0.250000
O O13 0.000000 0.300744 0.367261
#
# Coordination Sequence:
#
# PCOD8256252 Si02
#       5
#    16  16  16  16  16
#     4  10  18  31  53  77 100 128 168 214 248 286
#     4  11  22  33  48  75 110 140 167 204 252 309
#     4   9  17  32  52  72  99 137 173 201 241 299
#     4   8  15  28  49  75  95 117 160 212 252 288
#     4   9  18  36  58  73  92 129 173 214 259 310
#
# _framework density 18.067129000000001
#
# number of rings (size 3 to 8) (size 9 to 14) (size 15 to 20)
#    0.000    2.600    0.000    4.200    0.000    4.400 
#    0.000    5.000    0.000    4.800    0.000    0.000 
#    0.000    0.000    0.000    0.000    0.000    0.000 
#
# Total GULP energy -495939.518275 kJ/mol
# GULP energy per Si atom -12398.487957 kJ/mol
# Density = 1.802601 g / cm^3
# Si number density = 18.067129 Si / 1000 Ang^3
#
#
#
# Elastic Constant Matrix: (Units=GPa)
#
#
# Indices 1 2 3 4 5 6 
#
# 1 108.2015 56.8401 37.6735 0.0000 0.0000 0.0000
# 2 56.8401 164.1007 41.6735 0.0000 0.0000 0.0000
# 3 37.6735 41.6735 51.8527 0.0000 0.0000 0.0000
# 4 0.0000 0.0000 0.0000 5.9336 0.0000 0.0000
# 5 0.0000 0.0000 0.0000 0.0000 4.3962 0.0000
# 6 0.0000 0.0000 0.0000 0.0000 0.0000 12.9750
#
#
#
# Elastic Compliance Matrix: (Units=1/GPa)
#
#
# Indices 1 2 3 4 5 6 
#
# 1 0.013258 -0.002696 -0.007465 0.000000 0.000000 0.000000
# 2 -0.002696 0.008205 -0.004635 0.000000 0.000000 0.000000
# 3 -0.007465 -0.004635 0.028435 0.000000 0.000000 0.000000
# 4 0.000000 0.000000 0.000000 0.168532 0.000000 0.000000
# 5 0.000000 0.000000 0.000000 0.000000 0.227471 0.000000
# 6 0.000000 0.000000 0.000000 0.000000 0.000000 0.077072
#
#
# Mechanical properties :
#
#
# Convention : Reuss Voigt Hill
#
# Bulk Modulus (GPa) = 49.25266 66.28100 57.76683
# Shear Modulus (GPa) = 8.93921 17.19214 13.06568
#
# Velocity S-wave (km/s) = 2.22677 3.08810 2.69211
# Velocity P-wave (km/s) = 5.82507 7.03426 6.45803
#
# Compressibility (1/GPa) = 0.02030347
#
# Stress axis : x y z
#
# Youngs Moduli (GPa) = 75.42781 121.87931 35.16840
#
# Poissons Ratio (x) = 0.32862 0.26255
# Poissons Ratio (y) = 0.20337 0.16301
# Poissons Ratio (z) = 0.56310 0.56493
#
# Static dielectric constant tensor:
#      x y z
#    x 3.304110 0.000000 0.000000 
#    y 0.000000 3.646650 0.000000 
#    z 0.000000 0.000000 2.970370 
# 
# 
# High freq. dielectric constant tensor:
#      x y z
#    x 1.685860 0.000000 0.000000 
#    y 0.000000 1.712450 0.000000 
#    z 0.000000 0.000000 1.664930 
# 
# From -- ./inp_files/48748.got.cif
#   From: 2010.03.12/outbox.cif.g09.slc.cpg/sg63_25_cif.got.tgz:48748.got - 2010.04.10 19:34:48.
