data_PCOD8256932
_publ_section_title
;
Structure prediction by ZEFSAII (Michael W. Deem and Ramdas Pophale) SiO2 
 PCOD8256932
Probable space group: C M C M
;
_chemical_formula_sum "Si O2"
_cell_formula_units_Z 80
_cell_length_a 18.130961
_cell_length_b 24.726099
_cell_length_c 9.352738
_cell_angle_alpha 90.000000
_cell_angle_beta 90.000000
_cell_angle_gamma 90.000000
_cell_volume 4192.906675
_symmetry_space_group_name_H-M "C M C M"
_symmetry_group_IT_number 63
_symmetry_cell_setting 'orthorhombic'
loop_
_space_group_symop_operation_xyz
x,y,z
-x,-y,1/2+z
x,-y,-z
-x,y,1/2-z
-x,-y,-z
x,y,1/2-z
-x,y,z
x,-y,1/2+z
1/2+x,1/2+y,z
1/2-x,1/2-y,1/2+z
1/2+x,1/2-y,-z
1/2-x,1/2+y,1/2-z
1/2-x,1/2-y,-z
1/2+x,1/2+y,1/2-z
1/2-x,1/2+y,z
1/2+x,1/2-y,1/2+z
loop_
_atom_site_type_symbol
_atom_site_label
_atom_site_fract_x
_atom_site_fract_y
_atom_site_fract_z
Si Si1 0.916844 0.946093 0.416600
Si Si2 0.500000 0.138969 0.913076
Si Si3 0.864880 0.234072 0.910305
Si Si4 0.500000 0.732433 0.408547
Si Si5 0.282974 0.370231 0.412909
Si Si6 0.855845 0.640970 0.082649
O O1 0.912144 0.959524 0.250000
O O2 0.858170 0.900110 0.459474
O O3 0.000000 0.926779 0.457643
O O4 0.895048 0.000000 0.500000
O O5 0.500000 0.116168 0.750000
O O6 0.500000 0.203097 0.910400
O O7 0.427874 0.118941 0.999482
O O8 0.896960 0.230829 0.750000
O O9 0.795036 0.194532 0.927555
O O10 0.843485 0.295421 0.945472
O O11 0.927588 0.210993 0.013680
O O12 0.500000 0.708606 0.250000
O O13 0.261267 0.384804 0.250000
O O14 0.216056 0.388201 0.516087
O O15 0.863331 0.626956 0.250000
#
# Coordination Sequence:
#
# PCOD8256932 Si02
#       6
#    16   8  16   8  16  16
#     4   9  19  36  56  76  99 130 170 215 262 308
#     4   9  17  31  49  65  92 133 172 203 237 288
#     4   9  18  30  45  65  96 136 170 205 247 297
#     4   9  17  27  41  63  90 125 168 209 244 284
#     4  10  20  32  50  73  97 131 171 207 252 309
#     4  10  19  31  47  72 103 134 169 209 251 293
#
# _framework density 19.079843
#
# number of rings (size 3 to 8) (size 9 to 14) (size 15 to 20)
#    0.000    2.600    0.000    1.800    1.400    4.800 
#    0.000    0.000    0.000    0.000    0.000    0.700 
#    0.000    0.000    0.000    0.000    0.000    0.000 
#
# Total GULP energy -495876.549426 kJ/mol
# GULP energy per Si atom -12396.913736 kJ/mol
# Density = 1.903642 g / cm^3
# Si number density = 19.079843 Si / 1000 Ang^3
#
#
#
# Elastic Constant Matrix: (Units=GPa)
#
#
# Indices 1 2 3 4 5 6 
#
# 1 140.5990 24.7379 79.3435 0.0000 0.0000 0.0000
# 2 24.7379 29.8176 15.6175 0.0000 0.0000 0.0000
# 3 79.3435 15.6175 115.9645 0.0000 0.0000 0.0000
# 4 0.0000 0.0000 0.0000 19.2487 0.0000 0.0000
# 5 0.0000 0.0000 0.0000 0.0000 39.0077 0.0000
# 6 0.0000 0.0000 0.0000 0.0000 0.0000 16.4250
#
#
#
# Elastic Compliance Matrix: (Units=1/GPa)
#
#
# Indices 1 2 3 4 5 6 
#
# 1 0.012628 -0.006403 -0.007778 0.000000 0.000000 0.000000
# 2 -0.006403 0.039329 -0.000916 0.000000 0.000000 0.000000
# 3 -0.007778 -0.000916 0.014068 0.000000 0.000000 0.000000
# 4 0.000000 0.000000 0.000000 0.051952 0.000000 0.000000
# 5 0.000000 0.000000 0.000000 0.000000 0.025636 0.000000
# 6 0.000000 0.000000 0.000000 0.000000 0.000000 0.060883
#
#
# Mechanical properties :
#
#
# Convention : Reuss Voigt Hill
#
# Bulk Modulus (GPa) = 27.90774 58.41987 43.16380
# Shear Modulus (GPa) = 20.27294 26.04841 23.16067
#
# Velocity S-wave (km/s) = 3.26319 3.69891 3.48786
# Velocity P-wave (km/s) = 5.37182 6.99483 6.23635
#
# Compressibility (1/GPa) = 0.03583236
#
# Stress axis : x y z
#
# Youngs Moduli (GPa) = 79.18672 25.42645 71.08113
#
# Poissons Ratio (x) = 0.16281 0.55287
# Poissons Ratio (y) = 0.50704 0.06508
# Poissons Ratio (z) = 0.61592 0.02328
#
# Static dielectric constant tensor:
#      x y z
#    x 3.488150 0.000000 0.000000 
#    y 0.000000 2.983410 0.000000 
#    z 0.000000 0.000000 3.582840 
# 
# 
# High freq. dielectric constant tensor:
#      x y z
#    x 1.746710 0.000000 0.000000 
#    y 0.000000 1.682800 0.000000 
#    z 0.000000 0.000000 1.747830 
# 
# From -- ./inp_files/6550.got.cif
#   From: 2010.03.12/outbox.cif.g09.slc.cpg/sg63_4_cif.got.tgz:6550.got - 2010.04.10 19:34:48.
