data_PCOD8256600
_publ_section_title
;
Structure prediction by ZEFSAII (Michael W. Deem and Ramdas Pophale) SiO2 
 PCOD8256600
Probable space group: C M C M
;
_chemical_formula_sum "Si O2"
_cell_formula_units_Z 112
_cell_length_a 28.661868
_cell_length_b 16.688508
_cell_length_c 13.344872
_cell_angle_alpha 90.000000
_cell_angle_beta 90.000000
_cell_angle_gamma 90.000000
_cell_volume 6383.170065
_symmetry_space_group_name_H-M "C M C M"
_symmetry_group_IT_number 63
_symmetry_cell_setting 'orthorhombic'
loop_
_space_group_symop_operation_xyz
x,y,z
-x,-y,1/2+z
x,-y,-z
-x,y,1/2-z
-x,-y,-z
x,y,1/2-z
-x,y,z
x,-y,1/2+z
1/2+x,1/2+y,z
1/2-x,1/2-y,1/2+z
1/2+x,1/2-y,-z
1/2-x,1/2+y,1/2-z
1/2-x,1/2-y,-z
1/2+x,1/2+y,1/2-z
1/2-x,1/2+y,z
1/2+x,1/2-y,1/2+z
loop_
_atom_site_type_symbol
_atom_site_label
_atom_site_fract_x
_atom_site_fract_y
_atom_site_fract_z
Si Si1 0.846922 0.704258 0.369622
Si Si2 0.277555 0.908696 0.979875
Si Si3 0.289400 0.361137 0.368015
Si Si4 0.448066 0.596795 0.567198
Si Si5 0.307446 0.537592 0.362965
Si Si6 0.589308 0.564301 0.362510
Si Si7 0.050762 0.271377 0.864342
O O1 0.844907 0.693765 0.250000
O O2 0.819903 0.633426 0.423903
O O3 0.824447 0.789891 0.400907
O O4 0.900808 0.694366 0.409617
O O5 0.231518 0.906815 0.911609
O O6 0.261995 0.858090 0.079165
O O7 0.293651 0.000000 0.000000
O O8 0.281060 0.356720 0.250000
O O9 0.310644 0.446585 0.407794
O O10 0.500000 0.561783 0.573850
O O11 0.414908 0.530830 0.616750
O O12 0.436971 0.613890 0.449149
O O13 0.443172 0.676170 0.631386
O O14 0.291453 0.525152 0.250000
O O15 0.356112 0.584110 0.370584
O O16 0.570739 0.585221 0.250000
O O17 0.047696 0.298148 0.750000
O O18 0.000000 0.296014 0.915435
#
# Coordination Sequence:
#
# PCOD8256600 Si02
#       7
#    16  16  16  16  16  16  16
#     4  10  19  32  51  73  95 121 156 195 235 282
#     4  10  20  31  49  70  97 130 153 190 232 280
#     4   9  18  30  45  69  96 128 162 192 229 270
#     4  10  20  29  43  64  88 121 162 205 243 281
#     4   9  18  30  44  65  94 128 163 193 227 275
#     4  10  19  28  41  61  89 126 164 201 235 274
#     4   9  18  32  50  71  93 117 149 195 245 287
#
# _framework density 17.546140999999999
#
# number of rings (size 3 to 8) (size 9 to 14) (size 15 to 20)
#    0.000    2.429    0.000    3.000    8.000    4.571 
#    0.000    0.000    0.000    0.429    0.000    0.000 
#    0.000    0.000    0.000    0.000    0.000    0.000 
#
# Total GULP energy -693754.541538 kJ/mol
# GULP energy per Si atom -12388.473956 kJ/mol
# Density = 1.750621 g / cm^3
# Si number density = 17.546141 Si / 1000 Ang^3
#
#
#
# Elastic Constant Matrix: (Units=GPa)
#
#
# Indices 1 2 3 4 5 6 
#
# 1 129.7615 44.8331 33.2657 0.0000 0.0000 0.0000
# 2 44.8331 46.0084 9.2991 0.0000 0.0000 0.0000
# 3 33.2657 9.2991 21.5179 0.0000 0.0000 0.0000
# 4 0.0000 0.0000 0.0000 18.4691 0.0000 0.0000
# 5 0.0000 0.0000 0.0000 0.0000 21.6388 0.0000
# 6 0.0000 0.0000 0.0000 0.0000 0.0000 22.9020
#
#
#
# Elastic Compliance Matrix: (Units=1/GPa)
#
#
# Indices 1 2 3 4 5 6 
#
# 1 0.017780 -0.012897 -0.021914 0.000000 0.000000 0.000000
# 2 -0.012897 0.033170 0.005603 0.000000 0.000000 0.000000
# 3 -0.021914 0.005603 0.077930 0.000000 0.000000 0.000000
# 4 0.000000 0.000000 0.000000 0.054144 0.000000 0.000000
# 5 0.000000 0.000000 0.000000 0.000000 0.046213 0.000000
# 6 0.000000 0.000000 0.000000 0.000000 0.000000 0.043664
#
#
# Mechanical properties :
#
#
# Convention : Reuss Voigt Hill
#
# Bulk Modulus (GPa) = 14.19149 41.34261 27.76705
# Shear Modulus (GPa) = 14.09224 19.92797 17.01010
#
# Velocity S-wave (km/s) = 2.83707 3.37374 3.11698
# Velocity P-wave (km/s) = 4.34023 6.22812 5.36783
#
# Compressibility (1/GPa) = 0.07046475
#
# Stress axis : x y z
#
# Youngs Moduli (GPa) = 56.24222 30.14766 12.83211
#
# Poissons Ratio (x) = 0.38881 0.28120
# Poissons Ratio (y) = 0.72535 -0.07190
# Poissons Ratio (z) = 1.23249 -0.16893
#
# Static dielectric constant tensor:
#      x y z
#    x 3.468850 0.000000 0.000000 
#    y 0.000000 2.838590 0.000000 
#    z 0.000000 0.000000 3.384000 
# 
# 
# High freq. dielectric constant tensor:
#      x y z
#    x 1.679570 0.000000 0.000000 
#    y 0.000000 1.624580 0.000000 
#    z 0.000000 0.000000 1.678260 
# 
# From -- ./inp_files/37952.got.cif
#   From: 2010.03.12/outbox.cif.g09.slc.cpg/sg63_19_cif.got.tgz:37952.got - 2010.04.10 19:34:48.
