data_PCOD8256788
_publ_section_title
;
Structure prediction by ZEFSAII (Michael W. Deem and Ramdas Pophale) SiO2 
 PCOD8256788
Probable space group: C M C M
;
_chemical_formula_sum "Si O2"
_cell_formula_units_Z 96
_cell_length_a 9.485884
_cell_length_b 20.828739
_cell_length_c 28.171195
_cell_angle_alpha 90.000000
_cell_angle_beta 90.000000
_cell_angle_gamma 90.000000
_cell_volume 5566.036594
_symmetry_space_group_name_H-M "C M C M"
_symmetry_group_IT_number 63
_symmetry_cell_setting 'orthorhombic'
loop_
_space_group_symop_operation_xyz
x,y,z
-x,-y,1/2+z
x,-y,-z
-x,y,1/2-z
-x,-y,-z
x,y,1/2-z
-x,y,z
x,-y,1/2+z
1/2+x,1/2+y,z
1/2-x,1/2-y,1/2+z
1/2+x,1/2-y,-z
1/2-x,1/2+y,1/2-z
1/2-x,1/2-y,-z
1/2+x,1/2+y,1/2-z
1/2-x,1/2+y,z
1/2+x,1/2-y,1/2+z
loop_
_atom_site_type_symbol
_atom_site_label
_atom_site_fract_x
_atom_site_fract_y
_atom_site_fract_z
Si Si1 0.167925 0.001552 0.196041
Si Si2 0.835486 0.865423 0.653076
Si Si3 0.334550 0.377032 0.144151
Si Si4 0.662127 0.308747 0.555133
Si Si5 0.336700 0.682647 0.950033
Si Si6 0.661060 0.750234 0.805398
O O1 0.224099 0.999697 0.250000
O O2 0.232894 0.940884 0.167301
O O3 0.000000 0.999813 0.195162
O O4 0.222309 0.065883 0.170297
O O5 0.807532 0.860308 0.596425
O O6 0.753950 0.811190 0.681584
O O7 0.000000 0.857565 0.665068
O O8 0.500000 0.379967 0.153741
O O9 0.299557 0.373743 0.087596
O O10 0.275448 0.312693 0.168856
O O11 0.500000 0.286875 0.555786
O O12 0.700802 0.339712 0.503707
O O13 0.753342 0.246022 0.564831
O O14 0.500000 0.701031 0.945530
O O15 0.670602 0.736826 0.750000
O O16 0.500000 0.763203 0.821364
#
# Coordination Sequence:
#
# PCOD8256788 Si02
#       6
#    16  16  16  16  16  16
#     4   9  17  29  45  65  92 126 158 188 228 279
#     4  10  19  31  47  69  96 124 154 187 230 281
#     4   9  16  28  46  68  91 118 156 195 229 267
#     4   9  17  28  44  69  97 121 148 186 232 280
#     4   9  16  28  47  69  92 119 152 190 233 274
#     4  10  19  30  47  70  92 116 154 201 236 266
#
# _framework density 17.247461000000001
#
# number of rings (size 3 to 8) (size 9 to 14) (size 15 to 20)
#    0.000    2.667    1.667    1.000    0.000    3.000 
#    0.000    0.833    0.000    7.000    0.000    0.000 
#    0.000    6.667    0.000    0.000    0.000    0.000 
#
# Total GULP energy -594982.400948 kJ/mol
# GULP energy per Si atom -12395.466686 kJ/mol
# Density = 1.720820 g / cm^3
# Si number density = 17.247461 Si / 1000 Ang^3
#
#
#
# Elastic Constant Matrix: (Units=GPa)
#
#
# Indices 1 2 3 4 5 6 
#
# 1 25.2324 23.9194 21.3121 0.0000 0.0000 0.0000
# 2 23.9194 127.7122 66.0048 0.0000 0.0000 0.0000
# 3 21.3121 66.0048 127.6516 0.0000 0.0000 0.0000
# 4 0.0000 0.0000 0.0000 32.6163 0.0000 0.0000
# 5 0.0000 0.0000 0.0000 0.0000 18.2319 0.0000
# 6 0.0000 0.0000 0.0000 0.0000 0.0000 17.5632
#
#
#
# Elastic Compliance Matrix: (Units=1/GPa)
#
#
# Indices 1 2 3 4 5 6 
#
# 1 0.050261 -0.006928 -0.004809 0.000000 0.000000 0.000000
# 2 -0.006928 0.011641 -0.004862 0.000000 0.000000 0.000000
# 3 -0.004809 -0.004862 0.011151 0.000000 0.000000 0.000000
# 4 0.000000 0.000000 0.000000 0.030660 0.000000 0.000000
# 5 0.000000 0.000000 0.000000 0.000000 0.054849 0.000000
# 6 0.000000 0.000000 0.000000 0.000000 0.000000 0.056937
#
#
# Mechanical properties :
#
#
# Convention : Reuss Voigt Hill
#
# Bulk Modulus (GPa) = 25.09177 55.89653 40.49415
# Shear Modulus (GPa) = 19.08530 24.97294 22.02912
#
# Velocity S-wave (km/s) = 3.33010 3.80928 3.57772
# Velocity P-wave (km/s) = 5.41902 7.19906 6.37151
#
# Compressibility (1/GPa) = 0.03985370
#
# Stress axis : x y z
#
# Youngs Moduli (GPa) = 19.89613 85.90581 89.67885
#
# Poissons Ratio (x) = 0.59516 0.43127
# Poissons Ratio (y) = 0.13784 0.43605
# Poissons Ratio (z) = 0.09568 0.41771
#
# Static dielectric constant tensor:
#      x y z
#    x 2.920070 0.000000 0.000000 
#    y 0.000000 3.235570 0.000000 
#    z 0.000000 0.000000 3.585930 
# 
# 
# High freq. dielectric constant tensor:
#      x y z
#    x 1.625310 0.000000 0.000000 
#    y 0.000000 1.646870 0.000000 
#    z 0.000000 0.000000 1.689410 
# 
# From -- ./inp_files/66873.got.cif
#   From: 2010.03.12/outbox.cif.g09.slc.cpg/sg63_34_cif.got.tgz:66873.got - 2010.04.10 19:34:48.
