data_PCOD8256111
_publ_section_title
;
Structure prediction by ZEFSAII (Michael W. Deem and Ramdas Pophale) SiO2 
 PCOD8256111
Probable space group: C M C M
;
_chemical_formula_sum "Si O2"
_cell_formula_units_Z 48
_cell_length_a 8.411367
_cell_length_b 19.051274
_cell_length_c 15.745554
_cell_angle_alpha 90.000000
_cell_angle_beta 90.000000
_cell_angle_gamma 90.000000
_cell_volume 2523.181845
_symmetry_space_group_name_H-M "C M C M"
_symmetry_group_IT_number 63
_symmetry_cell_setting 'orthorhombic'
loop_
_space_group_symop_operation_xyz
x,y,z
-x,-y,1/2+z
x,-y,-z
-x,y,1/2-z
-x,-y,-z
x,y,1/2-z
-x,y,z
x,-y,1/2+z
1/2+x,1/2+y,z
1/2-x,1/2-y,1/2+z
1/2+x,1/2-y,-z
1/2-x,1/2+y,1/2-z
1/2-x,1/2-y,-z
1/2+x,1/2+y,1/2-z
1/2-x,1/2+y,z
1/2+x,1/2-y,1/2+z
loop_
_atom_site_type_symbol
_atom_site_label
_atom_site_fract_x
_atom_site_fract_y
_atom_site_fract_z
Si Si1 0.684120 0.543484 0.750000
Si Si2 0.184807 0.695786 0.750000
Si Si3 0.686242 0.948699 0.075159
Si Si4 0.814380 0.205997 0.922334
O O1 0.500000 0.522736 0.750000
O O2 0.705208 0.627047 0.750000
O O3 0.766674 0.513881 0.664387
O O4 0.229416 0.736437 0.836689
O O5 0.000000 0.675006 0.750000
O O6 0.500000 0.932698 0.073232
O O7 0.778177 0.875856 0.063268
O O8 0.739131 0.000000 0.000000
O O9 0.000000 0.218204 0.913200
O O10 0.750000 0.250000 0.000000
#
# Coordination Sequence:
#
# PCOD8256111 Si02
#       4
#     8   8  16  16
#     4  10  18  30  51  76 103 136 173 211 253 307
#     4  10  18  32  53  76 103 136 175 213 255 309
#     4  10  20  35  55  78 105 137 174 215 259 307
#     4  11  21  35  55  79 107 138 175 216 260 309
#
# _framework density 19.023599999999998
#
# number of rings (size 3 to 8) (size 9 to 14) (size 15 to 20)
#    0.000    1.667    0.000   11.000    0.000    2.667 
#    0.000    1.667    0.000    6.000    0.000    0.000 
#    0.000    0.000    0.000    0.000    0.000    0.000 
#
# Total GULP energy -297545.627637 kJ/mol
# GULP energy per Si atom -12397.734485 kJ/mol
# Density = 1.898030 g / cm^3
# Si number density = 19.023600 Si / 1000 Ang^3
#
#
#
# Elastic Constant Matrix: (Units=GPa)
#
#
# Indices 1 2 3 4 5 6 
#
# 1 95.1371 19.5906 43.6578 0.0000 0.0000 0.0000
# 2 19.5906 44.1722 57.7399 0.0000 0.0000 0.0000
# 3 43.6578 57.7399 217.2399 0.0000 0.0000 0.0000
# 4 0.0000 0.0000 0.0000 36.7764 0.0000 0.0000
# 5 0.0000 0.0000 0.0000 0.0000 36.9059 0.0000
# 6 0.0000 0.0000 0.0000 0.0000 0.0000 24.2174
#
#
#
# Elastic Compliance Matrix: (Units=1/GPa)
#
#
# Indices 1 2 3 4 5 6 
#
# 1 0.011883 -0.003293 -0.001513 0.000000 0.000000 0.000000
# 2 -0.003293 0.035604 -0.008801 0.000000 0.000000 0.000000
# 3 -0.001513 -0.008801 0.007247 0.000000 0.000000 0.000000
# 4 0.000000 0.000000 0.000000 0.027191 0.000000 0.000000
# 5 0.000000 0.000000 0.000000 0.000000 0.027096 0.000000
# 6 0.000000 0.000000 0.000000 0.000000 0.000000 0.041293
#
#
# Mechanical properties :
#
#
# Convention : Reuss Voigt Hill
#
# Bulk Modulus (GPa) = 36.33760 66.50287 51.42024
# Shear Modulus (GPa) = 26.78082 35.28401 31.03241
#
# Velocity S-wave (km/s) = 3.75609 4.31135 4.04327
# Velocity P-wave (km/s) = 6.16066 7.73419 6.99183
#
# Compressibility (1/GPa) = 0.02751970
#
# Stress axis : x y z
#
# Youngs Moduli (GPa) = 84.15044 28.08701 137.99643
#
# Poissons Ratio (x) = 0.09248 0.20879
# Poissons Ratio (y) = 0.27708 1.21455
# Poissons Ratio (z) = 0.12732 0.24720
#
# Static dielectric constant tensor:
#      x y z
#    x 3.553210 0.000000 0.000000 
#    y 0.000000 3.060290 0.000000 
#    z 0.000000 0.000000 4.247690 
# 
# 
# High freq. dielectric constant tensor:
#      x y z
#    x 1.758880 0.000000 0.000000 
#    y 0.000000 1.679520 0.000000 
#    z 0.000000 0.000000 1.772010 
# 
# From -- ./inp_files/15677.got.cif
#   From: 2010.03.12/outbox.cif.g09.slc.cpg/sg63_8_cif.got.tgz:15677.got - 2010.04.10 19:34:48.
