data_PCOD8256793
_publ_section_title
;
Structure prediction by ZEFSAII (Michael W. Deem and Ramdas Pophale) SiO2 
 PCOD8256793
Probable space group: C M C M
;
_chemical_formula_sum "Si O2"
_cell_formula_units_Z 96
_cell_length_a 9.350423
_cell_length_b 23.692028
_cell_length_c 25.347663
_cell_angle_alpha 90.000000
_cell_angle_beta 90.000000
_cell_angle_gamma 90.000000
_cell_volume 5615.280041
_symmetry_space_group_name_H-M "C M C M"
_symmetry_group_IT_number 63
_symmetry_cell_setting 'orthorhombic'
loop_
_space_group_symop_operation_xyz
x,y,z
-x,-y,1/2+z
x,-y,-z
-x,y,1/2-z
-x,-y,-z
x,y,1/2-z
-x,y,z
x,-y,1/2+z
1/2+x,1/2+y,z
1/2-x,1/2-y,1/2+z
1/2+x,1/2-y,-z
1/2-x,1/2+y,1/2-z
1/2-x,1/2-y,-z
1/2+x,1/2+y,1/2-z
1/2-x,1/2+y,z
1/2+x,1/2-y,1/2+z
loop_
_atom_site_type_symbol
_atom_site_label
_atom_site_fract_x
_atom_site_fract_y
_atom_site_fract_z
Si Si1 0.830958 0.367298 0.403238
Si Si2 0.831433 0.443566 0.309814
Si Si3 0.667665 0.250527 0.554844
Si Si4 0.335243 0.627817 0.407022
Si Si5 0.831048 0.435384 0.503807
Si Si6 0.664495 0.555085 0.190605
O O1 0.774598 0.393729 0.348210
O O2 0.780967 0.302466 0.409537
O O3 0.771121 0.403419 0.452300
O O4 0.000000 0.371157 0.403429
O O5 0.789353 0.426977 0.250000
O O6 0.758445 0.501831 0.327226
O O7 0.000000 0.452733 0.315782
O O8 0.500000 0.245963 0.541810
O O9 0.750000 0.250000 0.500000
O O10 0.705238 0.306348 0.588044
O O11 0.500000 0.618082 0.422512
O O12 0.238855 0.590788 0.444854
O O13 0.303887 0.608242 0.347205
O O14 0.784148 0.500000 0.500000
O O15 0.000000 0.428590 0.509508
O O16 0.704319 0.574052 0.250000
O O17 0.500000 0.536218 0.186754
#
# Coordination Sequence:
#
# PCOD8256793 Si02
#       6
#    16  16  16  16  16  16
#     4   9  17  30  47  69  97 124 154 195 240 282
#     4   9  17  31  52  75  96 122 159 199 237 282
#     4  10  19  33  50  68  94 129 164 197 237 283
#     4  10  20  32  48  71  96 124 162 201 235 280
#     4  10  19  30  47  70  96 127 157 191 242 294
#     4   9  18  33  50  69  97 129 156 190 240 289
#
# _framework density 17.096209000000002
#
# number of rings (size 3 to 8) (size 9 to 14) (size 15 to 20)
#    0.000    2.500    1.667    1.000    0.000    2.333 
#    0.000    2.500    0.000    5.000    0.000    0.000 
#    0.000    6.667    0.000    0.000    0.000    0.000 
#
# Total GULP energy -595141.172453 kJ/mol
# GULP energy per Si atom -12398.774426 kJ/mol
# Density = 1.705730 g / cm^3
# Si number density = 17.096209 Si / 1000 Ang^3
#
#
#
# Elastic Constant Matrix: (Units=GPa)
#
#
# Indices 1 2 3 4 5 6 
#
# 1 26.9016 37.5663 28.9420 0.0000 0.0000 0.0000
# 2 37.5663 165.9097 86.9744 0.0000 0.0000 0.0000
# 3 28.9420 86.9744 122.2470 0.0000 0.0000 0.0000
# 4 0.0000 0.0000 0.0000 29.2474 0.0000 0.0000
# 5 0.0000 0.0000 0.0000 0.0000 23.0665 0.0000
# 6 0.0000 0.0000 0.0000 0.0000 0.0000 6.2718
#
#
#
# Elastic Compliance Matrix: (Units=1/GPa)
#
#
# Indices 1 2 3 4 5 6 
#
# 1 0.057871 -0.009443 -0.006983 0.000000 0.000000 0.000000
# 2 -0.009443 0.011153 -0.005700 0.000000 0.000000 0.000000
# 3 -0.006983 -0.005700 0.013888 0.000000 0.000000 0.000000
# 4 0.000000 0.000000 0.000000 0.034191 0.000000 0.000000
# 5 0.000000 0.000000 0.000000 0.000000 0.043353 0.000000
# 6 0.000000 0.000000 0.000000 0.000000 0.000000 0.159443
#
#
# Mechanical properties :
#
#
# Convention : Reuss Voigt Hill
#
# Bulk Modulus (GPa) = 25.86488 69.11373 47.48930
# Shear Modulus (GPa) = 13.26127 22.48886 17.87507
#
# Velocity S-wave (km/s) = 2.78813 3.63082 3.23702
# Velocity P-wave (km/s) = 5.05240 7.62176 6.46599
#
# Compressibility (1/GPa) = 0.03866247
#
# Stress axis : x y z
#
# Youngs Moduli (GPa) = 17.27973 89.65844 72.00268
#
# Poissons Ratio (x) = 0.84665 0.50276
# Poissons Ratio (y) = 0.16317 0.41039
# Poissons Ratio (z) = 0.12066 0.51102
#
# Static dielectric constant tensor:
#      x y z
#    x 3.033820 0.000000 0.000000 
#    y 0.000000 3.483450 0.000000 
#    z 0.000000 0.000000 3.372090 
# 
# 
# High freq. dielectric constant tensor:
#      x y z
#    x 1.639190 0.000000 0.000000 
#    y 0.000000 1.662110 0.000000 
#    z 0.000000 0.000000 1.661300 
# 
# From -- ./inp_files/59906.got.cif
#   From: 2010.03.12/outbox.cif.g09.slc.cpg/sg63_30_cif.got.tgz:59906.got - 2010.04.10 19:34:48.
