data_PCOD8256079
_publ_section_title
;
Structure prediction by ZEFSAII (Michael W. Deem and Ramdas Pophale) SiO2 
 PCOD8256079
Probable space group: C M C M
;
_chemical_formula_sum "Si O2"
_cell_formula_units_Z 72
_cell_length_a 22.429782
_cell_length_b 19.573658
_cell_length_c 8.575677
_cell_angle_alpha 90.000000
_cell_angle_beta 90.000000
_cell_angle_gamma 90.000000
_cell_volume 3765.004187
_symmetry_space_group_name_H-M "C M C M"
_symmetry_group_IT_number 63
_symmetry_cell_setting 'orthorhombic'
loop_
_space_group_symop_operation_xyz
x,y,z
-x,-y,1/2+z
x,-y,-z
-x,y,1/2-z
-x,-y,-z
x,y,1/2-z
-x,y,z
x,-y,1/2+z
1/2+x,1/2+y,z
1/2-x,1/2-y,1/2+z
1/2+x,1/2-y,-z
1/2-x,1/2+y,1/2-z
1/2-x,1/2-y,-z
1/2+x,1/2+y,1/2-z
1/2-x,1/2+y,z
1/2+x,1/2-y,1/2+z
loop_
_atom_site_type_symbol
_atom_site_label
_atom_site_fract_x
_atom_site_fract_y
_atom_site_fract_z
Si Si1 0.000000 0.075051 0.064902
Si Si2 0.432631 0.805191 0.435624
Si Si3 0.349540 0.073259 0.934949
Si Si4 0.388804 0.339024 0.935156
Si Si5 0.778509 0.073495 0.064829
O O1 0.941957 0.113907 0.000125
O O2 0.000000 0.073196 0.250000
O O3 0.000000 0.000000 0.000000
O O4 0.434468 0.803704 0.250000
O O5 0.500000 0.807089 0.501933
O O6 0.397496 0.871744 0.495224
O O7 0.398284 0.737904 0.498754
O O8 0.346527 0.069655 0.750000
O O9 0.285233 0.095605 0.998328
O O10 0.369401 0.000000 0.000000
O O11 0.390874 0.338710 0.750000
O O12 0.325889 0.369767 0.992810
O O13 0.775056 0.068657 0.250000
O O14 0.798455 0.000000 0.000000
#
# Coordination Sequence:
#
# PCOD8256079 Si02
#       5
#     8  16  16  16  16
#     4  10  18  30  50  74 101 132 168 208 243 286
#     4   9  17  32  53  76 101 130 169 211 250 299
#     4  10  20  34  54  77 100 130 167 210 256 302
#     4   9  17  30  50  75 101 132 169 207 246 291
#     4  10  19  32  51  75 104 136 168 206 249 296
#
# _framework density 19.123484999999999
#
# number of rings (size 3 to 8) (size 9 to 14) (size 15 to 20)
#    0.000    2.444    1.111    3.333    0.000    1.333 
#    0.000    1.111    0.000    8.667    0.000    0.000 
#    0.000    0.000    0.000    0.000    0.000    0.000 
#
# Total GULP energy -446353.484561 kJ/mol
# GULP energy per Si atom -12398.707904 kJ/mol
# Density = 1.907996 g / cm^3
# Si number density = 19.123485 Si / 1000 Ang^3
#
#
#
# Elastic Constant Matrix: (Units=GPa)
#
#
# Indices 1 2 3 4 5 6 
#
# 1 152.1317 117.4939 23.8671 0.0000 0.0000 0.0000
# 2 117.4939 182.7889 24.9071 0.0000 0.0000 0.0000
# 3 23.8671 24.9071 43.6680 0.0000 0.0000 0.0000
# 4 0.0000 0.0000 0.0000 19.2466 0.0000 0.0000
# 5 0.0000 0.0000 0.0000 0.0000 18.1264 0.0000
# 6 0.0000 0.0000 0.0000 0.0000 0.0000 45.3980
#
#
#
# Elastic Compliance Matrix: (Units=1/GPa)
#
#
# Indices 1 2 3 4 5 6 
#
# 1 0.013320 -0.008208 -0.002599 0.000000 0.000000 0.000000
# 2 -0.008208 0.010989 -0.001782 0.000000 0.000000 0.000000
# 3 -0.002599 -0.001782 0.025337 0.000000 0.000000 0.000000
# 4 0.000000 0.000000 0.000000 0.051957 0.000000 0.000000
# 5 0.000000 0.000000 0.000000 0.000000 0.055168 0.000000
# 6 0.000000 0.000000 0.000000 0.000000 0.000000 0.022027
#
#
# Mechanical properties :
#
#
# Convention : Reuss Voigt Hill
#
# Bulk Modulus (GPa) = 40.86762 79.01386 59.94074
# Shear Modulus (GPa) = 23.57018 30.70889 27.13953
#
# Velocity S-wave (km/s) = 3.51454 4.01162 3.77128
# Velocity P-wave (km/s) = 6.15517 7.92873 7.09757
#
# Compressibility (1/GPa) = 0.02446925
#
# Stress axis : x y z
#
# Youngs Moduli (GPa) = 75.07552 90.99650 39.46828
#
# Poissons Ratio (x) = 0.74688 0.10256
# Poissons Ratio (y) = 0.61620 0.07034
# Poissons Ratio (z) = 0.19509 0.16216
#
# Static dielectric constant tensor:
#      x y z
#    x 3.743270 0.000000 0.000000 
#    y 0.000000 3.409750 0.000000 
#    z 0.000000 0.000000 3.111440 
# 
# 
# High freq. dielectric constant tensor:
#      x y z
#    x 1.752270 0.000000 0.000000 
#    y 0.000000 1.751870 0.000000 
#    z 0.000000 0.000000 1.706400 
# 
# From -- ./inp_files/7838.got.cif
#   From: 2010.03.12/outbox.cif.g09.slc.cpg/sg63_4_cif.got.tgz:7838.got - 2010.04.10 19:34:48.
