data_PCOD8256258
_publ_section_title
;
Structure prediction by ZEFSAII (Michael W. Deem and Ramdas Pophale) SiO2 
 PCOD8256258
Probable space group: C M C M
;
_chemical_formula_sum "Si O2"
_cell_formula_units_Z 96
_cell_length_a 10.965293
_cell_length_b 17.729449
_cell_length_c 26.565045
_cell_angle_alpha 90.000000
_cell_angle_beta 90.000000
_cell_angle_gamma 90.000000
_cell_volume 5164.473287
_symmetry_space_group_name_H-M "C M C M"
_symmetry_group_IT_number 63
_symmetry_cell_setting 'orthorhombic'
loop_
_space_group_symop_operation_xyz
x,y,z
-x,-y,1/2+z
x,-y,-z
-x,y,1/2-z
-x,-y,-z
x,y,1/2-z
-x,y,z
x,-y,1/2+z
1/2+x,1/2+y,z
1/2-x,1/2-y,1/2+z
1/2+x,1/2-y,-z
1/2-x,1/2+y,1/2-z
1/2-x,1/2-y,-z
1/2+x,1/2+y,1/2-z
1/2-x,1/2+y,z
1/2+x,1/2-y,1/2+z
loop_
_atom_site_type_symbol
_atom_site_label
_atom_site_fract_x
_atom_site_fract_y
_atom_site_fract_z
Si Si1 0.139621 0.432678 0.611073
Si Si2 0.212113 0.042937 0.546019
Si Si3 0.133141 0.872612 0.361271
Si Si4 0.368841 0.182937 0.977313
Si Si5 0.139276 0.554399 0.808703
Si Si6 0.297682 0.226412 0.083558
O O1 0.183899 0.487252 0.566761
O O2 0.156431 0.473486 0.664790
O O3 0.214101 0.354031 0.611698
O O4 0.000000 0.412240 0.599891
O O5 0.125965 0.069527 0.591422
O O6 0.272140 0.116389 0.521855
O O7 0.142142 0.000000 0.500000
O O8 0.253166 0.889415 0.327424
O O9 0.140893 0.786216 0.378897
O O10 0.000000 0.882226 0.333768
O O11 0.500000 0.150516 0.962197
O O12 0.334951 0.244343 0.934357
O O13 0.376560 0.220466 0.032335
O O14 0.157417 0.541316 0.750000
O O15 0.000000 0.584987 0.820079
#
# Coordination Sequence:
#
# PCOD8256258 Si02
#       6
#    16  16  16  16  16  16
#     4  10  18  31  53  78 106 134 172 225 268 309
#     4  10  19  30  48  76 104 141 189 220 254 296
#     4  10  21  35  52  77 111 146 175 208 260 322
#     4  10  19  31  47  68 106 152 188 220 256 302
#     4   9  20  40  64  84 100 126 172 228 277 320
#     4  10  20  31  46  75 109 142 180 215 259 308
#
# _framework density 18.588535
#
# number of rings (size 3 to 8) (size 9 to 14) (size 15 to 20)
#    0.000    2.167    1.667    2.000    0.000    5.333 
#    0.000    4.167    0.000    2.000    0.000    0.000 
#    0.000    0.000    0.000    0.000    0.000    0.000 
#
# Total GULP energy -594662.186135 kJ/mol
# GULP energy per Si atom -12388.795544 kJ/mol
# Density = 1.854623 g / cm^3
# Si number density = 18.588535 Si / 1000 Ang^3
#
#
#
# Elastic Constant Matrix: (Units=GPa)
#
#
# Indices 1 2 3 4 5 6 
#
# 1 97.7239 30.1723 29.6998 0.0000 0.0000 0.0000
# 2 30.1723 110.4332 34.8846 0.0000 0.0000 0.0000
# 3 29.6998 34.8846 85.6072 0.0000 0.0000 0.0000
# 4 0.0000 0.0000 0.0000 20.6029 0.0000 0.0000
# 5 0.0000 0.0000 0.0000 0.0000 9.2857 0.0000
# 6 0.0000 0.0000 0.0000 0.0000 0.0000 12.3987
#
#
#
# Elastic Compliance Matrix: (Units=1/GPa)
#
#
# Indices 1 2 3 4 5 6 
#
# 1 0.011901 -0.002235 -0.003218 0.000000 0.000000 0.000000
# 2 -0.002235 0.010813 -0.003631 0.000000 0.000000 0.000000
# 3 -0.003218 -0.003631 0.014277 0.000000 0.000000 0.000000
# 4 0.000000 0.000000 0.000000 0.048537 0.000000 0.000000
# 5 0.000000 0.000000 0.000000 0.000000 0.107692 0.000000
# 6 0.000000 0.000000 0.000000 0.000000 0.000000 0.080654
#
#
# Mechanical properties :
#
#
# Convention : Reuss Voigt Hill
#
# Bulk Modulus (GPa) = 53.12562 53.69755 53.41159
# Shear Modulus (GPa) = 16.76076 21.72463 19.24270
#
# Velocity S-wave (km/s) = 3.00604 3.42235 3.22093
# Velocity P-wave (km/s) = 6.37889 6.67584 6.52905
#
# Compressibility (1/GPa) = 0.01882331
#
# Stress axis : x y z
#
# Youngs Moduli (GPa) = 84.02658 92.48284 70.04158
#
# Poissons Ratio (x) = 0.20670 0.22540
# Poissons Ratio (y) = 0.18780 0.25431
# Poissons Ratio (z) = 0.27040 0.33579
#
# Static dielectric constant tensor:
#      x y z
#    x 3.419820 0.000000 0.000000 
#    y 0.000000 3.491310 0.000000 
#    z 0.000000 0.000000 3.260290 
# 
# 
# High freq. dielectric constant tensor:
#      x y z
#    x 1.712020 0.000000 0.000000 
#    y 0.000000 1.722120 0.000000 
#    z 0.000000 0.000000 1.695180 
# 
# From -- ./inp_files/68298.got.cif
#   From: 2010.03.12/outbox.cif.g09.slc.cpg/sg63_35_cif.got.tgz:68298.got - 2010.04.10 19:34:48.
