data_PCOD8256085
_publ_section_title
;
Structure prediction by ZEFSAII (Michael W. Deem and Ramdas Pophale) SiO2 
 PCOD8256085
Probable space group: C M C M
;
_chemical_formula_sum "Si O2"
_cell_formula_units_Z 96
_cell_length_a 9.108648
_cell_length_b 22.605008
_cell_length_c 26.180646
_cell_angle_alpha 90.000000
_cell_angle_beta 90.000000
_cell_angle_gamma 90.000000
_cell_volume 5390.622787
_symmetry_space_group_name_H-M "C M C M"
_symmetry_group_IT_number 63
_symmetry_cell_setting 'orthorhombic'
loop_
_space_group_symop_operation_xyz
x,y,z
-x,-y,1/2+z
x,-y,-z
-x,y,1/2-z
-x,-y,-z
x,y,1/2-z
-x,y,z
x,-y,1/2+z
1/2+x,1/2+y,z
1/2-x,1/2-y,1/2+z
1/2+x,1/2-y,-z
1/2-x,1/2+y,1/2-z
1/2-x,1/2-y,-z
1/2+x,1/2+y,1/2-z
1/2-x,1/2+y,z
1/2+x,1/2-y,1/2+z
loop_
_atom_site_type_symbol
_atom_site_label
_atom_site_fract_x
_atom_site_fract_y
_atom_site_fract_z
Si Si1 0.666395 0.644540 0.750000
Si Si2 0.165639 0.996231 0.250000
Si Si3 0.327983 0.855409 0.149930
Si Si4 0.164240 0.169723 0.462307
Si Si5 0.170440 0.507412 0.649772
Si Si6 0.327545 0.048128 0.457765
Si Si7 0.164164 0.774674 0.427188
O O1 0.500000 0.667910 0.750000
O O2 0.673293 0.574121 0.750000
O O3 0.749897 0.669339 0.799379
O O4 0.243866 0.019656 0.198472
O O5 0.000000 0.020039 0.250000
O O6 0.500000 0.843890 0.154694
O O7 0.291306 0.924049 0.141347
O O8 0.264725 0.820961 0.102129
O O9 0.239733 0.106923 0.470449
O O10 0.154140 0.203445 0.515379
O O11 0.260847 0.209894 0.423891
O O12 0.000000 0.161215 0.439914
O O13 0.218231 0.473712 0.598545
O O14 0.000000 0.499031 0.661630
O O15 0.500000 0.061444 0.461129
O O16 0.281894 0.000000 0.500000
O O17 0.000000 0.770685 0.403610
#
# Coordination Sequence:
#
# PCOD8256085 Si02
#       7
#     8   8  16  16  16  16  16
#     4   9  17  29  45  70 103 132 161 201 248 294
#     4   9  17  29  47  70  97 130 169 211 248 286
#     4  10  18  30  50  75 101 130 166 205 245 289
#     4  10  21  35  51  73  99 129 166 205 245 292
#     4   9  18  31  49  73 102 135 167 202 246 297
#     4  10  20  34  52  75 104 136 167 201 247 302
#     4  10  20  34  52  72  97 130 165 202 246 296
#
# _framework density 17.808703999999999
#
# number of rings (size 3 to 8) (size 9 to 14) (size 15 to 20)
#    0.000    2.333    0.000    3.000    0.000    7.000 
#    0.000    0.000    0.000    1.000    0.000    3.500 
#    0.000    0.000    0.000    0.000    0.000    0.000 
#
# Total GULP energy -595228.589202 kJ/mol
# GULP energy per Si atom -12400.595608 kJ/mol
# Density = 1.776817 g / cm^3
# Si number density = 17.808704 Si / 1000 Ang^3
#
#
#
# Elastic Constant Matrix: (Units=GPa)
#
#
# Indices 1 2 3 4 5 6 
#
# 1 103.9012 44.7275 30.2079 0.0000 0.0000 0.0000
# 2 44.7275 73.8587 14.5228 0.0000 0.0000 0.0000
# 3 30.2079 14.5228 63.6556 0.0000 0.0000 0.0000
# 4 0.0000 0.0000 0.0000 19.1510 0.0000 0.0000
# 5 0.0000 0.0000 0.0000 0.0000 31.3088 0.0000
# 6 0.0000 0.0000 0.0000 0.0000 0.0000 24.5323
#
#
#
# Elastic Compliance Matrix: (Units=1/GPa)
#
#
# Indices 1 2 3 4 5 6 
#
# 1 0.014436 -0.007742 -0.005084 0.000000 0.000000 0.000000
# 2 -0.007742 0.018328 -0.000507 0.000000 0.000000 0.000000
# 3 -0.005084 -0.000507 0.018238 0.000000 0.000000 0.000000
# 4 0.000000 0.000000 0.000000 0.052217 0.000000 0.000000
# 5 0.000000 0.000000 0.000000 0.000000 0.031940 0.000000
# 6 0.000000 0.000000 0.000000 0.000000 0.000000 0.040763
#
#
# Mechanical properties :
#
#
# Convention : Reuss Voigt Hill
#
# Bulk Modulus (GPa) = 41.09484 46.70355 43.89919
# Shear Modulus (GPa) = 23.73057 25.12891 24.42974
#
# Velocity S-wave (km/s) = 3.65434 3.76047 3.70778
# Velocity P-wave (km/s) = 6.39776 6.71840 6.56004
#
# Compressibility (1/GPa) = 0.02433396
#
# Stress axis : x y z
#
# Youngs Moduli (GPa) = 69.27354 54.56231 54.83081
#
# Poissons Ratio (x) = 0.42243 0.27876
# Poissons Ratio (y) = 0.53633 0.02782
# Poissons Ratio (z) = 0.35219 0.02768
#
# Static dielectric constant tensor:
#      x y z
#    x 3.540770 0.000000 0.000000 
#    y 0.000000 3.028970 0.000000 
#    z 0.000000 0.000000 3.355260 
# 
# 
# High freq. dielectric constant tensor:
#      x y z
#    x 1.703020 0.000000 0.000000 
#    y 0.000000 1.658730 0.000000 
#    z 0.000000 0.000000 1.684760 
# 
# From -- ./inp_files/67271.got.cif
#   From: 2010.03.12/outbox.cif.g09.slc.cpg/sg63_34_cif.got.tgz:67271.got - 2010.04.10 19:34:48.
