data_PCOD8256955
_publ_section_title
;
Structure prediction by ZEFSAII (Michael W. Deem and Ramdas Pophale) SiO2 
 PCOD8256955
Probable space group: C M C M
;
_chemical_formula_sum "Si O2"
_cell_formula_units_Z 96
_cell_length_a 18.275585
_cell_length_b 10.472063
_cell_length_c 25.114736
_cell_angle_alpha 90.000000
_cell_angle_beta 90.000000
_cell_angle_gamma 90.000000
_cell_volume 4806.535466
_symmetry_space_group_name_H-M "C M C M"
_symmetry_group_IT_number 63
_symmetry_cell_setting 'orthorhombic'
loop_
_space_group_symop_operation_xyz
x,y,z
-x,-y,1/2+z
x,-y,-z
-x,y,1/2-z
-x,-y,-z
x,y,1/2-z
-x,y,z
x,-y,1/2+z
1/2+x,1/2+y,z
1/2-x,1/2-y,1/2+z
1/2+x,1/2-y,-z
1/2-x,1/2+y,1/2-z
1/2-x,1/2-y,-z
1/2+x,1/2+y,1/2-z
1/2-x,1/2+y,z
1/2+x,1/2-y,1/2+z
loop_
_atom_site_type_symbol
_atom_site_label
_atom_site_fract_x
_atom_site_fract_y
_atom_site_fract_z
Si Si1 0.311021 0.797882 0.691674
Si Si2 0.418449 0.069667 0.908292
Si Si3 0.142703 0.303380 0.580024
Si Si4 0.781958 0.949388 0.556561
Si Si5 0.916930 0.190474 0.479881
Si Si6 0.722114 0.071149 0.654913
O O1 0.349358 0.790388 0.750000
O O2 0.368344 0.771810 0.643239
O O3 0.249067 0.687930 0.690556
O O4 0.273251 0.936992 0.686306
O O5 0.500000 0.076335 0.884073
O O6 0.409993 0.168957 0.956257
O O7 0.361933 0.099546 0.860896
O O8 0.403031 0.930965 0.933322
O O9 0.229735 0.329560 0.572032
O O10 0.113870 0.192573 0.540826
O O11 0.866725 0.906389 0.553801
O O12 0.753862 0.000000 0.500000
O O13 0.772538 0.059743 0.601245
O O14 0.000000 0.139019 0.479088
#
# Coordination Sequence:
#
# PCOD8256955 Si02
#       6
#    16  16  16  16  16  16
#     4  10  20  35  55  77 102 133 176 226 267 304
#     4   9  17  30  49  77 110 140 170 209 263 322
#     4  10  19  31  51  75 103 137 174 217 261 309
#     4  10  19  31  48  71 103 139 172 210 257 316
#     4  11  20  30  48  75 108 142 173 210 261 322
#     4  10  20  34  56  82 108 138 174 220 266 313
#
# _framework density 19.972804
#
# number of rings (size 3 to 8) (size 9 to 14) (size 15 to 20)
#    0.000    2.333    0.000    7.000    0.000    1.667 
#    0.000    0.000    0.000   18.000    0.000    0.000 
#    0.000   24.000    0.000    0.000    0.000    0.000 
#
# Total GULP energy -594982.364949 kJ/mol
# GULP energy per Si atom -12395.465936 kJ/mol
# Density = 1.992735 g / cm^3
# Si number density = 19.972804 Si / 1000 Ang^3
#
#
#
# Elastic Constant Matrix: (Units=GPa)
#
#
# Indices 1 2 3 4 5 6 
#
# 1 127.7304 26.1703 44.4792 0.0000 0.0000 0.0000
# 2 26.1703 66.8352 31.6049 0.0000 0.0000 0.0000
# 3 44.4792 31.6049 122.7392 0.0000 0.0000 0.0000
# 4 0.0000 0.0000 0.0000 14.5167 0.0000 0.0000
# 5 0.0000 0.0000 0.0000 0.0000 17.9520 0.0000
# 6 0.0000 0.0000 0.0000 0.0000 0.0000 20.5093
#
#
#
# Elastic Compliance Matrix: (Units=1/GPa)
#
#
# Indices 1 2 3 4 5 6 
#
# 1 0.009266 -0.002323 -0.002760 0.000000 0.000000 0.000000
# 2 -0.002323 0.017619 -0.003695 0.000000 0.000000 0.000000
# 3 -0.002760 -0.003695 0.010099 0.000000 0.000000 0.000000
# 4 0.000000 0.000000 0.000000 0.068886 0.000000 0.000000
# 5 0.000000 0.000000 0.000000 0.000000 0.055704 0.000000
# 6 0.000000 0.000000 0.000000 0.000000 0.000000 0.048758
#
#
# Mechanical properties :
#
#
# Convention : Reuss Voigt Hill
#
# Bulk Modulus (GPa) = 51.47135 57.97928 54.72531
# Shear Modulus (GPa) = 21.33428 24.93229 23.13329
#
# Velocity S-wave (km/s) = 3.27183 3.53698 3.40698
# Velocity P-wave (km/s) = 6.33244 6.76553 6.55257
#
# Compressibility (1/GPa) = 0.01942828
#
# Stress axis : x y z
#
# Youngs Moduli (GPa) = 107.92171 56.75644 99.02121
#
# Poissons Ratio (x) = 0.13186 0.27326
# Poissons Ratio (y) = 0.25073 0.36588
# Poissons Ratio (z) = 0.29783 0.20971
#
# Static dielectric constant tensor:
#      x y z
#    x 3.492870 0.000000 0.000000 
#    y 0.000000 3.608210 0.000000 
#    z 0.000000 0.000000 3.576420 
# 
# 
# High freq. dielectric constant tensor:
#      x y z
#    x 1.751630 0.000000 0.000000 
#    y 0.000000 1.786980 0.000000 
#    z 0.000000 0.000000 1.760480 
# 
# From -- ./inp_files/63679.got.cif
#   From: 2010.03.12/outbox.cif.g09.slc.cpg/sg63_32_cif.got.tgz:63679.got - 2010.04.10 19:34:48.
