data_PCOD8256854
_publ_section_title
;
Structure prediction by ZEFSAII (Michael W. Deem and Ramdas Pophale) SiO2 
 PCOD8256854
Probable space group: C M C M
;
_chemical_formula_sum "Si O2"
_cell_formula_units_Z 112
_cell_length_a 12.924282
_cell_length_b 17.853016
_cell_length_c 29.145201
_cell_angle_alpha 90.000000
_cell_angle_beta 90.000000
_cell_angle_gamma 90.000000
_cell_volume 6724.888290
_symmetry_space_group_name_H-M "C M C M"
_symmetry_group_IT_number 63
_symmetry_cell_setting 'orthorhombic'
loop_
_space_group_symop_operation_xyz
x,y,z
-x,-y,1/2+z
x,-y,-z
-x,y,1/2-z
-x,-y,-z
x,y,1/2-z
-x,y,z
x,-y,1/2+z
1/2+x,1/2+y,z
1/2-x,1/2-y,1/2+z
1/2+x,1/2-y,-z
1/2-x,1/2+y,1/2-z
1/2-x,1/2-y,-z
1/2+x,1/2+y,1/2-z
1/2-x,1/2+y,z
1/2+x,1/2-y,1/2+z
loop_
_atom_site_type_symbol
_atom_site_label
_atom_site_fract_x
_atom_site_fract_y
_atom_site_fract_z
Si Si1 0.377649 0.648181 0.200115
Si Si2 0.378313 0.583639 0.106828
Si Si3 0.317616 0.265472 0.935402
Si Si4 0.382310 0.301671 0.034756
Si Si5 0.115752 0.378292 0.107378
Si Si6 0.123120 0.683719 0.699241
Si Si7 0.784339 0.957001 0.453215
O O1 0.335945 0.620402 0.250000
O O2 0.500000 0.654297 0.202076
O O3 0.345900 0.588678 0.160628
O O4 0.333952 0.731899 0.189786
O O5 0.500000 0.593725 0.099680
O O6 0.319532 0.650594 0.082090
O O7 0.342771 0.506737 0.084363
O O8 0.198469 0.237298 0.930687
O O9 0.389296 0.209082 0.906959
O O10 0.362960 0.262402 0.986364
O O11 0.500000 0.287963 0.051117
O O12 0.361113 0.390549 0.032251
O O13 0.161509 0.374881 0.159789
O O14 0.181926 0.426821 0.071804
O O15 0.000000 0.411881 0.106515
O O16 0.160122 0.656855 0.750000
O O17 0.000000 0.685640 0.697025
O O18 0.753162 0.000000 0.500000
#
# Coordination Sequence:
#
# PCOD8256854 Si02
#       7
#    16  16  16  16  16  16  16
#     4   8  14  25  45  73  97 116 146 192 246 291
#     4  11  19  31  50  70  97 128 157 199 243 278
#     4  10  19  30  50  74  89 118 168 200 235 285
#     4  10  20  34  48  66  96 129 162 203 237 272
#     4  10  19  33  49  68  97 127 155 200 249 282
#     4   8  13  24  46  73  93 113 147 193 244 289
#     4  11  23  33  44  68  97 132 171 194 227 294
#
# _framework density 16.654551999999999
#
# number of rings (size 3 to 8) (size 9 to 14) (size 15 to 20)
#    0.000    2.286    2.857    2.571    0.000    0.857 
#    0.000    1.429    0.000    0.000    0.000    0.000 
#    0.000   11.429    0.000    0.000    0.000    0.000 
#
# Total GULP energy -693883.557865 kJ/mol
# GULP energy per Si atom -12390.777819 kJ/mol
# Density = 1.661665 g / cm^3
# Si number density = 16.654552 Si / 1000 Ang^3
#
#
#
# Elastic Constant Matrix: (Units=GPa)
#
#
# Indices 1 2 3 4 5 6 
#
# 1 70.7202 27.5405 30.0995 0.0000 0.0000 0.0000
# 2 27.5405 55.8037 25.5461 0.0000 0.0000 0.0000
# 3 30.0995 25.5461 108.2954 0.0000 0.0000 0.0000
# 4 0.0000 0.0000 0.0000 19.6884 0.0000 0.0000
# 5 0.0000 0.0000 0.0000 0.0000 15.0860 0.0000
# 6 0.0000 0.0000 0.0000 0.0000 0.0000 14.0351
#
#
#
# Elastic Compliance Matrix: (Units=1/GPa)
#
#
# Indices 1 2 3 4 5 6 
#
# 1 0.018532 -0.007610 -0.003356 0.000000 0.000000 0.000000
# 2 -0.007610 0.023214 -0.003361 0.000000 0.000000 0.000000
# 3 -0.003356 -0.003361 0.010960 0.000000 0.000000 0.000000
# 4 0.000000 0.000000 0.000000 0.050791 0.000000 0.000000
# 5 0.000000 0.000000 0.000000 0.000000 0.066287 0.000000
# 6 0.000000 0.000000 0.000000 0.000000 0.000000 0.071250
#
#
# Mechanical properties :
#
#
# Convention : Reuss Voigt Hill
#
# Bulk Modulus (GPa) = 41.57529 44.57682 43.07606
# Shear Modulus (GPa) = 18.00478 19.87077 18.93777
#
# Velocity S-wave (km/s) = 3.29153 3.45789 3.37574
# Velocity P-wave (km/s) = 6.28197 6.53960 6.41208
#
# Compressibility (1/GPa) = 0.02405275
#
# Stress axis : x y z
#
# Youngs Moduli (GPa) = 53.96100 43.07706 91.24496
#
# Poissons Ratio (x) = 0.32781 0.30619
# Poissons Ratio (y) = 0.41063 0.30668
# Poissons Ratio (z) = 0.18107 0.14478
#
# Static dielectric constant tensor:
#      x y z
#    x 2.846060 0.000000 0.000000 
#    y 0.000000 3.036930 0.000000 
#    z 0.000000 0.000000 3.642080 
# 
# 
# High freq. dielectric constant tensor:
#      x y z
#    x 1.603060 0.000000 0.000000 
#    y 0.000000 1.622930 0.000000 
#    z 0.000000 0.000000 1.654880 
# 
# From -- ./inp_files/73530.got.cif
#   From: 2010.03.12/outbox.cif.g09.slc.cpg/sg63_37_cif.got.tgz:73530.got - 2010.04.10 19:34:48.
