data_PCOD8256743
_publ_section_title
;
Structure prediction by ZEFSAII (Michael W. Deem and Ramdas Pophale) SiO2 
 PCOD8256743
Probable space group: C M C M
;
_chemical_formula_sum "Si O2"
_cell_formula_units_Z 88
_cell_length_a 19.972407
_cell_length_b 27.346423
_cell_length_c 9.256466
_cell_angle_alpha 90.000000
_cell_angle_beta 90.000000
_cell_angle_gamma 90.000000
_cell_volume 5055.640044
_symmetry_space_group_name_H-M "C M C M"
_symmetry_group_IT_number 63
_symmetry_cell_setting 'orthorhombic'
loop_
_space_group_symop_operation_xyz
x,y,z
-x,-y,1/2+z
x,-y,-z
-x,y,1/2-z
-x,-y,-z
x,y,1/2-z
-x,y,z
x,-y,1/2+z
1/2+x,1/2+y,z
1/2-x,1/2-y,1/2+z
1/2+x,1/2-y,-z
1/2-x,1/2+y,1/2-z
1/2-x,1/2-y,-z
1/2+x,1/2+y,1/2-z
1/2-x,1/2+y,z
1/2+x,1/2-y,1/2+z
loop_
_atom_site_type_symbol
_atom_site_label
_atom_site_fract_x
_atom_site_fract_y
_atom_site_fract_z
Si Si1 0.272868 0.643292 0.581591
Si Si2 0.373029 0.825947 0.085340
Si Si3 0.500000 0.450983 0.085087
Si Si4 0.854929 0.949232 0.082011
Si Si5 0.369114 0.287627 0.919402
Si Si6 0.000000 0.212444 0.914201
Si Si7 0.500000 0.171177 0.411561
O O1 0.289048 0.653993 0.750000
O O2 0.193511 0.642987 0.553153
O O3 0.300532 0.590528 0.532262
O O4 0.304987 0.685304 0.483914
O O5 0.396322 0.831226 0.250000
O O6 0.358107 0.769502 0.049885
O O7 0.432991 0.847946 0.989504
O O8 0.500000 0.466476 0.250000
O O9 0.428941 0.424704 0.049208
O O10 0.500000 0.500000 0.000000
O O11 0.846788 0.961245 0.250000
O O12 0.842891 0.000000 0.000000
O O13 0.376464 0.298876 0.750000
O O14 0.435049 0.307212 0.001772
O O15 0.000000 0.191696 0.750000
O O16 0.000000 0.270584 0.914848
O O17 0.500000 0.150369 0.250000
#
# Coordination Sequence:
#
# PCOD8256743 Si02
#       7
#    16  16   8  16  16   8   8
#     4  10  20  32  47  69  95 126 159 190 233 287
#     4   9  18  32  48  67  95 127 157 190 231 279
#     4   8  14  27  46  65  85 113 148 187 224 259
#     4   9  18  32  49  68  91 120 157 196 234 275
#     4  10  19  30  45  67  95 126 160 198 233 269
#     4   9  17  30  46  63  89 127 164 197 232 273
#     4   9  17  29  48  70  90 118 158 196 231 274
#
# _framework density 17.406300999999999
#
# number of rings (size 3 to 8) (size 9 to 14) (size 15 to 20)
#    0.000    2.727    0.000    1.636    0.000    5.091 
#    0.000    1.818    0.000    2.182    0.000    0.636 
#    0.000    0.000    0.000    0.000    0.000    0.000 
#
# Total GULP energy -545383.499144 kJ/mol
# GULP energy per Si atom -12395.079526 kJ/mol
# Density = 1.736668 g / cm^3
# Si number density = 17.406301 Si / 1000 Ang^3
#
#
#
# Elastic Constant Matrix: (Units=GPa)
#
#
# Indices 1 2 3 4 5 6 
#
# 1 140.9715 53.1050 63.3735 0.0000 0.0000 0.0000
# 2 53.1050 56.5124 32.3714 0.0000 0.0000 0.0000
# 3 63.3735 32.3714 84.5040 0.0000 0.0000 0.0000
# 4 0.0000 0.0000 0.0000 17.8890 0.0000 0.0000
# 5 0.0000 0.0000 0.0000 0.0000 30.0505 0.0000
# 6 0.0000 0.0000 0.0000 0.0000 0.0000 14.6517
#
#
#
# Elastic Compliance Matrix: (Units=1/GPa)
#
#
# Indices 1 2 3 4 5 6 
#
# 1 0.013404 -0.008760 -0.006697 0.000000 0.000000 0.000000
# 2 -0.008760 0.028395 -0.004308 0.000000 0.000000 0.000000
# 3 -0.006697 -0.004308 0.018506 0.000000 0.000000 0.000000
# 4 0.000000 0.000000 0.000000 0.055900 0.000000 0.000000
# 5 0.000000 0.000000 0.000000 0.000000 0.033277 0.000000
# 6 0.000000 0.000000 0.000000 0.000000 0.000000 0.068251
#
#
# Mechanical properties :
#
#
# Convention : Reuss Voigt Hill
#
# Bulk Modulus (GPa) = 48.13237 64.40975 56.27106
# Shear Modulus (GPa) = 18.92595 21.39410 20.16002
#
# Velocity S-wave (km/s) = 3.30101 3.50966 3.40693
# Velocity P-wave (km/s) = 6.49932 7.31489 6.91913
#
# Compressibility (1/GPa) = 0.02077604
#
# Stress axis : x y z
#
# Youngs Moduli (GPa) = 74.60482 35.21807 54.03631
#
# Poissons Ratio (x) = 0.30850 0.36186
# Poissons Ratio (y) = 0.65353 0.23278
# Poissons Ratio (z) = 0.49960 0.15171
#
# Static dielectric constant tensor:
#      x y z
#    x 3.739440 0.000000 0.000000 
#    y 0.000000 2.785620 0.000000 
#    z 0.000000 0.000000 3.310140 
# 
# 
# High freq. dielectric constant tensor:
#      x y z
#    x 1.680190 0.000000 0.000000 
#    y 0.000000 1.623420 0.000000 
#    z 0.000000 0.000000 1.677870 
# 
# From -- ./inp_files/6933.got.cif
#   From: 2010.03.12/outbox.cif.g09.slc.cpg/sg63_4_cif.got.tgz:6933.got - 2010.04.10 19:34:48.
