data_PCOD8256661
_publ_section_title
;
Structure prediction by ZEFSAII (Michael W. Deem and Ramdas Pophale) SiO2 
 PCOD8256661
Probable space group: C M C M
;
_chemical_formula_sum "Si O2"
_cell_formula_units_Z 96
_cell_length_a 9.111534
_cell_length_b 29.928223
_cell_length_c 20.563798
_cell_angle_alpha 90.000000
_cell_angle_beta 90.000000
_cell_angle_gamma 90.000000
_cell_volume 5607.583645
_symmetry_space_group_name_H-M "C M C M"
_symmetry_group_IT_number 63
_symmetry_cell_setting 'orthorhombic'
loop_
_space_group_symop_operation_xyz
x,y,z
-x,-y,1/2+z
x,-y,-z
-x,y,1/2-z
-x,-y,-z
x,y,1/2-z
-x,y,z
x,-y,1/2+z
1/2+x,1/2+y,z
1/2-x,1/2-y,1/2+z
1/2+x,1/2-y,-z
1/2-x,1/2+y,1/2-z
1/2-x,1/2-y,-z
1/2+x,1/2+y,1/2-z
1/2-x,1/2+y,z
1/2+x,1/2-y,1/2+z
loop_
_atom_site_type_symbol
_atom_site_label
_atom_site_fract_x
_atom_site_fract_y
_atom_site_fract_z
Si Si1 0.165907 0.990300 0.178955
Si Si2 0.668583 0.313977 0.179408
Si Si3 0.168291 0.619568 0.507865
Si Si4 0.665606 0.902482 0.345726
Si Si5 0.827797 0.961309 0.550565
Si Si6 0.673850 0.289763 0.037976
O O1 0.175984 0.013941 0.250000
O O2 0.262523 0.946383 0.182675
O O3 0.000000 0.975339 0.162813
O O4 0.218405 0.023973 0.123107
O O5 0.692778 0.289008 0.250000
O O6 0.500000 0.327438 0.170566
O O7 0.757597 0.359345 0.183341
O O8 0.714546 0.285312 0.115443
O O9 0.176934 0.595795 0.577017
O O10 0.238676 0.584389 0.458387
O O11 0.262819 0.664696 0.508088
O O12 0.000000 0.630517 0.488330
O O13 0.500000 0.900885 0.321252
O O14 0.000000 0.950993 0.543236
O O15 0.780209 0.000000 0.500000
O O16 0.500000 0.288070 0.026516
O O17 0.750000 0.250000 0.000000
#
# Coordination Sequence:
#
# PCOD8256661 Si02
#       6
#    16  16  16  16  16  16
#     4  10  20  32  46  66  96 133 170 209 252 297
#     4   9  18  32  50  72 100 134 166 197 241 300
#     4  10  20  33  51  75 102 132 168 209 252 296
#     4  10  19  29  44  70 102 132 163 201 245 294
#     4  10  19  32  51  72  96 131 174 210 244 293
#     4  10  20  35  56  79 105 133 166 208 254 302
#
# _framework density 17.119672999999999
#
# number of rings (size 3 to 8) (size 9 to 14) (size 15 to 20)
#    0.000    2.167    1.667    2.000    0.000    5.667 
#    0.000    0.000    0.000    1.000    0.000    0.000 
#    0.000    0.000    0.000    0.000    0.000    0.000 
#
# Total GULP energy -594975.693671 kJ/mol
# GULP energy per Si atom -12395.326951 kJ/mol
# Density = 1.708071 g / cm^3
# Si number density = 17.119673 Si / 1000 Ang^3
#
#
#
# Elastic Constant Matrix: (Units=GPa)
#
#
# Indices 1 2 3 4 5 6 
#
# 1 80.4452 47.9633 49.1721 0.0000 0.0000 0.0000
# 2 47.9633 90.5291 67.1432 0.0000 0.0000 0.0000
# 3 49.1721 67.1432 134.5280 0.0000 0.0000 0.0000
# 4 0.0000 0.0000 0.0000 18.7664 0.0000 0.0000
# 5 0.0000 0.0000 0.0000 0.0000 17.0380 0.0000
# 6 0.0000 0.0000 0.0000 0.0000 0.0000 31.3078
#
#
#
# Elastic Compliance Matrix: (Units=1/GPa)
#
#
# Indices 1 2 3 4 5 6 
#
# 1 0.018921 -0.007772 -0.003037 0.000000 0.000000 0.000000
# 2 -0.007772 0.020731 -0.007506 0.000000 0.000000 0.000000
# 3 -0.003037 -0.007506 0.012290 0.000000 0.000000 0.000000
# 4 0.000000 0.000000 0.000000 0.053287 0.000000 0.000000
# 5 0.000000 0.000000 0.000000 0.000000 0.058692 0.000000
# 6 0.000000 0.000000 0.000000 0.000000 0.000000 0.031941
#
#
# Mechanical properties :
#
#
# Convention : Reuss Voigt Hill
#
# Bulk Modulus (GPa) = 65.30993 70.45104 67.88048
# Shear Modulus (GPa) = 21.04415 22.83735 21.94075
#
# Velocity S-wave (km/s) = 3.50985 3.65634 3.58384
# Velocity P-wave (km/s) = 7.39306 7.68547 7.54068
#
# Compressibility (1/GPa) = 0.01531161
#
# Stress axis : x y z
#
# Youngs Moduli (GPa) = 52.85115 48.23690 81.36926
#
# Poissons Ratio (x) = 0.37491 0.24710
# Poissons Ratio (y) = 0.41077 0.61076
# Poissons Ratio (z) = 0.16050 0.36207
#
# Static dielectric constant tensor:
#      x y z
#    x 3.289390 0.000000 0.000000 
#    y 0.000000 2.883700 0.000000 
#    z 0.000000 0.000000 3.531370 
# 
# 
# High freq. dielectric constant tensor:
#      x y z
#    x 1.669360 0.000000 0.000000 
#    y 0.000000 1.622870 0.000000 
#    z 0.000000 0.000000 1.668490 
# 
# From -- ./inp_files/51247.got.cif
#   From: 2010.03.12/outbox.cif.g09.slc.cpg/sg63_26_cif.got.tgz:51247.got - 2010.04.10 19:34:48.
