data_PCOD8256802
_publ_section_title
;
Structure prediction by ZEFSAII (Michael W. Deem and Ramdas Pophale) SiO2 
 PCOD8256802
Probable space group: C M C M
;
_chemical_formula_sum "Si O2"
_cell_formula_units_Z 88
_cell_length_a 28.809558
_cell_length_b 19.922500
_cell_length_c 9.124535
_cell_angle_alpha 90.000000
_cell_angle_beta 90.000000
_cell_angle_gamma 90.000000
_cell_volume 5237.103685
_symmetry_space_group_name_H-M "C M C M"
_symmetry_group_IT_number 63
_symmetry_cell_setting 'orthorhombic'
loop_
_space_group_symop_operation_xyz
x,y,z
-x,-y,1/2+z
x,-y,-z
-x,y,1/2-z
-x,-y,-z
x,y,1/2-z
-x,y,z
x,-y,1/2+z
1/2+x,1/2+y,z
1/2-x,1/2-y,1/2+z
1/2+x,1/2-y,-z
1/2-x,1/2+y,1/2-z
1/2-x,1/2-y,-z
1/2+x,1/2+y,1/2-z
1/2-x,1/2+y,z
1/2+x,1/2-y,1/2+z
loop_
_atom_site_type_symbol
_atom_site_label
_atom_site_fract_x
_atom_site_fract_y
_atom_site_fract_z
Si Si1 0.500000 0.070460 0.580710
Si Si2 0.393071 0.565072 0.085060
Si Si3 0.051512 0.302754 0.085157
Si Si4 0.719208 0.304086 0.421053
Si Si5 0.111179 0.198998 0.920227
Si Si6 0.782740 0.063738 0.415061
O O1 0.500000 0.052063 0.750000
O O2 0.454521 0.117334 0.545154
O O3 0.500000 0.000000 0.500000
O O4 0.413277 0.565624 0.250000
O O5 0.337964 0.560241 0.089161
O O6 0.413267 0.500000 0.000000
O O7 0.408248 0.633670 0.004718
O O8 0.071614 0.295026 0.250000
O O9 0.000000 0.269569 0.077903
O O10 0.085324 0.266151 0.972224
O O11 0.730584 0.305787 0.250000
O O12 0.750000 0.250000 0.500000
O O13 0.665314 0.289476 0.451389
O O14 0.734727 0.373580 0.492340
O O15 0.101433 0.186999 0.750000
O O16 0.762779 0.066709 0.250000
O O17 0.762142 0.000000 0.500000
#
# Coordination Sequence:
#
# PCOD8256802 Si02
#       6
#     8  16  16  16  16  16
#     4   8  16  30  50  76 101 124 155 194 234 284
#     4   9  16  26  42  64  91 122 157 196 234 274
#     4   8  17  32  49  72  99 126 156 191 236 289
#     4  10  20  32  46  68  96 126 162 202 243 289
#     4  10  19  30  47  71  97 125 160 201 242 287
#     4   9  16  27  44  65  88 117 153 194 237 278
#
# _framework density 16.803180999999999
#
# number of rings (size 3 to 8) (size 9 to 14) (size 15 to 20)
#    0.545    2.364    0.000    2.182    0.000    7.636 
#    0.000    0.000    0.000    1.636    0.000    2.545 
#    0.000    0.000    0.000    0.000    0.000    0.000 
#
# Total GULP energy -545266.870001 kJ/mol
# GULP energy per Si atom -12392.428864 kJ/mol
# Density = 1.676494 g / cm^3
# Si number density = 16.803181 Si / 1000 Ang^3
#
#
#
# Elastic Constant Matrix: (Units=GPa)
#
#
# Indices 1 2 3 4 5 6 
#
# 1 29.1426 42.6731 38.1014 0.0000 0.0000 0.0000
# 2 42.6731 158.3052 88.2803 0.0000 0.0000 0.0000
# 3 38.1014 88.2803 141.2972 0.0000 0.0000 0.0000
# 4 0.0000 0.0000 0.0000 40.8462 0.0000 0.0000
# 5 0.0000 0.0000 0.0000 0.0000 21.8015 0.0000
# 6 0.0000 0.0000 0.0000 0.0000 0.0000 21.0125
#
#
#
# Elastic Compliance Matrix: (Units=1/GPa)
#
#
# Indices 1 2 3 4 5 6 
#
# 1 0.064863 -0.011865 -0.010078 0.000000 0.000000 0.000000
# 2 -0.011865 0.011865 -0.004214 0.000000 0.000000 0.000000
# 3 -0.010078 -0.004214 0.012427 0.000000 0.000000 0.000000
# 4 0.000000 0.000000 0.000000 0.024482 0.000000 0.000000
# 5 0.000000 0.000000 0.000000 0.000000 0.045868 0.000000
# 6 0.000000 0.000000 0.000000 0.000000 0.000000 0.047591
#
#
# Mechanical properties :
#
#
# Convention : Reuss Voigt Hill
#
# Bulk Modulus (GPa) = 27.14202 74.09495 50.61849
# Shear Modulus (GPa) = 18.40333 27.37806 22.89070
#
# Velocity S-wave (km/s) = 3.31301 4.04088 3.69492
# Velocity P-wave (km/s) = 5.55182 8.12177 6.95650
#
# Compressibility (1/GPa) = 0.03684324
#
# Stress axis : x y z
#
# Youngs Moduli (GPa) = 15.41710 84.28164 80.46706
#
# Poissons Ratio (x) = 0.99997 0.81093
# Poissons Ratio (y) = 0.18292 0.33906
# Poissons Ratio (z) = 0.15537 0.35514
#
# Static dielectric constant tensor:
#      x y z
#    x 2.230510 0.000000 0.000000 
#    y 0.000000 3.204770 0.000000 
#    z 0.000000 0.000000 3.275960 
# 
# 
# High freq. dielectric constant tensor:
#      x y z
#    x 1.589120 0.000000 0.000000 
#    y 0.000000 1.652920 0.000000 
#    z 0.000000 0.000000 1.664340 
# 
# From -- ./inp_files/14396.got.cif
#   From: 2010.03.12/outbox.cif.g09.slc.cpg/sg63_8_cif.got.tgz:14396.got - 2010.04.10 19:34:48.
