data_PCOD8256567
_publ_section_title
;
Structure prediction by ZEFSAII (Michael W. Deem and Ramdas Pophale) SiO2 
 PCOD8256567
Probable space group: C M C M
;
_chemical_formula_sum "Si O2"
_cell_formula_units_Z 88
_cell_length_a 11.583931
_cell_length_b 14.904545
_cell_length_c 23.390871
_cell_angle_alpha 90.000000
_cell_angle_beta 90.000000
_cell_angle_gamma 90.000000
_cell_volume 4038.509217
_symmetry_space_group_name_H-M "C M C M"
_symmetry_group_IT_number 63
_symmetry_cell_setting 'orthorhombic'
loop_
_space_group_symop_operation_xyz
x,y,z
-x,-y,1/2+z
x,-y,-z
-x,y,1/2-z
-x,-y,-z
x,y,1/2-z
-x,y,z
x,-y,1/2+z
1/2+x,1/2+y,z
1/2-x,1/2-y,1/2+z
1/2+x,1/2-y,-z
1/2-x,1/2+y,1/2-z
1/2-x,1/2-y,-z
1/2+x,1/2+y,1/2-z
1/2-x,1/2+y,z
1/2+x,1/2-y,1/2+z
loop_
_atom_site_type_symbol
_atom_site_label
_atom_site_fract_x
_atom_site_fract_y
_atom_site_fract_z
Si Si1 0.232360 0.516837 0.813352
Si Si2 0.767401 0.156753 0.375176
Si Si3 0.500000 0.696532 0.318004
Si Si4 0.364141 0.662684 0.616368
Si Si5 0.500000 0.099381 0.837503
Si Si6 0.000000 0.409362 0.466625
Si Si7 0.247677 0.607227 0.502563
O O1 0.279811 0.492714 0.750000
O O2 0.199147 0.429144 0.850616
O O3 0.325666 0.578342 0.845566
O O4 0.113443 0.569714 0.804223
O O5 0.699520 0.247980 0.360502
O O6 0.786723 0.149597 0.442926
O O7 0.888262 0.147439 0.342501
O O8 0.500000 0.695296 0.250000
O O9 0.500000 0.794749 0.343775
O O10 0.500000 0.677210 0.622762
O O11 0.334212 0.643752 0.550438
O O12 0.500000 0.061096 0.901184
O O13 0.000000 0.500000 0.500000
O O14 0.117817 0.356686 0.482796
O O15 0.252374 0.500000 0.500000
#
# Coordination Sequence:
#
# PCOD8256567 Si02
#       7
#    16  16   8  16   8   8  16
#     4  12  26  47  73 103 140 190 243 296 356 424
#     4  12  27  46  74 107 142 185 240 295 360 429
#     4  12  26  48  75 103 140 188 249 303 343 422
#     4  12  28  47  70 106 150 189 233 297 371 433
#     4  12  22  46  74 102 135 190 243 295 349 421
#     4  10  18  36  70 105 139 172 230 294 353 414
#     4  11  22  44  73 106 142 188 236 293 359 438
#
# _framework density 21.790217999999999
#
# number of rings (size 3 to 8) (size 9 to 14) (size 15 to 20)
#    0.000    0.364    5.455    3.000    5.091    1.455 
#    0.000    0.000    0.000    0.000    0.000    0.000 
#    0.000    0.000    0.000    0.000    0.000    0.000 
#
# Total GULP energy -545730.728563 kJ/mol
# GULP energy per Si atom -12402.971104 kJ/mol
# Density = 2.174062 g / cm^3
# Si number density = 21.790218 Si / 1000 Ang^3
#
#
#
# Elastic Constant Matrix: (Units=GPa)
#
#
# Indices 1 2 3 4 5 6 
#
# 1 124.8068 11.8662 28.1414 0.0000 0.0000 0.0000
# 2 11.8662 94.9442 23.1013 0.0000 0.0000 0.0000
# 3 28.1414 23.1013 163.8863 0.0000 0.0000 0.0000
# 4 0.0000 0.0000 0.0000 21.2092 0.0000 0.0000
# 5 0.0000 0.0000 0.0000 0.0000-1687.0581 0.0000
# 6 0.0000 0.0000 0.0000 0.0000 0.0000 9.0221
#
#
#
# Elastic Compliance Matrix: (Units=1/GPa)
#
#
# Indices 1 2 3 4 5 6 
#
# 1 0.008383 -0.000722 -0.001338 0.000000 0.000000 0.000000
# 2 -0.000722 0.010969 -0.001422 0.000000 0.000000 0.000000
# 3 -0.001338 -0.001422 0.006532 0.000000 0.000000 0.000000
# 4 0.000000 0.000000 0.000000 0.047149 0.000000 0.000000
# 5 0.000000 0.000000 0.000000 0.000000 -0.000593 0.000000
# 6 0.000000 0.000000 0.000000 0.000000 0.000000 0.110839
#
#
# Mechanical properties :
#
#
# Convention : Reuss Voigt Hill
#
# Bulk Modulus (GPa) = 52.85564 56.65059 54.75311
# Shear Modulus (GPa) = 25.43895 -309.99681 -142.27893
#
# Velocity S-wave (km/s) = 3.42050 -11.94040 -8.08929
# Velocity P-wave (km/s) = 6.31736 12.80792 7.87825
#
# Compressibility (1/GPa) = 0.01891946
#
# Stress axis : x y z
#
# Youngs Moduli (GPa) = 119.29398 91.16770 153.09387
#
# Poissons Ratio (x) = 0.06584 0.20478
# Poissons Ratio (y) = 0.08616 0.21772
# Poissons Ratio (z) = 0.15957 0.12965
#
# Static dielectric constant tensor:
#      x y z
#    x 4.246840 0.000000 0.000000 
#    y 0.000000 3.929160 0.000000 
#    z 0.000000 0.000000 3.995650 
# 
# 
# High freq. dielectric constant tensor:
#      x y z
#    x 1.854570 0.000000 0.000000 
#    y 0.000000 1.861620 0.000000 
#    z 0.000000 0.000000 1.870000 
# 
# From -- ./inp_files/61285.got.cif
#   From: 2010.03.12/outbox.cif.g09.slc.cpg/sg63_31_cif.got.tgz:61285.got - 2010.04.10 19:34:48.
