data_PCOD8256764
_publ_section_title
;
Structure prediction by ZEFSAII (Michael W. Deem and Ramdas Pophale) SiO2 
 PCOD8256764
Probable space group: C M C M
;
_chemical_formula_sum "Si O2"
_cell_formula_units_Z 112
_cell_length_a 27.143434
_cell_length_b 14.671869
_cell_length_c 17.233375
_cell_angle_alpha 90.000000
_cell_angle_beta 90.000000
_cell_angle_gamma 90.000000
_cell_volume 6863.103839
_symmetry_space_group_name_H-M "C M C M"
_symmetry_group_IT_number 63
_symmetry_cell_setting 'orthorhombic'
loop_
_space_group_symop_operation_xyz
x,y,z
-x,-y,1/2+z
x,-y,-z
-x,y,1/2-z
-x,-y,-z
x,y,1/2-z
-x,y,z
x,-y,1/2+z
1/2+x,1/2+y,z
1/2-x,1/2-y,1/2+z
1/2+x,1/2-y,-z
1/2-x,1/2+y,1/2-z
1/2-x,1/2-y,-z
1/2+x,1/2+y,1/2-z
1/2-x,1/2+y,z
1/2+x,1/2-y,1/2+z
loop_
_atom_site_type_symbol
_atom_site_label
_atom_site_fract_x
_atom_site_fract_y
_atom_site_fract_z
Si Si1 0.944951 0.770645 0.837133
Si Si2 0.352235 0.054114 0.923978
Si Si3 0.264593 0.657693 0.340179
Si Si4 0.554109 0.054007 0.663020
Si Si5 0.212280 0.213190 0.935554
Si Si6 0.753879 0.453059 0.159717
Si Si7 0.354206 0.734079 0.066125
O O1 0.933199 0.807629 0.750000
O O2 0.941399 0.662425 0.834863
O O3 0.905258 0.808243 0.900103
O O4 0.000000 0.801954 0.862135
O O5 0.403769 0.012481 0.892328
O O6 0.312019 0.044377 0.856293
O O7 0.359140 0.158665 0.945412
O O8 0.335076 0.000000 0.000000
O O9 0.263839 0.672706 0.250000
O O10 0.214122 0.705552 0.371937
O O11 0.268129 0.551668 0.362002
O O12 0.311696 0.711107 0.372494
O O13 0.561277 0.015904 0.750000
O O14 0.500000 0.025133 0.631539
O O15 0.227296 0.118155 0.896638
O O16 0.250000 0.250000 0.000000
O O17 0.159885 0.197079 0.979490
O O18 0.745059 0.428492 0.250000
#
# Coordination Sequence:
#
# PCOD8256764 Si02
#       7
#    16  16  16  16  16  16  16
#     4   8  14  26  46  70  94 120 156 199 243 295
#     4  11  20  29  46  67  96 129 165 200 246 293
#     4  10  20  32  48  69  94 127 168 206 242 290
#     4   8  15  28  44  63  89 124 164 203 242 285
#     4  10  19  31  46  67  94 130 161 196 240 289
#     4  11  22  33  48  69  96 130 169 206 241 289
#     4  10  19  30  46  68  94 129 155 197 247 292
#
# _framework density 16.319147000000001
#
# number of rings (size 3 to 8) (size 9 to 14) (size 15 to 20)
#    0.000    2.286    2.857    3.000    2.000    1.429 
#    0.000    0.000    0.000    0.000    0.000    2.000 
#    0.000    3.429    0.000    0.000    0.000    3.143 
#
# Total GULP energy -693844.425479 kJ/mol
# GULP energy per Si atom -12390.079026 kJ/mol
# Density = 1.628200 g / cm^3
# Si number density = 16.319147 Si / 1000 Ang^3
#
#
#
# Elastic Constant Matrix: (Units=GPa)
#
#
# Indices 1 2 3 4 5 6 
#
# 1 102.4806 22.6994 56.2584 0.0000 0.0000 0.0000
# 2 22.6994 63.0679 48.9153 0.0000 0.0000 0.0000
# 3 56.2584 48.9153 95.0412 0.0000 0.0000 0.0000
# 4 0.0000 0.0000 0.0000 25.3250 0.0000 0.0000
# 5 0.0000 0.0000 0.0000 0.0000 31.1369 0.0000
# 6 0.0000 0.0000 0.0000 0.0000 0.0000 12.2874
#
#
#
# Elastic Compliance Matrix: (Units=1/GPa)
#
#
# Indices 1 2 3 4 5 6 
#
# 1 0.014674 0.002422 -0.009933 0.000000 0.000000 0.000000
# 2 0.002422 0.026790 -0.015222 0.000000 0.000000 0.000000
# 3 -0.009933 -0.015222 0.024236 0.000000 0.000000 0.000000
# 4 0.000000 0.000000 0.000000 0.039487 0.000000 0.000000
# 5 0.000000 0.000000 0.000000 0.000000 0.032116 0.000000
# 6 0.000000 0.000000 0.000000 0.000000 0.000000 0.081384
#
#
# Mechanical properties :
#
#
# Convention : Reuss Voigt Hill
#
# Bulk Modulus (GPa) = 49.41936 57.37064 53.39500
# Shear Modulus (GPa) = 18.45709 22.59762 20.52736
#
# Velocity S-wave (km/s) = 3.36670 3.72523 3.55049
# Velocity P-wave (km/s) = 6.74252 7.33041 7.04260
#
# Compressibility (1/GPa) = 0.02023499
#
# Stress axis : x y z
#
# Youngs Moduli (GPa) = 68.14656 37.32681 41.26095
#
# Poissons Ratio (x) = -0.09042 0.40985
# Poissons Ratio (y) = -0.16508 0.62809
# Poissons Ratio (z) = 0.67690 0.56820
#
# Static dielectric constant tensor:
#      x y z
#    x 3.334540 0.000000 0.000000 
#    y 0.000000 2.894600 0.000000 
#    z 0.000000 0.000000 3.408840 
# 
# 
# High freq. dielectric constant tensor:
#      x y z
#    x 1.611180 0.000000 0.000000 
#    y 0.000000 1.592930 0.000000 
#    z 0.000000 0.000000 1.634630 
# 
# From -- ./inp_files/38687.got.cif
#   From: 2010.03.12/outbox.cif.g09.slc.cpg/sg63_20_cif.got.tgz:38687.got - 2010.04.10 19:34:48.
