data_PCOD8256663
_publ_section_title
;
Structure prediction by ZEFSAII (Michael W. Deem and Ramdas Pophale) SiO2 
 PCOD8256663
Probable space group: C M C M
;
_chemical_formula_sum "Si O2"
_cell_formula_units_Z 80
_cell_length_a 9.196683
_cell_length_b 25.831716
_cell_length_c 18.481788
_cell_angle_alpha 90.000000
_cell_angle_beta 90.000000
_cell_angle_gamma 90.000000
_cell_volume 4390.646359
_symmetry_space_group_name_H-M "C M C M"
_symmetry_group_IT_number 63
_symmetry_cell_setting 'orthorhombic'
loop_
_space_group_symop_operation_xyz
x,y,z
-x,-y,1/2+z
x,-y,-z
-x,y,1/2-z
-x,-y,-z
x,y,1/2-z
-x,y,z
x,-y,1/2+z
1/2+x,1/2+y,z
1/2-x,1/2-y,1/2+z
1/2+x,1/2-y,-z
1/2-x,1/2+y,1/2-z
1/2-x,1/2-y,-z
1/2+x,1/2+y,1/2-z
1/2-x,1/2+y,z
1/2+x,1/2-y,1/2+z
loop_
_atom_site_type_symbol
_atom_site_label
_atom_site_fract_x
_atom_site_fract_y
_atom_site_fract_z
Si Si1 0.668152 0.809493 0.665577
Si Si2 0.172679 0.806468 0.169751
Si Si3 0.327286 0.399384 0.585510
Si Si4 0.326770 0.499359 0.331772
Si Si5 0.826738 0.901753 0.078325
O O1 0.695741 0.820048 0.750000
O O2 0.500000 0.818346 0.646169
O O3 0.718138 0.751191 0.645219
O O4 0.765865 0.847029 0.618430
O O5 0.234531 0.818433 0.250000
O O6 0.234834 0.848926 0.114005
O O7 0.000000 0.809503 0.173113
O O8 0.500000 0.396166 0.587988
O O9 0.269076 0.448243 0.631049
O O10 0.270281 0.405523 0.503601
O O11 0.266518 0.496682 0.250000
O O12 0.500000 0.498706 0.331856
O O13 0.265874 0.450541 0.376614
O O14 0.000000 0.902133 0.080153
#
# Coordination Sequence:
#
# PCOD8256663 Si02
#       5
#    16  16  16  16  16
#     4   9  18  32  48  65  87 118 155 189 218 256
#     4   8  14  26  44  64  86 116 156 193 218 250
#     4  10  19  29  44  70  99 119 140 179 229 274
#     4   9  16  26  42  64  90 120 152 184 219 262
#     4   9  16  26  42  65  92 119 147 184 228 265
#
# _framework density 18.220552999999999
#
# number of rings (size 3 to 8) (size 9 to 14) (size 15 to 20)
#    0.000    3.000    0.000    3.000    0.000    6.800 
#    0.000    0.000    0.000    2.400    0.000    0.000 
#    0.000    4.800    0.000    0.000    0.000    0.000 
#
# Total GULP energy -495887.992456 kJ/mol
# GULP energy per Si atom -12397.199811 kJ/mol
# Density = 1.817908 g / cm^3
# Si number density = 18.220553 Si / 1000 Ang^3
#
#
#
# Elastic Constant Matrix: (Units=GPa)
#
#
# Indices 1 2 3 4 5 6 
#
# 1 10.1345 18.2462 18.5692 0.0000 0.0000 0.0000
# 2 18.2462 167.6636 101.6617 0.0000 0.0000 0.0000
# 3 18.5692 101.6617 155.6230 0.0000 0.0000 0.0000
# 4 0.0000 0.0000 0.0000 29.1131 0.0000 0.0000
# 5 0.0000 0.0000 0.0000 0.0000 13.5962 0.0000
# 6 0.0000 0.0000 0.0000 0.0000 0.0000 20.9379
#
#
#
# Elastic Compliance Matrix: (Units=1/GPa)
#
#
# Indices 1 2 3 4 5 6 
#
# 1 0.132460 -0.008001 -0.010579 0.000000 0.000000 0.000000
# 2 -0.008001 0.010360 -0.005813 0.000000 0.000000 0.000000
# 3 -0.010579 -0.005813 0.011485 0.000000 0.000000 0.000000
# 4 0.000000 0.000000 0.000000 0.034349 0.000000 0.000000
# 5 0.000000 0.000000 0.000000 0.000000 0.073550 0.000000
# 6 0.000000 0.000000 0.000000 0.000000 0.000000 0.047760
#
#
# Mechanical properties :
#
#
# Convention : Reuss Voigt Hill
#
# Bulk Modulus (GPa) = 9.47685 67.81947 38.64816
# Shear Modulus (GPa) = 12.69286 25.72570 19.20928
#
# Velocity S-wave (km/s) = 2.64223 3.76161 3.25047
# Velocity P-wave (km/s) = 3.81064 7.49456 5.94514
#
# Compressibility (1/GPa) = 0.10552028
#
# Stress axis : x y z
#
# Youngs Moduli (GPa) = 7.54944 96.52926 87.06776
#
# Poissons Ratio (x) = 0.77230 0.92108
# Poissons Ratio (y) = 0.06040 0.50611
# Poissons Ratio (z) = 0.07986 0.56110
#
# Static dielectric constant tensor:
#      x y z
#    x 2.648400 0.000000 0.000000 
#    y 0.000000 3.612650 0.000000 
#    z 0.000000 0.000000 3.603960 
# 
# 
# High freq. dielectric constant tensor:
#      x y z
#    x 1.629030 0.000000 0.000000 
#    y 0.000000 1.724820 0.000000 
#    z 0.000000 0.000000 1.715750 
# 
# From -- ./inp_files/29710.got.cif
#   From: 2010.03.12/outbox.cif.g09.slc.cpg/sg63_15_cif.got.tgz:29710.got - 2010.04.10 19:34:48.
