data_PCOD8256114
_publ_section_title
;
Structure prediction by ZEFSAII (Michael W. Deem and Ramdas Pophale) SiO2 
 PCOD8256114
Probable space group: C M C M
;
_chemical_formula_sum "Si O2"
_cell_formula_units_Z 76
_cell_length_a 12.065419
_cell_length_b 30.842444
_cell_length_c 11.791140
_cell_angle_alpha 90.000000
_cell_angle_beta 90.000000
_cell_angle_gamma 90.000000
_cell_volume 4387.801671
_symmetry_space_group_name_H-M "C M C M"
_symmetry_group_IT_number 63
_symmetry_cell_setting 'orthorhombic'
loop_
_space_group_symop_operation_xyz
x,y,z
-x,-y,1/2+z
x,-y,-z
-x,y,1/2-z
-x,-y,-z
x,y,1/2-z
-x,y,z
x,-y,1/2+z
1/2+x,1/2+y,z
1/2-x,1/2-y,1/2+z
1/2+x,1/2-y,-z
1/2-x,1/2+y,1/2-z
1/2-x,1/2-y,-z
1/2+x,1/2+y,1/2-z
1/2-x,1/2+y,z
1/2+x,1/2-y,1/2+z
loop_
_atom_site_type_symbol
_atom_site_label
_atom_site_fract_x
_atom_site_fract_y
_atom_site_fract_z
Si Si1 0.278879 0.800388 0.992966
Si Si2 0.631496 0.631008 0.618233
Si Si3 0.000000 0.700577 0.876380
Si Si4 0.766521 0.172977 0.250000
Si Si5 0.626723 0.547060 0.011053
Si Si6 0.876522 0.912911 0.750000
Si Si7 0.000000 0.217118 0.250000
O O1 0.297982 0.811103 0.860880
O O2 0.250000 0.750000 0.000000
O O3 0.181206 0.828672 0.048606
O O4 0.391148 0.813628 0.056485
O O5 0.665119 0.634141 0.750000
O O6 0.500000 0.633937 0.600803
O O7 0.678541 0.585639 0.566431
O O8 0.000000 0.678942 0.750000
O O9 0.000000 0.752854 0.862878
O O10 0.777020 0.121383 0.250000
O O11 0.891857 0.188797 0.250000
O O12 0.500000 0.542480 0.970943
O O13 0.686424 0.500000 0.000000
O O14 0.638504 0.557277 0.142115
O O15 0.000000 0.891543 0.750000
#
# Coordination Sequence:
#
# PCOD8256114 Si02
#       7
#    16  16   8   8  16   8   4
#     4  12  24  37  57  80 110 149 194 236 279 329
#     4  10  22  36  53  80 114 148 185 230 278 334
#     4  10  22  41  57  76 105 149 192 236 278 327
#     4  12  22  35  58  82 113 148 194 234 277 330
#     4   9  18  31  50  77 110 146 181 222 273 337
#     4  10  18  30  51  77 109 152 187 218 273 339
#     4  10  20  36  56  78 106 150 196 228 268 332
#
# _framework density 17.320746
#
# number of rings (size 3 to 8) (size 9 to 14) (size 15 to 20)
#    0.316    1.263    4.737    0.632    5.895    0.421 
#    0.000    0.000    0.000    0.000    0.000    0.737 
#    0.000    0.000    0.000    0.000    0.000    0.000 
#
# Total GULP energy -471025.250147 kJ/mol
# GULP energy per Si atom -12395.401320 kJ/mol
# Density = 1.728132 g / cm^3
# Si number density = 17.320746 Si / 1000 Ang^3
#
#
#
# Elastic Constant Matrix: (Units=GPa)
#
#
# Indices 1 2 3 4 5 6 
#
# 1 55.7651 19.1340 35.9296 0.0000 0.0000 0.0000
# 2 19.1340 131.4071 52.1700 0.0000 0.0000 0.0000
# 3 35.9296 52.1700 154.7301 0.0000 0.0000 0.0000
# 4 0.0000 0.0000 0.0000 13.7865 0.0000 0.0000
# 5 0.0000 0.0000 0.0000 0.0000 19.5712 0.0000
# 6 0.0000 0.0000 0.0000 0.0000 0.0000 15.3534
#
#
#
# Elastic Compliance Matrix: (Units=1/GPa)
#
#
# Indices 1 2 3 4 5 6 
#
# 1 0.021282 -0.001313 -0.004499 0.000000 0.000000 0.000000
# 2 -0.001313 0.008867 -0.002685 0.000000 0.000000 0.000000
# 3 -0.004499 -0.002685 0.008413 0.000000 0.000000 0.000000
# 4 0.000000 0.000000 0.000000 0.072535 0.000000 0.000000
# 5 0.000000 0.000000 0.000000 0.000000 0.051095 0.000000
# 6 0.000000 0.000000 0.000000 0.000000 0.000000 0.065132
#
#
# Mechanical properties :
#
#
# Convention : Reuss Voigt Hill
#
# Bulk Modulus (GPa) = 46.36464 61.81885 54.09174
# Shear Modulus (GPa) = 19.88022 25.38681 22.63351
#
# Velocity S-wave (km/s) = 3.39155 3.83258 3.61879
# Velocity P-wave (km/s) = 6.49332 7.43996 6.98270
#
# Compressibility (1/GPa) = 0.02156816
#
# Stress axis : x y z
#
# Youngs Moduli (GPa) = 46.98900 112.77792 118.86549
#
# Poissons Ratio (x) = 0.14803 0.53480
# Poissons Ratio (y) = 0.06168 0.31914
# Poissons Ratio (z) = 0.21141 0.30279
#
# Static dielectric constant tensor:
#      x y z
#    x 2.857030 0.000000 0.000000 
#    y 0.000000 3.337760 0.000000 
#    z 0.000000 0.000000 3.427990 
# 
# 
# High freq. dielectric constant tensor:
#      x y z
#    x 1.615920 0.000000 0.000000 
#    y 0.000000 1.671250 0.000000 
#    z 0.000000 0.000000 1.688720 
# 
# From -- ./inp_files/17935.got.cif
#   From: 2010.03.12/outbox.cif.g09.slc.cpg/sg63_9_cif.got.tgz:17935.got - 2010.04.10 19:34:48.
