data_PCOD8256325
_publ_section_title
;
Structure prediction by ZEFSAII (Michael W. Deem and Ramdas Pophale) SiO2 
 PCOD8256325
Probable space group: C M C M
;
_chemical_formula_sum "Si O2"
_cell_formula_units_Z 72
_cell_length_a 32.953007
_cell_length_b 14.580036
_cell_length_c 8.605450
_cell_angle_alpha 90.000000
_cell_angle_beta 90.000000
_cell_angle_gamma 90.000000
_cell_volume 4134.540329
_symmetry_space_group_name_H-M "C M C M"
_symmetry_group_IT_number 63
_symmetry_cell_setting 'orthorhombic'
loop_
_space_group_symop_operation_xyz
x,y,z
-x,-y,1/2+z
x,-y,-z
-x,y,1/2-z
-x,-y,-z
x,y,1/2-z
-x,y,z
x,-y,1/2+z
1/2+x,1/2+y,z
1/2-x,1/2-y,1/2+z
1/2+x,1/2-y,-z
1/2-x,1/2+y,1/2-z
1/2-x,1/2-y,-z
1/2+x,1/2+y,1/2-z
1/2-x,1/2+y,z
1/2+x,1/2-y,1/2+z
loop_
_atom_site_type_symbol
_atom_site_label
_atom_site_fract_x
_atom_site_fract_y
_atom_site_fract_z
Si Si1 0.417463 0.398896 0.066934
Si Si2 0.000000 0.101746 0.434213
Si Si3 0.773621 0.905383 0.931937
Si Si4 0.653649 0.720792 0.066851
Si Si5 0.681930 0.097048 0.434754
O O1 0.421583 0.407759 0.250000
O O2 0.409153 0.500000 0.000000
O O3 0.458658 0.352577 0.998186
O O4 0.381230 0.332091 0.023178
O O5 0.000000 0.103545 0.250000
O O6 0.000000 0.000000 0.500000
O O7 0.772693 0.917977 0.750000
O O8 0.803205 0.823328 0.982355
O O9 0.728161 0.885800 0.993122
O O10 0.790974 0.000000 0.000000
O O11 0.645850 0.714150 0.250000
O O12 0.653660 0.825595 0.010786
O O13 0.677978 0.099708 0.250000
O O14 0.666317 0.000000 0.500000
#
# Coordination Sequence:
#
# PCOD8256325 Si02
#       5
#    16   8  16  16  16
#     4  11  21  34  51  75 105 136 166 200 241 292
#     4  10  18  32  52  74 101 134 165 196 236 290
#     4   9  19  32  48  69  97 130 166 205 249 296
#     4  11  21  33  49  73 100 130 167 209 250 294
#     4  10  20  35  51  69  93 128 169 212 256 299
#
# _framework density 17.414269000000001
#
# number of rings (size 3 to 8) (size 9 to 14) (size 15 to 20)
#    0.000    1.778    0.000    7.000    0.000    4.444 
#    0.000    0.000    0.000    0.000    0.000    0.778 
#    0.000    0.000    0.000    0.000    0.000    0.000 
#
# Total GULP energy -446440.125419 kJ/mol
# GULP energy per Si atom -12401.114595 kJ/mol
# Density = 1.737463 g / cm^3
# Si number density = 17.414269 Si / 1000 Ang^3
#
#
#
# Elastic Constant Matrix: (Units=GPa)
#
#
# Indices 1 2 3 4 5 6 
#
# 1 81.9344 46.3540 38.7719 0.0000 0.0000 0.0000
# 2 46.3540 104.5008 35.0373 0.0000 0.0000 0.0000
# 3 38.7719 35.0373 103.4918 0.0000 0.0000 0.0000
# 4 0.0000 0.0000 0.0000 29.4696 0.0000 0.0000
# 5 0.0000 0.0000 0.0000 0.0000 27.9215 0.0000
# 6 0.0000 0.0000 0.0000 0.0000 0.0000 29.8460
#
#
#
# Elastic Compliance Matrix: (Units=1/GPa)
#
#
# Indices 1 2 3 4 5 6 
#
# 1 0.018021 -0.006464 -0.004563 0.000000 0.000000 0.000000
# 2 -0.006464 0.013113 -0.002018 0.000000 0.000000 0.000000
# 3 -0.004563 -0.002018 0.012055 0.000000 0.000000 0.000000
# 4 0.000000 0.000000 0.000000 0.033933 0.000000 0.000000
# 5 0.000000 0.000000 0.000000 0.000000 0.035815 0.000000
# 6 0.000000 0.000000 0.000000 0.000000 0.000000 0.033505
#
#
# Mechanical properties :
#
#
# Convention : Reuss Voigt Hill
#
# Bulk Modulus (GPa) = 58.47974 58.91705 58.69840
# Shear Modulus (GPa) = 28.05335 28.76500 28.40917
#
# Velocity S-wave (km/s) = 4.01801 4.06865 4.04341
# Velocity P-wave (km/s) = 7.42834 7.48184 7.45514
#
# Compressibility (1/GPa) = 0.01709994
#
# Stress axis : x y z
#
# Youngs Moduli (GPa) = 55.49085 76.25998 82.95152
#
# Poissons Ratio (x) = 0.49293 0.37851
# Poissons Ratio (y) = 0.35868 0.16739
# Poissons Ratio (z) = 0.25321 0.15388
#
# Static dielectric constant tensor:
#      x y z
#    x 3.665430 0.000000 0.000000 
#    y 0.000000 3.024780 0.000000 
#    z 0.000000 0.000000 3.497450 
# 
# 
# High freq. dielectric constant tensor:
#      x y z
#    x 1.659520 0.000000 0.000000 
#    y 0.000000 1.651940 0.000000 
#    z 0.000000 0.000000 1.688980 
# 
# From -- ./inp_files/13894.got.cif
#   From: 2010.03.12/outbox.cif.g09.slc.cpg/sg63_7_cif.got.tgz:13894.got - 2010.04.10 19:34:48.
