data_PCOD8256607
_publ_section_title
;
Structure prediction by ZEFSAII (Michael W. Deem and Ramdas Pophale) SiO2 
 PCOD8256607
Probable space group: C M C M
;
_chemical_formula_sum "Si O2"
_cell_formula_units_Z 104
_cell_length_a 31.298268
_cell_length_b 8.197024
_cell_length_c 23.612799
_cell_angle_alpha 90.000000
_cell_angle_beta 90.000000
_cell_angle_gamma 90.000000
_cell_volume 6057.926251
_symmetry_space_group_name_H-M "C M C M"
_symmetry_group_IT_number 63
_symmetry_cell_setting 'orthorhombic'
loop_
_space_group_symop_operation_xyz
x,y,z
-x,-y,1/2+z
x,-y,-z
-x,y,1/2-z
-x,-y,-z
x,y,1/2-z
-x,y,z
x,-y,1/2+z
1/2+x,1/2+y,z
1/2-x,1/2-y,1/2+z
1/2+x,1/2-y,-z
1/2-x,1/2+y,1/2-z
1/2-x,1/2-y,-z
1/2+x,1/2+y,1/2-z
1/2-x,1/2+y,z
1/2+x,1/2-y,1/2+z
loop_
_atom_site_type_symbol
_atom_site_label
_atom_site_fract_x
_atom_site_fract_y
_atom_site_fract_z
Si Si1 0.606264 0.500000 0.500000
Si Si2 0.201149 0.473250 0.433803
Si Si3 0.631310 0.724241 0.098054
Si Si4 0.952874 0.735662 0.041966
Si Si5 0.047622 0.394873 0.084419
Si Si6 0.732788 0.269662 0.369310
Si Si7 0.807505 0.069929 0.315404
O O1 0.634290 0.613301 0.458762
O O2 0.578581 0.609947 0.543772
O O3 0.201498 0.500000 0.500000
O O4 0.158063 0.385345 0.415239
O O5 0.243220 0.370781 0.418099
O O6 0.201684 0.643672 0.400473
O O7 0.583604 0.784974 0.115534
O O8 0.650680 0.625867 0.150417
O O9 0.939848 0.588008 0.084642
O O10 0.000000 0.799265 0.058617
O O11 0.953358 0.664718 0.979441
O O12 0.000000 0.370213 0.111432
O O13 0.766912 0.183012 0.328638
O O14 0.703236 0.383948 0.330853
O O15 0.819221 0.084066 0.250000
#
# Coordination Sequence:
#
# PCOD8256607 Si02
#       7
#     8  16  16  16  16  16  16
#     4  10  19  28  42  70 110 130 166 204 254 318
#     4  10  20  32  51  72 108 135 165 207 254 320
#     4  10  22  30  48  77 102 142 165 208 255 302
#     4   8  14  25  44  65  93 134 169 205 245 294
#     4   8  15  29  45  66  99 136 174 204 245 300
#     4   9  20  36  53  76  93 134 175 208 263 307
#     4  10  20  37  55  74 100 128 174 221 254 300
#
# _framework density 17.167591000000002
#
# number of rings (size 3 to 8) (size 9 to 14) (size 15 to 20)
#    0.000    2.769    0.000    2.077    6.462    0.615 
#    2.769    0.769    0.000    0.462    0.000    0.000 
#    0.000    1.231    0.000    0.000    0.000    0.000 
#
# Total GULP energy -644573.773326 kJ/mol
# GULP energy per Si atom -12395.649487 kJ/mol
# Density = 1.712852 g / cm^3
# Si number density = 17.167591 Si / 1000 Ang^3
#
#
#
# Elastic Constant Matrix: (Units=GPa)
#
#
# Indices 1 2 3 4 5 6 
#
# 1 96.0285 48.9374 41.7148 0.0000 0.0000 0.0000
# 2 48.9374 102.2465 36.5209 0.0000 0.0000 0.0000
# 3 41.7148 36.5209 82.7912 0.0000 0.0000 0.0000
# 4 0.0000 0.0000 0.0000 13.8104 0.0000 0.0000
# 5 0.0000 0.0000 0.0000 0.0000 12.0628 0.0000
# 6 0.0000 0.0000 0.0000 0.0000 0.0000 39.8413
#
#
#
# Elastic Compliance Matrix: (Units=1/GPa)
#
#
# Indices 1 2 3 4 5 6 
#
# 1 0.015580 -0.005523 -0.005414 0.000000 0.000000 0.000000
# 2 -0.005523 0.013568 -0.003202 0.000000 0.000000 0.000000
# 3 -0.005414 -0.003202 0.016219 0.000000 0.000000 0.000000
# 4 0.000000 0.000000 0.000000 0.072409 0.000000 0.000000
# 5 0.000000 0.000000 0.000000 0.000000 0.082899 0.000000
# 6 0.000000 0.000000 0.000000 0.000000 0.000000 0.025100
#
#
# Mechanical properties :
#
#
# Convention : Reuss Voigt Hill
#
# Bulk Modulus (GPa) = 58.51896 59.49027 59.00461
# Shear Modulus (GPa) = 19.24938 23.40243 21.32590
#
# Velocity S-wave (km/s) = 3.35216 3.69613 3.52834
# Velocity P-wave (km/s) = 7.01024 7.27619 7.14446
#
# Compressibility (1/GPa) = 0.01708848
#
# Stress axis : x y z
#
# Youngs Moduli (GPa) = 64.18486 73.70531 61.65707
#
# Poissons Ratio (x) = 0.40709 0.33379
# Poissons Ratio (y) = 0.35451 0.19743
# Poissons Ratio (z) = 0.34747 0.23600
#
# Static dielectric constant tensor:
#      x y z
#    x 3.395270 0.000000 0.000000 
#    y 0.000000 3.600200 0.000000 
#    z 0.000000 0.000000 2.751600 
# 
# 
# High freq. dielectric constant tensor:
#      x y z
#    x 1.659890 0.000000 0.000000 
#    y 0.000000 1.681890 0.000000 
#    z 0.000000 0.000000 1.606450 
# 
# From -- ./inp_files/58542.got.cif
#   From: 2010.03.12/outbox.cif.g09.slc.cpg/sg63_30_cif.got.tgz:58542.got - 2010.04.10 19:34:48.
