data_PCOD8256691
_publ_section_title
;
Structure prediction by ZEFSAII (Michael W. Deem and Ramdas Pophale) SiO2 
 PCOD8256691
Probable space group: C M C M
;
_chemical_formula_sum "Si O2"
_cell_formula_units_Z 96
_cell_length_a 22.519507
_cell_length_b 9.190265
_cell_length_c 25.047265
_cell_angle_alpha 90.000000
_cell_angle_beta 90.000000
_cell_angle_gamma 90.000000
_cell_volume 5183.787901
_symmetry_space_group_name_H-M "C M C M"
_symmetry_group_IT_number 63
_symmetry_cell_setting 'orthorhombic'
loop_
_space_group_symop_operation_xyz
x,y,z
-x,-y,1/2+z
x,-y,-z
-x,y,1/2-z
-x,-y,-z
x,y,1/2-z
-x,y,z
x,-y,1/2+z
1/2+x,1/2+y,z
1/2-x,1/2-y,1/2+z
1/2+x,1/2-y,-z
1/2-x,1/2+y,1/2-z
1/2-x,1/2-y,-z
1/2+x,1/2+y,1/2-z
1/2-x,1/2+y,z
1/2+x,1/2-y,1/2+z
loop_
_atom_site_type_symbol
_atom_site_label
_atom_site_fract_x
_atom_site_fract_y
_atom_site_fract_z
Si Si1 0.633228 0.293787 0.077158
Si Si2 0.122184 0.189329 0.457643
Si Si3 0.357284 0.972873 0.399450
Si Si4 0.266701 0.512557 0.940174
Si Si5 0.069160 0.313705 0.188553
Si Si6 0.065767 0.032770 0.130932
O O1 0.614538 0.129285 0.088285
O O2 0.703813 0.327721 0.071426
O O3 0.607197 0.391251 0.125457
O O4 0.607186 0.341808 0.019340
O O5 0.129837 0.361646 0.447771
O O6 0.067466 0.129127 0.423254
O O7 0.181686 0.109035 0.435297
O O8 0.286019 0.001834 0.396815
O O9 0.385577 0.915151 0.344520
O O10 0.239441 0.500000 0.000000
O O11 0.080177 0.350780 0.250000
O O12 0.084835 0.142971 0.178520
O O13 0.000000 0.342346 0.172476
O O14 0.000000 0.973474 0.140731
#
# Coordination Sequence:
#
# PCOD8256691 Si02
#       6
#    16  16  16  16  16  16
#     4  10  19  29  47  78 110 136 167 204 240 287
#     4   9  18  30  46  73 109 147 172 191 235 298
#     4  11  19  29  51  77 102 130 167 209 250 293
#     4   9  17  30  48  72 106 147 179 197 225 282
#     4   9  20  40  59  71  89 123 167 212 263 319
#     4   9  18  33  52  71  94 131 174 209 244 291
#
# _framework density 18.519276999999999
#
# number of rings (size 3 to 8) (size 9 to 14) (size 15 to 20)
#    0.000    2.500    0.000    4.000    0.000    4.667 
#    0.000    0.833    0.000   25.500    0.000    0.000 
#    0.000    0.000    0.000    0.000    0.000    0.000 
#
# Total GULP energy -594699.912523 kJ/mol
# GULP energy per Si atom -12389.581511 kJ/mol
# Density = 1.847713 g / cm^3
# Si number density = 18.519277 Si / 1000 Ang^3
#
#
#
# Elastic Constant Matrix: (Units=GPa)
#
#
# Indices 1 2 3 4 5 6 
#
# 1 62.7089 23.4476 39.4529 0.0000 0.0000 0.0000
# 2 23.4476 101.2420 17.9860 0.0000 0.0000 0.0000
# 3 39.4529 17.9860 74.3778 0.0000 0.0000 0.0000
# 4 0.0000 0.0000 0.0000 21.5381 0.0000 0.0000
# 5 0.0000 0.0000 0.0000 0.0000 24.9239 0.0000
# 6 0.0000 0.0000 0.0000 0.0000 0.0000 20.0661
#
#
#
# Elastic Compliance Matrix: (Units=1/GPa)
#
#
# Indices 1 2 3 4 5 6 
#
# 1 0.025135 -0.003608 -0.012460 0.000000 0.000000 0.000000
# 2 -0.003608 0.010839 -0.000707 0.000000 0.000000 0.000000
# 3 -0.012460 -0.000707 0.020225 0.000000 0.000000 0.000000
# 4 0.000000 0.000000 0.000000 0.046429 0.000000 0.000000
# 5 0.000000 0.000000 0.000000 0.000000 0.040122 0.000000
# 6 0.000000 0.000000 0.000000 0.000000 0.000000 0.049835
#
#
# Mechanical properties :
#
#
# Convention : Reuss Voigt Hill
#
# Bulk Modulus (GPa) = 44.15316 44.45576 44.30446
# Shear Modulus (GPa) = 21.39632 23.80177 22.59905
#
# Velocity S-wave (km/s) = 3.40274 3.58892 3.49707
# Velocity P-wave (km/s) = 6.27150 6.42114 6.34676
#
# Compressibility (1/GPa) = 0.02264844
#
# Stress axis : x y z
#
# Youngs Moduli (GPa) = 39.78543 92.26363 49.44316
#
# Poissons Ratio (x) = 0.33285 0.61607
# Poissons Ratio (y) = 0.14353 0.03497
# Poissons Ratio (z) = 0.49573 0.06526
#
# Static dielectric constant tensor:
#      x y z
#    x 3.285150 0.000000 0.000000 
#    y 0.000000 3.543510 0.000000 
#    z 0.000000 0.000000 3.097540 
# 
# 
# High freq. dielectric constant tensor:
#      x y z
#    x 1.705970 0.000000 0.000000 
#    y 0.000000 1.729350 0.000000 
#    z 0.000000 0.000000 1.673820 
# 
# From -- ./inp_files/70630.got.cif
#   From: 2010.03.12/outbox.cif.g09.slc.cpg/sg63_36_cif.got.tgz:70630.got - 2010.04.10 19:34:48.
