data_PCOD8256583
_publ_section_title
;
Structure prediction by ZEFSAII (Michael W. Deem and Ramdas Pophale) SiO2 
 PCOD8256583
Probable space group: C M C M
;
_chemical_formula_sum "Si O2"
_cell_formula_units_Z 80
_cell_length_a 22.154738
_cell_length_b 29.677013
_cell_length_c 9.265233
_cell_angle_alpha 90.000000
_cell_angle_beta 90.000000
_cell_angle_gamma 90.000000
_cell_volume 6091.765132
_symmetry_space_group_name_H-M "C M C M"
_symmetry_group_IT_number 63
_symmetry_cell_setting 'orthorhombic'
loop_
_space_group_symop_operation_xyz
x,y,z
-x,-y,1/2+z
x,-y,-z
-x,y,1/2-z
-x,-y,-z
x,y,1/2-z
-x,y,z
x,-y,1/2+z
1/2+x,1/2+y,z
1/2-x,1/2-y,1/2+z
1/2+x,1/2-y,-z
1/2-x,1/2+y,1/2-z
1/2-x,1/2-y,-z
1/2+x,1/2+y,1/2-z
1/2-x,1/2+y,z
1/2+x,1/2-y,1/2+z
loop_
_atom_site_type_symbol
_atom_site_label
_atom_site_fract_x
_atom_site_fract_y
_atom_site_fract_z
Si Si1 0.429733 0.718877 0.583802
Si Si2 0.336781 0.228236 0.588747
Si Si3 0.874326 0.137062 0.419955
Si Si4 0.743693 0.682942 0.090487
Si Si5 0.930673 0.956261 0.918062
O O1 0.408702 0.716016 0.750000
O O2 0.500000 0.729532 0.570905
O O3 0.395157 0.760149 0.506904
O O4 0.415949 0.671496 0.507640
O O5 0.356991 0.214377 0.750000
O O6 0.293636 0.271053 0.593474
O O7 0.299952 0.186405 0.518791
O O8 0.886224 0.145690 0.250000
O O9 0.803401 0.143997 0.457580
O O10 0.891742 0.086733 0.466647
O O11 0.769499 0.672791 0.250000
O O12 0.923594 0.965765 0.750000
O O13 0.000000 0.946885 0.960491
O O14 0.905407 0.000000 0.000000
#
# Coordination Sequence:
#
# PCOD8256583 Si02
#       5
#    16  16  16  16  16
#     4  10  19  27  36  52  72  93 118 149 181 210
#     4   9  16  25  37  51  68  91 115 140 173 211
#     4   9  17  28  41  54  68  90 119 150 183 217
#     4   8  14  24  37  52  68  86 111 144 178 209
#     4   9  17  28  40  53  70  92 118 148 182 219
#
# _framework density 13.132482
#
# number of rings (size 3 to 8) (size 9 to 14) (size 15 to 20)
#    0.000    3.000    0.000    3.000    0.000    8.000 
#    0.000    2.000    0.000    0.000    0.000    0.000 
#    0.000    0.000    0.000    0.000    0.000    1.000 
#
# Total GULP energy -495859.288997 kJ/mol
# GULP energy per Si atom -12396.482225 kJ/mol
# Density = 1.310259 g / cm^3
# Si number density = 13.132482 Si / 1000 Ang^3
#
#
#
# Elastic Constant Matrix: (Units=GPa)
#
#
# Indices 1 2 3 4 5 6 
#
# 1 65.0454 46.8349 46.2858 0.0000 0.0000 0.0000
# 2 46.8349 65.4498 34.6712 0.0000 0.0000 0.0000
# 3 46.2858 34.6712 80.8959 0.0000 0.0000 0.0000
# 4 0.0000 0.0000 0.0000 17.9939 0.0000 0.0000
# 5 0.0000 0.0000 0.0000 0.0000 20.6004 0.0000
# 6 0.0000 0.0000 0.0000 0.0000 0.0000 22.5663
#
#
#
# Elastic Compliance Matrix: (Units=1/GPa)
#
#
# Indices 1 2 3 4 5 6 
#
# 1 0.041399 -0.022092 -0.014218 0.000000 0.000000 0.000000
# 2 -0.022092 0.031556 -0.000884 0.000000 0.000000 0.000000
# 3 -0.014218 -0.000884 0.020876 0.000000 0.000000 0.000000
# 4 0.000000 0.000000 0.000000 0.055574 0.000000 0.000000
# 5 0.000000 0.000000 0.000000 0.000000 0.048543 0.000000
# 6 0.000000 0.000000 0.000000 0.000000 0.000000 0.044314
#
#
# Mechanical properties :
#
#
# Convention : Reuss Voigt Hill
#
# Bulk Modulus (GPa) = 51.43789 51.88612 51.66201
# Shear Modulus (GPa) = 15.47354 17.80540 16.63947
#
# Velocity S-wave (km/s) = 3.43631 3.68615 3.56342
# Velocity P-wave (km/s) = 7.41605 7.59687 7.50701
#
# Compressibility (1/GPa) = 0.01944092
#
# Stress axis : x y z
#
# Youngs Moduli (GPa) = 24.15523 31.68940 47.90235
#
# Poissons Ratio (x) = 0.70010 0.68110
# Poissons Ratio (y) = 0.53365 0.04235
# Poissons Ratio (z) = 0.34345 0.02802
#
# Static dielectric constant tensor:
#      x y z
#    x 2.616090 0.000000 0.000000 
#    y 0.000000 2.467100 0.000000 
#    z 0.000000 0.000000 2.831290 
# 
# 
# High freq. dielectric constant tensor:
#      x y z
#    x 1.481050 0.000000 0.000000 
#    y 0.000000 1.455650 0.000000 
#    z 0.000000 0.000000 1.512640 
# 
# From -- ./inp_files/6680.got.cif
#   From: 2010.03.12/outbox.cif.g09.slc.cpg/sg63_4_cif.got.tgz:6680.got - 2010.04.10 19:34:48.
