data_PCOD8256798
_publ_section_title
;
Structure prediction by ZEFSAII (Michael W. Deem and Ramdas Pophale) SiO2 
 PCOD8256798
Probable space group: C M C M
;
_chemical_formula_sum "Si O2"
_cell_formula_units_Z 96
_cell_length_a 8.881408
_cell_length_b 25.402836
_cell_length_c 25.472295
_cell_angle_alpha 90.000000
_cell_angle_beta 90.000000
_cell_angle_gamma 90.000000
_cell_volume 5746.879640
_symmetry_space_group_name_H-M "C M C M"
_symmetry_group_IT_number 63
_symmetry_cell_setting 'orthorhombic'
loop_
_space_group_symop_operation_xyz
x,y,z
-x,-y,1/2+z
x,-y,-z
-x,y,1/2-z
-x,-y,-z
x,y,1/2-z
-x,y,z
x,-y,1/2+z
1/2+x,1/2+y,z
1/2-x,1/2-y,1/2+z
1/2+x,1/2-y,-z
1/2-x,1/2+y,1/2-z
1/2-x,1/2-y,-z
1/2+x,1/2+y,1/2-z
1/2-x,1/2+y,z
1/2+x,1/2-y,1/2+z
loop_
_atom_site_type_symbol
_atom_site_label
_atom_site_fract_x
_atom_site_fract_y
_atom_site_fract_z
Si Si1 0.327711 0.688888 0.250000
Si Si2 0.665797 0.005008 0.062027
Si Si3 0.668628 0.706363 0.750000
Si Si4 0.323620 0.608970 0.051998
Si Si5 0.679562 0.305554 0.862806
Si Si6 0.178228 0.609743 0.940114
Si Si7 0.672680 0.692451 0.635030
O O1 0.500000 0.674026 0.250000
O O2 0.301633 0.751414 0.250000
O O3 0.263163 0.669248 0.306482
O O4 0.500000 0.016759 0.085662
O O5 0.775881 0.052779 0.077001
O O6 0.727761 0.948161 0.081632
O O7 0.653330 0.000000 0.000000
O O8 0.500000 0.732539 0.750000
O O9 0.686164 0.673364 0.696044
O O10 0.500000 0.608133 0.042906
O O11 0.273359 0.654189 0.092111
O O12 0.246288 0.621793 0.997005
O O13 0.500000 0.295509 0.861446
O O14 0.763704 0.250939 0.873504
O O15 0.231257 0.652673 0.899117
O O16 0.000000 0.611720 0.946372
O O17 0.500000 0.691460 0.616126
#
# Coordination Sequence:
#
# PCOD8256798 Si02
#       7
#     8  16   8  16  16  16  16
#     4   8  14  28  48  65  86 119 155 186 216 262
#     4   8  16  31  48  65  87 118 154 190 228 269
#     4   8  16  30  46  67  92 115 147 190 230 266
#     4  10  19  30  47  71  95 120 152 190 230 273
#     4   9  18  31  47  69  95 122 152 185 225 272
#     4  10  20  33  48  67  93 124 155 188 228 274
#     4  10  19  31  49  71  94 121 152 188 229 271
#
# _framework density 16.704716999999999
#
# number of rings (size 3 to 8) (size 9 to 14) (size 15 to 20)
#    0.000    2.833    0.000    2.500    0.000    6.333 
#    0.000    0.000    0.000    1.000    0.000    4.667 
#    0.000    0.000    0.000    0.000    0.000    0.000 
#
# Total GULP energy -594629.524901 kJ/mol
# GULP energy per Si atom -12388.115102 kJ/mol
# Density = 1.666670 g / cm^3
# Si number density = 16.704717 Si / 1000 Ang^3
#
#
#
# Elastic Constant Matrix: (Units=GPa)
#
#
# Indices 1 2 3 4 5 6 
#
# 1 53.9428 39.6461 37.4167 0.0000 0.0000 0.0000
# 2 39.6461 108.9518 67.2865 0.0000 0.0000 0.0000
# 3 37.4167 67.2865 104.8794 0.0000 0.0000 0.0000
# 4 0.0000 0.0000 0.0000 -1.9031 0.0000 0.0000
# 5 0.0000 0.0000 0.0000 0.0000 16.4240 0.0000
# 6 0.0000 0.0000 0.0000 0.0000 0.0000 27.9218
#
#
#
# Elastic Compliance Matrix: (Units=1/GPa)
#
#
# Indices 1 2 3 4 5 6 
#
# 1 0.027119 -0.006448 -0.005538 0.000000 0.000000 0.000000
# 2 -0.006448 0.016734 -0.008436 0.000000 0.000000 0.000000
# 3 -0.005538 -0.008436 0.016923 0.000000 0.000000 0.000000
# 4 0.000000 0.000000 0.000000 -0.525471 0.000000 0.000000
# 5 0.000000 0.000000 0.000000 0.000000 0.060886 0.000000
# 6 0.000000 0.000000 0.000000 0.000000 0.000000 0.035814
#
#
# Mechanical properties :
#
#
# Convention : Reuss Voigt Hill
#
# Bulk Modulus (GPa) = 50.17048 61.83029 56.00039
# Shear Modulus (GPa) = -15.60030 16.71688 0.55829
#
# Velocity S-wave (km/s) = -3.05927 3.16686 0.57874
# Velocity P-wave (km/s) = 4.19763 7.10394 5.83464
#
# Compressibility (1/GPa) = 0.01993204
#
# Stress axis : x y z
#
# Youngs Moduli (GPa) = 36.87519 59.75686 59.09245
#
# Poissons Ratio (x) = 0.38530 0.32726
# Poissons Ratio (y) = 0.23777 0.49850
# Poissons Ratio (z) = 0.20422 0.50410
#
# Static dielectric constant tensor:
#      x y z
#    x 3.200620 0.000000 0.000000 
#    y 0.000000 3.254870 0.000000 
#    z 0.000000 0.000000 3.255770 
# 
# 
# High freq. dielectric constant tensor:
#      x y z
#    x 1.650080 0.000000 0.000000 
#    y 0.000000 1.623820 0.000000 
#    z 0.000000 0.000000 1.634310 
# 
# From -- ./inp_files/60314.got.cif
#   From: 2010.03.12/outbox.cif.g09.slc.cpg/sg63_31_cif.got.tgz:60314.got - 2010.04.10 19:34:48.
