data_PCOD8256032
_publ_section_title
;
Structure prediction by ZEFSAII (Michael W. Deem and Ramdas Pophale) SiO2 
 PCOD8256032
Probable space group: C M C M
;
_chemical_formula_sum "Si O2"
_cell_formula_units_Z 128
_cell_length_a 27.543614
_cell_length_b 26.315425
_cell_length_c 9.803502
_cell_angle_alpha 90.000000
_cell_angle_beta 90.000000
_cell_angle_gamma 90.000000
_cell_volume 7105.793029
_symmetry_space_group_name_H-M "C M C M"
_symmetry_group_IT_number 63
_symmetry_cell_setting 'orthorhombic'
loop_
_space_group_symop_operation_xyz
x,y,z
-x,-y,1/2+z
x,-y,-z
-x,y,1/2-z
-x,-y,-z
x,y,1/2-z
-x,y,z
x,-y,1/2+z
1/2+x,1/2+y,z
1/2-x,1/2-y,1/2+z
1/2+x,1/2-y,-z
1/2-x,1/2+y,1/2-z
1/2-x,1/2-y,-z
1/2+x,1/2+y,1/2-z
1/2-x,1/2+y,z
1/2+x,1/2-y,1/2+z
loop_
_atom_site_type_symbol
_atom_site_label
_atom_site_fract_x
_atom_site_fract_y
_atom_site_fract_z
Si Si1 0.381157 0.450839 0.589962
Si Si2 0.445957 0.643014 0.412391
Si Si3 0.284269 0.718996 0.404707
Si Si4 0.227672 0.957499 0.899636
Si Si5 0.391408 0.739785 0.410794
Si Si6 0.380780 0.852807 0.410635
Si Si7 0.943377 0.548612 0.908994
Si Si8 0.290123 0.135890 0.399265
O O1 0.395243 0.500000 0.500000
O O2 0.391269 0.462235 0.750000
O O3 0.412589 0.403258 0.536352
O O4 0.325240 0.434771 0.562374
O O5 0.444755 0.644758 0.250000
O O6 0.500000 0.633638 0.467991
O O7 0.428404 0.697928 0.471684
O O8 0.283075 0.740144 0.250000
O O9 0.250000 0.750000 0.500000
O O10 0.338276 0.723600 0.465112
O O11 0.262360 0.662778 0.413758
O O12 0.223011 0.981506 0.750000
O O13 0.274031 0.921644 0.907849
O O14 0.244602 0.000000 0.000000
O O15 0.391590 0.734196 0.250000
O O16 0.405492 0.798284 0.449920
O O17 0.370671 0.855379 0.250000
O O18 0.414192 0.900592 0.455662
O O19 0.328798 0.852557 0.483980
O O20 0.933352 0.536048 0.750000
O O21 0.000000 0.560378 0.933581
O O22 0.927014 0.500000 0.000000
O O23 0.313167 0.148608 0.250000
#
# Coordination Sequence:
#
# PCOD8256032 Si02
#       8
#    16  16  16  16  16  16  16  16
#     4   9  17  31  51  73  98 129 167 207 244 287
#     4   9  17  29  48  75 102 129 163 203 248 296
#     4  10  18  30  49  71  96 128 163 198 237 282
#     4   9  18  32  48  68  96 132 167 200 241 287
#     4   9  17  30  48  71 101 132 163 202 246 290
#     4  10  20  33  51  76 102 128 160 204 251 293
#     4   9  19  36  56  76  98 126 162 203 249 301
#     4  10  20  32  48  71 100 132 165 201 241 289
#
# _framework density 18.013470999999999
#
# number of rings (size 3 to 8) (size 9 to 14) (size 15 to 20)
#    0.000    2.625    1.250    0.750    0.000    5.250 
#    0.000    5.000    0.000    3.000    0.000    0.000 
#    0.000    0.000    0.000    0.000    0.000    0.000 
#
# Total GULP energy -792923.917739 kJ/mol
# GULP energy per Si atom -12389.436215 kJ/mol
# Density = 1.797247 g / cm^3
# Si number density = 18.013471 Si / 1000 Ang^3
#
#
#
# Elastic Constant Matrix: (Units=GPa)
#
#
# Indices 1 2 3 4 5 6 
#
# 1 52.6761 39.0965 16.3782 0.0000 0.0000 0.0000
# 2 39.0965 124.3431 35.7304 0.0000 0.0000 0.0000
# 3 16.3782 35.7304 40.7902 0.0000 0.0000 0.0000
# 4 0.0000 0.0000 0.0000 23.0708 0.0000 0.0000
# 5 0.0000 0.0000 0.0000 0.0000 19.9347 0.0000
# 6 0.0000 0.0000 0.0000 0.0000 0.0000 25.8840
#
#
#
# Elastic Compliance Matrix: (Units=1/GPa)
#
#
# Indices 1 2 3 4 5 6 
#
# 1 0.025306 -0.006731 -0.004265 0.000000 0.000000 0.000000
# 2 -0.006731 0.012538 -0.008280 0.000000 0.000000 0.000000
# 3 -0.004265 -0.008280 0.033481 0.000000 0.000000 0.000000
# 4 0.000000 0.000000 0.000000 0.043345 0.000000 0.000000
# 5 0.000000 0.000000 0.000000 0.000000 0.050164 0.000000
# 6 0.000000 0.000000 0.000000 0.000000 0.000000 0.038634
#
#
# Mechanical properties :
#
#
# Convention : Reuss Voigt Hill
#
# Bulk Modulus (GPa) = 30.51281 44.46884 37.49082
# Shear Modulus (GPa) = 19.76724 22.21816 20.99270
#
# Velocity S-wave (km/s) = 3.31623 3.51582 3.41748
# Velocity P-wave (km/s) = 5.62484 6.42038 6.03573
#
# Compressibility (1/GPa) = 0.03277312
#
# Stress axis : x y z
#
# Youngs Moduli (GPa) = 39.51637 79.75723 29.86777
#
# Poissons Ratio (x) = 0.53688 0.12737
# Poissons Ratio (y) = 0.26600 0.24730
# Poissons Ratio (z) = 0.16852 0.66039
#
# Static dielectric constant tensor:
#      x y z
#    x 3.188250 0.000000 0.000000 
#    y 0.000000 3.495590 0.000000 
#    z 0.000000 0.000000 3.134180 
# 
# 
# High freq. dielectric constant tensor:
#      x y z
#    x 1.690920 0.000000 0.000000 
#    y 0.000000 1.705900 0.000000 
#    z 0.000000 0.000000 1.665730 
# 
# From -- ./inp_files/25329.got.cif
#   From: 2010.03.12/outbox.cif.g09.slc.cpg/sg63_13_cif.got.tgz:25329.got - 2010.04.10 19:34:48.
