data_PCOD8256884
_publ_section_title
;
Structure prediction by ZEFSAII (Michael W. Deem and Ramdas Pophale) SiO2 
 PCOD8256884
Probable space group: C M C M
;
_chemical_formula_sum "Si O2"
_cell_formula_units_Z 80
_cell_length_a 19.161823
_cell_length_b 29.140783
_cell_length_c 9.891026
_cell_angle_alpha 90.000000
_cell_angle_beta 90.000000
_cell_angle_gamma 90.000000
_cell_volume 5523.055210
_symmetry_space_group_name_H-M "C M C M"
_symmetry_group_IT_number 63
_symmetry_cell_setting 'orthorhombic'
loop_
_space_group_symop_operation_xyz
x,y,z
-x,-y,1/2+z
x,-y,-z
-x,y,1/2-z
-x,-y,-z
x,y,1/2-z
-x,y,z
x,-y,1/2+z
1/2+x,1/2+y,z
1/2-x,1/2-y,1/2+z
1/2+x,1/2-y,-z
1/2-x,1/2+y,1/2-z
1/2-x,1/2-y,-z
1/2+x,1/2+y,1/2-z
1/2-x,1/2+y,z
1/2+x,1/2-y,1/2+z
loop_
_atom_site_type_symbol
_atom_site_label
_atom_site_fract_x
_atom_site_fract_y
_atom_site_fract_z
Si Si1 0.373666 0.395150 0.032393
Si Si2 0.651517 0.762397 0.094408
Si Si3 0.500000 0.752659 0.096216
Si Si4 0.000000 0.830910 0.398945
Si Si5 0.082460 0.962056 0.250000
Si Si6 0.581761 0.430160 0.750000
Si Si7 0.786830 0.814033 0.406622
O O1 0.381297 0.407159 0.876701
O O2 0.432503 0.361840 0.087343
O O3 0.379129 0.441972 0.117880
O O4 0.301207 0.367375 0.055707
O O5 0.660147 0.746128 0.250000
O O6 0.572004 0.780619 0.067183
O O7 0.705263 0.803609 0.062505
O O8 0.665209 0.718963 0.998048
O O9 0.500000 0.735825 0.250000
O O10 0.500000 0.706903 0.011667
O O11 0.000000 0.808275 0.250000
O O12 0.000000 0.950147 0.250000
O O13 0.094661 0.015923 0.250000
O O14 0.500000 0.418590 0.750000
O O15 0.804641 0.804337 0.250000
#
# Coordination Sequence:
#
# PCOD8256884 Si02
#       7
#    16  16   8   8   8   8  16
#     4  12  20  32  47  63  84 117 153 185 216 256
#     4   9  19  31  44  64  87 112 144 183 221 252
#     4  10  20  30  46  63  89 113 146 189 221 251
#     4  12  20  28  41  64  85 117 154 179 209 255
#     4  11  20  36  46  63  86 113 147 188 225 259
#     4  11  24  32  46  63  88 115 147 188 227 255
#     4  10  19  31  45  62  86 115 147 181 215 255
#
# _framework density 14.484736
#
# number of rings (size 3 to 8) (size 9 to 14) (size 15 to 20)
#    0.000    1.400    6.000    0.600    2.800    1.600 
#    0.000    0.000    0.000    0.000    0.000    0.000 
#    0.000    0.000    0.000    5.400    0.000    0.100 
#
# Total GULP energy -495810.921898 kJ/mol
# GULP energy per Si atom -12395.273047 kJ/mol
# Density = 1.445177 g / cm^3
# Si number density = 14.484736 Si / 1000 Ang^3
#
#
#
# Elastic Constant Matrix: (Units=GPa)
#
#
# Indices 1 2 3 4 5 6 
#
# 1 100.8161 40.2785 35.6733 0.0000 0.0000 0.0000
# 2 40.2785 59.2212 28.7193 0.0000 0.0000 0.0000
# 3 35.6733 28.7193 93.3215 0.0000 0.0000 0.0000
# 4 0.0000 0.0000 0.0000 27.8966 0.0000 0.0000
# 5 0.0000 0.0000 0.0000 0.0000 16.6010 0.0000
# 6 0.0000 0.0000 0.0000 0.0000 0.0000 21.5501
#
#
#
# Elastic Compliance Matrix: (Units=1/GPa)
#
#
# Indices 1 2 3 4 5 6 
#
# 1 0.014257 -0.008291 -0.002898 0.000000 0.000000 0.000000
# 2 -0.008291 0.024670 -0.004423 0.000000 0.000000 0.000000
# 3 -0.002898 -0.004423 0.013185 0.000000 0.000000 0.000000
# 4 0.000000 0.000000 0.000000 0.035847 0.000000 0.000000
# 5 0.000000 0.000000 0.000000 0.000000 0.060237 0.000000
# 6 0.000000 0.000000 0.000000 0.000000 0.000000 0.046403
#
#
# Mechanical properties :
#
#
# Convention : Reuss Voigt Hill
#
# Bulk Modulus (GPa) = 47.87641 51.41123 49.64382
# Shear Modulus (GPa) = 21.47895 23.12205 22.30050
#
# Velocity S-wave (km/s) = 3.85498 3.99971 3.92801
# Velocity P-wave (km/s) = 7.27594 7.54326 7.41080
#
# Compressibility (1/GPa) = 0.02088711
#
# Stress axis : x y z
#
# Youngs Moduli (GPa) = 70.14003 40.53540 75.84599
#
# Poissons Ratio (x) = 0.33609 0.21983
# Poissons Ratio (y) = 0.58155 0.33544
# Poissons Ratio (z) = 0.20329 0.17927
#
# Static dielectric constant tensor:
#      x y z
#    x 1.939870 0.000000 0.000000 
#    y 0.000000 2.695390 0.000000 
#    z 0.000000 0.000000 3.083600 
# 
# 
# High freq. dielectric constant tensor:
#      x y z
#    x 1.536620 0.000000 0.000000 
#    y 0.000000 1.520140 0.000000 
#    z 0.000000 0.000000 1.575590 
# 
# From -- ./inp_files/8486.got.cif
#   From: 2010.03.12/outbox.cif.g09.slc.cpg/sg63_5_cif.got.tgz:8486.got - 2010.04.10 19:34:48.
