data_PCOD8256392
_publ_section_title
;
Structure prediction by ZEFSAII (Michael W. Deem and Ramdas Pophale) SiO2 
 PCOD8256392
Probable space group: C M C M
;
_chemical_formula_sum "Si O2"
_cell_formula_units_Z 64
_cell_length_a 20.986779
_cell_length_b 10.167365
_cell_length_c 17.277101
_cell_angle_alpha 90.000000
_cell_angle_beta 90.000000
_cell_angle_gamma 90.000000
_cell_volume 3686.591997
_symmetry_space_group_name_H-M "C M C M"
_symmetry_group_IT_number 63
_symmetry_cell_setting 'orthorhombic'
loop_
_space_group_symop_operation_xyz
x,y,z
-x,-y,1/2+z
x,-y,-z
-x,y,1/2-z
-x,-y,-z
x,y,1/2-z
-x,y,z
x,-y,1/2+z
1/2+x,1/2+y,z
1/2-x,1/2-y,1/2+z
1/2+x,1/2-y,-z
1/2-x,1/2+y,1/2-z
1/2-x,1/2-y,-z
1/2+x,1/2+y,1/2-z
1/2-x,1/2+y,z
1/2+x,1/2-y,1/2+z
loop_
_atom_site_type_symbol
_atom_site_label
_atom_site_fract_x
_atom_site_fract_y
_atom_site_fract_z
Si Si1 0.243649 0.875395 0.946534
Si Si2 0.500000 0.748044 0.159612
Si Si3 0.362837 0.268038 0.841075
Si Si4 0.000000 0.542838 0.158875
Si Si5 0.873189 0.520180 0.410019
O O1 0.187306 0.858561 0.885083
O O2 0.309600 0.892820 0.899609
O O3 0.250000 0.750000 0.000000
O O4 0.228319 0.000000 0.000000
O O5 0.500000 0.774499 0.250000
O O6 0.433978 0.675236 0.136969
O O7 0.500000 0.894579 0.124551
O O8 0.349262 0.278122 0.750000
O O9 0.359566 0.116195 0.865906
O O10 0.933444 0.601347 0.125697
O O11 0.000000 0.561062 0.250000
O O12 0.886861 0.500000 0.500000
#
# Coordination Sequence:
#
# PCOD8256392 Si02
#       5
#    16   8  16   8  16
#     4  11  21  38  54  79 115 147 182 225 273 332
#     4   7  14  29  50  77 107 133 176 224 266 318
#     4  10  19  34  57  83 108 144 186 231 273 325
#     4   9  17  29  49  81 110 139 182 234 273 316
#     4  10  18  32  55  78 114 143 182 223 279 323
#
# _framework density 17.360208
#
# number of rings (size 3 to 8) (size 9 to 14) (size 15 to 20)
#    0.000    2.250    5.000    2.625    0.000    2.000 
#    0.000    0.625    0.000    0.000    0.000    1.750 
#    0.000    0.000    0.000    0.000    0.000    0.000 
#
# Total GULP energy -396458.574981 kJ/mol
# GULP energy per Si atom -12389.330468 kJ/mol
# Density = 1.732070 g / cm^3
# Si number density = 17.360208 Si / 1000 Ang^3
#
#
#
# Elastic Constant Matrix: (Units=GPa)
#
#
# Indices 1 2 3 4 5 6 
#
# 1 208.8992 47.7594 77.9348 0.0000 0.0000 0.0000
# 2 47.7594 63.5624 31.3647 0.0000 0.0000 0.0000
# 3 77.9348 31.3647 102.4551 0.0000 0.0000 0.0000
# 4 0.0000 0.0000 0.0000 25.4162 0.0000 0.0000
# 5 0.0000 0.0000 0.0000 0.0000 39.1273 0.0000
# 6 0.0000 0.0000 0.0000 0.0000 0.0000 25.9508
#
#
#
# Elastic Compliance Matrix: (Units=1/GPa)
#
#
# Indices 1 2 3 4 5 6 
#
# 1 0.007193 -0.003186 -0.004496 0.000000 0.000000 0.000000
# 2 -0.003186 0.019943 -0.003682 0.000000 0.000000 0.000000
# 3 -0.004496 -0.003682 0.014307 0.000000 0.000000 0.000000
# 4 0.000000 0.000000 0.000000 0.039345 0.000000 0.000000
# 5 0.000000 0.000000 0.000000 0.000000 0.025558 0.000000
# 6 0.000000 0.000000 0.000000 0.000000 0.000000 0.038535
#
#
# Mechanical properties :
#
#
# Convention : Reuss Voigt Hill
#
# Bulk Modulus (GPa) = 53.43037 76.55938 64.99488
# Shear Modulus (GPa) = 28.76100 32.62271 30.69186
#
# Velocity S-wave (km/s) = 4.07470 4.33964 4.20925
# Velocity P-wave (km/s) = 7.27886 8.32503 7.81946
#
# Compressibility (1/GPa) = 0.01871595
#
# Stress axis : x y z
#
# Youngs Moduli (GPa) = 139.02981 50.14250 69.89361
#
# Poissons Ratio (x) = 0.15975 0.31424
# Poissons Ratio (y) = 0.44294 0.25733
# Poissons Ratio (z) = 0.62508 0.18461
#
# Static dielectric constant tensor:
#      x y z
#    x 3.966490 0.000000 0.000000 
#    y 0.000000 2.789080 0.000000 
#    z 0.000000 0.000000 3.215060 
# 
# 
# High freq. dielectric constant tensor:
#      x y z
#    x 1.701340 0.000000 0.000000 
#    y 0.000000 1.612130 0.000000 
#    z 0.000000 0.000000 1.671430 
# 
# From -- ./inp_files/36212.got.cif
#   From: 2010.03.12/outbox.cif.g09.slc.cpg/sg63_19_cif.got.tgz:36212.got - 2010.04.10 19:34:48.
