data_PCOD8256995
_publ_section_title
;
Structure prediction by ZEFSAII (Michael W. Deem and Ramdas Pophale) SiO2 
 PCOD8256995
Probable space group: C M C M
;
_chemical_formula_sum "Si O2"
_cell_formula_units_Z 96
_cell_length_a 9.434294
_cell_length_b 20.388259
_cell_length_c 28.473668
_cell_angle_alpha 90.000000
_cell_angle_beta 90.000000
_cell_angle_gamma 90.000000
_cell_volume 5476.876713
_symmetry_space_group_name_H-M "C M C M"
_symmetry_group_IT_number 63
_symmetry_cell_setting 'orthorhombic'
loop_
_space_group_symop_operation_xyz
x,y,z
-x,-y,1/2+z
x,-y,-z
-x,y,1/2-z
-x,-y,-z
x,y,1/2-z
-x,y,z
x,-y,1/2+z
1/2+x,1/2+y,z
1/2-x,1/2-y,1/2+z
1/2+x,1/2-y,-z
1/2-x,1/2+y,1/2-z
1/2-x,1/2-y,-z
1/2+x,1/2+y,1/2-z
1/2-x,1/2+y,z
1/2+x,1/2-y,1/2+z
loop_
_atom_site_type_symbol
_atom_site_label
_atom_site_fract_x
_atom_site_fract_y
_atom_site_fract_z
Si Si1 0.668204 0.323048 0.198520
Si Si2 0.831432 0.616740 0.395393
Si Si3 0.837181 0.126536 0.898340
Si Si4 0.331457 0.175705 0.301258
Si Si5 0.832512 0.512697 0.553688
Si Si6 0.162444 0.740236 0.046468
O O1 0.716388 0.350480 0.250000
O O2 0.500000 0.318738 0.196108
O O3 0.718889 0.370082 0.155887
O O4 0.728589 0.249376 0.191808
O O5 0.773102 0.628053 0.342332
O O6 0.774836 0.547829 0.415160
O O7 0.776340 0.675821 0.427921
O O8 0.000000 0.616904 0.395980
O O9 0.741171 0.078090 0.928226
O O10 0.820706 0.199010 0.918777
O O11 0.000000 0.102774 0.900910
O O12 0.283719 0.148566 0.250000
O O13 0.500000 0.178519 0.304290
O O14 0.789080 0.500000 0.500000
O O15 0.000000 0.522218 0.558525
O O16 0.000000 0.729770 0.031870
O O17 0.250000 0.750000 0.000000
#
# Coordination Sequence:
#
# PCOD8256995 Si02
#       6
#    16  16  16  16  16  16
#     4   8  13  24  45  73 100 122 149 192 247 295
#     4   9  16  29  46  65  92 124 159 196 234 280
#     4  10  19  32  51  75  99 124 160 205 245 284
#     4   8  12  21  42  70  94 116 149 197 245 281
#     4  10  21  35  49  66  96 139 171 194 239 298
#     4  10  19  31  49  72  95 120 156 202 243 277
#
# _framework density 17.528238999999999
#
# number of rings (size 3 to 8) (size 9 to 14) (size 15 to 20)
#    0.000    2.833    1.667    2.000    0.000    2.333 
#    0.000    1.667    0.000    1.500    0.000    0.000 
#    0.000    2.000    0.000    0.000    0.000    0.000 
#
# Total GULP energy -594862.254360 kJ/mol
# GULP energy per Si atom -12392.963633 kJ/mol
# Density = 1.748834 g / cm^3
# Si number density = 17.528239 Si / 1000 Ang^3
#
#
#
# Elastic Constant Matrix: (Units=GPa)
#
#
# Indices 1 2 3 4 5 6 
#
# 1 22.5637 17.1046 26.9166 0.0000 0.0000 0.0000
# 2 17.1046 55.5131 22.3086 0.0000 0.0000 0.0000
# 3 26.9166 22.3086 135.4799 0.0000 0.0000 0.0000
# 4 0.0000 0.0000 0.0000 33.9733 0.0000 0.0000
# 5 0.0000 0.0000 0.0000 0.0000 11.5607 0.0000
# 6 0.0000 0.0000 0.0000 0.0000 0.0000 18.1519
#
#
#
# Elastic Compliance Matrix: (Units=1/GPa)
#
#
# Indices 1 2 3 4 5 6 
#
# 1 0.070831 -0.017315 -0.011221 0.000000 0.000000 0.000000
# 2 -0.017315 0.023523 -0.000433 0.000000 0.000000 0.000000
# 3 -0.011221 -0.000433 0.009682 0.000000 0.000000 0.000000
# 4 0.000000 0.000000 0.000000 0.029435 0.000000 0.000000
# 5 0.000000 0.000000 0.000000 0.000000 0.086500 0.000000
# 6 0.000000 0.000000 0.000000 0.000000 0.000000 0.055091
#
#
# Mechanical properties :
#
#
# Convention : Reuss Voigt Hill
#
# Bulk Modulus (GPa) = 21.69355 38.46850 30.08102
# Shear Modulus (GPa) = 14.35275 22.55232 18.45253
#
# Velocity S-wave (km/s) = 2.86464 3.59085 3.24810
# Velocity P-wave (km/s) = 4.83164 6.25991 5.59157
#
# Compressibility (1/GPa) = 0.04609666
#
# Stress axis : x y z
#
# Youngs Moduli (GPa) = 14.11817 42.51170 103.28536
#
# Poissons Ratio (x) = 0.73609 1.15899
# Poissons Ratio (y) = 0.24445 0.04475
# Poissons Ratio (z) = 0.15842 0.01842
#
# Static dielectric constant tensor:
#      x y z
#    x 2.756940 0.000000 0.000000 
#    y 0.000000 3.240080 0.000000 
#    z 0.000000 0.000000 3.224900 
# 
# 
# High freq. dielectric constant tensor:
#      x y z
#    x 1.615340 0.000000 0.000000 
#    y 0.000000 1.663910 0.000000 
#    z 0.000000 0.000000 1.701920 
# 
# From -- ./inp_files/67240.got.cif
#   From: 2010.03.12/outbox.cif.g09.slc.cpg/sg63_34_cif.got.tgz:67240.got - 2010.04.10 19:34:48.
