data_PCOD8256439
_publ_section_title
;
Structure prediction by ZEFSAII (Michael W. Deem and Ramdas Pophale) SiO2 
 PCOD8256439
Probable space group: C M C M
;
_chemical_formula_sum "Si O2"
_cell_formula_units_Z 112
_cell_length_a 17.365986
_cell_length_b 21.122662
_cell_length_c 17.296788
_cell_angle_alpha 90.000000
_cell_angle_beta 90.000000
_cell_angle_gamma 90.000000
_cell_volume 6344.736037
_symmetry_space_group_name_H-M "C M C M"
_symmetry_group_IT_number 63
_symmetry_cell_setting 'orthorhombic'
loop_
_space_group_symop_operation_xyz
x,y,z
-x,-y,1/2+z
x,-y,-z
-x,y,1/2-z
-x,-y,-z
x,y,1/2-z
-x,y,z
x,-y,1/2+z
1/2+x,1/2+y,z
1/2-x,1/2-y,1/2+z
1/2+x,1/2-y,-z
1/2-x,1/2+y,1/2-z
1/2-x,1/2-y,-z
1/2+x,1/2+y,1/2-z
1/2-x,1/2+y,z
1/2+x,1/2-y,1/2+z
loop_
_atom_site_type_symbol
_atom_site_label
_atom_site_fract_x
_atom_site_fract_y
_atom_site_fract_z
Si Si1 0.714115 0.468957 0.078364
Si Si2 0.093094 0.336553 0.579958
Si Si3 0.915426 0.901862 0.160634
Si Si4 0.301964 0.839053 0.430788
Si Si5 0.174734 0.774554 0.339693
Si Si6 0.918531 0.406474 0.160045
Si Si7 0.348193 0.963346 0.842081
O O1 0.637085 0.456323 0.125542
O O2 0.756328 0.403910 0.054564
O O3 0.762610 0.519380 0.129026
O O4 0.686870 0.500000 0.000000
O O5 0.143148 0.321548 0.502936
O O6 0.123402 0.286834 0.643126
O O7 0.114282 0.405196 0.612565
O O8 0.000000 0.330900 0.567147
O O9 0.921434 0.916741 0.250000
O O10 0.880254 0.833401 0.145541
O O11 0.000000 0.903870 0.122211
O O12 0.246830 0.782002 0.400180
O O13 0.357638 0.852694 0.359039
O O14 0.203000 0.771788 0.250000
O O15 0.926150 0.409392 0.250000
O O16 0.897866 0.476548 0.131238
O O17 0.000000 0.388538 0.120959
O O18 0.348056 0.950841 0.750000
#
# Coordination Sequence:
#
# PCOD8256439 Si02
#       7
#    16  16  16  16  16  16  16
#     4  10  18  33  52  75 104 137 175 213 254 308
#     4  12  23  34  52  79 110 140 170 213 265 315
#     4   9  18  33  54  78 101 128 167 218 268 307
#     4  10  20  35  52  74 104 137 173 215 260 307
#     4  10  21  37  56  75 100 136 178 218 257 310
#     4   9  17  30  50  75 103 137 177 216 254 302
#     4  10  20  33  49  74 108 146 177 208 253 311
#
# _framework density 17.652428
#
# number of rings (size 3 to 8) (size 9 to 14) (size 15 to 20)
#    0.000    2.000    1.429    3.000    0.000    6.000 
#    0.000    2.143    0.000    0.000    0.000    0.000 
#    0.000    4.571    0.000    0.000    0.000    0.000 
#
# Total GULP energy -693861.595538 kJ/mol
# GULP energy per Si atom -12390.385635 kJ/mol
# Density = 1.761225 g / cm^3
# Si number density = 17.652428 Si / 1000 Ang^3
#
#
#
# Elastic Constant Matrix: (Units=GPa)
#
#
# Indices 1 2 3 4 5 6 
#
# 1 127.6037 37.4981 43.6698 0.0000 0.0000 0.0000
# 2 37.4981 55.3415 20.5022 0.0000 0.0000 0.0000
# 3 43.6698 20.5022 55.7732 0.0000 0.0000 0.0000
# 4 0.0000 0.0000 0.0000 24.4743 0.0000 0.0000
# 5 0.0000 0.0000 0.0000 0.0000 27.4211 0.0000
# 6 0.0000 0.0000 0.0000 0.0000 0.0000 13.1381
#
#
#
# Elastic Compliance Matrix: (Units=1/GPa)
#
#
# Indices 1 2 3 4 5 6 
#
# 1 0.011935 -0.005354 -0.007377 0.000000 0.000000 0.000000
# 2 -0.005354 0.023320 -0.004380 0.000000 0.000000 0.000000
# 3 -0.007377 -0.004380 0.025316 0.000000 0.000000 0.000000
# 4 0.000000 0.000000 0.000000 0.040859 0.000000 0.000000
# 5 0.000000 0.000000 0.000000 0.000000 0.036468 0.000000
# 6 0.000000 0.000000 0.000000 0.000000 0.000000 0.076114
#
#
# Mechanical properties :
#
#
# Convention : Reuss Voigt Hill
#
# Bulk Modulus (GPa) = 37.95252 49.11763 43.53507
# Shear Modulus (GPa) = 19.45400 22.14326 20.79863
#
# Velocity S-wave (km/s) = 3.32333 3.54560 3.43626
# Velocity P-wave (km/s) = 6.02267 6.68184 6.36080
#
# Compressibility (1/GPa) = 0.02634871
#
# Stress axis : x y z
#
# Youngs Moduli (GPa) = 83.79055 42.88162 39.50099
#
# Poissons Ratio (x) = 0.22958 0.29138
# Poissons Ratio (y) = 0.44859 0.17303
# Poissons Ratio (z) = 0.61809 0.18784
#
# Static dielectric constant tensor:
#      x y z
#    x 3.838430 0.000000 0.000000 
#    y 0.000000 3.150670 0.000000 
#    z 0.000000 0.000000 3.297890 
# 
# 
# High freq. dielectric constant tensor:
#      x y z
#    x 1.689760 0.000000 0.000000 
#    y 0.000000 1.664420 0.000000 
#    z 0.000000 0.000000 1.685100 
# 
# From -- ./inp_files/46110.got.cif
#   From: 2010.03.12/outbox.cif.g09.slc.cpg/sg63_24_cif.got.tgz:46110.got - 2010.04.10 19:34:48.
