data_PCOD8256686
_publ_section_title
;
Structure prediction by ZEFSAII (Michael W. Deem and Ramdas Pophale) SiO2 
 PCOD8256686
Probable space group: C M C M
;
_chemical_formula_sum "Si O2"
_cell_formula_units_Z 104
_cell_length_a 27.974015
_cell_length_b 10.623036
_cell_length_c 20.641656
_cell_angle_alpha 90.000000
_cell_angle_beta 90.000000
_cell_angle_gamma 90.000000
_cell_volume 6134.059620
_symmetry_space_group_name_H-M "C M C M"
_symmetry_group_IT_number 63
_symmetry_cell_setting 'orthorhombic'
loop_
_space_group_symop_operation_xyz
x,y,z
-x,-y,1/2+z
x,-y,-z
-x,y,1/2-z
-x,-y,-z
x,y,1/2-z
-x,y,z
x,-y,1/2+z
1/2+x,1/2+y,z
1/2-x,1/2-y,1/2+z
1/2+x,1/2-y,-z
1/2-x,1/2+y,1/2-z
1/2-x,1/2-y,-z
1/2+x,1/2+y,1/2-z
1/2-x,1/2+y,z
1/2+x,1/2-y,1/2+z
loop_
_atom_site_type_symbol
_atom_site_label
_atom_site_fract_x
_atom_site_fract_y
_atom_site_fract_z
Si Si1 0.446061 0.438103 0.822303
Si Si2 0.724792 0.205476 0.825416
Si Si3 0.446758 0.861754 0.177627
Si Si4 0.266815 0.537270 0.390637
Si Si5 0.375272 0.557533 0.431778
Si Si6 0.196146 0.500000 0.500000
Si Si7 0.864954 0.334344 0.092697
O O1 0.432974 0.487762 0.750000
O O2 0.500000 0.479818 0.840528
O O3 0.442385 0.288144 0.821931
O O4 0.409035 0.497120 0.874215
O O5 0.728721 0.182473 0.750000
O O6 0.742014 0.347262 0.841439
O O7 0.670203 0.194179 0.847573
O O8 0.756399 0.098435 0.859673
O O9 0.435511 0.913288 0.250000
O O10 0.500000 0.904280 0.156897
O O11 0.408845 0.914031 0.124454
O O12 0.320324 0.527897 0.416866
O O13 0.230394 0.569316 0.448854
O O14 0.391182 0.500000 0.500000
O O15 0.384173 0.706046 0.438253
O O16 0.161505 0.597228 0.534731
#
# Coordination Sequence:
#
# PCOD8256686 Si02
#       7
#    16  16  16  16  16   8  16
#     4   8  15  28  45  67  96 125 151 189 244 294
#     4  10  20  33  49  72  97 125 162 205 245 288
#     4   8  13  25  46  70  92 113 145 192 243 286
#     4  10  21  32  51  68  98 132 163 202 241 287
#     4  10  19  29  47  72  95 123 160 200 236 285
#     4  10  20  34  47  64  93 134 168 188 232 286
#     4   9  19  30  47  66  93 125 155 193 237 286
#
# _framework density 16.954515000000001
#
# number of rings (size 3 to 8) (size 9 to 14) (size 15 to 20)
#    0.000    2.769    0.769    1.846    2.154    6.462 
#    0.000    0.385    0.000    0.000    0.000    0.000 
#    0.000    2.462    0.000    0.000    0.000    0.000 
#
# Total GULP energy -644473.722291 kJ/mol
# GULP energy per Si atom -12393.725429 kJ/mol
# Density = 1.691593 g / cm^3
# Si number density = 16.954515 Si / 1000 Ang^3
#
#
#
# Elastic Constant Matrix: (Units=GPa)
#
#
# Indices 1 2 3 4 5 6 
#
# 1 106.5635 23.6847 69.1256 0.0000 0.0000 0.0000
# 2 23.6847 44.6737 25.2802 0.0000 0.0000 0.0000
# 3 69.1256 25.2802 129.4740 0.0000 0.0000 0.0000
# 4 0.0000 0.0000 0.0000 21.6581 0.0000 0.0000
# 5 0.0000 0.0000 0.0000 0.0000 32.6398 0.0000
# 6 0.0000 0.0000 0.0000 0.0000 0.0000 8.9076
#
#
#
# Elastic Compliance Matrix: (Units=1/GPa)
#
#
# Indices 1 2 3 4 5 6 
#
# 1 0.014915 -0.003824 -0.007217 0.000000 0.000000 0.000000
# 2 -0.003824 0.026145 -0.003063 0.000000 0.000000 0.000000
# 3 -0.007217 -0.003063 0.012175 0.000000 0.000000 0.000000
# 4 0.000000 0.000000 0.000000 0.046172 0.000000 0.000000
# 5 0.000000 0.000000 0.000000 0.000000 0.030637 0.000000
# 6 0.000000 0.000000 0.000000 0.000000 0.000000 0.112263
#
#
# Mechanical properties :
#
#
# Convention : Reuss Voigt Hill
#
# Bulk Modulus (GPa) = 39.95606 57.43247 48.69426
# Shear Modulus (GPa) = 17.93027 23.48250 20.70639
#
# Velocity S-wave (km/s) = 3.25553 3.72564 3.49849
# Velocity P-wave (km/s) = 6.14403 7.24259 6.71581
#
# Compressibility (1/GPa) = 0.02502749
#
# Stress axis : x y z
#
# Youngs Moduli (GPa) = 67.04574 38.24774 82.13834
#
# Poissons Ratio (x) = 0.14625 0.59275
# Poissons Ratio (y) = 0.25637 0.25162
# Poissons Ratio (z) = 0.48384 0.11717
#
# Static dielectric constant tensor:
#      x y z
#    x 3.402190 0.000000 0.000000 
#    y 0.000000 2.832260 0.000000 
#    z 0.000000 0.000000 3.345530 
# 
# 
# High freq. dielectric constant tensor:
#      x y z
#    x 1.660140 0.000000 0.000000 
#    y 0.000000 1.607100 0.000000 
#    z 0.000000 0.000000 1.660860 
# 
# From -- ./inp_files/49571.got.cif
#   From: 2010.03.12/outbox.cif.g09.slc.cpg/sg63_25_cif.got.tgz:49571.got - 2010.04.10 19:34:48.
