data_PCOD8256660
_publ_section_title
;
Structure prediction by ZEFSAII (Michael W. Deem and Ramdas Pophale) SiO2 
 PCOD8256660
Probable space group: C M C M
;
_chemical_formula_sum "Si O2"
_cell_formula_units_Z 96
_cell_length_a 19.314703
_cell_length_b 30.887635
_cell_length_c 9.103206
_cell_angle_alpha 90.000000
_cell_angle_beta 90.000000
_cell_angle_gamma 90.000000
_cell_volume 5430.840670
_symmetry_space_group_name_H-M "C M C M"
_symmetry_group_IT_number 63
_symmetry_cell_setting 'orthorhombic'
loop_
_space_group_symop_operation_xyz
x,y,z
-x,-y,1/2+z
x,-y,-z
-x,y,1/2-z
-x,-y,-z
x,y,1/2-z
-x,y,z
x,-y,1/2+z
1/2+x,1/2+y,z
1/2-x,1/2-y,1/2+z
1/2+x,1/2-y,-z
1/2-x,1/2+y,1/2-z
1/2-x,1/2-y,-z
1/2+x,1/2+y,1/2-z
1/2-x,1/2+y,z
1/2+x,1/2-y,1/2+z
loop_
_atom_site_type_symbol
_atom_site_label
_atom_site_fract_x
_atom_site_fract_y
_atom_site_fract_z
Si Si1 0.827205 0.458218 0.415632
Si Si2 0.337651 0.458139 0.415769
Si Si3 0.581253 0.299892 0.082040
Si Si4 0.923411 0.297153 0.924339
Si Si5 0.835235 0.872231 0.578111
Si Si6 0.675352 0.127555 0.422520
O O1 0.857354 0.500000 0.500000
O O2 0.855935 0.458402 0.250000
O O3 0.744748 0.459856 0.416888
O O4 0.853134 0.415115 0.497085
O O5 0.367799 0.500000 0.500000
O O6 0.366505 0.458113 0.250000
O O7 0.363602 0.414916 0.496740
O O8 0.605525 0.307304 0.250000
O O9 0.500000 0.308859 0.068105
O O10 0.598824 0.251191 0.028388
O O11 0.621865 0.331205 0.974109
O O12 0.926185 0.298593 0.750000
O O13 0.868135 0.331755 0.984403
O O14 0.000000 0.308140 0.986882
O O15 0.846051 0.879429 0.750000
O O16 0.755180 0.863725 0.539247
O O17 0.664378 0.120543 0.250000
#
# Coordination Sequence:
#
# PCOD8256660 Si02
#       6
#    16  16  16  16  16  16
#     4   9  16  26  42  65  93 124 155 188 228 273
#     4   9  16  27  44  66  93 124 156 189 226 271
#     4   9  18  33  51  68  88 120 161 197 229 273
#     4   8  15  30  51  70  89 120 160 195 230 276
#     4  10  19  29  44  70 100 125 151 188 234 278
#     4   9  17  29  46  70  97 122 152 192 234 275
#
# _framework density 17.676819999999999
#
# number of rings (size 3 to 8) (size 9 to 14) (size 15 to 20)
#    0.000    3.000    0.000    2.500    0.000    5.667 
#    0.000    0.833    0.000    2.500    0.000    0.000 
#    0.000    0.000    0.000    0.000    0.000    0.000 
#
# Total GULP energy -595120.740395 kJ/mol
# GULP energy per Si atom -12398.348758 kJ/mol
# Density = 1.763659 g / cm^3
# Si number density = 17.676820 Si / 1000 Ang^3
#
#
#
# Elastic Constant Matrix: (Units=GPa)
#
#
# Indices 1 2 3 4 5 6 
#
# 1 40.1544 54.5834 29.8126 0.0000 0.0000 0.0000
# 2 54.5834 171.5211 66.7457 0.0000 0.0000 0.0000
# 3 29.8126 66.7457 90.1866 0.0000 0.0000 0.0000
# 4 0.0000 0.0000 0.0000 33.4221 0.0000 0.0000
# 5 0.0000 0.0000 0.0000 0.0000 12.5742 0.0000
# 6 0.0000 0.0000 0.0000 0.0000 0.0000 1.2047
#
#
#
# Elastic Compliance Matrix: (Units=1/GPa)
#
#
# Indices 1 2 3 4 5 6 
#
# 1 0.046211 -0.012305 -0.006169 0.000000 0.000000 0.000000
# 2 -0.012305 0.011465 -0.004417 0.000000 0.000000 0.000000
# 3 -0.006169 -0.004417 0.016397 0.000000 0.000000 0.000000
# 4 0.000000 0.000000 0.000000 0.029920 0.000000 0.000000
# 5 0.000000 0.000000 0.000000 0.000000 0.079528 0.000000
# 6 0.000000 0.000000 0.000000 0.000000 0.000000 0.830071
#
#
# Mechanical properties :
#
#
# Convention : Reuss Voigt Hill
#
# Bulk Modulus (GPa) = 35.34870 67.12727 51.23798
# Shear Modulus (GPa) = 4.67812 19.48824 12.08318
#
# Velocity S-wave (km/s) = 1.62856 3.32395 2.61734
# Velocity P-wave (km/s) = 4.85561 7.26559 6.17923
#
# Compressibility (1/GPa) = 0.02828958
#
# Stress axis : x y z
#
# Youngs Moduli (GPa) = 21.63991 87.22127 60.98819
#
# Poissons Ratio (x) = 1.07328 0.37623
# Poissons Ratio (y) = 0.26628 0.26941
# Poissons Ratio (z) = 0.13349 0.38530
#
# Static dielectric constant tensor:
#      x y z
#    x 2.979610 0.000000 0.000000 
#    y 0.000000 3.519060 0.000000 
#    z 0.000000 0.000000 3.203850 
# 
# 
# High freq. dielectric constant tensor:
#      x y z
#    x 1.638230 0.000000 0.000000 
#    y 0.000000 1.698860 0.000000 
#    z 0.000000 0.000000 1.674650 
# 
# From -- ./inp_files/8595.got.cif
#   From: 2010.03.12/outbox.cif.g09.slc.cpg/sg63_5_cif.got.tgz:8595.got - 2010.04.10 19:34:48.
