data_PCOD8256877
_publ_section_title
;
Structure prediction by ZEFSAII (Michael W. Deem and Ramdas Pophale) SiO2 
 PCOD8256877
Probable space group: C M C M
;
_chemical_formula_sum "Si O2"
_cell_formula_units_Z 88
_cell_length_a 18.137520
_cell_length_b 28.576137
_cell_length_c 9.311086
_cell_angle_alpha 90.000000
_cell_angle_beta 90.000000
_cell_angle_gamma 90.000000
_cell_volume 4825.938261
_symmetry_space_group_name_H-M "C M C M"
_symmetry_group_IT_number 63
_symmetry_cell_setting 'orthorhombic'
loop_
_space_group_symop_operation_xyz
x,y,z
-x,-y,1/2+z
x,-y,-z
-x,y,1/2-z
-x,-y,-z
x,y,1/2-z
-x,y,z
x,-y,1/2+z
1/2+x,1/2+y,z
1/2-x,1/2-y,1/2+z
1/2+x,1/2-y,-z
1/2-x,1/2+y,1/2-z
1/2-x,1/2-y,-z
1/2+x,1/2+y,1/2-z
1/2-x,1/2+y,z
1/2+x,1/2-y,1/2+z
loop_
_atom_site_type_symbol
_atom_site_label
_atom_site_fract_x
_atom_site_fract_y
_atom_site_fract_z
Si Si1 0.318848 0.692792 0.584527
Si Si2 0.670271 0.797191 0.914899
Si Si3 0.287319 0.951117 0.580273
Si Si4 0.000000 0.952289 0.917575
Si Si5 0.581283 0.114245 0.080720
Si Si6 0.641542 0.393726 0.917411
O O1 0.312250 0.678613 0.750000
O O2 0.357143 0.743740 0.566453
O O3 0.237806 0.692924 0.518584
O O4 0.367655 0.654672 0.502848
O O5 0.695687 0.806417 0.750000
O O6 0.605330 0.832779 0.958625
O O7 0.290081 0.960367 0.750000
O O8 0.359653 0.923547 0.523166
O O9 0.216451 0.920217 0.539143
O O10 0.282408 0.000000 0.500000
O O11 0.927435 0.924627 0.964417
O O12 0.000000 0.963206 0.750000
O O13 0.000000 0.000000 0.000000
O O14 0.576882 0.108834 0.250000
O O15 0.500000 0.104984 0.013090
O O16 0.640153 0.381808 0.750000
#
# Coordination Sequence:
#
# PCOD8256877 Si02
#       6
#    16  16  16   8  16  16
#     4  10  19  30  53  84 107 136 175 219 264 307
#     4   9  17  33  53  77 107 140 176 216 261 312
#     4  10  20  34  54  77 101 133 172 215 261 309
#     4  10  22  38  58  80 106 144 182 222 277 326
#     4   9  17  32  54  76 102 140 179 211 253 310
#     4  10  20  37  56  76 106 143 177 212 265 326
#
# _framework density 18.234795999999999
#
# number of rings (size 3 to 8) (size 9 to 14) (size 15 to 20)
#    0.000    2.364    1.818    1.091    0.000    2.545 
#    1.636    0.000    0.000    1.636    0.000    0.000 
#    0.000    0.000    0.000    0.000    0.000    0.000 
#
# Total GULP energy -545544.385719 kJ/mol
# GULP energy per Si atom -12398.736039 kJ/mol
# Density = 1.819329 g / cm^3
# Si number density = 18.234796 Si / 1000 Ang^3
#
#
#
# Elastic Constant Matrix: (Units=GPa)
#
#
# Indices 1 2 3 4 5 6 
#
# 1 98.0349 40.3394 25.6853 0.0000 0.0000 0.0000
# 2 40.3394 127.4009 52.4888 0.0000 0.0000 0.0000
# 3 25.6853 52.4888 52.2358 0.0000 0.0000 0.0000
# 4 0.0000 0.0000 0.0000 35.7788 0.0000 0.0000
# 5 0.0000 0.0000 0.0000 0.0000 11.7747 0.0000
# 6 0.0000 0.0000 0.0000 0.0000 0.0000 21.6337
#
#
#
# Elastic Compliance Matrix: (Units=1/GPa)
#
#
# Indices 1 2 3 4 5 6 
#
# 1 0.012110 -0.002357 -0.003586 0.000000 0.000000 0.000000
# 2 -0.002357 0.013853 -0.012761 0.000000 0.000000 0.000000
# 3 -0.003586 -0.012761 0.033731 0.000000 0.000000 0.000000
# 4 0.000000 0.000000 0.000000 0.027949 0.000000 0.000000
# 5 0.000000 0.000000 0.000000 0.000000 0.084928 0.000000
# 6 0.000000 0.000000 0.000000 0.000000 0.000000 0.046224
#
#
# Mechanical properties :
#
#
# Convention : Reuss Voigt Hill
#
# Bulk Modulus (GPa) = 44.87430 57.18874 51.03152
# Shear Modulus (GPa) = 18.96578 24.44798 21.70688
#
# Velocity S-wave (km/s) = 3.22854 3.66557 3.45397
# Velocity P-wave (km/s) = 6.20971 7.02465 6.62972
#
# Compressibility (1/GPa) = 0.02228447
#
# Stress axis : x y z
#
# Youngs Moduli (GPa) = 82.57726 72.18594 29.64663
#
# Poissons Ratio (x) = 0.17013 0.10633
# Poissons Ratio (y) = 0.19462 0.37833
# Poissons Ratio (z) = 0.29616 0.92119
#
# Static dielectric constant tensor:
#      x y z
#    x 3.361100 0.000000 0.000000 
#    y 0.000000 3.566530 0.000000 
#    z 0.000000 0.000000 3.336260 
# 
# 
# High freq. dielectric constant tensor:
#      x y z
#    x 1.696470 0.000000 0.000000 
#    y 0.000000 1.720940 0.000000 
#    z 0.000000 0.000000 1.685040 
# 
# From -- ./inp_files/6771.got.cif
#   From: 2010.03.12/outbox.cif.g09.slc.cpg/sg63_4_cif.got.tgz:6771.got - 2010.04.10 19:34:48.
