data_PCOD8256968
_publ_section_title
;
Structure prediction by ZEFSAII (Michael W. Deem and Ramdas Pophale) SiO2 
 PCOD8256968
Probable space group: C M C M
;
_chemical_formula_sum "Si O2"
_cell_formula_units_Z 96
_cell_length_a 9.093116
_cell_length_b 22.850420
_cell_length_c 26.230071
_cell_angle_alpha 90.000000
_cell_angle_beta 90.000000
_cell_angle_gamma 90.000000
_cell_volume 5450.124014
_symmetry_space_group_name_H-M "C M C M"
_symmetry_group_IT_number 63
_symmetry_cell_setting 'orthorhombic'
loop_
_space_group_symop_operation_xyz
x,y,z
-x,-y,1/2+z
x,-y,-z
-x,y,1/2-z
-x,-y,-z
x,y,1/2-z
-x,y,z
x,-y,1/2+z
1/2+x,1/2+y,z
1/2-x,1/2-y,1/2+z
1/2+x,1/2-y,-z
1/2-x,1/2+y,1/2-z
1/2-x,1/2-y,-z
1/2+x,1/2+y,1/2-z
1/2-x,1/2+y,z
1/2+x,1/2-y,1/2+z
loop_
_atom_site_type_symbol
_atom_site_label
_atom_site_fract_x
_atom_site_fract_y
_atom_site_fract_z
Si Si1 0.334848 0.147208 0.250000
Si Si2 0.326890 0.038243 0.951486
Si Si3 0.336424 0.171869 0.539499
Si Si4 0.172379 0.010367 0.147951
Si Si5 0.664117 0.223590 0.072546
Si Si6 0.332632 0.008006 0.250000
Si Si7 0.170462 0.853062 0.650984
O O1 0.500000 0.171356 0.250000
O O2 0.329830 0.077585 0.250000
O O3 0.252867 0.171668 0.299492
O O4 0.500000 0.029453 0.941885
O O5 0.283272 0.105049 0.963094
O O6 0.240045 0.020197 0.901210
O O7 0.275271 0.000000 0.000000
O O8 0.500000 0.175073 0.563456
O O9 0.339394 0.198557 0.483730
O O10 0.226107 0.210116 0.574054
O O11 0.249410 0.985388 0.199229
O O12 0.203708 0.078971 0.142266
O O13 0.000000 0.996561 0.151637
O O14 0.500000 0.223889 0.096075
O O15 0.771806 0.181458 0.102693
O O16 0.500000 0.984288 0.250000
O O17 0.000000 0.840849 0.658647
#
# Coordination Sequence:
#
# PCOD8256968 Si02
#       7
#     8  16  16  16  16   8  16
#     4   9  17  29  47  72  99 126 161 203 242 286
#     4  10  20  34  52  74 103 137 170 205 247 299
#     4   9  19  34  50  71  99 130 164 202 245 291
#     4  10  20  32  49  75 105 134 166 208 253 296
#     4  10  19  32  52  73  95 127 166 205 242 288
#     4   9  17  31  51  72  97 132 171 207 246 296
#     4  10  19  31  48  72 102 132 161 198 247 294
#
# _framework density 17.614277999999999
#
# number of rings (size 3 to 8) (size 9 to 14) (size 15 to 20)
#    0.000    2.333    0.000    3.000    0.000    7.000 
#    0.000    0.000    0.000    1.000    0.000    1.167 
#    0.000    0.000    0.000    0.000    0.000    0.000 
#
# Total GULP energy -595204.245886 kJ/mol
# GULP energy per Si atom -12400.088456 kJ/mol
# Density = 1.757419 g / cm^3
# Si number density = 17.614278 Si / 1000 Ang^3
#
#
#
# Elastic Constant Matrix: (Units=GPa)
#
#
# Indices 1 2 3 4 5 6 
#
# 1 93.6815 54.2896 42.3201 0.0000 0.0000 0.0000
# 2 54.2896 82.9760 31.0914 0.0000 0.0000 0.0000
# 3 42.3201 31.0914 72.8885 0.0000 0.0000 0.0000
# 4 0.0000 0.0000 0.0000 14.3140 0.0000 0.0000
# 5 0.0000 0.0000 0.0000 0.0000 34.7407 0.0000
# 6 0.0000 0.0000 0.0000 0.0000 0.0000 23.3440
#
#
#
# Elastic Compliance Matrix: (Units=1/GPa)
#
#
# Indices 1 2 3 4 5 6 
#
# 1 0.019891 -0.010340 -0.007139 0.000000 0.000000 0.000000
# 2 -0.010340 0.019719 -0.002408 0.000000 0.000000 0.000000
# 3 -0.007139 -0.002408 0.018892 0.000000 0.000000 0.000000
# 4 0.000000 0.000000 0.000000 0.069862 0.000000 0.000000
# 5 0.000000 0.000000 0.000000 0.000000 0.028785 0.000000
# 6 0.000000 0.000000 0.000000 0.000000 0.000000 0.042837
#
#
# Mechanical properties :
#
#
# Convention : Reuss Voigt Hill
#
# Bulk Modulus (GPa) = 53.39254 56.10534 54.74894
# Shear Modulus (GPa) = 20.32509 22.60273 21.46391
#
# Velocity S-wave (km/s) = 3.40059 3.58607 3.49456
# Velocity P-wave (km/s) = 6.76732 7.00485 6.88711
#
# Compressibility (1/GPa) = 0.01872921
#
# Stress axis : x y z
#
# Youngs Moduli (GPa) = 50.27345 50.71263 52.93367
#
# Poissons Ratio (x) = 0.52435 0.37788
# Poissons Ratio (y) = 0.51980 0.12747
# Poissons Ratio (z) = 0.35889 0.12212
#
# Static dielectric constant tensor:
#      x y z
#    x 3.506700 0.000000 0.000000 
#    y 0.000000 3.108750 0.000000 
#    z 0.000000 0.000000 3.265810 
# 
# 
# High freq. dielectric constant tensor:
#      x y z
#    x 1.694450 0.000000 0.000000 
#    y 0.000000 1.653370 0.000000 
#    z 0.000000 0.000000 1.677640 
# 
# From -- ./inp_files/60040.got.cif
#   From: 2010.03.12/outbox.cif.g09.slc.cpg/sg63_31_cif.got.tgz:60040.got - 2010.04.10 19:34:48.
