data_PCOD8256134
_publ_section_title
;
Structure prediction by ZEFSAII (Michael W. Deem and Ramdas Pophale) SiO2 
 PCOD8256134
Probable space group: C M C M
;
_chemical_formula_sum "Si O2"
_cell_formula_units_Z 80
_cell_length_a 21.084076
_cell_length_b 19.967898
_cell_length_c 10.484627
_cell_angle_alpha 90.000000
_cell_angle_beta 90.000000
_cell_angle_gamma 90.000000
_cell_volume 4414.077024
_symmetry_space_group_name_H-M "C M C M"
_symmetry_group_IT_number 63
_symmetry_cell_setting 'orthorhombic'
loop_
_space_group_symop_operation_xyz
x,y,z
-x,-y,1/2+z
x,-y,-z
-x,y,1/2-z
-x,-y,-z
x,y,1/2-z
-x,y,z
x,-y,1/2+z
1/2+x,1/2+y,z
1/2-x,1/2-y,1/2+z
1/2+x,1/2-y,-z
1/2-x,1/2+y,1/2-z
1/2-x,1/2-y,-z
1/2+x,1/2+y,1/2-z
1/2-x,1/2+y,z
1/2+x,1/2-y,1/2+z
loop_
_atom_site_type_symbol
_atom_site_label
_atom_site_fract_x
_atom_site_fract_y
_atom_site_fract_z
Si Si1 0.759085 0.319458 0.750000
Si Si2 0.638741 0.402191 0.750000
Si Si3 0.070853 0.248255 0.603877
Si Si4 0.806061 0.694586 0.999669
Si Si5 0.351613 0.451301 0.250000
Si Si6 0.071161 0.901490 0.020662
Si Si7 0.755102 0.338480 0.250000
O O1 0.685463 0.338605 0.750000
O O2 0.792930 0.350361 0.625175
O O3 0.770193 0.238273 0.750000
O O4 0.676921 0.473173 0.750000
O O5 0.597595 0.396295 0.622210
O O6 0.087848 0.267219 0.750000
O O7 0.122445 0.277811 0.505905
O O8 0.073084 0.169204 0.590948
O O9 0.000000 0.274752 0.569018
O O10 0.799063 0.649428 0.873862
O O11 0.750000 0.750000 0.000000
O O12 0.391562 0.449883 0.381949
O O13 0.300685 0.392147 0.250000
O O14 0.000000 0.929026 0.010302
#
# Coordination Sequence:
#
# PCOD8256134 Si02
#       7
#     8   8  16  16   8  16   8
#     4  10  18  33  52  73  98 133 176 224 273 321
#     4  12  25  36  50  78 111 138 184 245 278 311
#     4  10  19  34  56  82 112 145 188 232 273 325
#     4  10  18  30  52  78 104 136 181 223 272 329
#     4  12  23  38  54  74 105 146 192 227 276 329
#     4  11  22  36  53  71 102 152 196 228 264 315
#     4  10  20  33  54  75 100 135 176 224 273 337
#
# _framework density 18.123833999999999
#
# number of rings (size 3 to 8) (size 9 to 14) (size 15 to 20)
#    0.000    1.400    2.000    7.200    0.000    2.400 
#    0.000    1.500    0.000    0.000    0.000    0.000 
#    0.000    4.800    0.000    0.000    0.000    0.000 
#
# Total GULP energy -495597.707041 kJ/mol
# GULP energy per Si atom -12389.942676 kJ/mol
# Density = 1.808258 g / cm^3
# Si number density = 18.123834 Si / 1000 Ang^3
#
#
#
# Elastic Constant Matrix: (Units=GPa)
#
#
# Indices 1 2 3 4 5 6 
#
# 1 111.1781 32.9602 35.0764 0.0000 0.0000 0.0000
# 2 32.9602 43.7852 9.2121 0.0000 0.0000 0.0000
# 3 35.0764 9.2121 146.8495 0.0000 0.0000 0.0000
# 4 0.0000 0.0000 0.0000 8.7958 0.0000 0.0000
# 5 0.0000 0.0000 0.0000 0.0000 31.5477 0.0000
# 6 0.0000 0.0000 0.0000 0.0000 0.0000 7.7564
#
#
#
# Elastic Compliance Matrix: (Units=1/GPa)
#
#
# Indices 1 2 3 4 5 6 
#
# 1 0.012361 -0.008800 -0.002400 0.000000 0.000000 0.000000
# 2 -0.008800 0.029409 0.000257 0.000000 0.000000 0.000000
# 3 -0.002400 0.000257 0.007367 0.000000 0.000000 0.000000
# 4 0.000000 0.000000 0.000000 0.113690 0.000000 0.000000
# 5 0.000000 0.000000 0.000000 0.000000 0.031698 0.000000
# 6 0.000000 0.000000 0.000000 0.000000 0.000000 0.128927
#
#
# Mechanical properties :
#
#
# Convention : Reuss Voigt Hill
#
# Bulk Modulus (GPa) = 36.69697 50.70113 43.69905
# Shear Modulus (GPa) = 14.10751 24.59091 19.34921
#
# Velocity S-wave (km/s) = 2.79300 3.68751 3.27098
# Velocity P-wave (km/s) = 5.54013 6.79455 6.19915
#
# Compressibility (1/GPa) = 0.02725020
#
# Stress axis : x y z
#
# Youngs Moduli (GPa) = 80.90156 34.00339 135.74155
#
# Poissons Ratio (x) = 0.29922 0.32584
# Poissons Ratio (y) = 0.71191 -0.03489
# Poissons Ratio (z) = 0.19420 -0.00874
#
# Static dielectric constant tensor:
#      x y z
#    x 3.411470 0.000000 0.000000 
#    y 0.000000 2.952640 0.000000 
#    z 0.000000 0.000000 4.692940 
# 
# 
# High freq. dielectric constant tensor:
#      x y z
#    x 1.692100 0.000000 0.000000 
#    y 0.000000 1.643760 0.000000 
#    z 0.000000 0.000000 1.736190 
# 
# From -- ./inp_files/21084.got.cif
#   From: 2010.03.12/outbox.cif.g09.slc.cpg/sg63_11_cif.got.tgz:21084.got - 2010.04.10 19:34:48.
