data_PCOD8256867
_publ_section_title
;
Structure prediction by ZEFSAII (Michael W. Deem and Ramdas Pophale) SiO2 
 PCOD8256867
Probable space group: C M C M
;
_chemical_formula_sum "Si O2"
_cell_formula_units_Z 80
_cell_length_a 14.204427
_cell_length_b 12.049549
_cell_length_c 23.760577
_cell_angle_alpha 90.000000
_cell_angle_beta 90.000000
_cell_angle_gamma 90.000000
_cell_volume 4066.787632
_symmetry_space_group_name_H-M "C M C M"
_symmetry_group_IT_number 63
_symmetry_cell_setting 'orthorhombic'
loop_
_space_group_symop_operation_xyz
x,y,z
-x,-y,1/2+z
x,-y,-z
-x,y,1/2-z
-x,-y,-z
x,y,1/2-z
-x,y,z
x,-y,1/2+z
1/2+x,1/2+y,z
1/2-x,1/2-y,1/2+z
1/2+x,1/2-y,-z
1/2-x,1/2+y,1/2-z
1/2-x,1/2-y,-z
1/2+x,1/2+y,1/2-z
1/2-x,1/2+y,z
1/2+x,1/2-y,1/2+z
loop_
_atom_site_type_symbol
_atom_site_label
_atom_site_fract_x
_atom_site_fract_y
_atom_site_fract_z
Si Si1 0.896837 0.935454 0.942196
Si Si2 0.603751 0.777830 0.604912
Si Si3 0.892986 0.517588 0.314844
Si Si4 0.651516 0.796345 0.483105
Si Si5 0.752398 0.581568 0.891798
O O1 0.901458 0.803055 0.950533
O O2 0.000000 0.970923 0.918608
O O3 0.811559 0.971347 0.901056
O O4 0.877002 0.000000 0.000000
O O5 0.500000 0.727436 0.617040
O O6 0.626276 0.873352 0.648918
O O7 0.600419 0.829022 0.541389
O O8 0.682206 0.684702 0.613337
O O9 0.874509 0.545402 0.250000
O O10 0.815185 0.428532 0.335372
O O11 0.000000 0.473616 0.323785
O O12 0.750000 0.750000 0.500000
O O13 0.670475 0.901011 0.442037
#
# Coordination Sequence:
#
# PCOD8256867 Si02
#       5
#    16  16  16  16  16
#     4  11  20  32  53  84 124 153 172 213 274 336
#     4  10  20  35  57  83 113 145 181 224 271 333
#     4  10  24  43  58  76 105 145 192 242 288 321
#     4  10  19  30  50  86 118 145 178 215 266 331
#     4  11  21  35  59  84 113 147 189 224 272 338
#
# _framework density 19.671545999999999
#
# number of rings (size 3 to 8) (size 9 to 14) (size 15 to 20)
#    0.000    1.600    4.000    3.600    0.000    2.400 
#    0.000    2.000    0.000    1.800    0.000    0.000 
#    0.000    0.000    0.000    0.000    0.000    0.000 
#
# Total GULP energy -495650.066346 kJ/mol
# GULP energy per Si atom -12391.251659 kJ/mol
# Density = 1.962677 g / cm^3
# Si number density = 19.671546 Si / 1000 Ang^3
#
#
#
# Elastic Constant Matrix: (Units=GPa)
#
#
# Indices 1 2 3 4 5 6 
#
# 1 122.0949 41.3352 54.5778 0.0000 0.0000 0.0000
# 2 41.3352 58.8917 46.5561 0.0000 0.0000 0.0000
# 3 54.5778 46.5561 102.1255 0.0000 0.0000 0.0000
# 4 0.0000 0.0000 0.0000 18.2174 0.0000 0.0000
# 5 0.0000 0.0000 0.0000 0.0000 30.0236 0.0000
# 6 0.0000 0.0000 0.0000 0.0000 0.0000 28.4262
#
#
#
# Elastic Compliance Matrix: (Units=1/GPa)
#
#
# Indices 1 2 3 4 5 6 
#
# 1 0.011663 -0.005095 -0.003910 0.000000 0.000000 0.000000
# 2 -0.005095 0.028773 -0.010394 0.000000 0.000000 0.000000
# 3 -0.003910 -0.010394 0.016620 0.000000 0.000000 0.000000
# 4 0.000000 0.000000 0.000000 0.054893 0.000000 0.000000
# 5 0.000000 0.000000 0.000000 0.000000 0.033307 0.000000
# 6 0.000000 0.000000 0.000000 0.000000 0.000000 0.035179
#
#
# Mechanical properties :
#
#
# Convention : Reuss Voigt Hill
#
# Bulk Modulus (GPa) = 54.77142 63.11672 58.94407
# Shear Modulus (GPa) = 22.19067 24.70965 23.45016
#
# Velocity S-wave (km/s) = 3.36230 3.54801 3.45640
# Velocity P-wave (km/s) = 6.55567 6.99567 6.77924
#
# Compressibility (1/GPa) = 0.01825770
#
# Stress axis : x y z
#
# Youngs Moduli (GPa) = 85.73949 34.75443 60.16826
#
# Poissons Ratio (x) = 0.17707 0.23528
# Poissons Ratio (y) = 0.43683 0.62540
# Poissons Ratio (z) = 0.33528 0.36124
#
# Static dielectric constant tensor:
#      x y z
#    x 4.121640 0.000000 0.000000 
#    y 0.000000 3.105160 0.000000 
#    z 0.000000 0.000000 3.744400 
# 
# 
# High freq. dielectric constant tensor:
#      x y z
#    x 1.791220 0.000000 0.000000 
#    y 0.000000 1.749220 0.000000 
#    z 0.000000 0.000000 1.726410 
# 
# From -- ./inp_files/62567.got.cif
#   From: 2010.03.12/outbox.cif.g09.slc.cpg/sg63_32_cif.got.tgz:62567.got - 2010.04.10 19:34:48.
