data_PCOD8256730
_publ_section_title
;
Structure prediction by ZEFSAII (Michael W. Deem and Ramdas Pophale) SiO2 
 PCOD8256730
Probable space group: C M C M
;
_chemical_formula_sum "Si O2"
_cell_formula_units_Z 112
_cell_length_a 8.735050
_cell_length_b 25.388925
_cell_length_c 29.552945
_cell_angle_alpha 90.000000
_cell_angle_beta 90.000000
_cell_angle_gamma 90.000000
_cell_volume 6554.060914
_symmetry_space_group_name_H-M "C M C M"
_symmetry_group_IT_number 63
_symmetry_cell_setting 'orthorhombic'
loop_
_space_group_symop_operation_xyz
x,y,z
-x,-y,1/2+z
x,-y,-z
-x,y,1/2-z
-x,-y,-z
x,y,1/2-z
-x,y,z
x,-y,1/2+z
1/2+x,1/2+y,z
1/2-x,1/2-y,1/2+z
1/2+x,1/2-y,-z
1/2-x,1/2+y,1/2-z
1/2-x,1/2-y,-z
1/2+x,1/2+y,1/2-z
1/2-x,1/2+y,z
1/2+x,1/2-y,1/2+z
loop_
_atom_site_type_symbol
_atom_site_label
_atom_site_fract_x
_atom_site_fract_y
_atom_site_fract_z
Si Si1 0.682254 0.016967 0.893291
Si Si2 0.681848 0.183795 0.391338
Si Si3 0.318848 0.888240 0.046094
Si Si4 0.317945 0.142116 0.299103
Si Si5 0.181740 0.584131 0.053664
Si Si6 0.819082 0.225211 0.955124
Si Si7 0.818076 0.477196 0.700570
O O1 0.500000 0.014146 0.894549
O O2 0.737174 0.072131 0.914529
O O3 0.743161 0.012625 0.841321
O O4 0.748450 0.968605 0.923133
O O5 0.500000 0.179999 0.391614
O O6 0.744766 0.178951 0.339737
O O7 0.748060 0.135370 0.420794
O O8 0.735401 0.238893 0.412810
O O9 0.500000 0.879239 0.046643
O O10 0.238644 0.832971 0.054843
O O11 0.265907 0.913156 0.998449
O O12 0.258506 0.162704 0.250000
O O13 0.500000 0.142255 0.299388
O O14 0.260509 0.082465 0.307102
O O15 0.000000 0.583415 0.056872
O O16 0.000000 0.225492 0.960460
O O17 0.750000 0.250000 0.000000
O O18 0.759366 0.497913 0.750000
O O19 0.000000 0.477885 0.700353
#
# Coordination Sequence:
#
# PCOD8256730 Si02
#       7
#    16  16  16  16  16  16  16
#     4   9  15  23  39  62  88 116 147 181 218 264
#     4   9  15  24  40  61  86 112 142 181 223 261
#     4  10  19  30  44  65  90 120 153 182 213 258
#     4   8  12  19  34  58  87 113 136 172 227 276
#     4   9  14  23  39  62  87 111 143 181 218 257
#     4  11  21  33  48  65  87 119 153 187 222 261
#     4   8  12  18  31  55  86 114 137 170 220 267
#
# _framework density 17.088640999999999
#
# number of rings (size 3 to 8) (size 9 to 14) (size 15 to 20)
#    0.000    2.857    2.857    1.714    0.000    1.714 
#    0.000    0.000    0.000    2.571    0.000    0.000 
#    0.000    1.714    0.000    7.000    0.000    6.143 
#
# Total GULP energy -693884.787816 kJ/mol
# GULP energy per Si atom -12390.799782 kJ/mol
# Density = 1.704975 g / cm^3
# Si number density = 17.088641 Si / 1000 Ang^3
#
#
#
# Elastic Constant Matrix: (Units=GPa)
#
#
# Indices 1 2 3 4 5 6 
#
# 1 14.9084 18.8559 17.3177 0.0000 0.0000 0.0000
# 2 18.8559 135.9687 92.3733 0.0000 0.0000 0.0000
# 3 17.3177 92.3733 190.3603 0.0000 0.0000 0.0000
# 4 0.0000 0.0000 0.0000 28.5588 0.0000 0.0000
# 5 0.0000 0.0000 0.0000 0.0000 6.9006 0.0000
# 6 0.0000 0.0000 0.0000 0.0000 0.0000 18.6397
#
#
#
# Elastic Compliance Matrix: (Units=1/GPa)
#
#
# Indices 1 2 3 4 5 6 
#
# 1 0.082411 -0.009451 -0.002911 0.000000 0.000000 0.000000
# 2 -0.009451 0.012055 -0.004990 0.000000 0.000000 0.000000
# 3 -0.002911 -0.004990 0.007940 0.000000 0.000000 0.000000
# 4 0.000000 0.000000 0.000000 0.035016 0.000000 0.000000
# 5 0.000000 0.000000 0.000000 0.000000 0.144916 0.000000
# 6 0.000000 0.000000 0.000000 0.000000 0.000000 0.053649
#
#
# Mechanical properties :
#
#
# Convention : Reuss Voigt Hill
#
# Bulk Modulus (GPa) = 14.77065 66.48124 40.62594
# Shear Modulus (GPa) = 12.71429 24.99919 18.85674
#
# Velocity S-wave (km/s) = 2.73063 3.82895 3.32545
# Velocity P-wave (km/s) = 4.31325 7.65089 6.21048
#
# Compressibility (1/GPa) = 0.06770185
#
# Stress axis : x y z
#
# Youngs Moduli (GPa) = 12.13426 82.94995 125.95186
#
# Poissons Ratio (x) = 0.78396 0.36666
# Poissons Ratio (y) = 0.11468 0.62852
# Poissons Ratio (z) = 0.03532 0.41394
#
# Static dielectric constant tensor:
#      x y z
#    x 2.551480 0.000000 0.000000 
#    y 0.000000 3.222480 0.000000 
#    z 0.000000 0.000000 3.777240 
# 
# 
# High freq. dielectric constant tensor:
#      x y z
#    x 1.590320 0.000000 0.000000 
#    y 0.000000 1.641770 0.000000 
#    z 0.000000 0.000000 1.673870 
# 
# From -- ./inp_files/68755.got.cif
#   From: 2010.03.12/outbox.cif.g09.slc.cpg/sg63_35_cif.got.tgz:68755.got - 2010.04.10 19:34:48.
