data_PCOD8256276
_publ_section_title
;
Structure prediction by ZEFSAII (Michael W. Deem and Ramdas Pophale) SiO2 
 PCOD8256276
Probable space group: C M C M
;
_chemical_formula_sum "Si O2"
_cell_formula_units_Z 80
_cell_length_a 17.604733
_cell_length_b 18.856938
_cell_length_c 13.528090
_cell_angle_alpha 90.000000
_cell_angle_beta 90.000000
_cell_angle_gamma 90.000000
_cell_volume 4490.938418
_symmetry_space_group_name_H-M "C M C M"
_symmetry_group_IT_number 63
_symmetry_cell_setting 'orthorhombic'
loop_
_space_group_symop_operation_xyz
x,y,z
-x,-y,1/2+z
x,-y,-z
-x,y,1/2-z
-x,-y,-z
x,y,1/2-z
-x,y,z
x,-y,1/2+z
1/2+x,1/2+y,z
1/2-x,1/2-y,1/2+z
1/2+x,1/2-y,-z
1/2-x,1/2+y,1/2-z
1/2-x,1/2-y,-z
1/2+x,1/2+y,1/2-z
1/2-x,1/2+y,z
1/2+x,1/2-y,1/2+z
loop_
_atom_site_type_symbol
_atom_site_label
_atom_site_fract_x
_atom_site_fract_y
_atom_site_fract_z
Si Si1 0.724503 0.578273 0.469163
Si Si2 0.765775 0.324738 0.139093
Si Si3 0.084851 0.284548 0.046779
Si Si4 0.825816 0.684361 0.362137
Si Si5 0.415013 0.630494 0.364178
O O1 0.749843 0.500000 0.500000
O O2 0.716526 0.625459 0.567975
O O3 0.788681 0.610434 0.396828
O O4 0.643792 0.575233 0.412445
O O5 0.753828 0.352429 0.250000
O O6 0.854837 0.329471 0.110760
O O7 0.739726 0.243512 0.126795
O O8 0.090568 0.202894 0.075602
O O9 0.000000 0.313570 0.067727
O O10 0.103105 0.294005 0.930397
O O11 0.855213 0.677697 0.250000
O O12 0.393432 0.645005 0.250000
O O13 0.500000 0.598501 0.372254
#
# Coordination Sequence:
#
# PCOD8256276 Si02
#       5
#    16  16  16  16  16
#     4  11  21  34  53  77 107 141 179 218 260 311
#     4  10  19  34  54  77 103 135 178 223 262 303
#     4  10  18  31  54  82 106 132 171 217 264 310
#     4  10  19  35  56  77 104 138 177 221 265 311
#     4  10  19  32  52  78 109 144 179 212 252 308
#
# _framework density 17.813649000000002
#
# number of rings (size 3 to 8) (size 9 to 14) (size 15 to 20)
#    0.000    1.800    4.000    2.400    0.000    3.600 
#    0.000    0.000    0.000   10.200    0.000   11.200 
#    0.000    0.000    0.000    0.000    0.000    0.000 
#
# Total GULP energy -495990.531331 kJ/mol
# GULP energy per Si atom -12399.763283 kJ/mol
# Density = 1.777310 g / cm^3
# Si number density = 17.813649 Si / 1000 Ang^3
#
#
#
# Elastic Constant Matrix: (Units=GPa)
#
#
# Indices 1 2 3 4 5 6 
#
# 1 82.5364 19.4158 21.6353 0.0000 0.0000 0.0000
# 2 19.4158 78.9157 36.1137 0.0000 0.0000 0.0000
# 3 21.6353 36.1137 109.9691 0.0000 0.0000 0.0000
# 4 0.0000 0.0000 0.0000 16.7594 0.0000 0.0000
# 5 0.0000 0.0000 0.0000 0.0000 24.8353 0.0000
# 6 0.0000 0.0000 0.0000 0.0000 0.0000 10.5876
#
#
#
# Elastic Compliance Matrix: (Units=1/GPa)
#
#
# Indices 1 2 3 4 5 6 
#
# 1 0.013154 -0.002415 -0.001795 0.000000 0.000000 0.000000
# 2 -0.002415 0.015356 -0.004568 0.000000 0.000000 0.000000
# 3 -0.001795 -0.004568 0.010947 0.000000 0.000000 0.000000
# 4 0.000000 0.000000 0.000000 0.059668 0.000000 0.000000
# 5 0.000000 0.000000 0.000000 0.000000 0.040265 0.000000
# 6 0.000000 0.000000 0.000000 0.000000 0.000000 0.094450
#
#
# Mechanical properties :
#
#
# Convention : Reuss Voigt Hill
#
# Bulk Modulus (GPa) = 45.65825 47.30563 46.48194
# Shear Modulus (GPa) = 19.32766 23.38690 21.35728
#
# Velocity S-wave (km/s) = 3.29749 3.62728 3.46631
# Velocity P-wave (km/s) = 6.33914 6.64502 6.49388
#
# Compressibility (1/GPa) = 0.02190184
#
# Stress axis : x y z
#
# Youngs Moduli (GPa) = 76.01972 65.11995 91.35203
#
# Poissons Ratio (x) = 0.15727 0.16397
# Poissons Ratio (y) = 0.18359 0.41728
# Poissons Ratio (z) = 0.13645 0.29746
#
# Static dielectric constant tensor:
#      x y z
#    x 3.337740 0.000000 0.000000 
#    y 0.000000 2.892300 0.000000 
#    z 0.000000 0.000000 3.528570 
# 
# 
# High freq. dielectric constant tensor:
#      x y z
#    x 1.681130 0.000000 0.000000 
#    y 0.000000 1.646060 0.000000 
#    z 0.000000 0.000000 1.706380 
# 
# From -- ./inp_files/31670.got.cif
#   From: 2010.03.12/outbox.cif.g09.slc.cpg/sg63_16_cif.got.tgz:31670.got - 2010.04.10 19:34:48.
