data_PCOD8256533
_publ_section_title
;
Structure prediction by ZEFSAII (Michael W. Deem and Ramdas Pophale) SiO2 
 PCOD8256533
Probable space group: C M C M
;
_chemical_formula_sum "Si O2"
_cell_formula_units_Z 84
_cell_length_a 12.839265
_cell_length_b 18.434561
_cell_length_c 21.190437
_cell_angle_alpha 90.000000
_cell_angle_beta 90.000000
_cell_angle_gamma 90.000000
_cell_volume 5015.484303
_symmetry_space_group_name_H-M "C M C M"
_symmetry_group_IT_number 63
_symmetry_cell_setting 'orthorhombic'
loop_
_space_group_symop_operation_xyz
x,y,z
-x,-y,1/2+z
x,-y,-z
-x,y,1/2-z
-x,-y,-z
x,y,1/2-z
-x,y,z
x,-y,1/2+z
1/2+x,1/2+y,z
1/2-x,1/2-y,1/2+z
1/2+x,1/2-y,-z
1/2-x,1/2+y,1/2-z
1/2-x,1/2-y,-z
1/2+x,1/2+y,1/2-z
1/2-x,1/2+y,z
1/2+x,1/2-y,1/2+z
loop_
_atom_site_type_symbol
_atom_site_label
_atom_site_fract_x
_atom_site_fract_y
_atom_site_fract_z
Si Si1 0.500000 0.081711 0.250000
Si Si2 0.000000 0.779246 0.434215
Si Si3 0.500000 0.879410 0.887116
Si Si4 0.210421 0.827637 0.020141
Si Si5 0.381636 0.941713 0.250000
Si Si6 0.724812 0.577987 0.862534
Si Si7 0.698349 0.952324 0.558285
Si Si8 0.500000 0.623694 0.678327
O O1 0.500000 0.133797 0.311505
O O2 0.397238 0.029289 0.250000
O O3 0.000000 0.692123 0.430881
O O4 0.089144 0.815947 0.474354
O O5 0.000000 0.802673 0.361424
O O6 0.399996 0.926695 0.902405
O O7 0.251485 0.857087 0.087993
O O8 0.250000 0.750000 0.000000
O O9 0.234070 0.884212 0.964741
O O10 0.500000 0.906667 0.250000
O O11 0.314975 0.915884 0.189796
O O12 0.728537 0.500554 0.897171
O O13 0.606853 0.579915 0.835728
O O14 0.656748 0.000000 0.500000
O O15 0.500000 0.648427 0.750000
#
# Coordination Sequence:
#
# PCOD8256533 Si02
#       8
#     4   8   8  16   8  16  16   8
#     4  10  22  30  52  80 118 138 168 218 278 312
#     4  10  22  34  52  78 108 141 186 216 274 321
#     4  12  19  34  52  80 113 142 172 223 274 329
#     4  10  20  37  53  78 109 144 176 223 270 326
#     4  10  18  35  52  81 118 138 176 222 270 330
#     4  10  20  35  56  82 106 142 185 224 268 321
#     4  10  20  33  55  80 108 136 180 222 273 322
#     4  10  20  35  56  75 104 144 187 224 256 312
#
# _framework density 16.748134
#
# number of rings (size 3 to 8) (size 9 to 14) (size 15 to 20)
#    0.286    1.524    4.762    0.286    0.667    0.762 
#    3.429    3.810    0.000    0.000    0.000    0.000 
#    0.000    0.000    0.000    0.000    0.000    0.000 
#
# Total GULP energy -520413.887872 kJ/mol
# GULP energy per Si atom -12390.806854 kJ/mol
# Density = 1.671001 g / cm^3
# Si number density = 16.748134 Si / 1000 Ang^3
#
#
#
# Elastic Constant Matrix: (Units=GPa)
#
#
# Indices 1 2 3 4 5 6 
#
# 1 118.6016 41.3201 55.0538 0.0000 0.0000 0.0000
# 2 41.3201 96.8908 41.2638 0.0000 0.0000 0.0000
# 3 55.0538 41.2638 101.2381 0.0000 0.0000 0.0000
# 4 0.0000 0.0000 0.0000 24.5609 0.0000 0.0000
# 5 0.0000 0.0000 0.0000 0.0000 89.1513 0.0000
# 6 0.0000 0.0000 0.0000 0.0000 0.0000 22.4348
#
#
#
# Elastic Compliance Matrix: (Units=1/GPa)
#
#
# Indices 1 2 3 4 5 6 
#
# 1 0.011875 -0.002800 -0.005316 0.000000 0.000000 0.000000
# 2 -0.002800 0.013149 -0.003837 0.000000 0.000000 0.000000
# 3 -0.005316 -0.003837 0.014333 0.000000 0.000000 0.000000
# 4 0.000000 0.000000 0.000000 0.040715 0.000000 0.000000
# 5 0.000000 0.000000 0.000000 0.000000 0.011217 0.000000
# 6 0.000000 0.000000 0.000000 0.000000 0.000000 0.044574
#
#
# Mechanical properties :
#
#
# Convention : Reuss Voigt Hill
#
# Bulk Modulus (GPa) = 64.72409 65.77844 65.25126
# Shear Modulus (GPa) = 30.31797 39.16889 34.74343
#
# Velocity S-wave (km/s) = 4.25930 4.84126 4.55957
# Velocity P-wave (km/s) = 7.93210 8.40302 8.17095
#
# Compressibility (1/GPa) = 0.01545020
#
# Stress axis : x y z
#
# Youngs Moduli (GPa) = 84.21105 76.05141 69.77100
#
# Poissons Ratio (x) = 0.21295 0.37093
# Poissons Ratio (y) = 0.23580 0.26769
# Poissons Ratio (z) = 0.44770 0.29179
#
# Static dielectric constant tensor:
#      x y z
#    x 3.164800 0.000000 0.000000 
#    y 0.000000 3.161660 0.000000 
#    z 0.000000 0.000000 3.167090 
# 
# 
# High freq. dielectric constant tensor:
#      x y z
#    x 1.647250 0.000000 0.000000 
#    y 0.000000 1.636210 0.000000 
#    z 0.000000 0.000000 1.653300 
# 
# From -- ./inp_files/52830.got.cif
#   From: 2010.03.12/outbox.cif.g09.slc.cpg/sg63_27_cif.got.tgz:52830.got - 2010.04.10 19:34:48.
