data_PCOD8256033
_publ_section_title
;
Structure prediction by ZEFSAII (Michael W. Deem and Ramdas Pophale) SiO2 
 PCOD8256033
Probable space group: C M C M
;
_chemical_formula_sum "Si O2"
_cell_formula_units_Z 104
_cell_length_a 21.731395
_cell_length_b 30.082575
_cell_length_c 9.095491
_cell_angle_alpha 90.000000
_cell_angle_beta 90.000000
_cell_angle_gamma 90.000000
_cell_volume 5946.052814
_symmetry_space_group_name_H-M "C M C M"
_symmetry_group_IT_number 63
_symmetry_cell_setting 'orthorhombic'
loop_
_space_group_symop_operation_xyz
x,y,z
-x,-y,1/2+z
x,-y,-z
-x,y,1/2-z
-x,-y,-z
x,y,1/2-z
-x,y,z
x,-y,1/2+z
1/2+x,1/2+y,z
1/2-x,1/2-y,1/2+z
1/2+x,1/2-y,-z
1/2-x,1/2+y,1/2-z
1/2-x,1/2-y,-z
1/2+x,1/2+y,1/2-z
1/2-x,1/2+y,z
1/2+x,1/2-y,1/2+z
loop_
_atom_site_type_symbol
_atom_site_label
_atom_site_fract_x
_atom_site_fract_y
_atom_site_fract_z
Si Si1 0.000000 0.452965 0.422058
Si Si2 0.119957 0.602611 0.576668
Si Si3 0.359039 0.454976 0.921261
Si Si4 0.073310 0.209028 0.085821
Si Si5 0.068115 0.694310 0.575565
Si Si6 0.716348 0.954967 0.921328
Si Si7 0.073004 0.876844 0.417272
O O1 0.000000 0.500000 0.500000
O O2 0.939999 0.425370 0.469392
O O3 0.000000 0.461753 0.250000
O O4 0.132460 0.598922 0.750000
O O5 0.111232 0.653720 0.524896
O O6 0.179018 0.585841 0.488680
O O7 0.373056 0.460254 0.750000
O O8 0.287657 0.445338 0.952445
O O9 0.380486 0.500000 0.000000
O O10 0.398473 0.414923 0.983703
O O11 0.098517 0.198913 0.250000
O O12 0.096482 0.257613 0.028887
O O13 0.000000 0.210725 0.090195
O O14 0.096879 0.170780 0.976412
O O15 0.061487 0.693278 0.750000
O O16 0.000000 0.687807 0.506647
O O17 0.701968 0.960024 0.750000
O O18 0.694506 0.000000 0.000000
O O19 0.095353 0.882137 0.250000
O O20 0.000000 0.880164 0.430376
#
# Coordination Sequence:
#
# PCOD8256033 Si02
#       7
#     8  16  16  16  16  16  16
#     4  10  20  30  42  64  96 130 164 204 251 298
#     4  10  18  30  49  71  97 130 166 208 252 296
#     4  10  21  37  56  75  98 129 165 203 240 286
#     4   8  14  26  47  72  98 131 166 199 236 286
#     4   8  13  25  46  71  98 128 166 206 246 293
#     4  10  21  36  52  71  94 125 167 209 247 291
#     4  10  20  33  51  78 109 134 157 191 238 290
#
# _framework density 17.490594999999999
#
# number of rings (size 3 to 8) (size 9 to 14) (size 15 to 20)
#    0.000    2.615    0.769    2.769    0.000    4.923 
#    0.000    0.769    0.000    1.846    0.000    0.000 
#    0.000    0.000    0.000    0.000    0.000    0.000 
#
# Total GULP energy -644703.155350 kJ/mol
# GULP energy per Si atom -12398.137603 kJ/mol
# Density = 1.745079 g / cm^3
# Si number density = 17.490595 Si / 1000 Ang^3
#
#
#
# Elastic Constant Matrix: (Units=GPa)
#
#
# Indices 1 2 3 4 5 6 
#
# 1 34.1283 41.4636 29.3536 0.0000 0.0000 0.0000
# 2 41.4636 161.8300 58.3701 0.0000 0.0000 0.0000
# 3 29.3536 58.3701 77.5901 0.0000 0.0000 0.0000
# 4 0.0000 0.0000 0.0000 28.5972 0.0000 0.0000
# 5 0.0000 0.0000 0.0000 0.0000 24.8638 0.0000
# 6 0.0000 0.0000 0.0000 0.0000 0.0000 17.6603
#
#
#
# Elastic Compliance Matrix: (Units=1/GPa)
#
#
# Indices 1 2 3 4 5 6 
#
# 1 0.050409 -0.008285 -0.012838 0.000000 0.000000 0.000000
# 2 -0.008285 0.009842 -0.004270 0.000000 0.000000 0.000000
# 3 -0.012838 -0.004270 0.020957 0.000000 0.000000 0.000000
# 4 0.000000 0.000000 0.000000 0.034968 0.000000 0.000000
# 5 0.000000 0.000000 0.000000 0.000000 0.040219 0.000000
# 6 0.000000 0.000000 0.000000 0.000000 0.000000 0.056624
#
#
# Mechanical properties :
#
#
# Convention : Reuss Voigt Hill
#
# Bulk Modulus (GPa) = 32.87005 59.10257 45.98631
# Shear Modulus (GPa) = 18.25180 23.84832 21.05006
#
# Velocity S-wave (km/s) = 3.23386 3.69656 3.47292
# Velocity P-wave (km/s) = 5.72517 7.21691 6.51389
#
# Compressibility (1/GPa) = 0.03042283
#
# Stress axis : x y z
#
# Youngs Moduli (GPa) = 19.83786 101.60358 47.71685
#
# Poissons Ratio (x) = 0.84181 0.61257
# Poissons Ratio (y) = 0.16436 0.20374
# Poissons Ratio (z) = 0.25467 0.43382
#
# Static dielectric constant tensor:
#      x y z
#    x 2.976300 0.000000 0.000000 
#    y 0.000000 3.619640 0.000000 
#    z 0.000000 0.000000 3.227090 
# 
# 
# High freq. dielectric constant tensor:
#      x y z
#    x 1.641200 0.000000 0.000000 
#    y 0.000000 1.690860 0.000000 
#    z 0.000000 0.000000 1.665480 
# 
# From -- ./inp_files/9151.got.cif
#   From: 2010.03.12/outbox.cif.g09.slc.cpg/sg63_5_cif.got.tgz:9151.got - 2010.04.10 19:34:48.
