data_PCOD8256744
_publ_section_title
;
Structure prediction by ZEFSAII (Michael W. Deem and Ramdas Pophale) SiO2 
 PCOD8256744
Probable space group: C M C M
;
_chemical_formula_sum "Si O2"
_cell_formula_units_Z 80
_cell_length_a 27.529262
_cell_length_b 18.025908
_cell_length_c 9.289899
_cell_angle_alpha 90.000000
_cell_angle_beta 90.000000
_cell_angle_gamma 90.000000
_cell_volume 4610.018961
_symmetry_space_group_name_H-M "C M C M"
_symmetry_group_IT_number 63
_symmetry_cell_setting 'orthorhombic'
loop_
_space_group_symop_operation_xyz
x,y,z
-x,-y,1/2+z
x,-y,-z
-x,y,1/2-z
-x,-y,-z
x,y,1/2-z
-x,y,z
x,-y,1/2+z
1/2+x,1/2+y,z
1/2-x,1/2-y,1/2+z
1/2+x,1/2-y,-z
1/2-x,1/2+y,1/2-z
1/2-x,1/2-y,-z
1/2+x,1/2+y,1/2-z
1/2-x,1/2+y,z
1/2+x,1/2-y,1/2+z
loop_
_atom_site_type_symbol
_atom_site_label
_atom_site_fract_x
_atom_site_fract_y
_atom_site_fract_z
Si Si1 0.192273 0.852863 0.583418
Si Si2 0.908925 0.925625 0.917789
Si Si3 0.848151 0.281807 0.583397
Si Si4 0.946265 0.790219 0.085281
Si Si5 0.207918 0.425227 0.581396
O O1 0.197225 0.831998 0.750000
O O2 0.147475 0.907704 0.554280
O O3 0.185635 0.775905 0.500497
O O4 0.240254 0.894265 0.527185
O O5 0.920695 0.934833 0.750000
O O6 0.941931 0.860387 0.981109
O O7 0.923147 0.000000 0.000000
O O8 0.837337 0.267278 0.750000
O O9 0.905227 0.270682 0.545654
O O10 0.833532 0.365300 0.541594
O O11 0.938966 0.816864 0.250000
O O12 0.000000 0.755051 0.063739
O O13 0.194181 0.500000 0.500000
O O14 0.209586 0.442573 0.750000
#
# Coordination Sequence:
#
# PCOD8256744 Si02
#       5
#    16  16  16  16  16
#     4   9  18  31  47  69  96 126 157 186 220 266
#     4  10  19  30  45  67  96 126 155 187 223 266
#     4   9  18  32  50  71  93 119 154 193 229 270
#     4   9  18  33  51  68  87 116 154 194 236 277
#     4  10  20  32  47  70  98 125 154 187 225 271
#
# _framework density 17.353508000000001
#
# number of rings (size 3 to 8) (size 9 to 14) (size 15 to 20)
#    0.000    2.600    0.000    1.800    0.000    3.200 
#    0.000    0.000    0.000    0.600    0.000    0.000 
#    0.000    0.000    0.000    0.000    0.000    0.000 
#
# Total GULP energy -496018.037029 kJ/mol
# GULP energy per Si atom -12400.450926 kJ/mol
# Density = 1.731401 g / cm^3
# Si number density = 17.353508 Si / 1000 Ang^3
#
#
#
# Elastic Constant Matrix: (Units=GPa)
#
#
# Indices 1 2 3 4 5 6 
#
# 1 104.4791 55.5566 30.4789 0.0000 0.0000 0.0000
# 2 55.5566 117.1810 48.3396 0.0000 0.0000 0.0000
# 3 30.4789 48.3396 60.2317 0.0000 0.0000 0.0000
# 4 0.0000 0.0000 0.0000 30.2050 0.0000 0.0000
# 5 0.0000 0.0000 0.0000 0.0000 19.1654 0.0000
# 6 0.0000 0.0000 0.0000 0.0000 0.0000 12.4467
#
#
#
# Elastic Compliance Matrix: (Units=1/GPa)
#
#
# Indices 1 2 3 4 5 6 
#
# 1 0.013034 -0.005171 -0.002446 0.000000 0.000000 0.000000
# 2 -0.005171 0.014809 -0.009268 0.000000 0.000000 0.000000
# 3 -0.002446 -0.009268 0.025279 0.000000 0.000000 0.000000
# 4 0.000000 0.000000 0.000000 0.033107 0.000000 0.000000
# 5 0.000000 0.000000 0.000000 0.000000 0.052177 0.000000
# 6 0.000000 0.000000 0.000000 0.000000 0.000000 0.080343
#
#
# Mechanical properties :
#
#
# Convention : Reuss Voigt Hill
#
# Bulk Modulus (GPa) = 51.67494 61.18241 56.42868
# Shear Modulus (GPa) = 19.30730 22.19787 20.75258
#
# Velocity S-wave (km/s) = 3.33917 3.58041 3.46189
# Velocity P-wave (km/s) = 6.68649 7.24055 6.96903
#
# Compressibility (1/GPa) = 0.01935174
#
# Stress axis : x y z
#
# Youngs Moduli (GPa) = 76.72042 67.52799 39.55903
#
# Poissons Ratio (x) = 0.34917 0.09676
# Poissons Ratio (y) = 0.39670 0.36665
# Poissons Ratio (z) = 0.18765 0.62587
#
# Static dielectric constant tensor:
#      x y z
#    x 3.351470 0.000000 0.000000 
#    y 0.000000 3.070320 0.000000 
#    z 0.000000 0.000000 3.235410 
# 
# 
# High freq. dielectric constant tensor:
#      x y z
#    x 1.669660 0.000000 0.000000 
#    y 0.000000 1.649590 0.000000 
#    z 0.000000 0.000000 1.670960 
# 
# From -- ./inp_files/11966.got.cif
#   From: 2010.03.12/outbox.cif.g09.slc.cpg/sg63_6_cif.got.tgz:11966.got - 2010.04.10 19:34:48.
