data_PCOD8256463
_publ_section_title
;
Structure prediction by ZEFSAII (Michael W. Deem and Ramdas Pophale) SiO2 
 PCOD8256463
Probable space group: C M C M
;
_chemical_formula_sum "Si O2"
_cell_formula_units_Z 80
_cell_length_a 8.665346
_cell_length_b 20.682790
_cell_length_c 23.198396
_cell_angle_alpha 90.000000
_cell_angle_beta 90.000000
_cell_angle_gamma 90.000000
_cell_volume 4157.698458
_symmetry_space_group_name_H-M "C M C M"
_symmetry_group_IT_number 63
_symmetry_cell_setting 'orthorhombic'
loop_
_space_group_symop_operation_xyz
x,y,z
-x,-y,1/2+z
x,-y,-z
-x,y,1/2-z
-x,-y,-z
x,y,1/2-z
-x,y,z
x,-y,1/2+z
1/2+x,1/2+y,z
1/2-x,1/2-y,1/2+z
1/2+x,1/2-y,-z
1/2-x,1/2+y,1/2-z
1/2-x,1/2-y,-z
1/2+x,1/2+y,1/2-z
1/2-x,1/2+y,z
1/2+x,1/2-y,1/2+z
loop_
_atom_site_type_symbol
_atom_site_label
_atom_site_fract_x
_atom_site_fract_y
_atom_site_fract_z
Si Si1 0.317273 0.373173 0.941445
Si Si2 0.817399 0.199624 0.250000
Si Si3 0.816920 0.997817 0.629239
Si Si4 0.815939 0.947147 0.750000
Si Si5 0.682344 0.758288 0.867907
Si Si6 0.183345 0.127630 0.927351
O O1 0.500000 0.362218 0.935937
O O2 0.266252 0.441014 0.913845
O O3 0.231602 0.316633 0.908305
O O4 0.258272 0.372772 0.006968
O O5 0.753474 0.126279 0.250000
O O6 0.757873 0.237253 0.194480
O O7 0.000000 0.199415 0.250000
O O8 0.747905 0.065324 0.606030
O O9 0.000000 0.001749 0.631666
O O10 0.752040 0.983676 0.693371
O O11 0.000000 0.945856 0.750000
O O12 0.500000 0.757763 0.860952
O O13 0.743470 0.691975 0.896207
O O14 0.000000 0.124269 0.927194
#
# Coordination Sequence:
#
# PCOD8256463 Si02
#       6
#    16   8  16   8  16  16
#     4  10  18  33  57  81 107 145 188 224 260 311
#     4  11  21  38  59  81 103 136 186 227 265 319
#     4   9  16  29  52  81 107 135 181 235 271 301
#     4   9  16  28  51  81 101 124 172 229 273 307
#     4  11  22  35  53  82 114 144 174 216 276 327
#     4   9  19  32  50  81 115 142 177 226 273 315
#
# _framework density 19.241415
#
# number of rings (size 3 to 8) (size 9 to 14) (size 15 to 20)
#    0.000    2.200    2.000    2.100    0.000    3.200 
#    0.000    4.000    0.000    4.800    0.000    0.000 
#    0.000    0.000    0.000    0.000    0.000    0.000 
#
# Total GULP energy -496032.213074 kJ/mol
# GULP energy per Si atom -12400.805327 kJ/mol
# Density = 1.919762 g / cm^3
# Si number density = 19.241415 Si / 1000 Ang^3
#
#
#
# Elastic Constant Matrix: (Units=GPa)
#
#
# Indices 1 2 3 4 5 6 
#
# 1 28.2107 23.2554 22.1815 0.0000 0.0000 0.0000
# 2 23.2554 142.0017 76.7123 0.0000 0.0000 0.0000
# 3 22.1815 76.7123 189.5738 0.0000 0.0000 0.0000
# 4 0.0000 0.0000 0.0000 -40.5586 0.0000 0.0000
# 5 0.0000 0.0000 0.0000 0.0000 23.7589 0.0000
# 6 0.0000 0.0000 0.0000 0.0000 0.0000 22.6238
#
#
#
# Elastic Compliance Matrix: (Units=1/GPa)
#
#
# Indices 1 2 3 4 5 6 
#
# 1 0.042056 -0.005412 -0.002731 0.000000 0.000000 0.000000
# 2 -0.005412 0.009709 -0.003295 0.000000 0.000000 0.000000
# 3 -0.002731 -0.003295 0.006928 0.000000 0.000000 0.000000
# 4 0.000000 0.000000 0.000000 -0.024656 0.000000 0.000000
# 5 0.000000 0.000000 0.000000 0.000000 0.042089 0.000000
# 6 0.000000 0.000000 0.000000 0.000000 0.000000 0.044201
#
#
# Mechanical properties :
#
#
# Convention : Reuss Voigt Hill
#
# Bulk Modulus (GPa) = 27.92043 67.12051 47.52047
# Shear Modulus (GPa) = 32.22818 17.00730 24.61774
#
# Velocity S-wave (km/s) = 4.09704 2.97625 3.58077
# Velocity P-wave (km/s) = 6.07644 6.83885 6.46889
#
# Compressibility (1/GPa) = 0.03581607
#
# Stress axis : x y z
#
# Youngs Moduli (GPa) = 23.77770 102.99930 144.34099
#
# Poissons Ratio (x) = 0.55746 0.39416
# Poissons Ratio (y) = 0.12869 0.47567
# Poissons Ratio (z) = 0.06493 0.33943
#
# Static dielectric constant tensor:
#      x y z
#    x 3.013670 0.000000 0.000000 
#    y 0.000000 3.801430 0.000000 
#    z 0.000000 0.000000 3.816810 
# 
# 
# High freq. dielectric constant tensor:
#      x y z
#    x 1.696380 0.000000 0.000000 
#    y 0.000000 1.758830 0.000000 
#    z 0.000000 0.000000 1.769290 
# 
# From -- ./inp_files/59528.got.cif
#   From: 2010.03.12/outbox.cif.g09.slc.cpg/sg63_30_cif.got.tgz:59528.got - 2010.04.10 19:34:48.
