data_PCOD8256294
_publ_section_title
;
Structure prediction by ZEFSAII (Michael W. Deem and Ramdas Pophale) SiO2 
 PCOD8256294
Probable space group: C M C M
;
_chemical_formula_sum "Si O2"
_cell_formula_units_Z 104
_cell_length_a 13.799678
_cell_length_b 17.608405
_cell_length_c 23.603042
_cell_angle_alpha 90.000000
_cell_angle_beta 90.000000
_cell_angle_gamma 90.000000
_cell_volume 5735.310707
_symmetry_space_group_name_H-M "C M C M"
_symmetry_group_IT_number 63
_symmetry_cell_setting 'orthorhombic'
loop_
_space_group_symop_operation_xyz
x,y,z
-x,-y,1/2+z
x,-y,-z
-x,y,1/2-z
-x,-y,-z
x,y,1/2-z
-x,y,z
x,-y,1/2+z
1/2+x,1/2+y,z
1/2-x,1/2-y,1/2+z
1/2+x,1/2-y,-z
1/2-x,1/2+y,1/2-z
1/2-x,1/2-y,-z
1/2+x,1/2+y,1/2-z
1/2-x,1/2+y,z
1/2+x,1/2-y,1/2+z
loop_
_atom_site_type_symbol
_atom_site_label
_atom_site_fract_x
_atom_site_fract_y
_atom_site_fract_z
Si Si1 0.000000 0.205286 0.315989
Si Si2 0.821139 0.092749 0.184231
Si Si3 0.000000 0.413968 0.520727
Si Si4 0.614324 0.572257 0.687252
Si Si5 0.500000 0.780441 0.428876
Si Si6 0.316079 0.136945 0.407900
Si Si7 0.668792 0.309066 0.983908
Si Si8 0.389112 0.303872 0.102929
O O1 0.903983 0.155132 0.328753
O O2 0.000000 0.232562 0.250000
O O3 0.000000 0.279064 0.359113
O O4 0.794688 0.094102 0.250000
O O5 0.718139 0.102475 0.151854
O O6 0.860809 0.011078 0.165036
O O7 0.000000 0.500000 0.500000
O O8 0.000000 0.360507 0.464021
O O9 0.091819 0.400703 0.561695
O O10 0.656874 0.585912 0.750000
O O11 0.500000 0.581024 0.687371
O O12 0.659329 0.636792 0.646542
O O13 0.406502 0.733679 0.444931
O O14 0.222503 0.124702 0.448912
O O15 0.332716 0.225253 0.394848
O O16 0.750000 0.250000 0.000000
O O17 0.618152 0.341385 0.040397
O O18 0.500000 0.287010 0.118073
#
# Coordination Sequence:
#
# PCOD8256294 Si02
#       8
#     8  16   8  16   8  16  16  16
#     4  10  20  34  60  94 121 151 188 230 295 373
#     4  10  20  36  57  85 123 156 188 237 297 358
#     4  12  26  42  60  82 116 162 202 239 290 353
#     4   9  18  33  55  82 114 150 179 226 301 357
#     4  12  18  38  63  86 120 152 191 248 296 343
#     4  11  21  38  57  83 112 151 203 238 281 345
#     4  10  18  31  57  83 110 147 187 238 293 332
#     4  10  18  33  55  78 112 144 188 243 283 340
#
# _framework density 18.133281
#
# number of rings (size 3 to 8) (size 9 to 14) (size 15 to 20)
#    0.000    1.692    6.923    0.000    0.000    1.846 
#    0.000    0.385    0.000    3.692    0.000    0.000 
#    0.000    0.000    0.000    0.000    0.000    0.000 
#
# Total GULP energy -644193.021804 kJ/mol
# GULP energy per Si atom -12388.327342 kJ/mol
# Density = 1.809201 g / cm^3
# Si number density = 18.133281 Si / 1000 Ang^3
#
#
#
# Elastic Constant Matrix: (Units=GPa)
#
#
# Indices 1 2 3 4 5 6 
#
# 1 81.9592 27.9967 38.9982 0.0000 0.0000 0.0000
# 2 27.9967 81.2426 61.4778 0.0000 0.0000 0.0000
# 3 38.9982 61.4778 120.3410 0.0000 0.0000 0.0000
# 4 0.0000 0.0000 0.0000 30.1681 0.0000 0.0000
# 5 0.0000 0.0000 0.0000 0.0000 28.8791 0.0000
# 6 0.0000 0.0000 0.0000 0.0000 0.0000 15.1256
#
#
#
# Elastic Compliance Matrix: (Units=1/GPa)
#
#
# Indices 1 2 3 4 5 6 
#
# 1 0.014703 -0.002382 -0.003548 0.000000 0.000000 0.000000
# 2 -0.002382 0.020452 -0.009676 0.000000 0.000000 0.000000
# 3 -0.003548 -0.009676 0.014403 0.000000 0.000000 0.000000
# 4 0.000000 0.000000 0.000000 0.033148 0.000000 0.000000
# 5 0.000000 0.000000 0.000000 0.000000 0.034627 0.000000
# 6 0.000000 0.000000 0.000000 0.000000 0.000000 0.066113
#
#
# Mechanical properties :
#
#
# Convention : Reuss Voigt Hill
#
# Bulk Modulus (GPa) = 54.50947 60.05425 57.28186
# Shear Modulus (GPa) = 22.64777 25.17258 23.91017
#
# Velocity S-wave (km/s) = 3.53790 3.72989 3.63516
# Velocity P-wave (km/s) = 6.84213 7.19303 7.01977
#
# Compressibility (1/GPa) = 0.01834544
#
# Stress axis : x y z
#
# Youngs Moduli (GPa) = 68.01320 48.89546 69.43179
#
# Poissons Ratio (x) = 0.11647 0.24633
# Poissons Ratio (y) = 0.16201 0.67183
# Poissons Ratio (z) = 0.24130 0.47312
#
# Static dielectric constant tensor:
#      x y z
#    x 3.483050 0.000000 0.000000 
#    y 0.000000 3.186990 0.000000 
#    z 0.000000 0.000000 3.852430 
# 
# 
# High freq. dielectric constant tensor:
#      x y z
#    x 1.699870 0.000000 0.000000 
#    y 0.000000 1.671400 0.000000 
#    z 0.000000 0.000000 1.714860 
# 
# From -- ./inp_files/54554.got.cif
#   From: 2010.03.12/outbox.cif.g09.slc.cpg/sg63_28_cif.got.tgz:54554.got - 2010.04.10 19:34:48.
