data_PCOD8256480
_publ_section_title
;
Structure prediction by ZEFSAII (Michael W. Deem and Ramdas Pophale) SiO2 
 PCOD8256480
Probable space group: C M C M
;
_chemical_formula_sum "Si O2"
_cell_formula_units_Z 84
_cell_length_a 11.562660
_cell_length_b 17.967531
_cell_length_c 20.705453
_cell_angle_alpha 90.000000
_cell_angle_beta 90.000000
_cell_angle_gamma 90.000000
_cell_volume 4301.608630
_symmetry_space_group_name_H-M "C M C M"
_symmetry_group_IT_number 63
_symmetry_cell_setting 'orthorhombic'
loop_
_space_group_symop_operation_xyz
x,y,z
-x,-y,1/2+z
x,-y,-z
-x,y,1/2-z
-x,-y,-z
x,y,1/2-z
-x,y,z
x,-y,1/2+z
1/2+x,1/2+y,z
1/2-x,1/2-y,1/2+z
1/2+x,1/2-y,-z
1/2-x,1/2+y,1/2-z
1/2-x,1/2-y,-z
1/2+x,1/2+y,1/2-z
1/2-x,1/2+y,z
1/2+x,1/2-y,1/2+z
loop_
_atom_site_type_symbol
_atom_site_label
_atom_site_fract_x
_atom_site_fract_y
_atom_site_fract_z
Si Si1 0.254228 0.918229 0.868639
Si Si2 0.139285 0.174711 0.750000
Si Si3 0.500000 0.096270 0.646008
Si Si4 0.129755 0.911774 0.504042
Si Si5 0.219561 0.183292 0.250000
Si Si6 0.000000 0.565944 0.177645
Si Si7 0.500000 0.782707 0.250000
Si Si8 0.242142 0.909950 0.373698
O O1 0.209798 0.885180 0.936606
O O2 0.204192 0.868999 0.811552
O O3 0.392165 0.909289 0.865366
O O4 0.213346 0.003558 0.859015
O O5 0.166044 0.263612 0.750000
O O6 0.199744 0.137621 0.687502
O O7 0.000000 0.162711 0.750000
O O8 0.500000 0.169420 0.686763
O O9 0.378530 0.097490 0.607093
O O10 0.500000 0.022460 0.689790
O O11 0.175064 0.879051 0.436325
O O12 0.000000 0.882698 0.516078
O O13 0.134239 0.000000 0.500000
O O14 0.113421 0.236412 0.250000
O O15 0.000000 0.601878 0.250000
#
# Coordination Sequence:
#
# PCOD8256480 Si02
#       8
#    16   8   8  16   8   8   4  16
#     4  10  22  37  60  90 118 153 194 242 301 348
#     4  12  25  38  61  86 117 160 203 242 287 355
#     4  10  18  35  62  84 114 151 198 247 288 339
#     4   9  19  37  59  85 122 154 187 244 302 351
#     4  12  25  38  57  87 121 153 193 244 296 353
#     4  10  18  33  63  86 117 153 193 250 292 334
#     4  12  22  38  56  80 122 154 190 240 308 334
#     4  10  20  40  64  89 114 153 204 244 292 348
#
# _framework density 19.527578999999999
#
# number of rings (size 3 to 8) (size 9 to 14) (size 15 to 20)
#    0.000    1.714    3.333    1.143    5.333    1.524 
#    1.714    4.762    0.000    0.000    0.000    0.000 
#    0.000    0.000    0.000    0.000    0.000    0.000 
#
# Total GULP energy -520517.183294 kJ/mol
# GULP energy per Si atom -12393.266269 kJ/mol
# Density = 1.948313 g / cm^3
# Si number density = 19.527579 Si / 1000 Ang^3
#
#
#
# Elastic Constant Matrix: (Units=GPa)
#
#
# Indices 1 2 3 4 5 6 
#
# 1 148.4705 21.8551 70.6942 0.0000 0.0000 0.0000
# 2 21.8551 67.9433 41.1211 0.0000 0.0000 0.0000
# 3 70.6942 41.1211 171.6362 0.0000 0.0000 0.0000
# 4 0.0000 0.0000 0.0000 18.3149 0.0000 0.0000
# 5 0.0000 0.0000 0.0000 0.0000 34.7604 0.0000
# 6 0.0000 0.0000 0.0000 0.0000 0.0000 15.1789
#
#
#
# Elastic Compliance Matrix: (Units=1/GPa)
#
#
# Indices 1 2 3 4 5 6 
#
# 1 0.008408 -0.000712 -0.003293 0.000000 0.000000 0.000000
# 2 -0.000712 0.017275 -0.003846 0.000000 0.000000 0.000000
# 3 -0.003293 -0.003846 0.008104 0.000000 0.000000 0.000000
# 4 0.000000 0.000000 0.000000 0.054600 0.000000 0.000000
# 5 0.000000 0.000000 0.000000 0.000000 0.028768 0.000000
# 6 0.000000 0.000000 0.000000 0.000000 0.000000 0.065881
#
#
# Mechanical properties :
#
#
# Convention : Reuss Voigt Hill
#
# Bulk Modulus (GPa) = 55.29002 72.82122 64.05562
# Shear Modulus (GPa) = 24.41830 30.60947 27.51389
#
# Velocity S-wave (km/s) = 3.54001 3.96346 3.75770
# Velocity P-wave (km/s) = 6.71447 7.63661 7.19034
#
# Compressibility (1/GPa) = 0.01808645
#
# Stress axis : x y z
#
# Youngs Moduli (GPa) = 118.93635 57.88871 123.39993
#
# Poissons Ratio (x) = 0.04121 0.40630
# Poissons Ratio (y) = 0.08466 0.47453
# Poissons Ratio (z) = 0.39160 0.22261
#
# Static dielectric constant tensor:
#      x y z
#    x 3.884800 0.000000 0.000000 
#    y 0.000000 3.432210 0.000000 
#    z 0.000000 0.000000 0.494240 
# 
# 
# High freq. dielectric constant tensor:
#      x y z
#    x 1.775730 0.000000 0.000000 
#    y 0.000000 1.737160 0.000000 
#    z 0.000000 0.000000 1.753070 
# 
# From -- ./inp_files/52517.got.cif
#   From: 2010.03.12/outbox.cif.g09.slc.cpg/sg63_27_cif.got.tgz:52517.got - 2010.04.10 19:34:48.
