data_PCOD8256709
_publ_section_title
;
Structure prediction by ZEFSAII (Michael W. Deem and Ramdas Pophale) SiO2 
 PCOD8256709
Probable space group: C M C M
;
_chemical_formula_sum "Si O2"
_cell_formula_units_Z 80
_cell_length_a 23.070353
_cell_length_b 24.465055
_cell_length_c 9.621389
_cell_angle_alpha 90.000000
_cell_angle_beta 90.000000
_cell_angle_gamma 90.000000
_cell_volume 5430.479893
_symmetry_space_group_name_H-M "C M C M"
_symmetry_group_IT_number 63
_symmetry_cell_setting 'orthorhombic'
loop_
_space_group_symop_operation_xyz
x,y,z
-x,-y,1/2+z
x,-y,-z
-x,y,1/2-z
-x,-y,-z
x,y,1/2-z
-x,y,z
x,-y,1/2+z
1/2+x,1/2+y,z
1/2-x,1/2-y,1/2+z
1/2+x,1/2-y,-z
1/2-x,1/2+y,1/2-z
1/2-x,1/2-y,-z
1/2+x,1/2+y,1/2-z
1/2-x,1/2+y,z
1/2+x,1/2-y,1/2+z
loop_
_atom_site_type_symbol
_atom_site_label
_atom_site_fract_x
_atom_site_fract_y
_atom_site_fract_z
Si Si1 0.384468 0.121803 0.964702
Si Si2 0.068196 0.459739 0.250000
Si Si3 0.163465 0.773351 0.410867
Si Si4 0.934442 0.260245 0.406911
Si Si5 0.221008 0.680978 0.909033
Si Si6 0.069108 0.414417 0.750000
O O1 0.407947 0.068610 0.887610
O O2 0.412393 0.177402 0.906664
O O3 0.314460 0.124835 0.938712
O O4 0.401734 0.116652 0.123270
O O5 0.087471 0.522424 0.250000
O O6 0.000000 0.454138 0.250000
O O7 0.148131 0.762670 0.250000
O O8 0.103719 0.780370 0.496007
O O9 0.196783 0.721843 0.474849
O O10 0.208829 0.824489 0.426898
O O11 0.930946 0.238007 0.250000
O O12 0.000000 0.258380 0.463050
O O13 0.208722 0.701384 0.750000
O O14 0.000000 0.407087 0.750000
#
# Coordination Sequence:
#
# PCOD8256709 Si02
#       6
#    16   8  16  16  16   8
#     4  11  19  32  45  59  77 105 141 176 208 247
#     4  11  20  34  48  55  74 108 139 174 219 257
#     4   9  17  27  42  62  81 101 131 172 205 233
#     4  10  19  30  43  60  84 113 140 164 200 249
#     4   9  17  30  43  58  79 104 134 166 206 250
#     4  11  24  32  40  61  82 100 135 184 223 245
#
# _framework density 14.731664
#
# number of rings (size 3 to 8) (size 9 to 14) (size 15 to 20)
#    0.000    2.000    2.000    4.200    5.600    2.800 
#    0.000    0.000    0.000    0.000    0.000    0.000 
#    0.000    0.000    0.000    0.000    0.000    6.000 
#
# Total GULP energy -495576.766044 kJ/mol
# GULP energy per Si atom -12389.419151 kJ/mol
# Density = 1.469813 g / cm^3
# Si number density = 14.731664 Si / 1000 Ang^3
#
#
#
# Elastic Constant Matrix: (Units=GPa)
#
#
# Indices 1 2 3 4 5 6 
#
# 1 113.3596 32.7328 41.3773 0.0000 0.0000 0.0000
# 2 32.7328 26.4454 14.0539 0.0000 0.0000 0.0000
# 3 41.3773 14.0539 102.5831 0.0000 0.0000 0.0000
# 4 0.0000 0.0000 0.0000 13.3528 0.0000 0.0000
# 5 0.0000 0.0000 0.0000 0.0000 26.7688 0.0000
# 6 0.0000 0.0000 0.0000 0.0000 0.0000 18.5718
#
#
#
# Elastic Compliance Matrix: (Units=1/GPa)
#
#
# Indices 1 2 3 4 5 6 
#
# 1 0.014971 -0.016524 -0.003775 0.000000 0.000000 0.000000
# 2 -0.016524 0.059021 -0.001421 0.000000 0.000000 0.000000
# 3 -0.003775 -0.001421 0.011465 0.000000 0.000000 0.000000
# 4 0.000000 0.000000 0.000000 0.074891 0.000000 0.000000
# 5 0.000000 0.000000 0.000000 0.000000 0.037357 0.000000
# 6 0.000000 0.000000 0.000000 0.000000 0.000000 0.053845
#
#
# Mechanical properties :
#
#
# Convention : Reuss Voigt Hill
#
# Bulk Modulus (GPa) = 23.79913 46.52401 35.16157
# Shear Modulus (GPa) = 16.18148 22.02028 19.10088
#
# Velocity S-wave (km/s) = 3.31783 3.87041 3.60472
# Velocity P-wave (km/s) = 5.55585 7.18491 6.42224
#
# Compressibility (1/GPa) = 0.04201834
#
# Stress axis : x y z
#
# Youngs Moduli (GPa) = 66.79761 16.94302 87.21896
#
# Poissons Ratio (x) = 0.27996 0.32922
# Poissons Ratio (y) = 1.10376 0.12393
# Poissons Ratio (z) = 0.25214 0.02407
#
# Static dielectric constant tensor:
#      x y z
#    x 3.387830 0.000000 0.000000 
#    y 0.000000 2.611940 0.000000 
#    z 0.000000 0.000000 3.053040 
# 
# 
# High freq. dielectric constant tensor:
#      x y z
#    x 1.567700 0.000000 0.000000 
#    y 0.000000 1.495970 0.000000 
#    z 0.000000 0.000000 1.587390 
# 
# From -- ./inp_files/10366.got.cif
#   From: 2010.03.12/outbox.cif.g09.slc.cpg/sg63_6_cif.got.tgz:10366.got - 2010.04.10 19:34:48.
