data_PCOD8256001
_publ_section_title
;
Structure prediction by ZEFSAII (Michael W. Deem and Ramdas Pophale) SiO2 
 PCOD8256001
Probable space group: C M C M
;
_chemical_formula_sum "Si O2"
_cell_formula_units_Z 72
_cell_length_a 32.872391
_cell_length_b 14.622929
_cell_length_c 8.813337
_cell_angle_alpha 90.000000
_cell_angle_beta 90.000000
_cell_angle_gamma 90.000000
_cell_volume 4236.488600
_symmetry_space_group_name_H-M "C M C M"
_symmetry_group_IT_number 63
_symmetry_cell_setting 'orthorhombic'
loop_
_space_group_symop_operation_xyz
x,y,z
-x,-y,1/2+z
x,-y,-z
-x,y,1/2-z
-x,-y,-z
x,y,1/2-z
-x,y,z
x,-y,1/2+z
1/2+x,1/2+y,z
1/2-x,1/2-y,1/2+z
1/2+x,1/2-y,-z
1/2-x,1/2+y,1/2-z
1/2-x,1/2-y,-z
1/2+x,1/2+y,1/2-z
1/2-x,1/2+y,z
1/2+x,1/2-y,1/2+z
loop_
_atom_site_type_symbol
_atom_site_label
_atom_site_fract_x
_atom_site_fract_y
_atom_site_fract_z
Si Si1 0.319037 0.594285 0.928532
Si Si2 0.418662 0.099235 0.929397
Si Si3 0.656823 0.773526 0.427664
Si Si4 0.226562 0.593604 0.928557
Si Si5 0.000000 0.399173 0.568805
O O1 0.322548 0.585904 0.750000
O O2 0.272619 0.613111 0.982063
O O3 0.335224 0.500000 0.000000
O O4 0.346868 0.677197 0.986519
O O5 0.424688 0.088174 0.750000
O O6 0.381650 0.165189 0.971210
O O7 0.458787 0.146624 0.003893
O O8 0.409777 0.000000 0.000000
O O9 0.658604 0.753653 0.250000
O O10 0.697690 0.824495 0.484629
O O11 0.223422 0.581955 0.750000
O O12 0.210121 0.500000 0.000000
O O13 0.000000 0.500000 0.500000
O O14 0.000000 0.398860 0.750000
#
# Coordination Sequence:
#
# PCOD8256001 Si02
#       5
#    16  16  16  16   8
#     4  10  20  33  49  66  89 123 162 201 239 278
#     4  10  19  31  48  71  99 128 156 189 228 275
#     4  10  20  32  47  69  96 123 156 197 237 276
#     4   9  18  31  46  67  94 125 158 194 235 278
#     4  10  18  30  48  68  95 128 157 186 222 274
#
# _framework density 16.995207000000001
#
# number of rings (size 3 to 8) (size 9 to 14) (size 15 to 20)
#    0.000    2.222    0.000    5.000    0.000    3.556 
#    0.000    0.000    0.000    0.000    0.000    0.778 
#    0.000    0.000    0.000    0.000    0.000    0.000 
#
# Total GULP energy -446400.855436 kJ/mol
# GULP energy per Si atom -12400.023762 kJ/mol
# Density = 1.695653 g / cm^3
# Si number density = 16.995207 Si / 1000 Ang^3
#
#
#
# Elastic Constant Matrix: (Units=GPa)
#
#
# Indices 1 2 3 4 5 6 
#
# 1 84.0076 54.2764 43.3426 0.0000 0.0000 0.0000
# 2 54.2764 120.5410 47.1285 0.0000 0.0000 0.0000
# 3 43.3426 47.1285 73.8897 0.0000 0.0000 0.0000
# 4 0.0000 0.0000 0.0000 30.9525 0.0000 0.0000
# 5 0.0000 0.0000 0.0000 0.0000 23.7116 0.0000
# 6 0.0000 0.0000 0.0000 0.0000 0.0000 15.4508
#
#
#
# Elastic Compliance Matrix: (Units=1/GPa)
#
#
# Indices 1 2 3 4 5 6 
#
# 1 0.019706 -0.005800 -0.007860 0.000000 0.000000 0.000000
# 2 -0.005800 0.012759 -0.004736 0.000000 0.000000 0.000000
# 3 -0.007860 -0.004736 0.021165 0.000000 0.000000 0.000000
# 4 0.000000 0.000000 0.000000 0.032308 0.000000 0.000000
# 5 0.000000 0.000000 0.000000 0.000000 0.042173 0.000000
# 6 0.000000 0.000000 0.000000 0.000000 0.000000 0.064721
#
#
# Mechanical properties :
#
#
# Convention : Reuss Voigt Hill
#
# Bulk Modulus (GPa) = 59.38782 63.10371 61.24576
# Shear Modulus (GPa) = 21.25511 22.93570 22.09540
#
# Velocity S-wave (km/s) = 3.54029 3.67759 3.60960
# Velocity P-wave (km/s) = 7.19245 7.43262 7.31352
#
# Compressibility (1/GPa) = 0.01683847
#
# Stress axis : x y z
#
# Youngs Moduli (GPa) = 50.74496 78.37491 47.24823
#
# Poissons Ratio (x) = 0.45459 0.37137
# Poissons Ratio (y) = 0.29433 0.22376
# Poissons Ratio (z) = 0.39885 0.37117
#
# Static dielectric constant tensor:
#      x y z
#    x 3.516020 0.000000 0.000000 
#    y 0.000000 3.060470 0.000000 
#    z 0.000000 0.000000 3.155550 
# 
# 
# High freq. dielectric constant tensor:
#      x y z
#    x 1.642050 0.000000 0.000000 
#    y 0.000000 1.635300 0.000000 
#    z 0.000000 0.000000 1.664200 
# 
# From -- ./inp_files/13889.got.cif
#   From: 2010.03.12/outbox.cif.g09.slc.cpg/sg63_7_cif.got.tgz:13889.got - 2010.04.10 19:34:48.
