data_PCOD8256442
_publ_section_title
;
Structure prediction by ZEFSAII (Michael W. Deem and Ramdas Pophale) SiO2 
 PCOD8256442
Probable space group: C M C M
;
_chemical_formula_sum "Si O2"
_cell_formula_units_Z 112
_cell_length_a 26.132003
_cell_length_b 11.926580
_cell_length_c 19.361659
_cell_angle_alpha 90.000000
_cell_angle_beta 90.000000
_cell_angle_gamma 90.000000
_cell_volume 6034.359668
_symmetry_space_group_name_H-M "C M C M"
_symmetry_group_IT_number 63
_symmetry_cell_setting 'orthorhombic'
loop_
_space_group_symop_operation_xyz
x,y,z
-x,-y,1/2+z
x,-y,-z
-x,y,1/2-z
-x,-y,-z
x,y,1/2-z
-x,y,z
x,-y,1/2+z
1/2+x,1/2+y,z
1/2-x,1/2-y,1/2+z
1/2+x,1/2-y,-z
1/2-x,1/2+y,1/2-z
1/2-x,1/2-y,-z
1/2+x,1/2+y,1/2-z
1/2-x,1/2+y,z
1/2+x,1/2-y,1/2+z
loop_
_atom_site_type_symbol
_atom_site_label
_atom_site_fract_x
_atom_site_fract_y
_atom_site_fract_z
Si Si1 0.305143 0.833838 0.400294
Si Si2 0.845205 0.872115 0.669786
Si Si3 0.559608 0.307067 0.592350
Si Si4 0.635417 0.269218 0.022594
Si Si5 0.122496 0.463625 0.575935
Si Si6 0.796108 0.949715 0.073228
Si Si7 0.558040 0.919403 0.175017
O O1 0.323247 0.755685 0.336350
O O2 0.321134 0.760546 0.466591
O O3 0.244946 0.859306 0.398726
O O4 0.330873 0.956916 0.400465
O O5 0.848121 0.905367 0.750000
O O6 0.902179 0.887616 0.635824
O O7 0.806194 0.954888 0.630081
O O8 0.500000 0.347808 0.592938
O O9 0.580385 0.292417 0.514070
O O10 0.566620 0.188097 0.628170
O O11 0.634972 0.167757 0.077021
O O12 0.651007 0.382544 0.061521
O O13 0.102940 0.500000 0.500000
O O14 0.078923 0.474699 0.633276
O O15 0.776598 0.000000 0.000000
O O16 0.585032 0.903320 0.250000
O O17 0.500000 0.944998 0.188853
#
# Coordination Sequence:
#
# PCOD8256442 Si02
#       7
#    16  16  16  16  16  16  16
#     4  10  21  34  60  83 110 150 189 230 282 341
#     4  11  24  41  58  84 120 152 194 247 287 337
#     4  10  19  35  60  87 115 149 190 241 296 342
#     4  10  20  36  56  90 116 144 188 241 283 339
#     4  10  18  33  52  83 117 140 181 227 280 336
#     4  12  22  38  63  84 114 155 198 235 284 342
#     4  10  19  31  51  80 112 149 187 226 284 349
#
# _framework density 18.560379000000001
#
# number of rings (size 3 to 8) (size 9 to 14) (size 15 to 20)
#    0.000    1.571    7.143    2.143    2.000    2.286 
#    0.000    2.143    0.000    0.000    0.000    0.000 
#    0.000    0.000    0.000    0.000    0.000    0.000 
#
# Total GULP energy -694021.545219 kJ/mol
# GULP energy per Si atom -12393.241879 kJ/mol
# Density = 1.851813 g / cm^3
# Si number density = 18.560379 Si / 1000 Ang^3
#
#
#
# Elastic Constant Matrix: (Units=GPa)
#
#
# Indices 1 2 3 4 5 6 
#
# 1 90.0680 22.3529 34.4955 0.0000 0.0000 0.0000
# 2 22.3529 54.6236 28.2598 0.0000 0.0000 0.0000
# 3 34.4955 28.2598 76.2619 0.0000 0.0000 0.0000
# 4 0.0000 0.0000 0.0000 21.0192 0.0000 0.0000
# 5 0.0000 0.0000 0.0000 0.0000 17.6920 0.0000
# 6 0.0000 0.0000 0.0000 0.0000 0.0000 17.3412
#
#
#
# Elastic Compliance Matrix: (Units=1/GPa)
#
#
# Indices 1 2 3 4 5 6 
#
# 1 0.013814 -0.002994 -0.005139 0.000000 0.000000 0.000000
# 2 -0.002994 0.023298 -0.007279 0.000000 0.000000 0.000000
# 3 -0.005139 -0.007279 0.018135 0.000000 0.000000 0.000000
# 4 0.000000 0.000000 0.000000 0.047576 0.000000 0.000000
# 5 0.000000 0.000000 0.000000 0.000000 0.056523 0.000000
# 6 0.000000 0.000000 0.000000 0.000000 0.000000 0.057666
#
#
# Mechanical properties :
#
#
# Convention : Reuss Voigt Hill
#
# Bulk Modulus (GPa) = 40.94618 43.46331 42.20475
# Shear Modulus (GPa) = 19.53305 20.26684 19.89994
#
# Velocity S-wave (km/s) = 3.24760 3.30804 3.27796
# Velocity P-wave (km/s) = 6.01427 6.16919 6.09222
#
# Compressibility (1/GPa) = 0.02442230
#
# Stress axis : x y z
#
# Youngs Moduli (GPa) = 72.39025 42.92165 55.14337
#
# Poissons Ratio (x) = 0.12852 0.28338
# Poissons Ratio (y) = 0.21676 0.40139
# Poissons Ratio (z) = 0.37201 0.31243
#
# Static dielectric constant tensor:
#      x y z
#    x 3.424340 0.000000 0.000000 
#    y 0.000000 3.382090 0.000000 
#    z 0.000000 0.000000 3.605470 
# 
# 
# High freq. dielectric constant tensor:
#      x y z
#    x 1.712170 0.000000 0.000000 
#    y 0.000000 1.705640 0.000000 
#    z 0.000000 0.000000 1.700390 
# 
# From -- ./inp_files/57594.got.cif
#   From: 2010.03.12/outbox.cif.g09.slc.cpg/sg63_29_cif.got.tgz:57594.got - 2010.04.10 19:34:48.
