data_PCOD8256952
_publ_section_title
;
Structure prediction by ZEFSAII (Michael W. Deem and Ramdas Pophale) SiO2 
 PCOD8256952
Probable space group: C M C M
;
_chemical_formula_sum "Si O2"
_cell_formula_units_Z 96
_cell_length_a 24.974495
_cell_length_b 25.103855
_cell_length_c 9.182088
_cell_angle_alpha 90.000000
_cell_angle_beta 90.000000
_cell_angle_gamma 90.000000
_cell_volume 5756.766093
_symmetry_space_group_name_H-M "C M C M"
_symmetry_group_IT_number 63
_symmetry_cell_setting 'orthorhombic'
loop_
_space_group_symop_operation_xyz
x,y,z
-x,-y,1/2+z
x,-y,-z
-x,y,1/2-z
-x,-y,-z
x,y,1/2-z
-x,y,z
x,-y,1/2+z
1/2+x,1/2+y,z
1/2-x,1/2-y,1/2+z
1/2+x,1/2-y,-z
1/2-x,1/2+y,1/2-z
1/2-x,1/2-y,-z
1/2+x,1/2+y,1/2-z
1/2-x,1/2+y,z
1/2+x,1/2-y,1/2+z
loop_
_atom_site_type_symbol
_atom_site_label
_atom_site_fract_x
_atom_site_fract_y
_atom_site_fract_z
Si Si1 0.862104 0.943411 0.920979
Si Si2 0.936459 0.256080 0.588807
Si Si3 0.253997 0.053729 0.084336
Si Si4 0.370051 0.943271 0.921208
Si Si5 0.437704 0.637189 0.919355
Si Si6 0.936385 0.642978 0.584844
O O1 0.872263 0.951976 0.750000
O O2 0.802629 0.917182 0.951405
O O3 0.905647 0.903259 0.981246
O O4 0.868030 0.000000 0.000000
O O5 0.913534 0.269023 0.750000
O O6 0.918483 0.197019 0.539475
O O7 0.915252 0.300328 0.476277
O O8 0.000000 0.256826 0.596538
O O9 0.253309 0.035985 0.250000
O O10 0.310576 0.083472 0.051764
O O11 0.255303 0.000000 0.000000
O O12 0.381691 0.950887 0.750000
O O13 0.413783 0.904337 0.987572
O O14 0.375033 0.000000 0.000000
O O15 0.426271 0.625823 0.750000
O O16 0.500000 0.629410 0.954814
O O17 0.915955 0.637412 0.750000
O O18 0.000000 0.639705 0.575800
#
# Coordination Sequence:
#
# PCOD8256952 Si02
#       6
#    16  16  16  16  16  16
#     4  10  19  31  48  70  96 124 155 191 232 277
#     4   8  15  30  50  68  88 119 157 192 227 270
#     4   8  16  30  47  67  89 117 154 193 229 268
#     4  10  19  32  50  70  94 123 155 191 231 275
#     4   9  18  32  49  70  96 124 155 191 231 276
#     4  10  20  32  47  70  98 124 152 188 229 274
#
# _framework density 16.676030000000001
#
# number of rings (size 3 to 8) (size 9 to 14) (size 15 to 20)
#    0.000    2.833    0.000    2.500    0.000    4.000 
#    0.000    1.667    0.000    1.000    0.000    0.000 
#    0.000    0.000    0.000    0.000    0.000    0.000 
#
# Total GULP energy -594639.891534 kJ/mol
# GULP energy per Si atom -12388.331074 kJ/mol
# Density = 1.663807 g / cm^3
# Si number density = 16.676030 Si / 1000 Ang^3
#
#
#
# Elastic Constant Matrix: (Units=GPa)
#
#
# Indices 1 2 3 4 5 6 
#
# 1 54.1489 40.3300 42.4279 0.0000 0.0000 0.0000
# 2 40.3300 96.2789 56.8866 0.0000 0.0000 0.0000
# 3 42.4279 56.8866 101.0177 0.0000 0.0000 0.0000
# 4 0.0000 0.0000 0.0000 30.3794 0.0000 0.0000
# 5 0.0000 0.0000 0.0000 0.0000 18.7446 0.0000
# 6 0.0000 0.0000 0.0000 0.0000 0.0000 -1.7048
#
#
#
# Elastic Compliance Matrix: (Units=1/GPa)
#
#
# Indices 1 2 3 4 5 6 
#
# 1 0.031130 -0.007965 -0.008589 0.000000 0.000000 0.000000
# 2 -0.007965 0.017604 -0.006568 0.000000 0.000000 0.000000
# 3 -0.008589 -0.006568 0.017205 0.000000 0.000000 0.000000
# 4 0.000000 0.000000 0.000000 0.032917 0.000000 0.000000
# 5 0.000000 0.000000 0.000000 0.000000 0.053349 0.000000
# 6 0.000000 0.000000 0.000000 0.000000 0.000000 -0.586577
#
#
# Mechanical properties :
#
#
# Convention : Reuss Voigt Hill
#
# Bulk Modulus (GPa) = 50.77534 58.97050 54.87292
# Shear Modulus (GPa) = -13.10399 16.93725 1.91663
#
# Velocity S-wave (km/s) = -2.80625 3.19041 1.07323
# Velocity P-wave (km/s) = 4.47372 7.00077 5.87473
#
# Compressibility (1/GPa) = 0.01969460
#
# Stress axis : x y z
#
# Youngs Moduli (GPa) = 32.12333 56.80682 58.12103
#
# Poissons Ratio (x) = 0.45246 0.49923
# Poissons Ratio (y) = 0.25586 0.38173
# Poissons Ratio (z) = 0.27592 0.37310
#
# Static dielectric constant tensor:
#      x y z
#    x 3.450370 0.000000 0.000000 
#    y 0.000000 3.002480 0.000000 
#    z 0.000000 0.000000 3.344500 
# 
# 
# High freq. dielectric constant tensor:
#      x y z
#    x 1.631350 0.000000 0.000000 
#    y 0.000000 1.620650 0.000000 
#    z 0.000000 0.000000 1.655470 
# 
# From -- ./inp_files/10413.got.cif
#   From: 2010.03.12/outbox.cif.g09.slc.cpg/sg63_6_cif.got.tgz:10413.got - 2010.04.10 19:34:48.
