data_PCOD8256496
_publ_section_title
;
Structure prediction by ZEFSAII (Michael W. Deem and Ramdas Pophale) SiO2 
 PCOD8256496
Probable space group: C M C M
;
_chemical_formula_sum "Si O2"
_cell_formula_units_Z 96
_cell_length_a 14.312653
_cell_length_b 22.561367
_cell_length_c 16.667481
_cell_angle_alpha 90.000000
_cell_angle_beta 90.000000
_cell_angle_gamma 90.000000
_cell_volume 5382.146577
_symmetry_space_group_name_H-M "C M C M"
_symmetry_group_IT_number 63
_symmetry_cell_setting 'orthorhombic'
loop_
_space_group_symop_operation_xyz
x,y,z
-x,-y,1/2+z
x,-y,-z
-x,y,1/2-z
-x,-y,-z
x,y,1/2-z
-x,y,z
x,-y,1/2+z
1/2+x,1/2+y,z
1/2-x,1/2-y,1/2+z
1/2+x,1/2-y,-z
1/2-x,1/2+y,1/2-z
1/2-x,1/2-y,-z
1/2+x,1/2+y,1/2-z
1/2-x,1/2+y,z
1/2+x,1/2-y,1/2+z
loop_
_atom_site_type_symbol
_atom_site_label
_atom_site_fract_x
_atom_site_fract_y
_atom_site_fract_z
Si Si1 0.729040 0.522231 0.660953
Si Si2 0.391564 0.268296 0.342674
Si Si3 0.895272 0.055231 0.059523
Si Si4 0.103808 0.474578 0.583626
Si Si5 0.104638 0.659710 0.454793
Si Si6 0.783962 0.863821 0.447960
O O1 0.703111 0.541666 0.750000
O O2 0.659833 0.468861 0.636572
O O3 0.834221 0.497296 0.656885
O O4 0.726586 0.580007 0.607767
O O5 0.356240 0.267706 0.250000
O O6 0.500000 0.286199 0.345110
O O7 0.373810 0.204374 0.382156
O O8 0.335979 0.314453 0.396878
O O9 0.000000 0.074256 0.083754
O O10 0.844445 0.113861 0.024309
O O11 0.897889 0.000000 0.000000
O O12 0.146844 0.500000 0.500000
O O13 0.105723 0.404335 0.584978
O O14 0.000000 0.500422 0.594675
O O15 0.183905 0.662968 0.523865
O O16 0.000000 0.672155 0.491170
#
# Coordination Sequence:
#
# PCOD8256496 Si02
#       6
#    16  16  16  16  16  16
#     4  11  21  32  50  79 112 144 178 222 276 323
#     4  10  22  38  56  83 112 138 179 235 285 324
#     4   9  18  33  52  74 103 142 185 221 262 321
#     4  10  18  34  56  78 107 143 180 219 263 319
#     4  10  20  35  59  82 107 145 185 225 270 326
#     4  11  19  36  57  81 105 146 186 228 267 329
#
# _framework density 17.836749999999999
#
# number of rings (size 3 to 8) (size 9 to 14) (size 15 to 20)
#    0.000    1.833    3.333    2.000    0.000    2.000 
#    0.000    1.667    0.000    1.500    0.000    0.000 
#    0.000    0.000    0.000    0.000    0.000    0.000 
#
# Total GULP energy -594983.380916 kJ/mol
# GULP energy per Si atom -12395.487102 kJ/mol
# Density = 1.779615 g / cm^3
# Si number density = 17.836750 Si / 1000 Ang^3
#
#
#
# Elastic Constant Matrix: (Units=GPa)
#
#
# Indices 1 2 3 4 5 6 
#
# 1 111.4720 40.7631 48.3954 0.0000 0.0000 0.0000
# 2 40.7631 95.2579 37.2987 0.0000 0.0000 0.0000
# 3 48.3954 37.2987 86.8809 0.0000 0.0000 0.0000
# 4 0.0000 0.0000 0.0000 -10.5328 0.0000 0.0000
# 5 0.0000 0.0000 0.0000 0.0000 17.7559 0.0000
# 6 0.0000 0.0000 0.0000 0.0000 0.0000 24.2412
#
#
#
# Elastic Compliance Matrix: (Units=1/GPa)
#
#
# Indices 1 2 3 4 5 6 
#
# 1 0.012583 -0.003174 -0.005647 0.000000 0.000000 0.000000
# 2 -0.003174 0.013419 -0.003993 0.000000 0.000000 0.000000
# 3 -0.005647 -0.003993 0.016370 0.000000 0.000000 0.000000
# 4 0.000000 0.000000 0.000000 -0.094942 0.000000 0.000000
# 5 0.000000 0.000000 0.000000 0.000000 0.056319 0.000000
# 6 0.000000 0.000000 0.000000 0.000000 0.000000 0.041252
#
#
# Mechanical properties :
#
#
# Convention : Reuss Voigt Hill
#
# Bulk Modulus (GPa) = 59.71909 60.72502 60.22206
# Shear Modulus (GPa) = 65.60792 17.43644 41.52218
#
# Velocity S-wave (km/s) = 6.07143 3.12998 4.83007
# Velocity P-wave (km/s) = 9.09414 6.86886 8.05868
#
# Compressibility (1/GPa) = 0.01674506
#
# Stress axis : x y z
#
# Youngs Moduli (GPa) = 79.47336 74.51866 61.08847
#
# Poissons Ratio (x) = 0.23649 0.34494
# Poissons Ratio (y) = 0.25221 0.24395
# Poissons Ratio (z) = 0.44875 0.29758
#
# Static dielectric constant tensor:
#      x y z
#    x 3.684880 0.000000 0.000000 
#    y 0.000000 3.735550 0.000000 
#    z 0.000000 0.000000 3.142780 
# 
# 
# High freq. dielectric constant tensor:
#      x y z
#    x 1.702750 0.000000 0.000000 
#    y 0.000000 1.687250 0.000000 
#    z 0.000000 0.000000 1.664940 
# 
# From -- ./inp_files/31951.got.cif
#   From: 2010.03.12/outbox.cif.g09.slc.cpg/sg63_16_cif.got.tgz:31951.got - 2010.04.10 19:34:48.
