data_PCOD8256341
_publ_section_title
;
Structure prediction by ZEFSAII (Michael W. Deem and Ramdas Pophale) SiO2 
 PCOD8256341
Probable space group: C M C M
;
_chemical_formula_sum "Si O2"
_cell_formula_units_Z 72
_cell_length_a 11.999877
_cell_length_b 14.894067
_cell_length_c 22.381000
_cell_angle_alpha 90.000000
_cell_angle_beta 90.000000
_cell_angle_gamma 90.000000
_cell_volume 4000.088361
_symmetry_space_group_name_H-M "C M C M"
_symmetry_group_IT_number 63
_symmetry_cell_setting 'orthorhombic'
loop_
_space_group_symop_operation_xyz
x,y,z
-x,-y,1/2+z
x,-y,-z
-x,y,1/2-z
-x,-y,-z
x,y,1/2-z
-x,y,z
x,-y,1/2+z
1/2+x,1/2+y,z
1/2-x,1/2-y,1/2+z
1/2+x,1/2-y,-z
1/2-x,1/2+y,1/2-z
1/2-x,1/2-y,-z
1/2+x,1/2+y,1/2-z
1/2-x,1/2+y,z
1/2+x,1/2-y,1/2+z
loop_
_atom_site_type_symbol
_atom_site_label
_atom_site_fract_x
_atom_site_fract_y
_atom_site_fract_z
Si Si1 0.245737 0.773484 0.399565
Si Si2 0.628972 0.872432 0.680300
Si Si3 0.126828 0.161028 0.489242
Si Si4 0.626903 0.943012 0.377479
Si Si5 0.285401 0.000000 0.500000
O O1 0.203210 0.700758 0.352940
O O2 0.145361 0.802329 0.443570
O O3 0.347105 0.737369 0.440462
O O4 0.292822 0.858909 0.362690
O O5 0.649692 0.859856 0.750000
O O6 0.500000 0.858214 0.662877
O O7 0.667251 0.972284 0.661630
O O8 0.000000 0.129871 0.482654
O O9 0.207397 0.078390 0.474600
O O10 0.500000 0.918078 0.361592
O O11 0.635022 0.965882 0.447593
#
# Coordination Sequence:
#
# PCOD8256341 Si02
#       5
#    16  16  16  16   8
#     4  10  20  34  53  81 109 144 178 224 273 319
#     4  10  21  38  58  78 105 144 184 221 264 321
#     4  10  19  31  50  80 113 142 177 220 273 329
#     4  10  20  34  55  83 110 140 179 223 268 322
#     4  10  18  32  52  80 110 148 174 216 276 320
#
# _framework density 17.999603
#
# number of rings (size 3 to 8) (size 9 to 14) (size 15 to 20)
#    0.000    2.000    2.222    2.000    0.000    0.889 
#    0.000    0.000    0.000    2.000    0.000    0.000 
#    0.000    0.000    0.000    0.000    0.000    0.000 
#
# Total GULP energy -446483.473663 kJ/mol
# GULP energy per Si atom -12402.318713 kJ/mol
# Density = 1.795863 g / cm^3
# Si number density = 17.999603 Si / 1000 Ang^3
#
#
#
# Elastic Constant Matrix: (Units=GPa)
#
#
# Indices 1 2 3 4 5 6 
#
# 1 73.6563 45.2489 30.8791 0.0000 0.0000 0.0000
# 2 45.2489 131.4491 45.9905 0.0000 0.0000 0.0000
# 3 30.8791 45.9905 62.6552 0.0000 0.0000 0.0000
# 4 0.0000 0.0000 0.0000 26.6729 0.0000 0.0000
# 5 0.0000 0.0000 0.0000 0.0000 13.1761 0.0000
# 6 0.0000 0.0000 0.0000 0.0000 0.0000 16.5427
#
#
#
# Elastic Compliance Matrix: (Units=1/GPa)
#
#
# Indices 1 2 3 4 5 6 
#
# 1 0.018791 -0.004344 -0.006072 0.000000 0.000000 0.000000
# 2 -0.004344 0.011241 -0.006110 0.000000 0.000000 0.000000
# 3 -0.006072 -0.006110 0.023438 0.000000 0.000000 0.000000
# 4 0.000000 0.000000 0.000000 0.037491 0.000000 0.000000
# 5 0.000000 0.000000 0.000000 0.000000 0.075895 0.000000
# 6 0.000000 0.000000 0.000000 0.000000 0.000000 0.060449
#
#
# Mechanical properties :
#
#
# Convention : Reuss Voigt Hill
#
# Bulk Modulus (GPa) = 48.97917 56.88864 52.93390
# Shear Modulus (GPa) = 18.71516 20.98784 19.85150
#
# Velocity S-wave (km/s) = 3.22802 3.41840 3.32457
# Velocity P-wave (km/s) = 6.41590 6.87421 6.64901
#
# Compressibility (1/GPa) = 0.02041684
#
# Stress axis : x y z
#
# Youngs Moduli (GPa) = 53.21739 88.96396 42.66577
#
# Poissons Ratio (x) = 0.38644 0.25909
# Poissons Ratio (y) = 0.23117 0.26069
# Poissons Ratio (z) = 0.32316 0.54357
#
# Static dielectric constant tensor:
#      x y z
#    x 3.125260 0.000000 0.000000 
#    y 0.000000 3.493950 0.000000 
#    z 0.000000 0.000000 3.109030 
# 
# 
# High freq. dielectric constant tensor:
#      x y z
#    x 1.684970 0.000000 0.000000 
#    y 0.000000 1.712580 0.000000 
#    z 0.000000 0.000000 1.675700 
# 
# From -- ./inp_files/60991.got.cif
#   From: 2010.03.12/outbox.cif.g09.slc.cpg/sg63_31_cif.got.tgz:60991.got - 2010.04.10 19:34:48.
