data_PCOD8256232
_publ_section_title
;
Structure prediction by ZEFSAII (Michael W. Deem and Ramdas Pophale) SiO2 
 PCOD8256232
Probable space group: C M C M
;
_chemical_formula_sum "Si O2"
_cell_formula_units_Z 80
_cell_length_a 26.068181
_cell_length_b 9.443918
_cell_length_c 17.555676
_cell_angle_alpha 90.000000
_cell_angle_beta 90.000000
_cell_angle_gamma 90.000000
_cell_volume 4321.957505
_symmetry_space_group_name_H-M "C M C M"
_symmetry_group_IT_number 63
_symmetry_cell_setting 'orthorhombic'
loop_
_space_group_symop_operation_xyz
x,y,z
-x,-y,1/2+z
x,-y,-z
-x,y,1/2-z
-x,-y,-z
x,y,1/2-z
-x,y,z
x,-y,1/2+z
1/2+x,1/2+y,z
1/2-x,1/2-y,1/2+z
1/2+x,1/2-y,-z
1/2-x,1/2+y,1/2-z
1/2-x,1/2-y,-z
1/2+x,1/2+y,1/2-z
1/2-x,1/2+y,z
1/2+x,1/2-y,1/2+z
loop_
_atom_site_type_symbol
_atom_site_label
_atom_site_fract_x
_atom_site_fract_y
_atom_site_fract_z
Si Si1 0.363155 0.062421 0.336913
Si Si2 0.206498 0.229977 0.905784
Si Si3 0.629394 0.491755 0.914543
Si Si4 0.677659 0.201737 0.575848
Si Si5 0.942853 0.206738 0.660233
O O1 0.369841 0.007875 0.250000
O O2 0.315806 0.172355 0.338759
O O3 0.412787 0.151466 0.366540
O O4 0.352648 0.935296 0.395078
O O5 0.266289 0.216159 0.887295
O O6 0.183420 0.072716 0.904748
O O7 0.188984 0.303517 0.985465
O O8 0.641312 0.329106 0.895312
O O9 0.585435 0.561250 0.862967
O O10 0.608538 0.500000 0.000000
O O11 0.945532 0.206548 0.750000
O O12 0.000000 0.210152 0.624716
#
# Coordination Sequence:
#
# PCOD8256232 Si02
#       5
#    16  16  16  16  16
#     4  10  20  32  49  74 101 130 166 208 247 288
#     4   9  18  33  51  71 103 142 165 185 237 307
#     4   9  18  31  51  77 100 127 166 209 245 286
#     4  10  18  31  52  76 101 131 167 203 239 287
#     4   9  19  37  55  68  93 136 173 203 256 319
#
# _framework density 18.510131999999999
#
# number of rings (size 3 to 8) (size 9 to 14) (size 15 to 20)
#    0.000    2.600    0.000    1.800    0.000    5.200 
#    0.000    5.000    0.000   18.000    0.000    0.000 
#    0.000    0.000    0.000    0.000    0.000    0.000 
#
# Total GULP energy -495752.815402 kJ/mol
# GULP energy per Si atom -12393.820385 kJ/mol
# Density = 1.846800 g / cm^3
# Si number density = 18.510132 Si / 1000 Ang^3
#
#
#
# Elastic Constant Matrix: (Units=GPa)
#
#
# Indices 1 2 3 4 5 6 
#
# 1 137.9171 53.7238 21.5870 0.0000 0.0000 0.0000
# 2 53.7238 113.4301 26.2938 0.0000 0.0000 0.0000
# 3 21.5870 26.2938 25.4966 0.0000 0.0000 0.0000
# 4 0.0000 0.0000 0.0000 30.3235 0.0000 0.0000
# 5 0.0000 0.0000 0.0000 0.0000 22.0136 0.0000
# 6 0.0000 0.0000 0.0000 0.0000 0.0000 13.0599
#
#
#
# Elastic Compliance Matrix: (Units=1/GPa)
#
#
# Indices 1 2 3 4 5 6 
#
# 1 0.009245 -0.003370 -0.004352 0.000000 0.000000 0.000000
# 2 -0.003370 0.012814 -0.010362 0.000000 0.000000 0.000000
# 3 -0.004352 -0.010362 0.053591 0.000000 0.000000 0.000000
# 4 0.000000 0.000000 0.000000 0.032978 0.000000 0.000000
# 5 0.000000 0.000000 0.000000 0.000000 0.045427 0.000000
# 6 0.000000 0.000000 0.000000 0.000000 0.000000 0.076570
#
#
# Mechanical properties :
#
#
# Convention : Reuss Voigt Hill
#
# Bulk Modulus (GPa) = 25.32724 53.33920 39.33322
# Shear Modulus (GPa) = 17.86026 24.76201 21.31113
#
# Velocity S-wave (km/s) = 3.10964 3.66150 3.39680
# Velocity P-wave (km/s) = 5.15808 6.83771 6.05640
#
# Compressibility (1/GPa) = 0.03948318
#
# Stress axis : x y z
#
# Youngs Moduli (GPa) = 108.17221 78.04065 18.65979
#
# Poissons Ratio (x) = 0.26297 0.08121
# Poissons Ratio (y) = 0.36450 0.19334
# Poissons Ratio (z) = 0.47076 0.80862
#
# Static dielectric constant tensor:
#      x y z
#    x 3.586620 0.000000 0.000000 
#    y 0.000000 3.454690 0.000000 
#    z 0.000000 0.000000 3.233060 
# 
# 
# High freq. dielectric constant tensor:
#      x y z
#    x 1.704850 0.000000 0.000000 
#    y 0.000000 1.721240 0.000000 
#    z 0.000000 0.000000 1.700600 
# 
# From -- ./inp_files/48764.got.cif
#   From: 2010.03.12/outbox.cif.g09.slc.cpg/sg63_25_cif.got.tgz:48764.got - 2010.04.10 19:34:48.
