data_PCOD8256526
_publ_section_title
;
Structure prediction by ZEFSAII (Michael W. Deem and Ramdas Pophale) SiO2 
 PCOD8256526
Probable space group: C M C M
;
_chemical_formula_sum "Si O2"
_cell_formula_units_Z 80
_cell_length_a 16.582781
_cell_length_b 12.162456
_cell_length_c 21.342770
_cell_angle_alpha 90.000000
_cell_angle_beta 90.000000
_cell_angle_gamma 90.000000
_cell_volume 4304.566601
_symmetry_space_group_name_H-M "C M C M"
_symmetry_group_IT_number 63
_symmetry_cell_setting 'orthorhombic'
loop_
_space_group_symop_operation_xyz
x,y,z
-x,-y,1/2+z
x,-y,-z
-x,y,1/2-z
-x,-y,-z
x,y,1/2-z
-x,y,z
x,-y,1/2+z
1/2+x,1/2+y,z
1/2-x,1/2-y,1/2+z
1/2+x,1/2-y,-z
1/2-x,1/2+y,1/2-z
1/2-x,1/2-y,-z
1/2+x,1/2+y,1/2-z
1/2-x,1/2+y,z
1/2+x,1/2-y,1/2+z
loop_
_atom_site_type_symbol
_atom_site_label
_atom_site_fract_x
_atom_site_fract_y
_atom_site_fract_z
Si Si1 0.500000 0.836128 0.180506
Si Si2 0.213352 0.227352 0.899226
Si Si3 0.835904 0.628580 0.506838
Si Si4 0.500000 0.900206 0.049307
Si Si5 0.093095 0.071084 0.824084
Si Si6 0.354193 0.669033 0.178827
O O1 0.500000 0.892175 0.250000
O O2 0.500000 0.928187 0.124832
O O3 0.422579 0.759937 0.172523
O O4 0.259720 0.152760 0.949596
O O5 0.150744 0.156261 0.859460
O O6 0.274444 0.291892 0.855488
O O7 0.166045 0.319157 0.938167
O O8 0.840490 0.500000 0.500000
O O9 0.919451 0.671732 0.537939
O O10 0.500000 0.000000 0.000000
O O11 0.106963 0.083778 0.750000
O O12 0.000000 0.095746 0.841222
O O13 0.114599 0.948035 0.847418
O O14 0.328496 0.651882 0.250000
#
# Coordination Sequence:
#
# PCOD8256526 Si02
#       6
#     8  16  16   8  16  16
#     4  10  18  34  61  87 113 151 204 254 297 356
#     4  11  21  35  59  82 114 147 195 247 286 350
#     4  10  22  37  55  80 111 150 192 234 295 357
#     4  10  20  38  59  79 115 161 193 244 305 358
#     4  10  21  37  57  85 120 155 189 237 301 356
#     4  10  19  35  59  85 115 151 196 248 298 350
#
# _framework density 18.584914000000001
#
# number of rings (size 3 to 8) (size 9 to 14) (size 15 to 20)
#    0.000    1.800    3.000    1.800    1.400    0.000 
#    0.000    0.000    0.000    9.000    0.000    0.000 
#    0.000    0.000    0.000    0.000    0.000    0.000 
#
# Total GULP energy -495721.912721 kJ/mol
# GULP energy per Si atom -12393.047818 kJ/mol
# Density = 1.854261 g / cm^3
# Si number density = 18.584914 Si / 1000 Ang^3
#
#
#
# Elastic Constant Matrix: (Units=GPa)
#
#
# Indices 1 2 3 4 5 6 
#
# 1 119.5225 41.0089 61.4411 0.0000 0.0000 0.0000
# 2 41.0089 74.7008 50.5770 0.0000 0.0000 0.0000
# 3 61.4411 50.5770 122.0641 0.0000 0.0000 0.0000
# 4 0.0000 0.0000 0.0000 27.6665 0.0000 0.0000
# 5 0.0000 0.0000 0.0000 0.0000 33.2830 0.0000
# 6 0.0000 0.0000 0.0000 0.0000 0.0000 14.6607
#
#
#
# Elastic Compliance Matrix: (Units=1/GPa)
#
#
# Indices 1 2 3 4 5 6 
#
# 1 0.011891 -0.003441 -0.004560 0.000000 0.000000 0.000000
# 2 -0.003441 0.019602 -0.006390 0.000000 0.000000 0.000000
# 3 -0.004560 -0.006390 0.013135 0.000000 0.000000 0.000000
# 4 0.000000 0.000000 0.000000 0.036145 0.000000 0.000000
# 5 0.000000 0.000000 0.000000 0.000000 0.030045 0.000000
# 6 0.000000 0.000000 0.000000 0.000000 0.000000 0.068209
#
#
# Mechanical properties :
#
#
# Convention : Reuss Voigt Hill
#
# Bulk Modulus (GPa) = 63.10242 69.14905 66.12574
# Shear Modulus (GPa) = 23.46404 26.00607 24.73505
#
# Velocity S-wave (km/s) = 3.55707 3.74479 3.65214
# Velocity P-wave (km/s) = 7.13425 7.48237 7.31038
#
# Compressibility (1/GPa) = 0.01584725
#
# Stress axis : x y z
#
# Youngs Moduli (GPa) = 84.09643 51.01470 76.13038
#
# Poissons Ratio (x) = 0.17553 0.34714
# Poissons Ratio (y) = 0.28935 0.48649
# Poissons Ratio (z) = 0.38346 0.32600
#
# Static dielectric constant tensor:
#      x y z
#    x 4.099230 0.000000 0.000000 
#    y 0.000000 3.224490 0.000000 
#    z 0.000000 0.000000 3.440570 
# 
# 
# High freq. dielectric constant tensor:
#      x y z
#    x 1.738360 0.000000 0.000000 
#    y 0.000000 1.700040 0.000000 
#    z 0.000000 0.000000 1.731250 
# 
# From -- ./inp_files/55291.got.cif
#   From: 2010.03.12/outbox.cif.g09.slc.cpg/sg63_28_cif.got.tgz:55291.got - 2010.04.10 19:34:48.
