data_PCOD8256529
_publ_section_title
;
Structure prediction by ZEFSAII (Michael W. Deem and Ramdas Pophale) SiO2 
 PCOD8256529
Probable space group: C M C M
;
_chemical_formula_sum "Si O2"
_cell_formula_units_Z 88
_cell_length_a 13.784547
_cell_length_b 21.796070
_cell_length_c 14.755584
_cell_angle_alpha 90.000000
_cell_angle_beta 90.000000
_cell_angle_gamma 90.000000
_cell_volume 4433.299739
_symmetry_space_group_name_H-M "C M C M"
_symmetry_group_IT_number 63
_symmetry_cell_setting 'orthorhombic'
loop_
_space_group_symop_operation_xyz
x,y,z
-x,-y,1/2+z
x,-y,-z
-x,y,1/2-z
-x,-y,-z
x,y,1/2-z
-x,y,z
x,-y,1/2+z
1/2+x,1/2+y,z
1/2-x,1/2-y,1/2+z
1/2+x,1/2-y,-z
1/2-x,1/2+y,1/2-z
1/2-x,1/2-y,-z
1/2+x,1/2+y,1/2-z
1/2-x,1/2+y,z
1/2+x,1/2-y,1/2+z
loop_
_atom_site_type_symbol
_atom_site_label
_atom_site_fract_x
_atom_site_fract_y
_atom_site_fract_z
Si Si1 0.891924 0.983547 0.142913
Si Si2 0.334075 0.618072 0.355572
Si Si3 0.200247 0.590542 0.855824
Si Si4 0.202699 0.684838 0.012630
Si Si5 0.500000 0.713259 0.352606
Si Si6 0.500000 0.947509 0.426064
Si Si7 0.000000 0.313993 0.001927
O O1 0.894466 0.982522 0.250000
O O2 0.876359 0.053427 0.109797
O O3 0.000000 0.961617 0.107280
O O4 0.799468 0.943616 0.109897
O O5 0.304938 0.614183 0.250000
O O6 0.242864 0.636210 0.415922
O O7 0.408178 0.672099 0.376084
O O8 0.209643 0.607673 0.750000
O O9 0.193602 0.653061 0.913709
O O10 0.101502 0.549671 0.868335
O O11 0.096757 0.701783 0.053146
O O12 0.250000 0.750000 0.000000
O O13 0.500000 0.734233 0.250000
O O14 0.500000 0.776329 0.404929
O O15 0.500000 0.885569 0.480755
O O16 0.500000 0.000000 0.500000
#
# Coordination Sequence:
#
# PCOD8256529 Si02
#       7
#    16  16  16  16   8   8   8
#     4   9  18  36  60  91 125 156 196 248 306 373
#     4  10  20  36  60  89 121 158 201 252 308 370
#     4  10  23  41  64  91 125 168 211 254 315 383
#     4  11  23  39  60  88 120 159 207 261 312 367
#     4  10  18  34  62  90 118 158 205 254 306 364
#     4  10  23  40  63  88 119 160 214 270 313 365
#     4  10  22  38  56  85 121 153 199 259 305 359
#
# _framework density 19.849774
#
# number of rings (size 3 to 8) (size 9 to 14) (size 15 to 20)
#    0.000    2.000    2.727    0.273    5.091    3.636 
#    3.273    1.364    0.000    0.000    0.000    0.000 
#    0.000    0.000    0.000    0.000    0.000    0.000 
#
# Total GULP energy -545074.826918 kJ/mol
# GULP energy per Si atom -12388.064248 kJ/mol
# Density = 1.980460 g / cm^3
# Si number density = 19.849774 Si / 1000 Ang^3
#
#
#
# Elastic Constant Matrix: (Units=GPa)
#
#
# Indices 1 2 3 4 5 6 
#
# 1 190.8463 42.3675 33.9802 0.0000 0.0000 0.0000
# 2 42.3675 95.1269 21.8683 0.0000 0.0000 0.0000
# 3 33.9802 21.8683 56.6816 0.0000 0.0000 0.0000
# 4 0.0000 0.0000 0.0000 27.9107 0.0000 0.0000
# 5 0.0000 0.0000 0.0000 0.0000 28.3271 0.0000
# 6 0.0000 0.0000 0.0000 0.0000 0.0000 33.7746
#
#
#
# Elastic Compliance Matrix: (Units=1/GPa)
#
#
# Indices 1 2 3 4 5 6 
#
# 1 0.006227 -0.002101 -0.002922 0.000000 0.000000 0.000000
# 2 -0.002101 0.012245 -0.003464 0.000000 0.000000 0.000000
# 3 -0.002922 -0.003464 0.020731 0.000000 0.000000 0.000000
# 4 0.000000 0.000000 0.000000 0.035829 0.000000 0.000000
# 5 0.000000 0.000000 0.000000 0.000000 0.035302 0.000000
# 6 0.000000 0.000000 0.000000 0.000000 0.000000 0.029608
#
#
# Mechanical properties :
#
#
# Convention : Reuss Voigt Hill
#
# Bulk Modulus (GPa) = 44.99163 59.89854 52.44509
# Shear Modulus (GPa) = 30.42757 34.29841 32.36299
#
# Velocity S-wave (km/s) = 3.91946 4.16131 4.04220
# Velocity P-wave (km/s) = 6.57253 7.30275 6.94724
#
# Compressibility (1/GPa) = 0.02222635
#
# Stress axis : x y z
#
# Youngs Moduli (GPa) = 160.60107 81.66865 48.23769
#
# Poissons Ratio (x) = 0.17162 0.14095
# Poissons Ratio (y) = 0.33750 0.16711
# Poissons Ratio (z) = 0.46928 0.28292
#
# Static dielectric constant tensor:
#      x y z
#    x 5.176360 0.000000 0.000000 
#    y 0.000000 3.508420 0.000000 
#    z 0.000000 0.000000 3.323080 
# 
# 
# High freq. dielectric constant tensor:
#      x y z
#    x 1.798870 0.000000 0.000000 
#    y 0.000000 1.771940 0.000000 
#    z 0.000000 0.000000 1.748760 
# 
# From -- ./inp_files/32151.got.cif
#   From: 2010.03.12/outbox.cif.g09.slc.cpg/sg63_17_cif.got.tgz:32151.got - 2010.04.10 19:34:48.
