data_PCOD8256242
_publ_section_title
;
Structure prediction by ZEFSAII (Michael W. Deem and Ramdas Pophale) SiO2 
 PCOD8256242
Probable space group: C M C M
;
_chemical_formula_sum "Si O2"
_cell_formula_units_Z 80
_cell_length_a 8.942998
_cell_length_b 20.398591
_cell_length_c 24.428679
_cell_angle_alpha 90.000000
_cell_angle_beta 90.000000
_cell_angle_gamma 90.000000
_cell_volume 4456.390982
_symmetry_space_group_name_H-M "C M C M"
_symmetry_group_IT_number 63
_symmetry_cell_setting 'orthorhombic'
loop_
_space_group_symop_operation_xyz
x,y,z
-x,-y,1/2+z
x,-y,-z
-x,y,1/2-z
-x,-y,-z
x,y,1/2-z
-x,y,z
x,-y,1/2+z
1/2+x,1/2+y,z
1/2-x,1/2-y,1/2+z
1/2+x,1/2-y,-z
1/2-x,1/2+y,1/2-z
1/2-x,1/2-y,-z
1/2+x,1/2+y,1/2-z
1/2-x,1/2+y,z
1/2+x,1/2-y,1/2+z
loop_
_atom_site_type_symbol
_atom_site_label
_atom_site_fract_x
_atom_site_fract_y
_atom_site_fract_z
Si Si1 0.829583 0.488711 0.250000
Si Si2 0.167383 0.644640 0.250000
Si Si3 0.322889 0.488452 0.360067
Si Si4 0.173259 0.138760 0.357942
Si Si5 0.325948 0.064534 0.964955
Si Si6 0.824075 0.814301 0.976062
O O1 0.824264 0.566752 0.250000
O O2 0.742086 0.462031 0.197195
O O3 0.000000 0.463039 0.250000
O O4 0.244721 0.670603 0.194467
O O5 0.000000 0.671678 0.250000
O O6 0.500000 0.479256 0.361588
O O7 0.275113 0.564089 0.369318
O O8 0.247437 0.443972 0.405921
O O9 0.210658 0.181969 0.411213
O O10 0.000000 0.139027 0.343362
O O11 0.500000 0.080851 0.958177
O O12 0.244781 0.123453 0.994690
O O13 0.297959 0.000000 0.000000
O O14 0.000000 0.813247 0.987051
O O15 0.750000 0.750000 0.000000
#
# Coordination Sequence:
#
# PCOD8256242 Si02
#       6
#     8   8  16  16  16  16
#     4   9  17  29  45  74 111 142 175 222 277 325
#     4   9  17  27  47  76 105 136 175 222 269 313
#     4  10  18  31  52  78 108 143 183 225 272 328
#     4   9  18  32  51  75 107 142 178 219 269 324
#     4  11  22  35  55  82 111 144 182 227 275 325
#     4  11  23  39  57  80 111 149 187 228 277 332
#
# _framework density 17.951747000000001
#
# number of rings (size 3 to 8) (size 9 to 14) (size 15 to 20)
#    0.000    2.000    2.000    2.400    0.000    5.600 
#    0.000    0.000    0.000    1.200    0.000    4.200 
#    0.000    0.000    0.000    0.000    0.000    0.000 
#
# Total GULP energy -496064.415705 kJ/mol
# GULP energy per Si atom -12401.610393 kJ/mol
# Density = 1.791089 g / cm^3
# Si number density = 17.951747 Si / 1000 Ang^3
#
#
#
# Elastic Constant Matrix: (Units=GPa)
#
#
# Indices 1 2 3 4 5 6 
#
# 1 122.1615 56.3781 91.2245 0.0000 0.0000 0.0000
# 2 56.3781 61.6414 47.2006 0.0000 0.0000 0.0000
# 3 91.2245 47.2006 157.1080 0.0000 0.0000 0.0000
# 4 0.0000 0.0000 0.0000 17.6015 0.0000 0.0000
# 5 0.0000 0.0000 0.0000 0.0000 36.3296 0.0000
# 6 0.0000 0.0000 0.0000 0.0000 0.0000 25.7637
#
#
#
# Elastic Compliance Matrix: (Units=1/GPa)
#
#
# Indices 1 2 3 4 5 6 
#
# 1 0.019415 -0.011851 -0.007713 0.000000 0.000000 0.000000
# 2 -0.011851 0.028304 -0.001622 0.000000 0.000000 0.000000
# 3 -0.007713 -0.001622 0.011331 0.000000 0.000000 0.000000
# 4 0.000000 0.000000 0.000000 0.056813 0.000000 0.000000
# 5 0.000000 0.000000 0.000000 0.000000 0.027526 0.000000
# 6 0.000000 0.000000 0.000000 0.000000 0.000000 0.038814
#
#
# Mechanical properties :
#
#
# Convention : Reuss Voigt Hill
#
# Bulk Modulus (GPa) = 59.96024 81.16859 70.56442
# Shear Modulus (GPa) = 21.72645 25.67947 23.70296
#
# Velocity S-wave (km/s) = 3.48267 3.78626 3.63763
# Velocity P-wave (km/s) = 7.04594 8.02667 7.55224
#
# Compressibility (1/GPa) = 0.01667772
#
# Stress axis : x y z
#
# Youngs Moduli (GPa) = 51.50750 35.33031 88.25570
#
# Poissons Ratio (x) = 0.41871 0.68068
# Poissons Ratio (y) = 0.61042 0.14317
# Poissons Ratio (z) = 0.39726 0.05731
#
# Static dielectric constant tensor:
#      x y z
#    x 3.463780 0.000000 0.000000 
#    y 0.000000 2.828010 0.000000 
#    z 0.000000 0.000000 3.539650 
# 
# 
# High freq. dielectric constant tensor:
#      x y z
#    x 1.710510 0.000000 0.000000 
#    y 0.000000 1.643440 0.000000 
#    z 0.000000 0.000000 1.714480 
# 
# From -- ./inp_files/59532.got.cif
#   From: 2010.03.12/outbox.cif.g09.slc.cpg/sg63_30_cif.got.tgz:59532.got - 2010.04.10 19:34:48.
