data_PCOD8256687
_publ_section_title
;
Structure prediction by ZEFSAII (Michael W. Deem and Ramdas Pophale) SiO2 
 PCOD8256687
Probable space group: C M C M
;
_chemical_formula_sum "Si O2"
_cell_formula_units_Z 96
_cell_length_a 9.260310
_cell_length_b 30.434576
_cell_length_c 19.260234
_cell_angle_alpha 90.000000
_cell_angle_beta 90.000000
_cell_angle_gamma 90.000000
_cell_volume 5428.181248
_symmetry_space_group_name_H-M "C M C M"
_symmetry_group_IT_number 63
_symmetry_cell_setting 'orthorhombic'
loop_
_space_group_symop_operation_xyz
x,y,z
-x,-y,1/2+z
x,-y,-z
-x,y,1/2-z
-x,-y,-z
x,y,1/2-z
-x,y,z
x,-y,1/2+z
1/2+x,1/2+y,z
1/2-x,1/2-y,1/2+z
1/2+x,1/2-y,-z
1/2-x,1/2+y,1/2-z
1/2-x,1/2-y,-z
1/2+x,1/2+y,1/2-z
1/2-x,1/2+y,z
1/2+x,1/2-y,1/2+z
loop_
_atom_site_type_symbol
_atom_site_label
_atom_site_fract_x
_atom_site_fract_y
_atom_site_fract_z
Si Si1 0.672008 0.361971 0.914892
Si Si2 0.665659 0.817093 0.168556
Si Si3 0.671529 0.618637 0.930979
Si Si4 0.672077 0.444716 0.672093
Si Si5 0.171683 0.218905 0.172828
Si Si6 0.328316 0.480364 0.071613
O O1 0.500000 0.362768 0.913429
O O2 0.731917 0.402958 0.870447
O O3 0.732899 0.316895 0.881360
O O4 0.727537 0.365391 0.993734
O O5 0.684536 0.825622 0.250000
O O6 0.500000 0.823731 0.146142
O O7 0.764667 0.850928 0.128229
O O8 0.718862 0.767768 0.149664
O O9 0.500000 0.621104 0.926763
O O10 0.727743 0.569146 0.917660
O O11 0.735127 0.443613 0.750000
O O12 0.500000 0.443232 0.673625
O O13 0.725893 0.489417 0.635173
O O14 0.231819 0.208259 0.250000
O O15 0.000000 0.216875 0.175651
O O16 0.500000 0.480414 0.067327
O O17 0.265502 0.500000 0.000000
#
# Coordination Sequence:
#
# PCOD8256687 Si02
#       6
#    16  16  16  16  16  16
#     4   9  15  24  40  66  94 117 146 189 236 276
#     4   9  19  35  50  64  88 123 159 194 230 270
#     4  10  19  29  47  72  97 123 149 186 236 279
#     4   9  15  22  36  60  89 121 155 188 223 268
#     4   8  14  26  44  63  87 122 158 191 229 271
#     4   9  15  26  40  59  94 131 151 175 226 280
#
# _framework density 17.685480999999999
#
# number of rings (size 3 to 8) (size 9 to 14) (size 15 to 20)
#    0.000    3.000    1.667    1.500    0.000    3.667 
#    0.000    1.667    0.000    0.500    0.000    0.000 
#    0.000    2.000    0.000    0.000    0.000    0.000 
#
# Total GULP energy -594989.073547 kJ/mol
# GULP energy per Si atom -12395.605699 kJ/mol
# Density = 1.764523 g / cm^3
# Si number density = 17.685481 Si / 1000 Ang^3
#
#
#
# Elastic Constant Matrix: (Units=GPa)
#
#
# Indices 1 2 3 4 5 6 
#
# 1 11.1755 21.0092 17.8718 0.0000 0.0000 0.0000
# 2 21.0092 169.1070 79.2140 0.0000 0.0000 0.0000
# 3 17.8718 79.2140 108.5424 0.0000 0.0000 0.0000
# 4 0.0000 0.0000 0.0000 40.3962 0.0000 0.0000
# 5 0.0000 0.0000 0.0000 0.0000 14.3544 0.0000
# 6 0.0000 0.0000 0.0000 0.0000 0.0000 14.1380
#
#
#
# Elastic Compliance Matrix: (Units=1/GPa)
#
#
# Indices 1 2 3 4 5 6 
#
# 1 0.130504 -0.009341 -0.014671 0.000000 0.000000 0.000000
# 2 -0.009341 0.009654 -0.005507 0.000000 0.000000 0.000000
# 3 -0.014671 -0.005507 0.015648 0.000000 0.000000 0.000000
# 4 0.000000 0.000000 0.000000 0.024755 0.000000 0.000000
# 5 0.000000 0.000000 0.000000 0.000000 0.069665 0.000000
# 6 0.000000 0.000000 0.000000 0.000000 0.000000 0.070731
#
#
# Mechanical properties :
#
#
# Convention : Reuss Voigt Hill
#
# Bulk Modulus (GPa) = 10.33406 58.33500 34.33453
# Shear Modulus (GPa) = 12.12854 25.15969 18.64412
#
# Velocity S-wave (km/s) = 2.62160 3.77585 3.25037
# Velocity P-wave (km/s) = 3.87552 7.21566 5.79161
#
# Compressibility (1/GPa) = 0.09676735
#
# Stress axis : x y z
#
# Youngs Moduli (GPa) = 7.66259 103.58809 63.90736
#
# Poissons Ratio (x) = 0.96764 0.93756
# Poissons Ratio (y) = 0.07158 0.35195
# Poissons Ratio (z) = 0.11242 0.57047
#
# Static dielectric constant tensor:
#      x y z
#    x 2.526700 0.000000 0.000000 
#    y 0.000000 3.573050 0.000000 
#    z 0.000000 0.000000 3.453220 
# 
# 
# High freq. dielectric constant tensor:
#      x y z
#    x 1.600710 0.000000 0.000000 
#    y 0.000000 1.701090 0.000000 
#    z 0.000000 0.000000 1.691720 
# 
# From -- ./inp_files/42686.got.cif
#   From: 2010.03.12/outbox.cif.g09.slc.cpg/sg63_22_cif.got.tgz:42686.got - 2010.04.10 19:34:48.
