data_PCOD8256623
_publ_section_title
;
Structure prediction by ZEFSAII (Michael W. Deem and Ramdas Pophale) SiO2 
 PCOD8256623
Probable space group: C M C M
;
_chemical_formula_sum "Si O2"
_cell_formula_units_Z 96
_cell_length_a 27.833718
_cell_length_b 28.821954
_cell_length_c 8.839390
_cell_angle_alpha 90.000000
_cell_angle_beta 90.000000
_cell_angle_gamma 90.000000
_cell_volume 7091.154361
_symmetry_space_group_name_H-M "C M C M"
_symmetry_group_IT_number 63
_symmetry_cell_setting 'orthorhombic'
loop_
_space_group_symop_operation_xyz
x,y,z
-x,-y,1/2+z
x,-y,-z
-x,y,1/2-z
-x,-y,-z
x,y,1/2-z
-x,y,z
x,-y,1/2+z
1/2+x,1/2+y,z
1/2-x,1/2-y,1/2+z
1/2+x,1/2-y,-z
1/2-x,1/2+y,1/2-z
1/2-x,1/2-y,-z
1/2+x,1/2+y,1/2-z
1/2-x,1/2+y,z
1/2+x,1/2-y,1/2+z
loop_
_atom_site_type_symbol
_atom_site_label
_atom_site_fract_x
_atom_site_fract_y
_atom_site_fract_z
Si Si1 0.097393 0.279039 0.072756
Si Si2 0.598784 0.049351 0.429486
Si Si3 0.000000 0.593154 0.070455
Si Si4 0.760034 0.321153 0.579581
Si Si5 0.820697 0.772385 0.420340
Si Si6 0.843198 0.370530 0.072853
Si Si7 0.000000 0.301827 0.570424
O O1 0.090570 0.272409 0.250000
O O2 0.121039 0.328476 0.033090
O O3 0.130382 0.237409 0.010996
O O4 0.046453 0.275229 0.990689
O O5 0.599310 0.045934 0.250000
O O6 0.546942 0.066542 0.490503
O O7 0.639633 0.084536 0.482916
O O8 0.610754 0.000000 0.500000
O O9 0.000000 0.594683 0.250000
O O10 0.000000 0.645505 0.006912
O O11 0.752787 0.339576 0.750000
O O12 0.788204 0.273080 0.580819
O O13 0.708102 0.313854 0.502483
O O14 0.789593 0.358762 0.483042
O O15 0.833234 0.787804 0.250000
O O16 0.842029 0.381037 0.250000
O O17 0.000000 0.300803 0.750000
#
# Coordination Sequence:
#
# PCOD8256623 Si02
#       7
#    16  16   8  16  16  16   8
#     4  10  19  29  41  58  78  99 126 159 194 232
#     4  11  21  34  46  59  75  96 125 163 206 249
#     4   9  19  32  46  58  71  93 125 163 205 248
#     4   9  16  26  41  59  78  98 119 148 185 227
#     4   9  16  26  40  58  78 100 122 148 183 226
#     4  10  19  30  43  59  76  97 123 155 194 239
#     4  11  19  30  44  58  75 100 132 164 200 242
#
# _framework density 13.537993
#
# number of rings (size 3 to 8) (size 9 to 14) (size 15 to 20)
#    0.000    2.167    1.667    3.000    0.000    5.333 
#    0.000    1.250    0.000    0.000    0.000    0.000 
#    0.000    0.000    0.000    0.000    0.000    0.000 
#
# Total GULP energy -595291.234519 kJ/mol
# GULP energy per Si atom -12401.900719 kJ/mol
# Density = 1.350718 g / cm^3
# Si number density = 13.537993 Si / 1000 Ang^3
#
#
#
# Elastic Constant Matrix: (Units=GPa)
#
#
# Indices 1 2 3 4 5 6 
#
# 1 94.5963 47.2058 44.5466 0.0000 0.0000 0.0000
# 2 47.2058 42.7532 24.5495 0.0000 0.0000 0.0000
# 3 44.5466 24.5495 82.1995 0.0000 0.0000 0.0000
# 4 0.0000 0.0000 0.0000 18.1019 0.0000 0.0000
# 5 0.0000 0.0000 0.0000 0.0000 25.2248 0.0000
# 6 0.0000 0.0000 0.0000 0.0000 0.0000 10.9040
#
#
#
# Elastic Compliance Matrix: (Units=1/GPa)
#
#
# Indices 1 2 3 4 5 6 
#
# 1 0.026310 -0.025182 -0.006738 0.000000 0.000000 0.000000
# 2 -0.025182 0.052333 -0.001983 0.000000 0.000000 0.000000
# 3 -0.006738 -0.001983 0.016409 0.000000 0.000000 0.000000
# 4 0.000000 0.000000 0.000000 0.055243 0.000000 0.000000
# 5 0.000000 0.000000 0.000000 0.000000 0.039644 0.000000
# 6 0.000000 0.000000 0.000000 0.000000 0.000000 0.091709
#
#
# Mechanical properties :
#
#
# Convention : Reuss Voigt Hill
#
# Bulk Modulus (GPa) = 36.70012 50.23921 43.46967
# Shear Modulus (GPa) = 13.94564 17.72928 15.83746
#
# Velocity S-wave (km/s) = 3.21302 3.62276 3.42402
# Velocity P-wave (km/s) = 6.39785 7.39524 6.91455
#
# Compressibility (1/GPa) = 0.02724787
#
# Stress axis : x y z
#
# Youngs Moduli (GPa) = 38.00786 19.10847 60.94158
#
# Poissons Ratio (x) = 0.48118 0.41061
# Poissons Ratio (y) = 0.95710 0.12084
# Poissons Ratio (z) = 0.25609 0.03789
#
# Static dielectric constant tensor:
#      x y z
#    x 2.692590 0.000000 0.000000 
#    y 0.000000 2.382340 0.000000 
#    z 0.000000 0.000000 2.785560 
# 
# 
# High freq. dielectric constant tensor:
#      x y z
#    x 1.504070 0.000000 0.000000 
#    y 0.000000 1.462950 0.000000 
#    z 0.000000 0.000000 1.533050 
# 
# From -- ./inp_files/10789.got.cif
#   From: 2010.03.12/outbox.cif.g09.slc.cpg/sg63_6_cif.got.tgz:10789.got - 2010.04.10 19:34:48.
