data_PCOD8256237
_publ_section_title
;
Structure prediction by ZEFSAII (Michael W. Deem and Ramdas Pophale) SiO2 
 PCOD8256237
Probable space group: C M C M
;
_chemical_formula_sum "Si O2"
_cell_formula_units_Z 72
_cell_length_a 7.606148
_cell_length_b 22.130081
_cell_length_c 25.722647
_cell_angle_alpha 90.000000
_cell_angle_beta 90.000000
_cell_angle_gamma 90.000000
_cell_volume 4329.756102
_symmetry_space_group_name_H-M "C M C M"
_symmetry_group_IT_number 63
_symmetry_cell_setting 'orthorhombic'
loop_
_space_group_symop_operation_xyz
x,y,z
-x,-y,1/2+z
x,-y,-z
-x,y,1/2-z
-x,-y,-z
x,y,1/2-z
-x,y,z
x,-y,1/2+z
1/2+x,1/2+y,z
1/2-x,1/2-y,1/2+z
1/2+x,1/2-y,-z
1/2-x,1/2+y,1/2-z
1/2-x,1/2-y,-z
1/2+x,1/2+y,1/2-z
1/2-x,1/2+y,z
1/2+x,1/2-y,1/2+z
loop_
_atom_site_type_symbol
_atom_site_label
_atom_site_fract_x
_atom_site_fract_y
_atom_site_fract_z
Si Si1 0.500000 0.997870 0.438782
Si Si2 0.301420 0.566479 0.623052
Si Si3 0.000000 0.726345 0.190125
Si Si4 0.000000 0.606389 0.365232
Si Si5 0.299481 0.177917 0.808604
Si Si6 0.695631 0.545286 0.192124
O O1 0.500000 0.068677 0.419674
O O2 0.500000 0.000000 0.500000
O O3 0.671800 0.960458 0.420647
O O4 0.500000 0.571627 0.599954
O O5 0.238314 0.629917 0.646018
O O6 0.297145 0.522497 0.671920
O O7 0.000000 0.678858 0.141458
O O8 0.825433 0.765353 0.181836
O O9 0.000000 0.699453 0.250000
O O10 0.179743 0.589431 0.338139
O O11 0.265486 0.151895 0.750000
O O12 0.500000 0.199977 0.813996
O O13 0.766244 0.542232 0.250000
O O14 0.500000 0.572350 0.188050
#
# Coordination Sequence:
#
# PCOD8256237 Si02
#       6
#     8  16   8   8  16  16
#     4  10  22  38  56  78 100 127 173 236 283 312
#     4  10  18  31  52  77 102 132 166 213 265 311
#     4  10  20  32  48  74 111 144 170 196 231 304
#     4  10  20  34  50  70 100 141 175 202 257 314
#     4  10  19  30  48  78 110 142 172 201 242 298
#     4   9  17  27  44  72 103 131 161 200 245 303
#
# _framework density 16.629111999999999
#
# number of rings (size 3 to 8) (size 9 to 14) (size 15 to 20)
#    0.000    2.222    2.222    1.667    0.000    2.222 
#    0.000    2.222    0.000    1.333    0.000    0.000 
#    0.000    0.000    0.000    0.000    0.000    0.000 
#
# Total GULP energy -445987.474551 kJ/mol
# GULP energy per Si atom -12388.540960 kJ/mol
# Density = 1.659126 g / cm^3
# Si number density = 16.629112 Si / 1000 Ang^3
#
#
#
# Elastic Constant Matrix: (Units=GPa)
#
#
# Indices 1 2 3 4 5 6 
#
# 1 122.4518 44.3776 43.8978 0.0000 0.0000 0.0000
# 2 44.3776 92.9215 44.3331 0.0000 0.0000 0.0000
# 3 43.8978 44.3331 105.1149 0.0000 0.0000 0.0000
# 4 0.0000 0.0000 0.0000 16.6306 0.0000 0.0000
# 5 0.0000 0.0000 0.0000 0.0000 9.0483 0.0000
# 6 0.0000 0.0000 0.0000 0.0000 0.0000 21.5172
#
#
#
# Elastic Compliance Matrix: (Units=1/GPa)
#
#
# Indices 1 2 3 4 5 6 
#
# 1 0.010514 -0.003664 -0.002846 0.000000 0.000000 0.000000
# 2 -0.003664 0.014749 -0.004691 0.000000 0.000000 0.000000
# 3 -0.002846 -0.004691 0.012680 0.000000 0.000000 0.000000
# 4 0.000000 0.000000 0.000000 0.060130 0.000000 0.000000
# 5 0.000000 0.000000 0.000000 0.000000 0.110518 0.000000
# 6 0.000000 0.000000 0.000000 0.000000 0.000000 0.046475
#
#
# Mechanical properties :
#
#
# Convention : Reuss Voigt Hill
#
# Bulk Modulus (GPa) = 64.33497 65.07835 64.70666
# Shear Modulus (GPa) = 17.68980 21.96453 19.82716
#
# Velocity S-wave (km/s) = 3.26511 3.63829 3.45674
# Velocity P-wave (km/s) = 7.27920 7.54120 7.41136
#
# Compressibility (1/GPa) = 0.01554365
#
# Stress axis : x y z
#
# Youngs Moduli (GPa) = 95.10727 67.79922 78.86334
#
# Poissons Ratio (x) = 0.24840 0.22443
# Poissons Ratio (y) = 0.34845 0.36992
# Poissons Ratio (z) = 0.27066 0.31802
#
# Static dielectric constant tensor:
#      x y z
#    x 3.328080 0.000000 0.000000 
#    y 0.000000 3.074540 0.000000 
#    z 0.000000 0.000000 2.809840 
# 
# 
# High freq. dielectric constant tensor:
#      x y z
#    x 1.669160 0.000000 0.000000 
#    y 0.000000 1.626340 0.000000 
#    z 0.000000 0.000000 1.595820 
# 
# From -- ./inp_files/50764.got.cif
#   From: 2010.03.12/outbox.cif.g09.slc.cpg/sg63_26_cif.got.tgz:50764.got - 2010.04.10 19:34:48.
