data_PCOD8256422
_publ_section_title
;
Structure prediction by ZEFSAII (Michael W. Deem and Ramdas Pophale) SiO2 
 PCOD8256422
Probable space group: C M C M
;
_chemical_formula_sum "Si O2"
_cell_formula_units_Z 80
_cell_length_a 14.009473
_cell_length_b 15.405050
_cell_length_c 19.070734
_cell_angle_alpha 90.000000
_cell_angle_beta 90.000000
_cell_angle_gamma 90.000000
_cell_volume 4115.781582
_symmetry_space_group_name_H-M "C M C M"
_symmetry_group_IT_number 63
_symmetry_cell_setting 'orthorhombic'
loop_
_space_group_symop_operation_xyz
x,y,z
-x,-y,1/2+z
x,-y,-z
-x,y,1/2-z
-x,-y,-z
x,y,1/2-z
-x,y,z
x,-y,1/2+z
1/2+x,1/2+y,z
1/2-x,1/2-y,1/2+z
1/2+x,1/2-y,-z
1/2-x,1/2+y,1/2-z
1/2-x,1/2-y,-z
1/2+x,1/2+y,1/2-z
1/2-x,1/2+y,z
1/2+x,1/2-y,1/2+z
loop_
_atom_site_type_symbol
_atom_site_label
_atom_site_fract_x
_atom_site_fract_y
_atom_site_fract_z
Si Si1 0.886994 0.914000 0.955701
Si Si2 0.111279 0.562807 0.064153
Si Si3 0.106319 0.861464 0.327534
Si Si4 0.271215 0.470563 0.831082
Si Si5 0.389683 0.746954 0.543583
O O1 0.842038 0.912026 0.878057
O O2 0.000000 0.911932 0.949205
O O3 0.845611 0.826683 0.992693
O O4 0.855180 0.000000 0.000000
O O5 0.166304 0.531286 0.134030
O O6 0.151899 0.655966 0.037246
O O7 0.000000 0.566247 0.084469
O O8 0.132598 0.500000 0.000000
O O9 0.105287 0.822423 0.250000
O O10 0.130097 0.780954 0.376692
O O11 0.000000 0.900184 0.346632
O O12 0.187506 0.932874 0.334942
O O13 0.267670 0.438108 0.750000
O O14 0.500000 0.752104 0.524947
#
# Coordination Sequence:
#
# PCOD8256422 Si02
#       5
#    16  16  16  16  16
#     4  10  18  32  57  88 118 144 176 222 285 352
#     4  10  23  42  60  78 106 149 205 250 274 309
#     4   9  17  31  54  87 121 145 172 219 285 354
#     4  11  22  35  54  83 116 151 182 220 283 346
#     4   9  18  34  59  85 108 145 188 233 282 326
#
# _framework density 19.437377999999999
#
# number of rings (size 3 to 8) (size 9 to 14) (size 15 to 20)
#    0.000    2.200    2.000    1.200    0.000    3.200 
#    0.000    2.000    0.000    0.000    0.000    5.600 
#    0.000    0.000    0.000    0.000    0.000    0.000 
#
# Total GULP energy -495660.301464 kJ/mol
# GULP energy per Si atom -12391.507537 kJ/mol
# Density = 1.939314 g / cm^3
# Si number density = 19.437378 Si / 1000 Ang^3
#
#
#
# Elastic Constant Matrix: (Units=GPa)
#
#
# Indices 1 2 3 4 5 6 
#
# 1 81.9867 29.8339 47.6199 0.0000 0.0000 0.0000
# 2 29.8339 143.1231 72.0190 0.0000 0.0000 0.0000
# 3 47.6199 72.0190 156.8247 0.0000 0.0000 0.0000
# 4 0.0000 0.0000 0.0000 20.9983 0.0000 0.0000
# 5 0.0000 0.0000 0.0000 0.0000 33.2074 0.0000
# 6 0.0000 0.0000 0.0000 0.0000 0.0000 -3.4549
#
#
#
# Elastic Compliance Matrix: (Units=1/GPa)
#
#
# Indices 1 2 3 4 5 6 
#
# 1 0.014936 -0.001081 -0.004039 0.000000 0.000000 0.000000
# 2 -0.001081 0.009165 -0.003881 0.000000 0.000000 0.000000
# 3 -0.004039 -0.003881 0.009385 0.000000 0.000000 0.000000
# 4 0.000000 0.000000 0.000000 0.047623 0.000000 0.000000
# 5 0.000000 0.000000 0.000000 0.000000 0.030114 0.000000
# 6 0.000000 0.000000 0.000000 0.000000 0.000000 -0.289445
#
#
# Mechanical properties :
#
#
# Convention : Reuss Voigt Hill
#
# Bulk Modulus (GPa) = 64.57775 75.65333 70.11554
# Shear Modulus (GPa) = -32.24580 25.64762 -3.29909
#
# Velocity S-wave (km/s) = -4.07745 3.63643 -1.30421
# Velocity P-wave (km/s) = 3.33589 7.52580 5.82090
#
# Compressibility (1/GPa) = 0.01548521
#
# Stress axis : x y z
#
# Youngs Moduli (GPa) = 66.95036 109.11001 106.55190
#
# Poissons Ratio (x) = 0.11796 0.43036
# Poissons Ratio (y) = 0.07238 0.41349
# Poissons Ratio (z) = 0.27041 0.42342
#
# Static dielectric constant tensor:
#      x y z
#    x 3.500920 0.000000 0.000000 
#    y 0.000000 3.663260 0.000000 
#    z 0.000000 0.000000 3.702180 
# 
# 
# High freq. dielectric constant tensor:
#      x y z
#    x 1.755010 0.000000 0.000000 
#    y 0.000000 1.745420 0.000000 
#    z 0.000000 0.000000 1.754410 
# 
# From -- ./inp_files/53980.got.cif
#   From: 2010.03.12/outbox.cif.g09.slc.cpg/sg63_27_cif.got.tgz:53980.got - 2010.04.10 19:34:48.
