data_PCOD8256455
_publ_section_title
;
Structure prediction by ZEFSAII (Michael W. Deem and Ramdas Pophale) SiO2 
 PCOD8256455
Probable space group: C M C M
;
_chemical_formula_sum "Si O2"
_cell_formula_units_Z 96
_cell_length_a 14.074251
_cell_length_b 17.500324
_cell_length_c 20.819373
_cell_angle_alpha 90.000000
_cell_angle_beta 90.000000
_cell_angle_gamma 90.000000
_cell_volume 5127.893860
_symmetry_space_group_name_H-M "C M C M"
_symmetry_group_IT_number 63
_symmetry_cell_setting 'orthorhombic'
loop_
_space_group_symop_operation_xyz
x,y,z
-x,-y,1/2+z
x,-y,-z
-x,y,1/2-z
-x,-y,-z
x,y,1/2-z
-x,y,z
x,-y,1/2+z
1/2+x,1/2+y,z
1/2-x,1/2-y,1/2+z
1/2+x,1/2-y,-z
1/2-x,1/2+y,1/2-z
1/2-x,1/2-y,-z
1/2+x,1/2+y,1/2-z
1/2-x,1/2+y,z
1/2+x,1/2-y,1/2+z
loop_
_atom_site_type_symbol
_atom_site_label
_atom_site_fract_x
_atom_site_fract_y
_atom_site_fract_z
Si Si1 0.757147 0.193495 0.059272
Si Si2 0.395215 0.838767 0.750000
Si Si3 0.107280 0.561835 0.676212
Si Si4 0.604440 0.660497 0.750000
Si Si5 0.388950 0.590508 0.991221
Si Si6 0.773300 0.841687 0.127755
Si Si7 0.608491 0.900667 0.879698
O O1 0.747644 0.250703 0.120255
O O2 0.669556 0.133057 0.061349
O O3 0.750000 0.250000 0.000000
O O4 0.852335 0.140475 0.053127
O O5 0.500000 0.879389 0.750000
O O6 0.407948 0.749856 0.750000
O O7 0.344112 0.866080 0.685272
O O8 0.137659 0.541822 0.750000
O O9 0.170210 0.626093 0.643565
O O10 0.116849 0.490990 0.627474
O O11 0.000000 0.592606 0.676267
O O12 0.500000 0.621536 0.750000
O O13 0.659304 0.635916 0.686547
O O14 0.500000 0.608952 0.979470
O O15 0.323500 0.619231 0.933032
O O16 0.373663 0.500000 0.000000
O O17 0.500000 0.873448 0.890087
#
# Coordination Sequence:
#
# PCOD8256455 Si02
#       7
#    16   8  16   8  16  16  16
#     4  10  22  35  54  82 110 145 188 234 287 335
#     4   9  16  27  50  81 109 135 171 222 278 327
#     4  10  20  34  54  83 118 152 181 218 280 350
#     4  11  20  31  53  89 121 145 186 240 289 337
#     4  10  22  41  60  77 106 150 199 242 282 329
#     4  11  21  36  57  85 116 149 188 234 289 346
#     4  10  18  33  56  83 112 143 184 231 280 338
#
# _framework density 18.721136000000001
#
# number of rings (size 3 to 8) (size 9 to 14) (size 15 to 20)
#    0.000    1.833    3.333    1.500    0.000    3.333 
#    0.000    2.500    0.000    9.000    0.000    0.000 
#    0.000    0.000    0.000    0.000    0.000    0.000 
#
# Total GULP energy -594672.485383 kJ/mol
# GULP energy per Si atom -12389.010112 kJ/mol
# Density = 1.867853 g / cm^3
# Si number density = 18.721136 Si / 1000 Ang^3
#
#
#
# Elastic Constant Matrix: (Units=GPa)
#
#
# Indices 1 2 3 4 5 6 
#
# 1 123.8061 61.5089 46.6950 0.0000 0.0000 0.0000
# 2 61.5089 93.1584 26.8303 0.0000 0.0000 0.0000
# 3 46.6950 26.8303 64.0064 0.0000 0.0000 0.0000
# 4 0.0000 0.0000 0.0000 -16.4367 0.0000 0.0000
# 5 0.0000 0.0000 0.0000 0.0000 31.6788 0.0000
# 6 0.0000 0.0000 0.0000 0.0000 0.0000 33.1693
#
#
#
# Elastic Compliance Matrix: (Units=1/GPa)
#
#
# Indices 1 2 3 4 5 6 
#
# 1 0.014647 -0.007499 -0.007542 0.000000 0.000000 0.000000
# 2 -0.007499 0.016047 -0.001256 0.000000 0.000000 0.000000
# 3 -0.007542 -0.001256 0.021652 0.000000 0.000000 0.000000
# 4 0.000000 0.000000 0.000000 -0.060839 0.000000 0.000000
# 5 0.000000 0.000000 0.000000 0.000000 0.031567 0.000000
# 6 0.000000 0.000000 0.000000 0.000000 0.000000 0.030148
#
#
# Mechanical properties :
#
#
# Convention : Reuss Voigt Hill
#
# Bulk Modulus (GPa) = 50.62651 61.22658 55.92654
# Shear Modulus (GPa) = 54.11141 19.41138 36.76140
#
# Velocity S-wave (km/s) = 5.38207 3.22354 4.43609
# Velocity P-wave (km/s) = 8.10699 6.82865 7.49513
#
# Compressibility (1/GPa) = 0.01975250
#
# Stress axis : x y z
#
# Youngs Moduli (GPa) = 68.27142 62.31554 46.18415
#
# Poissons Ratio (x) = 0.46729 0.34834
# Poissons Ratio (y) = 0.51196 0.05801
# Poissons Ratio (z) = 0.51493 0.07827
#
# Static dielectric constant tensor:
#      x y z
#    x 3.575950 0.000000 0.000000 
#    y 0.000000 3.558310 0.000000 
#    z 0.000000 0.000000 5.447290 
# 
# 
# High freq. dielectric constant tensor:
#      x y z
#    x 1.718170 0.000000 0.000000 
#    y 0.000000 1.729550 0.000000 
#    z 0.000000 0.000000 1.718540 
# 
# From -- ./inp_files/54243.got.cif
#   From: 2010.03.12/outbox.cif.g09.slc.cpg/sg63_28_cif.got.tgz:54243.got - 2010.04.10 19:34:48.
