data_PCOD8256164
_publ_section_title
;
Structure prediction by ZEFSAII (Michael W. Deem and Ramdas Pophale) SiO2 
 PCOD8256164
Probable space group: C M C M
;
_chemical_formula_sum "Si O2"
_cell_formula_units_Z 80
_cell_length_a 7.557414
_cell_length_b 28.785384
_cell_length_c 20.742290
_cell_angle_alpha 90.000000
_cell_angle_beta 90.000000
_cell_angle_gamma 90.000000
_cell_volume 4512.341322
_symmetry_space_group_name_H-M "C M C M"
_symmetry_group_IT_number 63
_symmetry_cell_setting 'orthorhombic'
loop_
_space_group_symop_operation_xyz
x,y,z
-x,-y,1/2+z
x,-y,-z
-x,y,1/2-z
-x,-y,-z
x,y,1/2-z
-x,y,z
x,-y,1/2+z
1/2+x,1/2+y,z
1/2-x,1/2-y,1/2+z
1/2+x,1/2-y,-z
1/2-x,1/2+y,1/2-z
1/2-x,1/2-y,-z
1/2+x,1/2+y,1/2-z
1/2-x,1/2+y,z
1/2+x,1/2-y,1/2+z
loop_
_atom_site_type_symbol
_atom_site_label
_atom_site_fract_x
_atom_site_fract_y
_atom_site_fract_z
Si Si1 0.000000 0.032317 0.903503
Si Si2 0.794352 0.233155 0.429067
Si Si3 0.793737 0.581935 0.675302
Si Si4 0.207980 0.670023 0.900555
Si Si5 0.000000 0.068500 0.451956
Si Si6 0.800762 0.362743 0.538742
O O1 0.177216 0.046333 0.865411
O O2 0.000000 0.976940 0.907854
O O3 0.000000 0.055697 0.973029
O O4 0.750000 0.250000 0.500000
O O5 0.725450 0.277016 0.385059
O O6 0.698788 0.183803 0.416202
O O7 0.000000 0.223846 0.418621
O O8 0.751506 0.575049 0.750000
O O9 0.739939 0.634896 0.656600
O O10 0.000000 0.572783 0.659489
O O11 0.000000 0.673732 0.910687
O O12 0.280939 0.650245 0.968521
O O13 0.824937 0.097432 0.432721
O O14 0.000000 0.382639 0.535315
#
# Coordination Sequence:
#
# PCOD8256164 Si02
#       6
#     8  16  16  16   8  16
#     4  11  23  36  52  76 103 137 184 222 271 320
#     4   9  15  24  42  68 101 137 170 197 237 298
#     4  10  20  36  56  76 103 135 171 221 269 313
#     4   8  15  27  45  72 102 136 169 203 248 308
#     4  11  22  34  52  74 104 146 174 220 272 322
#     4  10  18  31  47  70 104 139 174 209 253 313
#
# _framework density 17.729156
#
# number of rings (size 3 to 8) (size 9 to 14) (size 15 to 20)
#    0.000    2.400    3.000    2.100    0.000    0.800 
#    1.800    2.000    0.000    0.000    0.000    2.800 
#    0.000    3.200    0.000    0.000    0.000    0.000 
#
# Total GULP energy -495583.543865 kJ/mol
# GULP energy per Si atom -12389.588597 kJ/mol
# Density = 1.768880 g / cm^3
# Si number density = 17.729156 Si / 1000 Ang^3
#
#
#
# Elastic Constant Matrix: (Units=GPa)
#
#
# Indices 1 2 3 4 5 6 
#
# 1 88.8623 55.5771 26.4382 0.0000 0.0000 0.0000
# 2 55.5771 158.3343 45.2988 0.0000 0.0000 0.0000
# 3 26.4382 45.2988 55.3133 0.0000 0.0000 0.0000
# 4 0.0000 0.0000 0.0000 19.9754 0.0000 0.0000
# 5 0.0000 0.0000 0.0000 0.0000 12.7229 0.0000
# 6 0.0000 0.0000 0.0000 0.0000 0.0000 25.0370
#
#
#
# Elastic Compliance Matrix: (Units=1/GPa)
#
#
# Indices 1 2 3 4 5 6 
#
# 1 0.014985 -0.004193 -0.003728 0.000000 0.000000 0.000000
# 2 -0.004193 0.009422 -0.005712 0.000000 0.000000 0.000000
# 3 -0.003728 -0.005712 0.024538 0.000000 0.000000 0.000000
# 4 0.000000 0.000000 0.000000 0.050061 0.000000 0.000000
# 5 0.000000 0.000000 0.000000 0.000000 0.078598 0.000000
# 6 0.000000 0.000000 0.000000 0.000000 0.000000 0.039941
#
#
# Mechanical properties :
#
#
# Convention : Reuss Voigt Hill
#
# Bulk Modulus (GPa) = 46.12823 61.90423 54.01623
# Shear Modulus (GPa) = 19.83819 23.22680 21.53250
#
# Velocity S-wave (km/s) = 3.34871 3.62344 3.48878
# Velocity P-wave (km/s) = 6.40520 7.24557 6.83830
#
# Compressibility (1/GPa) = 0.02167870
#
# Stress axis : x y z
#
# Youngs Moduli (GPa) = 66.73230 106.13770 40.75237
#
# Poissons Ratio (x) = 0.44507 0.15194
# Poissons Ratio (y) = 0.27983 0.23276
# Poissons Ratio (z) = 0.24881 0.60622
#
# Static dielectric constant tensor:
#      x y z
#    x 3.509200 0.000000 0.000000 
#    y 0.000000 3.635740 0.000000 
#    z 0.000000 0.000000 2.837600 
# 
# 
# High freq. dielectric constant tensor:
#      x y z
#    x 1.692880 0.000000 0.000000 
#    y 0.000000 1.692810 0.000000 
#    z 0.000000 0.000000 1.615280 
# 
# From -- ./inp_files/51572.got.cif
#   From: 2010.03.12/outbox.cif.g09.slc.cpg/sg63_26_cif.got.tgz:51572.got - 2010.04.10 19:34:48.
