data_PCOD8256322
_publ_section_title
;
Structure prediction by ZEFSAII (Michael W. Deem and Ramdas Pophale) SiO2 
 PCOD8256322
Probable space group: C M C M
;
_chemical_formula_sum "Si O2"
_cell_formula_units_Z 72
_cell_length_a 33.489886
_cell_length_b 14.211009
_cell_length_c 8.719967
_cell_angle_alpha 90.000000
_cell_angle_beta 90.000000
_cell_angle_gamma 90.000000
_cell_volume 4150.050917
_symmetry_space_group_name_H-M "C M C M"
_symmetry_group_IT_number 63
_symmetry_cell_setting 'orthorhombic'
loop_
_space_group_symop_operation_xyz
x,y,z
-x,-y,1/2+z
x,-y,-z
-x,y,1/2-z
-x,-y,-z
x,y,1/2-z
-x,y,z
x,-y,1/2+z
1/2+x,1/2+y,z
1/2-x,1/2-y,1/2+z
1/2+x,1/2-y,-z
1/2-x,1/2+y,1/2-z
1/2-x,1/2-y,-z
1/2+x,1/2+y,1/2-z
1/2-x,1/2+y,z
1/2+x,1/2-y,1/2+z
loop_
_atom_site_type_symbol
_atom_site_label
_atom_site_fract_x
_atom_site_fract_y
_atom_site_fract_z
Si Si1 0.080838 0.396479 0.067917
Si Si2 0.232444 0.657807 0.926441
Si Si3 0.183510 0.907274 0.424325
Si Si4 0.155517 0.296894 0.931697
Si Si5 0.500000 0.104075 0.066905
O O1 0.077625 0.404262 0.250000
O O2 0.088588 0.500000 0.000000
O O3 0.116030 0.327347 0.019414
O O4 0.040437 0.349048 0.998706
O O5 0.221110 0.674631 0.750000
O O6 0.268273 0.582775 0.942775
O O7 0.250000 0.750000 0.000000
O O8 0.191840 0.632656 0.018849
O O9 0.170419 0.909495 0.250000
O O10 0.166196 0.808901 0.490470
O O11 0.164019 0.000000 0.500000
O O12 0.149581 0.303811 0.750000
O O13 0.500000 0.105268 0.250000
O O14 0.500000 0.000000 0.000000
#
# Coordination Sequence:
#
# PCOD8256322 Si02
#       5
#    16  16  16  16   8
#     4  11  21  34  52  75 101 131 162 196 238 290
#     4   9  17  30  45  64  89 122 160 202 246 288
#     4   9  19  32  48  68  94 127 166 206 247 289
#     4  10  20  34  49  71  99 128 164 208 248 290
#     4  10  18  32  52  74 101 130 157 192 234 286
#
# _framework density 17.349184000000001
#
# number of rings (size 3 to 8) (size 9 to 14) (size 15 to 20)
#    0.000    2.222    0.000    7.000    0.000    6.222 
#    0.000    2.222    0.000    0.000    0.000    0.778 
#    0.000    0.000    0.000    0.000    0.000    0.000 
#
# Total GULP energy -446046.093980 kJ/mol
# GULP energy per Si atom -12390.169277 kJ/mol
# Density = 1.730970 g / cm^3
# Si number density = 17.349184 Si / 1000 Ang^3
#
#
#
# Elastic Constant Matrix: (Units=GPa)
#
#
# Indices 1 2 3 4 5 6 
#
# 1 134.4003 36.1802 49.8139 0.0000 0.0000 0.0000
# 2 36.1802 62.0042 34.6414 0.0000 0.0000 0.0000
# 3 49.8139 34.6414 117.9146 0.0000 0.0000 0.0000
# 4 0.0000 0.0000 0.0000 25.0075 0.0000 0.0000
# 5 0.0000 0.0000 0.0000 0.0000 33.2370 0.0000
# 6 0.0000 0.0000 0.0000 0.0000 0.0000 19.5671
#
#
#
# Elastic Compliance Matrix: (Units=1/GPa)
#
#
# Indices 1 2 3 4 5 6 
#
# 1 0.009579 -0.003982 -0.002877 0.000000 0.000000 0.000000
# 2 -0.003982 0.020950 -0.004473 0.000000 0.000000 0.000000
# 3 -0.002877 -0.004473 0.011010 0.000000 0.000000 0.000000
# 4 0.000000 0.000000 0.000000 0.039988 0.000000 0.000000
# 5 0.000000 0.000000 0.000000 0.000000 0.030087 0.000000
# 6 0.000000 0.000000 0.000000 0.000000 0.000000 0.051106
#
#
# Mechanical properties :
#
#
# Convention : Reuss Voigt Hill
#
# Bulk Modulus (GPa) = 52.97677 61.73225 57.35451
# Shear Modulus (GPa) = 26.08583 28.47456 27.28019
#
# Velocity S-wave (km/s) = 3.88180 4.05564 3.96968
# Velocity P-wave (km/s) = 7.11991 7.58884 7.35811
#
# Compressibility (1/GPa) = 0.01887620
#
# Stress axis : x y z
#
# Youngs Moduli (GPa) = 104.39909 47.73196 90.82666
#
# Poissons Ratio (x) = 0.19007 0.26128
# Poissons Ratio (y) = 0.41572 0.40623
# Poissons Ratio (z) = 0.30033 0.21349
#
# Static dielectric constant tensor:
#      x y z
#    x 3.863120 0.000000 0.000000 
#    y 0.000000 3.030510 0.000000 
#    z 0.000000 0.000000 3.022530 
# 
# 
# High freq. dielectric constant tensor:
#      x y z
#    x 1.663740 0.000000 0.000000 
#    y 0.000000 1.633000 0.000000 
#    z 0.000000 0.000000 1.686260 
# 
# From -- ./inp_files/13924.got.cif
#   From: 2010.03.12/outbox.cif.g09.slc.cpg/sg63_7_cif.got.tgz:13924.got - 2010.04.10 19:34:48.
