data_PCOD8256064
_publ_section_title
;
Structure prediction by ZEFSAII (Michael W. Deem and Ramdas Pophale) SiO2 
 PCOD8256064
Probable space group: C M C M
;
_chemical_formula_sum "Si O2"
_cell_formula_units_Z 96
_cell_length_a 8.811606
_cell_length_b 29.601619
_cell_length_c 20.502719
_cell_angle_alpha 90.000000
_cell_angle_beta 90.000000
_cell_angle_gamma 90.000000
_cell_volume 5347.884192
_symmetry_space_group_name_H-M "C M C M"
_symmetry_group_IT_number 63
_symmetry_cell_setting 'orthorhombic'
loop_
_space_group_symop_operation_xyz
x,y,z
-x,-y,1/2+z
x,-y,-z
-x,y,1/2-z
-x,-y,-z
x,y,1/2-z
-x,y,z
x,-y,1/2+z
1/2+x,1/2+y,z
1/2-x,1/2-y,1/2+z
1/2+x,1/2-y,-z
1/2-x,1/2+y,1/2-z
1/2-x,1/2-y,-z
1/2+x,1/2+y,1/2-z
1/2-x,1/2+y,z
1/2+x,1/2-y,1/2+z
loop_
_atom_site_type_symbol
_atom_site_label
_atom_site_fract_x
_atom_site_fract_y
_atom_site_fract_z
Si Si1 0.177252 0.111300 0.480332
Si Si2 0.822253 0.462959 0.445973
Si Si3 0.176590 0.591530 0.349310
Si Si4 0.173296 0.997073 0.821742
Si Si5 0.823315 0.693126 0.322054
Si Si6 0.676237 0.286736 0.545887
O O1 0.228851 0.083921 0.544439
O O2 0.281024 0.088902 0.425079
O O3 0.215055 0.164456 0.485102
O O4 0.000000 0.104138 0.465380
O O5 0.772420 0.500000 0.500000
O O6 0.782559 0.479125 0.373449
O O7 0.000000 0.452997 0.450079
O O8 0.276293 0.554797 0.312076
O O9 0.219163 0.640339 0.320927
O O10 0.000000 0.580300 0.340071
O O11 0.188460 0.020011 0.750000
O O12 0.000000 0.999374 0.846517
O O13 0.781560 0.712792 0.250000
O O14 0.734049 0.718369 0.379599
O O15 0.000000 0.699586 0.336967
O O16 0.500000 0.277264 0.547550
O O17 0.750000 0.250000 0.500000
#
# Coordination Sequence:
#
# PCOD8256064 Si02
#       6
#    16  16  16  16  16  16
#     4  10  20  34  54  79 106 138 176 219 265 312
#     4  11  22  35  54  79 104 139 183 220 261 312
#     4  10  18  30  49  75 106 140 176 212 257 313
#     4  11  23  35  49  72 104 143 182 222 268 314
#     4   9  18  32  51  76 108 143 174 211 263 319
#     4  10  21  36  56  82 109 140 177 219 269 320
#
# _framework density 17.951025000000001
#
# number of rings (size 3 to 8) (size 9 to 14) (size 15 to 20)
#    0.000    1.833    1.667    3.000    0.000    5.667 
#    0.000    0.000    0.000    1.000    0.000    7.000 
#    0.000    0.000    0.000    0.000    0.000    0.000 
#
# Total GULP energy -595129.766108 kJ/mol
# GULP energy per Si atom -12398.536794 kJ/mol
# Density = 1.791017 g / cm^3
# Si number density = 17.951025 Si / 1000 Ang^3
#
#
#
# Elastic Constant Matrix: (Units=GPa)
#
#
# Indices 1 2 3 4 5 6 
#
# 1 69.7273 36.3552 41.5774 0.0000 0.0000 0.0000
# 2 36.3552 71.0091 53.3765 0.0000 0.0000 0.0000
# 3 41.5774 53.3765 118.4275 0.0000 0.0000 0.0000
# 4 0.0000 0.0000 0.0000 20.6170 0.0000 0.0000
# 5 0.0000 0.0000 0.0000 0.0000 26.9370 0.0000
# 6 0.0000 0.0000 0.0000 0.0000 0.0000 28.8931
#
#
#
# Elastic Compliance Matrix: (Units=1/GPa)
#
#
# Indices 1 2 3 4 5 6 
#
# 1 0.020610 -0.007733 -0.003750 0.000000 0.000000 0.000000
# 2 -0.007733 0.024200 -0.008192 0.000000 0.000000 0.000000
# 3 -0.003750 -0.008192 0.013453 0.000000 0.000000 0.000000
# 4 0.000000 0.000000 0.000000 0.048504 0.000000 0.000000
# 5 0.000000 0.000000 0.000000 0.000000 0.037124 0.000000
# 6 0.000000 0.000000 0.000000 0.000000 0.000000 0.034610
#
#
# Mechanical properties :
#
#
# Convention : Reuss Voigt Hill
#
# Bulk Modulus (GPa) = 52.87731 57.97578 55.42654
# Shear Modulus (GPa) = 22.30605 23.81308 23.05956
#
# Velocity S-wave (km/s) = 3.52889 3.64615 3.58799
# Velocity P-wave (km/s) = 6.79150 7.07761 6.93603
#
# Compressibility (1/GPa) = 0.01891170
#
# Stress axis : x y z
#
# Youngs Moduli (GPa) = 48.52105 41.32295 74.33262
#
# Poissons Ratio (x) = 0.31953 0.27878
# Poissons Ratio (y) = 0.37519 0.60895
# Poissons Ratio (z) = 0.18198 0.33853
#
# Static dielectric constant tensor:
#      x y z
#    x 3.338770 0.000000 0.000000 
#    y 0.000000 3.171080 0.000000 
#    z 0.000000 0.000000 3.275930 
# 
# 
# High freq. dielectric constant tensor:
#      x y z
#    x 1.706330 0.000000 0.000000 
#    y 0.000000 1.661110 0.000000 
#    z 0.000000 0.000000 1.694300 
# 
# From -- ./inp_files/51378.got.cif
#   From: 2010.03.12/outbox.cif.g09.slc.cpg/sg63_26_cif.got.tgz:51378.got - 2010.04.10 19:34:48.
