data_PCOD8256713
_publ_section_title
;
Structure prediction by ZEFSAII (Michael W. Deem and Ramdas Pophale) SiO2 
 PCOD8256713
Probable space group: C M C M
;
_chemical_formula_sum "Si O2"
_cell_formula_units_Z 128
_cell_length_a 25.415874
_cell_length_b 16.985041
_cell_length_c 18.105684
_cell_angle_alpha 90.000000
_cell_angle_beta 90.000000
_cell_angle_gamma 90.000000
_cell_volume 7816.036605
_symmetry_space_group_name_H-M "C M C M"
_symmetry_group_IT_number 63
_symmetry_cell_setting 'orthorhombic'
loop_
_space_group_symop_operation_xyz
x,y,z
-x,-y,1/2+z
x,-y,-z
-x,y,1/2-z
-x,-y,-z
x,y,1/2-z
-x,y,z
x,-y,1/2+z
1/2+x,1/2+y,z
1/2-x,1/2-y,1/2+z
1/2+x,1/2-y,-z
1/2-x,1/2+y,1/2-z
1/2-x,1/2-y,-z
1/2+x,1/2+y,1/2-z
1/2-x,1/2+y,z
1/2+x,1/2-y,1/2+z
loop_
_atom_site_type_symbol
_atom_site_label
_atom_site_fract_x
_atom_site_fract_y
_atom_site_fract_z
Si Si1 0.811676 0.915353 0.975229
Si Si2 0.144445 0.238430 0.523750
Si Si3 0.559036 0.996361 0.383204
Si Si4 0.200370 0.751312 0.333542
Si Si5 0.221028 0.661035 0.566540
Si Si6 0.334336 0.948466 0.168652
Si Si7 0.558284 0.866500 0.507945
Si Si8 0.751306 0.582386 0.332155
O O1 0.797503 0.916739 0.888524
O O2 0.857363 0.850257 0.990628
O O3 0.759207 0.897463 0.022456
O O4 0.834096 0.000000 0.000000
O O5 0.150068 0.234814 0.612857
O O6 0.198490 0.275446 0.491170
O O7 0.094886 0.290044 0.500466
O O8 0.500000 0.998545 0.347462
O O9 0.606226 0.982659 0.326033
O O10 0.561862 0.923312 0.438445
O O11 0.571548 0.080050 0.421216
O O12 0.186694 0.779017 0.250000
O O13 0.249353 0.800672 0.364269
O O14 0.214654 0.660609 0.335326
O O15 0.171627 0.615707 0.603643
O O16 0.322146 0.913699 0.250000
O O17 0.292156 0.014480 0.147354
O O18 0.500000 0.831262 0.514992
O O19 0.727420 0.570642 0.250000
#
# Coordination Sequence:
#
# PCOD8256713 Si02
#       8
#    16  16  16  16  16  16  16  16
#     4  11  20  32  48  69  95 128 160 201 239 282
#     4  11  19  32  51  72  91 124 172 196 241 290
#     4   9  18  31  48  70  94 127 164 201 241 278
#     4  10  19  31  44  66  99 126 156 196 237 282
#     4  11  19  30  47  67  95 128 164 199 227 289
#     4  11  21  29  43  67  97 137 164 195 240 275
#     4   9  18  32  52  73  93 119 158 207 247 282
#     4  10  19  30  43  65  97 128 159 190 234 284
#
# _framework density 16.376587000000001
#
# number of rings (size 3 to 8) (size 9 to 14) (size 15 to 20)
#    0.000    1.750    5.000    2.625    0.000    0.250 
#    0.000    0.000    0.000    1.500    0.000    0.000 
#    0.000    0.000    0.000    0.125    0.000    0.000 
#
# Total GULP energy -793246.255159 kJ/mol
# GULP energy per Si atom -12394.472737 kJ/mol
# Density = 1.633931 g / cm^3
# Si number density = 16.376587 Si / 1000 Ang^3
#
#
#
# Elastic Constant Matrix: (Units=GPa)
#
#
# Indices 1 2 3 4 5 6 
#
# 1 55.6724 28.3198 17.0347 0.0000 0.0000 0.0000
# 2 28.3198 87.7100 25.2370 0.0000 0.0000 0.0000
# 3 17.0347 25.2370 86.4028 0.0000 0.0000 0.0000
# 4 0.0000 0.0000 0.0000 17.5923 0.0000 0.0000
# 5 0.0000 0.0000 0.0000 0.0000 14.7154 0.0000
# 6 0.0000 0.0000 0.0000 0.0000 0.0000 27.0826
#
#
#
# Elastic Compliance Matrix: (Units=1/GPa)
#
#
# Indices 1 2 3 4 5 6 
#
# 1 0.021963 -0.006382 -0.002466 0.000000 0.000000 0.000000
# 2 -0.006382 0.014302 -0.002919 0.000000 0.000000 0.000000
# 3 -0.002466 -0.002919 0.012913 0.000000 0.000000 0.000000
# 4 0.000000 0.000000 0.000000 0.056843 0.000000 0.000000
# 5 0.000000 0.000000 0.000000 0.000000 0.067956 0.000000
# 6 0.000000 0.000000 0.000000 0.000000 0.000000 0.036924
#
#
# Mechanical properties :
#
#
# Convention : Reuss Voigt Hill
#
# Bulk Modulus (GPa) = 38.99661 41.21868 40.10765
# Shear Modulus (GPa) = 20.57762 22.49097 21.53429
#
# Velocity S-wave (km/s) = 3.54860 3.70991 3.63015
# Velocity P-wave (km/s) = 6.37606 6.60115 6.48958
#
# Compressibility (1/GPa) = 0.02564325
#
# Stress axis : x y z
#
# Youngs Moduli (GPa) = 45.53078 69.92170 77.44416
#
# Poissons Ratio (x) = 0.44623 0.19098
# Poissons Ratio (y) = 0.29057 0.22607
# Poissons Ratio (z) = 0.11228 0.20411
#
# Static dielectric constant tensor:
#      x y z
#    x 2.871410 0.000000 0.000000 
#    y 0.000000 3.102610 0.000000 
#    z 0.000000 0.000000 3.233940 
# 
# 
# High freq. dielectric constant tensor:
#      x y z
#    x 1.589950 0.000000 0.000000 
#    y 0.000000 1.625430 0.000000 
#    z 0.000000 0.000000 1.634990 
# 
# From -- ./inp_files/48398.got.cif
#   From: 2010.03.12/outbox.cif.g09.slc.cpg/sg63_25_cif.got.tgz:48398.got - 2010.04.10 19:34:48.
