data_PCOD8256684
_publ_section_title
;
Structure prediction by ZEFSAII (Michael W. Deem and Ramdas Pophale) SiO2 
 PCOD8256684
Probable space group: C M C M
;
_chemical_formula_sum "Si O2"
_cell_formula_units_Z 96
_cell_length_a 9.264896
_cell_length_b 28.043097
_cell_length_c 21.133819
_cell_angle_alpha 90.000000
_cell_angle_beta 90.000000
_cell_angle_gamma 90.000000
_cell_volume 5490.912289
_symmetry_space_group_name_H-M "C M C M"
_symmetry_group_IT_number 63
_symmetry_cell_setting 'orthorhombic'
loop_
_space_group_symop_operation_xyz
x,y,z
-x,-y,1/2+z
x,-y,-z
-x,y,1/2-z
-x,-y,-z
x,y,1/2-z
-x,y,z
x,-y,1/2+z
1/2+x,1/2+y,z
1/2-x,1/2-y,1/2+z
1/2+x,1/2-y,-z
1/2-x,1/2+y,1/2-z
1/2-x,1/2-y,-z
1/2+x,1/2+y,1/2-z
1/2-x,1/2+y,z
1/2+x,1/2-y,1/2+z
loop_
_atom_site_type_symbol
_atom_site_label
_atom_site_fract_x
_atom_site_fract_y
_atom_site_fract_z
Si Si1 0.830971 0.265576 0.937254
Si Si2 0.162035 0.634622 0.023232
Si Si3 0.328568 0.460064 0.949998
Si Si4 0.171381 0.996569 0.320629
Si Si5 0.343118 0.608631 0.676704
Si Si6 0.664866 0.184556 0.611528
O O1 0.757300 0.233662 0.882524
O O2 0.000000 0.253470 0.943570
O O3 0.750000 0.250000 0.000000
O O4 0.809435 0.322561 0.925891
O O5 0.182852 0.658740 0.955402
O O6 0.000000 0.614540 0.031059
O O7 0.272633 0.591767 0.030699
O O8 0.500000 0.458637 0.951844
O O9 0.272486 0.469982 0.878000
O O10 0.272481 0.500000 0.000000
O O11 0.233596 0.010374 0.250000
O O12 0.000000 0.998687 0.316518
O O13 0.218237 0.943404 0.342151
O O14 0.372369 0.607792 0.750000
O O15 0.500000 0.618351 0.643236
O O16 0.225200 0.648345 0.662906
O O17 0.500000 0.197048 0.626806
#
# Coordination Sequence:
#
# PCOD8256684 Si02
#       6
#    16  16  16  16  16  16
#     4   9  17  30  47  67  91 119 152 187 228 283
#     4   9  19  32  45  66  95 124 152 187 235 282
#     4  10  19  29  46  72  95 119 157 200 236 274
#     4   8  15  29  47  67  93 124 157 192 232 281
#     4   9  17  30  49  70  92 122 157 192 234 281
#     4  10  19  30  46  69  96 124 153 188 234 284
#
# _framework density 17.483433999999999
#
# number of rings (size 3 to 8) (size 9 to 14) (size 15 to 20)
#    0.000    2.833    0.000    4.000    0.000    6.000 
#    0.000    0.833    0.000    2.500    0.000    4.667 
#    0.000    0.000    0.000    0.000    0.000    0.000 
#
# Total GULP energy -594666.013185 kJ/mol
# GULP energy per Si atom -12388.875275 kJ/mol
# Density = 1.744364 g / cm^3
# Si number density = 17.483434 Si / 1000 Ang^3
#
#
#
# Elastic Constant Matrix: (Units=GPa)
#
#
# Indices 1 2 3 4 5 6 
#
# 1 73.7785 43.3865 14.4861 0.0000 0.0000 0.0000
# 2 43.3865 100.6798 22.0174 0.0000 0.0000 0.0000
# 3 14.4861 22.0174 34.5692 0.0000 0.0000 0.0000
# 4 0.0000 0.0000 0.0000 22.4906 0.0000 0.0000
# 5 0.0000 0.0000 0.0000 0.0000 16.0182 0.0000
# 6 0.0000 0.0000 0.0000 0.0000 0.0000 26.5656
#
#
#
# Elastic Compliance Matrix: (Units=1/GPa)
#
#
# Indices 1 2 3 4 5 6 
#
# 1 0.018436 -0.007267 -0.003097 0.000000 0.000000 0.000000
# 2 -0.007267 0.014405 -0.006129 0.000000 0.000000 0.000000
# 3 -0.003097 -0.006129 0.034129 0.000000 0.000000 0.000000
# 4 0.000000 0.000000 0.000000 0.044463 0.000000 0.000000
# 5 0.000000 0.000000 0.000000 0.000000 0.062429 0.000000
# 6 0.000000 0.000000 0.000000 0.000000 0.000000 0.037643
#
#
# Mechanical properties :
#
#
# Convention : Reuss Voigt Hill
#
# Bulk Modulus (GPa) = 29.42664 40.97859 35.20262
# Shear Modulus (GPa) = 19.54514 21.62404 20.58459
#
# Velocity S-wave (km/s) = 3.34716 3.52068 3.43502
# Velocity P-wave (km/s) = 5.63965 6.32584 5.99258
#
# Compressibility (1/GPa) = 0.03398281
#
# Stress axis : x y z
#
# Youngs Moduli (GPa) = 54.24216 69.42218 29.30075
#
# Poissons Ratio (x) = 0.50452 0.09074
# Poissons Ratio (y) = 0.39420 0.17959
# Poissons Ratio (z) = 0.16798 0.42549
#
# Static dielectric constant tensor:
#      x y z
#    x 3.089430 0.000000 0.000000 
#    y 0.000000 4.441310 0.000000 
#    z 0.000000 0.000000 3.278310 
# 
# 
# High freq. dielectric constant tensor:
#      x y z
#    x 1.662660 0.000000 0.000000 
#    y 0.000000 1.675230 0.000000 
#    z 0.000000 0.000000 1.646800 
# 
# From -- ./inp_files/51389.got.cif
#   From: 2010.03.12/outbox.cif.g09.slc.cpg/sg63_26_cif.got.tgz:51389.got - 2010.04.10 19:34:48.
