data_PCOD8256986
_publ_section_title
;
Structure prediction by ZEFSAII (Michael W. Deem and Ramdas Pophale) SiO2 
 PCOD8256986
Probable space group: C M C M
;
_chemical_formula_sum "Si O2"
_cell_formula_units_Z 112
_cell_length_a 20.606106
_cell_length_b 19.037366
_cell_length_c 17.563208
_cell_angle_alpha 90.000000
_cell_angle_beta 90.000000
_cell_angle_gamma 90.000000
_cell_volume 6889.800293
_symmetry_space_group_name_H-M "C M C M"
_symmetry_group_IT_number 63
_symmetry_cell_setting 'orthorhombic'
loop_
_space_group_symop_operation_xyz
x,y,z
-x,-y,1/2+z
x,-y,-z
-x,y,1/2-z
-x,-y,-z
x,y,1/2-z
-x,y,z
x,-y,1/2+z
1/2+x,1/2+y,z
1/2-x,1/2-y,1/2+z
1/2+x,1/2-y,-z
1/2-x,1/2+y,1/2-z
1/2-x,1/2-y,-z
1/2+x,1/2+y,1/2-z
1/2-x,1/2+y,z
1/2+x,1/2-y,1/2+z
loop_
_atom_site_type_symbol
_atom_site_label
_atom_site_fract_x
_atom_site_fract_y
_atom_site_fract_z
Si Si1 0.746705 0.873651 0.338515
Si Si2 0.749145 0.346104 0.837115
Si Si3 0.070210 0.954458 0.574032
Si Si4 0.362872 0.768616 0.166001
Si Si5 0.427416 0.705511 0.033098
Si Si6 0.806372 0.239199 0.562857
Si Si7 0.208461 0.988023 0.909346
O O1 0.765487 0.864821 0.250000
O O2 0.674966 0.841258 0.352768
O O3 0.797737 0.832943 0.391059
O O4 0.750425 0.954373 0.363559
O O5 0.766720 0.365084 0.750000
O O6 0.686438 0.296513 0.840918
O O7 0.807311 0.303465 0.877289
O O8 0.740435 0.414720 0.887834
O O9 0.088285 0.875069 0.551855
O O10 0.132496 0.986143 0.619008
O O11 0.000000 0.956261 0.618985
O O12 0.059862 0.000000 0.500000
O O13 0.393204 0.772275 0.250000
O O14 0.421310 0.754125 0.108305
O O15 0.500000 0.713521 0.000641
O O16 0.377266 0.735798 0.972589
O O17 0.750000 0.250000 0.500000
O O18 0.212242 0.000000 0.000000
#
# Coordination Sequence:
#
# PCOD8256986 Si02
#       7
#    16  16  16  16  16  16  16
#     4  10  20  32  50  72 102 136 172 213 261 301
#     4  10  19  31  49  71 101 134 167 210 262 303
#     4   9  17  29  43  66 103 140 166 197 246 294
#     4   9  18  33  49  70 102 136 165 211 265 310
#     4  11  20  31  52  78 103 135 175 218 255 302
#     4  11  17  32  53  72  98 133 172 213 254 304
#     4  11  19  29  49  77 100 130 170 220 250 298
#
# _framework density 16.255914000000001
#
# number of rings (size 3 to 8) (size 9 to 14) (size 15 to 20)
#    0.000    1.857    4.286    4.286    0.000    0.286 
#    0.000    0.000    0.000    4.286    0.000    2.000 
#    0.000    2.286    0.000    0.000    0.000    0.000 
#
# Total GULP energy -693958.711886 kJ/mol
# GULP energy per Si atom -12392.119855 kJ/mol
# Density = 1.621891 g / cm^3
# Si number density = 16.255914 Si / 1000 Ang^3
#
#
#
# Elastic Constant Matrix: (Units=GPa)
#
#
# Indices 1 2 3 4 5 6 
#
# 1 62.2754 28.1421 25.2218 0.0000 0.0000 0.0000
# 2 28.1421 78.6647 12.5986 0.0000 0.0000 0.0000
# 3 25.2218 12.5986 66.9228 0.0000 0.0000 0.0000
# 4 0.0000 0.0000 0.0000 28.7451 0.0000 0.0000
# 5 0.0000 0.0000 0.0000 0.0000 16.9684 0.0000
# 6 0.0000 0.0000 0.0000 0.0000 0.0000 30.6751
#
#
#
# Elastic Compliance Matrix: (Units=1/GPa)
#
#
# Indices 1 2 3 4 5 6 
#
# 1 0.021932 -0.006725 -0.007000 0.000000 0.000000 0.000000
# 2 -0.006725 0.015169 -0.000321 0.000000 0.000000 0.000000
# 3 -0.007000 -0.000321 0.017641 0.000000 0.000000 0.000000
# 4 0.000000 0.000000 0.000000 0.034788 0.000000 0.000000
# 5 0.000000 0.000000 0.000000 0.000000 0.058933 0.000000
# 6 0.000000 0.000000 0.000000 0.000000 0.000000 0.032600
#
#
# Mechanical properties :
#
#
# Convention : Reuss Voigt Hill
#
# Bulk Modulus (GPa) = 37.52262 37.75424 37.63843
# Shear Modulus (GPa) = 22.93176 24.73776 23.83476
#
# Velocity S-wave (km/s) = 3.75997 3.90522 3.83328
# Velocity P-wave (km/s) = 6.47938 6.60376 6.54187
#
# Compressibility (1/GPa) = 0.02665059
#
# Stress axis : x y z
#
# Youngs Moduli (GPa) = 45.59651 65.92191 56.68604
#
# Poissons Ratio (x) = 0.44332 0.39677
# Poissons Ratio (y) = 0.30663 0.01821
# Poissons Ratio (z) = 0.31915 0.02118
#
# Static dielectric constant tensor:
#      x y z
#    x 3.002040 0.000000 0.000000 
#    y 0.000000 3.288330 0.000000 
#    z 0.000000 0.000000 3.201890 
# 
# 
# High freq. dielectric constant tensor:
#      x y z
#    x 1.593410 0.000000 0.000000 
#    y 0.000000 1.626250 0.000000 
#    z 0.000000 0.000000 1.622600 
# 
# From -- ./inp_files/47333.got.cif
#   From: 2010.03.12/outbox.cif.g09.slc.cpg/sg63_24_cif.got.tgz:47333.got - 2010.04.10 19:34:48.
