data_PCOD8256883
_publ_section_title
;
Structure prediction by ZEFSAII (Michael W. Deem and Ramdas Pophale) SiO2 
 PCOD8256883
Probable space group: C M C M
;
_chemical_formula_sum "Si O2"
_cell_formula_units_Z 80
_cell_length_a 23.218442
_cell_length_b 24.471550
_cell_length_c 9.372084
_cell_angle_alpha 90.000000
_cell_angle_beta 90.000000
_cell_angle_gamma 90.000000
_cell_volume 5325.136257
_symmetry_space_group_name_H-M "C M C M"
_symmetry_group_IT_number 63
_symmetry_cell_setting 'orthorhombic'
loop_
_space_group_symop_operation_xyz
x,y,z
-x,-y,1/2+z
x,-y,-z
-x,y,1/2-z
-x,-y,-z
x,y,1/2-z
-x,y,z
x,-y,1/2+z
1/2+x,1/2+y,z
1/2-x,1/2-y,1/2+z
1/2+x,1/2-y,-z
1/2-x,1/2+y,1/2-z
1/2-x,1/2-y,-z
1/2+x,1/2+y,1/2-z
1/2-x,1/2+y,z
1/2+x,1/2-y,1/2+z
loop_
_atom_site_type_symbol
_atom_site_label
_atom_site_fract_x
_atom_site_fract_y
_atom_site_fract_z
Si Si1 0.231198 0.330512 0.583942
Si Si2 0.251383 0.051338 0.413307
Si Si3 0.065573 0.847273 0.413550
Si Si4 0.883368 0.946557 0.582946
Si Si5 0.169366 0.225013 0.913785
O O1 0.247267 0.330009 0.750000
O O2 0.215454 0.392888 0.540159
O O3 0.178324 0.289392 0.547855
O O4 0.288608 0.312390 0.504673
O O5 0.262403 0.036825 0.250000
O O6 0.184225 0.061298 0.445073
O O7 0.276232 0.000000 0.500000
O O8 0.074602 0.866958 0.250000
O O9 0.082792 0.895260 0.520046
O O10 0.103937 0.793223 0.444743
O O11 0.000000 0.829935 0.442230
O O12 0.897654 0.952383 0.750000
O O13 0.905806 0.000000 0.500000
O O14 0.186232 0.215208 0.750000
#
# Coordination Sequence:
#
# PCOD8256883 Si02
#       5
#    16  16  16  16  16
#     4   9  16  28  44  63  84 105 132 168 206 248
#     4   9  17  27  41  61  85 108 132 166 203 243
#     4  10  20  32  44  60  83 110 142 177 209 245
#     4  10  19  31  45  60  80 109 144 180 214 245
#     4   9  17  28  44  62  81 107 136 167 207 247
#
# _framework density 15.023089000000001
#
# number of rings (size 3 to 8) (size 9 to 14) (size 15 to 20)
#    0.000    2.600    2.000    0.600    0.000    2.400 
#    0.000    0.000    0.000    0.000    0.000    0.000 
#    0.000    0.800    0.000    0.600    0.000    1.200 
#
# Total GULP energy -495811.266659 kJ/mol
# GULP energy per Si atom -12395.281666 kJ/mol
# Density = 1.498890 g / cm^3
# Si number density = 15.023089 Si / 1000 Ang^3
#
#
#
# Elastic Constant Matrix: (Units=GPa)
#
#
# Indices 1 2 3 4 5 6 
#
# 1 54.1773 54.7840 29.6113 0.0000 0.0000 0.0000
# 2 54.7840 148.4696 55.5024 0.0000 0.0000 0.0000
# 3 29.6113 55.5024 59.3528 0.0000 0.0000 0.0000
# 4 0.0000 0.0000 0.0000 24.1072 0.0000 0.0000
# 5 0.0000 0.0000 0.0000 0.0000 11.9178 0.0000
# 6 0.0000 0.0000 0.0000 0.0000 0.0000 19.3002
#
#
#
# Elastic Compliance Matrix: (Units=1/GPa)
#
#
# Indices 1 2 3 4 5 6 
#
# 1 0.031444 -0.008822 -0.007438 0.000000 0.000000 0.000000
# 2 -0.008822 0.012831 -0.007597 0.000000 0.000000 0.000000
# 3 -0.007438 -0.007597 0.027663 0.000000 0.000000 0.000000
# 4 0.000000 0.000000 0.000000 0.041481 0.000000 0.000000
# 5 0.000000 0.000000 0.000000 0.000000 0.083908 0.000000
# 6 0.000000 0.000000 0.000000 0.000000 0.000000 0.051813
#
#
# Mechanical properties :
#
#
# Convention : Reuss Voigt Hill
#
# Bulk Modulus (GPa) = 41.28079 60.19945 50.74012
# Shear Modulus (GPa) = 16.39728 19.20517 17.80122
#
# Velocity S-wave (km/s) = 3.30733 3.57932 3.44601
# Velocity P-wave (km/s) = 6.49018 7.56573 7.04850
#
# Compressibility (1/GPa) = 0.02422434
#
# Stress axis : x y z
#
# Youngs Moduli (GPa) = 31.80258 77.93868 36.14912
#
# Poissons Ratio (x) = 0.68758 0.26887
# Poissons Ratio (y) = 0.28057 0.27462
# Poissons Ratio (z) = 0.23654 0.59209
#
# Static dielectric constant tensor:
#      x y z
#    x 2.678500 0.000000 0.000000 
#    y 0.000000 3.168350 0.000000 
#    z 0.000000 0.000000 2.976770 
# 
# 
# High freq. dielectric constant tensor:
#      x y z
#    x 1.526770 0.000000 0.000000 
#    y 0.000000 1.580090 0.000000 
#    z 0.000000 0.000000 1.582830 
# 
# From -- ./inp_files/14293.got.cif
#   From: 2010.03.12/outbox.cif.g09.slc.cpg/sg63_8_cif.got.tgz:14293.got - 2010.04.10 19:34:48.
