data_PCOD8256976
_publ_section_title
;
Structure prediction by ZEFSAII (Michael W. Deem and Ramdas Pophale) SiO2 
 PCOD8256976
Probable space group: C M C M
;
_chemical_formula_sum "Si O2"
_cell_formula_units_Z 80
_cell_length_a 18.305273
_cell_length_b 16.490602
_cell_length_c 14.939192
_cell_angle_alpha 90.000000
_cell_angle_beta 90.000000
_cell_angle_gamma 90.000000
_cell_volume 4509.618768
_symmetry_space_group_name_H-M "C M C M"
_symmetry_group_IT_number 63
_symmetry_cell_setting 'orthorhombic'
loop_
_space_group_symop_operation_xyz
x,y,z
-x,-y,1/2+z
x,-y,-z
-x,y,1/2-z
-x,-y,-z
x,y,1/2-z
-x,y,z
x,-y,1/2+z
1/2+x,1/2+y,z
1/2-x,1/2-y,1/2+z
1/2+x,1/2-y,-z
1/2-x,1/2+y,1/2-z
1/2-x,1/2-y,-z
1/2+x,1/2+y,1/2-z
1/2-x,1/2+y,z
1/2+x,1/2-y,1/2+z
loop_
_atom_site_type_symbol
_atom_site_label
_atom_site_fract_x
_atom_site_fract_y
_atom_site_fract_z
Si Si1 0.500000 0.992005 0.396419
Si Si2 0.000000 0.303401 0.144723
Si Si3 0.159875 0.525469 0.349539
Si Si4 0.363294 0.708177 0.149926
Si Si5 0.764218 0.641151 0.652103
Si Si6 0.786839 0.086662 0.472158
O O1 0.500000 0.897874 0.373944
O O2 0.500000 0.000000 0.500000
O O3 0.572709 0.037200 0.360432
O O4 0.070077 0.257092 0.104422
O O5 0.000000 0.292681 0.250000
O O6 0.181947 0.556096 0.250000
O O7 0.174983 0.429254 0.359523
O O8 0.207573 0.575333 0.422752
O O9 0.382414 0.678163 0.250000
O O10 0.295985 0.769303 0.152738
O O11 0.344162 0.629025 0.092979
O O12 0.724836 0.627800 0.750000
O O13 0.714056 0.638265 0.564150
O O14 0.819329 0.000000 0.500000
#
# Coordination Sequence:
#
# PCOD8256976 Si02
#       6
#     8   8  16  16  16  16
#     4  12  20  30  50  77 110 141 179 210 258 308
#     4  10  20  34  55  79 102 135 178 220 259 296
#     4  10  19  31  48  73 108 142 170 207 257 309
#     4  10  19  33  53  75 100 131 173 221 258 298
#     4   9  17  30  49  72  99 133 170 211 256 299
#     4  10  20  33  49  75 106 136 171 210 259 315
#
# _framework density 17.739858999999999
#
# number of rings (size 3 to 8) (size 9 to 14) (size 15 to 20)
#    0.000    2.000    2.000    3.900    0.000    0.800 
#    0.000    0.500    0.000    0.000    0.000    0.700 
#    0.000    0.000    0.000    0.000    0.000    0.000 
#
# Total GULP energy -495604.326472 kJ/mol
# GULP energy per Si atom -12390.108162 kJ/mol
# Density = 1.769948 g / cm^3
# Si number density = 17.739859 Si / 1000 Ang^3
#
#
#
# Elastic Constant Matrix: (Units=GPa)
#
#
# Indices 1 2 3 4 5 6 
#
# 1 47.3681 24.9968 19.6177 0.0000 0.0000 0.0000
# 2 24.9968 55.4854 30.5405 0.0000 0.0000 0.0000
# 3 19.6177 30.5405 117.8056 0.0000 0.0000 0.0000
# 4 0.0000 0.0000 0.0000 31.5536 0.0000 0.0000
# 5 0.0000 0.0000 0.0000 0.0000 18.6102 0.0000
# 6 0.0000 0.0000 0.0000 0.0000 0.0000 19.5481
#
#
#
# Elastic Compliance Matrix: (Units=1/GPa)
#
#
# Indices 1 2 3 4 5 6 
#
# 1 0.027959 -0.011703 -0.001622 0.000000 0.000000 0.000000
# 2 -0.011703 0.025921 -0.004771 0.000000 0.000000 0.000000
# 3 -0.001622 -0.004771 0.009996 0.000000 0.000000 0.000000
# 4 0.000000 0.000000 0.000000 0.031692 0.000000 0.000000
# 5 0.000000 0.000000 0.000000 0.000000 0.053734 0.000000
# 6 0.000000 0.000000 0.000000 0.000000 0.000000 0.051156
#
#
# Mechanical properties :
#
#
# Convention : Reuss Voigt Hill
#
# Bulk Modulus (GPa) = 36.12258 41.21880 38.67069
# Shear Modulus (GPa) = 20.33533 23.64265 21.98899
#
# Velocity S-wave (km/s) = 3.38939 3.65463 3.52451
# Velocity P-wave (km/s) = 5.97694 6.41046 6.19750
#
# Compressibility (1/GPa) = 0.02768352
#
# Stress axis : x y z
#
# Youngs Moduli (GPa) = 35.76690 38.57843 100.04460
#
# Poissons Ratio (x) = 0.45148 0.16227
# Poissons Ratio (y) = 0.41858 0.47732
# Poissons Ratio (z) = 0.05801 0.18406
#
# Static dielectric constant tensor:
#      x y z
#    x 2.731450 0.000000 0.000000 
#    y 0.000000 3.076140 0.000000 
#    z 0.000000 0.000000 3.676310 
# 
# 
# High freq. dielectric constant tensor:
#      x y z
#    x 1.642080 0.000000 0.000000 
#    y 0.000000 1.668580 0.000000 
#    z 0.000000 0.000000 1.704140 
# 
# From -- ./inp_files/33887.got.cif
#   From: 2010.03.12/outbox.cif.g09.slc.cpg/sg63_17_cif.got.tgz:33887.got - 2010.04.10 19:34:48.
