data_PCOD8256348
_publ_section_title
;
Structure prediction by ZEFSAII (Michael W. Deem and Ramdas Pophale) SiO2 
 PCOD8256348
Probable space group: C M C M
;
_chemical_formula_sum "Si O2"
_cell_formula_units_Z 104
_cell_length_a 28.126867
_cell_length_b 23.970646
_cell_length_c 8.656641
_cell_angle_alpha 90.000000
_cell_angle_beta 90.000000
_cell_angle_gamma 90.000000
_cell_volume 5836.473327
_symmetry_space_group_name_H-M "C M C M"
_symmetry_group_IT_number 63
_symmetry_cell_setting 'orthorhombic'
loop_
_space_group_symop_operation_xyz
x,y,z
-x,-y,1/2+z
x,-y,-z
-x,y,1/2-z
-x,-y,-z
x,y,1/2-z
-x,y,z
x,-y,1/2+z
1/2+x,1/2+y,z
1/2-x,1/2-y,1/2+z
1/2+x,1/2-y,-z
1/2-x,1/2+y,1/2-z
1/2-x,1/2-y,-z
1/2+x,1/2+y,1/2-z
1/2-x,1/2+y,z
1/2+x,1/2-y,1/2+z
loop_
_atom_site_type_symbol
_atom_site_label
_atom_site_fract_x
_atom_site_fract_y
_atom_site_fract_z
Si Si1 0.776376 0.061798 0.066855
Si Si2 0.906469 0.375506 0.930923
Si Si3 0.180015 0.561172 0.931600
Si Si4 0.127952 0.060851 0.930986
Si Si5 0.500000 0.061020 0.067339
Si Si6 0.445527 0.242705 0.073012
Si Si7 0.555355 0.357268 0.572313
O O1 0.775464 0.062568 0.250000
O O2 0.728006 0.089255 0.001792
O O3 0.824918 0.090141 0.005148
O O4 0.777410 0.000000 0.000000
O O5 0.897912 0.386925 0.750000
O O6 0.953316 0.407034 0.991381
O O7 0.912225 0.309878 0.964928
O O8 0.862380 0.397214 0.028927
O O9 0.185855 0.554772 0.750000
O O10 0.169582 0.500000 0.000000
O O11 0.135677 0.054593 0.750000
O O12 0.083196 0.099657 0.965525
O O13 0.117953 0.000000 0.000000
O O14 0.500000 0.058640 0.250000
O O15 0.500000 0.000000 0.000000
O O16 0.439457 0.261376 0.250000
O O17 0.500000 0.225192 0.040698
O O18 0.429371 0.294002 0.966281
O O19 0.567122 0.369585 0.750000
O O20 0.500000 0.365427 0.534664
#
# Coordination Sequence:
#
# PCOD8256348 Si02
#       7
#    16  16  16  16   8  16  16
#     4  10  18  32  53  76 103 135 171 211 255 307
#     4  10  19  33  51  72 100 135 175 219 266 314
#     4  11  21  33  49  73 103 136 175 218 264 314
#     4  11  21  35  56  82 111 141 172 207 253 308
#     4  10  20  32  46  68 100 136 171 214 265 318
#     4   9  17  33  55  75  98 134 178 220 261 309
#     4  10  21  36  54  79 110 141 175 215 253 299
#
# _framework density 17.81898
#
# number of rings (size 3 to 8) (size 9 to 14) (size 15 to 20)
#    0.000    1.846    0.769    6.923    0.000    3.692 
#    0.000    0.000    0.000    0.923    0.000    0.000 
#    0.000    0.000    0.000    0.000    0.000    0.000 
#
# Total GULP energy -644824.533170 kJ/mol
# GULP energy per Si atom -12400.471792 kJ/mol
# Density = 1.777842 g / cm^3
# Si number density = 17.818980 Si / 1000 Ang^3
#
#
#
# Elastic Constant Matrix: (Units=GPa)
#
#
# Indices 1 2 3 4 5 6 
#
# 1 111.5371 53.2235 51.4293 0.0000 0.0000 0.0000
# 2 53.2235 74.7512 36.3516 0.0000 0.0000 0.0000
# 3 51.4293 36.3516 122.7680 0.0000 0.0000 0.0000
# 4 0.0000 0.0000 0.0000 27.8748 0.0000 0.0000
# 5 0.0000 0.0000 0.0000 0.0000 31.4239 0.0000
# 6 0.0000 0.0000 0.0000 0.0000 0.0000 8.7325
#
#
#
# Elastic Compliance Matrix: (Units=1/GPa)
#
#
# Indices 1 2 3 4 5 6 
#
# 1 0.014830 -0.008806 -0.003605 0.000000 0.000000 0.000000
# 2 -0.008806 0.020857 -0.002487 0.000000 0.000000 0.000000
# 3 -0.003605 -0.002487 0.010392 0.000000 0.000000 0.000000
# 4 0.000000 0.000000 0.000000 0.035875 0.000000 0.000000
# 5 0.000000 0.000000 0.000000 0.000000 0.031823 0.000000
# 6 0.000000 0.000000 0.000000 0.000000 0.000000 0.114515
#
#
# Mechanical properties :
#
#
# Convention : Reuss Voigt Hill
#
# Bulk Modulus (GPa) = 61.41248 65.67389 63.54319
# Shear Modulus (GPa) = 18.97424 24.80968 21.89196
#
# Velocity S-wave (km/s) = 3.26672 3.73543 3.50891
# Velocity P-wave (km/s) = 6.98341 7.45256 7.22180
#
# Compressibility (1/GPa) = 0.01628333
#
# Stress axis : x y z
#
# Youngs Moduli (GPa) = 67.43130 47.94568 96.22794
#
# Poissons Ratio (x) = 0.42220 0.34691
# Poissons Ratio (y) = 0.59379 0.23930
# Poissons Ratio (z) = 0.24309 0.11923
#
# Static dielectric constant tensor:
#      x y z
#    x 3.753140 0.000000 0.000000 
#    y 0.000000 3.059530 0.000000 
#    z 0.000000 0.000000 3.316370 
# 
# 
# High freq. dielectric constant tensor:
#      x y z
#    x 1.694080 0.000000 0.000000 
#    y 0.000000 1.661740 0.000000 
#    z 0.000000 0.000000 1.699100 
# 
# From -- ./inp_files/14468.got.cif
#   From: 2010.03.12/outbox.cif.g09.slc.cpg/sg63_8_cif.got.tgz:14468.got - 2010.04.10 19:34:48.
