data_PCOD8256796
_publ_section_title
;
Structure prediction by ZEFSAII (Michael W. Deem and Ramdas Pophale) SiO2 
 PCOD8256796
Probable space group: C M C M
;
_chemical_formula_sum "Si O2"
_cell_formula_units_Z 96
_cell_length_a 8.808551
_cell_length_b 23.707216
_cell_length_c 25.652329
_cell_angle_alpha 90.000000
_cell_angle_beta 90.000000
_cell_angle_gamma 90.000000
_cell_volume 5356.878930
_symmetry_space_group_name_H-M "C M C M"
_symmetry_group_IT_number 63
_symmetry_cell_setting 'orthorhombic'
loop_
_space_group_symop_operation_xyz
x,y,z
-x,-y,1/2+z
x,-y,-z
-x,y,1/2-z
-x,-y,-z
x,y,1/2-z
-x,y,z
x,-y,1/2+z
1/2+x,1/2+y,z
1/2-x,1/2-y,1/2+z
1/2+x,1/2-y,-z
1/2-x,1/2+y,1/2-z
1/2-x,1/2-y,-z
1/2+x,1/2+y,1/2-z
1/2-x,1/2+y,z
1/2+x,1/2-y,1/2+z
loop_
_atom_site_type_symbol
_atom_site_label
_atom_site_fract_x
_atom_site_fract_y
_atom_site_fract_z
Si Si1 0.173440 0.877928 0.067483
Si Si2 0.170642 0.666314 0.118539
Si Si3 0.821576 0.081647 0.191119
Si Si4 0.178034 0.737586 0.556208
Si Si5 0.675327 0.494314 0.105123
Si Si6 0.329615 0.073472 0.029851
O O1 0.281698 0.824817 0.076807
O O2 0.199013 0.926649 0.111482
O O3 0.000000 0.856726 0.066903
O O4 0.209617 0.907585 0.012938
O O5 0.243120 0.638327 0.169813
O O6 0.266873 0.720151 0.100804
O O7 0.172306 0.621412 0.072934
O O8 0.000000 0.686014 0.131516
O O9 0.766151 0.071065 0.250000
O O10 0.000000 0.091735 0.188313
O O11 0.773682 0.026300 0.157837
O O12 0.250000 0.750000 0.500000
O O13 0.000000 0.742883 0.548920
O O14 0.500000 0.508167 0.092675
O O15 0.775931 0.514923 0.055970
O O16 0.500000 0.066131 0.007198
#
# Coordination Sequence:
#
# PCOD8256796 Si02
#       6
#    16  16  16  16  16  16
#     4  11  21  32  48  70 103 144 178 213 256 310
#     4  10  20  34  52  77 107 138 175 219 263 311
#     4   9  18  35  59  82 104 133 171 218 269 317
#     4  12  23  35  52  74 104 143 182 219 260 314
#     4   9  19  33  49  73 103 135 173 214 261 314
#     4  10  19  30  47  71 102 138 174 214 256 306
#
# _framework density 17.920883
#
# number of rings (size 3 to 8) (size 9 to 14) (size 15 to 20)
#    0.000    1.833    1.667    3.500    0.000    5.000 
#    0.000    0.000    0.000    1.000    0.000    2.333 
#    0.000    0.000    0.000    0.000    0.000    0.000 
#
# Total GULP energy -595190.360987 kJ/mol
# GULP energy per Si atom -12399.799187 kJ/mol
# Density = 1.788009 g / cm^3
# Si number density = 17.920883 Si / 1000 Ang^3
#
#
#
# Elastic Constant Matrix: (Units=GPa)
#
#
# Indices 1 2 3 4 5 6 
#
# 1 93.0161 42.0184 30.4594 0.0000 0.0000 0.0000
# 2 42.0184 116.6945 30.8129 0.0000 0.0000 0.0000
# 3 30.4594 30.8129 68.1745 0.0000 0.0000 0.0000
# 4 0.0000 0.0000 0.0000 10.2332 0.0000 0.0000
# 5 0.0000 0.0000 0.0000 0.0000 19.4504 0.0000
# 6 0.0000 0.0000 0.0000 0.0000 0.0000 29.7375
#
#
#
# Elastic Compliance Matrix: (Units=1/GPa)
#
#
# Indices 1 2 3 4 5 6 
#
# 1 0.013959 -0.003837 -0.004502 0.000000 0.000000 0.000000
# 2 -0.003837 0.010786 -0.003160 0.000000 0.000000 0.000000
# 3 -0.004502 -0.003160 0.018108 0.000000 0.000000 0.000000
# 4 0.000000 0.000000 0.000000 0.097721 0.000000 0.000000
# 5 0.000000 0.000000 0.000000 0.000000 0.051413 0.000000
# 6 0.000000 0.000000 0.000000 0.000000 0.000000 0.033628
#
#
# Mechanical properties :
#
#
# Convention : Reuss Voigt Hill
#
# Bulk Modulus (GPa) = 50.37092 53.82961 52.10027
# Shear Modulus (GPa) = 19.59013 23.52386 21.55699
#
# Velocity S-wave (km/s) = 3.30986 3.62698 3.47204
# Velocity P-wave (km/s) = 6.54028 6.90236 6.72376
#
# Compressibility (1/GPa) = 0.01985272
#
# Stress axis : x y z
#
# Youngs Moduli (GPa) = 71.64066 92.71657 55.22391
#
# Poissons Ratio (x) = 0.35578 0.24863
# Poissons Ratio (y) = 0.27491 0.17452
# Poissons Ratio (z) = 0.32254 0.29301
#
# Static dielectric constant tensor:
#      x y z
#    x 3.491060 0.000000 0.000000 
#    y 0.000000 3.551290 0.000000 
#    z 0.000000 0.000000 3.152050 
# 
# 
# High freq. dielectric constant tensor:
#      x y z
#    x 1.703790 0.000000 0.000000 
#    y 0.000000 1.700750 0.000000 
#    z 0.000000 0.000000 1.652690 
# 
# From -- ./inp_files/59970.got.cif
#   From: 2010.03.12/outbox.cif.g09.slc.cpg/sg63_30_cif.got.tgz:59970.got - 2010.04.10 19:34:48.
