data_PCOD8256901
_publ_section_title
;
Structure prediction by ZEFSAII (Michael W. Deem and Ramdas Pophale) SiO2 
 PCOD8256901
Probable space group: C M C M
;
_chemical_formula_sum "Si O2"
_cell_formula_units_Z 112
_cell_length_a 9.447041
_cell_length_b 28.106351
_cell_length_c 24.122288
_cell_angle_alpha 90.000000
_cell_angle_beta 90.000000
_cell_angle_gamma 90.000000
_cell_volume 6404.994542
_symmetry_space_group_name_H-M "C M C M"
_symmetry_group_IT_number 63
_symmetry_cell_setting 'orthorhombic'
loop_
_space_group_symop_operation_xyz
x,y,z
-x,-y,1/2+z
x,-y,-z
-x,y,1/2-z
-x,-y,-z
x,y,1/2-z
-x,y,z
x,-y,1/2+z
1/2+x,1/2+y,z
1/2-x,1/2-y,1/2+z
1/2+x,1/2-y,-z
1/2-x,1/2+y,1/2-z
1/2-x,1/2-y,-z
1/2+x,1/2+y,1/2-z
1/2-x,1/2+y,z
1/2+x,1/2-y,1/2+z
loop_
_atom_site_type_symbol
_atom_site_label
_atom_site_fract_x
_atom_site_fract_y
_atom_site_fract_z
Si Si1 0.330965 0.673576 0.810744
Si Si2 0.665116 0.490622 0.813812
Si Si3 0.667484 0.583224 0.625485
Si Si4 0.336521 0.102848 0.187364
Si Si5 0.666107 0.163005 0.082103
Si Si6 0.167005 0.139664 0.980485
Si Si7 0.667605 0.730811 0.912252
O O1 0.267912 0.683465 0.750000
O O2 0.500000 0.672169 0.809594
O O3 0.272503 0.623125 0.832794
O O4 0.277669 0.715202 0.851463
O O5 0.693282 0.505447 0.750000
O O6 0.500000 0.481258 0.824018
O O7 0.724797 0.531921 0.854703
O O8 0.746704 0.442950 0.829707
O O9 0.500000 0.582928 0.630610
O O10 0.709782 0.597514 0.562487
O O11 0.298882 0.120041 0.250000
O O12 0.500000 0.088214 0.183438
O O13 0.300887 0.144867 0.144236
O O14 0.500000 0.160166 0.069124
O O15 0.727277 0.216670 0.075673
O O16 0.748772 0.130634 0.037424
O O17 0.215927 0.191247 0.956745
O O18 0.000000 0.138798 0.992018
O O19 0.500000 0.733023 0.911386
#
# Coordination Sequence:
#
# PCOD8256901 Si02
#       7
#    16  16  16  16  16  16  16
#     4   8  12  19  35  62  93 117 138 172 219 266
#     4   9  16  28  49  72  90 112 145 182 218 260
#     4   8  14  25  42  66  93 116 139 174 221 265
#     4   9  19  34  48  64  89 118 147 182 222 259
#     4  10  19  31  47  65  87 117 151 184 216 253
#     4   9  17  30  47  67  92 118 144 177 217 262
#     4   8  15  26  41  63  89 117 148 180 215 257
#
# _framework density 17.486355
#
# number of rings (size 3 to 8) (size 9 to 14) (size 15 to 20)
#    0.000    3.286    0.000    2.571    0.000    2.857 
#    0.000    4.286    0.000    4.286    0.000    0.000 
#    0.000   10.857    0.000    0.000    0.000    0.000 
#
# Total GULP energy -693966.049721 kJ/mol
# GULP energy per Si atom -12392.250888 kJ/mol
# Density = 1.744656 g / cm^3
# Si number density = 17.486355 Si / 1000 Ang^3
#
#
#
# Elastic Constant Matrix: (Units=GPa)
#
#
# Indices 1 2 3 4 5 6 
#
# 1 25.7844 23.7305 30.1050 0.0000 0.0000 0.0000
# 2 23.7305 76.0629 36.5735 0.0000 0.0000 0.0000
# 3 30.1050 36.5735 113.5143 0.0000 0.0000 0.0000
# 4 0.0000 0.0000 0.0000 23.5799 0.0000 0.0000
# 5 0.0000 0.0000 0.0000 0.0000 21.4960 0.0000
# 6 0.0000 0.0000 0.0000 0.0000 0.0000 17.9679
#
#
#
# Elastic Compliance Matrix: (Units=1/GPa)
#
#
# Indices 1 2 3 4 5 6 
#
# 1 0.067853 -0.014811 -0.013223 0.000000 0.000000 0.000000
# 2 -0.014811 0.018790 -0.002126 0.000000 0.000000 0.000000
# 3 -0.013223 -0.002126 0.013001 0.000000 0.000000 0.000000
# 4 0.000000 0.000000 0.000000 0.042409 0.000000 0.000000
# 5 0.000000 0.000000 0.000000 0.000000 0.046520 0.000000
# 6 0.000000 0.000000 0.000000 0.000000 0.000000 0.055655
#
#
# Mechanical properties :
#
#
# Convention : Reuss Voigt Hill
#
# Bulk Modulus (GPa) = 25.42967 44.01996 34.72482
# Shear Modulus (GPa) = 15.74021 20.93893 18.33957
#
# Velocity S-wave (km/s) = 3.00349 3.46416 3.24202
# Velocity P-wave (km/s) = 5.15772 6.42099 5.82371
#
# Compressibility (1/GPa) = 0.03932414
#
# Stress axis : x y z
#
# Youngs Moduli (GPa) = 14.73765 53.21953 76.91472
#
# Poissons Ratio (x) = 0.78824 1.01707
# Poissons Ratio (y) = 0.21828 0.16352
# Poissons Ratio (z) = 0.19488 0.11315
#
# Static dielectric constant tensor:
#      x y z
#    x 2.765910 0.000000 0.000000 
#    y 0.000000 3.392940 0.000000 
#    z 0.000000 0.000000 3.407380 
# 
# 
# High freq. dielectric constant tensor:
#      x y z
#    x 1.623560 0.000000 0.000000 
#    y 0.000000 1.667100 0.000000 
#    z 0.000000 0.000000 1.682660 
# 
# From -- ./inp_files/61978.got.cif
#   From: 2010.03.12/outbox.cif.g09.slc.cpg/sg63_31_cif.got.tgz:61978.got - 2010.04.10 19:34:48.
