data_PCOD8256935
_publ_section_title
;
Structure prediction by ZEFSAII (Michael W. Deem and Ramdas Pophale) SiO2 
 PCOD8256935
Probable space group: C M C M
;
_chemical_formula_sum "Si O2"
_cell_formula_units_Z 96
_cell_length_a 12.979843
_cell_length_b 21.082917
_cell_length_c 20.710483
_cell_angle_alpha 90.000000
_cell_angle_beta 90.000000
_cell_angle_gamma 90.000000
_cell_volume 5667.484824
_symmetry_space_group_name_H-M "C M C M"
_symmetry_group_IT_number 63
_symmetry_cell_setting 'orthorhombic'
loop_
_space_group_symop_operation_xyz
x,y,z
-x,-y,1/2+z
x,-y,-z
-x,y,1/2-z
-x,-y,-z
x,y,1/2-z
-x,y,z
x,-y,1/2+z
1/2+x,1/2+y,z
1/2-x,1/2-y,1/2+z
1/2+x,1/2-y,-z
1/2-x,1/2+y,1/2-z
1/2-x,1/2-y,-z
1/2+x,1/2+y,1/2-z
1/2-x,1/2+y,z
1/2+x,1/2-y,1/2+z
loop_
_atom_site_type_symbol
_atom_site_label
_atom_site_fract_x
_atom_site_fract_y
_atom_site_fract_z
Si Si1 0.266333 0.025748 0.431448
Si Si2 0.616147 0.094221 0.888734
Si Si3 0.381060 0.711451 0.556296
Si Si4 0.809728 0.858609 0.177755
Si Si5 0.383491 0.504379 0.677997
Si Si6 0.808067 0.656016 0.013306
O O1 0.311186 0.096158 0.438844
O O2 0.221039 0.000000 0.500000
O O3 0.355348 0.977873 0.408074
O O4 0.178591 0.031493 0.377498
O O5 0.500000 0.095366 0.862294
O O6 0.691070 0.120908 0.833461
O O7 0.625592 0.140247 0.950143
O O8 0.500000 0.694749 0.542281
O O9 0.349641 0.695095 0.629479
O O10 0.310326 0.671884 0.506331
O O11 0.361864 0.786117 0.549416
O O12 0.820293 0.831538 0.250000
O O13 0.880165 0.920213 0.166529
O O14 0.339711 0.488670 0.750000
O O15 0.500000 0.480759 0.672546
#
# Coordination Sequence:
#
# PCOD8256935 Si02
#       6
#    16  16  16  16  16  16
#     4   9  18  30  46  71  97 120 153 195 235 278
#     4   9  17  30  49  70  93 122 152 187 237 284
#     4  10  19  31  48  67  91 125 157 188 233 279
#     4   9  18  31  46  68  94 117 152 196 228 269
#     4   9  17  30  48  68  92 122 151 185 234 283
#     4   9  19  32  45  69  97 120 153 195 233 274
#
# _framework density 16.938732000000002
#
# number of rings (size 3 to 8) (size 9 to 14) (size 15 to 20)
#    0.000    2.833    0.000    2.000    0.000    6.000 
#    0.000    0.833    0.000    0.000    0.000    2.333 
#    0.000    0.000    0.000    0.000    0.000    0.000 
#
# Total GULP energy -595108.295876 kJ/mol
# GULP energy per Si atom -12398.089497 kJ/mol
# Density = 1.690018 g / cm^3
# Si number density = 16.938732 Si / 1000 Ang^3
#
#
#
# Elastic Constant Matrix: (Units=GPa)
#
#
# Indices 1 2 3 4 5 6 
#
# 1 98.3474 6.4294 13.4585 0.0000 0.0000 0.0000
# 2 6.4294 64.3866 7.7862 0.0000 0.0000 0.0000
# 3 13.4585 7.7862 58.1418 0.0000 0.0000 0.0000
# 4 0.0000 0.0000 0.0000 22.3250 0.0000 0.0000
# 5 0.0000 0.0000 0.0000 0.0000 16.3143 0.0000
# 6 0.0000 0.0000 0.0000 0.0000 0.0000 13.9211
#
#
#
# Elastic Compliance Matrix: (Units=1/GPa)
#
#
# Indices 1 2 3 4 5 6 
#
# 1 0.010538 -0.000770 -0.002336 0.000000 0.000000 0.000000
# 2 -0.000770 0.015843 -0.001943 0.000000 0.000000 0.000000
# 3 -0.002336 -0.001943 0.018000 0.000000 0.000000 0.000000
# 4 0.000000 0.000000 0.000000 0.044793 0.000000 0.000000
# 5 0.000000 0.000000 0.000000 0.000000 0.061296 0.000000
# 6 0.000000 0.000000 0.000000 0.000000 0.000000 0.071833
#
#
# Mechanical properties :
#
#
# Convention : Reuss Voigt Hill
#
# Bulk Modulus (GPa) = 29.16936 30.69155 29.93045
# Shear Modulus (GPa) = 20.50609 23.39221 21.94915
#
# Velocity S-wave (km/s) = 3.48315 3.72020 3.60362
# Velocity P-wave (km/s) = 5.78224 6.05076 5.91802
#
# Compressibility (1/GPa) = 0.03428255
#
# Stress axis : x y z
#
# Youngs Moduli (GPa) = 94.89413 63.11909 55.55440
#
# Poissons Ratio (x) = 0.04859 0.12979
# Poissons Ratio (y) = 0.07305 0.10797
# Poissons Ratio (z) = 0.22169 0.12267
#
# Static dielectric constant tensor:
#      x y z
#    x 3.078050 0.000000 0.000000 
#    y 0.000000 3.045710 0.000000 
#    z 0.000000 0.000000 3.155290 
# 
# 
# High freq. dielectric constant tensor:
#      x y z
#    x 1.649330 0.000000 0.000000 
#    y 0.000000 1.636380 0.000000 
#    z 0.000000 0.000000 1.645960 
# 
# From -- ./inp_files/52881.got.cif
#   From: 2010.03.12/outbox.cif.g09.slc.cpg/sg63_27_cif.got.tgz:52881.got - 2010.04.10 19:34:48.
