data_PCOD8256330
_publ_section_title
;
Structure prediction by ZEFSAII (Michael W. Deem and Ramdas Pophale) SiO2 
 PCOD8256330
Probable space group: C M C M
;
_chemical_formula_sum "Si O2"
_cell_formula_units_Z 56
_cell_length_a 10.688709
_cell_length_b 30.361479
_cell_length_c 8.688401
_cell_angle_alpha 90.000000
_cell_angle_beta 90.000000
_cell_angle_gamma 90.000000
_cell_volume 2819.603455
_symmetry_space_group_name_H-M "C M C M"
_symmetry_group_IT_number 63
_symmetry_cell_setting 'orthorhombic'
loop_
_space_group_symop_operation_xyz
x,y,z
-x,-y,1/2+z
x,-y,-z
-x,y,1/2-z
-x,-y,-z
x,y,1/2-z
-x,y,z
x,-y,1/2+z
1/2+x,1/2+y,z
1/2-x,1/2-y,1/2+z
1/2+x,1/2-y,-z
1/2-x,1/2+y,1/2-z
1/2-x,1/2-y,-z
1/2+x,1/2+y,1/2-z
1/2-x,1/2+y,z
1/2+x,1/2-y,1/2+z
loop_
_atom_site_type_symbol
_atom_site_label
_atom_site_fract_x
_atom_site_fract_y
_atom_site_fract_z
Si Si1 0.642331 0.871838 0.581600
Si Si2 0.000000 0.048678 0.432865
Si Si3 0.251326 0.951989 0.068706
Si Si4 0.145608 0.717709 0.568106
O O1 0.709464 0.876357 0.750000
O O2 0.500000 0.861693 0.613321
O O3 0.645913 0.916900 0.482638
O O4 0.693761 0.830371 0.486134
O O5 0.875147 0.070546 0.500330
O O6 0.000000 0.048786 0.250000
O O7 0.000000 0.000000 0.500000
O O8 0.243263 0.957327 0.250000
O O9 0.281228 0.000000 0.000000
O O10 0.153431 0.719823 0.750000
O O11 0.250000 0.750000 0.500000
O O12 0.000000 0.728025 0.516919
#
# Coordination Sequence:
#
# PCOD8256330 Si02
#       4
#    16   8  16  16
#     4  10  21  38  59  83 113 149 188 233 287 340
#     4  10  18  32  52  74 104 142 184 230 280 330
#     4  11  21  35  55  80 112 149 191 234 281 336
#     4  10  21  39  63  90 120 154 194 241 295 354
#
# _framework density 19.860948
#
# number of rings (size 3 to 8) (size 9 to 14) (size 15 to 20)
#    0.000    1.714    0.000    7.286    0.000    4.000 
#    2.571    0.000    0.000    0.000    0.000    0.000 
#    0.000    0.000    0.000    0.000    0.000    0.000 
#
# Total GULP energy -346922.696090 kJ/mol
# GULP energy per Si atom -12390.096289 kJ/mol
# Density = 1.981574 g / cm^3
# Si number density = 19.860948 Si / 1000 Ang^3
#
#
#
# Elastic Constant Matrix: (Units=GPa)
#
#
# Indices 1 2 3 4 5 6 
#
# 1 61.6466 47.9668 40.9467 0.0000 0.0000 0.0000
# 2 47.9668 143.9778 63.7155 0.0000 0.0000 0.0000
# 3 40.9467 63.7155 177.9987 0.0000 0.0000 0.0000
# 4 0.0000 0.0000 0.0000 37.6500 0.0000 0.0000
# 5 0.0000 0.0000 0.0000 0.0000 31.0003 0.0000
# 6 0.0000 0.0000 0.0000 0.0000 0.0000 27.0697
#
#
#
# Elastic Compliance Matrix: (Units=1/GPa)
#
#
# Indices 1 2 3 4 5 6 
#
# 1 0.023218 -0.006383 -0.003056 0.000000 0.000000 0.000000
# 2 -0.006383 0.010007 -0.002114 0.000000 0.000000 0.000000
# 3 -0.003056 -0.002114 0.007078 0.000000 0.000000 0.000000
# 4 0.000000 0.000000 0.000000 0.026560 0.000000 0.000000
# 5 0.000000 0.000000 0.000000 0.000000 0.032258 0.000000
# 6 0.000000 0.000000 0.000000 0.000000 0.000000 0.036942
#
#
# Mechanical properties :
#
#
# Convention : Reuss Voigt Hill
#
# Bulk Modulus (GPa) = 58.14872 76.54234 67.34553
# Shear Modulus (GPa) = 30.32124 34.54362 32.43243
#
# Velocity S-wave (km/s) = 3.91151 4.17498 4.04539
# Velocity P-wave (km/s) = 7.05276 7.86533 7.47010
#
# Compressibility (1/GPa) = 0.01719728
#
# Stress axis : x y z
#
# Youngs Moduli (GPa) = 43.07040 99.92610 141.28687
#
# Poissons Ratio (x) = 0.63778 0.43182
# Poissons Ratio (y) = 0.27490 0.29867
# Poissons Ratio (z) = 0.13164 0.21124
#
# Static dielectric constant tensor:
#      x y z
#    x 5.401420 0.000000 0.000000 
#    y 0.000000 3.472580 0.000000 
#    z 0.000000 0.000000 4.496590 
# 
# 
# High freq. dielectric constant tensor:
#      x y z
#    x 1.764810 0.000000 0.000000 
#    y 0.000000 1.762340 0.000000 
#    z 0.000000 0.000000 1.796990 
# 
# From -- ./inp_files/2824.got.cif
#   From: 2010.03.12/outbox.cif.g09.slc.cpg/sg63_2_cif.got.tgz:2824.got - 2010.04.10 19:34:48.
