data_PCOD8256409
_publ_section_title
;
Structure prediction by ZEFSAII (Michael W. Deem and Ramdas Pophale) SiO2 
 PCOD8256409
Probable space group: C M C M
;
_chemical_formula_sum "Si O2"
_cell_formula_units_Z 96
_cell_length_a 8.721775
_cell_length_b 25.472395
_cell_length_c 23.588654
_cell_angle_alpha 90.000000
_cell_angle_beta 90.000000
_cell_angle_gamma 90.000000
_cell_volume 5240.561472
_symmetry_space_group_name_H-M "C M C M"
_symmetry_group_IT_number 63
_symmetry_cell_setting 'orthorhombic'
loop_
_space_group_symop_operation_xyz
x,y,z
-x,-y,1/2+z
x,-y,-z
-x,y,1/2-z
-x,-y,-z
x,y,1/2-z
-x,y,z
x,-y,1/2+z
1/2+x,1/2+y,z
1/2-x,1/2-y,1/2+z
1/2+x,1/2-y,-z
1/2-x,1/2+y,1/2-z
1/2-x,1/2-y,-z
1/2+x,1/2+y,1/2-z
1/2-x,1/2+y,z
1/2+x,1/2-y,1/2+z
loop_
_atom_site_type_symbol
_atom_site_label
_atom_site_fract_x
_atom_site_fract_y
_atom_site_fract_z
Si Si1 0.182414 0.901199 0.112311
Si Si2 0.181043 0.559932 0.498911
Si Si3 0.678562 0.187846 0.315681
Si Si4 0.818370 0.806303 0.187260
Si Si5 0.680048 0.403511 0.615870
Si Si6 0.181990 0.002348 0.813039
O O1 0.244070 0.847438 0.140890
O O2 0.000000 0.901940 0.107489
O O3 0.244015 0.948930 0.150725
O O4 0.252185 0.906332 0.050322
O O5 0.245134 0.500000 0.500000
O O6 0.232299 0.590086 0.442881
O O7 0.000000 0.559507 0.503213
O O8 0.714199 0.175448 0.250000
O O9 0.500000 0.178504 0.328677
O O10 0.728008 0.247394 0.330337
O O11 0.780655 0.151898 0.356040
O O12 0.752068 0.819631 0.250000
O O13 0.000000 0.810663 0.190795
O O14 0.500000 0.407551 0.604275
O O15 0.738458 0.448839 0.658086
O O16 0.252558 0.005224 0.750000
O O17 0.000000 0.004147 0.809816
#
# Coordination Sequence:
#
# PCOD8256409 Si02
#       6
#    16  16  16  16  16  16
#     4  10  18  32  56  81 105 135 177 220 261 311
#     4  11  23  38  54  73 105 145 181 217 268 327
#     4   9  18  34  55  80 112 146 176 210 260 318
#     4   8  15  30  55  84 110 139 175 214 260 317
#     4  11  21  34  54  79 107 138 182 226 262 309
#     4   9  17  28  47  78 109 131 159 210 267 313
#
# _framework density 18.318649000000001
#
# number of rings (size 3 to 8) (size 9 to 14) (size 15 to 20)
#    0.000    2.333    1.667    3.000    0.000    3.667 
#    0.000    1.667    0.000    4.000    0.000    0.000 
#    0.000    0.000    0.000    0.000    0.000    0.000 
#
# Total GULP energy -595211.415493 kJ/mol
# GULP energy per Si atom -12400.237823 kJ/mol
# Density = 1.827695 g / cm^3
# Si number density = 18.318649 Si / 1000 Ang^3
#
#
#
# Elastic Constant Matrix: (Units=GPa)
#
#
# Indices 1 2 3 4 5 6 
#
# 1 24.4104 17.1726 13.0059 0.0000 0.0000 0.0000
# 2 17.1726 129.9722 64.0068 0.0000 0.0000 0.0000
# 3 13.0059 64.0068 126.9892 0.0000 0.0000 0.0000
# 4 0.0000 0.0000 0.0000 28.2846 0.0000 0.0000
# 5 0.0000 0.0000 0.0000 0.0000 14.0926 0.0000
# 6 0.0000 0.0000 0.0000 0.0000 0.0000 21.3136
#
#
#
# Elastic Compliance Matrix: (Units=1/GPa)
#
#
# Indices 1 2 3 4 5 6 
#
# 1 0.045611 -0.004956 -0.002173 0.000000 0.000000 0.000000
# 2 -0.004956 0.010773 -0.004922 0.000000 0.000000 0.000000
# 3 -0.002173 -0.004922 0.010578 0.000000 0.000000 0.000000
# 4 0.000000 0.000000 0.000000 0.035355 0.000000 0.000000
# 5 0.000000 0.000000 0.000000 0.000000 0.070959 0.000000
# 6 0.000000 0.000000 0.000000 0.000000 0.000000 0.046918
#
#
# Mechanical properties :
#
#
# Convention : Reuss Voigt Hill
#
# Bulk Modulus (GPa) = 23.33260 52.19360 37.76310
# Shear Modulus (GPa) = 19.33608 25.21725 22.27666
#
# Velocity S-wave (km/s) = 3.25243 3.71427 3.49100
# Velocity P-wave (km/s) = 5.18355 6.85188 6.07525
#
# Compressibility (1/GPa) = 0.04285848
#
# Stress axis : x y z
#
# Youngs Moduli (GPa) = 21.92469 92.82617 94.53343
#
# Poissons Ratio (x) = 0.46005 0.20545
# Poissons Ratio (y) = 0.10866 0.46532
# Poissons Ratio (z) = 0.04765 0.45692
#
# Static dielectric constant tensor:
#      x y z
#    x 2.976670 0.000000 0.000000 
#    y 0.000000 3.543910 0.000000 
#    z 0.000000 0.000000 3.481790 
# 
# 
# High freq. dielectric constant tensor:
#      x y z
#    x 1.676010 0.000000 0.000000 
#    y 0.000000 1.713980 0.000000 
#    z 0.000000 0.000000 1.714820 
# 
# From -- ./inp_files/51258.got.cif
#   From: 2010.03.12/outbox.cif.g09.slc.cpg/sg63_26_cif.got.tgz:51258.got - 2010.04.10 19:34:48.
