data_PCOD8256911
_publ_section_title
;
Structure prediction by ZEFSAII (Michael W. Deem and Ramdas Pophale) SiO2 
 PCOD8256911
Probable space group: C M C M
;
_chemical_formula_sum "Si O2"
_cell_formula_units_Z 88
_cell_length_a 20.152031
_cell_length_b 29.759655
_cell_length_c 9.113586
_cell_angle_alpha 90.000000
_cell_angle_beta 90.000000
_cell_angle_gamma 90.000000
_cell_volume 5465.576922
_symmetry_space_group_name_H-M "C M C M"
_symmetry_group_IT_number 63
_symmetry_cell_setting 'orthorhombic'
loop_
_space_group_symop_operation_xyz
x,y,z
-x,-y,1/2+z
x,-y,-z
-x,y,1/2-z
-x,-y,-z
x,y,1/2-z
-x,y,z
x,-y,1/2+z
1/2+x,1/2+y,z
1/2-x,1/2-y,1/2+z
1/2+x,1/2-y,-z
1/2-x,1/2+y,1/2-z
1/2-x,1/2-y,-z
1/2+x,1/2+y,1/2-z
1/2-x,1/2+y,z
1/2+x,1/2-y,1/2+z
loop_
_atom_site_type_symbol
_atom_site_label
_atom_site_fract_x
_atom_site_fract_y
_atom_site_fract_z
Si Si1 0.574333 0.332551 0.085874
Si Si2 0.786464 0.708591 0.424501
Si Si3 0.645384 0.452439 0.079289
Si Si4 0.000000 0.045825 0.916157
Si Si5 0.429465 0.226103 0.083282
Si Si6 0.807423 0.128307 0.420805
O O1 0.598186 0.347577 0.250000
O O2 0.500000 0.351836 0.059363
O O3 0.574245 0.279345 0.076303
O O4 0.622750 0.349116 0.959461
O O5 0.784937 0.717196 0.250000
O O6 0.750000 0.750000 0.500000
O O7 0.862216 0.705592 0.486894
O O8 0.751789 0.661724 0.466731
O O9 0.660617 0.459431 0.250000
O O10 0.571144 0.429742 0.052240
O O11 0.651257 0.500000 0.000000
O O12 0.699122 0.418307 0.010503
O O13 0.000000 0.030210 0.750000
O O14 0.000000 0.000000 0.000000
O O15 0.431942 0.209594 0.250000
O O16 0.500000 0.210603 0.007711
O O17 0.805500 0.117091 0.250000
#
# Coordination Sequence:
#
# PCOD8256911 Si02
#       6
#    16  16  16   8  16  16
#     4   9  17  29  45  63  85 119 163 200 229 267
#     4  10  19  31  47  67  94 123 155 193 230 272
#     4  10  20  35  51  66  87 117 153 195 234 275
#     4   8  16  30  48  66  82 108 148 190 232 266
#     4   8  14  27  47  66  85 117 159 197 229 263
#     4  11  22  31  43  68  95 123 153 189 237 283
#
# _framework density 16.100770000000001
#
# number of rings (size 3 to 8) (size 9 to 14) (size 15 to 20)
#    0.000    2.545    1.818    2.182    1.273    1.818 
#    0.000    0.000    0.000    0.545    0.000    0.000 
#    0.000    0.727    0.000    1.273    0.000    1.818 
#
# Total GULP energy -545078.865999 kJ/mol
# GULP energy per Si atom -12388.156045 kJ/mol
# Density = 1.606412 g / cm^3
# Si number density = 16.100770 Si / 1000 Ang^3
#
#
#
# Elastic Constant Matrix: (Units=GPa)
#
#
# Indices 1 2 3 4 5 6 
#
# 1 118.0281 52.3560 31.3537 0.0000 0.0000 0.0000
# 2 52.3560 67.1312 36.3457 0.0000 0.0000 0.0000
# 3 31.3537 36.3457 56.3166 0.0000 0.0000 0.0000
# 4 0.0000 0.0000 0.0000 23.3111 0.0000 0.0000
# 5 0.0000 0.0000 0.0000 0.0000 16.4572 0.0000
# 6 0.0000 0.0000 0.0000 0.0000 0.0000 22.0906
#
#
#
# Elastic Compliance Matrix: (Units=1/GPa)
#
#
# Indices 1 2 3 4 5 6 
#
# 1 0.012996 -0.009558 -0.001067 0.000000 0.000000 0.000000
# 2 -0.009558 0.029926 -0.013993 0.000000 0.000000 0.000000
# 3 -0.001067 -0.013993 0.027381 0.000000 0.000000 0.000000
# 4 0.000000 0.000000 0.000000 0.042898 0.000000 0.000000
# 5 0.000000 0.000000 0.000000 0.000000 0.060764 0.000000
# 6 0.000000 0.000000 0.000000 0.000000 0.000000 0.045268
#
#
# Mechanical properties :
#
#
# Convention : Reuss Voigt Hill
#
# Bulk Modulus (GPa) = 47.46373 53.50964 50.48669
# Shear Modulus (GPa) = 18.14945 20.46647 19.30796
#
# Velocity S-wave (km/s) = 3.36108 3.56918 3.46670
# Velocity P-wave (km/s) = 6.67875 7.09167 6.88830
#
# Compressibility (1/GPa) = 0.02106872
#
# Stress axis : x y z
#
# Youngs Moduli (GPa) = 76.94847 33.41551 36.52134
#
# Poissons Ratio (x) = 0.31938 0.03896
# Poissons Ratio (y) = 0.73546 0.51103
# Poissons Ratio (z) = 0.08209 0.46757
#
# Static dielectric constant tensor:
#      x y z
#    x 3.387930 0.000000 0.000000 
#    y 0.000000 2.851480 0.000000 
#    z 0.000000 0.000000 2.952700 
# 
# 
# High freq. dielectric constant tensor:
#      x y z
#    x 1.603510 0.000000 0.000000 
#    y 0.000000 1.601840 0.000000 
#    z 0.000000 0.000000 1.605270 
# 
# From -- ./inp_files/8950.got.cif
#   From: 2010.03.12/outbox.cif.g09.slc.cpg/sg63_5_cif.got.tgz:8950.got - 2010.04.10 19:34:48.
