data_PCOD8256869
_publ_section_title
;
Structure prediction by ZEFSAII (Michael W. Deem and Ramdas Pophale) SiO2 
 PCOD8256869
Probable space group: C M C M
;
_chemical_formula_sum "Si O2"
_cell_formula_units_Z 104
_cell_length_a 18.420505
_cell_length_b 23.029991
_cell_length_c 13.679518
_cell_angle_alpha 90.000000
_cell_angle_beta 90.000000
_cell_angle_gamma 90.000000
_cell_volume 5803.180725
_symmetry_space_group_name_H-M "C M C M"
_symmetry_group_IT_number 63
_symmetry_cell_setting 'orthorhombic'
loop_
_space_group_symop_operation_xyz
x,y,z
-x,-y,1/2+z
x,-y,-z
-x,y,1/2-z
-x,-y,-z
x,y,1/2-z
-x,y,z
x,-y,1/2+z
1/2+x,1/2+y,z
1/2-x,1/2-y,1/2+z
1/2+x,1/2-y,-z
1/2-x,1/2+y,1/2-z
1/2-x,1/2-y,-z
1/2+x,1/2+y,1/2-z
1/2-x,1/2+y,z
1/2+x,1/2-y,1/2+z
loop_
_atom_site_type_symbol
_atom_site_label
_atom_site_fract_x
_atom_site_fract_y
_atom_site_fract_z
Si Si1 0.847307 0.201759 0.955775
Si Si2 0.500000 0.830961 0.366295
Si Si3 0.000000 0.908807 0.861969
Si Si4 0.000000 0.788310 0.521364
Si Si5 0.790154 0.080791 0.554352
Si Si6 0.279301 0.256848 0.859091
Si Si7 0.153427 0.370268 0.360284
Si Si8 0.346114 0.463953 0.862363
O O1 0.830712 0.138981 0.910613
O O2 0.803727 0.251470 0.896879
O O3 0.931797 0.216088 0.948741
O O4 0.823419 0.200148 0.070414
O O5 0.500000 0.824818 0.250000
O O6 0.500000 0.765076 0.404089
O O7 0.571062 0.866786 0.402015
O O8 0.000000 0.850053 0.924199
O O9 0.929871 0.948401 0.885423
O O10 0.000000 0.888999 0.750000
O O11 0.703923 0.085964 0.577478
O O12 0.795651 0.071845 0.437427
O O13 0.831003 0.031472 0.616166
O O14 0.281114 0.282941 0.750000
O O15 0.315653 0.194293 0.864304
O O16 0.153091 0.394034 0.250000
O O17 0.325858 0.449298 0.750000
#
# Coordination Sequence:
#
# PCOD8256869 Si02
#       8
#    16   8   8   8  16  16  16  16
#     4  10  20  31  49  78 102 141 177 210 266 308
#     4  10  19  30  51  81 112 141 167 209 269 311
#     4  10  21  34  50  75 107 141 182 222 261 303
#     4  12  19  31  49  78 114 139 174 220 255 310
#     4  10  20  34  53  74 103 136 175 219 260 309
#     4   9  18  33  50  71 105 139 177 217 252 309
#     4   9  17  31  52  79 106 135 171 210 260 316
#     4  10  21  36  53  75 102 138 181 222 266 310
#
# _framework density 17.921206000000002
#
# number of rings (size 3 to 8) (size 9 to 14) (size 15 to 20)
#    0.000    2.154    3.077    0.692    0.000    3.692 
#    0.000    0.385    0.000    1.846    0.000    1.615 
#    0.000    0.000    0.000    0.000    0.000    0.000 
#
# Total GULP energy -644586.867755 kJ/mol
# GULP energy per Si atom -12395.901303 kJ/mol
# Density = 1.788042 g / cm^3
# Si number density = 17.921206 Si / 1000 Ang^3
#
#
#
# Elastic Constant Matrix: (Units=GPa)
#
#
# Indices 1 2 3 4 5 6 
#
# 1 160.7721 33.1100 38.6950 0.0000 0.0000 0.0000
# 2 33.1100 48.3355 7.0795 0.0000 0.0000 0.0000
# 3 38.6950 7.0795 67.4383 0.0000 0.0000 0.0000
# 4 0.0000 0.0000 0.0000 19.5511 0.0000 0.0000
# 5 0.0000 0.0000 0.0000 0.0000 27.1234 0.0000
# 6 0.0000 0.0000 0.0000 0.0000 0.0000 24.8435
#
#
#
# Elastic Compliance Matrix: (Units=1/GPa)
#
#
# Indices 1 2 3 4 5 6 
#
# 1 0.008275 -0.005051 -0.004218 0.000000 0.000000 0.000000
# 2 -0.005051 0.024095 0.000369 0.000000 0.000000 0.000000
# 3 -0.004218 0.000369 0.017210 0.000000 0.000000 0.000000
# 4 0.000000 0.000000 0.000000 0.051148 0.000000 0.000000
# 5 0.000000 0.000000 0.000000 0.000000 0.036868 0.000000
# 6 0.000000 0.000000 0.000000 0.000000 0.000000 0.040252
#
#
# Mechanical properties :
#
#
# Convention : Reuss Voigt Hill
#
# Bulk Modulus (GPa) = 31.46684 48.25719 39.86202
# Shear Modulus (GPa) = 24.24337 27.48104 25.86220
#
# Velocity S-wave (km/s) = 3.68200 3.92016 3.80294
# Velocity P-wave (km/s) = 5.97266 6.89029 6.44782
#
# Compressibility (1/GPa) = 0.03177949
#
# Stress axis : x y z
#
# Youngs Moduli (GPa) = 120.84025 41.50314 58.10603
#
# Poissons Ratio (x) = 0.20963 0.24509
# Poissons Ratio (y) = 0.61035 -0.02143
# Poissons Ratio (z) = 0.50971 -0.01530
#
# Static dielectric constant tensor:
#      x y z
#    x 3.620410 0.000000 0.000000 
#    y 0.000000 3.130900 0.000000 
#    z 0.000000 0.000000 3.344720 
# 
# 
# High freq. dielectric constant tensor:
#      x y z
#    x 1.695810 0.000000 0.000000 
#    y 0.000000 1.672140 0.000000 
#    z 0.000000 0.000000 1.680060 
# 
# From -- ./inp_files/34379.got.cif
#   From: 2010.03.12/outbox.cif.g09.slc.cpg/sg63_18_cif.got.tgz:34379.got - 2010.04.10 19:34:48.
