data_PCOD8256340
_publ_section_title
;
Structure prediction by ZEFSAII (Michael W. Deem and Ramdas Pophale) SiO2 
 PCOD8256340
Probable space group: C M C M
;
_chemical_formula_sum "Si O2"
_cell_formula_units_Z 72
_cell_length_a 11.983171
_cell_length_b 14.606275
_cell_length_c 22.951237
_cell_angle_alpha 90.000000
_cell_angle_beta 90.000000
_cell_angle_gamma 90.000000
_cell_volume 4017.143330
_symmetry_space_group_name_H-M "C M C M"
_symmetry_group_IT_number 63
_symmetry_cell_setting 'orthorhombic'
loop_
_space_group_symop_operation_xyz
x,y,z
-x,-y,1/2+z
x,-y,-z
-x,y,1/2-z
-x,-y,-z
x,y,1/2-z
-x,y,z
x,-y,1/2+z
1/2+x,1/2+y,z
1/2-x,1/2-y,1/2+z
1/2+x,1/2-y,-z
1/2-x,1/2+y,1/2-z
1/2-x,1/2-y,-z
1/2+x,1/2+y,1/2-z
1/2-x,1/2+y,z
1/2+x,1/2-y,1/2+z
loop_
_atom_site_type_symbol
_atom_site_label
_atom_site_fract_x
_atom_site_fract_y
_atom_site_fract_z
Si Si1 0.376619 0.305499 0.750000
Si Si2 0.790283 0.139896 0.750000
Si Si3 0.125824 0.195555 0.630052
Si Si4 0.628944 0.512910 0.567591
Si Si5 0.873004 0.529702 0.250000
Si Si6 0.751834 0.623033 0.349556
O O1 0.500000 0.265882 0.750000
O O2 0.291649 0.224002 0.750000
O O3 0.356098 0.365140 0.807975
O O4 0.866454 0.146018 0.807089
O O5 0.717619 0.049417 0.750000
O O6 0.209553 0.280937 0.621691
O O7 0.000000 0.230771 0.620861
O O8 0.156716 0.118328 0.582657
O O9 0.652392 0.500000 0.500000
O O10 0.500000 0.489521 0.583362
O O11 0.716021 0.447280 0.600669
O O12 0.854180 0.588632 0.308794
O O13 0.000000 0.493328 0.250000
#
# Coordination Sequence:
#
# PCOD8256340 Si02
#       6
#     8   8  16  16   8  16
#     4   9  18  30  48  77 109 134 171 217 267 327
#     4  10  18  32  52  80 105 142 171 213 271 327
#     4  10  20  35  56  80 108 141 180 221 268 327
#     4  10  21  37  57  80 107 144 190 232 268 312
#     4  11  20  32  52  81 112 140 170 216 274 328
#     4  10  20  34  54  79 109 144 179 217 274 321
#
# _framework density 17.923186000000001
#
# number of rings (size 3 to 8) (size 9 to 14) (size 15 to 20)
#    0.000    2.000    2.222    2.667    0.000    0.889 
#    0.000    0.000    0.000    2.667    0.000    0.000 
#    0.000    0.000    0.000    0.000    0.000    0.000 
#
# Total GULP energy -446342.932369 kJ/mol
# GULP energy per Si atom -12398.414788 kJ/mol
# Density = 1.788239 g / cm^3
# Si number density = 17.923186 Si / 1000 Ang^3
#
#
#
# Elastic Constant Matrix: (Units=GPa)
#
#
# Indices 1 2 3 4 5 6 
#
# 1 78.3224 36.7188 34.9705 0.0000 0.0000 0.0000
# 2 36.7188 97.4237 45.8906 0.0000 0.0000 0.0000
# 3 34.9705 45.8906 90.6661 0.0000 0.0000 0.0000
# 4 0.0000 0.0000 0.0000 21.9159 0.0000 0.0000
# 5 0.0000 0.0000 0.0000 0.0000 11.7705 0.0000
# 6 0.0000 0.0000 0.0000 0.0000 0.0000 -90.6203
#
#
#
# Elastic Compliance Matrix: (Units=1/GPa)
#
#
# Indices 1 2 3 4 5 6 
#
# 1 0.016678 -0.004275 -0.004269 0.000000 0.000000 0.000000
# 2 -0.004275 0.014574 -0.005728 0.000000 0.000000 0.000000
# 3 -0.004269 -0.005728 0.015575 0.000000 0.000000 0.000000
# 4 0.000000 0.000000 0.000000 0.045629 0.000000 0.000000
# 5 0.000000 0.000000 0.000000 0.000000 0.084958 0.000000
# 6 0.000000 0.000000 0.000000 0.000000 0.000000 -0.011035
#
#
# Mechanical properties :
#
#
# Convention : Reuss Voigt Hill
#
# Bulk Modulus (GPa) = 54.69400 55.73025 55.21212
# Shear Modulus (GPa) = 24.87355 -1.46464 11.70445
#
# Velocity S-wave (km/s) = 3.72934 -0.90496 2.55823
# Velocity P-wave (km/s) = 7.00900 5.48357 6.29268
#
# Compressibility (1/GPa) = 0.01828354
#
# Stress axis : x y z
#
# Youngs Moduli (GPa) = 59.95914 68.61725 64.20529
#
# Poissons Ratio (x) = 0.29334 0.27409
# Poissons Ratio (y) = 0.25633 0.36774
# Poissons Ratio (z) = 0.25597 0.39301
#
# Static dielectric constant tensor:
#      x y z
#    x 3.164350 0.000000 0.000000 
#    y 0.000000 3.443080 0.000000 
#    z 0.000000 0.000000 3.308790 
# 
# 
# High freq. dielectric constant tensor:
#      x y z
#    x 1.684050 0.000000 0.000000 
#    y 0.000000 1.702650 0.000000 
#    z 0.000000 0.000000 1.679160 
# 
# From -- ./inp_files/61044.got.cif
#   From: 2010.03.12/outbox.cif.g09.slc.cpg/sg63_31_cif.got.tgz:61044.got - 2010.04.10 19:34:48.
