data_PCOD8256780
_publ_section_title
;
Structure prediction by ZEFSAII (Michael W. Deem and Ramdas Pophale) SiO2 
 PCOD8256780
Probable space group: C M C M
;
_chemical_formula_sum "Si O2"
_cell_formula_units_Z 112
_cell_length_a 12.270172
_cell_length_b 28.501811
_cell_length_c 18.539046
_cell_angle_alpha 90.000000
_cell_angle_beta 90.000000
_cell_angle_gamma 90.000000
_cell_volume 6483.514531
_symmetry_space_group_name_H-M "C M C M"
_symmetry_group_IT_number 63
_symmetry_cell_setting 'orthorhombic'
loop_
_space_group_symop_operation_xyz
x,y,z
-x,-y,1/2+z
x,-y,-z
-x,y,1/2-z
-x,-y,-z
x,y,1/2-z
-x,y,z
x,-y,1/2+z
1/2+x,1/2+y,z
1/2-x,1/2-y,1/2+z
1/2+x,1/2-y,-z
1/2-x,1/2+y,1/2-z
1/2-x,1/2-y,-z
1/2+x,1/2+y,1/2-z
1/2-x,1/2+y,z
1/2+x,1/2-y,1/2+z
loop_
_atom_site_type_symbol
_atom_site_label
_atom_site_fract_x
_atom_site_fract_y
_atom_site_fract_z
Si Si1 0.128853 0.046142 0.420579
Si Si2 0.219310 0.208302 0.423368
Si Si3 0.127352 0.870849 0.671320
Si Si4 0.748676 0.358402 0.165732
Si Si5 0.874598 0.693708 0.952954
Si Si6 0.129493 0.940719 0.082840
Si Si7 0.618582 0.733225 0.667846
O O1 0.179350 0.082053 0.362605
O O2 0.167970 0.062837 0.499740
O O3 0.000000 0.048543 0.424456
O O4 0.161512 0.993965 0.395437
O O5 0.145357 0.172439 0.380788
O O6 0.137900 0.249824 0.446953
O O7 0.282806 0.180501 0.487343
O O8 0.308786 0.229642 0.371868
O O9 0.180488 0.862265 0.750000
O O10 0.000000 0.878370 0.679853
O O11 0.783656 0.365940 0.250000
O O12 0.849591 0.336519 0.119657
O O13 0.702234 0.406528 0.132336
O O14 0.653423 0.320501 0.159806
O O15 0.000000 0.682879 0.975040
O O16 0.000000 0.930662 0.093709
O O17 0.618148 0.748980 0.750000
O O18 0.500000 0.736657 0.632528
#
# Coordination Sequence:
#
# PCOD8256780 Si02
#       7
#    16  16  16  16  16  16  16
#     4   8  16  29  45  69  99 130 161 192 231 280
#     4  10  19  32  50  70  92 124 165 197 231 283
#     4  10  19  30  46  71 103 133 157 185 226 279
#     4  10  20  31  46  70  96 126 162 195 238 293
#     4  10  21  35  50  69  93 122 159 205 246 280
#     4   9  16  29  49  71  99 131 160 194 236 282
#     4   9  17  29  44  66  97 126 155 195 235 272
#
# _framework density 17.274581999999999
#
# number of rings (size 3 to 8) (size 9 to 14) (size 15 to 20)
#    0.000    2.571    0.000    3.429    0.000    2.286 
#    0.000    5.714    0.000    0.000    0.000    9.000 
#    0.000    0.000    0.000    0.000    0.000    0.000 
#
# Total GULP energy -693847.990109 kJ/mol
# GULP energy per Si atom -12390.142681 kJ/mol
# Density = 1.723526 g / cm^3
# Si number density = 17.274582 Si / 1000 Ang^3
#
#
#
# Elastic Constant Matrix: (Units=GPa)
#
#
# Indices 1 2 3 4 5 6 
#
# 1 37.1462 9.3808 15.9825 0.0000 0.0000 0.0000
# 2 9.3808 78.2524 41.5437 0.0000 0.0000 0.0000
# 3 15.9825 41.5437 91.9163 0.0000 0.0000 0.0000
# 4 0.0000 0.0000 0.0000 31.7207 0.0000 0.0000
# 5 0.0000 0.0000 0.0000 0.0000 20.4208 0.0000
# 6 0.0000 0.0000 0.0000 0.0000 0.0000 10.7737
#
#
#
# Elastic Compliance Matrix: (Units=1/GPa)
#
#
# Indices 1 2 3 4 5 6 
#
# 1 0.029164 -0.001058 -0.004593 0.000000 0.000000 0.000000
# 2 -0.001058 0.016852 -0.007433 0.000000 0.000000 0.000000
# 3 -0.004593 -0.007433 0.015037 0.000000 0.000000 0.000000
# 4 0.000000 0.000000 0.000000 0.031525 0.000000 0.000000
# 5 0.000000 0.000000 0.000000 0.000000 0.048970 0.000000
# 6 0.000000 0.000000 0.000000 0.000000 0.000000 0.092819
#
#
# Mechanical properties :
#
#
# Convention : Reuss Voigt Hill
#
# Bulk Modulus (GPa) = 28.66438 37.90319 33.28379
# Shear Modulus (GPa) = 18.37136 21.94357 20.15746
#
# Velocity S-wave (km/s) = 3.26466 3.56797 3.41968
# Velocity P-wave (km/s) = 5.55338 6.24204 5.90776
#
# Compressibility (1/GPa) = 0.03488650
#
# Stress axis : x y z
#
# Youngs Moduli (GPa) = 34.28891 59.34040 66.50057
#
# Poissons Ratio (x) = 0.06277 0.30543
# Poissons Ratio (y) = 0.03627 0.49428
# Poissons Ratio (z) = 0.15749 0.44106
#
# Static dielectric constant tensor:
#      x y z
#    x 2.877730 0.000000 0.000000 
#    y 0.000000 3.349540 0.000000 
#    z 0.000000 0.000000 3.642320 
# 
# 
# High freq. dielectric constant tensor:
#      x y z
#    x 1.626070 0.000000 0.000000 
#    y 0.000000 1.662520 0.000000 
#    z 0.000000 0.000000 1.679390 
# 
# From -- ./inp_files/53372.got.cif
#   From: 2010.03.12/outbox.cif.g09.slc.cpg/sg63_27_cif.got.tgz:53372.got - 2010.04.10 19:34:48.
