data_PCOD8256598
_publ_section_title
;
Structure prediction by ZEFSAII (Michael W. Deem and Ramdas Pophale) SiO2 
 PCOD8256598
Probable space group: C M C M
;
_chemical_formula_sum "Si O2"
_cell_formula_units_Z 96
_cell_length_a 8.955994
_cell_length_b 23.868471
_cell_length_c 26.616426
_cell_angle_alpha 90.000000
_cell_angle_beta 90.000000
_cell_angle_gamma 90.000000
_cell_volume 5689.683808
_symmetry_space_group_name_H-M "C M C M"
_symmetry_group_IT_number 63
_symmetry_cell_setting 'orthorhombic'
loop_
_space_group_symop_operation_xyz
x,y,z
-x,-y,1/2+z
x,-y,-z
-x,y,1/2-z
-x,-y,-z
x,y,1/2-z
-x,y,z
x,-y,1/2+z
1/2+x,1/2+y,z
1/2-x,1/2-y,1/2+z
1/2+x,1/2-y,-z
1/2-x,1/2+y,1/2-z
1/2-x,1/2-y,-z
1/2+x,1/2+y,1/2-z
1/2-x,1/2+y,z
1/2+x,1/2-y,1/2+z
loop_
_atom_site_type_symbol
_atom_site_label
_atom_site_fract_x
_atom_site_fract_y
_atom_site_fract_z
Si Si1 0.673959 0.252764 0.378332
Si Si2 0.675566 0.357665 0.435487
Si Si3 0.179025 0.018055 0.944925
Si Si4 0.833912 0.916678 0.884837
Si Si5 0.677828 0.670810 0.307105
Si Si6 0.167994 0.818044 0.959334
O O1 0.500000 0.243104 0.368875
O O2 0.710656 0.319073 0.386646
O O3 0.762073 0.229062 0.330223
O O4 0.720682 0.221853 0.429359
O O5 0.500000 0.363747 0.444174
O O6 0.741622 0.420350 0.429997
O O7 0.737316 0.326358 0.485204
O O8 0.000000 0.015087 0.944191
O O9 0.243601 0.974988 0.902263
O O10 0.237761 0.000000 0.000000
O O11 0.755741 0.882159 0.838930
O O12 0.837989 0.878980 0.934393
O O13 0.000000 0.930562 0.865793
O O14 0.732241 0.665115 0.250000
O O15 0.500000 0.672924 0.311852
O O16 0.000000 0.792372 0.959676
#
# Coordination Sequence:
#
# PCOD8256598 Si02
#       6
#    16  16  16  16  16  16
#     4  10  19  28  40  64  94 118 143 178 221 263
#     4   9  16  24  37  61  94 125 149 173 207 255
#     4   9  13  20  37  62  91 121 145 168 207 258
#     4   8  13  22  40  65  87 107 139 182 218 250
#     4   9  18  33  51  67  82 105 143 190 231 265
#     4   9  15  26  42  61  88 121 154 180 202 241
#
# _framework density 16.872643
#
# number of rings (size 3 to 8) (size 9 to 14) (size 15 to 20)
#    0.000    3.000    1.667    2.000    0.000    0.333 
#    0.000    0.833    0.000    1.000    0.000   23.333 
#    0.000    0.000    0.000    0.000    0.000    0.000 
#
# Total GULP energy -594636.339327 kJ/mol
# GULP energy per Si atom -12388.257069 kJ/mol
# Density = 1.683424 g / cm^3
# Si number density = 16.872643 Si / 1000 Ang^3
#
#
#
# Elastic Constant Matrix: (Units=GPa)
#
#
# Indices 1 2 3 4 5 6 
#
# 1 17.0225 16.1178 14.6899 0.0000 0.0000 0.0000
# 2 16.1178 117.5970 60.8525 0.0000 0.0000 0.0000
# 3 14.6899 60.8525 114.7816 0.0000 0.0000 0.0000
# 4 0.0000 0.0000 0.0000 15.3404 0.0000 0.0000
# 5 0.0000 0.0000 0.0000 0.0000 15.4412 0.0000
# 6 0.0000 0.0000 0.0000 0.0000 0.0000 13.3575
#
#
#
# Elastic Compliance Matrix: (Units=1/GPa)
#
#
# Indices 1 2 3 4 5 6 
#
# 1 0.069787 -0.006812 -0.005320 0.000000 0.000000 0.000000
# 2 -0.006812 0.012383 -0.005693 0.000000 0.000000 0.000000
# 3 -0.005320 -0.005693 0.012411 0.000000 0.000000 0.000000
# 4 0.000000 0.000000 0.000000 0.065187 0.000000 0.000000
# 5 0.000000 0.000000 0.000000 0.000000 0.064762 0.000000
# 6 0.000000 0.000000 0.000000 0.000000 0.000000 0.074864
#
#
# Mechanical properties :
#
#
# Convention : Reuss Voigt Hill
#
# Bulk Modulus (GPa) = 16.96904 48.08015 32.52459
# Shear Modulus (GPa) = 14.09686 19.34390 16.72038
#
# Velocity S-wave (km/s) = 2.89361 3.38962 3.15139
# Velocity P-wave (km/s) = 4.60901 6.62398 5.70614
#
# Compressibility (1/GPa) = 0.05893087
#
# Stress axis : x y z
#
# Youngs Moduli (GPa) = 14.32939 80.75335 80.57090
#
# Poissons Ratio (x) = 0.55009 0.42863
# Poissons Ratio (y) = 0.09761 0.45872
# Poissons Ratio (z) = 0.07623 0.45976
#
# Static dielectric constant tensor:
#      x y z
#    x 2.691050 0.000000 0.000000 
#    y 0.000000 3.433670 0.000000 
#    z 0.000000 0.000000 3.078770 
# 
# 
# High freq. dielectric constant tensor:
#      x y z
#    x 1.598070 0.000000 0.000000 
#    y 0.000000 1.654530 0.000000 
#    z 0.000000 0.000000 1.625270 
# 
# From -- ./inp_files/67263.got.cif
#   From: 2010.03.12/outbox.cif.g09.slc.cpg/sg63_34_cif.got.tgz:67263.got - 2010.04.10 19:34:48.
