data_PCOD8256096
_publ_section_title
;
Structure prediction by ZEFSAII (Michael W. Deem and Ramdas Pophale) SiO2 
 PCOD8256096
Probable space group: C M C M
;
_chemical_formula_sum "Si O2"
_cell_formula_units_Z 96
_cell_length_a 23.592955
_cell_length_b 23.266133
_cell_length_c 8.641805
_cell_angle_alpha 90.000000
_cell_angle_beta 90.000000
_cell_angle_gamma 90.000000
_cell_volume 4743.632197
_symmetry_space_group_name_H-M "C M C M"
_symmetry_group_IT_number 63
_symmetry_cell_setting 'orthorhombic'
loop_
_space_group_symop_operation_xyz
x,y,z
-x,-y,1/2+z
x,-y,-z
-x,y,1/2-z
-x,-y,-z
x,y,1/2-z
-x,y,z
x,-y,1/2+z
1/2+x,1/2+y,z
1/2-x,1/2-y,1/2+z
1/2+x,1/2-y,-z
1/2-x,1/2+y,1/2-z
1/2-x,1/2-y,-z
1/2+x,1/2+y,1/2-z
1/2-x,1/2+y,z
1/2+x,1/2-y,1/2+z
loop_
_atom_site_type_symbol
_atom_site_label
_atom_site_fract_x
_atom_site_fract_y
_atom_site_fract_z
Si Si1 0.000000 0.380563 0.929902
Si Si2 0.664094 0.358585 0.933008
Si Si3 0.063464 0.938973 0.567368
Si Si4 0.621485 0.122624 0.065736
Si Si5 0.886361 0.753653 0.067910
Si Si6 0.766988 0.437943 0.566504
Si Si7 0.500000 0.757954 0.068836
O O1 0.060569 0.403091 0.998520
O O2 0.000000 0.393936 0.750000
O O3 0.000000 0.312741 0.956598
O O4 0.664944 0.349781 0.750000
O O5 0.608324 0.392262 0.991585
O O6 0.719346 0.393221 0.988831
O O7 0.664075 0.296363 0.015958
O O8 0.066231 0.944111 0.750000
O O9 0.000000 0.921718 0.512101
O O10 0.081828 0.000000 0.500000
O O11 0.621530 0.120378 0.250000
O O12 0.629440 0.188932 0.013837
O O13 0.672592 0.084236 0.999416
O O14 0.896408 0.756816 0.250000
O O15 0.942767 0.776009 0.976489
O O16 0.752675 0.500000 0.500000
O O17 0.768202 0.442159 0.750000
O O18 0.500000 0.773347 0.250000
#
# Coordination Sequence:
#
# PCOD8256096 Si02
#       7
#     8  16  16  16  16  16   8
#     4   8  14  30  55  79 105 139 175 208 261 324
#     4  10  21  34  50  75 106 141 177 223 276 320
#     4   9  18  32  48  67  94 130 172 218 265 307
#     4   8  16  33  56  79 107 141 175 218 268 325
#     4  10  20  34  53  79 108 143 184 221 263 322
#     4  10  21  38  57  77 104 140 183 226 275 326
#     4  10  18  30  50  77 112 145 173 212 265 316
#
# _framework density 20.237656000000001
#
# number of rings (size 3 to 8) (size 9 to 14) (size 15 to 20)
#    0.000    2.667    0.000    2.750    1.167    2.000 
#    0.000    4.583    0.000    0.000    0.000    0.000 
#    0.000    0.000    0.000    0.000    0.000    0.000 
#
# Total GULP energy -594845.164956 kJ/mol
# GULP energy per Si atom -12392.607603 kJ/mol
# Density = 2.019159 g / cm^3
# Si number density = 20.237656 Si / 1000 Ang^3
#
#
#
# Elastic Constant Matrix: (Units=GPa)
#
#
# Indices 1 2 3 4 5 6 
#
# 1 115.2538 29.8968 16.8561 0.0000 0.0000 0.0000
# 2 29.8968 52.1215 14.2795 0.0000 0.0000 0.0000
# 3 16.8561 14.2795 22.3184 0.0000 0.0000 0.0000
# 4 0.0000 0.0000 0.0000 18.7222 0.0000 0.0000
# 5 0.0000 0.0000 0.0000 0.0000 14.0866 0.0000
# 6 0.0000 0.0000 0.0000 0.0000 0.0000 29.8701
#
#
#
# Elastic Compliance Matrix: (Units=1/GPa)
#
#
# Indices 1 2 3 4 5 6 
#
# 1 0.010635 -0.004729 -0.005007 0.000000 0.000000 0.000000
# 2 -0.004729 0.025366 -0.012658 0.000000 0.000000 0.000000
# 3 -0.005007 -0.012658 0.056686 0.000000 0.000000 0.000000
# 4 0.000000 0.000000 0.000000 0.053413 0.000000 0.000000
# 5 0.000000 0.000000 0.000000 0.000000 0.070989 0.000000
# 6 0.000000 0.000000 0.000000 0.000000 0.000000 0.033478
#
#
# Mechanical properties :
#
#
# Convention : Reuss Voigt Hill
#
# Bulk Modulus (GPa) = 20.87669 34.63985 27.75827
# Shear Modulus (GPa) = 16.06051 21.11320 18.58685
#
# Velocity S-wave (km/s) = 2.82014 3.23346 3.03385
# Velocity P-wave (km/s) = 4.57629 5.57620 5.10081
#
# Compressibility (1/GPa) = 0.04790032
#
# Stress axis : x y z
#
# Youngs Moduli (GPa) = 94.02558 39.42244 17.64092
#
# Poissons Ratio (x) = 0.18642 0.08833
# Poissons Ratio (y) = 0.44462 0.22330
# Poissons Ratio (z) = 0.47078 0.49902
#
# Static dielectric constant tensor:
#      x y z
#    x 4.288660 0.000000 0.000000 
#    y 0.000000 3.526660 0.000000 
#    z 0.000000 0.000000 3.277980 
# 
# 
# High freq. dielectric constant tensor:
#      x y z
#    x 1.803340 0.000000 0.000000 
#    y 0.000000 1.772970 0.000000 
#    z 0.000000 0.000000 1.758810 
# 
# From -- ./inp_files/10574.got.cif
#   From: 2010.03.12/outbox.cif.g09.slc.cpg/sg63_6_cif.got.tgz:10574.got - 2010.04.10 19:34:48.
