data_PCOD8256344
_publ_section_title
;
Structure prediction by ZEFSAII (Michael W. Deem and Ramdas Pophale) SiO2 
 PCOD8256344
Probable space group: C M C M
;
_chemical_formula_sum "Si O2"
_cell_formula_units_Z 88
_cell_length_a 22.671382
_cell_length_b 8.881480
_cell_length_c 23.129005
_cell_angle_alpha 90.000000
_cell_angle_beta 90.000000
_cell_angle_gamma 90.000000
_cell_volume 4657.150650
_symmetry_space_group_name_H-M "C M C M"
_symmetry_group_IT_number 63
_symmetry_cell_setting 'orthorhombic'
loop_
_space_group_symop_operation_xyz
x,y,z
-x,-y,1/2+z
x,-y,-z
-x,y,1/2-z
-x,-y,-z
x,y,1/2-z
-x,y,z
x,-y,1/2+z
1/2+x,1/2+y,z
1/2-x,1/2-y,1/2+z
1/2+x,1/2-y,-z
1/2-x,1/2+y,1/2-z
1/2-x,1/2-y,-z
1/2+x,1/2+y,1/2-z
1/2-x,1/2+y,z
1/2+x,1/2-y,1/2+z
loop_
_atom_site_type_symbol
_atom_site_label
_atom_site_fract_x
_atom_site_fract_y
_atom_site_fract_z
Si Si1 0.834664 0.279344 0.962496
Si Si2 0.065296 0.843905 0.888690
Si Si3 0.642829 0.080922 0.583219
Si Si4 0.750455 0.285066 0.366510
Si Si5 0.097808 0.000000 0.000000
Si Si6 0.672117 0.471906 0.683092
O O1 0.873865 0.406759 0.928432
O O2 0.771811 0.270341 0.929895
O O3 0.863159 0.114522 0.961767
O O4 0.828685 0.335978 0.027670
O O5 0.085457 0.669469 0.893860
O O6 0.111826 0.937699 0.851163
O O7 0.000000 0.848865 0.860430
O O8 0.059200 0.909699 0.953633
O O9 0.696382 0.093792 0.628755
O O10 0.695569 0.361384 0.333022
O O11 0.775749 0.144304 0.331265
O O12 0.656015 0.464911 0.750000
#
# Coordination Sequence:
#
# PCOD8256344 Si02
#       6
#    16  16  16  16   8  16
#     4  10  18  32  52  83 115 147 175 220 278 337
#     4  10  21  38  57  80 111 148 190 229 270 330
#     4   9  20  32  52  81 115 148 181 217 279 336
#     4  11  19  35  54  81 114 142 182 228 282 332
#     4  10  19  34  58  86 114 144 183 232 276 328
#     4  11  23  37  57  83 111 147 186 231 282 328
#
# _framework density 18.895674
#
# number of rings (size 3 to 8) (size 9 to 14) (size 15 to 20)
#    0.000    1.818    3.636    1.364    0.000    1.818 
#    0.000    8.182    0.000    0.000    0.000    0.000 
#    0.000    0.000    0.000    0.000    0.000    0.000 
#
# Total GULP energy -545278.984345 kJ/mol
# GULP energy per Si atom -12392.704190 kJ/mol
# Density = 1.885267 g / cm^3
# Si number density = 18.895674 Si / 1000 Ang^3
#
#
#
# Elastic Constant Matrix: (Units=GPa)
#
#
# Indices 1 2 3 4 5 6 
#
# 1 121.2015 41.8576 35.0019 0.0000 0.0000 0.0000
# 2 41.8576 87.4535 6.4583 0.0000 0.0000 0.0000
# 3 35.0019 6.4583 68.3698 0.0000 0.0000 0.0000
# 4 0.0000 0.0000 0.0000 17.9494 0.0000 0.0000
# 5 0.0000 0.0000 0.0000 0.0000 12.4859 0.0000
# 6 0.0000 0.0000 0.0000 0.0000 0.0000 10.6182
#
#
#
# Elastic Compliance Matrix: (Units=1/GPa)
#
#
# Indices 1 2 3 4 5 6 
#
# 1 0.011605 -0.005152 -0.005455 0.000000 0.000000 0.000000
# 2 -0.005152 0.013802 0.001334 0.000000 0.000000 0.000000
# 3 -0.005455 0.001334 0.017293 0.000000 0.000000 0.000000
# 4 0.000000 0.000000 0.000000 0.055712 0.000000 0.000000
# 5 0.000000 0.000000 0.000000 0.000000 0.080090 0.000000
# 6 0.000000 0.000000 0.000000 0.000000 0.000000 0.094178
#
#
# Mechanical properties :
#
#
# Convention : Reuss Voigt Hill
#
# Bulk Modulus (GPa) = 41.40003 49.29563 45.34783
# Shear Modulus (GPa) = 16.70695 21.12452 18.91573
#
# Velocity S-wave (km/s) = 2.97672 3.34721 3.16739
# Velocity P-wave (km/s) = 5.81136 6.40963 6.11781
#
# Compressibility (1/GPa) = 0.02415457
#
# Stress axis : x y z
#
# Youngs Moduli (GPa) = 86.16868 72.45373 57.82740
#
# Poissons Ratio (x) = 0.37326 0.31543
# Poissons Ratio (y) = 0.44392 -0.07712
# Poissons Ratio (z) = 0.47002 -0.09663
#
# Static dielectric constant tensor:
#      x y z
#    x 3.129800 0.000000 0.000000 
#    y 0.000000 3.585410 0.000000 
#    z 0.000000 0.000000 3.236470 
# 
# 
# High freq. dielectric constant tensor:
#      x y z
#    x 1.706160 0.000000 0.000000 
#    y 0.000000 1.741220 0.000000 
#    z 0.000000 0.000000 1.711390 
# 
# From -- ./inp_files/64420.got.cif
#   From: 2010.03.12/outbox.cif.g09.slc.cpg/sg63_33_cif.got.tgz:64420.got - 2010.04.10 19:34:48.
