data_PCOD8256247
_publ_section_title
;
Structure prediction by ZEFSAII (Michael W. Deem and Ramdas Pophale) SiO2 
 PCOD8256247
Probable space group: C M C M
;
_chemical_formula_sum "Si O2"
_cell_formula_units_Z 80
_cell_length_a 11.858760
_cell_length_b 20.577328
_cell_length_c 17.852543
_cell_angle_alpha 90.000000
_cell_angle_beta 90.000000
_cell_angle_gamma 90.000000
_cell_volume 4356.406003
_symmetry_space_group_name_H-M "C M C M"
_symmetry_group_IT_number 63
_symmetry_cell_setting 'orthorhombic'
loop_
_space_group_symop_operation_xyz
x,y,z
-x,-y,1/2+z
x,-y,-z
-x,y,1/2-z
-x,-y,-z
x,y,1/2-z
-x,y,z
x,-y,1/2+z
1/2+x,1/2+y,z
1/2-x,1/2-y,1/2+z
1/2+x,1/2-y,-z
1/2-x,1/2+y,1/2-z
1/2-x,1/2-y,-z
1/2+x,1/2+y,1/2-z
1/2-x,1/2+y,z
1/2+x,1/2-y,1/2+z
loop_
_atom_site_type_symbol
_atom_site_label
_atom_site_fract_x
_atom_site_fract_y
_atom_site_fract_z
Si Si1 0.742839 0.573425 0.027947
Si Si2 0.125792 0.309898 0.039517
Si Si3 0.500000 0.646080 0.834621
Si Si4 0.675162 0.748104 0.615164
Si Si5 0.500000 0.575256 0.514809
Si Si6 0.629640 0.885970 0.666328
O O1 0.787258 0.573316 0.113138
O O2 0.748762 0.500000 0.000000
O O3 0.821592 0.619627 0.978256
O O4 0.615068 0.602776 0.022855
O O5 0.195465 0.273951 0.104708
O O6 0.000000 0.320274 0.069938
O O7 0.122471 0.264828 0.965800
O O8 0.500000 0.617163 0.750000
O O9 0.389934 0.689724 0.845690
O O10 0.500000 0.588281 0.895666
O O11 0.667551 0.810890 0.667672
O O12 0.500000 0.500000 0.500000
O O13 0.641572 0.914022 0.750000
O O14 0.500000 0.891517 0.638150
#
# Coordination Sequence:
#
# PCOD8256247 Si02
#       6
#    16  16   8  16   8  16
#     4  10  20  36  58  80 109 145 189 232 270 325
#     4  10  19  31  53  83 113 144 184 225 274 323
#     4  12  20  34  62  86 107 147 188 227 284 331
#     4  10  18  31  52  85 113 141 180 224 270 326
#     4  10  22  40  56  84 110 141 186 241 276 325
#     4  10  20  35  56  84 115 145 181 228 278 331
#
# _framework density 18.363762000000001
#
# number of rings (size 3 to 8) (size 9 to 14) (size 15 to 20)
#    0.000    1.800    4.000    2.400    0.000    1.600 
#    0.000    4.500    0.000    1.800    0.000    0.000 
#    0.000    0.000    0.000    0.000    0.000    0.000 
#
# Total GULP energy -495872.260818 kJ/mol
# GULP energy per Si atom -12396.806520 kJ/mol
# Density = 1.832196 g / cm^3
# Si number density = 18.363762 Si / 1000 Ang^3
#
#
#
# Elastic Constant Matrix: (Units=GPa)
#
#
# Indices 1 2 3 4 5 6 
#
# 1 172.8624 35.8066 56.2552 0.0000 0.0000 0.0000
# 2 35.8066 69.4706 33.3673 0.0000 0.0000 0.0000
# 3 56.2552 33.3673 104.8883 0.0000 0.0000 0.0000
# 4 0.0000 0.0000 0.0000 18.1457 0.0000 0.0000
# 5 0.0000 0.0000 0.0000 0.0000 22.7710 0.0000
# 6 0.0000 0.0000 0.0000 0.0000 0.0000 24.7154
#
#
#
# Elastic Compliance Matrix: (Units=1/GPa)
#
#
# Indices 1 2 3 4 5 6 
#
# 1 0.007286 -0.002217 -0.003203 0.000000 0.000000 0.000000
# 2 -0.002217 0.017665 -0.004431 0.000000 0.000000 0.000000
# 3 -0.003203 -0.004431 0.012661 0.000000 0.000000 0.000000
# 4 0.000000 0.000000 0.000000 0.055110 0.000000 0.000000
# 5 0.000000 0.000000 0.000000 0.000000 0.043915 0.000000
# 6 0.000000 0.000000 0.000000 0.000000 0.000000 0.040461
#
#
# Mechanical properties :
#
#
# Convention : Reuss Voigt Hill
#
# Bulk Modulus (GPa) = 55.82840 66.45330 61.14085
# Shear Modulus (GPa) = 24.65843 27.91256 26.28550
#
# Velocity S-wave (km/s) = 3.66837 3.90292 3.78746
# Velocity P-wave (km/s) = 6.95773 7.52171 7.24521
#
# Compressibility (1/GPa) = 0.01791203
#
# Stress axis : x y z
#
# Youngs Moduli (GPa) = 137.24037 56.60754 78.98233
#
# Poissons Ratio (x) = 0.12552 0.25295
# Poissons Ratio (y) = 0.30431 0.34993
# Poissons Ratio (z) = 0.43953 0.25080
#
# Static dielectric constant tensor:
#      x y z
#    x 3.838360 0.000000 0.000000 
#    y 0.000000 3.221760 0.000000 
#    z 0.000000 0.000000 3.220730 
# 
# 
# High freq. dielectric constant tensor:
#      x y z
#    x 1.722700 0.000000 0.000000 
#    y 0.000000 1.699550 0.000000 
#    z 0.000000 0.000000 1.684240 
# 
# From -- ./inp_files/42425.got.cif
#   From: 2010.03.12/outbox.cif.g09.slc.cpg/sg63_22_cif.got.tgz:42425.got - 2010.04.10 19:34:48.
