data_PCOD8256257
_publ_section_title
;
Structure prediction by ZEFSAII (Michael W. Deem and Ramdas Pophale) SiO2 
 PCOD8256257
Probable space group: C M C M
;
_chemical_formula_sum "Si O2"
_cell_formula_units_Z 128
_cell_length_a 20.660830
_cell_length_b 23.515515
_cell_length_c 14.699489
_cell_angle_alpha 90.000000
_cell_angle_beta 90.000000
_cell_angle_gamma 90.000000
_cell_volume 7141.747580
_symmetry_space_group_name_H-M "C M C M"
_symmetry_group_IT_number 63
_symmetry_cell_setting 'orthorhombic'
loop_
_space_group_symop_operation_xyz
x,y,z
-x,-y,1/2+z
x,-y,-z
-x,y,1/2-z
-x,-y,-z
x,y,1/2-z
-x,y,z
x,-y,1/2+z
1/2+x,1/2+y,z
1/2-x,1/2-y,1/2+z
1/2+x,1/2-y,-z
1/2-x,1/2+y,1/2-z
1/2-x,1/2-y,-z
1/2+x,1/2+y,1/2-z
1/2-x,1/2+y,z
1/2+x,1/2-y,1/2+z
loop_
_atom_site_type_symbol
_atom_site_label
_atom_site_fract_x
_atom_site_fract_y
_atom_site_fract_z
Si Si1 0.877608 0.850736 0.147629
Si Si2 0.189563 0.228300 0.357722
Si Si3 0.928184 0.267868 0.642144
Si Si4 0.878580 0.063975 0.492036
Si Si5 0.273538 0.935778 0.508975
Si Si6 0.226239 0.649850 0.647357
Si Si7 0.573028 0.348454 0.644803
Si Si8 0.188745 0.344847 0.858086
O O1 0.901146 0.864655 0.250000
O O2 0.912995 0.795456 0.105544
O O3 0.802014 0.836808 0.146625
O O4 0.895348 0.904610 0.086206
O O5 0.195484 0.230160 0.250000
O O6 0.191753 0.293372 0.392479
O O7 0.122451 0.200013 0.390980
O O8 0.249858 0.191384 0.394677
O O9 0.922607 0.264412 0.750000
O O10 0.876300 0.313681 0.607395
O O11 0.000000 0.286385 0.610213
O O12 0.802610 0.064976 0.471165
O O13 0.915870 0.093283 0.409015
O O14 0.904633 0.000000 0.500000
O O15 0.291535 0.903274 0.415859
O O16 0.309125 0.906349 0.594219
O O17 0.299413 0.000000 0.500000
O O18 0.203078 0.635400 0.750000
O O19 0.586964 0.362067 0.750000
O O20 0.500000 0.326093 0.630247
O O21 0.190196 0.353851 0.750000
#
# Coordination Sequence:
#
# PCOD8256257 Si02
#       8
#    16  16  16  16  16  16  16  16
#     4   9  17  31  49  72 102 131 159 200 255 305
#     4   9  16  30  52  76  98 126 165 202 248 302
#     4   9  17  30  50  78 107 129 155 197 253 313
#     4  10  21  34  49  70  97 133 177 216 243 284
#     4  10  21  33  48  75 103 133 174 209 245 293
#     4   9  17  31  51  73 100 132 165 205 250 298
#     4  10  21  36  52  71  99 133 168 210 253 291
#     4  10  18  31  53  78 103 130 161 204 253 301
#
# _framework density 17.922785000000001
#
# number of rings (size 3 to 8) (size 9 to 14) (size 15 to 20)
#    0.000    2.500    2.500    0.000    0.000    3.250 
#    0.000    2.500    0.000    1.875    0.000    0.000 
#    0.000    4.000    0.000    0.000    0.000    0.000 
#
# Total GULP energy -793588.988521 kJ/mol
# GULP energy per Si atom -12399.827946 kJ/mol
# Density = 1.788199 g / cm^3
# Si number density = 17.922785 Si / 1000 Ang^3
#
#
#
# Elastic Constant Matrix: (Units=GPa)
#
#
# Indices 1 2 3 4 5 6 
#
# 1 93.6182 62.6648 33.9690 0.0000 0.0000 0.0000
# 2 62.6648 149.5790 50.2148 0.0000 0.0000 0.0000
# 3 33.9690 50.2148 65.1212 0.0000 0.0000 0.0000
# 4 0.0000 0.0000 0.0000 29.9154 0.0000 0.0000
# 5 0.0000 0.0000 0.0000 0.0000 14.3354 0.0000
# 6 0.0000 0.0000 0.0000 0.0000 0.0000 18.3076
#
#
#
# Elastic Compliance Matrix: (Units=1/GPa)
#
#
# Indices 1 2 3 4 5 6 
#
# 1 0.015649 -0.005149 -0.004193 0.000000 0.000000 0.000000
# 2 -0.005149 0.010714 -0.005576 0.000000 0.000000 0.000000
# 3 -0.004193 -0.005576 0.021843 0.000000 0.000000 0.000000
# 4 0.000000 0.000000 0.000000 0.033428 0.000000 0.000000
# 5 0.000000 0.000000 0.000000 0.000000 0.069757 0.000000
# 6 0.000000 0.000000 0.000000 0.000000 0.000000 0.054622
#
#
# Mechanical properties :
#
#
# Convention : Reuss Voigt Hill
#
# Bulk Modulus (GPa) = 54.43343 66.89062 60.66202
# Shear Modulus (GPa) = 20.66344 23.27632 21.96988
#
# Velocity S-wave (km/s) = 3.39914 3.60766 3.50495
# Velocity P-wave (km/s) = 6.77071 7.39974 7.09221
#
# Compressibility (1/GPa) = 0.01837106
#
# Stress axis : x y z
#
# Youngs Moduli (GPa) = 63.90026 93.33297 45.78119
#
# Poissons Ratio (x) = 0.48053 0.19197
# Poissons Ratio (y) = 0.32899 0.25528
# Poissons Ratio (z) = 0.26794 0.52044
#
# Static dielectric constant tensor:
#      x y z
#    x 3.235700 0.000000 0.000000 
#    y 0.000000 3.323630 0.000000 
#    z 0.000000 0.000000 3.279750 
# 
# 
# High freq. dielectric constant tensor:
#      x y z
#    x 1.668120 0.000000 0.000000 
#    y 0.000000 1.681520 0.000000 
#    z 0.000000 0.000000 1.691790 
# 
# From -- ./inp_files/47541.got.cif
#   From: 2010.03.12/outbox.cif.g09.slc.cpg/sg63_24_cif.got.tgz:47541.got - 2010.04.10 19:34:48.
