data_PCOD8256271
_publ_section_title
;
Structure prediction by ZEFSAII (Michael W. Deem and Ramdas Pophale) SiO2 
 PCOD8256271
Probable space group: C M C M
;
_chemical_formula_sum "Si O2"
_cell_formula_units_Z 64
_cell_length_a 19.495638
_cell_length_b 10.442036
_cell_length_c 15.728053
_cell_angle_alpha 90.000000
_cell_angle_beta 90.000000
_cell_angle_gamma 90.000000
_cell_volume 3201.825081
_symmetry_space_group_name_H-M "C M C M"
_symmetry_group_IT_number 63
_symmetry_cell_setting 'orthorhombic'
loop_
_space_group_symop_operation_xyz
x,y,z
-x,-y,1/2+z
x,-y,-z
-x,y,1/2-z
-x,-y,-z
x,y,1/2-z
-x,y,z
x,-y,1/2+z
1/2+x,1/2+y,z
1/2-x,1/2-y,1/2+z
1/2+x,1/2-y,-z
1/2-x,1/2+y,1/2-z
1/2-x,1/2-y,-z
1/2+x,1/2+y,1/2-z
1/2-x,1/2+y,z
1/2+x,1/2-y,1/2+z
loop_
_atom_site_type_symbol
_atom_site_label
_atom_site_fract_x
_atom_site_fract_y
_atom_site_fract_z
Si Si1 0.790827 0.263808 0.086982
Si Si2 0.421566 0.851318 0.002233
Si Si3 0.577579 0.677042 0.654232
Si Si4 0.300727 0.512343 0.601636
O O1 0.756317 0.385169 0.135003
O O2 0.784143 0.129780 0.139030
O O3 0.750000 0.250000 0.000000
O O4 0.871611 0.286204 0.070677
O O5 0.500000 0.826994 0.030665
O O6 0.406207 0.794719 0.908749
O O7 0.403504 0.000000 0.000000
O O8 0.589679 0.727337 0.750000
O O9 0.500000 0.628357 0.641446
O O10 0.625167 0.555787 0.634415
O O11 0.302139 0.500000 0.500000
#
# Coordination Sequence:
#
# PCOD8256271 Si02
#       4
#    16  16  16  16
#     4  10  18  31  54  80 111 138 184 235 272 317
#     4  10  19  32  55  84 111 148 195 234 281 343
#     4  10  21  36  54  81 116 148 183 234 290 339
#     4  10  19  33  56  81 109 148 185 229 275 329
#
# _framework density 19.988600999999999
#
# number of rings (size 3 to 8) (size 9 to 14) (size 15 to 20)
#    0.000    2.000    5.000    2.250    0.000    1.500 
#    0.000    1.250    0.000    1.500    0.000    3.500 
#    0.000    0.000    0.000    0.000    0.000    0.000 
#
# Total GULP energy -396604.606907 kJ/mol
# GULP energy per Si atom -12393.893966 kJ/mol
# Density = 1.994311 g / cm^3
# Si number density = 19.988601 Si / 1000 Ang^3
#
#
#
# Elastic Constant Matrix: (Units=GPa)
#
#
# Indices 1 2 3 4 5 6 
#
# 1 124.5162 81.7951 25.9459 0.0000 0.0000 0.0000
# 2 81.7951 202.2498 35.1589 0.0000 0.0000 0.0000
# 3 25.9459 35.1589 36.0104 0.0000 0.0000 0.0000
# 4 0.0000 0.0000 0.0000 9.9803 0.0000 0.0000
# 5 0.0000 0.0000 0.0000 0.0000 15.0842 0.0000
# 6 0.0000 0.0000 0.0000 0.0000 0.0000 36.7955
#
#
#
# Elastic Compliance Matrix: (Units=1/GPa)
#
#
# Indices 1 2 3 4 5 6 
#
# 1 0.011516 -0.003872 -0.004517 0.000000 0.000000 0.000000
# 2 -0.003872 0.007257 -0.004296 0.000000 0.000000 0.000000
# 3 -0.004517 -0.004296 0.035218 0.000000 0.000000 0.000000
# 4 0.000000 0.000000 0.000000 0.100197 0.000000 0.000000
# 5 0.000000 0.000000 0.000000 0.000000 0.066294 0.000000
# 6 0.000000 0.000000 0.000000 0.000000 0.000000 0.027177
#
#
# Mechanical properties :
#
#
# Convention : Reuss Voigt Hill
#
# Bulk Modulus (GPa) = 34.93792 72.06401 53.50097
# Shear Modulus (GPa) = 17.69477 27.03046 22.36262
#
# Velocity S-wave (km/s) = 2.97853 3.68134 3.34843
# Velocity P-wave (km/s) = 5.41717 7.36210 6.46321
#
# Compressibility (1/GPa) = 0.02862219
#
# Stress axis : x y z
#
# Youngs Moduli (GPa) = 86.83673 137.79595 28.39444
#
# Poissons Ratio (x) = 0.53356 0.12825
# Poissons Ratio (y) = 0.33624 0.12197
# Poissons Ratio (z) = 0.39222 0.59191
#
# Static dielectric constant tensor:
#      x y z
#    x 3.935770 0.000000 0.000000 
#    y 0.000000 4.551870 0.000000 
#    z 0.000000 0.000000 3.166850 
# 
# 
# High freq. dielectric constant tensor:
#      x y z
#    x 1.796330 0.000000 0.000000 
#    y 0.000000 1.791100 0.000000 
#    z 0.000000 0.000000 1.719600 
# 
# From -- ./inp_files/33357.got.cif
#   From: 2010.03.12/outbox.cif.g09.slc.cpg/sg63_17_cif.got.tgz:33357.got - 2010.04.10 19:34:48.
