data_PCOD8256862
_publ_section_title
;
Structure prediction by ZEFSAII (Michael W. Deem and Ramdas Pophale) SiO2 
 PCOD8256862
Probable space group: C M C M
;
_chemical_formula_sum "Si O2"
_cell_formula_units_Z 112
_cell_length_a 11.023452
_cell_length_b 26.880097
_cell_length_c 19.869595
_cell_angle_alpha 90.000000
_cell_angle_beta 90.000000
_cell_angle_gamma 90.000000
_cell_volume 5887.588685
_symmetry_space_group_name_H-M "C M C M"
_symmetry_group_IT_number 63
_symmetry_cell_setting 'orthorhombic'
loop_
_space_group_symop_operation_xyz
x,y,z
-x,-y,1/2+z
x,-y,-z
-x,y,1/2-z
-x,-y,-z
x,y,1/2-z
-x,y,z
x,-y,1/2+z
1/2+x,1/2+y,z
1/2-x,1/2-y,1/2+z
1/2+x,1/2-y,-z
1/2-x,1/2+y,1/2-z
1/2-x,1/2-y,-z
1/2+x,1/2+y,1/2-z
1/2-x,1/2+y,z
1/2+x,1/2-y,1/2+z
loop_
_atom_site_type_symbol
_atom_site_label
_atom_site_fract_x
_atom_site_fract_y
_atom_site_fract_z
Si Si1 0.641011 0.941485 0.577847
Si Si2 0.749870 0.257895 0.613169
Si Si3 0.631864 0.696291 0.993291
Si Si4 0.860472 0.648091 0.175216
Si Si5 0.137071 0.662998 0.824665
Si Si6 0.866220 0.989078 0.076978
Si Si7 0.728260 0.896794 0.444118
O O1 0.500000 0.959208 0.591438
O O2 0.674564 0.893254 0.621018
O O3 0.650686 0.929147 0.498033
O O4 0.745732 0.980545 0.601812
O O5 0.641545 0.279372 0.567108
O O6 0.854417 0.240300 0.561452
O O7 0.790558 0.300957 0.662902
O O8 0.715625 0.211106 0.658448
O O9 0.500000 0.672210 0.986129
O O10 0.728259 0.652507 0.982569
O O11 0.827824 0.628424 0.250000
O O12 0.000000 0.661533 0.169059
O O13 0.174289 0.643525 0.750000
O O14 0.150931 0.618897 0.879021
O O15 0.000000 0.681186 0.825092
O O16 0.837973 0.930373 0.084873
O O17 0.000000 0.000604 0.112051
O O18 0.886088 0.000000 0.000000
#
# Coordination Sequence:
#
# PCOD8256862 Si02
#       7
#    16  16  16  16  16  16  16
#     4  10  20  35  56  83 109 139 183 230 274 328
#     4  10  19  33  50  75 104 144 181 225 269 320
#     4  10  19  30  50  79 107 137 178 224 274 322
#     4  10  20  35  54  76 106 143 183 228 274 322
#     4  10  21  35  51  76 111 146 182 225 273 323
#     4   9  19  35  57  84 112 140 175 225 281 332
#     4  10  19  34  56  80 106 141 179 227 270 324
#
# _framework density 19.023067000000001
#
# number of rings (size 3 to 8) (size 9 to 14) (size 15 to 20)
#    0.000    2.143    1.429    2.143    0.000    3.714 
#    0.000    0.714    0.000   13.286    0.000    0.000 
#    0.000    0.000    0.000    0.000    0.000    0.000 
#
# Total GULP energy -693851.206514 kJ/mol
# GULP energy per Si atom -12390.200116 kJ/mol
# Density = 1.897977 g / cm^3
# Si number density = 19.023067 Si / 1000 Ang^3
#
#
#
# Elastic Constant Matrix: (Units=GPa)
#
#
# Indices 1 2 3 4 5 6 
#
# 1 97.0440 30.7491 22.8767 0.0000 0.0000 0.0000
# 2 30.7491 75.6705 22.7883 0.0000 0.0000 0.0000
# 3 22.8767 22.7883 93.3460 0.0000 0.0000 0.0000
# 4 0.0000 0.0000 0.0000 8.9861 0.0000 0.0000
# 5 0.0000 0.0000 0.0000 0.0000 40.4115 0.0000
# 6 0.0000 0.0000 0.0000 0.0000 0.0000 29.5796
#
#
#
# Elastic Compliance Matrix: (Units=1/GPa)
#
#
# Indices 1 2 3 4 5 6 
#
# 1 0.012135 -0.004356 -0.001911 0.000000 0.000000 0.000000
# 2 -0.004356 0.015827 -0.002796 0.000000 0.000000 0.000000
# 3 -0.001911 -0.002796 0.011864 0.000000 0.000000 0.000000
# 4 0.000000 0.000000 0.000000 0.111283 0.000000 0.000000
# 5 0.000000 0.000000 0.000000 0.000000 0.024745 0.000000
# 6 0.000000 0.000000 0.000000 0.000000 0.000000 0.033807
#
#
# Mechanical properties :
#
#
# Convention : Reuss Voigt Hill
#
# Bulk Modulus (GPa) = 46.08171 46.54320 46.31245
# Shear Modulus (GPa) = 21.27473 28.43853 24.85663
#
# Velocity S-wave (km/s) = 3.34782 3.87065 3.61869
# Velocity P-wave (km/s) = 6.26264 6.67052 6.46979
#
# Compressibility (1/GPa) = 0.02170058
#
# Stress axis : x y z
#
# Youngs Moduli (GPa) = 82.40504 63.18189 84.29029
#
# Poissons Ratio (x) = 0.27521 0.16105
# Poissons Ratio (y) = 0.35894 0.23571
# Poissons Ratio (z) = 0.15745 0.17668
#
# Static dielectric constant tensor:
#      x y z
#    x 3.554050 0.000000 0.000000 
#    y 0.000000 3.482610 0.000000 
#    z 0.000000 0.000000 3.443670 
# 
# 
# High freq. dielectric constant tensor:
#      x y z
#    x 1.734490 0.000000 0.000000 
#    y 0.000000 1.737830 0.000000 
#    z 0.000000 0.000000 1.719620 
# 
# From -- ./inp_files/53326.got.cif
#   From: 2010.03.12/outbox.cif.g09.slc.cpg/sg63_27_cif.got.tgz:53326.got - 2010.04.10 19:34:48.
