data_PCOD8256193
_publ_section_title
;
Structure prediction by ZEFSAII (Michael W. Deem and Ramdas Pophale) SiO2 
 PCOD8256193
Probable space group: C M C M
;
_chemical_formula_sum "Si O2"
_cell_formula_units_Z 96
_cell_length_a 8.713455
_cell_length_b 26.744424
_cell_length_c 23.122230
_cell_angle_alpha 90.000000
_cell_angle_beta 90.000000
_cell_angle_gamma 90.000000
_cell_volume 5388.319737
_symmetry_space_group_name_H-M "C M C M"
_symmetry_group_IT_number 63
_symmetry_cell_setting 'orthorhombic'
loop_
_space_group_symop_operation_xyz
x,y,z
-x,-y,1/2+z
x,-y,-z
-x,y,1/2-z
-x,-y,-z
x,y,1/2-z
-x,y,z
x,-y,1/2+z
1/2+x,1/2+y,z
1/2-x,1/2-y,1/2+z
1/2+x,1/2-y,-z
1/2-x,1/2+y,1/2-z
1/2-x,1/2-y,-z
1/2+x,1/2+y,1/2-z
1/2-x,1/2+y,z
1/2+x,1/2-y,1/2+z
loop_
_atom_site_type_symbol
_atom_site_label
_atom_site_fract_x
_atom_site_fract_y
_atom_site_fract_z
Si Si1 0.675178 0.203662 0.938968
Si Si2 0.183520 0.362522 0.250000
Si Si3 0.680481 0.210438 0.134206
Si Si4 0.318015 0.748595 0.250000
Si Si5 0.327314 0.899228 0.128684
Si Si6 0.317817 0.350519 0.541696
Si Si7 0.681203 0.448174 0.024447
O O1 0.500000 0.222660 0.947101
O O2 0.777881 0.243709 0.906764
O O3 0.677448 0.154468 0.900481
O O4 0.753545 0.193482 0.000622
O O5 0.247393 0.305509 0.250000
O O6 0.242597 0.392572 0.306685
O O7 0.000000 0.359616 0.250000
O O8 0.500000 0.205970 0.142667
O O9 0.760112 0.217673 0.195434
O O10 0.746197 0.159415 0.105040
O O11 0.500000 0.749954 0.250000
O O12 0.500000 0.919663 0.132493
O O13 0.232947 0.939063 0.090631
O O14 0.500000 0.347984 0.544072
O O15 0.259944 0.403999 0.517735
O O16 0.500000 0.450175 0.024556
O O17 0.750378 0.500000 0.000000
#
# Coordination Sequence:
#
# PCOD8256193 Si02
#       7
#    16   8  16   8  16  16  16
#     4  10  18  31  50  73 103 139 174 210 253 304
#     4   9  16  31  51  74 105 138 169 206 247 300
#     4  12  23  34  48  73 106 139 177 216 251 299
#     4  11  21  37  55  72 101 146 183 212 253 302
#     4   9  17  30  51  77 104 136 172 208 254 311
#     4  10  20  34  52  74 100 134 172 215 264 313
#     4   9  19  36  56  78 103 130 168 221 274 317
#
# _framework density 17.816313999999998
#
# number of rings (size 3 to 8) (size 9 to 14) (size 15 to 20)
#    0.000    2.000    1.667    3.250    0.000    1.667 
#    0.000    0.417    0.000    1.000    0.000    5.833 
#    0.000    0.000    0.000    0.000    0.000    0.000 
#
# Total GULP energy -595140.179934 kJ/mol
# GULP energy per Si atom -12398.753749 kJ/mol
# Density = 1.777576 g / cm^3
# Si number density = 17.816314 Si / 1000 Ang^3
#
#
#
# Elastic Constant Matrix: (Units=GPa)
#
#
# Indices 1 2 3 4 5 6 
#
# 1 59.1956 23.7490 31.4497 0.0000 0.0000 0.0000
# 2 23.7490 67.8254 62.5979 0.0000 0.0000 0.0000
# 3 31.4497 62.5979 153.4893 0.0000 0.0000 0.0000
# 4 0.0000 0.0000 0.0000 19.8195 0.0000 0.0000
# 5 0.0000 0.0000 0.0000 0.0000 29.7586 0.0000
# 6 0.0000 0.0000 0.0000 0.0000 0.0000 18.7947
#
#
#
# Elastic Compliance Matrix: (Units=1/GPa)
#
#
# Indices 1 2 3 4 5 6 
#
# 1 0.020028 -0.005172 -0.001994 0.000000 0.000000 0.000000
# 2 -0.005172 0.024979 -0.009127 0.000000 0.000000 0.000000
# 3 -0.001994 -0.009127 0.010646 0.000000 0.000000 0.000000
# 4 0.000000 0.000000 0.000000 0.050455 0.000000 0.000000
# 5 0.000000 0.000000 0.000000 0.000000 0.033604 0.000000
# 6 0.000000 0.000000 0.000000 0.000000 0.000000 0.053206
#
#
# Mechanical properties :
#
#
# Convention : Reuss Voigt Hill
#
# Bulk Modulus (GPa) = 43.35567 57.34484 50.35025
# Shear Modulus (GPa) = 21.44139 24.52213 22.98176
#
# Velocity S-wave (km/s) = 3.47287 3.71399 3.59545
# Velocity P-wave (km/s) = 6.36150 7.11676 6.74970
#
# Compressibility (1/GPa) = 0.02306504
#
# Stress axis : x y z
#
# Youngs Moduli (GPa) = 49.93080 40.03425 93.93051
#
# Poissons Ratio (x) = 0.20706 0.18733
# Poissons Ratio (y) = 0.25825 0.85734
# Poissons Ratio (z) = 0.09958 0.36541
#
# Static dielectric constant tensor:
#      x y z
#    x 3.254310 0.000000 0.000000 
#    y 0.000000 3.314240 0.000000 
#    z 0.000000 0.000000 3.559860 
# 
# 
# High freq. dielectric constant tensor:
#      x y z
#    x 1.685600 0.000000 0.000000 
#    y 0.000000 1.659210 0.000000 
#    z 0.000000 0.000000 1.695460 
# 
# From -- ./inp_files/60291.got.cif
#   From: 2010.03.12/outbox.cif.g09.slc.cpg/sg63_31_cif.got.tgz:60291.got - 2010.04.10 19:34:48.
