data_PCOD8256132
_publ_section_title
;
Structure prediction by ZEFSAII (Michael W. Deem and Ramdas Pophale) SiO2 
 PCOD8256132
Probable space group: C M C M
;
_chemical_formula_sum "Si O2"
_cell_formula_units_Z 96
_cell_length_a 9.564941
_cell_length_b 28.864619
_cell_length_c 20.302562
_cell_angle_alpha 90.000000
_cell_angle_beta 90.000000
_cell_angle_gamma 90.000000
_cell_volume 5605.301406
_symmetry_space_group_name_H-M "C M C M"
_symmetry_group_IT_number 63
_symmetry_cell_setting 'orthorhombic'
loop_
_space_group_symop_operation_xyz
x,y,z
-x,-y,1/2+z
x,-y,-z
-x,y,1/2-z
-x,-y,-z
x,y,1/2-z
-x,y,z
x,-y,1/2+z
1/2+x,1/2+y,z
1/2-x,1/2-y,1/2+z
1/2+x,1/2-y,-z
1/2-x,1/2+y,1/2-z
1/2-x,1/2-y,-z
1/2+x,1/2+y,1/2-z
1/2-x,1/2+y,z
1/2+x,1/2-y,1/2+z
loop_
_atom_site_type_symbol
_atom_site_label
_atom_site_fract_x
_atom_site_fract_y
_atom_site_fract_z
Si Si1 0.339321 0.024176 0.433116
Si Si2 0.165447 0.782143 0.322649
Si Si3 0.162726 0.877150 0.115661
Si Si4 0.663138 0.223651 0.444873
Si Si5 0.338762 0.474694 0.174979
Si Si6 0.158990 0.622304 0.013564
O O1 0.500000 0.009991 0.421819
O O2 0.319924 0.079475 0.436992
O O3 0.283831 0.000000 0.500000
O O4 0.252212 0.007314 0.371115
O O5 0.228775 0.771754 0.250000
O O6 0.222323 0.831557 0.348313
O O7 0.211488 0.741867 0.373158
O O8 0.000000 0.784857 0.317311
O O9 0.191921 0.920650 0.162518
O O10 0.000000 0.871343 0.098961
O O11 0.240942 0.884799 0.047665
O O12 0.500000 0.234504 0.456997
O O13 0.750000 0.250000 0.500000
O O14 0.695694 0.169102 0.447018
O O15 0.298659 0.485875 0.250000
O O16 0.500000 0.485885 0.160592
O O17 0.000000 0.623695 0.987252
#
# Coordination Sequence:
#
# PCOD8256132 Si02
#       6
#    16  16  16  16  16  16
#     4  10  20  35  53  73 102 140 177 211 252 305
#     4   9  17  30  49  74 102 131 164 202 248 302
#     4  10  18  30  52  78 102 130 166 208 256 307
#     4  10  19  32  52  76 102 132 167 209 253 298
#     4  10  21  35  52  78 108 134 168 216 262 304
#     4  10  20  33  50  76 106 131 167 217 256 294
#
# _framework density 17.126643999999999
#
# number of rings (size 3 to 8) (size 9 to 14) (size 15 to 20)
#    0.000    2.167    3.333    0.500    0.000    3.333 
#    0.000    0.833    0.000    6.000    0.000    0.000 
#    0.000    0.000    0.000    0.000    0.000    0.000 
#
# Total GULP energy -595224.571625 kJ/mol
# GULP energy per Si atom -12400.511909 kJ/mol
# Density = 1.708766 g / cm^3
# Si number density = 17.126644 Si / 1000 Ang^3
#
#
#
# Elastic Constant Matrix: (Units=GPa)
#
#
# Indices 1 2 3 4 5 6 
#
# 1 47.9349 40.4339 53.4248 0.0000 0.0000 0.0000
# 2 40.4339 122.1402 61.5889 0.0000 0.0000 0.0000
# 3 53.4248 61.5889 137.1788 0.0000 0.0000 0.0000
# 4 0.0000 0.0000 0.0000 29.0363 0.0000 0.0000
# 5 0.0000 0.0000 0.0000 0.0000 24.9991 0.0000
# 6 0.0000 0.0000 0.0000 0.0000 0.0000 18.8460
#
#
#
# Elastic Compliance Matrix: (Units=1/GPa)
#
#
# Indices 1 2 3 4 5 6 
#
# 1 0.041211 -0.007174 -0.012829 0.000000 0.000000 0.000000
# 2 -0.007174 0.011832 -0.002518 0.000000 0.000000 0.000000
# 3 -0.012829 -0.002518 0.013417 0.000000 0.000000 0.000000
# 4 0.000000 0.000000 0.000000 0.034440 0.000000 0.000000
# 5 0.000000 0.000000 0.000000 0.000000 0.040001 0.000000
# 6 0.000000 0.000000 0.000000 0.000000 0.000000 0.053062
#
#
# Mechanical properties :
#
#
# Convention : Reuss Voigt Hill
#
# Bulk Modulus (GPa) = 46.69051 68.68324 57.68687
# Shear Modulus (GPa) = 20.31328 24.69670 22.50499
#
# Velocity S-wave (km/s) = 3.44766 3.80149 3.62889
# Velocity P-wave (km/s) = 6.57036 7.71095 7.16339
#
# Compressibility (1/GPa) = 0.02141763
#
# Stress axis : x y z
#
# Youngs Moduli (GPa) = 24.26522 84.51638 74.53361
#
# Poissons Ratio (x) = 0.60630 0.95620
# Poissons Ratio (y) = 0.17407 0.18770
# Poissons Ratio (z) = 0.31130 0.21284
#
# Static dielectric constant tensor:
#      x y z
#    x 3.053480 0.000000 0.000000 
#    y 0.000000 3.399480 0.000000 
#    z 0.000000 0.000000 3.383600 
# 
# 
# High freq. dielectric constant tensor:
#      x y z
#    x 1.641230 0.000000 0.000000 
#    y 0.000000 1.669220 0.000000 
#    z 0.000000 0.000000 1.654890 
# 
# From -- ./inp_files/51364.got.cif
#   From: 2010.03.12/outbox.cif.g09.slc.cpg/sg63_26_cif.got.tgz:51364.got - 2010.04.10 19:34:48.
