data_PCOD8256127
_publ_section_title
;
Structure prediction by ZEFSAII (Michael W. Deem and Ramdas Pophale) SiO2 
 PCOD8256127
Probable space group: C M C M
;
_chemical_formula_sum "Si O2"
_cell_formula_units_Z 112
_cell_length_a 14.231168
_cell_length_b 16.983952
_cell_length_c 26.864541
_cell_angle_alpha 90.000000
_cell_angle_beta 90.000000
_cell_angle_gamma 90.000000
_cell_volume 6493.199164
_symmetry_space_group_name_H-M "C M C M"
_symmetry_group_IT_number 63
_symmetry_cell_setting 'orthorhombic'
loop_
_space_group_symop_operation_xyz
x,y,z
-x,-y,1/2+z
x,-y,-z
-x,y,1/2-z
-x,-y,-z
x,y,1/2-z
-x,y,z
x,-y,1/2+z
1/2+x,1/2+y,z
1/2-x,1/2-y,1/2+z
1/2+x,1/2-y,-z
1/2-x,1/2+y,1/2-z
1/2-x,1/2-y,-z
1/2+x,1/2+y,1/2-z
1/2-x,1/2+y,z
1/2+x,1/2-y,1/2+z
loop_
_atom_site_type_symbol
_atom_site_label
_atom_site_fract_x
_atom_site_fract_y
_atom_site_fract_z
Si Si1 0.389187 0.583057 0.192590
Si Si2 0.893806 0.766717 0.370864
Si Si3 0.780462 0.588105 0.007130
Si Si4 0.727983 0.329259 0.890692
Si Si5 0.099901 0.851412 0.029041
Si Si6 0.394672 0.780100 0.449946
Si Si7 0.611419 0.407083 0.195738
O O1 0.364824 0.606692 0.250000
O O2 0.500000 0.592312 0.183801
O O3 0.336982 0.634045 0.151521
O O4 0.353794 0.494250 0.181917
O O5 0.825848 0.692426 0.362995
O O6 0.889314 0.786462 0.428686
O O7 0.851713 0.842559 0.342606
O O8 0.000000 0.745358 0.353403
O O9 0.754469 0.611264 0.063983
O O10 0.822109 0.500000 0.000000
O O11 0.685386 0.587580 0.973628
O O12 0.854229 0.649509 0.983760
O O13 0.677782 0.246270 0.906655
O O14 0.000000 0.897345 0.035836
O O15 0.097890 0.801263 0.979194
O O16 0.500000 0.803775 0.431008
O O17 0.649625 0.383058 0.250000
O O18 0.500000 0.408999 0.195731
#
# Coordination Sequence:
#
# PCOD8256127 Si02
#       7
#    16  16  16  16  16  16  16
#     4   9  19  35  53  77 106 131 159 200 251 301
#     4  10  18  30  52  73  98 133 167 206 254 299
#     4  11  22  33  47  72 102 132 170 212 250 303
#     4  11  20  33  53  74 100 133 173 209 248 297
#     4   9  17  32  49  67  95 126 157 201 251 294
#     4  10  19  35  51  67  95 134 174 208 245 291
#     4   8  16  31  50  73 100 126 156 200 254 307
#
# _framework density 17.248816999999999
#
# number of rings (size 3 to 8) (size 9 to 14) (size 15 to 20)
#    0.000    2.286    2.857    2.143    2.000    1.714 
#    0.000    0.000    0.000    0.000    0.000    0.000 
#    0.000    2.286    0.000    0.000    0.000    0.000 
#
# Total GULP energy -693757.331166 kJ/mol
# GULP energy per Si atom -12388.523771 kJ/mol
# Density = 1.720956 g / cm^3
# Si number density = 17.248817 Si / 1000 Ang^3
#
#
#
# Elastic Constant Matrix: (Units=GPa)
#
#
# Indices 1 2 3 4 5 6 
#
# 1 81.8743 35.2646 35.1213 0.0000 0.0000 0.0000
# 2 35.2646 77.8430 38.7011 0.0000 0.0000 0.0000
# 3 35.1213 38.7011 68.6822 0.0000 0.0000 0.0000
# 4 0.0000 0.0000 0.0000 19.2927 0.0000 0.0000
# 5 0.0000 0.0000 0.0000 0.0000 21.6749 0.0000
# 6 0.0000 0.0000 0.0000 0.0000 0.0000 18.6877
#
#
#
# Elastic Compliance Matrix: (Units=1/GPa)
#
#
# Indices 1 2 3 4 5 6 
#
# 1 0.016767 -0.004630 -0.005965 0.000000 0.000000 0.000000
# 2 -0.004630 0.019124 -0.008409 0.000000 0.000000 0.000000
# 3 -0.005965 -0.008409 0.022348 0.000000 0.000000 0.000000
# 4 0.000000 0.000000 0.000000 0.051833 0.000000 0.000000
# 5 0.000000 0.000000 0.000000 0.000000 0.046136 0.000000
# 6 0.000000 0.000000 0.000000 0.000000 0.000000 0.053511
#
#
# Mechanical properties :
#
#
# Convention : Reuss Voigt Hill
#
# Bulk Modulus (GPa) = 49.42638 49.61927 49.52282
# Shear Modulus (GPa) = 19.64860 19.88523 19.76691
#
# Velocity S-wave (km/s) = 3.37876 3.39904 3.38892
# Velocity P-wave (km/s) = 6.62861 6.65085 6.63974
#
# Compressibility (1/GPa) = 0.02023211
#
# Stress axis : x y z
#
# Youngs Moduli (GPa) = 59.64132 52.28915 44.74662
#
# Poissons Ratio (x) = 0.24211 0.26691
# Poissons Ratio (y) = 0.27615 0.37625
# Poissons Ratio (z) = 0.35575 0.43967
#
# Static dielectric constant tensor:
#      x y z
#    x 3.399490 0.000000 0.000000 
#    y 0.000000 3.054620 0.000000 
#    z 0.000000 0.000000 3.275490 
# 
# 
# High freq. dielectric constant tensor:
#      x y z
#    x 1.658780 0.000000 0.000000 
#    y 0.000000 1.643590 0.000000 
#    z 0.000000 0.000000 1.656110 
# 
# From -- ./inp_files/69390.got.cif
#   From: 2010.03.12/outbox.cif.g09.slc.cpg/sg63_35_cif.got.tgz:69390.got - 2010.04.10 19:34:48.
