data_PCOD8256337
_publ_section_title
;
Structure prediction by ZEFSAII (Michael W. Deem and Ramdas Pophale) SiO2 
 PCOD8256337
Probable space group: C M C M
;
_chemical_formula_sum "Si O2"
_cell_formula_units_Z 128
_cell_length_a 22.275484
_cell_length_b 20.275206
_cell_length_c 15.815545
_cell_angle_alpha 90.000000
_cell_angle_beta 90.000000
_cell_angle_gamma 90.000000
_cell_volume 7142.933168
_symmetry_space_group_name_H-M "C M C M"
_symmetry_group_IT_number 63
_symmetry_cell_setting 'orthorhombic'
loop_
_space_group_symop_operation_xyz
x,y,z
-x,-y,1/2+z
x,-y,-z
-x,y,1/2-z
-x,-y,-z
x,y,1/2-z
-x,y,z
x,-y,1/2+z
1/2+x,1/2+y,z
1/2-x,1/2-y,1/2+z
1/2+x,1/2-y,-z
1/2-x,1/2+y,1/2-z
1/2-x,1/2-y,-z
1/2+x,1/2+y,1/2-z
1/2-x,1/2+y,z
1/2+x,1/2-y,1/2+z
loop_
_atom_site_type_symbol
_atom_site_label
_atom_site_fract_x
_atom_site_fract_y
_atom_site_fract_z
Si Si1 0.433348 0.748585 0.456999
Si Si2 0.183063 0.942930 0.848787
Si Si3 0.935120 0.879389 0.651996
Si Si4 0.168249 0.429944 0.455669
Si Si5 0.767551 0.661290 0.072350
Si Si6 0.675469 0.708219 0.932689
Si Si7 0.570292 0.125054 0.650792
Si Si8 0.782905 0.084082 0.848919
O O1 0.500000 0.763061 0.494621
O O2 0.436805 0.690143 0.391607
O O3 0.389900 0.730971 0.535006
O O4 0.410872 0.808603 0.398363
O O5 0.176412 0.951613 0.750000
O O6 0.119306 0.920903 0.888287
O O7 0.236935 0.891008 0.864437
O O8 0.193630 0.015115 0.888559
O O9 0.922456 0.865953 0.750000
O O10 0.000000 0.915357 0.639145
O O11 0.178125 0.500000 0.500000
O O12 0.175175 0.374277 0.528264
O O13 0.106031 0.430883 0.402596
O O14 0.217891 0.407173 0.388491
O O15 0.794014 0.728289 0.114556
O O16 0.714872 0.684487 0.010972
O O17 0.672500 0.645430 0.869811
O O18 0.589183 0.127975 0.750000
O O19 0.500000 0.109393 0.643537
O O20 0.775077 0.079242 0.750000
#
# Coordination Sequence:
#
# PCOD8256337 Si02
#       8
#    16  16  16  16  16  16  16  16
#     4  10  18  32  52  77 106 138 178 220 268 325
#     4  10  19  33  52  75 106 141 179 218 269 328
#     4   9  17  29  48  74 105 138 172 216 267 319
#     4  11  20  34  57  79 109 145 178 224 274 328
#     4  10  19  34  50  78 104 139 176 217 269 326
#     4  10  20  33  53  74 108 135 175 225 272 325
#     4  10  21  36  55  81 113 145 180 226 279 333
#     4  10  22  36  53  79 109 144 182 226 278 327
#
# _framework density 17.919809999999998
#
# number of rings (size 3 to 8) (size 9 to 14) (size 15 to 20)
#    0.000    2.000    3.750    0.750    0.000    2.250 
#    0.000    0.625    0.000    2.625    0.000    0.000 
#    0.000    0.000    0.000    0.000    0.000    0.000 
#
# Total GULP energy -792858.281406 kJ/mol
# GULP energy per Si atom -12388.410647 kJ/mol
# Density = 1.787902 g / cm^3
# Si number density = 17.919810 Si / 1000 Ang^3
#
#
#
# Elastic Constant Matrix: (Units=GPa)
#
#
# Indices 1 2 3 4 5 6 
#
# 1 85.3737 32.8061 27.5873 0.0000 0.0000 0.0000
# 2 32.8061 105.7933 25.8035 0.0000 0.0000 0.0000
# 3 27.5873 25.8035 39.3174 0.0000 0.0000 0.0000
# 4 0.0000 0.0000 0.0000 25.8328 0.0000 0.0000
# 5 0.0000 0.0000 0.0000 0.0000 24.7879 0.0000
# 6 0.0000 0.0000 0.0000 0.0000 0.0000 23.7373
#
#
#
# Elastic Compliance Matrix: (Units=1/GPa)
#
#
# Indices 1 2 3 4 5 6 
#
# 1 0.015727 -0.002602 -0.009327 0.000000 0.000000 0.000000
# 2 -0.002602 0.011684 -0.005843 0.000000 0.000000 0.000000
# 3 -0.009327 -0.005843 0.035813 0.000000 0.000000 0.000000
# 4 0.000000 0.000000 0.000000 0.038710 0.000000 0.000000
# 5 0.000000 0.000000 0.000000 0.000000 0.040342 0.000000
# 6 0.000000 0.000000 0.000000 0.000000 0.000000 0.042128
#
#
# Mechanical properties :
#
#
# Convention : Reuss Voigt Hill
#
# Bulk Modulus (GPa) = 36.12635 44.76424 40.44530
# Shear Modulus (GPa) = 21.81732 24.49076 23.15404
#
# Velocity S-wave (km/s) = 3.49305 3.70088 3.59847
# Velocity P-wave (km/s) = 6.03923 6.58001 6.31541
#
# Compressibility (1/GPa) = 0.02768063
#
# Stress axis : x y z
#
# Youngs Moduli (GPa) = 63.58470 85.58517 27.92271
#
# Poissons Ratio (x) = 0.22268 0.26045
# Poissons Ratio (y) = 0.16544 0.16314
# Poissons Ratio (z) = 0.59308 0.50004
#
# Static dielectric constant tensor:
#      x y z
#    x 3.614380 0.000000 0.000000 
#    y 0.000000 3.661880 0.000000 
#    z 0.000000 0.000000 3.062640 
# 
# 
# High freq. dielectric constant tensor:
#      x y z
#    x 1.690300 0.000000 0.000000 
#    y 0.000000 1.698800 0.000000 
#    z 0.000000 0.000000 1.665400 
# 
# From -- ./inp_files/48427.got.cif
#   From: 2010.03.12/outbox.cif.g09.slc.cpg/sg63_25_cif.got.tgz:48427.got - 2010.04.10 19:34:48.
