data_PCOD8256125
_publ_section_title
;
Structure prediction by ZEFSAII (Michael W. Deem and Ramdas Pophale) SiO2 
 PCOD8256125
Probable space group: C M C M
;
_chemical_formula_sum "Si O2"
_cell_formula_units_Z 96
_cell_length_a 22.109306
_cell_length_b 12.468907
_cell_length_c 18.778128
_cell_angle_alpha 90.000000
_cell_angle_beta 90.000000
_cell_angle_gamma 90.000000
_cell_volume 5176.733302
_symmetry_space_group_name_H-M "C M C M"
_symmetry_group_IT_number 63
_symmetry_cell_setting 'orthorhombic'
loop_
_space_group_symop_operation_xyz
x,y,z
-x,-y,1/2+z
x,-y,-z
-x,y,1/2-z
-x,-y,-z
x,y,1/2-z
-x,y,z
x,-y,1/2+z
1/2+x,1/2+y,z
1/2-x,1/2-y,1/2+z
1/2+x,1/2-y,-z
1/2-x,1/2+y,1/2-z
1/2-x,1/2-y,-z
1/2+x,1/2+y,1/2-z
1/2-x,1/2+y,z
1/2+x,1/2-y,1/2+z
loop_
_atom_site_type_symbol
_atom_site_label
_atom_site_fract_x
_atom_site_fract_y
_atom_site_fract_z
Si Si1 0.126858 0.827448 0.669692
Si Si2 0.304029 0.249576 0.415952
Si Si3 0.303834 0.389875 0.539605
Si Si4 0.207839 0.379027 0.330325
Si Si5 0.371685 0.078982 0.165475
Si Si6 0.000000 0.507971 0.834864
Si Si7 0.000000 0.746137 0.666430
O O1 0.132696 0.875625 0.750000
O O2 0.158310 0.905449 0.612517
O O3 0.156265 0.710601 0.667294
O O4 0.057928 0.815581 0.644474
O O5 0.335073 0.304236 0.485173
O O6 0.262319 0.152229 0.441505
O O7 0.265311 0.343060 0.376851
O O8 0.354392 0.195740 0.365731
O O9 0.297179 0.500000 0.500000
O O10 0.231255 0.395631 0.250000
O O11 0.176922 0.488332 0.359135
O O12 0.370315 0.087280 0.250000
O O13 0.439275 0.051610 0.138064
O O14 0.000000 0.511868 0.750000
O O15 0.000000 0.627741 0.868302
O O16 0.000000 0.726321 0.750000
#
# Coordination Sequence:
#
# PCOD8256125 Si02
#       7
#    16  16  16  16  16   8   8
#     4   9  17  31  54  78  98 126 174 221 257 303
#     4  10  20  33  51  74 103 144 176 214 266 322
#     4  10  21  37  52  72 103 140 173 215 270 317
#     4   9  16  28  49  77 105 136 177 220 253 298
#     4  10  18  30  51  81 115 143 175 217 262 315
#     4   9  16  28  51  81 112 146 173 212 269 311
#     4   9  14  28  54  81 103 128 172 226 265 293
#
# _framework density 18.544513999999999
#
# number of rings (size 3 to 8) (size 9 to 14) (size 15 to 20)
#    0.000    2.500    1.667    1.500    0.000    0.667 
#    0.000    2.917    0.000    2.000    0.000    3.500 
#    0.000    0.000    0.000    0.000    0.000    0.000 
#
# Total GULP energy -594925.380259 kJ/mol
# GULP energy per Si atom -12394.278755 kJ/mol
# Density = 1.850231 g / cm^3
# Si number density = 18.544514 Si / 1000 Ang^3
#
#
#
# Elastic Constant Matrix: (Units=GPa)
#
#
# Indices 1 2 3 4 5 6 
#
# 1 74.7307 41.8340 43.0193 0.0000 0.0000 0.0000
# 2 41.8340 53.6869 36.2153 0.0000 0.0000 0.0000
# 3 43.0193 36.2153 83.0701 0.0000 0.0000 0.0000
# 4 0.0000 0.0000 0.0000 34.4342 0.0000 0.0000
# 5 0.0000 0.0000 0.0000 0.0000 13.7935 0.0000
# 6 0.0000 0.0000 0.0000 0.0000 0.0000 9.1198
#
#
#
# Elastic Compliance Matrix: (Units=1/GPa)
#
#
# Indices 1 2 3 4 5 6 
#
# 1 0.026043 -0.015860 -0.006573 0.000000 0.000000 0.000000
# 2 -0.015860 0.036044 -0.007501 0.000000 0.000000 0.000000
# 3 -0.006573 -0.007501 0.018712 0.000000 0.000000 0.000000
# 4 0.000000 0.000000 0.000000 0.029041 0.000000 0.000000
# 5 0.000000 0.000000 0.000000 0.000000 0.072498 0.000000
# 6 0.000000 0.000000 0.000000 0.000000 0.000000 0.109652
#
#
# Mechanical properties :
#
#
# Convention : Reuss Voigt Hill
#
# Bulk Modulus (GPa) = 47.77100 50.40274 49.08687
# Shear Modulus (GPa) = 13.93400 17.49744 15.71572
#
# Velocity S-wave (km/s) = 2.74411 3.07504 2.91427
# Velocity P-wave (km/s) = 5.98801 6.31238 6.15233
#
# Compressibility (1/GPa) = 0.02093320
#
# Stress axis : x y z
#
# Youngs Moduli (GPa) = 38.39766 27.74351 53.44207
#
# Poissons Ratio (x) = 0.44000 0.35126
# Poissons Ratio (y) = 0.60898 0.40085
# Poissons Ratio (z) = 0.25238 0.20810
#
# Static dielectric constant tensor:
#      x y z
#    x 3.569740 0.000000 0.000000 
#    y 0.000000 3.180090 0.000000 
#    z 0.000000 0.000000 3.577090 
# 
# 
# High freq. dielectric constant tensor:
#      x y z
#    x 1.698300 0.000000 0.000000 
#    y 0.000000 1.701710 0.000000 
#    z 0.000000 0.000000 1.712340 
# 
# From -- ./inp_files/48087.got.cif
#   From: 2010.03.12/outbox.cif.g09.slc.cpg/sg63_25_cif.got.tgz:48087.got - 2010.04.10 19:34:48.
