data_PCOD8256908
_publ_section_title
;
Structure prediction by ZEFSAII (Michael W. Deem and Ramdas Pophale) SiO2 
 PCOD8256908
Probable space group: C M C M
;
_chemical_formula_sum "Si O2"
_cell_formula_units_Z 96
_cell_length_a 8.714394
_cell_length_b 27.351030
_cell_length_c 23.896155
_cell_angle_alpha 90.000000
_cell_angle_beta 90.000000
_cell_angle_gamma 90.000000
_cell_volume 5695.592430
_symmetry_space_group_name_H-M "C M C M"
_symmetry_group_IT_number 63
_symmetry_cell_setting 'orthorhombic'
loop_
_space_group_symop_operation_xyz
x,y,z
-x,-y,1/2+z
x,-y,-z
-x,y,1/2-z
-x,-y,-z
x,y,1/2-z
-x,y,z
x,-y,1/2+z
1/2+x,1/2+y,z
1/2-x,1/2-y,1/2+z
1/2+x,1/2-y,-z
1/2-x,1/2+y,1/2-z
1/2-x,1/2-y,-z
1/2+x,1/2+y,1/2-z
1/2-x,1/2+y,z
1/2+x,1/2-y,1/2+z
loop_
_atom_site_type_symbol
_atom_site_label
_atom_site_fract_x
_atom_site_fract_y
_atom_site_fract_z
Si Si1 0.180198 0.676638 0.811651
Si Si2 0.180147 0.571048 0.019216
Si Si3 0.177552 0.826802 0.520016
Si Si4 0.678407 0.229250 0.579369
Si Si5 0.180071 0.925806 0.187350
Si Si6 0.681065 0.485169 0.081558
O O1 0.245213 0.691057 0.750000
O O2 0.225397 0.718323 0.856441
O O3 0.245561 0.624926 0.831771
O O4 0.000000 0.670575 0.808659
O O5 0.232064 0.535940 0.069934
O O6 0.000000 0.565609 0.009289
O O7 0.221611 0.626274 0.035423
O O8 0.268182 0.555994 0.962742
O O9 0.220867 0.805748 0.459526
O O10 0.213564 0.785987 0.567121
O O11 0.000000 0.841774 0.519624
O O12 0.500000 0.217401 0.567700
O O13 0.234240 0.940919 0.250000
O O14 0.228902 0.967852 0.143729
O O15 0.000000 0.917596 0.185365
O O16 0.500000 0.493510 0.076026
#
# Coordination Sequence:
#
# PCOD8256908 Si02
#       6
#    16  16  16  16  16  16
#     4   9  17  29  46  68  93 120 149 182 222 268
#     4  11  21  32  47  68  95 123 153 190 230 273
#     4  10  19  31  47  67  92 122 154 188 228 272
#     4   9  18  31  47  68  93 120 151 188 227 268
#     4   9  18  31  47  69  95 121 149 183 224 270
#     4  10  19  32  50  70  93 121 153 188 227 273
#
# _framework density 16.855138
#
# number of rings (size 3 to 8) (size 9 to 14) (size 15 to 20)
#    0.000    2.333    0.000    4.500    0.000    5.333 
#    0.000    0.000    0.000    1.000    0.000    4.667 
#    0.000    0.000    0.000    0.000    0.000    0.000 
#
# Total GULP energy -595171.053816 kJ/mol
# GULP energy per Si atom -12399.396955 kJ/mol
# Density = 1.681678 g / cm^3
# Si number density = 16.855138 Si / 1000 Ang^3
#
#
#
# Elastic Constant Matrix: (Units=GPa)
#
#
# Indices 1 2 3 4 5 6 
#
# 1 38.9986 26.3384 20.7744 0.0000 0.0000 0.0000
# 2 26.3384 108.3693 58.1019 0.0000 0.0000 0.0000
# 3 20.7744 58.1019 108.4296 0.0000 0.0000 0.0000
# 4 0.0000 0.0000 0.0000 22.5062 0.0000 0.0000
# 5 0.0000 0.0000 0.0000 0.0000 17.0275 0.0000
# 6 0.0000 0.0000 0.0000 0.0000 0.0000 27.9871
#
#
#
# Elastic Compliance Matrix: (Units=1/GPa)
#
#
# Indices 1 2 3 4 5 6 
#
# 1 0.031226 -0.006148 -0.002688 0.000000 0.000000 0.000000
# 2 -0.006148 0.014158 -0.006409 0.000000 0.000000 0.000000
# 3 -0.002688 -0.006409 0.013172 0.000000 0.000000 0.000000
# 4 0.000000 0.000000 0.000000 0.044432 0.000000 0.000000
# 5 0.000000 0.000000 0.000000 0.000000 0.058729 0.000000
# 6 0.000000 0.000000 0.000000 0.000000 0.000000 0.035731
#
#
# Mechanical properties :
#
#
# Convention : Reuss Voigt Hill
#
# Bulk Modulus (GPa) = 35.63036 51.80297 43.71666
# Shear Modulus (GPa) = 21.07107 23.54302 22.30705
#
# Velocity S-wave (km/s) = 3.53955 3.74141 3.64188
# Velocity P-wave (km/s) = 6.15545 7.03315 6.60889
#
# Compressibility (1/GPa) = 0.02806596
#
# Stress axis : x y z
#
# Youngs Moduli (GPa) = 32.02445 70.63221 75.92054
#
# Poissons Ratio (x) = 0.43424 0.20410
# Poissons Ratio (y) = 0.19688 0.48654
# Poissons Ratio (z) = 0.08609 0.45265
#
# Static dielectric constant tensor:
#      x y z
#    x 3.183290 0.000000 0.000000 
#    y 0.000000 3.174880 0.000000 
#    z 0.000000 0.000000 3.402890 
# 
# 
# High freq. dielectric constant tensor:
#      x y z
#    x 1.656120 0.000000 0.000000 
#    y 0.000000 1.638010 0.000000 
#    z 0.000000 0.000000 1.640820 
# 
# From -- ./inp_files/60251.got.cif
#   From: 2010.03.12/outbox.cif.g09.slc.cpg/sg63_31_cif.got.tgz:60251.got - 2010.04.10 19:34:48.
