data_PCOD8256699
_publ_section_title
;
Structure prediction by ZEFSAII (Michael W. Deem and Ramdas Pophale) SiO2 
 PCOD8256699
Probable space group: C M C M
;
_chemical_formula_sum "Si O2"
_cell_formula_units_Z 64
_cell_length_a 7.525384
_cell_length_b 13.970957
_cell_length_c 31.998521
_cell_angle_alpha 90.000000
_cell_angle_beta 90.000000
_cell_angle_gamma 90.000000
_cell_volume 3364.222623
_symmetry_space_group_name_H-M "C M C M"
_symmetry_group_IT_number 63
_symmetry_cell_setting 'orthorhombic'
loop_
_space_group_symop_operation_xyz
x,y,z
-x,-y,1/2+z
x,-y,-z
-x,y,1/2-z
-x,-y,-z
x,y,1/2-z
-x,y,z
x,-y,1/2+z
1/2+x,1/2+y,z
1/2-x,1/2-y,1/2+z
1/2+x,1/2-y,-z
1/2-x,1/2+y,1/2-z
1/2-x,1/2-y,-z
1/2+x,1/2+y,1/2-z
1/2-x,1/2+y,z
1/2+x,1/2-y,1/2+z
loop_
_atom_site_type_symbol
_atom_site_label
_atom_site_fract_x
_atom_site_fract_y
_atom_site_fract_z
Si Si1 0.202530 0.241152 0.818423
Si Si2 0.000000 0.892795 0.449672
Si Si3 0.500000 0.388480 0.548661
Si Si4 0.787030 0.898929 0.250000
Si Si5 0.198339 0.266565 0.909763
Si Si6 0.210246 0.113448 0.250000
O O1 0.289112 0.155267 0.791180
O O2 0.290662 0.253103 0.864054
O O3 0.216742 0.338439 0.791965
O O4 0.000000 0.214572 0.827440
O O5 0.000000 0.887561 0.499160
O O6 0.176009 0.837774 0.432011
O O7 0.000000 0.002620 0.434101
O O8 0.677174 0.335472 0.563620
O O9 0.000000 0.891311 0.250000
O O10 0.715500 0.005967 0.250000
O O11 0.000000 0.314119 0.906315
O O12 0.000000 0.116024 0.250000
#
# Coordination Sequence:
#
# PCOD8256699 Si02
#       6
#    16   8   8   8  16   8
#     4   9  18  36  52  70 108 145 177 225 279 329
#     4   9  22  40  59  94 115 150 201 232 290 363
#     4  11  20  40  65  84 121 154 187 246 292 339
#     4   8  16  31  52  71 104 145 173 222 278 321
#     4   9  21  38  59  87 119 153 192 240 288 348
#     4  10  19  29  52  81 100 139 189 220 268 336
#
# _framework density 19.023710999999999
#
# number of rings (size 3 to 8) (size 9 to 14) (size 15 to 20)
#    0.750    2.000    0.000    1.875    1.750    2.000 
#    2.250    6.250    0.000    0.000    0.000    0.000 
#    0.000    0.000    0.000    0.000    0.000    0.000 
#
# Total GULP energy -396522.132741 kJ/mol
# GULP energy per Si atom -12391.316648 kJ/mol
# Density = 1.898041 g / cm^3
# Si number density = 19.023711 Si / 1000 Ang^3
#
#
#
# Elastic Constant Matrix: (Units=GPa)
#
#
# Indices 1 2 3 4 5 6 
#
# 1 55.2975 28.5348 21.1313 0.0000 0.0000 0.0000
# 2 28.5348 173.1610 65.1901 0.0000 0.0000 0.0000
# 3 21.1313 65.1901 125.9936 0.0000 0.0000 0.0000
# 4 0.0000 0.0000 0.0000 48.4823 0.0000 0.0000
# 5 0.0000 0.0000 0.0000 0.0000 -2.2214 0.0000
# 6 0.0000 0.0000 0.0000 0.0000 0.0000 27.6864
#
#
#
# Elastic Compliance Matrix: (Units=1/GPa)
#
#
# Indices 1 2 3 4 5 6 
#
# 1 0.020189 -0.002549 -0.002067 0.000000 0.000000 0.000000
# 2 -0.002549 0.007494 -0.003450 0.000000 0.000000 0.000000
# 3 -0.002067 -0.003450 0.010069 0.000000 0.000000 0.000000
# 4 0.000000 0.000000 0.000000 0.020626 0.000000 0.000000
# 5 0.000000 0.000000 0.000000 0.000000 -0.450162 0.000000
# 6 0.000000 0.000000 0.000000 0.000000 0.000000 0.036119
#
#
# Mechanical properties :
#
#
# Convention : Reuss Voigt Hill
#
# Bulk Modulus (GPa) = 46.25393 64.90717 55.58055
# Shear Modulus (GPa) = -15.04541 30.76252 7.85856
#
# Velocity S-wave (km/s) = -2.81530 4.02563 2.03467
# Velocity P-wave (km/s) = 3.71466 7.46999 5.89913
#
# Compressibility (1/GPa) = 0.02161978
#
# Stress axis : x y z
#
# Youngs Moduli (GPa) = 49.53148 133.44498 99.31828
#
# Poissons Ratio (x) = 0.34010 0.20533
# Poissons Ratio (y) = 0.12624 0.34263
# Poissons Ratio (z) = 0.10240 0.46037
#
# Static dielectric constant tensor:
#      x y z
#    x 3.185980 0.000000 0.000000 
#    y 0.000000 3.530890 0.000000 
#    z 0.000000 0.000000 3.611240 
# 
# 
# High freq. dielectric constant tensor:
#      x y z
#    x 1.718210 0.000000 0.000000 
#    y 0.000000 1.729520 0.000000 
#    z 0.000000 0.000000 1.750690 
# 
# From -- ./inp_files/71449.got.cif
#   From: 2010.03.12/outbox.cif.g09.slc.cpg/sg63_36_cif.got.tgz:71449.got - 2010.04.10 19:34:48.
