data_PCOD8256417
_publ_section_title
;
Structure prediction by ZEFSAII (Michael W. Deem and Ramdas Pophale) SiO2 
 PCOD8256417
Probable space group: C M C M
;
_chemical_formula_sum "Si O2"
_cell_formula_units_Z 96
_cell_length_a 21.558416
_cell_length_b 12.316941
_cell_length_c 18.238867
_cell_angle_alpha 90.000000
_cell_angle_beta 90.000000
_cell_angle_gamma 90.000000
_cell_volume 4843.034530
_symmetry_space_group_name_H-M "C M C M"
_symmetry_group_IT_number 63
_symmetry_cell_setting 'orthorhombic'
loop_
_space_group_symop_operation_xyz
x,y,z
-x,-y,1/2+z
x,-y,-z
-x,y,1/2-z
-x,-y,-z
x,y,1/2-z
-x,y,z
x,-y,1/2+z
1/2+x,1/2+y,z
1/2-x,1/2-y,1/2+z
1/2+x,1/2-y,-z
1/2-x,1/2+y,1/2-z
1/2-x,1/2-y,-z
1/2+x,1/2+y,1/2-z
1/2-x,1/2+y,z
1/2+x,1/2-y,1/2+z
loop_
_atom_site_type_symbol
_atom_site_label
_atom_site_fract_x
_atom_site_fract_y
_atom_site_fract_z
Si Si1 0.672408 0.234541 0.917941
Si Si2 0.000000 0.265938 0.668688
Si Si3 0.072563 0.121632 0.337141
Si Si4 0.384067 0.387711 0.332860
Si Si5 0.365742 0.993596 0.087557
Si Si6 0.500000 0.978754 0.914621
Si Si7 0.689500 0.782647 0.913202
O O1 0.613859 0.291831 0.880475
O O2 0.736675 0.296153 0.902791
O O3 0.674702 0.110219 0.887625
O O4 0.663839 0.230917 0.005036
O O5 0.941296 0.191296 0.659108
O O6 0.000000 0.320803 0.750000
O O7 0.000000 0.350937 0.602796
O O8 0.081546 0.134935 0.250000
O O9 0.000000 0.136302 0.357769
O O10 0.096637 0.004424 0.365198
O O11 0.362813 0.404281 0.250000
O O12 0.327505 0.329766 0.373718
O O13 0.436012 0.973029 0.118065
O O14 0.339167 0.106402 0.121133
O O15 0.365397 0.000000 0.000000
O O16 0.500000 0.000000 0.000000
#
# Coordination Sequence:
#
# PCOD8256417 Si02
#       7
#    16   8  16  16  16   8  16
#     4  10  23  38  60  85 119 158 193 239 300 356
#     4  10  18  34  57  87 118 150 198 245 290 345
#     4  10  22  42  62  85 120 159 197 246 305 358
#     4  10  20  37  61  86 117 155 197 246 297 347
#     4   9  19  35  54  83 113 149 186 231 291 340
#     4  10  18  32  57  80 116 153 188 238 292 345
#     4  10  21  39  60  86 118 152 198 247 287 349
#
# _framework density 19.822282999999999
#
# number of rings (size 3 to 8) (size 9 to 14) (size 15 to 20)
#    0.000    2.167    2.500    0.000    3.500    1.333 
#    3.000    2.500    0.000    0.000    0.000    0.000 
#    0.000    0.000    0.000    0.000    0.000    0.000 
#
# Total GULP energy -594808.986863 kJ/mol
# GULP energy per Si atom -12391.853893 kJ/mol
# Density = 1.977717 g / cm^3
# Si number density = 19.822283 Si / 1000 Ang^3
#
#
#
# Elastic Constant Matrix: (Units=GPa)
#
#
# Indices 1 2 3 4 5 6 
#
# 1 108.4210 63.1268 36.1849 0.0000 0.0000 0.0000
# 2 63.1268 131.6648 40.6495 0.0000 0.0000 0.0000
# 3 36.1849 40.6495 39.0242 0.0000 0.0000 0.0000
# 4 0.0000 0.0000 0.0000 29.8818 0.0000 0.0000
# 5 0.0000 0.0000 0.0000 0.0000 24.6589 0.0000
# 6 0.0000 0.0000 0.0000 0.0000 0.0000 102.2576
#
#
#
# Elastic Compliance Matrix: (Units=1/GPa)
#
#
# Indices 1 2 3 4 5 6 
#
# 1 0.014787 -0.004211 -0.009325 0.000000 0.000000 0.000000
# 2 -0.004211 0.012394 -0.009006 0.000000 0.000000 0.000000
# 3 -0.009325 -0.009006 0.043653 0.000000 0.000000 0.000000
# 4 0.000000 0.000000 0.000000 0.033465 0.000000 0.000000
# 5 0.000000 0.000000 0.000000 0.000000 0.040553 0.000000
# 6 0.000000 0.000000 0.000000 0.000000 0.000000 0.009779
#
#
# Mechanical properties :
#
#
# Convention : Reuss Voigt Hill
#
# Bulk Modulus (GPa) = 38.83432 62.11472 50.47452
# Shear Modulus (GPa) = 24.00379 40.63625 32.32002
#
# Velocity S-wave (km/s) = 3.48365 4.53264 4.04231
# Velocity P-wave (km/s) = 5.98455 7.66791 6.87793
#
# Compressibility (1/GPa) = 0.02575042
#
# Stress axis : x y z
#
# Youngs Moduli (GPa) = 67.62616 80.68143 22.90783
#
# Poissons Ratio (x) = 0.33973 0.21362
# Poissons Ratio (y) = 0.28475 0.20631
# Poissons Ratio (z) = 0.63063 0.72664
#
# Static dielectric constant tensor:
#      x y z
#    x 3.745240 0.000000 0.000000 
#    y 0.000000 3.797010 0.000000 
#    z 0.000000 0.000000 3.364160 
# 
# 
# High freq. dielectric constant tensor:
#      x y z
#    x 1.783430 0.000000 0.000000 
#    y 0.000000 1.781340 0.000000 
#    z 0.000000 0.000000 1.734880 
# 
# From -- ./inp_files/57534.got.cif
#   From: 2010.03.12/outbox.cif.g09.slc.cpg/sg63_29_cif.got.tgz:57534.got - 2010.04.10 19:34:48.
