data_PCOD8256088
_publ_section_title
;
Structure prediction by ZEFSAII (Michael W. Deem and Ramdas Pophale) SiO2 
 PCOD8256088
Probable space group: C M C M
;
_chemical_formula_sum "Si O2"
_cell_formula_units_Z 120
_cell_length_a 23.668335
_cell_length_b 29.652550
_cell_length_c 9.483660
_cell_angle_alpha 90.000000
_cell_angle_beta 90.000000
_cell_angle_gamma 90.000000
_cell_volume 6655.883782
_symmetry_space_group_name_H-M "C M C M"
_symmetry_group_IT_number 63
_symmetry_cell_setting 'orthorhombic'
loop_
_space_group_symop_operation_xyz
x,y,z
-x,-y,1/2+z
x,-y,-z
-x,y,1/2-z
-x,-y,-z
x,y,1/2-z
-x,y,z
x,-y,1/2+z
1/2+x,1/2+y,z
1/2-x,1/2-y,1/2+z
1/2+x,1/2-y,-z
1/2-x,1/2+y,1/2-z
1/2-x,1/2-y,-z
1/2+x,1/2+y,1/2-z
1/2-x,1/2+y,z
1/2+x,1/2-y,1/2+z
loop_
_atom_site_type_symbol
_atom_site_label
_atom_site_fract_x
_atom_site_fract_y
_atom_site_fract_z
Si Si1 0.565030 0.716902 0.915668
Si Si2 0.747898 0.205376 0.589935
Si Si3 0.171591 0.043541 0.586623
Si Si4 0.101914 0.606432 0.583486
Si Si5 0.847463 0.142028 0.915413
Si Si6 0.196655 0.542239 0.587908
Si Si7 0.000000 0.545757 0.917361
Si Si8 0.882195 0.702670 0.589417
O O1 0.568370 0.726520 0.750000
O O2 0.500000 0.714477 0.967137
O O3 0.595796 0.669759 0.953285
O O4 0.599452 0.756098 0.992574
O O5 0.766681 0.216639 0.750000
O O6 0.750000 0.250000 0.500000
O O7 0.791521 0.168049 0.526224
O O8 0.683691 0.189133 0.584461
O O9 0.156479 0.034874 0.750000
O O10 0.145251 0.090632 0.526629
O O11 0.237794 0.050699 0.562476
O O12 0.149105 0.000000 0.500000
O O13 0.100134 0.611107 0.750000
O O14 0.162610 0.586409 0.536350
O O15 0.053941 0.573241 0.529069
O O16 0.089677 0.657058 0.526953
O O17 0.838463 0.136541 0.750000
O O18 0.174264 0.500000 0.500000
O O19 0.183037 0.531527 0.750000
O O20 0.000000 0.537328 0.750000
O O21 0.000000 0.500000 0.000000
O O22 0.900324 0.714278 0.750000
#
# Coordination Sequence:
#
# PCOD8256088 Si02
#       8
#    16  16  16  16  16  16   8  16
#     4  10  21  36  53  73  99 133 170 207 247 296
#     4  10  18  30  50  76 104 135 170 207 250 299
#     4   9  17  30  50  74  98 126 158 196 242 291
#     4   9  18  31  47  67  91 123 162 201 243 294
#     4   9  17  32  53  73 101 138 168 198 246 303
#     4   9  16  28  46  67  92 121 155 195 239 290
#     4  10  20  34  50  66  88 122 164 210 253 292
#     4  10  20  33  52  76 100 130 169 209 251 299
#
# _framework density 18.029161999999999
#
# number of rings (size 3 to 8) (size 9 to 14) (size 15 to 20)
#    0.000    2.533    1.333    1.200    0.933    3.467 
#    0.000    2.667    0.000    3.600    0.000    0.000 
#    0.000    0.000    0.000    0.000    0.000    0.000 
#
# Total GULP energy -743582.585297 kJ/mol
# GULP energy per Si atom -12393.043088 kJ/mol
# Density = 1.798813 g / cm^3
# Si number density = 18.029162 Si / 1000 Ang^3
#
#
#
# Elastic Constant Matrix: (Units=GPa)
#
#
# Indices 1 2 3 4 5 6 
#
# 1 68.8100 37.6898 17.9248 0.0000 0.0000 0.0000
# 2 37.6898 163.6473 41.6336 0.0000 0.0000 0.0000
# 3 17.9248 41.6336 37.9668 0.0000 0.0000 0.0000
# 4 0.0000 0.0000 0.0000 26.9332 0.0000 0.0000
# 5 0.0000 0.0000 0.0000 0.0000 16.4257 0.0000
# 6 0.0000 0.0000 0.0000 0.0000 0.0000 23.0368
#
#
#
# Elastic Compliance Matrix: (Units=1/GPa)
#
#
# Indices 1 2 3 4 5 6 
#
# 1 0.017364 -0.002654 -0.005288 0.000000 0.000000 0.000000
# 2 -0.002654 0.008881 -0.008485 0.000000 0.000000 0.000000
# 3 -0.005288 -0.008485 0.038140 0.000000 0.000000 0.000000
# 4 0.000000 0.000000 0.000000 0.037129 0.000000 0.000000
# 5 0.000000 0.000000 0.000000 0.000000 0.060880 0.000000
# 6 0.000000 0.000000 0.000000 0.000000 0.000000 0.043409
#
#
# Mechanical properties :
#
#
# Convention : Reuss Voigt Hill
#
# Bulk Modulus (GPa) = 31.71498 51.65783 41.68641
# Shear Modulus (GPa) = 20.06690 24.82421 22.44556
#
# Velocity S-wave (km/s) = 3.33982 3.71468 3.53222
# Velocity P-wave (km/s) = 5.70102 6.86389 6.30930
#
# Compressibility (1/GPa) = 0.03153084
#
# Stress axis : x y z
#
# Youngs Moduli (GPa) = 57.59116 112.60353 26.21905
#
# Poissons Ratio (x) = 0.29883 0.13864
# Poissons Ratio (y) = 0.15284 0.22248
# Poissons Ratio (z) = 0.30452 0.95550
#
# Static dielectric constant tensor:
#      x y z
#    x 3.577380 0.000000 0.000000 
#    y 0.000000 3.634870 0.000000 
#    z 0.000000 0.000000 3.097960 
# 
# 
# High freq. dielectric constant tensor:
#      x y z
#    x 1.686410 0.000000 0.000000 
#    y 0.000000 1.710670 0.000000 
#    z 0.000000 0.000000 1.660530 
# 
# From -- ./inp_files/13177.got.cif
#   From: 2010.03.12/outbox.cif.g09.slc.cpg/sg63_7_cif.got.tgz:13177.got - 2010.04.10 19:34:48.
