data_PCOD8256106
_publ_section_title
;
Structure prediction by ZEFSAII (Michael W. Deem and Ramdas Pophale) SiO2 
 PCOD8256106
Probable space group: C M C M
;
_chemical_formula_sum "Si O2"
_cell_formula_units_Z 64
_cell_length_a 8.726801
_cell_length_b 20.205059
_cell_length_c 20.078069
_cell_angle_alpha 90.000000
_cell_angle_beta 90.000000
_cell_angle_gamma 90.000000
_cell_volume 3540.276139
_symmetry_space_group_name_H-M "C M C M"
_symmetry_group_IT_number 63
_symmetry_cell_setting 'orthorhombic'
loop_
_space_group_symop_operation_xyz
x,y,z
-x,-y,1/2+z
x,-y,-z
-x,y,1/2-z
-x,-y,-z
x,y,1/2-z
-x,y,z
x,-y,1/2+z
1/2+x,1/2+y,z
1/2-x,1/2-y,1/2+z
1/2+x,1/2-y,-z
1/2-x,1/2+y,1/2-z
1/2-x,1/2-y,-z
1/2+x,1/2+y,1/2-z
1/2-x,1/2+y,z
1/2+x,1/2-y,1/2+z
loop_
_atom_site_type_symbol
_atom_site_label
_atom_site_fract_x
_atom_site_fract_y
_atom_site_fract_z
Si Si1 0.321451 0.270383 0.569420
Si Si2 0.680390 0.953604 0.087956
Si Si3 0.682025 0.832612 0.175854
Si Si4 0.178471 0.082217 0.050503
O O1 0.500000 0.255708 0.563059
O O2 0.250000 0.250000 0.500000
O O3 0.251748 0.226438 0.629513
O O4 0.288395 0.347413 0.585300
O O5 0.500000 0.966009 0.088230
O O6 0.731462 0.903576 0.146103
O O7 0.765698 0.023692 0.099636
O O8 0.727085 0.921647 0.017740
O O9 0.751872 0.825719 0.250000
O O10 0.500000 0.827591 0.178665
O O11 0.000000 0.073390 0.033891
#
# Coordination Sequence:
#
# PCOD8256106 Si02
#       4
#    16  16  16  16
#     4  10  19  32  52  76 101 132 168 210 254 298
#     4  10  18  30  51  74  97 130 169 207 246 295
#     4   9  18  33  52  74 100 133 174 212 250 301
#     4  10  19  30  48  75 105 129 158 207 258 296
#
# _framework density 18.077686
#
# number of rings (size 3 to 8) (size 9 to 14) (size 15 to 20)
#    0.000    2.250    2.500    3.000    0.000    1.000 
#    0.000    1.250    0.000    8.250    0.000    0.000 
#    0.000    0.000    0.000    0.000    0.000    0.000 
#
# Total GULP energy -396710.870929 kJ/mol
# GULP energy per Si atom -12397.214717 kJ/mol
# Density = 1.803654 g / cm^3
# Si number density = 18.077686 Si / 1000 Ang^3
#
#
#
# Elastic Constant Matrix: (Units=GPa)
#
#
# Indices 1 2 3 4 5 6 
#
# 1 29.4991 31.6214 12.2003 0.0000 0.0000 0.0000
# 2 31.6214 166.3516 85.8687 0.0000 0.0000 0.0000
# 3 12.2003 85.8687 129.6694 0.0000 0.0000 0.0000
# 4 0.0000 0.0000 0.0000 29.7576 0.0000 0.0000
# 5 0.0000 0.0000 0.0000 0.0000 14.9020 0.0000
# 6 0.0000 0.0000 0.0000 0.0000 0.0000 25.1919
#
#
#
# Elastic Compliance Matrix: (Units=1/GPa)
#
#
# Indices 1 2 3 4 5 6 
#
# 1 0.042938 -0.009233 0.002074 0.000000 0.000000 0.000000
# 2 -0.009233 0.011119 -0.006494 0.000000 0.000000 0.000000
# 3 0.002074 -0.006494 0.011817 0.000000 0.000000 0.000000
# 4 0.000000 0.000000 0.000000 0.033605 0.000000 0.000000
# 5 0.000000 0.000000 0.000000 0.000000 0.067105 0.000000
# 6 0.000000 0.000000 0.000000 0.000000 0.000000 0.039695
#
#
# Mechanical properties :
#
#
# Convention : Reuss Voigt Hill
#
# Bulk Modulus (GPa) = 25.92780 64.98899 45.45839
# Shear Modulus (GPa) = 20.28881 27.02563 23.65722
#
# Velocity S-wave (km/s) = 3.35373 3.87068 3.62144
# Velocity P-wave (km/s) = 5.41943 7.48359 6.53354
#
# Compressibility (1/GPa) = 0.03856864
#
# Stress axis : x y z
#
# Youngs Moduli (GPa) = 23.28920 89.93926 84.62145
#
# Poissons Ratio (x) = 0.83038 -0.17551
# Poissons Ratio (y) = 0.21502 0.54955
# Poissons Ratio (z) = -0.04830 0.58408
#
# Static dielectric constant tensor:
#      x y z
#    x 3.175820 0.000000 0.000000 
#    y 0.000000 3.960210 0.000000 
#    z 0.000000 0.000000 3.316510 
# 
# 
# High freq. dielectric constant tensor:
#      x y z
#    x 1.683080 0.000000 0.000000 
#    y 0.000000 1.720840 0.000000 
#    z 0.000000 0.000000 1.668310 
# 
# From -- ./inp_files/50618.got.cif
#   From: 2010.03.12/outbox.cif.g09.slc.cpg/sg63_26_cif.got.tgz:50618.got - 2010.04.10 19:34:48.
