data_PCOD8256769
_publ_section_title
;
Structure prediction by ZEFSAII (Michael W. Deem and Ramdas Pophale) SiO2 
 PCOD8256769
Probable space group: C M C M
;
_chemical_formula_sum "Si O2"
_cell_formula_units_Z 96
_cell_length_a 8.941405
_cell_length_b 27.407129
_cell_length_c 23.561154
_cell_angle_alpha 90.000000
_cell_angle_beta 90.000000
_cell_angle_gamma 90.000000
_cell_volume 5773.854938
_symmetry_space_group_name_H-M "C M C M"
_symmetry_group_IT_number 63
_symmetry_cell_setting 'orthorhombic'
loop_
_space_group_symop_operation_xyz
x,y,z
-x,-y,1/2+z
x,-y,-z
-x,y,1/2-z
-x,-y,-z
x,y,1/2-z
-x,y,z
x,-y,1/2+z
1/2+x,1/2+y,z
1/2-x,1/2-y,1/2+z
1/2+x,1/2-y,-z
1/2-x,1/2+y,1/2-z
1/2-x,1/2-y,-z
1/2+x,1/2+y,1/2-z
1/2-x,1/2+y,z
1/2+x,1/2-y,1/2+z
loop_
_atom_site_type_symbol
_atom_site_label
_atom_site_fract_x
_atom_site_fract_y
_atom_site_fract_z
Si Si1 0.327316 0.321369 0.985837
Si Si2 0.176215 0.516658 0.918991
Si Si3 0.672997 0.919631 0.314118
Si Si4 0.325708 0.770399 0.086046
Si Si5 0.175538 0.819502 0.185481
Si Si6 0.675612 0.568035 0.023157
O O1 0.500000 0.315320 0.003495
O O2 0.285208 0.283814 0.935732
O O3 0.292499 0.375451 0.963408
O O4 0.229885 0.310733 0.041346
O O5 0.212153 0.535708 0.855793
O O6 0.252194 0.463595 0.925978
O O7 0.000000 0.512548 0.930203
O O8 0.246843 0.553963 0.964053
O O9 0.714025 0.935929 0.250000
O O10 0.500000 0.905037 0.319213
O O11 0.766581 0.872617 0.333075
O O12 0.500000 0.777859 0.094879
O O13 0.245963 0.777699 0.146276
O O14 0.223332 0.808131 0.250000
O O15 0.000000 0.818979 0.177417
O O16 0.500000 0.556914 0.018857
#
# Coordination Sequence:
#
# PCOD8256769 Si02
#       6
#    16  16  16  16  16  16
#     4   9  19  33  48  69  95 122 153 189 229 274
#     4  10  19  30  46  69  94 119 151 188 225 269
#     4   9  18  32  49  69  93 121 152 187 228 273
#     4  10  19  31  49  71  94 122 154 189 230 273
#     4  10  20  32  47  69  96 124 154 189 228 271
#     4  10  19  31  47  66  92 123 152 185 225 269
#
# _framework density 16.626674000000001
#
# number of rings (size 3 to 8) (size 9 to 14) (size 15 to 20)
#    0.000    2.333    0.000    4.000    0.000    7.000 
#    0.000    0.000    0.000    1.000    0.000    4.667 
#    0.000    0.000    0.000    0.000    0.000    0.000 
#
# Total GULP energy -595262.424051 kJ/mol
# GULP energy per Si atom -12401.300501 kJ/mol
# Density = 1.658883 g / cm^3
# Si number density = 16.626674 Si / 1000 Ang^3
#
#
#
# Elastic Constant Matrix: (Units=GPa)
#
#
# Indices 1 2 3 4 5 6 
#
# 1 80.0134 47.3760 46.1193 0.0000 0.0000 0.0000
# 2 47.3760 118.9180 61.9913 0.0000 0.0000 0.0000
# 3 46.1193 61.9913 104.9529 0.0000 0.0000 0.0000
# 4 0.0000 0.0000 0.0000 26.2329 0.0000 0.0000
# 5 0.0000 0.0000 0.0000 0.0000 24.6855 0.0000
# 6 0.0000 0.0000 0.0000 0.0000 0.0000 25.2139
#
#
#
# Elastic Compliance Matrix: (Units=1/GPa)
#
#
# Indices 1 2 3 4 5 6 
#
# 1 0.018241 -0.004463 -0.005380 0.000000 0.000000 0.000000
# 2 -0.004463 0.013242 -0.005861 0.000000 0.000000 0.000000
# 3 -0.005380 -0.005861 0.015354 0.000000 0.000000 0.000000
# 4 0.000000 0.000000 0.000000 0.038120 0.000000 0.000000
# 5 0.000000 0.000000 0.000000 0.000000 0.040510 0.000000
# 6 0.000000 0.000000 0.000000 0.000000 0.000000 0.039661
#
#
# Mechanical properties :
#
#
# Convention : Reuss Voigt Hill
#
# Bulk Modulus (GPa) = 64.80470 68.31749 66.56109
# Shear Modulus (GPa) = 24.79213 25.11963 24.95588
#
# Velocity S-wave (km/s) = 3.86567 3.89112 3.87842
# Velocity P-wave (km/s) = 7.68020 7.83365 7.75731
#
# Compressibility (1/GPa) = 0.01543098
#
# Stress axis : x y z
#
# Youngs Moduli (GPa) = 54.82118 75.51658 65.13101
#
# Poissons Ratio (x) = 0.33701 0.35039
# Poissons Ratio (y) = 0.24465 0.38170
# Poissons Ratio (z) = 0.29492 0.44257
#
# Static dielectric constant tensor:
#      x y z
#    x 3.243850 0.000000 0.000000 
#    y 0.000000 3.115770 0.000000 
#    z 0.000000 0.000000 3.141580 
# 
# 
# High freq. dielectric constant tensor:
#      x y z
#    x 1.654970 0.000000 0.000000 
#    y 0.000000 1.629540 0.000000 
#    z 0.000000 0.000000 1.628960 
# 
# From -- ./inp_files/60257.got.cif
#   From: 2010.03.12/outbox.cif.g09.slc.cpg/sg63_31_cif.got.tgz:60257.got - 2010.04.10 19:34:48.
