data_PCOD8256716
_publ_section_title
;
Structure prediction by ZEFSAII (Michael W. Deem and Ramdas Pophale) SiO2 
 PCOD8256716
Probable space group: C M C M
;
_chemical_formula_sum "Si O2"
_cell_formula_units_Z 96
_cell_length_a 27.616181
_cell_length_b 28.861223
_cell_length_c 8.715956
_cell_angle_alpha 90.000000
_cell_angle_beta 90.000000
_cell_angle_gamma 90.000000
_cell_volume 6946.937315
_symmetry_space_group_name_H-M "C M C M"
_symmetry_group_IT_number 63
_symmetry_cell_setting 'orthorhombic'
loop_
_space_group_symop_operation_xyz
x,y,z
-x,-y,1/2+z
x,-y,-z
-x,y,1/2-z
-x,-y,-z
x,y,1/2-z
-x,y,z
x,-y,1/2+z
1/2+x,1/2+y,z
1/2-x,1/2-y,1/2+z
1/2+x,1/2-y,-z
1/2-x,1/2+y,1/2-z
1/2-x,1/2-y,-z
1/2+x,1/2+y,1/2-z
1/2-x,1/2+y,z
1/2+x,1/2-y,1/2+z
loop_
_atom_site_type_symbol
_atom_site_label
_atom_site_fract_x
_atom_site_fract_y
_atom_site_fract_z
Si Si1 0.402886 0.451117 0.430859
Si Si2 0.595401 0.718967 0.427149
Si Si3 0.000000 0.190047 0.929052
Si Si4 0.240608 0.178489 0.577413
Si Si5 0.177932 0.728986 0.422568
Si Si6 0.342550 0.627440 0.427148
Si Si7 0.000000 0.089379 0.431579
O O1 0.386831 0.500000 0.500000
O O2 0.409271 0.454728 0.250000
O O3 0.360819 0.414914 0.470657
O O4 0.453276 0.435901 0.503891
O O5 0.582391 0.726231 0.250000
O O6 0.546894 0.720123 0.527825
O O7 0.629274 0.761146 0.481912
O O8 0.621658 0.670228 0.455401
O O9 0.000000 0.177939 0.750000
O O10 0.000000 0.143054 0.025570
O O11 0.247989 0.160192 0.750000
O O12 0.211182 0.225937 0.577774
O O13 0.293016 0.186747 0.500917
O O14 0.211642 0.140240 0.479855
O O15 0.164011 0.714664 0.250000
O O16 0.341778 0.612797 0.250000
O O17 0.000000 0.085081 0.250000
#
# Coordination Sequence:
#
# PCOD8256716 Si02
#       7
#    16  16   8  16  16  16   8
#     4  12  24  37  50  63  79 100 129 167 210 254
#     4  10  19  30  44  59  80 104 130 162 200 240
#     4  12  22  31  45  62  80 104 135 168 205 247
#     4   9  16  26  41  60  81 102 126 153 191 236
#     4   9  16  26  40  59  81 102 127 156 191 232
#     4  10  19  31  46  62  80 101 127 160 201 244
#     4  12  23  37  50  62  77  98 130 168 210 253
#
# _framework density 13.819039999999999
#
# number of rings (size 3 to 8) (size 9 to 14) (size 15 to 20)
#    0.000    1.667    1.667    5.250    0.000    5.333 
#    0.000    0.000    0.000    0.000    0.000    0.000 
#    0.000    0.000    0.000    0.000    0.000    0.000 
#
# Total GULP energy -595337.299234 kJ/mol
# GULP energy per Si atom -12402.860401 kJ/mol
# Density = 1.378759 g / cm^3
# Si number density = 13.819040 Si / 1000 Ang^3
#
#
#
# Elastic Constant Matrix: (Units=GPa)
#
#
# Indices 1 2 3 4 5 6 
#
# 1 70.9394 40.9632 38.9474 0.0000 0.0000 0.0000
# 2 40.9632 40.2595 27.6532 0.0000 0.0000 0.0000
# 3 38.9474 27.6532 112.6871 0.0000 0.0000 0.0000
# 4 0.0000 0.0000 0.0000 19.1955 0.0000 0.0000
# 5 0.0000 0.0000 0.0000 0.0000 25.8630 0.0000
# 6 0.0000 0.0000 0.0000 0.0000 0.0000 -16.2482
#
#
#
# Elastic Compliance Matrix: (Units=1/GPa)
#
#
# Indices 1 2 3 4 5 6 
#
# 1 0.035698 -0.033493 -0.004119 0.000000 0.000000 0.000000
# 2 -0.033493 0.061298 -0.003467 0.000000 0.000000 0.000000
# 3 -0.004119 -0.003467 0.011148 0.000000 0.000000 0.000000
# 4 0.000000 0.000000 0.000000 0.052095 0.000000 0.000000
# 5 0.000000 0.000000 0.000000 0.000000 0.038665 0.000000
# 6 0.000000 0.000000 0.000000 0.000000 0.000000 -0.061545
#
#
# Mechanical properties :
#
#
# Convention : Reuss Voigt Hill
#
# Bulk Modulus (GPa) = 38.47941 48.77929 43.62935
# Shear Modulus (GPa) = 21.91260 13.51686 17.71473
#
# Velocity S-wave (km/s) = 3.98638 3.13090 3.58426
# Velocity P-wave (km/s) = 7.00671 6.96027 6.98353
#
# Compressibility (1/GPa) = 0.02598792
#
# Stress axis : x y z
#
# Youngs Moduli (GPa) = 28.01278 16.31376 89.69844
#
# Poissons Ratio (x) = 0.54639 0.36947
# Poissons Ratio (y) = 0.93822 0.31094
# Poissons Ratio (z) = 0.11539 0.05655
#
# Static dielectric constant tensor:
#      x y z
#    x 2.754930 0.000000 0.000000 
#    y 0.000000 2.467680 0.000000 
#    z 0.000000 0.000000 2.932980 
# 
# 
# High freq. dielectric constant tensor:
#      x y z
#    x 1.513410 0.000000 0.000000 
#    y 0.000000 1.474120 0.000000 
#    z 0.000000 0.000000 1.552340 
# 
# From -- ./inp_files/10795.got.cif
#   From: 2010.03.12/outbox.cif.g09.slc.cpg/sg63_6_cif.got.tgz:10795.got - 2010.04.10 19:34:48.
