data_PCOD8256011
_publ_section_title
;
Structure prediction by ZEFSAII (Michael W. Deem and Ramdas Pophale) SiO2 
 PCOD8256011
Probable space group: C M C M
;
_chemical_formula_sum "Si O2"
_cell_formula_units_Z 96
_cell_length_a 8.996560
_cell_length_b 29.628684
_cell_length_c 20.894147
_cell_angle_alpha 90.000000
_cell_angle_beta 90.000000
_cell_angle_gamma 90.000000
_cell_volume 5569.465123
_symmetry_space_group_name_H-M "C M C M"
_symmetry_group_IT_number 63
_symmetry_cell_setting 'orthorhombic'
loop_
_space_group_symop_operation_xyz
x,y,z
-x,-y,1/2+z
x,-y,-z
-x,y,1/2-z
-x,-y,-z
x,y,1/2-z
-x,y,z
x,-y,1/2+z
1/2+x,1/2+y,z
1/2-x,1/2-y,1/2+z
1/2+x,1/2-y,-z
1/2-x,1/2+y,1/2-z
1/2-x,1/2-y,-z
1/2+x,1/2+y,1/2-z
1/2-x,1/2+y,z
1/2+x,1/2-y,1/2+z
loop_
_atom_site_type_symbol
_atom_site_label
_atom_site_fract_x
_atom_site_fract_y
_atom_site_fract_z
Si Si1 0.672434 0.386051 0.016193
Si Si2 0.672798 0.999181 0.182390
Si Si3 0.175500 0.784969 0.047816
Si Si4 0.323274 0.037040 0.051558
Si Si5 0.827972 0.302680 0.178693
Si Si6 0.331622 0.097785 0.640801
O O1 0.500000 0.392430 0.003072
O O2 0.717704 0.333489 0.018128
O O3 0.715830 0.407751 0.083525
O O4 0.760958 0.412926 0.961488
O O5 0.740036 0.017652 0.250000
O O6 0.500000 0.010747 0.179870
O O7 0.745197 0.022390 0.120307
O O8 0.695568 0.945218 0.185120
O O9 0.235578 0.779807 0.120867
O O10 0.000000 0.777093 0.050231
O O11 0.250000 0.750000 0.000000
O O12 0.500000 0.038984 0.051641
O O13 0.268072 0.000000 0.000000
O O14 0.778762 0.285278 0.250000
O O15 0.802584 0.356533 0.179902
O O16 0.000000 0.290780 0.166856
O O17 0.500000 0.097364 0.612652
#
# Coordination Sequence:
#
# PCOD8256011 Si02
#       6
#    16  16  16  16  16  16
#     4  10  20  32  48  72  99 128 162 202 251 296
#     4   9  16  26  43  67  95 126 163 206 242 274
#     4  10  21  36  54  76 101 131 169 213 261 310
#     4  10  18  30  48  71  95 127 170 205 235 281
#     4   9  17  29  49  77 106 135 164 197 246 309
#     4   9  15  27  46  69  98 130 164 196 234 288
#
# _framework density 17.236844000000001
#
# number of rings (size 3 to 8) (size 9 to 14) (size 15 to 20)
#    0.000    2.500    1.667    1.500    0.000    4.667 
#    0.000    0.000    0.000    4.000    0.000    4.667 
#    0.000    0.000    0.000    0.000    0.000    0.000 
#
# Total GULP energy -594794.740623 kJ/mol
# GULP energy per Si atom -12391.557096 kJ/mol
# Density = 1.719761 g / cm^3
# Si number density = 17.236844 Si / 1000 Ang^3
#
#
#
# Elastic Constant Matrix: (Units=GPa)
#
#
# Indices 1 2 3 4 5 6 
#
# 1 42.5349 31.4356 43.4081 0.0000 0.0000 0.0000
# 2 31.4356 66.2167 63.7895 0.0000 0.0000 0.0000
# 3 43.4081 63.7895 164.2243 0.0000 0.0000 0.0000
# 4 0.0000 0.0000 0.0000 19.7631 0.0000 0.0000
# 5 0.0000 0.0000 0.0000 0.0000 18.6648 0.0000
# 6 0.0000 0.0000 0.0000 0.0000 0.0000 23.4774
#
#
#
# Elastic Compliance Matrix: (Units=1/GPa)
#
#
# Indices 1 2 3 4 5 6 
#
# 1 0.038558 -0.013561 -0.004924 0.000000 0.000000 0.000000
# 2 -0.013561 0.028902 -0.007642 0.000000 0.000000 0.000000
# 3 -0.004924 -0.007642 0.010359 0.000000 0.000000 0.000000
# 4 0.000000 0.000000 0.000000 0.050599 0.000000 0.000000
# 5 0.000000 0.000000 0.000000 0.000000 0.053577 0.000000
# 6 0.000000 0.000000 0.000000 0.000000 0.000000 0.042594
#
#
# Mechanical properties :
#
#
# Convention : Reuss Voigt Hill
#
# Bulk Modulus (GPa) = 39.11699 61.13804 50.12751
# Shear Modulus (GPa) = 17.52146 21.33723 19.42935
#
# Velocity S-wave (km/s) = 3.19174 3.52218 3.36102
# Velocity P-wave (km/s) = 6.02711 7.21716 6.64881
#
# Compressibility (1/GPa) = 0.02556434
#
# Stress axis : x y z
#
# Youngs Moduli (GPa) = 25.93505 34.60026 96.53424
#
# Poissons Ratio (x) = 0.46922 0.47534
# Poissons Ratio (y) = 0.35171 0.73768
# Poissons Ratio (z) = 0.12771 0.26440
#
# Static dielectric constant tensor:
#      x y z
#    x 3.047040 0.000000 0.000000 
#    y 0.000000 3.078120 0.000000 
#    z 0.000000 0.000000 3.464640 
# 
# 
# High freq. dielectric constant tensor:
#      x y z
#    x 1.643820 0.000000 0.000000 
#    y 0.000000 1.637410 0.000000 
#    z 0.000000 0.000000 1.668640 
# 
# From -- ./inp_files/51335.got.cif
#   From: 2010.03.12/outbox.cif.g09.slc.cpg/sg63_26_cif.got.tgz:51335.got - 2010.04.10 19:34:48.
