data_PCOD8256119
_publ_section_title
;
Structure prediction by ZEFSAII (Michael W. Deem and Ramdas Pophale) SiO2 
 PCOD8256119
Probable space group: C M C M
;
_chemical_formula_sum "Si O2"
_cell_formula_units_Z 80
_cell_length_a 8.754168
_cell_length_b 20.385568
_cell_length_c 24.682882
_cell_angle_alpha 90.000000
_cell_angle_beta 90.000000
_cell_angle_gamma 90.000000
_cell_volume 4404.874714
_symmetry_space_group_name_H-M "C M C M"
_symmetry_group_IT_number 63
_symmetry_cell_setting 'orthorhombic'
loop_
_space_group_symop_operation_xyz
x,y,z
-x,-y,1/2+z
x,-y,-z
-x,y,1/2-z
-x,-y,-z
x,y,1/2-z
-x,y,z
x,-y,1/2+z
1/2+x,1/2+y,z
1/2-x,1/2-y,1/2+z
1/2+x,1/2-y,-z
1/2-x,1/2+y,1/2-z
1/2-x,1/2-y,-z
1/2+x,1/2+y,1/2-z
1/2-x,1/2+y,z
1/2+x,1/2-y,1/2+z
loop_
_atom_site_type_symbol
_atom_site_label
_atom_site_fract_x
_atom_site_fract_y
_atom_site_fract_z
Si Si1 0.820889 0.810274 0.531621
Si Si2 0.316854 0.240358 0.134465
Si Si3 0.676649 0.880817 0.140289
Si Si4 0.675370 0.930662 0.024985
Si Si5 0.332076 0.236125 0.250000
Si Si6 0.330414 0.392006 0.250000
O O1 0.750000 0.750000 0.500000
O O2 0.749007 0.810966 0.591606
O O3 0.784830 0.877884 0.502394
O O4 0.000000 0.799614 0.535364
O O5 0.500000 0.241462 0.133504
O O6 0.260072 0.313863 0.122677
O O7 0.252458 0.215634 0.193445
O O8 0.500000 0.864788 0.150803
O O9 0.698745 0.931086 0.090126
O O10 0.744180 0.914062 0.194884
O O11 0.500000 0.913541 0.010793
O O12 0.723419 0.000000 0.000000
O O13 0.500000 0.204888 0.250000
O O14 0.341715 0.314340 0.250000
O O15 0.500000 0.423239 0.250000
#
# Coordination Sequence:
#
# PCOD8256119 Si02
#       6
#    16  16  16  16   8   8
#     4  12  23  35  54  80 109 144 183 224 270 322
#     4  10  18  31  52  78 109 141 177 223 274 327
#     4  10  18  30  51  78 107 138 178 223 269 324
#     4  10  22  39  57  79 110 145 181 227 280 330
#     4   7  14  27  45  72 103 136 169 209 267 319
#     4   9  17  29  47  72 105 140 175 219 271 317
#
# _framework density 18.161698000000001
#
# number of rings (size 3 to 8) (size 9 to 14) (size 15 to 20)
#    0.000    2.000    2.000    4.500    0.000    1.200 
#    0.000    1.500    0.000    1.200    0.000    4.200 
#    0.000    0.000    0.000    0.000    0.000    0.000 
#
# Total GULP energy -495803.281900 kJ/mol
# GULP energy per Si atom -12395.082047 kJ/mol
# Density = 1.812036 g / cm^3
# Si number density = 18.161698 Si / 1000 Ang^3
#
#
#
# Elastic Constant Matrix: (Units=GPa)
#
#
# Indices 1 2 3 4 5 6 
#
# 1 114.7479 30.4002 57.8822 0.0000 0.0000 0.0000
# 2 30.4002 58.0065 46.6620 0.0000 0.0000 0.0000
# 3 57.8822 46.6620 170.9074 0.0000 0.0000 0.0000
# 4 0.0000 0.0000 0.0000 21.6249 0.0000 0.0000
# 5 0.0000 0.0000 0.0000 0.0000 30.4114 0.0000
# 6 0.0000 0.0000 0.0000 0.0000 0.0000 19.4809
#
#
#
# Elastic Compliance Matrix: (Units=1/GPa)
#
#
# Indices 1 2 3 4 5 6 
#
# 1 0.011057 -0.003566 -0.002771 0.000000 0.000000 0.000000
# 2 -0.003566 0.023241 -0.005138 0.000000 0.000000 0.000000
# 3 -0.002771 -0.005138 0.008192 0.000000 0.000000 0.000000
# 4 0.000000 0.000000 0.000000 0.046243 0.000000 0.000000
# 5 0.000000 0.000000 0.000000 0.000000 0.032882 0.000000
# 6 0.000000 0.000000 0.000000 0.000000 0.000000 0.051332
#
#
# Mechanical properties :
#
#
# Convention : Reuss Voigt Hill
#
# Bulk Modulus (GPa) = 51.17352 68.17229 59.67290
# Shear Modulus (GPa) = 24.70209 28.21793 26.46001
#
# Velocity S-wave (km/s) = 3.69198 3.94598 3.82109
# Velocity P-wave (km/s) = 6.81264 7.64060 7.23847
#
# Compressibility (1/GPa) = 0.01954136
#
# Stress axis : x y z
#
# Youngs Moduli (GPa) = 90.43761 43.02720 122.06336
#
# Poissons Ratio (x) = 0.15342 0.33828
# Poissons Ratio (y) = 0.32246 0.62714
# Poissons Ratio (z) = 0.25063 0.22107
#
# Static dielectric constant tensor:
#      x y z
#    x 3.407790 0.000000 0.000000 
#    y 0.000000 2.970820 0.000000 
#    z 0.000000 0.000000 4.036760 
# 
# 
# High freq. dielectric constant tensor:
#      x y z
#    x 1.707360 0.000000 0.000000 
#    y 0.000000 1.639860 0.000000 
#    z 0.000000 0.000000 1.732330 
# 
# From -- ./inp_files/66820.got.cif
#   From: 2010.03.12/outbox.cif.g09.slc.cpg/sg63_34_cif.got.tgz:66820.got - 2010.04.10 19:34:48.
