data_PCOD8256585
_publ_section_title
;
Structure prediction by ZEFSAII (Michael W. Deem and Ramdas Pophale) SiO2 
 PCOD8256585
Probable space group: C M C M
;
_chemical_formula_sum "Si O2"
_cell_formula_units_Z 96
_cell_length_a 33.442376
_cell_length_b 10.035913
_cell_length_c 13.199893
_cell_angle_alpha 90.000000
_cell_angle_beta 90.000000
_cell_angle_gamma 90.000000
_cell_volume 4430.211132
_symmetry_space_group_name_H-M "C M C M"
_symmetry_group_IT_number 63
_symmetry_cell_setting 'orthorhombic'
loop_
_space_group_symop_operation_xyz
x,y,z
-x,-y,1/2+z
x,-y,-z
-x,y,1/2-z
-x,-y,-z
x,y,1/2-z
-x,y,z
x,-y,1/2+z
1/2+x,1/2+y,z
1/2-x,1/2-y,1/2+z
1/2+x,1/2-y,-z
1/2-x,1/2+y,1/2-z
1/2-x,1/2-y,-z
1/2+x,1/2+y,1/2-z
1/2-x,1/2+y,z
1/2+x,1/2-y,1/2+z
loop_
_atom_site_type_symbol
_atom_site_label
_atom_site_fract_x
_atom_site_fract_y
_atom_site_fract_z
Si Si1 0.000000 0.923520 0.633646
Si Si2 0.285680 0.569447 0.870474
Si Si3 0.867495 0.740856 0.862048
Si Si4 0.874253 0.057814 0.861831
Si Si5 0.500000 0.742586 0.634533
Si Si6 0.932890 0.789736 0.998217
Si Si7 0.279707 0.727065 0.370938
O O1 0.039854 0.866214 0.583249
O O2 0.000000 0.879903 0.750000
O O3 0.000000 0.082564 0.622196
O O4 0.280519 0.559508 0.750000
O O5 0.330934 0.613742 0.897095
O O6 0.276373 0.422620 0.917907
O O7 0.255768 0.681120 0.915513
O O8 0.875090 0.680384 0.750000
O O9 0.822593 0.706069 0.899050
O O10 0.871928 0.899698 0.858628
O O11 0.901975 0.690059 0.939781
O O12 0.885154 0.112627 0.750000
O O13 0.907767 0.102800 0.938966
O O14 0.500000 0.791973 0.750000
O O15 0.539549 0.795612 0.576116
O O16 0.276966 0.715961 0.250000
#
# Coordination Sequence:
#
# PCOD8256585 Si02
#       7
#     8  16  16  16   8  16  16
#     4  10  19  27  36  53  77 106 141 179 219 266
#     4   8  14  25  41  61  86 118 155 192 228 266
#     4   9  16  25  38  56  78 107 145 184 219 261
#     4   9  16  25  38  56  78 107 145 184 219 261
#     4  10  19  27  36  53  77 106 141 179 219 266
#     4  11  18  26  39  54  76 108 144 182 222 263
#     4   8  14  25  41  61  86 118 155 192 228 266
#
# _framework density 21.669397
#
# number of rings (size 3 to 8) (size 9 to 14) (size 15 to 20)
#    0.000    2.833    0.000    6.500    0.000    2.667 
#    0.000    0.833    0.000    0.000    0.000    0.000 
#    0.000    0.000    0.000   12.000    0.000  137.333 
#
# Total GULP energy -594905.727560 kJ/mol
# GULP energy per Si atom -12393.869324 kJ/mol
# Density = 2.162008 g / cm^3
# Si number density = 21.669397 Si / 1000 Ang^3
#
#
#
# Elastic Constant Matrix: (Units=GPa)
#
#
# Indices 1 2 3 4 5 6 
#
# 1 171.6698 29.7007 57.7159 0.0000 0.0000 0.0000
# 2 29.7007 28.1233 14.5056 0.0000 0.0000 0.0000
# 3 57.7159 14.5056 97.7468 0.0000 0.0000 0.0000
# 4 0.0000 0.0000 0.0000 12.4725 0.0000 0.0000
# 5 0.0000 0.0000 0.0000 0.0000 24.9583 0.0000
# 6 0.0000 0.0000 0.0000 0.0000 0.0000 12.4722
#
#
#
# Elastic Compliance Matrix: (Units=1/GPa)
#
#
# Indices 1 2 3 4 5 6 
#
# 1 0.008306 -0.006760 -0.003901 0.000000 0.000000 0.000000
# 2 -0.006760 0.044006 -0.002539 0.000000 0.000000 0.000000
# 3 -0.003901 -0.002539 0.012911 0.000000 0.000000 0.000000
# 4 0.000000 0.000000 0.000000 0.080177 0.000000 0.000000
# 5 0.000000 0.000000 0.000000 0.000000 0.040067 0.000000
# 6 0.000000 0.000000 0.000000 0.000000 0.000000 0.080178
#
#
# Mechanical properties :
#
#
# Convention : Reuss Voigt Hill
#
# Bulk Modulus (GPa) = 25.75801 55.70937 40.73369
# Shear Modulus (GPa) = 16.39411 23.02175 19.70793
#
# Velocity S-wave (km/s) = 2.75354 3.26300 3.01903
# Velocity P-wave (km/s) = 4.69275 6.32145 5.56699
#
# Compressibility (1/GPa) = 0.03882287
#
# Stress axis : x y z
#
# Youngs Moduli (GPa) = 120.38987 22.72396 77.45357
#
# Poissons Ratio (x) = 0.15361 0.30218
# Poissons Ratio (y) = 0.81383 0.19666
# Poissons Ratio (z) = 0.46969 0.05770
#
# Static dielectric constant tensor:
#      x y z
#    x 4.676970 0.000000 0.000000 
#    y 0.000000 3.165150 0.000000 
#    z 0.000000 0.000000 4.601800 
# 
# 
# High freq. dielectric constant tensor:
#      x y z
#    x 1.873790 0.000000 0.000000 
#    y 0.000000 1.746490 0.000000 
#    z 0.000000 0.000000 1.882990 
# 
# From -- ./inp_files/38452.got.cif
#   From: 2010.03.12/outbox.cif.g09.slc.cpg/sg63_20_cif.got.tgz:38452.got - 2010.04.10 19:34:48.
