data_PCOD8256066
_publ_section_title
;
Structure prediction by ZEFSAII (Michael W. Deem and Ramdas Pophale) SiO2 
 PCOD8256066
Probable space group: C M C M
;
_chemical_formula_sum "Si O2"
_cell_formula_units_Z 96
_cell_length_a 15.423689
_cell_length_b 14.461233
_cell_length_c 25.964998
_cell_angle_alpha 90.000000
_cell_angle_beta 90.000000
_cell_angle_gamma 90.000000
_cell_volume 5791.377528
_symmetry_space_group_name_H-M "C M C M"
_symmetry_group_IT_number 63
_symmetry_cell_setting 'orthorhombic'
loop_
_space_group_symop_operation_xyz
x,y,z
-x,-y,1/2+z
x,-y,-z
-x,y,1/2-z
-x,-y,-z
x,y,1/2-z
-x,y,z
x,-y,1/2+z
1/2+x,1/2+y,z
1/2-x,1/2-y,1/2+z
1/2+x,1/2-y,-z
1/2-x,1/2+y,1/2-z
1/2-x,1/2-y,-z
1/2+x,1/2+y,1/2-z
1/2-x,1/2+y,z
1/2+x,1/2-y,1/2+z
loop_
_atom_site_type_symbol
_atom_site_label
_atom_site_fract_x
_atom_site_fract_y
_atom_site_fract_z
Si Si1 0.748706 0.598030 0.510497
Si Si2 0.602046 0.655079 0.750000
Si Si3 0.734898 0.262650 0.918350
Si Si4 0.101060 0.139626 0.143590
Si Si5 0.102727 0.949092 0.750000
Si Si6 0.402151 0.713444 0.859519
Si Si7 0.094857 0.963938 0.422774
O O1 0.800587 0.500000 0.500000
O O2 0.735194 0.653817 0.458450
O O3 0.790123 0.665259 0.553835
O O4 0.655222 0.566413 0.530726
O O5 0.500000 0.639698 0.750000
O O6 0.644670 0.552150 0.750000
O O7 0.628598 0.714898 0.699990
O O8 0.661303 0.275059 0.874698
O O9 0.831331 0.266491 0.893901
O O10 0.133073 0.107343 0.199721
O O11 0.000000 0.169020 0.144097
O O12 0.120583 0.061093 0.101765
O O13 0.000000 0.957712 0.750000
O O14 0.500000 0.756023 0.866831
O O15 0.403406 0.606527 0.875117
O O16 0.000000 0.967519 0.447629
#
# Coordination Sequence:
#
# PCOD8256066 Si02
#       7
#    16   8  16  16   8  16  16
#     4  10  19  33  48  68  98 131 166 209 249 290
#     4   9  14  25  48  76 100 123 153 200 262 310
#     4  10  21  32  48  73 100 134 164 204 252 296
#     4  10  18  30  49  76 105 130 158 197 249 306
#     4   9  16  27  48  78 108 129 151 194 258 314
#     4   9  17  30  48  71  99 127 162 203 246 295
#     4   9  16  27  48  75  97 123 155 201 261 307
#
# _framework density 16.576367000000001
#
# number of rings (size 3 to 8) (size 9 to 14) (size 15 to 20)
#    0.000    2.500    3.333    0.000    0.000    1.667 
#    0.000    2.500    0.000    2.000    0.000    0.000 
#    0.000    5.333    0.000    0.000    0.000    0.000 
#
# Total GULP energy -594716.790363 kJ/mol
# GULP energy per Si atom -12389.933133 kJ/mol
# Density = 1.653864 g / cm^3
# Si number density = 16.576367 Si / 1000 Ang^3
#
#
#
# Elastic Constant Matrix: (Units=GPa)
#
#
# Indices 1 2 3 4 5 6 
#
# 1 65.3028 26.3959 40.7962 0.0000 0.0000 0.0000
# 2 26.3959 74.4363 37.5715 0.0000 0.0000 0.0000
# 3 40.7962 37.5715 105.5467 0.0000 0.0000 0.0000
# 4 0.0000 0.0000 0.0000 19.1692 0.0000 0.0000
# 5 0.0000 0.0000 0.0000 0.0000 23.6467 0.0000
# 6 0.0000 0.0000 0.0000 0.0000 0.0000 22.7782
#
#
#
# Elastic Compliance Matrix: (Units=1/GPa)
#
#
# Indices 1 2 3 4 5 6 
#
# 1 0.021175 -0.004118 -0.006719 0.000000 0.000000 0.000000
# 2 -0.004118 0.017177 -0.004523 0.000000 0.000000 0.000000
# 3 -0.006719 -0.004523 0.013682 0.000000 0.000000 0.000000
# 4 0.000000 0.000000 0.000000 0.052167 0.000000 0.000000
# 5 0.000000 0.000000 0.000000 0.000000 0.042289 0.000000
# 6 0.000000 0.000000 0.000000 0.000000 0.000000 0.043902
#
#
# Mechanical properties :
#
#
# Convention : Reuss Voigt Hill
#
# Bulk Modulus (GPa) = 46.91548 50.53476 48.72512
# Shear Modulus (GPa) = 21.90904 22.48696 22.19800
#
# Velocity S-wave (km/s) = 3.63947 3.68716 3.66339
# Velocity P-wave (km/s) = 6.78418 6.97704 6.88128
#
# Compressibility (1/GPa) = 0.02131493
#
# Stress axis : x y z
#
# Youngs Moduli (GPa) = 47.22530 58.21573 73.09082
#
# Poissons Ratio (x) = 0.23971 0.49109
# Poissons Ratio (y) = 0.19445 0.33060
# Poissons Ratio (z) = 0.31730 0.26332
#
# Static dielectric constant tensor:
#      x y z
#    x 2.878260 0.000000 0.000000 
#    y 0.000000 3.136950 0.000000 
#    z 0.000000 0.000000 3.380320 
# 
# 
# High freq. dielectric constant tensor:
#      x y z
#    x 1.602270 0.000000 0.000000 
#    y 0.000000 1.616740 0.000000 
#    z 0.000000 0.000000 1.659040 
# 
# From -- ./inp_files/62905.got.cif
#   From: 2010.03.12/outbox.cif.g09.slc.cpg/sg63_32_cif.got.tgz:62905.got - 2010.04.10 19:34:48.
