data_PCOD8256724
_publ_section_title
;
Structure prediction by ZEFSAII (Michael W. Deem and Ramdas Pophale) SiO2 
 PCOD8256724
Probable space group: C M C M
;
_chemical_formula_sum "Si O2"
_cell_formula_units_Z 80
_cell_length_a 22.394916
_cell_length_b 24.117368
_cell_length_c 9.544160
_cell_angle_alpha 90.000000
_cell_angle_beta 90.000000
_cell_angle_gamma 90.000000
_cell_volume 5154.862190
_symmetry_space_group_name_H-M "C M C M"
_symmetry_group_IT_number 63
_symmetry_cell_setting 'orthorhombic'
loop_
_space_group_symop_operation_xyz
x,y,z
-x,-y,1/2+z
x,-y,-z
-x,y,1/2-z
-x,-y,-z
x,y,1/2-z
-x,y,z
x,-y,1/2+z
1/2+x,1/2+y,z
1/2-x,1/2-y,1/2+z
1/2+x,1/2-y,-z
1/2-x,1/2+y,1/2-z
1/2-x,1/2-y,-z
1/2+x,1/2+y,1/2-z
1/2-x,1/2+y,z
1/2+x,1/2-y,1/2+z
loop_
_atom_site_type_symbol
_atom_site_label
_atom_site_fract_x
_atom_site_fract_y
_atom_site_fract_z
Si Si1 0.568239 0.418795 0.750000
Si Si2 0.931457 0.241043 0.592888
Si Si3 0.617728 0.375780 0.024772
Si Si4 0.668260 0.213943 0.908794
Si Si5 0.072099 0.042780 0.750000
Si Si6 0.232465 0.831805 0.590264
O O1 0.500000 0.433223 0.750000
O O2 0.584387 0.380239 0.621376
O O3 0.597403 0.480030 0.750000
O O4 0.925290 0.265700 0.750000
O O5 0.904903 0.179271 0.600898
O O6 0.895874 0.279248 0.483158
O O7 0.000000 0.239513 0.544158
O O8 0.600774 0.429303 0.114048
O O9 0.688707 0.373745 0.992862
O O10 0.659655 0.191448 0.750000
O O11 0.701659 0.272190 0.904173
O O12 0.706465 0.170610 0.001341
O O13 0.000000 0.048832 0.750000
O O14 0.245081 0.852103 0.750000
#
# Coordination Sequence:
#
# PCOD8256724 Si02
#       6
#     8  16  16  16   8  16
#     4  11  22  34  46  61  84 112 147 192 235 271
#     4  10  19  30  44  63  89 118 146 177 215 259
#     4  11  20  32  47  64  82 111 151 189 223 264
#     4   9  18  28  44  65  84 108 137 176 217 253
#     4  11  22  34  46  61  84 114 147 188 237 273
#     4   9  17  30  44  61  83 107 139 178 218 259
#
# _framework density 15.519329000000001
#
# number of rings (size 3 to 8) (size 9 to 14) (size 15 to 20)
#    0.000    2.000    2.000    3.000    2.800    4.400 
#    0.000    0.000    0.000    0.000    0.000    0.000 
#    0.000    0.000    0.000    0.000    0.000    6.000 
#
# Total GULP energy -495889.721049 kJ/mol
# GULP energy per Si atom -12397.243026 kJ/mol
# Density = 1.548401 g / cm^3
# Si number density = 15.519329 Si / 1000 Ang^3
#
#
#
# Elastic Constant Matrix: (Units=GPa)
#
#
# Indices 1 2 3 4 5 6 
#
# 1 87.3510 21.9282 42.4715 0.0000 0.0000 0.0000
# 2 21.9282 22.4911 10.3064 0.0000 0.0000 0.0000
# 3 42.4715 10.3064 107.0240 0.0000 0.0000 0.0000
# 4 0.0000 0.0000 0.0000 11.4321 0.0000 0.0000
# 5 0.0000 0.0000 0.0000 0.0000 29.9805 0.0000
# 6 0.0000 0.0000 0.0000 0.0000 0.0000 17.7924
#
#
#
# Elastic Compliance Matrix: (Units=1/GPa)
#
#
# Indices 1 2 3 4 5 6 
#
# 1 0.017955 -0.014898 -0.005691 0.000000 0.000000 0.000000
# 2 -0.014898 0.058876 0.000242 0.000000 0.000000 0.000000
# 3 -0.005691 0.000242 0.011579 0.000000 0.000000 0.000000
# 4 0.000000 0.000000 0.000000 0.087473 0.000000 0.000000
# 5 0.000000 0.000000 0.000000 0.000000 0.033355 0.000000
# 6 0.000000 0.000000 0.000000 0.000000 0.000000 0.056204
#
#
# Mechanical properties :
#
#
# Convention : Reuss Voigt Hill
#
# Bulk Modulus (GPa) = 20.95676 40.69759 30.82718
# Shear Modulus (GPa) = 15.52609 21.31835 18.42222
#
# Velocity S-wave (km/s) = 3.16640 3.71032 3.44910
# Velocity P-wave (km/s) = 5.18662 6.68102 5.98068
#
# Compressibility (1/GPa) = 0.04771729
#
# Stress axis : x y z
#
# Youngs Moduli (GPa) = 55.69562 16.98489 86.36625
#
# Poissons Ratio (x) = 0.25304 0.49147
# Poissons Ratio (y) = 0.82974 -0.02092
# Poissons Ratio (z) = 0.31694 -0.00412
#
# Static dielectric constant tensor:
#      x y z
#    x 3.003480 0.000000 0.000000 
#    y 0.000000 2.605040 0.000000 
#    z 0.000000 0.000000 3.237110 
# 
# 
# High freq. dielectric constant tensor:
#      x y z
#    x 1.584030 0.000000 0.000000 
#    y 0.000000 1.532290 0.000000 
#    z 0.000000 0.000000 1.620430 
# 
# From -- ./inp_files/8054.got.cif
#   From: 2010.03.12/outbox.cif.g09.slc.cpg/sg63_5_cif.got.tgz:8054.got - 2010.04.10 19:34:48.
