data_PCOD8256226
_publ_section_title
;
Structure prediction by ZEFSAII (Michael W. Deem and Ramdas Pophale) SiO2 
 PCOD8256226
Probable space group: C M C M
;
_chemical_formula_sum "Si O2"
_cell_formula_units_Z 96
_cell_length_a 15.882441
_cell_length_b 34.296914
_cell_length_c 9.399702
_cell_angle_alpha 90.000000
_cell_angle_beta 90.000000
_cell_angle_gamma 90.000000
_cell_volume 5120.193577
_symmetry_space_group_name_H-M "C M C M"
_symmetry_group_IT_number 63
_symmetry_cell_setting 'orthorhombic'
loop_
_space_group_symop_operation_xyz
x,y,z
-x,-y,1/2+z
x,-y,-z
-x,y,1/2-z
-x,-y,-z
x,y,1/2-z
-x,y,z
x,-y,1/2+z
1/2+x,1/2+y,z
1/2-x,1/2-y,1/2+z
1/2+x,1/2-y,-z
1/2-x,1/2+y,1/2-z
1/2-x,1/2-y,-z
1/2+x,1/2+y,1/2-z
1/2-x,1/2+y,z
1/2+x,1/2-y,1/2+z
loop_
_atom_site_type_symbol
_atom_site_label
_atom_site_fract_x
_atom_site_fract_y
_atom_site_fract_z
Si Si1 0.140909 0.670438 0.586743
Si Si2 0.407191 0.086543 0.581767
Si Si3 0.755982 0.040298 0.919989
Si Si4 0.093897 0.903633 0.418895
Si Si5 0.403579 0.245004 0.091236
Si Si6 0.336215 0.675841 0.586315
O O1 0.115209 0.677069 0.750000
O O2 0.100576 0.630779 0.524317
O O3 0.106753 0.706717 0.500905
O O4 0.239670 0.665442 0.568010
O O5 0.397418 0.088480 0.750000
O O6 0.500000 0.070176 0.537234
O O7 0.331746 0.059397 0.524436
O O8 0.755837 0.034268 0.750000
O O9 0.835217 0.066245 0.972015
O O10 0.766336 0.000000 0.000000
O O11 0.100534 0.901223 0.250000
O O12 0.112204 0.860330 0.481917
O O13 0.000000 0.916983 0.467277
O O14 0.367917 0.236599 0.250000
O O15 0.500000 0.257042 0.098665
O O16 0.356416 0.281958 0.016536
O O17 0.363007 0.680262 0.750000
#
# Coordination Sequence:
#
# PCOD8256226 Si02
#       6
#    16  16  16  16  16  16
#     4  10  18  31  52  74  96 128 172 212 244 285
#     4   9  17  31  52  75  99 130 168 207 244 288
#     4  10  20  35  54  77 102 128 161 203 250 300
#     4   9  16  29  52  78 101 129 167 206 242 289
#     4  10  20  31  44  69 104 136 166 204 250 293
#     4   9  16  29  49  72  98 130 170 209 242 285
#
# _framework density 18.749289999999998
#
# number of rings (size 3 to 8) (size 9 to 14) (size 15 to 20)
#    0.000    2.500    1.667    1.500    0.000    3.667 
#    0.000    0.833    0.000    2.000    0.000    0.000 
#    0.000    0.000    0.000    0.000    0.000    0.000 
#
# Total GULP energy -594910.284269 kJ/mol
# GULP energy per Si atom -12393.964256 kJ/mol
# Density = 1.870662 g / cm^3
# Si number density = 18.749290 Si / 1000 Ang^3
#
#
#
# Elastic Constant Matrix: (Units=GPa)
#
#
# Indices 1 2 3 4 5 6 
#
# 1 116.2032 53.0713 15.6715 0.0000 0.0000 0.0000
# 2 53.0713 111.8475 17.9938 0.0000 0.0000 0.0000
# 3 15.6715 17.9938 23.6173 0.0000 0.0000 0.0000
# 4 0.0000 0.0000 0.0000 26.5106 0.0000 0.0000
# 5 0.0000 0.0000 0.0000 0.0000 6.0515 0.0000
# 6 0.0000 0.0000 0.0000 0.0000 0.0000 30.0806
#
#
#
# Elastic Compliance Matrix: (Units=1/GPa)
#
#
# Indices 1 2 3 4 5 6 
#
# 1 0.011291 -0.004732 -0.003887 0.000000 0.000000 0.000000
# 2 -0.004732 0.012173 -0.006134 0.000000 0.000000 0.000000
# 3 -0.003887 -0.006134 0.049595 0.000000 0.000000 0.000000
# 4 0.000000 0.000000 0.000000 0.037721 0.000000 0.000000
# 5 0.000000 0.000000 0.000000 0.000000 0.165249 0.000000
# 6 0.000000 0.000000 0.000000 0.000000 0.000000 0.033244
#
#
# Mechanical properties :
#
#
# Convention : Reuss Voigt Hill
#
# Bulk Modulus (GPa) = 22.96110 47.23789 35.09950
# Shear Modulus (GPa) = 14.15238 23.52394 18.83816
#
# Velocity S-wave (km/s) = 2.75038 3.54596 3.17320
# Velocity P-wave (km/s) = 4.72854 6.48184 5.67333
#
# Compressibility (1/GPa) = 0.04355193
#
# Stress axis : x y z
#
# Youngs Moduli (GPa) = 88.56537 82.14838 20.16341
#
# Poissons Ratio (x) = 0.38875 0.07837
# Poissons Ratio (y) = 0.41912 0.12369
# Poissons Ratio (z) = 0.34424 0.50393
#
# Static dielectric constant tensor:
#      x y z
#    x 3.715460 0.000000 0.000000 
#    y 0.000000 3.501670 0.000000 
#    z 0.000000 0.000000 2.893710 
# 
# 
# High freq. dielectric constant tensor:
#      x y z
#    x 1.746990 0.000000 0.000000 
#    y 0.000000 1.736700 0.000000 
#    z 0.000000 0.000000 1.657440 
# 
# From -- ./inp_files/21348.got.cif
#   From: 2010.03.12/outbox.cif.g09.slc.cpg/sg63_11_cif.got.tgz:21348.got - 2010.04.10 19:34:48.
