data_PCOD8256957
_publ_section_title
;
Structure prediction by ZEFSAII (Michael W. Deem and Ramdas Pophale) SiO2 
 PCOD8256957
Probable space group: C M C M
;
_chemical_formula_sum "Si O2"
_cell_formula_units_Z 96
_cell_length_a 8.910918
_cell_length_b 23.613338
_cell_length_c 26.026455
_cell_angle_alpha 90.000000
_cell_angle_beta 90.000000
_cell_angle_gamma 90.000000
_cell_volume 5476.396053
_symmetry_space_group_name_H-M "C M C M"
_symmetry_group_IT_number 63
_symmetry_cell_setting 'orthorhombic'
loop_
_space_group_symop_operation_xyz
x,y,z
-x,-y,1/2+z
x,-y,-z
-x,y,1/2-z
-x,-y,-z
x,y,1/2-z
-x,y,z
x,-y,1/2+z
1/2+x,1/2+y,z
1/2-x,1/2-y,1/2+z
1/2+x,1/2-y,-z
1/2-x,1/2+y,1/2-z
1/2-x,1/2-y,-z
1/2+x,1/2+y,1/2-z
1/2-x,1/2+y,z
1/2+x,1/2-y,1/2+z
loop_
_atom_site_type_symbol
_atom_site_label
_atom_site_fract_x
_atom_site_fract_y
_atom_site_fract_z
Si Si1 0.175670 0.172290 0.392573
Si Si2 0.677338 0.415191 0.692294
Si Si3 0.828839 0.613823 0.571291
Si Si4 0.826479 0.503694 0.875745
Si Si5 0.668909 0.086228 0.458348
Si Si6 0.676915 0.730460 0.553577
O O1 0.232423 0.138182 0.341986
O O2 0.212902 0.134504 0.442353
O O3 0.264960 0.230942 0.399092
O O4 0.000000 0.185436 0.390214
O O5 0.738134 0.406431 0.750000
O O6 0.500000 0.418225 0.690986
O O7 0.735679 0.475089 0.670599
O O8 0.780740 0.569692 0.616271
O O9 0.817403 0.577412 0.519003
O O10 0.718712 0.666874 0.569580
O O11 0.000000 0.634966 0.579485
O O12 0.791770 0.471619 0.929180
O O13 0.000000 0.499445 0.861160
O O14 0.500000 0.106549 0.443798
O O15 0.500000 0.736098 0.547434
O O16 0.750000 0.750000 0.500000
#
# Coordination Sequence:
#
# PCOD8256957 Si02
#       6
#    16  16  16  16  16  16
#     4  10  19  32  51  75 102 133 173 215 254 299
#     4   9  19  36  57  79 103 131 164 210 266 312
#     4  10  19  31  48  71 104 141 172 204 245 296
#     4   9  18  31  49  76 104 132 169 209 252 300
#     4   9  16  28  47  70 101 137 168 202 245 295
#     4  12  23  34  49  71 103 141 178 212 250 300
#
# _framework density 17.529775999999998
#
# number of rings (size 3 to 8) (size 9 to 14) (size 15 to 20)
#    0.000    2.167    1.667    2.500    0.000    3.667 
#    0.000    0.000    0.000    6.000    0.000    2.333 
#    0.000    0.000    0.000    0.000    0.000    0.000 
#
# Total GULP energy -595019.740393 kJ/mol
# GULP energy per Si atom -12396.244592 kJ/mol
# Density = 1.748988 g / cm^3
# Si number density = 17.529776 Si / 1000 Ang^3
#
#
#
# Elastic Constant Matrix: (Units=GPa)
#
#
# Indices 1 2 3 4 5 6 
#
# 1 71.2894 41.5166 31.0016 0.0000 0.0000 0.0000
# 2 41.5166 108.8631 47.8614 0.0000 0.0000 0.0000
# 3 31.0016 47.8614 87.4598 0.0000 0.0000 0.0000
# 4 0.0000 0.0000 0.0000 16.4441 0.0000 0.0000
# 5 0.0000 0.0000 0.0000 0.0000 20.2888 0.0000
# 6 0.0000 0.0000 0.0000 0.0000 0.0000 30.5114
#
#
#
# Elastic Compliance Matrix: (Units=1/GPa)
#
#
# Indices 1 2 3 4 5 6 
#
# 1 0.018865 -0.005602 -0.003621 0.000000 0.000000 0.000000
# 2 -0.005602 0.013760 -0.005544 0.000000 0.000000 0.000000
# 3 -0.003621 -0.005544 0.015751 0.000000 0.000000 0.000000
# 4 0.000000 0.000000 0.000000 0.060812 0.000000 0.000000
# 5 0.000000 0.000000 0.000000 0.000000 0.049288 0.000000
# 6 0.000000 0.000000 0.000000 0.000000 0.000000 0.032775
#
#
# Mechanical properties :
#
#
# Convention : Reuss Voigt Hill
#
# Bulk Modulus (GPa) = 53.07626 56.48574 54.78100
# Shear Modulus (GPa) = 22.02004 23.26437 22.64220
#
# Velocity S-wave (km/s) = 3.54807 3.64694 3.59784
# Velocity P-wave (km/s) = 6.86502 7.07292 6.96975
#
# Compressibility (1/GPa) = 0.01884082
#
# Stress axis : x y z
#
# Youngs Moduli (GPa) = 53.00927 72.67541 63.48674
#
# Poissons Ratio (x) = 0.40715 0.22989
# Poissons Ratio (y) = 0.29697 0.35198
# Poissons Ratio (z) = 0.19195 0.40292
#
# Static dielectric constant tensor:
#      x y z
#    x 3.199860 0.000000 0.000000 
#    y 0.000000 3.371630 0.000000 
#    z 0.000000 0.000000 3.179230 
# 
# 
# High freq. dielectric constant tensor:
#      x y z
#    x 1.673470 0.000000 0.000000 
#    y 0.000000 1.677670 0.000000 
#    z 0.000000 0.000000 1.643670 
# 
# From -- ./inp_files/59912.got.cif
#   From: 2010.03.12/outbox.cif.g09.slc.cpg/sg63_30_cif.got.tgz:59912.got - 2010.04.10 19:34:48.
