data_PCOD8256621
_publ_section_title
;
Structure prediction by ZEFSAII (Michael W. Deem and Ramdas Pophale) SiO2 
 PCOD8256621
Probable space group: C M C M
;
_chemical_formula_sum "Si O2"
_cell_formula_units_Z 88
_cell_length_a 25.082846
_cell_length_b 27.715245
_cell_length_c 8.963516
_cell_angle_alpha 90.000000
_cell_angle_beta 90.000000
_cell_angle_gamma 90.000000
_cell_volume 6231.232154
_symmetry_space_group_name_H-M "C M C M"
_symmetry_group_IT_number 63
_symmetry_cell_setting 'orthorhombic'
loop_
_space_group_symop_operation_xyz
x,y,z
-x,-y,1/2+z
x,-y,-z
-x,y,1/2-z
-x,-y,-z
x,y,1/2-z
-x,y,z
x,-y,1/2+z
1/2+x,1/2+y,z
1/2-x,1/2-y,1/2+z
1/2+x,1/2-y,-z
1/2-x,1/2+y,1/2-z
1/2-x,1/2-y,-z
1/2+x,1/2+y,1/2-z
1/2-x,1/2+y,z
1/2+x,1/2-y,1/2+z
loop_
_atom_site_type_symbol
_atom_site_label
_atom_site_fract_x
_atom_site_fract_y
_atom_site_fract_z
Si Si1 0.855253 0.185357 0.415633
Si Si2 0.201358 0.276851 0.075217
Si Si3 0.597761 0.601738 0.921743
Si Si4 0.740197 0.136723 0.081684
Si Si5 0.000000 0.948057 0.926235
Si Si6 0.709779 0.448798 0.076288
O O1 0.879137 0.177450 0.250000
O O2 0.851058 0.242941 0.450927
O O3 0.892477 0.157744 0.534024
O O4 0.796061 0.164165 0.421663
O O5 0.213089 0.283302 0.250000
O O6 0.250000 0.250000 0.000000
O O7 0.195623 0.329649 0.999541
O O8 0.580135 0.599481 0.750000
O O9 0.650483 0.570828 0.953109
O O10 0.552029 0.580829 0.025316
O O11 0.721338 0.126309 0.250000
O O12 0.746010 0.086433 0.994368
O O13 0.000000 0.954687 0.750000
O O14 0.000000 0.000000 0.000000
O O15 0.721761 0.453687 0.250000
O O16 0.715567 0.500000 0.000000
#
# Coordination Sequence:
#
# PCOD8256621 Si02
#       6
#    16  16  16  16   8  16
#     4   8  15  26  39  55  74  94 114 140 177 218
#     4   9  15  23  36  54  75  95 115 140 172 212
#     4  10  20  32  45  59  73  90 117 152 190 231
#     4   9  16  25  37  53  73  95 119 146 176 213
#     4  12  24  36  48  58  72  92 118 154 195 236
#     4  10  19  29  41  55  72  95 122 154 189 224
#
# _framework density 14.122408
#
# number of rings (size 3 to 8) (size 9 to 14) (size 15 to 20)
#    0.000    2.545    0.000    4.636    0.000    8.727 
#    0.000    0.000    0.000    0.000    0.000    0.000 
#    0.000    0.000    0.000    0.000    0.000    0.000 
#
# Total GULP energy -545349.842861 kJ/mol
# GULP energy per Si atom -12394.314610 kJ/mol
# Density = 1.409026 g / cm^3
# Si number density = 14.122408 Si / 1000 Ang^3
#
#
#
# Elastic Constant Matrix: (Units=GPa)
#
#
# Indices 1 2 3 4 5 6 
#
# 1 23.4316 36.8260 27.8259 0.0000 0.0000 0.0000
# 2 36.8260 114.1601 69.3695 0.0000 0.0000 0.0000
# 3 27.8259 69.3695 114.7958 0.0000 0.0000 0.0000
# 4 0.0000 0.0000 0.0000 30.0634 0.0000 0.0000
# 5 0.0000 0.0000 0.0000 0.0000 15.7233 0.0000
# 6 0.0000 0.0000 0.0000 0.0000 0.0000 16.6722
#
#
#
# Elastic Compliance Matrix: (Units=1/GPa)
#
#
# Indices 1 2 3 4 5 6 
#
# 1 0.089738 -0.024858 -0.006731 0.000000 0.000000 0.000000
# 2 -0.024858 0.020728 -0.006500 0.000000 0.000000 0.000000
# 3 -0.006731 -0.006500 0.014271 0.000000 0.000000 0.000000
# 4 0.000000 0.000000 0.000000 0.033263 0.000000 0.000000
# 5 0.000000 0.000000 0.000000 0.000000 0.063600 0.000000
# 6 0.000000 0.000000 0.000000 0.000000 0.000000 0.059980
#
#
# Mechanical properties :
#
#
# Convention : Reuss Voigt Hill
#
# Bulk Modulus (GPa) = 20.59351 57.82558 39.20955
# Shear Modulus (GPa) = 13.37097 20.38286 16.87691
#
# Velocity S-wave (km/s) = 3.08033 3.80320 3.46069
# Velocity P-wave (km/s) = 5.22160 7.76664 6.61762
#
# Compressibility (1/GPa) = 0.04855898
#
# Stress axis : x y z
#
# Youngs Moduli (GPa) = 11.14354 48.24311 70.07367
#
# Poissons Ratio (x) = 1.19923 0.47164
# Poissons Ratio (y) = 0.27701 0.45551
# Poissons Ratio (z) = 0.07500 0.31360
#
# Static dielectric constant tensor:
#      x y z
#    x 2.357460 0.000000 0.000000 
#    y 0.000000 3.060200 0.000000 
#    z 0.000000 0.000000 2.977770 
# 
# 
# High freq. dielectric constant tensor:
#      x y z
#    x 1.465680 0.000000 0.000000 
#    y 0.000000 1.542140 0.000000 
#    z 0.000000 0.000000 1.560680 
# 
# From -- ./inp_files/11029.got.cif
#   From: 2010.03.12/outbox.cif.g09.slc.cpg/sg63_6_cif.got.tgz:11029.got - 2010.04.10 19:34:48.
