data_PCOD8256826
_publ_section_title
;
Structure prediction by ZEFSAII (Michael W. Deem and Ramdas Pophale) SiO2 
 PCOD8256826
Probable space group: C M C M
;
_chemical_formula_sum "Si O2"
_cell_formula_units_Z 96
_cell_length_a 9.141502
_cell_length_b 23.527871
_cell_length_c 26.009979
_cell_angle_alpha 90.000000
_cell_angle_beta 90.000000
_cell_angle_gamma 90.000000
_cell_volume 5594.228359
_symmetry_space_group_name_H-M "C M C M"
_symmetry_group_IT_number 63
_symmetry_cell_setting 'orthorhombic'
loop_
_space_group_symop_operation_xyz
x,y,z
-x,-y,1/2+z
x,-y,-z
-x,y,1/2-z
-x,-y,-z
x,y,1/2-z
-x,y,z
x,-y,1/2+z
1/2+x,1/2+y,z
1/2-x,1/2-y,1/2+z
1/2+x,1/2-y,-z
1/2-x,1/2+y,1/2-z
1/2-x,1/2-y,-z
1/2+x,1/2+y,1/2-z
1/2-x,1/2+y,z
1/2+x,1/2-y,1/2+z
loop_
_atom_site_type_symbol
_atom_site_label
_atom_site_fract_x
_atom_site_fract_y
_atom_site_fract_z
Si Si1 0.164780 0.668671 0.039643
Si Si2 0.832146 0.355864 0.425732
Si Si3 0.672466 0.015667 0.941568
Si Si4 0.827379 0.341380 0.690470
Si Si5 0.164443 0.239069 0.621558
Si Si6 0.826265 0.915543 0.889751
O O1 0.176414 0.729617 0.066570
O O2 0.280852 0.625508 0.063700
O O3 0.000000 0.643240 0.047243
O O4 0.197935 0.675677 0.979694
O O5 0.775488 0.420288 0.429620
O O6 0.752603 0.319915 0.381097
O O7 0.000000 0.355575 0.410467
O O8 0.500000 0.007472 0.932793
O O9 0.761970 0.977602 0.901383
O O10 0.714580 0.000000 0.000000
O O11 0.786541 0.341202 0.750000
O O12 0.775198 0.281402 0.665806
O O13 0.741691 0.393006 0.663700
O O14 0.000000 0.349589 0.680432
O O15 0.000000 0.221857 0.634913
O O16 0.000000 0.918255 0.884976
#
# Coordination Sequence:
#
# PCOD8256826 Si02
#       6
#    16  16  16  16  16  16
#     4   9  17  32  48  66  98 141 178 202 237 298
#     4  10  19  30  48  70  98 139 178 207 242 292
#     4  10  19  34  52  68  98 145 186 214 242 295
#     4   9  19  38  61  78  96 130 171 207 253 315
#     4   9  18  30  48  74 102 127 160 210 258 302
#     4  11  21  31  49  79 108 131 165 218 266 299
#
# _framework density 17.160543000000001
#
# number of rings (size 3 to 8) (size 9 to 14) (size 15 to 20)
#    0.000    2.333    1.667    3.000    0.000    4.667 
#    0.000    0.000    0.000    1.000    0.000    4.667 
#    0.000    0.000    0.000    0.000    0.000    0.000 
#
# Total GULP energy -595102.685577 kJ/mol
# GULP energy per Si atom -12397.972616 kJ/mol
# Density = 1.712148 g / cm^3
# Si number density = 17.160543 Si / 1000 Ang^3
#
#
#
# Elastic Constant Matrix: (Units=GPa)
#
#
# Indices 1 2 3 4 5 6 
#
# 1 73.3075 53.9567 43.5806 0.0000 0.0000 0.0000
# 2 53.9567 113.9964 55.8118 0.0000 0.0000 0.0000
# 3 43.5806 55.8118 93.0369 0.0000 0.0000 0.0000
# 4 0.0000 0.0000 0.0000 17.2024 0.0000 0.0000
# 5 0.0000 0.0000 0.0000 0.0000 18.1978 0.0000
# 6 0.0000 0.0000 0.0000 0.0000 0.0000 30.9363
#
#
#
# Elastic Compliance Matrix: (Units=1/GPa)
#
#
# Indices 1 2 3 4 5 6 
#
# 1 0.023102 -0.007980 -0.006034 0.000000 0.000000 0.000000
# 2 -0.007980 0.015177 -0.005366 0.000000 0.000000 0.000000
# 3 -0.006034 -0.005366 0.016794 0.000000 0.000000 0.000000
# 4 0.000000 0.000000 0.000000 0.058131 0.000000 0.000000
# 5 0.000000 0.000000 0.000000 0.000000 0.054952 0.000000
# 6 0.000000 0.000000 0.000000 0.000000 0.000000 0.032325
#
#
# Mechanical properties :
#
#
# Convention : Reuss Voigt Hill
#
# Bulk Modulus (GPa) = 61.30661 65.22658 63.26659
# Shear Modulus (GPa) = 20.43487 21.73340 21.08414
#
# Velocity S-wave (km/s) = 3.45455 3.56262 3.50900
# Velocity P-wave (km/s) = 7.19130 7.41722 7.30513
#
# Compressibility (1/GPa) = 0.01631146
#
# Stress axis : x y z
#
# Youngs Moduli (GPa) = 43.28560 65.89035 59.54472
#
# Poissons Ratio (x) = 0.52584 0.35931
# Poissons Ratio (y) = 0.34544 0.31952
# Poissons Ratio (z) = 0.26120 0.35358
#
# Static dielectric constant tensor:
#      x y z
#    x 3.081980 0.000000 0.000000 
#    y 0.000000 3.193240 0.000000 
#    z 0.000000 0.000000 2.989090 
# 
# 
# High freq. dielectric constant tensor:
#      x y z
#    x 1.653640 0.000000 0.000000 
#    y 0.000000 1.660840 0.000000 
#    z 0.000000 0.000000 1.631860 
# 
# From -- ./inp_files/67176.got.cif
#   From: 2010.03.12/outbox.cif.g09.slc.cpg/sg63_34_cif.got.tgz:67176.got - 2010.04.10 19:34:48.
