data_PCOD8256254
_publ_section_title
;
Structure prediction by ZEFSAII (Michael W. Deem and Ramdas Pophale) SiO2 
 PCOD8256254
Probable space group: C M C M
;
_chemical_formula_sum "Si O2"
_cell_formula_units_Z 80
_cell_length_a 13.633217
_cell_length_b 18.751225
_cell_length_c 19.130368
_cell_angle_alpha 90.000000
_cell_angle_beta 90.000000
_cell_angle_gamma 90.000000
_cell_volume 4890.478082
_symmetry_space_group_name_H-M "C M C M"
_symmetry_group_IT_number 63
_symmetry_cell_setting 'orthorhombic'
loop_
_space_group_symop_operation_xyz
x,y,z
-x,-y,1/2+z
x,-y,-z
-x,y,1/2-z
-x,-y,-z
x,y,1/2-z
-x,y,z
x,-y,1/2+z
1/2+x,1/2+y,z
1/2-x,1/2-y,1/2+z
1/2+x,1/2-y,-z
1/2-x,1/2+y,1/2-z
1/2-x,1/2-y,-z
1/2+x,1/2+y,1/2-z
1/2-x,1/2+y,z
1/2+x,1/2-y,1/2+z
loop_
_atom_site_type_symbol
_atom_site_label
_atom_site_fract_x
_atom_site_fract_y
_atom_site_fract_z
Si Si1 0.887065 0.031550 0.572493
Si Si2 0.385652 0.305029 0.046354
Si Si3 0.246273 0.057152 0.168046
Si Si4 0.246466 0.682643 0.423169
Si Si5 0.888751 0.437653 0.945179
O O1 0.872482 0.116053 0.576729
O O2 0.000000 0.009541 0.575896
O O3 0.841784 0.000000 0.500000
O O4 0.837267 0.995263 0.639156
O O5 0.500000 0.282703 0.046101
O O6 0.343789 0.298751 0.967240
O O7 0.319491 0.252391 0.094509
O O8 0.255285 0.047912 0.250000
O O9 0.222032 0.140243 0.147510
O O10 0.349124 0.035635 0.130754
O O11 0.176714 0.629926 0.469769
O O12 0.000000 0.412598 0.937199
O O13 0.876485 0.500000 0.000000
#
# Coordination Sequence:
#
# PCOD8256254 Si02
#       5
#    16  16  16  16  16
#     4  10  18  32  54  77 104 136 175 219 261 306
#     4  10  18  31  53  77 102 132 171 220 265 303
#     4  10  20  33  49  73 106 140 170 207 261 318
#     4   9  19  31  48  77 102 133 172 212 259 312
#     4   9  17  31  51  73  98 131 174 220 259 300
#
# _framework density 16.358319000000002
#
# number of rings (size 3 to 8) (size 9 to 14) (size 15 to 20)
#    1.200    1.200    2.000    2.400    0.000    0.800 
#    0.000    1.000    0.000    1.200    0.000    0.000 
#    0.000    3.200    0.000    0.000    0.000    0.000 
#
# Total GULP energy -495564.851236 kJ/mol
# GULP energy per Si atom -12389.121281 kJ/mol
# Density = 1.632109 g / cm^3
# Si number density = 16.358319 Si / 1000 Ang^3
#
#
#
# Elastic Constant Matrix: (Units=GPa)
#
#
# Indices 1 2 3 4 5 6 
#
# 1 70.1359 31.4376 23.1057 0.0000 0.0000 0.0000
# 2 31.4376 86.0479 26.7126 0.0000 0.0000 0.0000
# 3 23.1057 26.7126 96.4571 0.0000 0.0000 0.0000
# 4 0.0000 0.0000 0.0000 18.6992 0.0000 0.0000
# 5 0.0000 0.0000 0.0000 0.0000 5.6833 0.0000
# 6 0.0000 0.0000 0.0000 0.0000 0.0000 27.4937
#
#
#
# Elastic Compliance Matrix: (Units=1/GPa)
#
#
# Indices 1 2 3 4 5 6 
#
# 1 0.017659 -0.005622 -0.002673 0.000000 0.000000 0.000000
# 2 -0.005622 0.014504 -0.002670 0.000000 0.000000 0.000000
# 3 -0.002673 -0.002670 0.011747 0.000000 0.000000 0.000000
# 4 0.000000 0.000000 0.000000 0.053478 0.000000 0.000000
# 5 0.000000 0.000000 0.000000 0.000000 0.175953 0.000000
# 6 0.000000 0.000000 0.000000 0.000000 0.000000 0.036372
#
#
# Mechanical properties :
#
#
# Convention : Reuss Voigt Hill
#
# Bulk Modulus (GPa) = 45.49601 46.12808 45.81205
# Shear Modulus (GPa) = 14.75058 21.80091 18.27575
#
# Velocity S-wave (km/s) = 3.00612 3.65459 3.34610
# Velocity P-wave (km/s) = 6.31835 6.78733 6.55703
#
# Compressibility (1/GPa) = 0.02197995
#
# Stress axis : x y z
#
# Youngs Moduli (GPa) = 56.62978 68.94540 85.12749
#
# Poissons Ratio (x) = 0.38759 0.22756
# Poissons Ratio (y) = 0.31836 0.22730
# Poissons Ratio (z) = 0.15138 0.18409
#
# Static dielectric constant tensor:
#      x y z
#    x 3.213930 0.000000 0.000000 
#    y 0.000000 3.189630 0.000000 
#    z 0.000000 0.000000 2.616070 
# 
# 
# High freq. dielectric constant tensor:
#      x y z
#    x 1.639670 0.000000 0.000000 
#    y 0.000000 1.635720 0.000000 
#    z 0.000000 0.000000 1.577970 
# 
# From -- ./inp_files/44224.got.cif
#   From: 2010.03.12/outbox.cif.g09.slc.cpg/sg63_23_cif.got.tgz:44224.got - 2010.04.10 19:34:48.
