data_PCOD8256187
_publ_section_title
;
Structure prediction by ZEFSAII (Michael W. Deem and Ramdas Pophale) SiO2 
 PCOD8256187
Probable space group: C M C M
;
_chemical_formula_sum "Si O2"
_cell_formula_units_Z 96
_cell_length_a 12.960786
_cell_length_b 23.288695
_cell_length_c 18.287445
_cell_angle_alpha 90.000000
_cell_angle_beta 90.000000
_cell_angle_gamma 90.000000
_cell_volume 5519.878597
_symmetry_space_group_name_H-M "C M C M"
_symmetry_group_IT_number 63
_symmetry_cell_setting 'orthorhombic'
loop_
_space_group_symop_operation_xyz
x,y,z
-x,-y,1/2+z
x,-y,-z
-x,y,1/2-z
-x,-y,-z
x,y,1/2-z
-x,y,z
x,-y,1/2+z
1/2+x,1/2+y,z
1/2-x,1/2-y,1/2+z
1/2+x,1/2-y,-z
1/2-x,1/2+y,1/2-z
1/2-x,1/2-y,-z
1/2+x,1/2+y,1/2-z
1/2-x,1/2+y,z
1/2+x,1/2-y,1/2+z
loop_
_atom_site_type_symbol
_atom_site_label
_atom_site_fract_x
_atom_site_fract_y
_atom_site_fract_z
Si Si1 0.878044 0.491797 0.168606
Si Si2 0.325168 0.783151 0.598983
Si Si3 0.114561 0.739056 0.934999
Si Si4 0.879430 0.594750 0.067969
Si Si5 0.382555 0.329743 0.332852
Si Si6 0.696318 0.881389 0.411278
O O1 0.834711 0.503068 0.250000
O O2 0.837024 0.541383 0.114738
O O3 0.841842 0.429701 0.143405
O O4 0.000000 0.493775 0.168767
O O5 0.199897 0.781604 0.598953
O O6 0.370845 0.763172 0.521671
O O7 0.362663 0.847643 0.616046
O O8 0.368953 0.739070 0.658637
O O9 0.126417 0.675212 0.901395
O O10 0.000000 0.761959 0.916109
O O11 0.000000 0.587765 0.046871
O O12 0.810668 0.596820 0.994741
O O13 0.350535 0.345574 0.250000
O O14 0.500000 0.347502 0.348077
O O15 0.313742 0.364716 0.391117
#
# Coordination Sequence:
#
# PCOD8256187 Si02
#       6
#    16  16  16  16  16  16
#     4  10  20  32  48  72  99 127 160 198 243 294
#     4   9  17  28  45  68  94 124 155 188 232 285
#     4   9  16  27  46  71  95 120 152 192 235 277
#     4  10  19  31  49  73 100 130 163 201 244 287
#     4  10  20  32  48  71  98 128 161 201 249 293
#     4  10  18  31  50  70  95 126 161 198 242 289
#
# _framework density 17.391686
#
# number of rings (size 3 to 8) (size 9 to 14) (size 15 to 20)
#    0.000    2.333    0.000    6.000    0.000    2.000 
#    0.000    1.667    0.000    8.500    0.000    0.000 
#    0.000    0.000    0.000    0.000    0.000    0.000 
#
# Total GULP energy -595093.591618 kJ/mol
# GULP energy per Si atom -12397.783159 kJ/mol
# Density = 1.735210 g / cm^3
# Si number density = 17.391686 Si / 1000 Ang^3
#
#
#
# Elastic Constant Matrix: (Units=GPa)
#
#
# Indices 1 2 3 4 5 6 
#
# 1 67.7111 2.1012 45.0391 0.0000 0.0000 0.0000
# 2 2.1012 48.9783 42.2374 0.0000 0.0000 0.0000
# 3 45.0391 42.2374 88.2532 0.0000 0.0000 0.0000
# 4 0.0000 0.0000 0.0000 25.9822 0.0000 0.0000
# 5 0.0000 0.0000 0.0000 0.0000 22.0218 0.0000
# 6 0.0000 0.0000 0.0000 0.0000 0.0000 22.1157
#
#
#
# Elastic Compliance Matrix: (Units=1/GPa)
#
#
# Indices 1 2 3 4 5 6 
#
# 1 0.031677 0.021425 -0.026420 0.000000 0.000000 0.000000
# 2 0.021425 0.049257 -0.034508 0.000000 0.000000 0.000000
# 3 -0.026420 -0.034508 0.041329 0.000000 0.000000 0.000000
# 4 0.000000 0.000000 0.000000 0.038488 0.000000 0.000000
# 5 0.000000 0.000000 0.000000 0.000000 0.045410 0.000000
# 6 0.000000 0.000000 0.000000 0.000000 0.000000 0.045217
#
#
# Mechanical properties :
#
#
# Convention : Reuss Voigt Hill
#
# Bulk Modulus (GPa) = 23.11740 42.63311 32.87525
# Shear Modulus (GPa) = 14.50105 21.72828 18.11467
#
# Velocity S-wave (km/s) = 2.89068 3.53845 3.23084
# Velocity P-wave (km/s) = 4.94595 6.42346 5.73251
#
# Compressibility (1/GPa) = 0.04325746
#
# Stress axis : x y z
#
# Youngs Moduli (GPa) = 31.56820 20.30186 24.19585
#
# Poissons Ratio (x) = -0.43496 0.63925
# Poissons Ratio (y) = -0.67634 0.83495
# Poissons Ratio (z) = 0.83403 0.70057
#
# Static dielectric constant tensor:
#      x y z
#    x 3.180560 0.000000 0.000000 
#    y 0.000000 3.333010 0.000000 
#    z 0.000000 0.000000 3.226990 
# 
# 
# High freq. dielectric constant tensor:
#      x y z
#    x 1.657680 0.000000 0.000000 
#    y 0.000000 1.662240 0.000000 
#    z 0.000000 0.000000 1.659990 
# 
# From -- ./inp_files/42498.got.cif
#   From: 2010.03.12/outbox.cif.g09.slc.cpg/sg63_22_cif.got.tgz:42498.got - 2010.04.10 19:34:48.
