data_PCOD8256706
_publ_section_title
;
Structure prediction by ZEFSAII (Michael W. Deem and Ramdas Pophale) SiO2 
 PCOD8256706
Probable space group: C M C M
;
_chemical_formula_sum "Si O2"
_cell_formula_units_Z 80
_cell_length_a 29.284351
_cell_length_b 22.433001
_cell_length_c 8.850110
_cell_angle_alpha 90.000000
_cell_angle_beta 90.000000
_cell_angle_gamma 90.000000
_cell_volume 5813.954759
_symmetry_space_group_name_H-M "C M C M"
_symmetry_group_IT_number 63
_symmetry_cell_setting 'orthorhombic'
loop_
_space_group_symop_operation_xyz
x,y,z
-x,-y,1/2+z
x,-y,-z
-x,y,1/2-z
-x,-y,-z
x,y,1/2-z
-x,y,z
x,-y,1/2+z
1/2+x,1/2+y,z
1/2-x,1/2-y,1/2+z
1/2+x,1/2-y,-z
1/2-x,1/2+y,1/2-z
1/2-x,1/2-y,-z
1/2+x,1/2+y,1/2-z
1/2-x,1/2+y,z
1/2+x,1/2-y,1/2+z
loop_
_atom_site_type_symbol
_atom_site_label
_atom_site_fract_x
_atom_site_fract_y
_atom_site_fract_z
Si Si1 0.216145 0.063084 0.429050
Si Si2 0.631722 0.371074 0.070071
Si Si3 0.730539 0.837631 0.417098
Si Si4 0.947277 0.937271 0.573871
Si Si5 0.819252 0.756516 0.416638
O O1 0.212153 0.058502 0.250000
O O2 0.167910 0.084220 0.495792
O O3 0.257073 0.108024 0.472482
O O4 0.228982 0.000000 0.500000
O O5 0.634700 0.378656 0.250000
O O6 0.642242 0.302488 0.022648
O O7 0.581653 0.385869 0.007689
O O8 0.719276 0.862384 0.250000
O O9 0.772383 0.792593 0.408553
O O10 0.686240 0.801421 0.477458
O O11 0.935291 0.940329 0.750000
O O12 0.000000 0.921651 0.545681
O O13 0.934091 0.000000 0.500000
O O14 0.832440 0.733504 0.250000
#
# Coordination Sequence:
#
# PCOD8256706 Si02
#       5
#    16  16  16  16  16
#     4  11  20  29  40  54  75 100 127 158 191 225
#     4  10  19  30  43  58  75  95 124 159 193 229
#     4   9  16  26  39  55  74  95 121 151 184 221
#     4  10  20  32  44  57  74  97 125 157 195 236
#     4   8  15  26  39  55  73  94 119 149 185 222
#
# _framework density 13.759998
#
# number of rings (size 3 to 8) (size 9 to 14) (size 15 to 20)
#    0.000    2.400    0.000    5.400    0.000    6.800 
#    0.000    0.000    0.000    0.000    0.000    0.000 
#    0.000    0.000    0.000    0.000    0.000    1.000 
#
# Total GULP energy -495889.330580 kJ/mol
# GULP energy per Si atom -12397.233264 kJ/mol
# Density = 1.372868 g / cm^3
# Si number density = 13.759998 Si / 1000 Ang^3
#
#
#
# Elastic Constant Matrix: (Units=GPa)
#
#
# Indices 1 2 3 4 5 6 
#
# 1 56.6869 41.7510 34.5292 0.0000 0.0000 0.0000
# 2 41.7510 66.9102 41.6864 0.0000 0.0000 0.0000
# 3 34.5292 41.6864 101.5430 0.0000 0.0000 0.0000
# 4 0.0000 0.0000 0.0000 23.1642 0.0000 0.0000
# 5 0.0000 0.0000 0.0000 0.0000 18.9121 0.0000
# 6 0.0000 0.0000 0.0000 0.0000 0.0000 20.1742
#
#
#
# Elastic Compliance Matrix: (Units=1/GPa)
#
#
# Indices 1 2 3 4 5 6 
#
# 1 0.033699 -0.018661 -0.003798 0.000000 0.000000 0.000000
# 2 -0.018661 0.030416 -0.006141 0.000000 0.000000 0.000000
# 3 -0.003798 -0.006141 0.013661 0.000000 0.000000 0.000000
# 4 0.000000 0.000000 0.000000 0.043170 0.000000 0.000000
# 5 0.000000 0.000000 0.000000 0.000000 0.052876 0.000000
# 6 0.000000 0.000000 0.000000 0.000000 0.000000 0.049568
#
#
# Mechanical properties :
#
#
# Convention : Reuss Voigt Hill
#
# Bulk Modulus (GPa) = 48.60379 51.23038 49.91708
# Shear Modulus (GPa) = 17.39446 19.59499 18.49473
#
# Velocity S-wave (km/s) = 3.55932 3.77776 3.67017
# Velocity P-wave (km/s) = 7.23124 7.50605 7.36993
#
# Compressibility (1/GPa) = 0.02057453
#
# Stress axis : x y z
#
# Youngs Moduli (GPa) = 29.67480 32.87791 73.20340
#
# Poissons Ratio (x) = 0.61354 0.27803
# Poissons Ratio (y) = 0.55377 0.44953
# Poissons Ratio (z) = 0.11271 0.20190
#
# Static dielectric constant tensor:
#      x y z
#    x 2.519870 0.000000 0.000000 
#    y 0.000000 2.732310 0.000000 
#    z 0.000000 0.000000 2.958200 
# 
# 
# High freq. dielectric constant tensor:
#      x y z
#    x 1.478110 0.000000 0.000000 
#    y 0.000000 1.507520 0.000000 
#    z 0.000000 0.000000 1.545170 
# 
# From -- ./inp_files/14025.got.cif
#   From: 2010.03.12/outbox.cif.g09.slc.cpg/sg63_8_cif.got.tgz:14025.got - 2010.04.10 19:34:48.
