data_PCOD8256710
_publ_section_title
;
Structure prediction by ZEFSAII (Michael W. Deem and Ramdas Pophale) SiO2 
 PCOD8256710
Probable space group: C M C M
;
_chemical_formula_sum "Si O2"
_cell_formula_units_Z 72
_cell_length_a 22.653962
_cell_length_b 23.165302
_cell_length_c 8.755473
_cell_angle_alpha 90.000000
_cell_angle_beta 90.000000
_cell_angle_gamma 90.000000
_cell_volume 4594.748526
_symmetry_space_group_name_H-M "C M C M"
_symmetry_group_IT_number 63
_symmetry_cell_setting 'orthorhombic'
loop_
_space_group_symop_operation_xyz
x,y,z
-x,-y,1/2+z
x,-y,-z
-x,y,1/2-z
-x,-y,-z
x,y,1/2-z
-x,y,z
x,-y,1/2+z
1/2+x,1/2+y,z
1/2-x,1/2-y,1/2+z
1/2+x,1/2-y,-z
1/2-x,1/2+y,1/2-z
1/2-x,1/2-y,-z
1/2+x,1/2+y,1/2-z
1/2-x,1/2+y,z
1/2+x,1/2-y,1/2+z
loop_
_atom_site_type_symbol
_atom_site_label
_atom_site_fract_x
_atom_site_fract_y
_atom_site_fract_z
Si Si1 0.207786 0.172145 0.418274
Si Si2 0.500000 0.063368 0.068659
Si Si3 0.384252 0.116723 0.930288
Si Si4 0.336901 0.774932 0.918530
Si Si5 0.730194 0.060449 0.432260
O O1 0.179452 0.169697 0.250000
O O2 0.270321 0.203617 0.410137
O O3 0.162917 0.208420 0.523904
O O4 0.219673 0.107258 0.479743
O O5 0.500000 0.059092 0.250000
O O6 0.443512 0.097950 0.012255
O O7 0.500000 0.000000 0.000000
O O8 0.389540 0.108236 0.750000
O O9 0.373624 0.184149 0.968067
O O10 0.332118 0.076600 0.993269
O O11 0.365660 0.776805 0.750000
O O12 0.722269 0.058553 0.250000
O O13 0.752096 0.000000 0.500000
#
# Coordination Sequence:
#
# PCOD8256710 Si02
#       5
#    16   8  16  16  16
#     4   8  15  26  40  59  82 107 135 168 205 248
#     4  12  24  38  50  62  82 108 143 182 219 254
#     4  11  21  33  47  62  81 108 142 178 217 254
#     4   9  16  27  43  62  81 103 134 171 210 249
#     4  10  19  30  43  61  85 113 144 175 210 250
#
# _framework density 15.670064
#
# number of rings (size 3 to 8) (size 9 to 14) (size 15 to 20)
#    0.000    2.222    0.000    6.333    0.000    6.222 
#    0.000    0.000    0.000    0.000    0.000    0.000 
#    0.000    0.000    0.000    1.000    0.000   13.556 
#
# Total GULP energy -446257.134697 kJ/mol
# GULP energy per Si atom -12396.031519 kJ/mol
# Density = 1.563440 g / cm^3
# Si number density = 15.670064 Si / 1000 Ang^3
#
#
#
# Elastic Constant Matrix: (Units=GPa)
#
#
# Indices 1 2 3 4 5 6 
#
# 1 29.7601 35.3849 21.7983 0.0000 0.0000 0.0000
# 2 35.3849 135.4313 49.4850 0.0000 0.0000 0.0000
# 3 21.7983 49.4850 112.8071 0.0000 0.0000 0.0000
# 4 0.0000 0.0000 0.0000 28.4978 0.0000 0.0000
# 5 0.0000 0.0000 0.0000 0.0000 18.8338 0.0000
# 6 0.0000 0.0000 0.0000 0.0000 0.0000 15.6268
#
#
#
# Elastic Compliance Matrix: (Units=1/GPa)
#
#
# Indices 1 2 3 4 5 6 
#
# 1 0.050802 -0.011535 -0.004757 0.000000 0.000000 0.000000
# 2 -0.011535 0.011412 -0.002777 0.000000 0.000000 0.000000
# 3 -0.004757 -0.002777 0.011002 0.000000 0.000000 0.000000
# 4 0.000000 0.000000 0.000000 0.035090 0.000000 0.000000
# 5 0.000000 0.000000 0.000000 0.000000 0.053096 0.000000
# 6 0.000000 0.000000 0.000000 0.000000 0.000000 0.063993
#
#
# Mechanical properties :
#
#
# Convention : Reuss Voigt Hill
#
# Bulk Modulus (GPa) = 28.50782 54.59277 41.55030
# Shear Modulus (GPa) = 18.16689 24.01371 21.09030
#
# Velocity S-wave (km/s) = 3.40860 3.91891 3.67263
# Velocity P-wave (km/s) = 5.80719 7.44256 6.67514
#
# Compressibility (1/GPa) = 0.03507809
#
# Stress axis : x y z
#
# Youngs Moduli (GPa) = 19.68443 87.62336 90.89156
#
# Poissons Ratio (x) = 1.01076 0.43233
# Poissons Ratio (y) = 0.22706 0.25243
# Poissons Ratio (z) = 0.09363 0.24335
#
# Static dielectric constant tensor:
#      x y z
#    x 2.646610 0.000000 0.000000 
#    y 0.000000 3.293870 0.000000 
#    z 0.000000 0.000000 3.250490 
# 
# 
# High freq. dielectric constant tensor:
#      x y z
#    x 1.535890 0.000000 0.000000 
#    y 0.000000 1.607530 0.000000 
#    z 0.000000 0.000000 1.620740 
# 
# From -- ./inp_files/6111.got.cif
#   From: 2010.03.12/outbox.cif.g09.slc.cpg/sg63_4_cif.got.tgz:6111.got - 2010.04.10 19:34:48.
