data_PCOD8256603
_publ_section_title
;
Structure prediction by ZEFSAII (Michael W. Deem and Ramdas Pophale) SiO2 
 PCOD8256603
Probable space group: C M C M
;
_chemical_formula_sum "Si O2"
_cell_formula_units_Z 96
_cell_length_a 8.895327
_cell_length_b 30.936675
_cell_length_c 19.070681
_cell_angle_alpha 90.000000
_cell_angle_beta 90.000000
_cell_angle_gamma 90.000000
_cell_volume 5248.095802
_symmetry_space_group_name_H-M "C M C M"
_symmetry_group_IT_number 63
_symmetry_cell_setting 'orthorhombic'
loop_
_space_group_symop_operation_xyz
x,y,z
-x,-y,1/2+z
x,-y,-z
-x,y,1/2-z
-x,-y,-z
x,y,1/2-z
-x,y,z
x,-y,1/2+z
1/2+x,1/2+y,z
1/2-x,1/2-y,1/2+z
1/2+x,1/2-y,-z
1/2-x,1/2+y,1/2-z
1/2-x,1/2-y,-z
1/2+x,1/2+y,1/2-z
1/2-x,1/2+y,z
1/2+x,1/2-y,1/2+z
loop_
_atom_site_type_symbol
_atom_site_label
_atom_site_fract_x
_atom_site_fract_y
_atom_site_fract_z
Si Si1 0.678503 0.703749 0.327735
Si Si2 0.325386 0.199117 0.668668
Si Si3 0.320376 0.373479 0.577624
Si Si4 0.321228 0.451206 0.828690
Si Si5 0.178459 0.125557 0.580303
Si Si6 0.678783 0.452926 0.171420
O O1 0.741425 0.692816 0.250000
O O2 0.500000 0.701294 0.324927
O O3 0.726478 0.752098 0.349786
O O4 0.742622 0.669223 0.383291
O O5 0.292894 0.189067 0.750000
O O6 0.500000 0.192268 0.651476
O O7 0.227522 0.168225 0.620602
O O8 0.500000 0.373612 0.578135
O O9 0.256481 0.415792 0.617500
O O10 0.257495 0.373642 0.498645
O O11 0.263531 0.440881 0.750000
O O12 0.500000 0.449566 0.829064
O O13 0.266704 0.499170 0.851861
O O14 0.245057 0.082978 0.618727
O O15 0.000000 0.123998 0.579526
O O16 0.737058 0.442792 0.250000
O O17 0.500000 0.451346 0.170649
#
# Coordination Sequence:
#
# PCOD8256603 Si02
#       6
#    16  16  16  16  16  16
#     4   8  14  26  43  60  80 109 145 184 218 244
#     4   9  18  32  48  63  80 109 149 184 211 246
#     4   9  16  24  37  61  89 114 141 173 213 260
#     4   8  13  22  37  57  83 115 147 177 209 247
#     4  10  19  28  41  65  95 119 136 166 216 263
#     4   8  14  24  37  55  82 115 145 172 207 249
#
# _framework density 18.292349999999999
#
# number of rings (size 3 to 8) (size 9 to 14) (size 15 to 20)
#    0.000    3.333    0.000    3.000    0.000    4.333 
#    0.000    3.333    0.000    0.000    0.000    2.333 
#    0.000    3.333    0.000    0.333    0.000    0.000 
#
# Total GULP energy -594899.394228 kJ/mol
# GULP energy per Si atom -12393.737380 kJ/mol
# Density = 1.825072 g / cm^3
# Si number density = 18.292350 Si / 1000 Ang^3
#
#
#
# Elastic Constant Matrix: (Units=GPa)
#
#
# Indices 1 2 3 4 5 6 
#
# 1 3.6885 8.3394 9.4003 0.0000 0.0000 0.0000
# 2 8.3394 171.2941 107.3318 0.0000 0.0000 0.0000
# 3 9.4003 107.3318 144.1432 0.0000 0.0000 0.0000
# 4 0.0000 0.0000 0.0000 19.5010 0.0000 0.0000
# 5 0.0000 0.0000 0.0000 0.0000 11.6254 0.0000
# 6 0.0000 0.0000 0.0000 0.0000 0.0000 16.0535
#
#
#
# Elastic Compliance Matrix: (Units=1/GPa)
#
#
# Indices 1 2 3 4 5 6 
#
# 1 0.327247 -0.004798 -0.017768 0.000000 0.000000 0.000000
# 2 -0.004798 0.011015 -0.007889 0.000000 0.000000 0.000000
# 3 -0.017768 -0.007889 0.013970 0.000000 0.000000 0.000000
# 4 0.000000 0.000000 0.000000 0.051279 0.000000 0.000000
# 5 0.000000 0.000000 0.000000 0.000000 0.086018 0.000000
# 6 0.000000 0.000000 0.000000 0.000000 0.000000 0.062292
#
#
# Mechanical properties :
#
#
# Convention : Reuss Voigt Hill
#
# Bulk Modulus (GPa) = 3.43264 63.25210 33.34237
# Shear Modulus (GPa) = 7.04384 22.37295 14.70840
#
# Velocity S-wave (km/s) = 1.96445 3.50105 2.83870
# Velocity P-wave (km/s) = 2.65067 7.14119 5.38622
#
# Compressibility (1/GPa) = 0.29132113
#
# Stress axis : x y z
#
# Youngs Moduli (GPa) = 3.05579 90.78905 71.57993
#
# Poissons Ratio (x) = 0.43565 1.27186
# Poissons Ratio (y) = 0.01466 0.56467
# Poissons Ratio (z) = 0.05430 0.71621
#
# Static dielectric constant tensor:
#      x y z
#    x 2.597730 0.000000 0.000000 
#    y 0.000000 3.737450 0.000000 
#    z 0.000000 0.000000 3.634060 
# 
# 
# High freq. dielectric constant tensor:
#      x y z
#    x 1.627480 0.000000 0.000000 
#    y 0.000000 1.727180 0.000000 
#    z 0.000000 0.000000 1.710070 
# 
# From -- ./inp_files/42700.got.cif
#   From: 2010.03.12/outbox.cif.g09.slc.cpg/sg63_22_cif.got.tgz:42700.got - 2010.04.10 19:34:48.
