data_PCOD8256708
_publ_section_title
;
Structure prediction by ZEFSAII (Michael W. Deem and Ramdas Pophale) SiO2 
 PCOD8256708
Probable space group: C M C M
;
_chemical_formula_sum "Si O2"
_cell_formula_units_Z 104
_cell_length_a 28.774420
_cell_length_b 24.021879
_cell_length_c 9.529866
_cell_angle_alpha 90.000000
_cell_angle_beta 90.000000
_cell_angle_gamma 90.000000
_cell_volume 6587.192384
_symmetry_space_group_name_H-M "C M C M"
_symmetry_group_IT_number 63
_symmetry_cell_setting 'orthorhombic'
loop_
_space_group_symop_operation_xyz
x,y,z
-x,-y,1/2+z
x,-y,-z
-x,y,1/2-z
-x,-y,-z
x,y,1/2-z
-x,y,z
x,-y,1/2+z
1/2+x,1/2+y,z
1/2-x,1/2-y,1/2+z
1/2+x,1/2-y,-z
1/2-x,1/2+y,1/2-z
1/2-x,1/2-y,-z
1/2+x,1/2+y,1/2-z
1/2-x,1/2+y,z
1/2+x,1/2-y,1/2+z
loop_
_atom_site_type_symbol
_atom_site_label
_atom_site_fract_x
_atom_site_fract_y
_atom_site_fract_z
Si Si1 0.374464 0.942984 0.914462
Si Si2 0.551532 0.145319 0.083213
Si Si3 0.500000 0.556211 0.086346
Si Si4 0.587749 0.369282 0.914177
Si Si5 0.273649 0.946385 0.591713
Si Si6 0.827000 0.943452 0.912993
Si Si7 0.054132 0.229929 0.911919
O O1 0.383485 0.955309 0.750000
O O2 0.411431 0.898952 0.975829
O O3 0.322786 0.914996 0.936954
O O4 0.379988 0.000000 0.000000
O O5 0.551179 0.144717 0.250000
O O6 0.500000 0.129524 0.027118
O O7 0.565057 0.207531 0.034492
O O8 0.500000 0.541036 0.250000
O O9 0.545210 0.591104 0.043779
O O10 0.500000 0.500000 0.000000
O O11 0.587205 0.355585 0.750000
O O12 0.635241 0.398803 0.962929
O O13 0.585019 0.311422 0.996234
O O14 0.273728 0.967984 0.750000
O O15 0.224465 0.914962 0.563068
O O16 0.273585 0.000000 0.500000
O O17 0.835210 0.958476 0.750000
O O18 0.832811 0.000000 0.000000
O O19 0.068107 0.222585 0.750000
O O20 0.000000 0.216502 0.934015
#
# Coordination Sequence:
#
# PCOD8256708 Si02
#       7
#    16  16   8  16  16  16  16
#     4   9  16  27  45  67  91 116 139 168 207 250
#     4   8  15  28  45  65  88 113 142 176 209 243
#     4  10  20  30  40  58  84 110 135 166 211 260
#     4  10  19  30  43  60  84 111 138 175 219 256
#     4   8  14  25  41  61  83 110 142 170 201 245
#     4   9  17  28  42  61  85 111 140 174 211 252
#     4   9  17  30  47  63  78 105 148 184 208 244
#
# _framework density 15.788213000000001
#
# number of rings (size 3 to 8) (size 9 to 14) (size 15 to 20)
#    0.000    3.077    0.769    1.385    0.000    1.538 
#    0.000    0.769    0.000    1.846    0.000    0.000 
#    0.000    0.000    0.000    0.000    0.000    0.000 
#
# Total GULP energy -644229.211958 kJ/mol
# GULP energy per Si atom -12389.023307 kJ/mol
# Density = 1.575228 g / cm^3
# Si number density = 15.788213 Si / 1000 Ang^3
#
#
#
# Elastic Constant Matrix: (Units=GPa)
#
#
# Indices 1 2 3 4 5 6 
#
# 1 151.4821 80.6881 34.7296 0.0000 0.0000 0.0000
# 2 80.6881 100.3380 34.1855 0.0000 0.0000 0.0000
# 3 34.7296 34.1855 33.7233 0.0000 0.0000 0.0000
# 4 0.0000 0.0000 0.0000 22.0166 0.0000 0.0000
# 5 0.0000 0.0000 0.0000 0.0000 15.7695 0.0000
# 6 0.0000 0.0000 0.0000 0.0000 0.0000 12.5425
#
#
#
# Elastic Compliance Matrix: (Units=1/GPa)
#
#
# Indices 1 2 3 4 5 6 
#
# 1 0.011873 -0.008222 -0.003893 0.000000 0.000000 0.000000
# 2 -0.008222 0.020917 -0.012737 0.000000 0.000000 0.000000
# 3 -0.003893 -0.012737 0.046574 0.000000 0.000000 0.000000
# 4 0.000000 0.000000 0.000000 0.045420 0.000000 0.000000
# 5 0.000000 0.000000 0.000000 0.000000 0.063414 0.000000
# 6 0.000000 0.000000 0.000000 0.000000 0.000000 0.079729
#
#
# Mechanical properties :
#
#
# Convention : Reuss Voigt Hill
#
# Bulk Modulus (GPa) = 33.71446 64.97220 49.34333
# Shear Modulus (GPa) = 15.26627 19.12838 17.19732
#
# Velocity S-wave (km/s) = 3.11294 3.48452 3.30396
# Velocity P-wave (km/s) = 5.85842 7.57832 6.77318
#
# Compressibility (1/GPa) = 0.02966086
#
# Stress axis : x y z
#
# Youngs Moduli (GPa) = 84.22200 47.80688 21.47105
#
# Poissons Ratio (x) = 0.39305 0.08359
# Poissons Ratio (y) = 0.69245 0.27348
# Poissons Ratio (z) = 0.32790 0.60892
#
# Static dielectric constant tensor:
#      x y z
#    x 3.694920 0.000000 0.000000 
#    y 0.000000 1.902630 0.000000 
#    z 0.000000 0.000000 2.865090 
# 
# 
# High freq. dielectric constant tensor:
#      x y z
#    x 1.618310 0.000000 0.000000 
#    y 0.000000 1.575690 0.000000 
#    z 0.000000 0.000000 1.593810 
# 
# From -- ./inp_files/14679.got.cif
#   From: 2010.03.12/outbox.cif.g09.slc.cpg/sg63_8_cif.got.tgz:14679.got - 2010.04.10 19:34:48.
