data_PCOD8256604
_publ_section_title
;
Structure prediction by ZEFSAII (Michael W. Deem and Ramdas Pophale) SiO2 
 PCOD8256604
Probable space group: C M C M
;
_chemical_formula_sum "Si O2"
_cell_formula_units_Z 112
_cell_length_a 13.655276
_cell_length_b 28.795301
_cell_length_c 17.983858
_cell_angle_alpha 90.000000
_cell_angle_beta 90.000000
_cell_angle_gamma 90.000000
_cell_volume 7071.392928
_symmetry_space_group_name_H-M "C M C M"
_symmetry_group_IT_number 63
_symmetry_cell_setting 'orthorhombic'
loop_
_space_group_symop_operation_xyz
x,y,z
-x,-y,1/2+z
x,-y,-z
-x,y,1/2-z
-x,-y,-z
x,y,1/2-z
-x,y,z
x,-y,1/2+z
1/2+x,1/2+y,z
1/2-x,1/2-y,1/2+z
1/2+x,1/2-y,-z
1/2-x,1/2+y,1/2-z
1/2-x,1/2-y,-z
1/2+x,1/2+y,1/2-z
1/2-x,1/2+y,z
1/2+x,1/2-y,1/2+z
loop_
_atom_site_type_symbol
_atom_site_label
_atom_site_fract_x
_atom_site_fract_y
_atom_site_fract_z
Si Si1 0.612033 0.320502 0.661936
Si Si2 0.391172 0.690497 0.663218
Si Si3 0.386701 0.488284 0.085376
Si Si4 0.386429 0.159798 0.663869
Si Si5 0.273769 0.759362 0.414440
Si Si6 0.786908 0.904526 0.335262
Si Si7 0.615715 0.422682 0.668834
O O1 0.626950 0.316024 0.750000
O O2 0.500000 0.308171 0.641446
O O3 0.684632 0.287754 0.618367
O O4 0.639872 0.372373 0.633910
O O5 0.384446 0.700174 0.750000
O O6 0.500000 0.694967 0.632009
O O7 0.329578 0.729998 0.622991
O O8 0.354625 0.639042 0.644589
O O9 0.500000 0.477547 0.107488
O O10 0.317324 0.445865 0.109659
O O11 0.342711 0.534622 0.122288
O O12 0.377625 0.500000 0.000000
O O13 0.370203 0.176881 0.750000
O O14 0.500000 0.149329 0.648214
O O15 0.349332 0.198935 0.605877
O O16 0.325709 0.111928 0.651916
O O17 0.250000 0.750000 0.500000
O O18 0.803451 0.920683 0.250000
O O19 0.663933 0.426033 0.750000
O O20 0.500000 0.427255 0.675033
#
# Coordination Sequence:
#
# PCOD8256604 Si02
#       7
#    16  16  16  16  16  16  16
#     4   9  17  31  50  67  86 118 158 196 230 265
#     4   9  18  32  47  64  89 120 154 190 225 269
#     4  10  19  28  41  65  98 130 152 177 221 278
#     4   9  18  34  54  73  93 119 157 204 243 276
#     4  11  21  29  43  69  97 123 150 183 231 284
#     4   9  17  30  50  72  90 115 152 191 234 278
#     4   8  15  27  42  61  84 112 149 187 218 254
#
# _framework density 15.838464
#
# number of rings (size 3 to 8) (size 9 to 14) (size 15 to 20)
#    0.000    2.714    0.000    4.286    0.000    6.000 
#    0.000    1.429    0.000    0.429    0.000    1.000 
#    0.000    3.429    0.000    0.000    0.000    0.000 
#
# Total GULP energy -694010.139753 kJ/mol
# GULP energy per Si atom -12393.038210 kJ/mol
# Density = 1.580241 g / cm^3
# Si number density = 15.838464 Si / 1000 Ang^3
#
#
#
# Elastic Constant Matrix: (Units=GPa)
#
#
# Indices 1 2 3 4 5 6 
#
# 1 112.6457 57.7258 41.6883 0.0000 0.0000 0.0000
# 2 57.7258 119.0847 57.8407 0.0000 0.0000 0.0000
# 3 41.6883 57.8407 65.4630 0.0000 0.0000 0.0000
# 4 0.0000 0.0000 0.0000 13.1005 0.0000 0.0000
# 5 0.0000 0.0000 0.0000 0.0000 22.9842 0.0000
# 6 0.0000 0.0000 0.0000 0.0000 0.0000 25.2615
#
#
#
# Elastic Compliance Matrix: (Units=1/GPa)
#
#
# Indices 1 2 3 4 5 6 
#
# 1 0.012551 -0.003857 -0.004585 0.000000 0.000000 0.000000
# 2 -0.003857 0.015896 -0.011589 0.000000 0.000000 0.000000
# 3 -0.004585 -0.011589 0.028435 0.000000 0.000000 0.000000
# 4 0.000000 0.000000 0.000000 0.076333 0.000000 0.000000
# 5 0.000000 0.000000 0.000000 0.000000 0.043508 0.000000
# 6 0.000000 0.000000 0.000000 0.000000 0.000000 0.039586
#
#
# Mechanical properties :
#
#
# Convention : Reuss Voigt Hill
#
# Bulk Modulus (GPa) = 59.45124 67.96698 63.70911
# Shear Modulus (GPa) = 19.08572 21.59846 20.34209
#
# Velocity S-wave (km/s) = 3.47511 3.69680 3.58767
# Velocity P-wave (km/s) = 7.32935 7.82480 7.58112
#
# Compressibility (1/GPa) = 0.01682051
#
# Stress axis : x y z
#
# Youngs Moduli (GPa) = 79.67725 62.90948 35.16833
#
# Poissons Ratio (x) = 0.24265 0.16123
# Poissons Ratio (y) = 0.30732 0.40756
# Poissons Ratio (z) = 0.36528 0.72904
#
# Static dielectric constant tensor:
#      x y z
#    x 3.001770 0.000000 0.000000 
#    y 0.000000 3.104070 0.000000 
#    z 0.000000 0.000000 2.975890 
# 
# 
# High freq. dielectric constant tensor:
#      x y z
#    x 1.585030 0.000000 0.000000 
#    y 0.000000 1.608330 0.000000 
#    z 0.000000 0.000000 1.600390 
# 
# From -- ./inp_files/32532.got.cif
#   From: 2010.03.12/outbox.cif.g09.slc.cpg/sg63_17_cif.got.tgz:32532.got - 2010.04.10 19:34:48.
