data_PCOD8256093
_publ_section_title
;
Structure prediction by ZEFSAII (Michael W. Deem and Ramdas Pophale) SiO2 
 PCOD8256093
Probable space group: C M C M
;
_chemical_formula_sum "Si O2"
_cell_formula_units_Z 128
_cell_length_a 23.349241
_cell_length_b 18.093428
_cell_length_c 18.091007
_cell_angle_alpha 90.000000
_cell_angle_beta 90.000000
_cell_angle_gamma 90.000000
_cell_volume 7642.868124
_symmetry_space_group_name_H-M "C M C M"
_symmetry_group_IT_number 63
_symmetry_cell_setting 'orthorhombic'
loop_
_space_group_symop_operation_xyz
x,y,z
-x,-y,1/2+z
x,-y,-z
-x,y,1/2-z
-x,-y,-z
x,y,1/2-z
-x,y,z
x,-y,1/2+z
1/2+x,1/2+y,z
1/2-x,1/2-y,1/2+z
1/2+x,1/2-y,-z
1/2-x,1/2+y,1/2-z
1/2-x,1/2-y,-z
1/2+x,1/2+y,1/2-z
1/2-x,1/2+y,z
1/2+x,1/2-y,1/2+z
loop_
_atom_site_type_symbol
_atom_site_label
_atom_site_fract_x
_atom_site_fract_y
_atom_site_fract_z
Si Si1 0.151249 0.457277 0.572179
Si Si2 0.221081 0.434540 0.333753
Si Si3 0.826443 0.040954 0.164892
Si Si4 0.722906 0.304888 0.097299
Si Si5 0.759357 0.853551 0.936958
Si Si6 0.101360 0.196120 0.836364
Si Si7 0.433517 0.143696 0.336024
Si Si8 0.937288 0.041373 0.837613
O O1 0.127461 0.500000 0.500000
O O2 0.170932 0.518693 0.629889
O O3 0.204855 0.406098 0.548800
O O4 0.101384 0.411077 0.611203
O O5 0.202722 0.424521 0.250000
O O6 0.282444 0.473645 0.342877
O O7 0.225375 0.353927 0.370507
O O8 0.829838 0.067850 0.250000
O O9 0.806996 0.108679 0.114158
O O10 0.887772 0.013378 0.133209
O O11 0.739289 0.219588 0.104847
O O12 0.667636 0.315736 0.147115
O O13 0.710716 0.330598 0.013491
O O14 0.090802 0.198605 0.750000
O O15 0.077147 0.273471 0.867760
O O16 0.068587 0.124784 0.869888
O O17 0.413462 0.136444 0.250000
O O18 0.500000 0.123574 0.343248
O O19 0.929778 0.045810 0.750000
O O20 0.000000 0.010448 0.860208
#
# Coordination Sequence:
#
# PCOD8256093 Si02
#       8
#    16  16  16  16  16  16  16  16
#     4  11  20  35  52  73 104 135 167 205 252 303
#     4  10  19  31  50  76 103 131 165 202 247 301
#     4   9  18  31  47  72 100 130 167 207 247 291
#     4  11  19  33  50  73 101 135 166 198 249 303
#     4  10  22  33  49  72 100 137 167 205 249 302
#     4  10  18  30  50  77 105 130 161 203 249 301
#     4  10  21  36  54  76 101 131 169 212 256 300
#     4   9  16  28  48  73 100 131 165 200 241 289
#
# _framework density 16.747640000000001
#
# number of rings (size 3 to 8) (size 9 to 14) (size 15 to 20)
#    0.000    2.000    3.750    1.125    0.000    3.250 
#    0.000    0.000    0.000    2.250    0.000    0.875 
#    0.000    2.000    0.000    0.000    0.000    0.000 
#
# Total GULP energy -793460.457148 kJ/mol
# GULP energy per Si atom -12397.819643 kJ/mol
# Density = 1.670952 g / cm^3
# Si number density = 16.747640 Si / 1000 Ang^3
#
#
#
# Elastic Constant Matrix: (Units=GPa)
#
#
# Indices 1 2 3 4 5 6 
#
# 1 80.7755 35.2074 23.3912 0.0000 0.0000 0.0000
# 2 35.2074 91.0486 39.3715 0.0000 0.0000 0.0000
# 3 23.3912 39.3715 56.0937 0.0000 0.0000 0.0000
# 4 0.0000 0.0000 0.0000 28.5065 0.0000 0.0000
# 5 0.0000 0.0000 0.0000 0.0000 14.9998 0.0000
# 6 0.0000 0.0000 0.0000 0.0000 0.0000 23.3759
#
#
#
# Elastic Compliance Matrix: (Units=1/GPa)
#
#
# Indices 1 2 3 4 5 6 
#
# 1 0.015278 -0.004527 -0.003194 0.000000 0.000000 0.000000
# 2 -0.004527 0.017111 -0.010122 0.000000 0.000000 0.000000
# 3 -0.003194 -0.010122 0.026264 0.000000 0.000000 0.000000
# 4 0.000000 0.000000 0.000000 0.035080 0.000000 0.000000
# 5 0.000000 0.000000 0.000000 0.000000 0.066668 0.000000
# 6 0.000000 0.000000 0.000000 0.000000 0.000000 0.042779
#
#
# Mechanical properties :
#
#
# Convention : Reuss Voigt Hill
#
# Bulk Modulus (GPa) = 43.54039 47.09534 45.31786
# Shear Modulus (GPa) = 20.28239 22.03961 21.16100
#
# Velocity S-wave (km/s) = 3.48380 3.63158 3.55846
# Velocity P-wave (km/s) = 6.49899 6.76507 6.63336
#
# Compressibility (1/GPa) = 0.02296718
#
# Stress axis : x y z
#
# Youngs Moduli (GPa) = 65.45413 58.44324 38.07547
#
# Poissons Ratio (x) = 0.26456 0.12160
# Poissons Ratio (y) = 0.29630 0.38540
# Poissons Ratio (z) = 0.20904 0.59157
#
# Static dielectric constant tensor:
#      x y z
#    x 2.991350 0.000000 0.000000 
#    y 0.000000 3.256000 0.000000 
#    z 0.000000 0.000000 3.021280 
# 
# 
# High freq. dielectric constant tensor:
#      x y z
#    x 1.626790 0.000000 0.000000 
#    y 0.000000 1.650080 0.000000 
#    z 0.000000 0.000000 1.630360 
# 
# From -- ./inp_files/48443.got.cif
#   From: 2010.03.12/outbox.cif.g09.slc.cpg/sg63_25_cif.got.tgz:48443.got - 2010.04.10 19:34:48.
