data_PCOD8256215
_publ_section_title
;
Structure prediction by ZEFSAII (Michael W. Deem and Ramdas Pophale) SiO2 
 PCOD8256215
Probable space group: C M C M
;
_chemical_formula_sum "Si O2"
_cell_formula_units_Z 96
_cell_length_a 9.218605
_cell_length_b 23.491507
_cell_length_c 23.384439
_cell_angle_alpha 90.000000
_cell_angle_beta 90.000000
_cell_angle_gamma 90.000000
_cell_volume 5064.108946
_symmetry_space_group_name_H-M "C M C M"
_symmetry_group_IT_number 63
_symmetry_cell_setting 'orthorhombic'
loop_
_space_group_symop_operation_xyz
x,y,z
-x,-y,1/2+z
x,-y,-z
-x,y,1/2-z
-x,-y,-z
x,y,1/2-z
-x,y,z
x,-y,1/2+z
1/2+x,1/2+y,z
1/2-x,1/2-y,1/2+z
1/2+x,1/2-y,-z
1/2-x,1/2+y,1/2-z
1/2-x,1/2-y,-z
1/2+x,1/2+y,1/2-z
1/2-x,1/2+y,z
1/2+x,1/2-y,1/2+z
loop_
_atom_site_type_symbol
_atom_site_label
_atom_site_fract_x
_atom_site_fract_y
_atom_site_fract_z
Si Si1 0.170438 0.473830 0.638656
Si Si2 0.840704 0.787686 0.958061
Si Si3 0.658724 0.208333 0.851653
Si Si4 0.173198 0.592938 0.902072
Si Si5 0.174260 0.405319 0.750000
Si Si6 0.175736 0.782378 0.750000
Si Si7 0.170602 0.601690 0.032347
O O1 0.228525 0.538955 0.635130
O O2 0.231546 0.439732 0.693743
O O3 0.211890 0.447418 0.577188
O O4 0.000000 0.474868 0.646290
O O5 0.861175 0.752207 0.901812
O O6 0.753975 0.844207 0.943545
O O7 0.000000 0.801990 0.983719
O O8 0.750000 0.750000 0.000000
O O9 0.500000 0.189802 0.828707
O O10 0.739375 0.150385 0.872971
O O11 0.737256 0.244318 0.802321
O O12 0.000000 0.596520 0.902996
O O13 0.224721 0.586882 0.968180
O O14 0.248563 0.343734 0.750000
O O15 0.000000 0.398077 0.750000
O O16 0.000000 0.790766 0.750000
O O17 0.000000 0.614664 0.032807
#
# Coordination Sequence:
#
# PCOD8256215 Si02
#       7
#    16  16  16  16   8   8  16
#     4   9  18  30  50  76 102 134 169 208 255 300
#     4  11  20  32  50  75 104 135 168 208 254 303
#     4   9  18  31  49  76 103 128 167 211 250 296
#     4   9  16  29  49  75 104 130 164 211 251 293
#     4  10  20  35  51  75 103 126 167 214 250 299
#     4  10  20  35  55  75  99 134 169 206 256 307
#     4  10  18  31  51  76 103 133 169 209 254 303
#
# _framework density 18.956938000000001
#
# number of rings (size 3 to 8) (size 9 to 14) (size 15 to 20)
#    0.000    2.333    1.667    2.000    0.000    2.667 
#    0.000    4.167    0.000    3.000    0.000    1.167 
#    0.000    0.000    0.000    0.000    0.000    0.000 
#
# Total GULP energy -594684.381238 kJ/mol
# GULP energy per Si atom -12389.257942 kJ/mol
# Density = 1.891379 g / cm^3
# Si number density = 18.956938 Si / 1000 Ang^3
#
#
#
# Elastic Constant Matrix: (Units=GPa)
#
#
# Indices 1 2 3 4 5 6 
#
# 1 25.5027 24.9629 18.6323 0.0000 0.0000 0.0000
# 2 24.9629 169.0812 78.9968 0.0000 0.0000 0.0000
# 3 18.6323 78.9968 130.9170 0.0000 0.0000 0.0000
# 4 0.0000 0.0000 0.0000 28.7554 0.0000 0.0000
# 5 0.0000 0.0000 0.0000 0.0000 10.7178 0.0000
# 6 0.0000 0.0000 0.0000 0.0000 0.0000 22.2611
#
#
#
# Elastic Compliance Matrix: (Units=1/GPa)
#
#
# Indices 1 2 3 4 5 6 
#
# 1 0.046947 -0.005305 -0.003480 0.000000 0.000000 0.000000
# 2 -0.005305 0.008836 -0.004577 0.000000 0.000000 0.000000
# 3 -0.003480 -0.004577 0.010895 0.000000 0.000000 0.000000
# 4 0.000000 0.000000 0.000000 0.034776 0.000000 0.000000
# 5 0.000000 0.000000 0.000000 0.000000 0.093302 0.000000
# 6 0.000000 0.000000 0.000000 0.000000 0.000000 0.044921
#
#
# Mechanical properties :
#
#
# Convention : Reuss Voigt Hill
#
# Bulk Modulus (GPa) = 25.02874 63.40944 44.21909
# Shear Modulus (GPa) = 17.87498 25.87412 21.87455
#
# Velocity S-wave (km/s) = 3.07404 3.69845 3.40061
# Velocity P-wave (km/s) = 5.08244 7.19443 6.22861
#
# Compressibility (1/GPa) = 0.03995407
#
# Stress axis : x y z
#
# Youngs Moduli (GPa) = 21.30053 113.17599 91.78246
#
# Poissons Ratio (x) = 0.60041 0.31944
# Poissons Ratio (y) = 0.11300 0.42005
# Poissons Ratio (z) = 0.07413 0.51796
#
# Static dielectric constant tensor:
#      x y z
#    x 3.069420 0.000000 0.000000 
#    y 0.000000 3.605000 0.000000 
#    z 0.000000 0.000000 3.533580 
# 
# 
# High freq. dielectric constant tensor:
#      x y z
#    x 1.674790 0.000000 0.000000 
#    y 0.000000 1.752730 0.000000 
#    z 0.000000 0.000000 1.743370 
# 
# From -- ./inp_files/60022.got.cif
#   From: 2010.03.12/outbox.cif.g09.slc.cpg/sg63_31_cif.got.tgz:60022.got - 2010.04.10 19:34:48.
