data_PCOD8256874
_publ_section_title
;
Structure prediction by ZEFSAII (Michael W. Deem and Ramdas Pophale) SiO2 
 PCOD8256874
Probable space group: C M C M
;
_chemical_formula_sum "Si O2"
_cell_formula_units_Z 80
_cell_length_a 18.205967
_cell_length_b 21.656155
_cell_length_c 11.044277
_cell_angle_alpha 90.000000
_cell_angle_beta 90.000000
_cell_angle_gamma 90.000000
_cell_volume 4354.440824
_symmetry_space_group_name_H-M "C M C M"
_symmetry_group_IT_number 63
_symmetry_cell_setting 'orthorhombic'
loop_
_space_group_symop_operation_xyz
x,y,z
-x,-y,1/2+z
x,-y,-z
-x,y,1/2-z
-x,-y,-z
x,y,1/2-z
-x,y,z
x,-y,1/2+z
1/2+x,1/2+y,z
1/2-x,1/2-y,1/2+z
1/2+x,1/2-y,-z
1/2-x,1/2+y,1/2-z
1/2-x,1/2-y,-z
1/2+x,1/2+y,1/2-z
1/2-x,1/2+y,z
1/2+x,1/2-y,1/2+z
loop_
_atom_site_type_symbol
_atom_site_label
_atom_site_fract_x
_atom_site_fract_y
_atom_site_fract_z
Si Si1 0.413062 0.201879 0.250000
Si Si2 0.586157 0.659279 0.750000
Si Si3 0.333497 0.742933 0.381769
Si Si4 0.302990 0.837694 0.932676
Si Si5 0.914225 0.865790 0.987856
Si Si6 0.793886 0.049767 0.392292
O O1 0.500000 0.196192 0.250000
O O2 0.381326 0.271763 0.250000
O O3 0.380829 0.166730 0.133941
O O4 0.500000 0.669368 0.750000
O O5 0.608550 0.621729 0.628780
O O6 0.368034 0.752442 0.250000
O O7 0.316253 0.811234 0.432785
O O8 0.258378 0.704587 0.369238
O O9 0.393115 0.705481 0.461646
O O10 0.275831 0.908125 0.928078
O O11 0.000000 0.876751 0.964532
O O12 0.869602 0.911551 0.901016
O O13 0.787780 0.026555 0.250000
O O14 0.796178 0.000000 0.500000
#
# Coordination Sequence:
#
# PCOD8256874 Si02
#       6
#     8   8  16  16  16  16
#     4  11  18  32  59  86 113 139 176 226 282 347
#     4   9  18  30  51  86 118 149 184 222 275 339
#     4  10  19  30  52  81 114 153 178 222 282 338
#     4  10  19  35  53  79 112 139 185 227 277 344
#     4  10  20  35  55  82 120 156 189 230 277 333
#     4  11  25  41  59  80 107 151 198 241 284 329
#
# _framework density 18.372049000000001
#
# number of rings (size 3 to 8) (size 9 to 14) (size 15 to 20)
#    0.000    1.800    4.000    1.800    1.400    2.800 
#    0.000    0.000    0.000    0.600    0.000    0.000 
#    0.000    0.000    0.000    0.000    0.000    0.000 
#
# Total GULP energy -495603.016751 kJ/mol
# GULP energy per Si atom -12390.075419 kJ/mol
# Density = 1.833023 g / cm^3
# Si number density = 18.372049 Si / 1000 Ang^3
#
#
#
# Elastic Constant Matrix: (Units=GPa)
#
#
# Indices 1 2 3 4 5 6 
#
# 1 72.9717 25.3178 15.6337 0.0000 0.0000 0.0000
# 2 25.3178 62.9482 38.2522 0.0000 0.0000 0.0000
# 3 15.6337 38.2522 135.1585 0.0000 0.0000 0.0000
# 4 0.0000 0.0000 0.0000 23.6493 0.0000 0.0000
# 5 0.0000 0.0000 0.0000 0.0000 25.0964 0.0000
# 6 0.0000 0.0000 0.0000 0.0000 0.0000 16.1196
#
#
#
# Elastic Compliance Matrix: (Units=1/GPa)
#
#
# Indices 1 2 3 4 5 6 
#
# 1 0.015927 -0.006384 -0.000035 0.000000 0.000000 0.000000
# 2 -0.006384 0.021745 -0.005416 0.000000 0.000000 0.000000
# 3 -0.000035 -0.005416 0.008936 0.000000 0.000000 0.000000
# 4 0.000000 0.000000 0.000000 0.042285 0.000000 0.000000
# 5 0.000000 0.000000 0.000000 0.000000 0.039846 0.000000
# 6 0.000000 0.000000 0.000000 0.000000 0.000000 0.062036
#
#
# Mechanical properties :
#
#
# Convention : Reuss Voigt Hill
#
# Bulk Modulus (GPa) = 43.59884 47.72064 45.65974
# Shear Modulus (GPa) = 22.51339 25.76471 24.13905
#
# Velocity S-wave (km/s) = 3.50439 3.74891 3.62871
# Velocity P-wave (km/s) = 6.33695 6.69104 6.51640
#
# Compressibility (1/GPa) = 0.02293639
#
# Stress axis : x y z
#
# Youngs Moduli (GPa) = 62.78834 45.98805 111.91261
#
# Poissons Ratio (x) = 0.29359 0.00396
# Poissons Ratio (y) = 0.40085 0.60608
# Poissons Ratio (z) = 0.00222 0.24906
#
# Static dielectric constant tensor:
#      x y z
#    x 3.204160 0.000000 0.000000 
#    y 0.000000 3.155250 0.000000 
#    z 0.000000 0.000000 3.717410 
# 
# 
# High freq. dielectric constant tensor:
#      x y z
#    x 1.695020 0.000000 0.000000 
#    y 0.000000 1.671370 0.000000 
#    z 0.000000 0.000000 1.729110 
# 
# From -- ./inp_files/19459.got.cif
#   From: 2010.03.12/outbox.cif.g09.slc.cpg/sg63_10_cif.got.tgz:19459.got - 2010.04.10 19:34:48.
