data_PCOD8256454
_publ_section_title
;
Structure prediction by ZEFSAII (Michael W. Deem and Ramdas Pophale) SiO2 
 PCOD8256454
Probable space group: C M C M
;
_chemical_formula_sum "Si O2"
_cell_formula_units_Z 128
_cell_length_a 19.552660
_cell_length_b 19.645289
_cell_length_c 17.847168
_cell_angle_alpha 90.000000
_cell_angle_beta 90.000000
_cell_angle_gamma 90.000000
_cell_volume 6855.412346
_symmetry_space_group_name_H-M "C M C M"
_symmetry_group_IT_number 63
_symmetry_cell_setting 'orthorhombic'
loop_
_space_group_symop_operation_xyz
x,y,z
-x,-y,1/2+z
x,-y,-z
-x,y,1/2-z
-x,-y,-z
x,y,1/2-z
-x,y,z
x,-y,1/2+z
1/2+x,1/2+y,z
1/2-x,1/2-y,1/2+z
1/2+x,1/2-y,-z
1/2-x,1/2+y,1/2-z
1/2-x,1/2-y,-z
1/2+x,1/2+y,1/2-z
1/2-x,1/2+y,z
1/2+x,1/2-y,1/2+z
loop_
_atom_site_type_symbol
_atom_site_label
_atom_site_fract_x
_atom_site_fract_y
_atom_site_fract_z
Si Si1 0.798293 0.240293 0.572029
Si Si2 0.808209 0.660202 0.661083
Si Si3 0.921083 0.143853 0.951546
Si Si4 0.728237 0.017190 0.661928
Si Si5 0.616369 0.607760 0.108210
Si Si6 0.730213 0.869689 0.661382
Si Si7 0.380551 0.535241 0.837367
Si Si8 0.574299 0.254741 0.835315
O O1 0.750000 0.250000 0.500000
O O2 0.762690 0.186840 0.627776
O O3 0.873861 0.211652 0.554433
O O4 0.808689 0.312156 0.614334
O O5 0.803233 0.666554 0.750000
O O6 0.819538 0.580704 0.637941
O O7 0.870815 0.703687 0.627123
O O8 0.919885 0.096015 0.878504
O O9 0.000000 0.166375 0.964736
O O10 0.889237 0.098526 0.018776
O O11 0.738746 0.014018 0.750000
O O12 0.803808 0.030288 0.629028
O O13 0.698302 0.943552 0.637363
O O14 0.690528 0.628879 0.139023
O O15 0.586931 0.539493 0.146964
O O16 0.569030 0.672533 0.125259
O O17 0.722785 0.854991 0.750000
O O18 0.384652 0.552331 0.750000
O O19 0.596108 0.266970 0.750000
O O20 0.500000 0.219602 0.841512
#
# Coordination Sequence:
#
# PCOD8256454 Si02
#       8
#    16  16  16  16  16  16  16  16
#     4  12  22  37  56  82 109 146 193 238 284 340
#     4  10  18  33  56  77 106 145 186 231 284 336
#     4  12  26  40  55  80 119 160 195 236 289 344
#     4   8  16  31  54  81 105 135 179 232 282 325
#     4  11  20  36  57  81 115 150 194 236 289 340
#     4  10  19  34  60  88 111 140 187 244 290 334
#     4  10  21  37  57  82 114 155 199 235 275 339
#     4  10  19  30  50  82 114 145 184 233 291 346
#
# _framework density 18.671378000000001
#
# number of rings (size 3 to 8) (size 9 to 14) (size 15 to 20)
#    0.000    1.625    3.750    3.000    0.000    2.250 
#    0.000    0.625    0.000    0.750    0.000    1.750 
#    0.000    4.000    0.000    0.000    0.000    0.000 
#
# Total GULP energy -793190.952609 kJ/mol
# GULP energy per Si atom -12393.608635 kJ/mol
# Density = 1.862888 g / cm^3
# Si number density = 18.671378 Si / 1000 Ang^3
#
#
#
# Elastic Constant Matrix: (Units=GPa)
#
#
# Indices 1 2 3 4 5 6 
#
# 1 71.6348 44.5439 18.9507 0.0000 0.0000 0.0000
# 2 44.5439 141.4075 38.5650 0.0000 0.0000 0.0000
# 3 18.9507 38.5650 73.0249 0.0000 0.0000 0.0000
# 4 0.0000 0.0000 0.0000 26.3888 0.0000 0.0000
# 5 0.0000 0.0000 0.0000 0.0000 14.6133 0.0000
# 6 0.0000 0.0000 0.0000 0.0000 0.0000 18.7200
#
#
#
# Elastic Compliance Matrix: (Units=1/GPa)
#
#
# Indices 1 2 3 4 5 6 
#
# 1 0.017586 -0.005018 -0.001914 0.000000 0.000000 0.000000
# 2 -0.005018 0.009693 -0.003817 0.000000 0.000000 0.000000
# 3 -0.001914 -0.003817 0.016206 0.000000 0.000000 0.000000
# 4 0.000000 0.000000 0.000000 0.037895 0.000000 0.000000
# 5 0.000000 0.000000 0.000000 0.000000 0.068431 0.000000
# 6 0.000000 0.000000 0.000000 0.000000 0.000000 0.053419
#
#
# Mechanical properties :
#
#
# Convention : Reuss Voigt Hill
#
# Bulk Modulus (GPa) = 45.47789 54.46514 49.97152
# Shear Modulus (GPa) = 21.54643 24.21161 22.87902
#
# Velocity S-wave (km/s) = 3.40072 3.60491 3.50430
# Velocity P-wave (km/s) = 6.31108 6.82355 6.57231
#
# Compressibility (1/GPa) = 0.02198871
#
# Stress axis : x y z
#
# Youngs Moduli (GPa) = 56.86299 103.16369 61.70400
#
# Poissons Ratio (x) = 0.51765 0.11809
# Poissons Ratio (y) = 0.28532 0.23552
# Poissons Ratio (z) = 0.10883 0.39377
#
# Static dielectric constant tensor:
#      x y z
#    x 3.179530 0.000000 0.000000 
#    y 0.000000 3.802360 0.000000 
#    z 0.000000 0.000000 3.436450 
# 
# 
# High freq. dielectric constant tensor:
#      x y z
#    x 1.685380 0.000000 0.000000 
#    y 0.000000 1.732540 0.000000 
#    z 0.000000 0.000000 1.721950 
# 
# From -- ./inp_files/48420.got.cif
#   From: 2010.03.12/outbox.cif.g09.slc.cpg/sg63_25_cif.got.tgz:48420.got - 2010.04.10 19:34:48.
