data_PCOD8256320
_publ_section_title
;
Structure prediction by ZEFSAII (Michael W. Deem and Ramdas Pophale) SiO2 
 PCOD8256320
Probable space group: C M C M
;
_chemical_formula_sum "Si O2"
_cell_formula_units_Z 72
_cell_length_a 15.334411
_cell_length_b 28.989661
_cell_length_c 8.604243
_cell_angle_alpha 90.000000
_cell_angle_beta 90.000000
_cell_angle_gamma 90.000000
_cell_volume 3824.924819
_symmetry_space_group_name_H-M "C M C M"
_symmetry_group_IT_number 63
_symmetry_cell_setting 'orthorhombic'
loop_
_space_group_symop_operation_xyz
x,y,z
-x,-y,1/2+z
x,-y,-z
-x,y,1/2-z
-x,-y,-z
x,y,1/2-z
-x,y,z
x,-y,1/2+z
1/2+x,1/2+y,z
1/2-x,1/2-y,1/2+z
1/2+x,1/2-y,-z
1/2-x,1/2+y,1/2-z
1/2-x,1/2-y,-z
1/2+x,1/2+y,1/2-z
1/2-x,1/2+y,z
1/2+x,1/2-y,1/2+z
loop_
_atom_site_type_symbol
_atom_site_label
_atom_site_fract_x
_atom_site_fract_y
_atom_site_fract_z
Si Si1 0.000000 0.948833 0.934601
Si Si2 0.899516 0.804737 0.069078
Si Si3 0.321831 0.550413 0.567319
Si Si4 0.596073 0.200315 0.065418
Si Si5 0.749802 0.863716 0.932339
O O1 0.000000 0.947676 0.750000
O O2 0.088703 0.926621 0.000320
O O3 0.000000 0.000000 0.000000
O O4 0.875833 0.811149 0.250000
O O5 0.882353 0.752366 0.012813
O O6 0.000000 0.818334 0.038979
O O7 0.839290 0.837193 0.965873
O O8 0.301040 0.500000 0.500000
O O9 0.329086 0.545708 0.750000
O O10 0.247143 0.586456 0.517093
O O11 0.596002 0.199201 0.250000
O O12 0.500000 0.185780 0.003383
O O13 0.668517 0.165434 0.998999
O O14 0.740235 0.871980 0.750000
#
# Coordination Sequence:
#
# PCOD8256320 Si02
#       5
#     8  16  16  16  16
#     4  10  18  32  52  74 100 132 170 208 250 302
#     4   9  18  33  52  75 107 144 179 214 258 312
#     4  11  22  37  54  74 104 139 175 214 261 311
#     4   8  16  33  55  77 103 138 178 221 269 316
#     4  11  21  32  52  80 107 137 177 222 265 313
#
# _framework density 18.823899000000001
#
# number of rings (size 3 to 8) (size 9 to 14) (size 15 to 20)
#    0.000    2.222    0.000    7.000    1.556    0.444 
#    0.000    1.111    0.000    6.000    0.000    0.000 
#    0.000    0.000    0.000    0.000    0.000    0.000 
#
# Total GULP energy -446308.133563 kJ/mol
# GULP energy per Si atom -12397.448155 kJ/mol
# Density = 1.878105 g / cm^3
# Si number density = 18.823899 Si / 1000 Ang^3
#
#
#
# Elastic Constant Matrix: (Units=GPa)
#
#
# Indices 1 2 3 4 5 6 
#
# 1 81.8298 59.4973 23.0413 0.0000 0.0000 0.0000
# 2 59.4973 112.2171 29.5727 0.0000 0.0000 0.0000
# 3 23.0413 29.5727 94.0748 0.0000 0.0000 0.0000
# 4 0.0000 0.0000 0.0000 28.7353 0.0000 0.0000
# 5 0.0000 0.0000 0.0000 0.0000 19.5262 0.0000
# 6 0.0000 0.0000 0.0000 0.0000 0.0000 29.5739
#
#
#
# Elastic Compliance Matrix: (Units=1/GPa)
#
#
# Indices 1 2 3 4 5 6 
#
# 1 0.020138 -0.010225 -0.001718 0.000000 0.000000 0.000000
# 2 -0.010225 0.014907 -0.002182 0.000000 0.000000 0.000000
# 3 -0.001718 -0.002182 0.011737 0.000000 0.000000 0.000000
# 4 0.000000 0.000000 0.000000 0.034800 0.000000 0.000000
# 5 0.000000 0.000000 0.000000 0.000000 0.051213 0.000000
# 6 0.000000 0.000000 0.000000 0.000000 0.000000 0.033814
#
#
# Mechanical properties :
#
#
# Convention : Reuss Voigt Hill
#
# Bulk Modulus (GPa) = 53.95823 56.92713 55.44268
# Shear Modulus (GPa) = 24.87109 27.30111 26.08610
#
# Velocity S-wave (km/s) = 3.63884 3.81247 3.72667
# Velocity P-wave (km/s) = 6.81043 7.04894 6.93071
#
# Compressibility (1/GPa) = 0.01853285
#
# Stress axis : x y z
#
# Youngs Moduli (GPa) = 49.65626 67.08103 85.20366
#
# Poissons Ratio (x) = 0.68587 0.14641
# Poissons Ratio (y) = 0.50771 0.18591
# Poissons Ratio (z) = 0.08532 0.14636
#
# Static dielectric constant tensor:
#      x y z
#    x 3.961760 0.000000 0.000000 
#    y 0.000000 3.549060 0.000000 
#    z 0.000000 0.000000 3.227230 
# 
# 
# High freq. dielectric constant tensor:
#      x y z
#    x 1.713650 0.000000 0.000000 
#    y 0.000000 1.733050 0.000000 
#    z 0.000000 0.000000 1.717380 
# 
# From -- ./inp_files/4910.got.cif
#   From: 2010.03.12/outbox.cif.g09.slc.cpg/sg63_3_cif.got.tgz:4910.got - 2010.04.10 19:34:48.
