data_PCOD8256527
_publ_section_title
;
Structure prediction by ZEFSAII (Michael W. Deem and Ramdas Pophale) SiO2 
 PCOD8256527
Probable space group: C M C M
;
_chemical_formula_sum "Si O2"
_cell_formula_units_Z 104
_cell_length_a 16.891286
_cell_length_b 19.790589
_cell_length_c 15.412152
_cell_angle_alpha 90.000000
_cell_angle_beta 90.000000
_cell_angle_gamma 90.000000
_cell_volume 5152.105157
_symmetry_space_group_name_H-M "C M C M"
_symmetry_group_IT_number 63
_symmetry_cell_setting 'orthorhombic'
loop_
_space_group_symop_operation_xyz
x,y,z
-x,-y,1/2+z
x,-y,-z
-x,y,1/2-z
-x,-y,-z
x,y,1/2-z
-x,y,z
x,-y,1/2+z
1/2+x,1/2+y,z
1/2-x,1/2-y,1/2+z
1/2+x,1/2-y,-z
1/2-x,1/2+y,1/2-z
1/2-x,1/2-y,-z
1/2+x,1/2+y,1/2-z
1/2-x,1/2+y,z
1/2+x,1/2-y,1/2+z
loop_
_atom_site_type_symbol
_atom_site_label
_atom_site_fract_x
_atom_site_fract_y
_atom_site_fract_z
Si Si1 0.817310 0.014050 0.750000
Si Si2 0.405999 0.738014 0.590119
Si Si3 0.593933 0.274740 0.898003
Si Si4 0.594169 0.651647 0.750000
Si Si5 0.094302 0.873674 0.750000
Si Si6 0.909079 0.372703 0.149691
Si Si7 0.089961 0.617375 0.148399
Si Si8 0.304511 0.991425 0.096479
O O1 0.867365 0.946299 0.750000
O O2 0.766161 0.018864 0.663314
O O3 0.878505 0.075044 0.750000
O O4 0.500000 0.737527 0.596854
O O5 0.377238 0.710840 0.496275
O O6 0.371223 0.689584 0.664902
O O7 0.377378 0.815280 0.601260
O O8 0.500000 0.273075 0.891466
O O9 0.625513 0.333569 0.834973
O O10 0.625871 0.202115 0.866057
O O11 0.500000 0.652845 0.750000
O O12 0.000000 0.881043 0.750000
O O13 0.900554 0.392694 0.250000
O O14 0.860190 0.425708 0.093398
O O15 0.000000 0.376417 0.119085
O O16 0.093878 0.631897 0.250000
O O17 0.144647 0.555549 0.123795
O O18 0.000000 0.600795 0.119875
O O19 0.269109 0.000000 0.000000
#
# Coordination Sequence:
#
# PCOD8256527 Si02
#       8
#     8  16  16   8   8  16  16  16
#     4  12  27  44  59  80 114 150 198 246 291 348
#     4   9  17  32  59  93 120 142 180 236 291 343
#     4   9  17  32  59  93 120 142 180 236 291 343
#     4  10  21  41  66  87 108 141 187 246 306 352
#     4  10  21  41  66  87 108 141 187 246 306 352
#     4  10  18  34  61  91 122 157 195 231 273 330
#     4  10  18  34  61  91 122 157 195 231 273 330
#     4  12  25  40  56  81 123 167 198 229 277 331
#
# _framework density 20.185924
#
# number of rings (size 3 to 8) (size 9 to 14) (size 15 to 20)
#    0.000    1.846    3.077    1.615    0.000    4.923 
#    0.000    3.077    0.000    8.308    0.000    0.000 
#    0.000    0.000    0.000    0.000    0.000    0.000 
#
# Total GULP energy -644849.090842 kJ/mol
# GULP energy per Si atom -12400.944055 kJ/mol
# Density = 2.013998 g / cm^3
# Si number density = 20.185924 Si / 1000 Ang^3
#
#
#
# Elastic Constant Matrix: (Units=GPa)
#
#
# Indices 1 2 3 4 5 6 
#
# 1 31.4619 22.6198 20.2839 0.0000 0.0000 0.0000
# 2 22.6198 127.6574 26.5729 0.0000 0.0000 0.0000
# 3 20.2839 26.5729 114.0712 0.0000 0.0000 0.0000
# 4 0.0000 0.0000 0.0000 11.8126 0.0000 0.0000
# 5 0.0000 0.0000 0.0000 0.0000 9.4892 0.0000
# 6 0.0000 0.0000 0.0000 0.0000 0.0000 -4.5334
#
#
#
# Elastic Compliance Matrix: (Units=1/GPa)
#
#
# Indices 1 2 3 4 5 6 
#
# 1 0.039653 -0.005842 -0.005690 0.000000 0.000000 0.000000
# 2 -0.005842 0.009093 -0.001080 0.000000 0.000000 0.000000
# 3 -0.005690 -0.001080 0.010030 0.000000 0.000000 0.000000
# 4 0.000000 0.000000 0.000000 0.084656 0.000000 0.000000
# 5 0.000000 0.000000 0.000000 0.000000 0.105382 0.000000
# 6 0.000000 0.000000 0.000000 0.000000 0.000000 -0.220584
#
#
# Mechanical properties :
#
#
# Convention : Reuss Voigt Hill
#
# Bulk Modulus (GPa) = 29.80348 45.79373 37.79860
# Shear Modulus (GPa) = 77.35456 16.93461 47.14459
#
# Velocity S-wave (km/s) = 6.19711 2.89957 4.83796
# Velocity P-wave (km/s) = 8.12417 5.82626 7.06921
#
# Compressibility (1/GPa) = 0.03355313
#
# Stress axis : x y z
#
# Youngs Moduli (GPa) = 25.21887 109.97138 99.70348
#
# Poissons Ratio (x) = 0.64242 0.56733
# Poissons Ratio (y) = 0.14732 0.10763
# Poissons Ratio (z) = 0.14350 0.11872
#
# Static dielectric constant tensor:
#      x y z
#    x 3.235730 0.000000 0.000000 
#    y 0.000000 3.710810 0.000000 
#    z 0.000000 0.000000 4.009290 
# 
# 
# High freq. dielectric constant tensor:
#      x y z
#    x 1.743320 0.000000 0.000000 
#    y 0.000000 1.795690 0.000000 
#    z 0.000000 0.000000 1.804750 
# 
# From -- ./inp_files/34215.got.cif
#   From: 2010.03.12/outbox.cif.g09.slc.cpg/sg63_18_cif.got.tgz:34215.got - 2010.04.10 19:34:48.
