data_PCOD8256378
_publ_section_title
;
Structure prediction by ZEFSAII (Michael W. Deem and Ramdas Pophale) SiO2 
 PCOD8256378
Probable space group: C M C M
;
_chemical_formula_sum "Si O2"
_cell_formula_units_Z 128
_cell_length_a 11.125583
_cell_length_b 26.206513
_cell_length_c 22.445668
_cell_angle_alpha 90.000000
_cell_angle_beta 90.000000
_cell_angle_gamma 90.000000
_cell_volume 6544.320363
_symmetry_space_group_name_H-M "C M C M"
_symmetry_group_IT_number 63
_symmetry_cell_setting 'orthorhombic'
loop_
_space_group_symop_operation_xyz
x,y,z
-x,-y,1/2+z
x,-y,-z
-x,y,1/2-z
-x,-y,-z
x,y,1/2-z
-x,y,z
x,-y,1/2+z
1/2+x,1/2+y,z
1/2-x,1/2-y,1/2+z
1/2+x,1/2-y,-z
1/2-x,1/2+y,1/2-z
1/2-x,1/2-y,-z
1/2+x,1/2+y,1/2-z
1/2-x,1/2+y,z
1/2+x,1/2-y,1/2+z
loop_
_atom_site_type_symbol
_atom_site_label
_atom_site_fract_x
_atom_site_fract_y
_atom_site_fract_z
Si Si1 0.263762 0.857959 0.915259
Si Si2 0.365652 0.944182 0.502908
Si Si3 0.634798 0.530807 0.679855
Si Si4 0.365449 0.759866 0.878608
Si Si5 0.636552 0.793683 0.319739
Si Si6 0.641433 0.582334 0.184485
Si Si7 0.716579 0.111144 0.608815
Si Si8 0.133877 0.179511 0.974399
O O1 0.307128 0.909067 0.946916
O O2 0.365237 0.821279 0.886766
O O3 0.177840 0.874401 0.861776
O O4 0.200650 0.820862 0.962711
O O5 0.500000 0.953056 0.525097
O O6 0.367988 0.917679 0.438316
O O7 0.300601 0.000000 0.500000
O O8 0.631947 0.538571 0.750000
O O9 0.500000 0.539135 0.654067
O O10 0.683513 0.474139 0.663972
O O11 0.726750 0.571054 0.653623
O O12 0.500000 0.745845 0.851784
O O13 0.249063 0.742376 0.839516
O O14 0.354564 0.734808 0.944076
O O15 0.653242 0.803985 0.250000
O O16 0.500000 0.770986 0.331708
O O17 0.641170 0.847317 0.354428
O O18 0.695761 0.595344 0.250000
O O19 0.500000 0.581211 0.189776
O O20 0.822434 0.137432 0.572174
O O21 0.000000 0.164295 0.990354
#
# Coordination Sequence:
#
# PCOD8256378 Si02
#       8
#    16  16  16  16  16  16  16  16
#     4  11  20  34  57  79 103 143 184 225 274 331
#     4  10  21  35  52  77 108 141 179 224 274 329
#     4   9  17  30  50  77 110 148 187 226 269 320
#     4  10  22  39  57  80 110 143 183 232 282 336
#     4  10  22  39  58  83 114 147 187 235 285 339
#     4   9  19  34  51  76 109 142 181 227 270 319
#     4  10  18  32  54  79 108 145 183 226 276 331
#     4   9  19  33  50  78 110 138 176 226 277 331
#
# _framework density 19.558945000000001
#
# number of rings (size 3 to 8) (size 9 to 14) (size 15 to 20)
#    0.000    2.250    0.000    3.750    0.000    2.250 
#    0.000    4.375    0.000    7.125    0.000    7.000 
#    0.000    0.000    0.000    0.000    0.000    0.000 
#
# Total GULP energy -793015.170799 kJ/mol
# GULP energy per Si atom -12390.862044 kJ/mol
# Density = 1.951443 g / cm^3
# Si number density = 19.558945 Si / 1000 Ang^3
#
#
#
# Elastic Constant Matrix: (Units=GPa)
#
#
# Indices 1 2 3 4 5 6 
#
# 1 96.4116 33.1888 35.0681 0.0000 0.0000 0.0000
# 2 33.1888 108.1384 40.2880 0.0000 0.0000 0.0000
# 3 35.0681 40.2880 81.7653 0.0000 0.0000 0.0000
# 4 0.0000 0.0000 0.0000 3.0455 0.0000 0.0000
# 5 0.0000 0.0000 0.0000 0.0000 16.0745 0.0000
# 6 0.0000 0.0000 0.0000 0.0000 0.0000 22.9087
#
#
#
# Elastic Compliance Matrix: (Units=1/GPa)
#
#
# Indices 1 2 3 4 5 6 
#
# 1 0.012738 -0.002295 -0.004332 0.000000 0.000000 0.000000
# 2 -0.002295 0.011740 -0.004800 0.000000 0.000000 0.000000
# 3 -0.004332 -0.004800 0.016453 0.000000 0.000000 0.000000
# 4 0.000000 0.000000 0.000000 0.328354 0.000000 0.000000
# 5 0.000000 0.000000 0.000000 0.000000 0.062210 0.000000
# 6 0.000000 0.000000 0.000000 0.000000 0.000000 0.043652
#
#
# Mechanical properties :
#
#
# Convention : Reuss Voigt Hill
#
# Bulk Modulus (GPa) = 55.32207 55.93388 55.62798
# Shear Modulus (GPa) = 9.92006 20.25711 15.08858
#
# Velocity S-wave (km/s) = 2.25453 3.22171 2.78050
# Velocity P-wave (km/s) = 5.92650 6.51912 6.22986
#
# Compressibility (1/GPa) = 0.01807597
#
# Stress axis : x y z
#
# Youngs Moduli (GPa) = 78.50431 85.17667 60.77786
#
# Poissons Ratio (x) = 0.19552 0.26330
# Poissons Ratio (y) = 0.18020 0.29175
# Poissons Ratio (z) = 0.34009 0.40887
#
# Static dielectric constant tensor:
#      x y z
#    x 3.607080 0.000000 0.000000 
#    y 0.000000 3.701130 0.000000 
#    z 0.000000 0.000000 3.560540 
# 
# 
# High freq. dielectric constant tensor:
#      x y z
#    x 1.751810 0.000000 0.000000 
#    y 0.000000 1.766710 0.000000 
#    z 0.000000 0.000000 1.758260 
# 
# From -- ./inp_files/62023.got.cif
#   From: 2010.03.12/outbox.cif.g09.slc.cpg/sg63_32_cif.got.tgz:62023.got - 2010.04.10 19:34:48.
