data_PCOD8256786
_publ_section_title
;
Structure prediction by ZEFSAII (Michael W. Deem and Ramdas Pophale) SiO2 
 PCOD8256786
Probable space group: C M C M
;
_chemical_formula_sum "Si O2"
_cell_formula_units_Z 96
_cell_length_a 16.082226
_cell_length_b 11.920990
_cell_length_c 26.359368
_cell_angle_alpha 90.000000
_cell_angle_beta 90.000000
_cell_angle_gamma 90.000000
_cell_volume 5053.514054
_symmetry_space_group_name_H-M "C M C M"
_symmetry_group_IT_number 63
_symmetry_cell_setting 'orthorhombic'
loop_
_space_group_symop_operation_xyz
x,y,z
-x,-y,1/2+z
x,-y,-z
-x,y,1/2-z
-x,-y,-z
x,y,1/2-z
-x,y,z
x,-y,1/2+z
1/2+x,1/2+y,z
1/2-x,1/2-y,1/2+z
1/2+x,1/2-y,-z
1/2-x,1/2+y,1/2-z
1/2-x,1/2-y,-z
1/2+x,1/2+y,1/2-z
1/2-x,1/2+y,z
1/2+x,1/2-y,1/2+z
loop_
_atom_site_type_symbol
_atom_site_label
_atom_site_fract_x
_atom_site_fract_y
_atom_site_fract_z
Si Si1 0.098899 0.028048 0.390631
Si Si2 0.346968 0.669209 0.546740
Si Si3 0.667369 0.740044 0.065985
Si Si4 0.098920 0.853127 0.306619
Si Si5 0.408484 0.830477 0.620602
Si Si6 0.096756 0.524873 0.944310
O O1 0.142363 0.150723 0.390445
O O2 0.000000 0.040966 0.397195
O O3 0.138359 0.959479 0.437798
O O4 0.122905 0.964356 0.338353
O O5 0.351364 0.678663 0.486828
O O6 0.261395 0.718656 0.570044
O O7 0.417981 0.744477 0.573080
O O8 0.608790 0.847977 0.072303
O O9 0.136114 0.863332 0.250000
O O10 0.135641 0.739268 0.333445
O O11 0.000000 0.842321 0.305560
O O12 0.500000 0.865741 0.639247
O O13 0.361957 0.942253 0.598693
O O14 0.000000 0.494071 0.947295
O O15 0.137755 0.500000 0.000000
#
# Coordination Sequence:
#
# PCOD8256786 Si02
#       6
#    16  16  16  16  16  16
#     4  10  21  35  53  78 103 133 178 224 264 307
#     4  10  21  32  47  70 103 142 176 205 248 300
#     4  11  22  31  48  72 108 141 172 208 252 307
#     4   8  15  31  56  80  99 125 170 225 269 306
#     4   9  17  31  51  75  98 127 172 212 246 298
#     4  10  19  30  47  68 101 141 172 202 244 305
#
# _framework density 18.996682
#
# number of rings (size 3 to 8) (size 9 to 14) (size 15 to 20)
#    0.000    2.333    1.667    2.500    2.333    2.667 
#    0.000    0.000    0.000    5.000    0.000    4.667 
#    0.000    0.000    0.000    0.000    0.000    0.000 
#
# Total GULP energy -594711.924496 kJ/mol
# GULP energy per Si atom -12389.831760 kJ/mol
# Density = 1.895344 g / cm^3
# Si number density = 18.996682 Si / 1000 Ang^3
#
#
#
# Elastic Constant Matrix: (Units=GPa)
#
#
# Indices 1 2 3 4 5 6 
#
# 1 29.1229 20.7254 17.8547 0.0000 0.0000 0.0000
# 2 20.7254 158.2074 61.4591 0.0000 0.0000 0.0000
# 3 17.8547 61.4591 108.9419 0.0000 0.0000 0.0000
# 4 0.0000 0.0000 0.0000 19.8499 0.0000 0.0000
# 5 0.0000 0.0000 0.0000 0.0000 12.9660 0.0000
# 6 0.0000 0.0000 0.0000 0.0000 0.0000 22.6039
#
#
#
# Elastic Compliance Matrix: (Units=1/GPa)
#
#
# Indices 1 2 3 4 5 6 
#
# 1 0.039560 -0.003411 -0.004559 0.000000 0.000000 0.000000
# 2 -0.003411 0.008389 -0.004174 0.000000 0.000000 0.000000
# 3 -0.004559 -0.004174 0.012281 0.000000 0.000000 0.000000
# 4 0.000000 0.000000 0.000000 0.050378 0.000000 0.000000
# 5 0.000000 0.000000 0.000000 0.000000 0.077125 0.000000
# 6 0.000000 0.000000 0.000000 0.000000 0.000000 0.044240
#
#
# Mechanical properties :
#
#
# Convention : Reuss Voigt Hill
#
# Bulk Modulus (GPa) = 27.82259 55.15006 41.48632
# Shear Modulus (GPa) = 18.63992 24.16617 21.40304
#
# Velocity S-wave (km/s) = 3.13584 3.57056 3.36024
# Velocity P-wave (km/s) = 5.27154 6.78918 6.07791
#
# Compressibility (1/GPa) = 0.03594202
#
# Stress axis : x y z
#
# Youngs Moduli (GPa) = 25.27802 119.20368 81.42740
#
# Poissons Ratio (x) = 0.40665 0.37123
# Poissons Ratio (y) = 0.08623 0.33984
# Poissons Ratio (z) = 0.11524 0.49750
#
# Static dielectric constant tensor:
#      x y z
#    x 3.205410 0.000000 0.000000 
#    y 0.000000 3.566150 0.000000 
#    z 0.000000 0.000000 3.482400 
# 
# 
# High freq. dielectric constant tensor:
#      x y z
#    x 1.710920 0.000000 0.000000 
#    y 0.000000 1.749210 0.000000 
#    z 0.000000 0.000000 1.699750 
# 
# From -- ./inp_files/63714.got.cif
#   From: 2010.03.12/outbox.cif.g09.slc.cpg/sg63_32_cif.got.tgz:63714.got - 2010.04.10 19:34:48.
