data_PCOD8256419
_publ_section_title
;
Structure prediction by ZEFSAII (Michael W. Deem and Ramdas Pophale) SiO2 
 PCOD8256419
Probable space group: C M C M
;
_chemical_formula_sum "Si O2"
_cell_formula_units_Z 80
_cell_length_a 11.685394
_cell_length_b 20.113084
_cell_length_c 17.883508
_cell_angle_alpha 90.000000
_cell_angle_beta 90.000000
_cell_angle_gamma 90.000000
_cell_volume 4203.148565
_symmetry_space_group_name_H-M "C M C M"
_symmetry_group_IT_number 63
_symmetry_cell_setting 'orthorhombic'
loop_
_space_group_symop_operation_xyz
x,y,z
-x,-y,1/2+z
x,-y,-z
-x,y,1/2-z
-x,-y,-z
x,y,1/2-z
-x,y,z
x,-y,1/2+z
1/2+x,1/2+y,z
1/2-x,1/2-y,1/2+z
1/2+x,1/2-y,-z
1/2-x,1/2+y,1/2-z
1/2-x,1/2-y,-z
1/2+x,1/2+y,1/2-z
1/2-x,1/2+y,z
1/2+x,1/2-y,1/2+z
loop_
_atom_site_type_symbol
_atom_site_label
_atom_site_fract_x
_atom_site_fract_y
_atom_site_fract_z
Si Si1 0.500000 0.704793 0.661276
Si Si2 0.000000 0.351664 0.661547
Si Si3 0.219579 0.126161 0.661581
Si Si4 0.373109 0.244160 0.838658
Si Si5 0.131525 0.000122 0.588162
Si Si6 0.749442 0.377856 0.838426
O O1 0.500000 0.709962 0.750000
O O2 0.500000 0.778146 0.625677
O O3 0.609563 0.665644 0.632670
O O4 0.882750 0.388901 0.637503
O O5 0.000000 0.343574 0.750000
O O6 0.219063 0.113750 0.750000
O O7 0.326479 0.171740 0.635847
O O8 0.218389 0.054873 0.621586
O O9 0.377838 0.244846 0.750000
O O10 0.500000 0.253792 0.872772
O O11 0.290157 0.304096 0.864076
O O12 0.169179 0.929099 0.619083
O O13 0.000000 0.013594 0.612845
O O14 0.143688 0.000000 0.500000
O O15 0.733340 0.387700 0.750000
#
# Coordination Sequence:
#
# PCOD8256419 Si02
#       6
#     8   8  16  16  16  16
#     4   9  14  26  53  84 104 125 169 224 269 311
#     4   9  16  30  55  86 112 133 169 222 269 311
#     4  10  18  32  57  82 105 136 176 220 264 316
#     4   9  17  30  53  85 113 134 166 219 272 314
#     4  11  24  39  53  74 108 146 183 224 267 313
#     4  10  19  34  58  84 109 139 176 218 265 318
#
# _framework density 19.033351
#
# number of rings (size 3 to 8) (size 9 to 14) (size 15 to 20)
#    0.000    2.200    3.000    1.200    0.000    2.000 
#    1.800    1.500    0.000    0.000    0.000    0.000 
#    0.000    0.000    0.000    0.000    0.000    0.000 
#
# Total GULP energy -495822.683811 kJ/mol
# GULP energy per Si atom -12395.567095 kJ/mol
# Density = 1.899003 g / cm^3
# Si number density = 19.033351 Si / 1000 Ang^3
#
#
#
# Elastic Constant Matrix: (Units=GPa)
#
#
# Indices 1 2 3 4 5 6 
#
# 1 124.6577 42.7312 27.7055 0.0000 0.0000 0.0000
# 2 42.7312 117.6841 33.8259 0.0000 0.0000 0.0000
# 3 27.7055 33.8259 37.8650 0.0000 0.0000 0.0000
# 4 0.0000 0.0000 0.0000 -0.9166 0.0000 0.0000
# 5 0.0000 0.0000 0.0000 0.0000 8.0767 0.0000
# 6 0.0000 0.0000 0.0000 0.0000 0.0000 32.6655
#
#
#
# Elastic Compliance Matrix: (Units=1/GPa)
#
#
# Indices 1 2 3 4 5 6 
#
# 1 0.009932 -0.002042 -0.005443 0.000000 0.000000 0.000000
# 2 -0.002042 0.011853 -0.009094 0.000000 0.000000 0.000000
# 3 -0.005443 -0.009094 0.038517 0.000000 0.000000 0.000000
# 4 0.000000 0.000000 0.000000 -1.090956 0.000000 0.000000
# 5 0.000000 0.000000 0.000000 0.000000 0.123813 0.000000
# 6 0.000000 0.000000 0.000000 0.000000 0.000000 0.030613
#
#
# Mechanical properties :
#
#
# Convention : Reuss Voigt Hill
#
# Bulk Modulus (GPa) = 36.84244 54.30355 45.57299
# Shear Modulus (GPa) = -5.99504 19.69472 6.84984
#
# Velocity S-wave (km/s) = -1.77668 3.22024 1.89913
# Velocity P-wave (km/s) = 3.89744 6.51301 5.36700
#
# Compressibility (1/GPa) = 0.02714261
#
# Stress axis : x y z
#
# Youngs Moduli (GPa) = 100.68934 84.36906 25.96286
#
# Poissons Ratio (x) = 0.17226 0.14131
# Poissons Ratio (y) = 0.20558 0.23612
# Poissons Ratio (z) = 0.54804 0.76729
#
# Static dielectric constant tensor:
#      x y z
#    x 3.808330 0.000000 0.000000 
#    y 0.000000 3.501610 0.000000 
#    z 0.000000 0.000000 2.920050 
# 
# 
# High freq. dielectric constant tensor:
#      x y z
#    x 1.746620 0.000000 0.000000 
#    y 0.000000 1.744230 0.000000 
#    z 0.000000 0.000000 1.683330 
# 
# From -- ./inp_files/52459.got.cif
#   From: 2010.03.12/outbox.cif.g09.slc.cpg/sg63_27_cif.got.tgz:52459.got - 2010.04.10 19:34:48.
