data_PCOD8256599
_publ_section_title
;
Structure prediction by ZEFSAII (Michael W. Deem and Ramdas Pophale) SiO2 
 PCOD8256599
Probable space group: C M C M
;
_chemical_formula_sum "Si O2"
_cell_formula_units_Z 96
_cell_length_a 26.461422
_cell_length_b 28.213502
_cell_length_c 9.208116
_cell_angle_alpha 90.000000
_cell_angle_beta 90.000000
_cell_angle_gamma 90.000000
_cell_volume 6874.497476
_symmetry_space_group_name_H-M "C M C M"
_symmetry_group_IT_number 63
_symmetry_cell_setting 'orthorhombic'
loop_
_space_group_symop_operation_xyz
x,y,z
-x,-y,1/2+z
x,-y,-z
-x,y,1/2-z
-x,-y,-z
x,y,1/2-z
-x,y,z
x,-y,1/2+z
1/2+x,1/2+y,z
1/2-x,1/2-y,1/2+z
1/2+x,1/2-y,-z
1/2-x,1/2+y,1/2-z
1/2-x,1/2-y,-z
1/2+x,1/2+y,1/2-z
1/2-x,1/2+y,z
1/2+x,1/2-y,1/2+z
loop_
_atom_site_type_symbol
_atom_site_label
_atom_site_fract_x
_atom_site_fract_y
_atom_site_fract_z
Si Si1 0.796492 0.772721 0.917563
Si Si2 0.901002 0.547134 0.580694
Si Si3 0.283191 0.047065 0.581125
Si Si4 0.853869 0.702345 0.081846
Si Si5 0.759245 0.363196 0.915425
Si Si6 0.942445 0.635027 0.083919
O O1 0.794547 0.757682 0.750000
O O2 0.790469 0.829705 0.933392
O O3 0.750000 0.750000 0.000000
O O4 0.847295 0.751179 0.989948
O O5 0.919879 0.500000 0.500000
O O6 0.912477 0.541319 0.750000
O O7 0.842115 0.555929 0.549562
O O8 0.932630 0.590790 0.519662
O O9 0.271409 0.041268 0.750000
O O10 0.252389 0.091790 0.519414
O O11 0.264294 0.000000 0.500000
O O12 0.850962 0.716226 0.250000
O O13 0.809746 0.665376 0.040669
O O14 0.907382 0.679295 0.038994
O O15 0.764340 0.381128 0.750000
O O16 0.930379 0.619993 0.250000
O O17 0.000000 0.651850 0.065659
#
# Coordination Sequence:
#
# PCOD8256599 Si02
#       6
#    16  16  16  16  16  16
#     4   9  17  27  41  61  81 102 125 154 194 236
#     4  10  20  32  45  59  74  97 130 169 211 251
#     4  10  19  28  41  59  78 103 131 161 198 238
#     4   9  17  29  43  59  79 101 126 162 201 240
#     4   9  16  27  42  59  79 101 126 159 194 232
#     4  10  20  33  47  60  76 101 132 168 211 251
#
# _framework density 13.964657000000001
#
# number of rings (size 3 to 8) (size 9 to 14) (size 15 to 20)
#    0.000    2.500    1.667    2.500    0.000    6.000 
#    0.000    0.000    0.000    0.000    0.000    0.000 
#    0.000    0.000    0.000    0.000    0.000    0.833 
#
# Total GULP energy -595105.060648 kJ/mol
# GULP energy per Si atom -12398.022097 kJ/mol
# Density = 1.393287 g / cm^3
# Si number density = 13.964657 Si / 1000 Ang^3
#
#
#
# Elastic Constant Matrix: (Units=GPa)
#
#
# Indices 1 2 3 4 5 6 
#
# 1 49.0169 46.9054 33.4767 0.0000 0.0000 0.0000
# 2 46.9054 90.3270 55.5900 0.0000 0.0000 0.0000
# 3 33.4767 55.5900 83.7365 0.0000 0.0000 0.0000
# 4 0.0000 0.0000 0.0000 29.1576 0.0000 0.0000
# 5 0.0000 0.0000 0.0000 0.0000 14.9829 0.0000
# 6 0.0000 0.0000 0.0000 0.0000 0.0000 19.3099
#
#
#
# Elastic Compliance Matrix: (Units=1/GPa)
#
#
# Indices 1 2 3 4 5 6 
#
# 1 0.041270 -0.019067 -0.003841 0.000000 0.000000 0.000000
# 2 -0.019067 0.027528 -0.010652 0.000000 0.000000 0.000000
# 3 -0.003841 -0.010652 0.020549 0.000000 0.000000 0.000000
# 4 0.000000 0.000000 0.000000 0.034296 0.000000 0.000000
# 5 0.000000 0.000000 0.000000 0.000000 0.066743 0.000000
# 6 0.000000 0.000000 0.000000 0.000000 0.000000 0.051787
#
#
# Mechanical properties :
#
#
# Convention : Reuss Voigt Hill
#
# Bulk Modulus (GPa) = 44.99088 55.00274 49.99681
# Shear Modulus (GPa) = 15.78769 18.49730 17.14250
#
# Velocity S-wave (km/s) = 3.36601 3.64343 3.50746
# Velocity P-wave (km/s) = 6.88435 7.56122 7.23071
#
# Compressibility (1/GPa) = 0.02222673
#
# Stress axis : x y z
#
# Youngs Moduli (GPa) = 24.23060 36.32727 48.66305
#
# Poissons Ratio (x) = 0.69265 0.18693
# Poissons Ratio (y) = 0.46200 0.51836
# Poissons Ratio (z) = 0.09308 0.38696
#
# Static dielectric constant tensor:
#      x y z
#    x 2.592040 0.000000 0.000000 
#    y 0.000000 2.876010 0.000000 
#    z 0.000000 0.000000 2.888940 
# 
# 
# High freq. dielectric constant tensor:
#      x y z
#    x 1.481130 0.000000 0.000000 
#    y 0.000000 1.522950 0.000000 
#    z 0.000000 0.000000 1.546660 
# 
# From -- ./inp_files/13001.got.cif
#   From: 2010.03.12/outbox.cif.g09.slc.cpg/sg63_7_cif.got.tgz:13001.got - 2010.04.10 19:34:48.
