data_PCOD8256366
_publ_section_title
;
Structure prediction by ZEFSAII (Michael W. Deem and Ramdas Pophale) SiO2 
 PCOD8256366
Probable space group: C M C M
;
_chemical_formula_sum "Si O2"
_cell_formula_units_Z 96
_cell_length_a 14.055752
_cell_length_b 21.238769
_cell_length_c 14.325337
_cell_angle_alpha 90.000000
_cell_angle_beta 90.000000
_cell_angle_gamma 90.000000
_cell_volume 4276.498014
_symmetry_space_group_name_H-M "C M C M"
_symmetry_group_IT_number 63
_symmetry_cell_setting 'orthorhombic'
loop_
_space_group_symop_operation_xyz
x,y,z
-x,-y,1/2+z
x,-y,-z
-x,y,1/2-z
-x,-y,-z
x,y,1/2-z
-x,y,z
x,-y,1/2+z
1/2+x,1/2+y,z
1/2-x,1/2-y,1/2+z
1/2+x,1/2-y,-z
1/2-x,1/2+y,1/2-z
1/2-x,1/2-y,-z
1/2+x,1/2+y,1/2-z
1/2-x,1/2+y,z
1/2+x,1/2-y,1/2+z
loop_
_atom_site_type_symbol
_atom_site_label
_atom_site_fract_x
_atom_site_fract_y
_atom_site_fract_z
Si Si1 0.111141 0.830319 0.354238
Si Si2 0.612305 0.152857 0.852108
Si Si3 0.607601 0.012419 0.891258
Si Si4 0.771646 0.396344 0.646878
Si Si5 0.889678 0.072959 0.008421
Si Si6 0.613366 0.792892 0.957995
O O1 0.157161 0.832952 0.250000
O O2 0.134383 0.894621 0.409084
O O3 0.152466 0.772485 0.415566
O O4 0.000000 0.820423 0.342993
O O5 0.649169 0.175764 0.750000
O O6 0.500000 0.151690 0.854144
O O7 0.648558 0.082067 0.871578
O O8 0.649312 0.199453 0.934088
O O9 0.500000 0.004903 0.851758
O O10 0.679206 0.964302 0.842718
O O11 0.608867 0.000000 0.000000
O O12 0.744287 0.372637 0.750000
O O13 0.673986 0.396724 0.588875
O O14 0.848445 0.350144 0.602520
O O15 0.000000 0.083902 0.035400
O O16 0.864333 0.000000 0.000000
O O17 0.500000 0.796477 0.953952
#
# Coordination Sequence:
#
# PCOD8256366 Si02
#       6
#    16  16  16  16  16  16
#     4   9  19  40  70  96 120 158 204 250 310 380
#     4   9  17  30  50  79 123 176 214 238 279 348
#     4  10  18  32  53  83 127 174 212 250 297 357
#     4  12  24  36  58  90 126 165 207 254 311 374
#     4  10  24  46  67  88 116 153 208 277 329 364
#     4  10  20  36  60  95 136 167 198 243 297 373
#
# _framework density 22.448273
#
# number of rings (size 3 to 8) (size 9 to 14) (size 15 to 20)
#    0.000    2.000    1.667    2.000    0.000    4.333 
#    0.000    3.333    0.000    3.000    0.000    0.000 
#    0.000    0.000    0.000    0.000    0.000    0.000 
#
# Total GULP energy -595060.352066 kJ/mol
# GULP energy per Si atom -12397.090668 kJ/mol
# Density = 2.239718 g / cm^3
# Si number density = 22.448273 Si / 1000 Ang^3
#
#
#
# Elastic Constant Matrix: (Units=GPa)
#
#
# Indices 1 2 3 4 5 6 
#
# 1 66.3791 17.8260 21.6675 0.0000 0.0000 0.0000
# 2 17.8260 125.9038 81.6448 0.0000 0.0000 0.0000
# 3 21.6675 81.6448 217.5236 0.0000 0.0000 0.0000
# 4 0.0000 0.0000 0.0000 30.0239 0.0000 0.0000
# 5 0.0000 0.0000 0.0000 0.0000 -0.1171 0.0000
# 6 0.0000 0.0000 0.0000 0.0000 0.0000 -3.8709
#
#
#
# Elastic Compliance Matrix: (Units=1/GPa)
#
#
# Indices 1 2 3 4 5 6 
#
# 1 0.015814 -0.001609 -0.000971 0.000000 0.000000 0.000000
# 2 -0.001609 0.010661 -0.003841 0.000000 0.000000 0.000000
# 3 -0.000971 -0.003841 0.006136 0.000000 0.000000 0.000000
# 4 0.000000 0.000000 0.000000 0.033307 0.000000 0.000000
# 5 0.000000 0.000000 0.000000 0.000000 -8.538824 0.000000
# 6 0.000000 0.000000 0.000000 0.000000 0.000000 -0.258340
#
#
# Mechanical properties :
#
#
# Convention : Reuss Voigt Hill
#
# Bulk Modulus (GPa) = 50.58748 72.45367 61.52057
# Shear Modulus (GPa) = -0.57393 24.45174 11.93890
#
# Velocity S-wave (km/s) = -0.50619 3.30396 2.30867
# Velocity P-wave (km/s) = 4.71619 6.84841 5.87976
#
# Compressibility (1/GPa) = 0.01976774
#
# Stress axis : x y z
#
# Youngs Moduli (GPa) = 63.23439 93.79638 162.97949
#
# Poissons Ratio (x) = 0.15094 0.15829
# Poissons Ratio (y) = 0.10176 0.62606
# Poissons Ratio (z) = 0.06142 0.36030
#
# Static dielectric constant tensor:
#      x y z
#    x 3.854790 0.000000 0.000000 
#    y 0.000000 4.084130 0.000000 
#    z 0.000000 0.000000 4.470270 
# 
# 
# High freq. dielectric constant tensor:
#      x y z
#    x 1.879620 0.000000 0.000000 
#    y 0.000000 1.874340 0.000000 
#    z 0.000000 0.000000 1.894410 
# 
# From -- ./inp_files/31887.got.cif
#   From: 2010.03.12/outbox.cif.g09.slc.cpg/sg63_16_cif.got.tgz:31887.got - 2010.04.10 19:34:48.
