data_PCOD8256498
_publ_section_title
;
Structure prediction by ZEFSAII (Michael W. Deem and Ramdas Pophale) SiO2 
 PCOD8256498
Probable space group: C M C M
;
_chemical_formula_sum "Si O2"
_cell_formula_units_Z 72
_cell_length_a 9.759633
_cell_length_b 17.511050
_cell_length_c 20.214805
_cell_angle_alpha 90.000000
_cell_angle_beta 90.000000
_cell_angle_gamma 90.000000
_cell_volume 3454.738909
_symmetry_space_group_name_H-M "C M C M"
_symmetry_group_IT_number 63
_symmetry_cell_setting 'orthorhombic'
loop_
_space_group_symop_operation_xyz
x,y,z
-x,-y,1/2+z
x,-y,-z
-x,y,1/2-z
-x,-y,-z
x,y,1/2-z
-x,y,z
x,-y,1/2+z
1/2+x,1/2+y,z
1/2-x,1/2-y,1/2+z
1/2+x,1/2-y,-z
1/2-x,1/2+y,1/2-z
1/2-x,1/2-y,-z
1/2+x,1/2+y,1/2-z
1/2-x,1/2+y,z
1/2+x,1/2-y,1/2+z
loop_
_atom_site_type_symbol
_atom_site_label
_atom_site_fract_x
_atom_site_fract_y
_atom_site_fract_z
Si Si1 0.000000 0.888936 0.329528
Si Si2 0.500000 0.091218 0.491196
Si Si3 0.500000 0.842709 0.135733
Si Si4 0.291246 0.112766 0.381604
Si Si5 0.500000 0.223052 0.175483
Si Si6 0.723982 0.954870 0.174862
Si Si7 0.000000 0.164402 0.168929
O O1 0.000000 0.804277 0.362394
O O2 0.130362 0.934200 0.357145
O O3 0.000000 0.887658 0.250000
O O4 0.500000 0.138874 0.558362
O O5 0.359030 0.119442 0.454722
O O6 0.500000 0.000000 0.500000
O O7 0.631684 0.879962 0.169579
O O8 0.500000 0.753558 0.152131
O O9 0.362914 0.175907 0.336818
O O10 0.129388 0.125305 0.368835
O O11 0.338398 0.027532 0.362071
O O12 0.500000 0.248702 0.250000
O O13 0.741400 0.979834 0.250000
O O14 0.000000 0.150646 0.250000
#
# Coordination Sequence:
#
# PCOD8256498 Si02
#       7
#     8   8   8  16   8  16   8
#     4   9  20  34  53  83 129 159 190 250 322 398
#     4  11  23  48  66  90 126 177 242 269 291 380
#     4  12  24  40  67  88 130 174 217 276 315 380
#     4  11  23  39  66  89 127 171 209 272 323 377
#     4  10  18  34  56  85 118 164 205 248 316 387
#     4  11  20  35  59  92 120 165 216 264 331 384
#     4  12  25  42  63 105 139 156 200 279 353 398
#
# _framework density 20.840938000000001
#
# number of rings (size 3 to 8) (size 9 to 14) (size 15 to 20)
#    0.000    1.111    2.222    5.667    0.000    3.556 
#    0.000    1.667    0.000    0.000    0.000    0.000 
#    0.000    0.000    0.000    0.000    0.000    0.000 
#
# Total GULP energy -446092.490110 kJ/mol
# GULP energy per Si atom -12391.458059 kJ/mol
# Density = 2.079350 g / cm^3
# Si number density = 20.840938 Si / 1000 Ang^3
#
#
#
# Elastic Constant Matrix: (Units=GPa)
#
#
# Indices 1 2 3 4 5 6 
#
# 1 125.7155 9.0108 36.8080 0.0000 0.0000 0.0000
# 2 9.0108 101.8782 25.3234 0.0000 0.0000 0.0000
# 3 36.8080 25.3234 64.8124 0.0000 0.0000 0.0000
# 4 0.0000 0.0000 0.0000 10.4978 0.0000 0.0000
# 5 0.0000 0.0000 0.0000 0.0000 38.5657 0.0000
# 6 0.0000 0.0000 0.0000 0.0000 0.0000 41.9372
#
#
#
# Elastic Compliance Matrix: (Units=1/GPa)
#
#
# Indices 1 2 3 4 5 6 
#
# 1 0.009570 0.000559 -0.005653 0.000000 0.000000 0.000000
# 2 0.000559 0.010904 -0.004578 0.000000 0.000000 0.000000
# 3 -0.005653 -0.004578 0.020428 0.000000 0.000000 0.000000
# 4 0.000000 0.000000 0.000000 0.095258 0.000000 0.000000
# 5 0.000000 0.000000 0.000000 0.000000 0.025930 0.000000
# 6 0.000000 0.000000 0.000000 0.000000 0.000000 0.023845
#
#
# Mechanical properties :
#
#
# Convention : Reuss Voigt Hill
#
# Bulk Modulus (GPa) = 46.38691 48.29894 47.34292
# Shear Modulus (GPa) = 23.53335 32.95106 28.24220
#
# Velocity S-wave (km/s) = 3.36399 3.98059 3.68520
# Velocity P-wave (km/s) = 6.11510 6.65974 6.39322
#
# Compressibility (1/GPa) = 0.02155781
#
# Stress axis : x y z
#
# Youngs Moduli (GPa) = 104.49800 91.70872 48.95192
#
# Poissons Ratio (x) = -0.05124 0.27673
# Poissons Ratio (y) = -0.05839 0.22409
# Poissons Ratio (z) = 0.59073 0.41982
#
# Static dielectric constant tensor:
#      x y z
#    x 3.902930 0.000000 0.000000 
#    y 0.000000 3.823660 0.000000 
#    z 0.000000 0.000000 3.615680 
# 
# 
# High freq. dielectric constant tensor:
#      x y z
#    x 1.827930 0.000000 0.000000 
#    y 0.000000 1.833960 0.000000 
#    z 0.000000 0.000000 1.786930 
# 
# From -- ./inp_files/59374.got.cif
#   From: 2010.03.12/outbox.cif.g09.slc.cpg/sg63_30_cif.got.tgz:59374.got - 2010.04.10 19:34:48.
