data_PCOD8256618
_publ_section_title
;
Structure prediction by ZEFSAII (Michael W. Deem and Ramdas Pophale) SiO2 
 PCOD8256618
Probable space group: C M C M
;
_chemical_formula_sum "Si O2"
_cell_formula_units_Z 80
_cell_length_a 28.818512
_cell_length_b 22.934171
_cell_length_c 9.061103
_cell_angle_alpha 90.000000
_cell_angle_beta 90.000000
_cell_angle_gamma 90.000000
_cell_volume 5988.742865
_symmetry_space_group_name_H-M "C M C M"
_symmetry_group_IT_number 63
_symmetry_cell_setting 'orthorhombic'
loop_
_space_group_symop_operation_xyz
x,y,z
-x,-y,1/2+z
x,-y,-z
-x,y,1/2-z
-x,-y,-z
x,y,1/2-z
-x,y,z
x,-y,1/2+z
1/2+x,1/2+y,z
1/2-x,1/2-y,1/2+z
1/2+x,1/2-y,-z
1/2-x,1/2+y,1/2-z
1/2-x,1/2-y,-z
1/2+x,1/2+y,1/2-z
1/2-x,1/2+y,z
1/2+x,1/2-y,1/2+z
loop_
_atom_site_type_symbol
_atom_site_label
_atom_site_fract_x
_atom_site_fract_y
_atom_site_fract_z
Si Si1 0.321788 0.772744 0.418520
Si Si2 0.283553 0.940614 0.917537
Si Si3 0.945924 0.440557 0.421301
Si Si4 0.627085 0.134150 0.423542
Si Si5 0.261809 0.327122 0.581289
O O1 0.334444 0.787574 0.250000
O O2 0.362002 0.799687 0.521821
O O3 0.313033 0.702423 0.439681
O O4 0.272517 0.800884 0.459799
O O5 0.290367 0.958741 0.750000
O O6 0.330271 0.907646 0.971073
O O7 0.239167 0.897371 0.940273
O O8 0.273806 0.000000 0.000000
O O9 0.930169 0.500000 0.500000
O O10 0.933094 0.445934 0.250000
O O11 0.919057 0.386988 0.494718
O O12 0.000000 0.428438 0.446052
O O13 0.618346 0.135008 0.250000
O O14 0.243952 0.314064 0.750000
#
# Coordination Sequence:
#
# PCOD8256618 Si02
#       5
#    16  16  16  16  16
#     4   9  15  24  39  54  68  89 117 149 184 219
#     4   9  17  26  35  50  71  94 120 149 180 213
#     4  10  20  32  44  57  73  94 121 152 187 226
#     4  10  19  29  40  54  73  94 120 155 189 222
#     4   8  15  26  36  49  71  94 116 146 183 220
#
# _framework density 13.358397
#
# number of rings (size 3 to 8) (size 9 to 14) (size 15 to 20)
#    0.000    2.800    0.000    3.600    0.000    7.600 
#    0.000    0.000    0.000    0.000    0.000    0.000 
#    0.000    0.000    0.000    0.000    0.000    1.000 
#
# Total GULP energy -495576.154484 kJ/mol
# GULP energy per Si atom -12389.403862 kJ/mol
# Density = 1.332799 g / cm^3
# Si number density = 13.358397 Si / 1000 Ang^3
#
#
#
# Elastic Constant Matrix: (Units=GPa)
#
#
# Indices 1 2 3 4 5 6 
#
# 1 43.0561 33.3383 30.2204 0.0000 0.0000 0.0000
# 2 33.3383 69.9503 34.4362 0.0000 0.0000 0.0000
# 3 30.2204 34.4362 67.9441 0.0000 0.0000 0.0000
# 4 0.0000 0.0000 0.0000 22.2733 0.0000 0.0000
# 5 0.0000 0.0000 0.0000 0.0000 17.4633 0.0000
# 6 0.0000 0.0000 0.0000 0.0000 0.0000 23.6858
#
#
#
# Elastic Compliance Matrix: (Units=1/GPa)
#
#
# Indices 1 2 3 4 5 6 
#
# 1 0.042684 -0.014653 -0.011559 0.000000 0.000000 0.000000
# 2 -0.014653 0.024079 -0.005687 0.000000 0.000000 0.000000
# 3 -0.011559 -0.005687 0.022741 0.000000 0.000000 0.000000
# 4 0.000000 0.000000 0.000000 0.044897 0.000000 0.000000
# 5 0.000000 0.000000 0.000000 0.000000 0.057263 0.000000
# 6 0.000000 0.000000 0.000000 0.000000 0.000000 0.042219
#
#
# Mechanical properties :
#
#
# Convention : Reuss Voigt Hill
#
# Bulk Modulus (GPa) = 38.89849 41.88226 40.39037
# Shear Modulus (GPa) = 16.32658 18.21484 17.27071
#
# Velocity S-wave (km/s) = 3.49978 3.69663 3.59955
# Velocity P-wave (km/s) = 6.74638 7.04563 6.89763
#
# Compressibility (1/GPa) = 0.02570794
#
# Stress axis : x y z
#
# Youngs Moduli (GPa) = 23.42795 41.53001 43.97318
#
# Poissons Ratio (x) = 0.60854 0.50827
# Poissons Ratio (y) = 0.34329 0.25006
# Poissons Ratio (z) = 0.27079 0.23616
#
# Static dielectric constant tensor:
#      x y z
#    x 2.446680 0.000000 0.000000 
#    y 0.000000 2.821640 0.000000 
#    z 0.000000 0.000000 2.788590 
# 
# 
# High freq. dielectric constant tensor:
#      x y z
#    x 1.459440 0.000000 0.000000 
#    y 0.000000 1.496220 0.000000 
#    z 0.000000 0.000000 1.525950 
# 
# From -- ./inp_files/14292.got.cif
#   From: 2010.03.12/outbox.cif.g09.slc.cpg/sg63_8_cif.got.tgz:14292.got - 2010.04.10 19:34:48.
