data_PCOD8256397
_publ_section_title
;
Structure prediction by ZEFSAII (Michael W. Deem and Ramdas Pophale) SiO2 
 PCOD8256397
Probable space group: C M C M
;
_chemical_formula_sum "Si O2"
_cell_formula_units_Z 112
_cell_length_a 13.852057
_cell_length_b 31.190578
_cell_length_c 14.085143
_cell_angle_alpha 90.000000
_cell_angle_beta 90.000000
_cell_angle_gamma 90.000000
_cell_volume 6085.537646
_symmetry_space_group_name_H-M "C M C M"
_symmetry_group_IT_number 63
_symmetry_cell_setting 'orthorhombic'
loop_
_space_group_symop_operation_xyz
x,y,z
-x,-y,1/2+z
x,-y,-z
-x,y,1/2-z
-x,-y,-z
x,y,1/2-z
-x,y,z
x,-y,1/2+z
1/2+x,1/2+y,z
1/2-x,1/2-y,1/2+z
1/2+x,1/2-y,-z
1/2-x,1/2+y,1/2-z
1/2-x,1/2-y,-z
1/2+x,1/2+y,1/2-z
1/2-x,1/2+y,z
1/2+x,1/2-y,1/2+z
loop_
_atom_site_type_symbol
_atom_site_label
_atom_site_fract_x
_atom_site_fract_y
_atom_site_fract_z
Si Si1 0.807674 0.480813 0.356091
Si Si2 0.607743 0.379314 0.963646
Si Si3 0.112269 0.560116 0.034925
Si Si4 0.794098 0.632171 0.357035
Si Si5 0.389567 0.283988 0.012639
Si Si6 0.736486 0.770586 0.641152
Si Si7 0.893646 0.036026 0.920589
O O1 0.850853 0.476293 0.250000
O O2 0.855318 0.445411 0.425416
O O3 0.829104 0.527764 0.397710
O O4 0.691944 0.474387 0.347536
O O5 0.500000 0.383222 0.920149
O O6 0.682641 0.380160 0.876780
O O7 0.618947 0.335261 0.022465
O O8 0.629695 0.417881 0.034599
O O9 0.135166 0.608089 0.069629
O O10 0.000000 0.549851 0.044078
O O11 0.818834 0.618070 0.250000
O O12 0.811032 0.682590 0.371458
O O13 0.500000 0.268970 0.004757
O O14 0.341746 0.263909 0.106431
O O15 0.334972 0.266789 0.918860
O O16 0.763087 0.761281 0.750000
O O17 0.000000 0.036606 0.871113
O O18 0.892373 0.000000 0.000000
#
# Coordination Sequence:
#
# PCOD8256397 Si02
#       7
#    16  16  16  16  16  16  16
#     4  11  21  36  56  76 102 138 179 219 264 314
#     4   9  17  32  54  78 108 141 173 210 261 322
#     4  11  23  38  54  76 105 137 179 227 270 312
#     4  10  19  33  55  81 108 137 171 217 275 323
#     4   9  18  33  54  78 108 145 178 216 267 321
#     4   9  19  34  54  82 110 138 178 225 270 320
#     4  10  18  32  55  80 108 139 171 211 260 314
#
# _framework density 18.404291000000001
#
# number of rings (size 3 to 8) (size 9 to 14) (size 15 to 20)
#    0.000    2.143    2.857    1.286    0.000    3.714 
#    0.000    5.000    0.000    6.857    0.000    2.000 
#    0.000    0.000    0.000    0.000    0.000    0.000 
#
# Total GULP energy -694310.095488 kJ/mol
# GULP energy per Si atom -12398.394562 kJ/mol
# Density = 1.836240 g / cm^3
# Si number density = 18.404291 Si / 1000 Ang^3
#
#
#
# Elastic Constant Matrix: (Units=GPa)
#
#
# Indices 1 2 3 4 5 6 
#
# 1 104.3445 39.9957 31.6393 0.0000 0.0000 0.0000
# 2 39.9957 78.5982 37.5627 0.0000 0.0000 0.0000
# 3 31.6393 37.5627 107.3158 0.0000 0.0000 0.0000
# 4 0.0000 0.0000 0.0000 20.2251 0.0000 0.0000
# 5 0.0000 0.0000 0.0000 0.0000 11.9658 0.0000
# 6 0.0000 0.0000 0.0000 0.0000 0.0000 27.1107
#
#
#
# Elastic Compliance Matrix: (Units=1/GPa)
#
#
# Indices 1 2 3 4 5 6 
#
# 1 0.012160 -0.005373 -0.001704 0.000000 0.000000 0.000000
# 2 -0.005373 0.017653 -0.004595 0.000000 0.000000 0.000000
# 3 -0.001704 -0.004595 0.011429 0.000000 0.000000 0.000000
# 4 0.000000 0.000000 0.000000 0.049444 0.000000 0.000000
# 5 0.000000 0.000000 0.000000 0.000000 0.083571 0.000000
# 6 0.000000 0.000000 0.000000 0.000000 0.000000 0.036886
#
#
# Mechanical properties :
#
#
# Convention : Reuss Voigt Hill
#
# Bulk Modulus (GPa) = 55.87400 56.51711 56.19556
# Shear Modulus (GPa) = 20.79408 23.93106 22.36257
#
# Velocity S-wave (km/s) = 3.36497 3.60988 3.48957
# Velocity P-wave (km/s) = 6.74704 6.93904 6.84371
#
# Compressibility (1/GPa) = 0.01789741
#
# Stress axis : x y z
#
# Youngs Moduli (GPa) = 82.23675 56.64743 87.49657
#
# Poissons Ratio (x) = 0.30438 0.14912
# Poissons Ratio (y) = 0.44188 0.40203
# Poissons Ratio (z) = 0.14016 0.26028
#
# Static dielectric constant tensor:
#      x y z
#    x 3.569910 0.000000 0.000000 
#    y 0.000000 3.442410 0.000000 
#    z 0.000000 0.000000 3.180490 
# 
# 
# High freq. dielectric constant tensor:
#      x y z
#    x 1.721230 0.000000 0.000000 
#    y 0.000000 1.712890 0.000000 
#    z 0.000000 0.000000 1.689670 
# 
# From -- ./inp_files/32785.got.cif
#   From: 2010.03.12/outbox.cif.g09.slc.cpg/sg63_17_cif.got.tgz:32785.got - 2010.04.10 19:34:48.
