data_PCOD8256703
_publ_section_title
;
Structure prediction by ZEFSAII (Michael W. Deem and Ramdas Pophale) SiO2 
 PCOD8256703
Probable space group: C M C M
;
_chemical_formula_sum "Si O2"
_cell_formula_units_Z 80
_cell_length_a 24.334918
_cell_length_b 23.305295
_cell_length_c 9.668240
_cell_angle_alpha 90.000000
_cell_angle_beta 90.000000
_cell_angle_gamma 90.000000
_cell_volume 5483.172569
_symmetry_space_group_name_H-M "C M C M"
_symmetry_group_IT_number 63
_symmetry_cell_setting 'orthorhombic'
loop_
_space_group_symop_operation_xyz
x,y,z
-x,-y,1/2+z
x,-y,-z
-x,y,1/2-z
-x,-y,-z
x,y,1/2-z
-x,y,z
x,-y,1/2+z
1/2+x,1/2+y,z
1/2-x,1/2-y,1/2+z
1/2+x,1/2-y,-z
1/2-x,1/2+y,1/2-z
1/2-x,1/2-y,-z
1/2+x,1/2+y,1/2-z
1/2-x,1/2+y,z
1/2+x,1/2-y,1/2+z
loop_
_atom_site_type_symbol
_atom_site_label
_atom_site_fract_x
_atom_site_fract_y
_atom_site_fract_z
Si Si1 0.329817 0.445992 0.912462
Si Si2 0.673559 0.780298 0.090152
Si Si3 0.940146 0.761185 0.914179
Si Si4 0.060281 0.889499 0.586337
Si Si5 0.239888 0.834414 0.907738
O O1 0.329798 0.460866 0.750000
O O2 0.390949 0.430045 0.968360
O O3 0.289217 0.393737 0.945703
O O4 0.308670 0.500000 0.000000
O O5 0.677851 0.798182 0.250000
O O6 0.610153 0.779166 0.036485
O O7 0.697214 0.716761 0.064837
O O8 0.706331 0.827473 0.002585
O O9 0.936972 0.765894 0.750000
O O10 0.933408 0.825366 0.975538
O O11 0.000000 0.735959 0.959702
O O12 0.066172 0.885214 0.750000
O O13 0.000000 0.914390 0.544669
O O14 0.259924 0.833967 0.750000
#
# Coordination Sequence:
#
# PCOD8256703 Si02
#       5
#    16  16  16  16  16
#     4  10  19  30  42  57  79 107 141 176 206 237
#     4   9  15  25  43  63  80 101 133 168 199 239
#     4   8  12  20  38  62  83 103 131 166 199 233
#     4   8  13  23  39  56  76 105 139 171 202 235
#     4   9  17  28  40  57  81 107 134 165 204 243
#
# _framework density 14.590093
#
# number of rings (size 3 to 8) (size 9 to 14) (size 15 to 20)
#    0.000    3.200    2.000    1.200    0.000    1.200 
#    0.000    0.000    0.000    0.600    0.000    2.800 
#    0.000    0.800    0.000    1.800    0.000    2.800 
#
# Total GULP energy -495653.038482 kJ/mol
# GULP energy per Si atom -12391.325962 kJ/mol
# Density = 1.455689 g / cm^3
# Si number density = 14.590093 Si / 1000 Ang^3
#
#
#
# Elastic Constant Matrix: (Units=GPa)
#
#
# Indices 1 2 3 4 5 6 
#
# 1 116.0930 52.5264 42.7930 0.0000 0.0000 0.0000
# 2 52.5264 67.4657 34.4578 0.0000 0.0000 0.0000
# 3 42.7930 34.4578 38.5177 0.0000 0.0000 0.0000
# 4 0.0000 0.0000 0.0000 19.4126 0.0000 0.0000
# 5 0.0000 0.0000 0.0000 0.0000 16.8735 0.0000
# 6 0.0000 0.0000 0.0000 0.0000 0.0000 19.7056
#
#
#
# Elastic Compliance Matrix: (Units=1/GPa)
#
#
# Indices 1 2 3 4 5 6 
#
# 1 0.015870 -0.006169 -0.012112 0.000000 0.000000 0.000000
# 2 -0.006169 0.029691 -0.019707 0.000000 0.000000 0.000000
# 3 -0.012112 -0.019707 0.057049 0.000000 0.000000 0.000000
# 4 0.000000 0.000000 0.000000 0.051513 0.000000 0.000000
# 5 0.000000 0.000000 0.000000 0.000000 0.059265 0.000000
# 6 0.000000 0.000000 0.000000 0.000000 0.000000 0.050747
#
#
# Mechanical properties :
#
#
# Convention : Reuss Voigt Hill
#
# Bulk Modulus (GPa) = 37.54910 53.51455 45.53182
# Shear Modulus (GPa) = 14.32711 17.35162 15.83937
#
# Velocity S-wave (km/s) = 3.13705 3.45233 3.29846
# Velocity P-wave (km/s) = 6.23805 7.25601 6.76620
#
# Compressibility (1/GPa) = 0.02663179
#
# Stress axis : x y z
#
# Youngs Moduli (GPa) = 63.01285 33.68013 17.52894
#
# Poissons Ratio (x) = 0.20779 0.21231
# Poissons Ratio (y) = 0.38876 0.34545
# Poissons Ratio (z) = 0.76321 0.66374
#
# Static dielectric constant tensor:
#      x y z
#    x 3.153430 0.000000 0.000000 
#    y 0.000000 2.547040 0.000000 
#    z 0.000000 0.000000 2.521490 
# 
# 
# High freq. dielectric constant tensor:
#      x y z
#    x 1.563470 0.000000 0.000000 
#    y 0.000000 1.518970 0.000000 
#    z 0.000000 0.000000 1.522140 
# 
# From -- ./inp_files/10963.got.cif
#   From: 2010.03.12/outbox.cif.g09.slc.cpg/sg63_6_cif.got.tgz:10963.got - 2010.04.10 19:34:48.
