data_PCOD8256377
_publ_section_title
;
Structure prediction by ZEFSAII (Michael W. Deem and Ramdas Pophale) SiO2 
 PCOD8256377
Probable space group: C M C M
;
_chemical_formula_sum "Si O2"
_cell_formula_units_Z 96
_cell_length_a 8.979496
_cell_length_b 25.541757
_cell_length_c 23.558766
_cell_angle_alpha 90.000000
_cell_angle_beta 90.000000
_cell_angle_gamma 90.000000
_cell_volume 5403.252569
_symmetry_space_group_name_H-M "C M C M"
_symmetry_group_IT_number 63
_symmetry_cell_setting 'orthorhombic'
loop_
_space_group_symop_operation_xyz
x,y,z
-x,-y,1/2+z
x,-y,-z
-x,y,1/2-z
-x,-y,-z
x,y,1/2-z
-x,y,z
x,-y,1/2+z
1/2+x,1/2+y,z
1/2-x,1/2-y,1/2+z
1/2+x,1/2-y,-z
1/2-x,1/2+y,1/2-z
1/2-x,1/2-y,-z
1/2+x,1/2+y,1/2-z
1/2-x,1/2+y,z
1/2+x,1/2-y,1/2+z
loop_
_atom_site_type_symbol
_atom_site_label
_atom_site_fract_x
_atom_site_fract_y
_atom_site_fract_z
Si Si1 0.174122 0.349404 0.621226
Si Si2 0.322705 0.652364 0.889463
Si Si3 0.323310 0.558135 0.687087
Si Si4 0.175280 0.693332 0.998736
Si Si5 0.677114 0.748660 0.686675
Si Si6 0.324466 0.440569 0.685605
O O1 0.211791 0.337749 0.556120
O O2 0.238515 0.301956 0.659113
O O3 0.250071 0.402994 0.639904
O O4 0.000000 0.355455 0.631404
O O5 0.500000 0.653262 0.898398
O O6 0.265298 0.599051 0.859790
O O7 0.267395 0.700019 0.850335
O O8 0.242351 0.657144 0.949601
O O9 0.262094 0.572865 0.750000
O O10 0.500000 0.560950 0.689514
O O11 0.271917 0.499587 0.670730
O O12 0.000000 0.701522 0.990603
O O13 0.250000 0.750000 0.000000
O O14 0.742372 0.743439 0.750000
O O15 0.500000 0.749113 0.687726
O O16 0.275188 0.426373 0.750000
O O17 0.500000 0.435532 0.679687
#
# Coordination Sequence:
#
# PCOD8256377 Si02
#       6
#    16  16  16  16  16  16
#     4  10  20  34  51  73 101 136 177 211 249 305
#     4  10  18  32  54  79 103 133 172 212 258 305
#     4   8  15  30  54  81 107 136 172 212 254 307
#     4  11  22  37  54  74 102 138 177 216 256 304
#     4   9  16  27  47  75 102 126 161 208 252 303
#     4   9  18  33  53  79 108 136 169 212 260 304
#
# _framework density 17.767077
#
# number of rings (size 3 to 8) (size 9 to 14) (size 15 to 20)
#    0.000    2.500    1.667    2.500    0.000    4.333 
#    0.000    1.667    0.000    8.000    0.000    0.000 
#    0.000    0.000    0.000    0.000    0.000    0.000 
#
# Total GULP energy -595128.100709 kJ/mol
# GULP energy per Si atom -12398.502098 kJ/mol
# Density = 1.772664 g / cm^3
# Si number density = 17.767077 Si / 1000 Ang^3
#
#
#
# Elastic Constant Matrix: (Units=GPa)
#
#
# Indices 1 2 3 4 5 6 
#
# 1 36.6288 36.9893 44.0683 0.0000 0.0000 0.0000
# 2 36.9893 146.5502 85.5468 0.0000 0.0000 0.0000
# 3 44.0683 85.5468 146.0187 0.0000 0.0000 0.0000
# 4 0.0000 0.0000 0.0000 31.7220 0.0000 0.0000
# 5 0.0000 0.0000 0.0000 0.0000 27.5499 0.0000
# 6 0.0000 0.0000 0.0000 0.0000 0.0000 24.8172
#
#
#
# Elastic Compliance Matrix: (Units=1/GPa)
#
#
# Indices 1 2 3 4 5 6 
#
# 1 0.045383 -0.005257 -0.010616 0.000000 0.000000 0.000000
# 2 -0.005257 0.010979 -0.004846 0.000000 0.000000 0.000000
# 3 -0.010616 -0.004846 0.012891 0.000000 0.000000 0.000000
# 4 0.000000 0.000000 0.000000 0.031524 0.000000 0.000000
# 5 0.000000 0.000000 0.000000 0.000000 0.036298 0.000000
# 6 0.000000 0.000000 0.000000 0.000000 0.000000 0.040295
#
#
# Mechanical properties :
#
#
# Convention : Reuss Voigt Hill
#
# Bulk Modulus (GPa) = 35.95261 73.60070 54.77666
# Shear Modulus (GPa) = 21.92221 27.65738 24.78979
#
# Velocity S-wave (km/s) = 3.51645 3.94974 3.73938
# Velocity P-wave (km/s) = 6.06356 7.89404 7.03856
#
# Compressibility (1/GPa) = 0.02781439
#
# Stress axis : x y z
#
# Youngs Moduli (GPa) = 22.03488 91.08214 77.57214
#
# Poissons Ratio (x) = 0.47886 0.82353
# Poissons Ratio (y) = 0.11585 0.37588
# Poissons Ratio (z) = 0.23393 0.44134
#
# Static dielectric constant tensor:
#      x y z
#    x 2.919810 0.000000 0.000000 
#    y 0.000000 3.468060 0.000000 
#    z 0.000000 0.000000 3.521370 
# 
# 
# High freq. dielectric constant tensor:
#      x y z
#    x 1.649850 0.000000 0.000000 
#    y 0.000000 1.692380 0.000000 
#    z 0.000000 0.000000 1.693250 
# 
# From -- ./inp_files/53072.got.cif
#   From: 2010.03.12/outbox.cif.g09.slc.cpg/sg63_27_cif.got.tgz:53072.got - 2010.04.10 19:34:48.
