data_PCOD8256269
_publ_section_title
;
Structure prediction by ZEFSAII (Michael W. Deem and Ramdas Pophale) SiO2 
 PCOD8256269
Probable space group: C M C M
;
_chemical_formula_sum "Si O2"
_cell_formula_units_Z 96
_cell_length_a 9.093998
_cell_length_b 24.832849
_cell_length_c 23.839134
_cell_angle_alpha 90.000000
_cell_angle_beta 90.000000
_cell_angle_gamma 90.000000
_cell_volume 5383.588750
_symmetry_space_group_name_H-M "C M C M"
_symmetry_group_IT_number 63
_symmetry_cell_setting 'orthorhombic'
loop_
_space_group_symop_operation_xyz
x,y,z
-x,-y,1/2+z
x,-y,-z
-x,y,1/2-z
-x,-y,-z
x,y,1/2-z
-x,y,z
x,-y,1/2+z
1/2+x,1/2+y,z
1/2-x,1/2-y,1/2+z
1/2+x,1/2-y,-z
1/2-x,1/2+y,1/2-z
1/2-x,1/2-y,-z
1/2+x,1/2+y,1/2-z
1/2-x,1/2+y,z
1/2+x,1/2-y,1/2+z
loop_
_atom_site_type_symbol
_atom_site_label
_atom_site_fract_x
_atom_site_fract_y
_atom_site_fract_z
Si Si1 0.828566 0.020907 0.631879
Si Si2 0.326141 0.897566 0.443571
Si Si3 0.173380 0.181215 0.131901
Si Si4 0.828273 0.083088 0.057244
Si Si5 0.325764 0.522624 0.250000
Si Si6 0.175813 0.143980 0.250000
Si Si7 0.827591 0.274679 0.446624
O O1 0.735747 0.071360 0.610216
O O2 0.000000 0.035882 0.630817
O O3 0.796601 0.969102 0.594078
O O4 0.772488 0.008962 0.694832
O O5 0.500000 0.903600 0.445893
O O6 0.258474 0.923280 0.499443
O O7 0.276383 0.835625 0.436856
O O8 0.234517 0.134866 0.090534
O O9 0.237755 0.174391 0.194696
O O10 0.217173 0.239792 0.108160
O O11 0.000000 0.172972 0.134796
O O12 0.000000 0.089170 0.043063
O O13 0.500000 0.527607 0.250000
O O14 0.262074 0.583179 0.250000
O O15 0.000000 0.144029 0.250000
O O16 0.750000 0.250000 0.500000
O O17 0.000000 0.270918 0.457851
#
# Coordination Sequence:
#
# PCOD8256269 Si02
#       7
#    16  16  16  16   8   8  16
#     4  10  20  34  54  79 104 132 172 218 261 308
#     4  11  23  35  48  73 110 146 176 206 251 313
#     4   9  16  28  50  79 105 125 159 213 266 303
#     4  10  18  31  54  80 103 130 169 216 262 307
#     4   9  16  30  52  79 103 125 165 216 261 308
#     4   9  14  26  51  81 105 123 155 218 275 300
#     4  10  20  34  52  75 102 135 174 212 253 305
#
# _framework density 17.831972
#
# number of rings (size 3 to 8) (size 9 to 14) (size 15 to 20)
#    0.000    2.167    3.333    1.000    0.000    3.333 
#    0.000    1.250    0.000    2.000    0.000    2.333 
#    0.000    0.000    0.000    0.000    0.000    0.000 
#
# Total GULP energy -595206.959756 kJ/mol
# GULP energy per Si atom -12400.144995 kJ/mol
# Density = 1.779139 g / cm^3
# Si number density = 17.831972 Si / 1000 Ang^3
#
#
#
# Elastic Constant Matrix: (Units=GPa)
#
#
# Indices 1 2 3 4 5 6 
#
# 1 35.5952 42.8528 36.4128 0.0000 0.0000 0.0000
# 2 42.8528 125.8294 77.1384 0.0000 0.0000 0.0000
# 3 36.4128 77.1384 163.4482 0.0000 0.0000 0.0000
# 4 0.0000 0.0000 0.0000 31.4686 0.0000 0.0000
# 5 0.0000 0.0000 0.0000 0.0000 13.7017 0.0000
# 6 0.0000 0.0000 0.0000 0.0000 0.0000 22.5924
#
#
#
# Elastic Compliance Matrix: (Units=1/GPa)
#
#
# Indices 1 2 3 4 5 6 
#
# 1 0.049713 -0.014269 -0.004341 0.000000 0.000000 0.000000
# 2 -0.014269 0.015278 -0.004032 0.000000 0.000000 0.000000
# 3 -0.004341 -0.004032 0.008988 0.000000 0.000000 0.000000
# 4 0.000000 0.000000 0.000000 0.031778 0.000000 0.000000
# 5 0.000000 0.000000 0.000000 0.000000 0.072984 0.000000
# 6 0.000000 0.000000 0.000000 0.000000 0.000000 0.044263
#
#
# Mechanical properties :
#
#
# Convention : Reuss Voigt Hill
#
# Bulk Modulus (GPa) = 34.84835 70.85345 52.85090
# Shear Modulus (GPa) = 17.99522 24.78379 21.38950
#
# Velocity S-wave (km/s) = 3.18017 3.73212 3.46714
# Velocity P-wave (km/s) = 5.75062 7.64145 6.76245
#
# Compressibility (1/GPa) = 0.02869576
#
# Stress axis : x y z
#
# Youngs Moduli (GPa) = 20.11562 65.45183 111.26113
#
# Poissons Ratio (x) = 0.93395 0.48294
# Poissons Ratio (y) = 0.28704 0.44857
# Poissons Ratio (z) = 0.08731 0.26388
#
# Static dielectric constant tensor:
#      x y z
#    x 2.926580 0.000000 0.000000 
#    y 0.000000 3.458850 0.000000 
#    z 0.000000 0.000000 3.625800 
# 
# 
# High freq. dielectric constant tensor:
#      x y z
#    x 1.649690 0.000000 0.000000 
#    y 0.000000 1.693220 0.000000 
#    z 0.000000 0.000000 1.696420 
# 
# From -- ./inp_files/60062.got.cif
#   From: 2010.03.12/outbox.cif.g09.slc.cpg/sg63_31_cif.got.tgz:60062.got - 2010.04.10 19:34:48.
