data_PCOD8256503
_publ_section_title
;
Structure prediction by ZEFSAII (Michael W. Deem and Ramdas Pophale) SiO2 
 PCOD8256503
Probable space group: C M C M
;
_chemical_formula_sum "Si O2"
_cell_formula_units_Z 80
_cell_length_a 13.983104
_cell_length_b 17.918475
_cell_length_c 17.932737
_cell_angle_alpha 90.000000
_cell_angle_beta 90.000000
_cell_angle_gamma 90.000000
_cell_volume 4493.153049
_symmetry_space_group_name_H-M "C M C M"
_symmetry_group_IT_number 63
_symmetry_cell_setting 'orthorhombic'
loop_
_space_group_symop_operation_xyz
x,y,z
-x,-y,1/2+z
x,-y,-z
-x,y,1/2-z
-x,-y,-z
x,y,1/2-z
-x,y,z
x,-y,1/2+z
1/2+x,1/2+y,z
1/2-x,1/2-y,1/2+z
1/2+x,1/2-y,-z
1/2-x,1/2+y,1/2-z
1/2-x,1/2-y,-z
1/2+x,1/2+y,1/2-z
1/2-x,1/2+y,z
1/2+x,1/2-y,1/2+z
loop_
_atom_site_type_symbol
_atom_site_label
_atom_site_fract_x
_atom_site_fract_y
_atom_site_fract_z
Si Si1 0.107842 0.969171 0.578756
Si Si2 0.278116 0.972359 0.163001
Si Si3 0.609191 0.306838 0.528320
Si Si4 0.710937 0.163215 0.557406
Si Si5 0.893965 0.567333 0.442886
O O1 0.112420 0.879747 0.580762
O O2 0.000000 0.998889 0.588510
O O3 0.150337 0.000000 0.500000
O O4 0.169344 0.004122 0.645222
O O5 0.293529 0.962815 0.250000
O O6 0.303333 0.893229 0.125424
O O7 0.347197 0.037876 0.133494
O O8 0.500000 0.292207 0.501905
O O9 0.650005 0.237463 0.576449
O O10 0.676750 0.318115 0.455402
O O11 0.670931 0.131831 0.478590
O O12 0.900024 0.500000 0.500000
O O13 0.000000 0.598544 0.425683
#
# Coordination Sequence:
#
# PCOD8256503 Si02
#       5
#    16  16  16  16  16
#     4  10  18  34  57  80 107 138 179 225 266 314
#     4  11  21  34  51  78 114 145 177 217 271 332
#     4  10  19  32  58  84 104 133 179 231 273 312
#     4  10  19  34  55  81 106 140 184 228 272 315
#     4   9  17  32  53  75 101 135 181 227 263 309
#
# _framework density 17.804869
#
# number of rings (size 3 to 8) (size 9 to 14) (size 15 to 20)
#    0.000    2.000    4.000    1.200    0.000    1.600 
#    0.000    1.000    0.000    1.200    0.000    0.000 
#    0.000    0.000    0.000    0.000    0.000    0.000 
#
# Total GULP energy -495947.877365 kJ/mol
# GULP energy per Si atom -12398.696934 kJ/mol
# Density = 1.776434 g / cm^3
# Si number density = 17.804869 Si / 1000 Ang^3
#
#
#
# Elastic Constant Matrix: (Units=GPa)
#
#
# Indices 1 2 3 4 5 6 
#
# 1 127.7144 29.8325 37.4565 0.0000 0.0000 0.0000
# 2 29.8325 101.0634 37.8374 0.0000 0.0000 0.0000
# 3 37.4565 37.8374 105.5928 0.0000 0.0000 0.0000
# 4 0.0000 0.0000 0.0000 16.3299 0.0000 0.0000
# 5 0.0000 0.0000 0.0000 0.0000 14.4281 0.0000
# 6 0.0000 0.0000 0.0000 0.0000 0.0000 27.8809
#
#
#
# Elastic Compliance Matrix: (Units=1/GPa)
#
#
# Indices 1 2 3 4 5 6 
#
# 1 0.008981 -0.001684 -0.002582 0.000000 0.000000 0.000000
# 2 -0.001684 0.011744 -0.003611 0.000000 0.000000 0.000000
# 3 -0.002582 -0.003611 0.011680 0.000000 0.000000 0.000000
# 4 0.000000 0.000000 0.000000 0.061237 0.000000 0.000000
# 5 0.000000 0.000000 0.000000 0.000000 0.069309 0.000000
# 6 0.000000 0.000000 0.000000 0.000000 0.000000 0.035867
#
#
# Mechanical properties :
#
#
# Convention : Reuss Voigt Hill
#
# Bulk Modulus (GPa) = 60.05885 60.51371 60.28628
# Shear Modulus (GPa) = 22.71466 27.01075 24.86270
#
# Velocity S-wave (km/s) = 3.57565 3.89915 3.74090
# Velocity P-wave (km/s) = 7.13105 7.37103 7.25204
#
# Compressibility (1/GPa) = 0.01665034
#
# Stress axis : x y z
#
# Youngs Moduli (GPa) = 111.34995 85.15152 85.61540
#
# Poissons Ratio (x) = 0.14342 0.22107
# Poissons Ratio (y) = 0.18754 0.30913
# Poissons Ratio (z) = 0.28752 0.30746
#
# Static dielectric constant tensor:
#      x y z
#    x 3.638920 0.000000 0.000000 
#    y 0.000000 3.476540 0.000000 
#    z 0.000000 0.000000 2.731530 
# 
# 
# High freq. dielectric constant tensor:
#      x y z
#    x 1.711670 0.000000 0.000000 
#    y 0.000000 1.697850 0.000000 
#    z 0.000000 0.000000 1.621540 
# 
# From -- ./inp_files/43971.got.cif
#   From: 2010.03.12/outbox.cif.g09.slc.cpg/sg63_22_cif.got.tgz:43971.got - 2010.04.10 19:34:48.
