data_PCOD8256610
_publ_section_title
;
Structure prediction by ZEFSAII (Michael W. Deem and Ramdas Pophale) SiO2 
 PCOD8256610
Probable space group: C M C M
;
_chemical_formula_sum "Si O2"
_cell_formula_units_Z 112
_cell_length_a 30.677407
_cell_length_b 15.440256
_cell_length_c 15.393535
_cell_angle_alpha 90.000000
_cell_angle_beta 90.000000
_cell_angle_gamma 90.000000
_cell_volume 7291.409812
_symmetry_space_group_name_H-M "C M C M"
_symmetry_group_IT_number 63
_symmetry_cell_setting 'orthorhombic'
loop_
_space_group_symop_operation_xyz
x,y,z
-x,-y,1/2+z
x,-y,-z
-x,y,1/2-z
-x,-y,-z
x,y,1/2-z
-x,y,z
x,-y,1/2+z
1/2+x,1/2+y,z
1/2-x,1/2-y,1/2+z
1/2+x,1/2-y,-z
1/2-x,1/2+y,1/2-z
1/2-x,1/2-y,-z
1/2+x,1/2+y,1/2-z
1/2-x,1/2+y,z
1/2+x,1/2-y,1/2+z
loop_
_atom_site_type_symbol
_atom_site_label
_atom_site_fract_x
_atom_site_fract_y
_atom_site_fract_z
Si Si1 0.290731 0.904737 0.989423
Si Si2 0.825685 0.237125 0.912476
Si Si3 0.406514 0.642638 0.848364
Si Si4 0.116540 0.944431 0.848598
Si Si5 0.300660 0.637857 0.418652
Si Si6 0.952249 0.101134 0.016099
Si Si7 0.734209 0.804988 0.344149
O O1 0.323462 0.838943 0.939895
O O2 0.244442 0.911158 0.939936
O O3 0.282449 0.872343 0.086136
O O4 0.311835 0.000000 0.000000
O O5 0.869767 0.216296 0.860515
O O6 0.785244 0.215136 0.851461
O O7 0.823320 0.176031 0.996029
O O8 0.426191 0.652941 0.750000
O O9 0.387385 0.546867 0.860649
O O10 0.441569 0.652812 0.926219
O O11 0.106781 0.916259 0.750000
O O12 0.166550 0.928467 0.873838
O O13 0.084011 0.886653 0.908577
O O14 0.291699 0.715436 0.352550
O O15 0.000000 0.134691 0.047284
O O16 0.955393 0.000000 0.000000
O O17 0.724744 0.845362 0.250000
#
# Coordination Sequence:
#
# PCOD8256610 Si02
#       7
#    16  16  16  16  16  16  16
#     4   9  19  30  44  61  85 119 152 186 228 265
#     4   9  17  30  43  59  83 116 146 182 224 259
#     4  10  19  29  45  66  88 118 153 183 216 260
#     4  10  19  28  44  67  87 115 153 186 219 262
#     4   9  17  28  44  60  84 116 147 183 218 256
#     4   9  18  31  45  61  88 120 146 180 221 260
#     4   9  17  29  42  60  85 113 148 186 224 257
#
# _framework density 15.360541
#
# number of rings (size 3 to 8) (size 9 to 14) (size 15 to 20)
#    0.000    2.714    1.429    2.571    4.000    0.571 
#    0.000    6.429    0.000    0.000    0.000    0.000 
#    0.000    0.571    0.000    0.000    1.714    0.000 
#
# Total GULP energy -693977.117738 kJ/mol
# GULP energy per Si atom -12392.448531 kJ/mol
# Density = 1.532558 g / cm^3
# Si number density = 15.360541 Si / 1000 Ang^3
#
#
#
# Elastic Constant Matrix: (Units=GPa)
#
#
# Indices 1 2 3 4 5 6 
#
# 1 60.0884 12.6297 31.3753 0.0000 0.0000 0.0000
# 2 12.6297 57.1368 20.4146 0.0000 0.0000 0.0000
# 3 31.3753 20.4146 103.6379 0.0000 0.0000 0.0000
# 4 0.0000 0.0000 0.0000 13.7686 0.0000 0.0000
# 5 0.0000 0.0000 0.0000 0.0000 14.3424 0.0000
# 6 0.0000 0.0000 0.0000 0.0000 0.0000 9.2397
#
#
#
# Elastic Compliance Matrix: (Units=1/GPa)
#
#
# Indices 1 2 3 4 5 6 
#
# 1 0.020078 -0.002438 -0.005598 0.000000 0.000000 0.000000
# 2 -0.002438 0.019123 -0.003029 0.000000 0.000000 0.000000
# 3 -0.005598 -0.003029 0.011940 0.000000 0.000000 0.000000
# 4 0.000000 0.000000 0.000000 0.072629 0.000000 0.000000
# 5 0.000000 0.000000 0.000000 0.000000 0.069723 0.000000
# 6 0.000000 0.000000 0.000000 0.000000 0.000000 0.108228
#
#
# Mechanical properties :
#
#
# Convention : Reuss Voigt Hill
#
# Bulk Modulus (GPa) = 34.46924 38.85582 36.66253
# Shear Modulus (GPa) = 14.99154 17.89972 16.44563
#
# Velocity S-wave (km/s) = 3.12745 3.41736 3.27562
# Velocity P-wave (km/s) = 5.96071 6.39702 6.18272
#
# Compressibility (1/GPa) = 0.02901137
#
# Stress axis : x y z
#
# Youngs Moduli (GPa) = 49.80683 52.29334 83.74974
#
# Poissons Ratio (x) = 0.12748 0.46884
# Poissons Ratio (y) = 0.12142 0.25366
# Poissons Ratio (z) = 0.27882 0.15839
#
# Static dielectric constant tensor:
#      x y z
#    x 2.889640 0.000000 0.000000 
#    y 0.000000 2.681500 0.000000 
#    z 0.000000 0.000000 3.081060 
# 
# 
# High freq. dielectric constant tensor:
#      x y z
#    x 1.559770 0.000000 0.000000 
#    y 0.000000 1.550840 0.000000 
#    z 0.000000 0.000000 1.601760 
# 
# From -- ./inp_files/38690.got.cif
#   From: 2010.03.12/outbox.cif.g09.slc.cpg/sg63_20_cif.got.tgz:38690.got - 2010.04.10 19:34:48.
