data_PCOD8256042
_publ_section_title
;
Structure prediction by ZEFSAII (Michael W. Deem and Ramdas Pophale) SiO2 
 PCOD8256042
Probable space group: C M C M
;
_chemical_formula_sum "Si O2"
_cell_formula_units_Z 128
_cell_length_a 9.271093
_cell_length_b 31.309448
_cell_length_c 24.117777
_cell_angle_alpha 90.000000
_cell_angle_beta 90.000000
_cell_angle_gamma 90.000000
_cell_volume 7000.734761
_symmetry_space_group_name_H-M "C M C M"
_symmetry_group_IT_number 63
_symmetry_cell_setting 'orthorhombic'
loop_
_space_group_symop_operation_xyz
x,y,z
-x,-y,1/2+z
x,-y,-z
-x,y,1/2-z
-x,-y,-z
x,y,1/2-z
-x,y,z
x,-y,1/2+z
1/2+x,1/2+y,z
1/2-x,1/2-y,1/2+z
1/2+x,1/2-y,-z
1/2-x,1/2+y,1/2-z
1/2-x,1/2-y,-z
1/2+x,1/2+y,1/2-z
1/2-x,1/2+y,z
1/2+x,1/2-y,1/2+z
loop_
_atom_site_type_symbol
_atom_site_label
_atom_site_fract_x
_atom_site_fract_y
_atom_site_fract_z
Si Si1 0.328189 0.951790 0.999636
Si Si2 0.167853 0.293899 0.498067
Si Si3 0.171104 0.420987 0.116137
Si Si4 0.170296 0.752362 0.185865
Si Si5 0.670315 0.172927 0.115552
Si Si6 0.172198 0.499822 0.187670
Si Si7 0.672056 0.079316 0.382608
Si Si8 0.668698 0.174252 0.877535
O O1 0.500000 0.951157 0.999622
O O2 0.269056 0.928821 0.944615
O O3 0.267562 0.927958 0.054094
O O4 0.270683 0.000000 0.000000
O O5 0.250000 0.250000 0.500000
O O6 0.215537 0.321607 0.551291
O O7 0.206972 0.319053 0.442156
O O8 0.000000 0.283156 0.501052
O O9 0.232636 0.457695 0.156680
O O10 0.215447 0.374100 0.137904
O O11 0.000000 0.424710 0.113829
O O12 0.211477 0.747391 0.250000
O O13 0.233942 0.710930 0.153648
O O14 0.242700 0.794652 0.161829
O O15 0.000000 0.756788 0.177148
O O16 0.500000 0.174219 0.121744
O O17 0.726764 0.126459 0.136118
O O18 0.232080 0.499147 0.250000
O O19 0.232008 0.542793 0.158401
O O20 0.000000 0.499755 0.186713
O O21 0.500000 0.077725 0.382745
O O22 0.500000 0.182033 0.866694
#
# Coordination Sequence:
#
# PCOD8256042 Si02
#       8
#    16  16  16  16  16  16  16  16
#     4   9  13  20  36  56  82 117 151 180 218 273
#     4  10  18  30  49  72  96 124 156 194 242 290
#     4   9  16  26  39  60  90 121 151 185 229 278
#     4  10  21  36  51  67  92 128 166 201 239 283
#     4   9  17  29  45  64  89 121 156 195 238 281
#     4   9  16  24  34  52  82 119 153 183 221 272
#     4   9  15  23  37  57  80 112 150 185 223 270
#     4  10  20  32  50  74  98 125 160 199 240 287
#
# _framework density 18.283795999999999
#
# number of rings (size 3 to 8) (size 9 to 14) (size 15 to 20)
#    0.000    2.625    2.500    0.750    0.000    4.250 
#    0.000    3.750    0.000    0.000    0.000    0.000 
#    0.000    2.500    0.000    1.375    0.000    1.000 
#
# Total GULP energy -793281.719953 kJ/mol
# GULP energy per Si atom -12395.026874 kJ/mol
# Density = 1.824218 g / cm^3
# Si number density = 18.283796 Si / 1000 Ang^3
#
#
#
# Elastic Constant Matrix: (Units=GPa)
#
#
# Indices 1 2 3 4 5 6 
#
# 1 10.2562 18.9474 18.8458 0.0000 0.0000 0.0000
# 2 18.9474 177.3395 76.9860 0.0000 0.0000 0.0000
# 3 18.8458 76.9860 138.7193 0.0000 0.0000 0.0000
# 4 0.0000 0.0000 0.0000 18.6189 0.0000 0.0000
# 5 0.0000 0.0000 0.0000 0.0000 13.0578 0.0000
# 6 0.0000 0.0000 0.0000 0.0000 0.0000 16.4626
#
#
#
# Elastic Compliance Matrix: (Units=1/GPa)
#
#
# Indices 1 2 3 4 5 6 
#
# 1 0.139652 -0.008806 -0.014085 0.000000 0.000000 0.000000
# 2 -0.008806 0.007984 -0.003235 0.000000 0.000000 0.000000
# 3 -0.014085 -0.003235 0.010917 0.000000 0.000000 0.000000
# 4 0.000000 0.000000 0.000000 0.053709 0.000000 0.000000
# 5 0.000000 0.000000 0.000000 0.000000 0.076583 0.000000
# 6 0.000000 0.000000 0.000000 0.000000 0.000000 0.060744
#
#
# Mechanical properties :
#
#
# Convention : Reuss Voigt Hill
#
# Bulk Modulus (GPa) = 9.40719 61.76369 35.58544
# Shear Modulus (GPa) = 11.43445 23.73024 17.58235
#
# Velocity S-wave (km/s) = 2.50349 3.60652 3.10439
# Velocity P-wave (km/s) = 3.67598 7.15518 5.68812
#
# Compressibility (1/GPa) = 0.10630170
#
# Stress axis : x y z
#
# Youngs Moduli (GPa) = 7.16064 125.25142 91.59638
#
# Poissons Ratio (x) = 1.10298 1.29016
# Poissons Ratio (y) = 0.06306 0.29627
# Poissons Ratio (z) = 0.10086 0.40513
#
# Static dielectric constant tensor:
#      x y z
#    x 2.653880 0.000000 0.000000 
#    y 0.000000 3.613960 0.000000 
#    z 0.000000 0.000000 3.497720 
# 
# 
# High freq. dielectric constant tensor:
#      x y z
#    x 1.622620 0.000000 0.000000 
#    y 0.000000 1.728200 0.000000 
#    z 0.000000 0.000000 1.714820 
# 
# From -- ./inp_files/62152.got.cif
#   From: 2010.03.12/outbox.cif.g09.slc.cpg/sg63_32_cif.got.tgz:62152.got - 2010.04.10 19:34:48.
