data_PCOD8256466
_publ_section_title
;
Structure prediction by ZEFSAII (Michael W. Deem and Ramdas Pophale) SiO2 
 PCOD8256466
Probable space group: C M C M
;
_chemical_formula_sum "Si O2"
_cell_formula_units_Z 96
_cell_length_a 9.192864
_cell_length_b 24.617861
_cell_length_c 21.994326
_cell_angle_alpha 90.000000
_cell_angle_beta 90.000000
_cell_angle_gamma 90.000000
_cell_volume 4977.506184
_symmetry_space_group_name_H-M "C M C M"
_symmetry_group_IT_number 63
_symmetry_cell_setting 'orthorhombic'
loop_
_space_group_symop_operation_xyz
x,y,z
-x,-y,1/2+z
x,-y,-z
-x,y,1/2-z
-x,-y,-z
x,y,1/2-z
-x,y,z
x,-y,1/2+z
1/2+x,1/2+y,z
1/2-x,1/2-y,1/2+z
1/2+x,1/2-y,-z
1/2-x,1/2+y,1/2-z
1/2-x,1/2-y,-z
1/2+x,1/2+y,1/2-z
1/2-x,1/2+y,z
1/2+x,1/2-y,1/2+z
loop_
_atom_site_type_symbol
_atom_site_label
_atom_site_fract_x
_atom_site_fract_y
_atom_site_fract_z
Si Si1 0.672666 0.288940 0.183204
Si Si2 0.837575 0.197728 0.021478
Si Si3 0.170650 0.326357 0.636812
Si Si4 0.829210 0.442223 0.817221
Si Si5 0.826914 0.486553 0.431137
Si Si6 0.837120 0.122085 0.908080
O O1 0.726955 0.304201 0.250000
O O2 0.500000 0.287713 0.177809
O O3 0.730032 0.228753 0.167599
O O4 0.734218 0.335478 0.139416
O O5 0.755016 0.166438 0.074403
O O6 0.000000 0.216319 0.040605
O O7 0.750000 0.250000 0.000000
O O8 0.848035 0.152397 0.971023
O O9 0.206822 0.378179 0.678385
O O10 0.000000 0.322834 0.622541
O O11 0.768586 0.461536 0.750000
O O12 0.766547 0.473258 0.877318
O O13 0.000000 0.452048 0.817424
O O14 0.769447 0.500000 0.500000
O O15 0.771017 0.427865 0.412237
O O16 0.000000 0.486951 0.432015
O O17 0.000000 0.103088 0.888247
#
# Coordination Sequence:
#
# PCOD8256466 Si02
#       6
#    16  16  16  16  16  16
#     4   9  17  31  52  78 108 140 176 217 261 317
#     4  11  21  34  53  80 112 143 177 221 273 330
#     4  10  18  33  57  83 109 141 182 226 272 323
#     4   9  18  33  56  84 111 145 191 235 277 332
#     4  10  21  37  56  80 109 142 184 234 281 326
#     4  10  21  36  53  79 109 138 178 220 266 325
#
# _framework density 19.286767999999999
#
# number of rings (size 3 to 8) (size 9 to 14) (size 15 to 20)
#    0.000    2.167    1.667    2.000    0.000    5.667 
#    0.000    0.833    0.000    4.000    0.000    0.000 
#    0.000    0.000    0.000    0.000    0.000    0.000 
#
# Total GULP energy -594837.840803 kJ/mol
# GULP energy per Si atom -12392.455017 kJ/mol
# Density = 1.924287 g / cm^3
# Si number density = 19.286768 Si / 1000 Ang^3
#
#
#
# Elastic Constant Matrix: (Units=GPa)
#
#
# Indices 1 2 3 4 5 6 
#
# 1 29.8634 18.8941 18.0804 0.0000 0.0000 0.0000
# 2 18.8941 121.0598 61.4721 0.0000 0.0000 0.0000
# 3 18.0804 61.4721 163.4816 0.0000 0.0000 0.0000
# 4 0.0000 0.0000 0.0000 24.6557 0.0000 0.0000
# 5 0.0000 0.0000 0.0000 0.0000 16.9897 0.0000
# 6 0.0000 0.0000 0.0000 0.0000 0.0000 26.6964
#
#
#
# Elastic Compliance Matrix: (Units=1/GPa)
#
#
# Indices 1 2 3 4 5 6 
#
# 1 0.037922 -0.004683 -0.002433 0.000000 0.000000 0.000000
# 2 -0.004683 0.010788 -0.003539 0.000000 0.000000 0.000000
# 3 -0.002433 -0.003539 0.007717 0.000000 0.000000 0.000000
# 4 0.000000 0.000000 0.000000 0.040559 0.000000 0.000000
# 5 0.000000 0.000000 0.000000 0.000000 0.058859 0.000000
# 6 0.000000 0.000000 0.000000 0.000000 0.000000 0.037458
#
#
# Mechanical properties :
#
#
# Convention : Reuss Voigt Hill
#
# Bulk Modulus (GPa) = 28.47626 56.81089 42.64357
# Shear Modulus (GPa) = 22.09285 28.06558 25.07922
#
# Velocity S-wave (km/s) = 3.38818 3.81881 3.60992
# Velocity P-wave (km/s) = 5.48663 6.99745 6.28758
#
# Compressibility (1/GPa) = 0.03511698
#
# Stress axis : x y z
#
# Youngs Moduli (GPa) = 26.37007 92.69460 129.59136
#
# Poissons Ratio (x) = 0.43409 0.31531
# Poissons Ratio (y) = 0.12349 0.45857
# Poissons Ratio (z) = 0.06416 0.32801
#
# Static dielectric constant tensor:
#      x y z
#    x 3.130040 0.000000 0.000000 
#    y 0.000000 3.597130 0.000000 
#    z 0.000000 0.000000 3.966610 
# 
# 
# High freq. dielectric constant tensor:
#      x y z
#    x 1.706350 0.000000 0.000000 
#    y 0.000000 1.751800 0.000000 
#    z 0.000000 0.000000 1.765900 
# 
# From -- ./inp_files/51287.got.cif
#   From: 2010.03.12/outbox.cif.g09.slc.cpg/sg63_26_cif.got.tgz:51287.got - 2010.04.10 19:34:48.
