data_PCOD8256808
_publ_section_title
;
Structure prediction by ZEFSAII (Michael W. Deem and Ramdas Pophale) SiO2 
 PCOD8256808
Probable space group: C M C M
;
_chemical_formula_sum "Si O2"
_cell_formula_units_Z 80
_cell_length_a 18.653911
_cell_length_b 27.279317
_cell_length_c 8.795410
_cell_angle_alpha 90.000000
_cell_angle_beta 90.000000
_cell_angle_gamma 90.000000
_cell_volume 4475.684678
_symmetry_space_group_name_H-M "C M C M"
_symmetry_group_IT_number 63
_symmetry_cell_setting 'orthorhombic'
loop_
_space_group_symop_operation_xyz
x,y,z
-x,-y,1/2+z
x,-y,-z
-x,y,1/2-z
-x,-y,-z
x,y,1/2-z
-x,y,z
x,-y,1/2+z
1/2+x,1/2+y,z
1/2-x,1/2-y,1/2+z
1/2+x,1/2-y,-z
1/2-x,1/2+y,1/2-z
1/2-x,1/2-y,-z
1/2+x,1/2+y,1/2-z
1/2-x,1/2+y,z
1/2+x,1/2-y,1/2+z
loop_
_atom_site_type_symbol
_atom_site_label
_atom_site_fract_x
_atom_site_fract_y
_atom_site_fract_z
Si Si1 0.657412 0.550994 0.430368
Si Si2 0.420815 0.949907 0.426924
Si Si3 0.779860 0.799396 0.930239
Si Si4 0.216584 0.606848 0.571332
Si Si5 0.421002 0.351005 0.929638
O O1 0.628904 0.500000 0.500000
O O2 0.666228 0.546468 0.250000
O O3 0.733714 0.563856 0.504718
O O4 0.601583 0.593827 0.475708
O O5 0.423484 0.960087 0.250000
O O6 0.500000 0.935111 0.488387
O O7 0.365626 0.906590 0.464243
O O8 0.393196 0.000000 0.500000
O O9 0.777493 0.795688 0.750000
O O10 0.861279 0.811821 0.987211
O O11 0.750000 0.750000 0.000000
O O12 0.728324 0.842560 0.984411
O O13 0.231765 0.613095 0.750000
O O14 0.424935 0.347487 0.750000
O O15 0.500000 0.339444 0.999620
#
# Coordination Sequence:
#
# PCOD8256808 Si02
#       5
#    16  16  16  16  16
#     4  10  19  30  47  72 102 134 167 202 239 285
#     4   9  18  31  47  69  97 130 166 202 242 287
#     4  10  20  35  56  77  98 125 159 201 246 293
#     4  10  19  32  51  72  97 128 164 206 247 291
#     4   8  16  32  52  73  97 127 163 201 241 284
#
# _framework density 17.874361
#
# number of rings (size 3 to 8) (size 9 to 14) (size 15 to 20)
#    0.000    2.600    0.000    3.600    0.000    3.600 
#    0.000    1.000    0.000   27.000    0.000    0.000 
#    0.000    0.000    0.000    0.000    0.000    0.000 
#
# Total GULP energy -495825.541019 kJ/mol
# GULP energy per Si atom -12395.638525 kJ/mol
# Density = 1.783368 g / cm^3
# Si number density = 17.874361 Si / 1000 Ang^3
#
#
#
# Elastic Constant Matrix: (Units=GPa)
#
#
# Indices 1 2 3 4 5 6 
#
# 1 141.0243 78.3533 41.4702 0.0000 0.0000 0.0000
# 2 78.3533 130.6917 37.6599 0.0000 0.0000 0.0000
# 3 41.4702 37.6599 59.5020 0.0000 0.0000 0.0000
# 4 0.0000 0.0000 0.0000 34.1557 0.0000 0.0000
# 5 0.0000 0.0000 0.0000 0.0000 20.9780 0.0000
# 6 0.0000 0.0000 0.0000 0.0000 0.0000 14.5143
#
#
#
# Elastic Compliance Matrix: (Units=1/GPa)
#
#
# Indices 1 2 3 4 5 6 
#
# 1 0.011532 -0.005623 -0.004478 0.000000 0.000000 0.000000
# 2 -0.005623 0.012101 -0.003739 0.000000 0.000000 0.000000
# 3 -0.004478 -0.003739 0.022294 0.000000 0.000000 0.000000
# 4 0.000000 0.000000 0.000000 0.029278 0.000000 0.000000
# 5 0.000000 0.000000 0.000000 0.000000 0.047669 0.000000
# 6 0.000000 0.000000 0.000000 0.000000 0.000000 0.068897
#
#
# Mechanical properties :
#
#
# Convention : Reuss Voigt Hill
#
# Bulk Modulus (GPa) = 54.81060 71.79831 63.30445
# Shear Modulus (GPa) = 22.16954 25.51192 23.84073
#
# Velocity S-wave (km/s) = 3.52561 3.78205 3.65608
# Velocity P-wave (km/s) = 6.87780 7.70243 7.30176
#
# Compressibility (1/GPa) = 0.01824465
#
# Stress axis : x y z
#
# Youngs Moduli (GPa) = 86.71305 82.64092 44.85502
#
# Poissons Ratio (x) = 0.46473 0.20087
# Poissons Ratio (y) = 0.48763 0.16773
# Poissons Ratio (z) = 0.38833 0.30902
#
# Static dielectric constant tensor:
#      x y z
#    x 3.709610 0.000000 0.000000 
#    y 0.000000 3.323930 0.000000 
#    z 0.000000 0.000000 3.238430 
# 
# 
# High freq. dielectric constant tensor:
#      x y z
#    x 1.695420 0.000000 0.000000 
#    y 0.000000 1.678420 0.000000 
#    z 0.000000 0.000000 1.685030 
# 
# From -- ./inp_files/6360.got.cif
#   From: 2010.03.12/outbox.cif.g09.slc.cpg/sg63_4_cif.got.tgz:6360.got - 2010.04.10 19:34:48.
