data_PCOD8256579
_publ_section_title
;
Structure prediction by ZEFSAII (Michael W. Deem and Ramdas Pophale) SiO2 
 PCOD8256579
Probable space group: C M C M
;
_chemical_formula_sum "Si O2"
_cell_formula_units_Z 84
_cell_length_a 19.528887
_cell_length_b 9.453707
_cell_length_c 22.633517
_cell_angle_alpha 90.000000
_cell_angle_beta 90.000000
_cell_angle_gamma 90.000000
_cell_volume 4178.608413
_symmetry_space_group_name_H-M "C M C M"
_symmetry_group_IT_number 63
_symmetry_cell_setting 'orthorhombic'
loop_
_space_group_symop_operation_xyz
x,y,z
-x,-y,1/2+z
x,-y,-z
-x,y,1/2-z
-x,-y,-z
x,y,1/2-z
-x,y,z
x,-y,1/2+z
1/2+x,1/2+y,z
1/2-x,1/2-y,1/2+z
1/2+x,1/2-y,-z
1/2-x,1/2+y,1/2-z
1/2-x,1/2-y,-z
1/2+x,1/2+y,1/2-z
1/2-x,1/2+y,z
1/2+x,1/2-y,1/2+z
loop_
_atom_site_type_symbol
_atom_site_label
_atom_site_fract_x
_atom_site_fract_y
_atom_site_fract_z
Si Si1 0.743991 0.118874 0.543088
Si Si2 0.578035 0.205531 0.750000
Si Si3 0.368720 0.519316 0.620866
Si Si4 0.121129 0.307675 0.121937
Si Si5 0.378461 0.514480 0.750000
Si Si6 0.500000 0.274489 0.250000
Si Si7 0.500000 0.719491 0.875749
Si Si8 0.000000 0.514127 0.568055
O O1 0.750000 0.250000 0.500000
O O2 0.815807 0.070399 0.571341
O O3 0.695417 0.149905 0.598357
O O4 0.713417 0.000000 0.500000
O O5 0.500000 0.148092 0.750000
O O6 0.617945 0.153434 0.808417
O O7 0.575717 0.374145 0.750000
O O8 0.392254 0.357969 0.608466
O O9 0.335847 0.524084 0.688019
O O10 0.434256 0.619991 0.616040
O O11 0.066208 0.403016 0.089297
O O12 0.431147 0.638841 0.750000
O O13 0.500000 0.194617 0.312474
O O14 0.500000 0.847858 0.919444
O O15 0.000000 0.500000 0.500000
#
# Coordination Sequence:
#
# PCOD8256579 Si02
#       8
#    16   8  16  16   8   4   8   8
#     4  12  26  45  66  89 130 179 224 266 323 386
#     4  10  18  38  68  99 127 163 215 271 337 387
#     4  10  22  42  67  95 126 174 218 270 327 393
#     4  11  24  43  68  94 129 172 219 271 330 393
#     4   8  16  33  64  94 125 157 208 262 319 385
#     4   8  14  34  56  90 126 162 186 256 322 376
#     4  10  23  37  65  97 130 163 215 267 329 383
#     4  12  27  40  61  95 133 171 215 273 326 390
#
# _framework density 20.102385999999999
#
# number of rings (size 3 to 8) (size 9 to 14) (size 15 to 20)
#    0.000    1.524    3.333    1.143    8.000    1.524 
#    0.000    1.429    0.000    0.000    0.000    0.000 
#    0.000    0.000    0.000    0.000    0.000    0.000 
#
# Total GULP energy -520339.239856 kJ/mol
# GULP energy per Si atom -12389.029520 kJ/mol
# Density = 2.005663 g / cm^3
# Si number density = 20.102386 Si / 1000 Ang^3
#
#
#
# Elastic Constant Matrix: (Units=GPa)
#
#
# Indices 1 2 3 4 5 6 
#
# 1 92.5766 40.6185 60.3470 0.0000 0.0000 0.0000
# 2 40.6185 125.6816 64.6218 0.0000 0.0000 0.0000
# 3 60.3470 64.6218 175.7327 0.0000 0.0000 0.0000
# 4 0.0000 0.0000 0.0000 34.5357 0.0000 0.0000
# 5 0.0000 0.0000 0.0000 0.0000 39.8892 0.0000
# 6 0.0000 0.0000 0.0000 0.0000 0.0000 30.5982
#
#
#
# Elastic Compliance Matrix: (Units=1/GPa)
#
#
# Indices 1 2 3 4 5 6 
#
# 1 0.014594 -0.002639 -0.004041 0.000000 0.000000 0.000000
# 2 -0.002639 0.010289 -0.002877 0.000000 0.000000 0.000000
# 3 -0.004041 -0.002877 0.008136 0.000000 0.000000 0.000000
# 4 0.000000 0.000000 0.000000 0.028956 0.000000 0.000000
# 5 0.000000 0.000000 0.000000 0.000000 0.025069 0.000000
# 6 0.000000 0.000000 0.000000 0.000000 0.000000 0.032682
#
#
# Mechanical properties :
#
#
# Convention : Reuss Voigt Hill
#
# Bulk Modulus (GPa) = 71.91911 80.57393 76.24652
# Shear Modulus (GPa) = 34.84922 36.23153 35.54038
#
# Velocity S-wave (km/s) = 4.16815 4.25001 4.20928
# Velocity P-wave (km/s) = 7.68237 8.01575 7.85083
#
# Compressibility (1/GPa) = 0.01390451
#
# Stress axis : x y z
#
# Youngs Moduli (GPa) = 68.52164 97.19261 122.90532
#
# Poissons Ratio (x) = 0.25646 0.49670
# Poissons Ratio (y) = 0.18080 0.35365
# Poissons Ratio (z) = 0.27692 0.27966
#
# Static dielectric constant tensor:
#      x y z
#    x 3.468160 0.000000 0.000000 
#    y 0.000000 3.704240 0.000000 
#    z 0.000000 0.000000 4.278180 
# 
# 
# High freq. dielectric constant tensor:
#      x y z
#    x 1.761410 0.000000 0.000000 
#    y 0.000000 1.787130 0.000000 
#    z 0.000000 0.000000 1.812170 
# 
# From -- ./inp_files/64369.got.cif
#   From: 2010.03.12/outbox.cif.g09.slc.cpg/sg63_33_cif.got.tgz:64369.got - 2010.04.10 19:34:48.
