data_PCOD8256573
_publ_section_title
;
Structure prediction by ZEFSAII (Michael W. Deem and Ramdas Pophale) SiO2 
 PCOD8256573
Probable space group: C M C M
;
_chemical_formula_sum "Si O2"
_cell_formula_units_Z 112
_cell_length_a 20.048560
_cell_length_b 17.721505
_cell_length_c 17.555940
_cell_angle_alpha 90.000000
_cell_angle_beta 90.000000
_cell_angle_gamma 90.000000
_cell_volume 6237.461444
_symmetry_space_group_name_H-M "C M C M"
_symmetry_group_IT_number 63
_symmetry_cell_setting 'orthorhombic'
loop_
_space_group_symop_operation_xyz
x,y,z
-x,-y,1/2+z
x,-y,-z
-x,y,1/2-z
-x,-y,-z
x,y,1/2-z
-x,y,z
x,-y,1/2+z
1/2+x,1/2+y,z
1/2-x,1/2-y,1/2+z
1/2+x,1/2-y,-z
1/2-x,1/2+y,1/2-z
1/2-x,1/2-y,-z
1/2+x,1/2+y,1/2-z
1/2-x,1/2+y,z
1/2+x,1/2-y,1/2+z
loop_
_atom_site_type_symbol
_atom_site_label
_atom_site_fract_x
_atom_site_fract_y
_atom_site_fract_z
Si Si1 0.213391 0.717563 0.425274
Si Si2 0.729018 0.082988 0.977839
Si Si3 0.927460 0.778040 0.443061
Si Si4 0.077248 0.939108 0.836684
Si Si5 0.692707 0.816934 0.336151
Si Si6 0.574546 0.277059 0.882920
Si Si7 0.880687 0.059170 0.939871
O O1 0.250000 0.750000 0.500000
O O2 0.212778 0.628699 0.443976
O O3 0.137610 0.741968 0.404556
O O4 0.256410 0.747709 0.354319
O O5 0.696165 0.116476 0.899961
O O6 0.807582 0.085578 0.963521
O O7 0.702615 0.000000 0.000000
O O8 0.923779 0.751675 0.530035
O O9 0.927239 0.868264 0.433565
O O10 0.000000 0.751144 0.409478
O O11 0.092973 0.922414 0.750000
O O12 0.100791 0.863518 0.880702
O O13 0.000000 0.957238 0.851964
O O14 0.120384 0.012199 0.861065
O O15 0.707195 0.847343 0.250000
O O16 0.619200 0.780945 0.335561
O O17 0.500000 0.273732 0.848113
O O18 0.912031 0.000000 0.000000
#
# Coordination Sequence:
#
# PCOD8256573 Si02
#       7
#    16  16  16  16  16  16  16
#     4  10  18  38  54  74 107 140 177 223 266 313
#     4  10  21  36  57  75 106 147 179 223 277 320
#     4  11  19  31  56  80  99 136 184 224 264 313
#     4  10  21  32  42  67 111 148 169 203 256 316
#     4  11  21  35  57  82 109 144 183 228 277 326
#     4  10  19  33  54  81 110 141 177 219 272 327
#     4  11  19  30  49  73 100 137 176 209 251 306
#
# _framework density 17.956022999999998
#
# number of rings (size 3 to 8) (size 9 to 14) (size 15 to 20)
#    0.000    1.571    7.143    0.857    2.000    2.000 
#    0.000    0.714    0.000    2.143    0.000    0.000 
#    0.000    0.000    0.000    0.000    0.000    0.000 
#
# Total GULP energy -693858.492235 kJ/mol
# GULP energy per Si atom -12390.330218 kJ/mol
# Density = 1.791515 g / cm^3
# Si number density = 17.956023 Si / 1000 Ang^3
#
#
#
# Elastic Constant Matrix: (Units=GPa)
#
#
# Indices 1 2 3 4 5 6 
#
# 1 100.9831 34.0793 17.8294 0.0000 0.0000 0.0000
# 2 34.0793 96.8756 26.5773 0.0000 0.0000 0.0000
# 3 17.8294 26.5773 62.3138 0.0000 0.0000 0.0000
# 4 0.0000 0.0000 0.0000 18.2843 0.0000 0.0000
# 5 0.0000 0.0000 0.0000 0.0000 11.1149 0.0000
# 6 0.0000 0.0000 0.0000 0.0000 0.0000 24.1355
#
#
#
# Elastic Compliance Matrix: (Units=1/GPa)
#
#
# Indices 1 2 3 4 5 6 
#
# 1 0.011404 -0.003530 -0.001758 0.000000 0.000000 0.000000
# 2 -0.003530 0.012783 -0.004442 0.000000 0.000000 0.000000
# 3 -0.001758 -0.004442 0.018445 0.000000 0.000000 0.000000
# 4 0.000000 0.000000 0.000000 0.054692 0.000000 0.000000
# 5 0.000000 0.000000 0.000000 0.000000 0.089969 0.000000
# 6 0.000000 0.000000 0.000000 0.000000 0.000000 0.041433
#
#
# Mechanical properties :
#
#
# Convention : Reuss Voigt Hill
#
# Bulk Modulus (GPa) = 43.15234 46.34938 44.75086
# Shear Modulus (GPa) = 19.53821 22.81938 21.17879
#
# Velocity S-wave (km/s) = 3.30224 3.56876 3.43808
# Velocity P-wave (km/s) = 6.21483 6.54601 6.38257
#
# Compressibility (1/GPa) = 0.02317371
#
# Stress axis : x y z
#
# Youngs Moduli (GPa) = 87.68768 78.22989 54.21446
#
# Poissons Ratio (x) = 0.27612 0.09529
# Poissons Ratio (y) = 0.30950 0.24083
# Poissons Ratio (z) = 0.15412 0.34750
#
# Static dielectric constant tensor:
#      x y z
#    x 3.362750 0.000000 0.000000 
#    y 0.000000 3.523230 0.000000 
#    z 0.000000 0.000000 3.169670 
# 
# 
# High freq. dielectric constant tensor:
#      x y z
#    x 1.689400 0.000000 0.000000 
#    y 0.000000 1.677880 0.000000 
#    z 0.000000 0.000000 1.669210 
# 
# From -- ./inp_files/47323.got.cif
#   From: 2010.03.12/outbox.cif.g09.slc.cpg/sg63_24_cif.got.tgz:47323.got - 2010.04.10 19:34:48.
