data_PCOD8256645
_publ_section_title
;
Structure prediction by ZEFSAII (Michael W. Deem and Ramdas Pophale) SiO2 
 PCOD8256645
Probable space group: C M C M
;
_chemical_formula_sum "Si O2"
_cell_formula_units_Z 96
_cell_length_a 18.834182
_cell_length_b 32.653036
_cell_length_c 8.854525
_cell_angle_alpha 90.000000
_cell_angle_beta 90.000000
_cell_angle_gamma 90.000000
_cell_volume 5445.472867
_symmetry_space_group_name_H-M "C M C M"
_symmetry_group_IT_number 63
_symmetry_cell_setting 'orthorhombic'
loop_
_space_group_symop_operation_xyz
x,y,z
-x,-y,1/2+z
x,-y,-z
-x,y,1/2-z
-x,-y,-z
x,y,1/2-z
-x,y,z
x,-y,1/2+z
1/2+x,1/2+y,z
1/2-x,1/2-y,1/2+z
1/2+x,1/2-y,-z
1/2-x,1/2+y,1/2-z
1/2-x,1/2-y,-z
1/2+x,1/2+y,1/2-z
1/2-x,1/2+y,z
1/2+x,1/2-y,1/2+z
loop_
_atom_site_type_symbol
_atom_site_label
_atom_site_fract_x
_atom_site_fract_y
_atom_site_fract_z
Si Si1 0.644280 0.664446 0.073173
Si Si2 0.921851 0.667161 0.430194
Si Si3 0.917822 0.240460 0.922942
Si Si4 0.786665 0.621873 0.427566
Si Si5 0.207321 0.042716 0.070740
Si Si6 0.581291 0.412157 0.424981
O O1 0.631034 0.658218 0.250000
O O2 0.725476 0.654230 0.029350
O O3 0.629208 0.710866 0.026174
O O4 0.592027 0.633830 0.985419
O O5 0.922116 0.666570 0.250000
O O6 0.905077 0.713460 0.482346
O O7 0.861671 0.636861 0.498609
O O8 0.000000 0.653545 0.489592
O O9 0.893131 0.235856 0.750000
O O10 0.000000 0.228469 0.939346
O O11 0.796118 0.620032 0.250000
O O12 0.764381 0.576740 0.485385
O O13 0.205206 0.039288 0.250000
O O14 0.129159 0.055345 0.014998
O O15 0.231563 0.000000 0.000000
O O16 0.602591 0.413484 0.250000
O O17 0.500000 0.425084 0.449849
#
# Coordination Sequence:
#
# PCOD8256645 Si02
#       6
#    16  16  16  16  16  16
#     4  10  19  29  43  65  96 131 162 194 231 271
#     4   8  14  27  48  70  91 118 153 193 236 279
#     4   9  17  28  43  65  92 123 161 201 234 267
#     4   8  16  30  46  67  92 117 151 193 232 274
#     4  10  20  34  52  72  96 123 151 187 230 279
#     4  10  20  33  49  69  94 125 162 200 232 265
#
# _framework density 17.629322999999999
#
# number of rings (size 3 to 8) (size 9 to 14) (size 15 to 20)
#    0.000    2.833    0.000    4.000    0.000    4.667 
#    0.000    0.000    0.000    5.500    0.000    0.000 
#    0.000    0.000    0.000    0.000    0.000    0.667 
#
# Total GULP energy -595045.417362 kJ/mol
# GULP energy per Si atom -12396.779528 kJ/mol
# Density = 1.758920 g / cm^3
# Si number density = 17.629323 Si / 1000 Ang^3
#
#
#
# Elastic Constant Matrix: (Units=GPa)
#
#
# Indices 1 2 3 4 5 6 
#
# 1 114.7221 82.5655 32.6453 0.0000 0.0000 0.0000
# 2 82.5655 125.8230 32.7424 0.0000 0.0000 0.0000
# 3 32.6453 32.7424 54.0027 0.0000 0.0000 0.0000
# 4 0.0000 0.0000 0.0000 22.6933 0.0000 0.0000
# 5 0.0000 0.0000 0.0000 0.0000 13.3928 0.0000
# 6 0.0000 0.0000 0.0000 0.0000 0.0000 18.7546
#
#
#
# Elastic Compliance Matrix: (Units=1/GPa)
#
#
# Indices 1 2 3 4 5 6 
#
# 1 0.017300 -0.010248 -0.004245 0.000000 0.000000 0.000000
# 2 -0.010248 0.015507 -0.003207 0.000000 0.000000 0.000000
# 3 -0.004245 -0.003207 0.023028 0.000000 0.000000 0.000000
# 4 0.000000 0.000000 0.000000 0.044066 0.000000 0.000000
# 5 0.000000 0.000000 0.000000 0.000000 0.074667 0.000000
# 6 0.000000 0.000000 0.000000 0.000000 0.000000 0.053320
#
#
# Mechanical properties :
#
#
# Convention : Reuss Voigt Hill
#
# Bulk Modulus (GPa) = 48.93376 65.60602 57.26989
# Shear Modulus (GPa) = 18.51176 20.74111 19.62643
#
# Velocity S-wave (km/s) = 3.24397 3.43375 3.34021
# Velocity P-wave (km/s) = 6.46904 7.28120 6.88710
#
# Compressibility (1/GPa) = 0.02043579
#
# Stress axis : x y z
#
# Youngs Moduli (GPa) = 57.80426 64.48804 43.42525
#
# Poissons Ratio (x) = 0.66085 0.18433
# Poissons Ratio (y) = 0.59235 0.13927
# Poissons Ratio (z) = 0.24536 0.20682
#
# Static dielectric constant tensor:
#      x y z
#    x 3.481080 0.000000 0.000000 
#    y 0.000000 3.338300 0.000000 
#    z 0.000000 0.000000 3.021530 
# 
# 
# High freq. dielectric constant tensor:
#      x y z
#    x 1.672170 0.000000 0.000000 
#    y 0.000000 1.674750 0.000000 
#    z 0.000000 0.000000 1.658220 
# 
# From -- ./inp_files/8570.got.cif
#   From: 2010.03.12/outbox.cif.g09.slc.cpg/sg63_5_cif.got.tgz:8570.got - 2010.04.10 19:34:48.
