data_PCOD8256561
_publ_section_title
;
Structure prediction by ZEFSAII (Michael W. Deem and Ramdas Pophale) SiO2 
 PCOD8256561
Probable space group: C M C M
;
_chemical_formula_sum "Si O2"
_cell_formula_units_Z 96
_cell_length_a 8.451962
_cell_length_b 24.892628
_cell_length_c 23.704889
_cell_angle_alpha 90.000000
_cell_angle_beta 90.000000
_cell_angle_gamma 90.000000
_cell_volume 4987.308243
_symmetry_space_group_name_H-M "C M C M"
_symmetry_group_IT_number 63
_symmetry_cell_setting 'orthorhombic'
loop_
_space_group_symop_operation_xyz
x,y,z
-x,-y,1/2+z
x,-y,-z
-x,y,1/2-z
-x,-y,-z
x,y,1/2-z
-x,y,z
x,-y,1/2+z
1/2+x,1/2+y,z
1/2-x,1/2-y,1/2+z
1/2+x,1/2-y,-z
1/2-x,1/2+y,1/2-z
1/2-x,1/2-y,-z
1/2+x,1/2+y,1/2-z
1/2-x,1/2+y,z
1/2+x,1/2-y,1/2+z
loop_
_atom_site_type_symbol
_atom_site_label
_atom_site_fract_x
_atom_site_fract_y
_atom_site_fract_z
Si Si1 0.318284 0.112798 0.250000
Si Si2 0.183870 0.980654 0.061264
Si Si3 0.182250 0.427348 0.870964
Si Si4 0.184423 0.834084 0.943124
Si Si5 0.687578 0.764378 0.131057
Si Si6 0.683981 0.135290 0.560137
Si Si7 0.684900 0.271066 0.750000
O O1 0.500000 0.131726 0.250000
O O2 0.279125 0.076843 0.304606
O O3 0.210970 0.165397 0.250000
O O4 0.213191 0.917705 0.068902
O O5 0.000000 0.993300 0.068237
O O6 0.279522 0.012266 0.109418
O O7 0.244768 0.000000 0.000000
O O8 0.292583 0.386847 0.905401
O O9 0.000000 0.413584 0.883413
O O10 0.251873 0.782517 0.909823
O O11 0.000000 0.828958 0.958457
O O12 0.285248 0.837964 0.999833
O O13 0.500000 0.758384 0.132789
O O14 0.738179 0.822523 0.108087
O O15 0.759866 0.755880 0.193789
O O16 0.500000 0.120772 0.565554
O O17 0.500000 0.259789 0.750000
#
# Coordination Sequence:
#
# PCOD8256561 Si02
#       7
#     8  16  16  16  16  16   8
#     4  10  22  38  57  88 121 145 184 236 286 333
#     4  11  23  39  59  83 113 148 192 241 285 338
#     4  11  22  37  59  87 117 149 186 233 285 338
#     4  11  20  34  56  86 118 149 187 233 281 337
#     4   9  20  35  56  85 115 149 192 233 278 339
#     4  11  22  37  56  83 117 155 192 232 287 346
#     4  10  18  36  61  82 111 153 192 228 276 337
#
# _framework density 19.248861000000002
#
# number of rings (size 3 to 8) (size 9 to 14) (size 15 to 20)
#    0.000    1.500    3.333    2.500    0.000    1.333 
#    0.000    5.000    0.000    3.000    0.000    0.000 
#    0.000    0.000    0.000    0.000    0.000    0.000 
#
# Total GULP energy -595388.846211 kJ/mol
# GULP energy per Si atom -12403.934296 kJ/mol
# Density = 1.920505 g / cm^3
# Si number density = 19.248861 Si / 1000 Ang^3
#
#
#
# Elastic Constant Matrix: (Units=GPa)
#
#
# Indices 1 2 3 4 5 6 
#
# 1 33.9787 9.8904 18.2042 0.0000 0.0000 0.0000
# 2 9.8904 125.2824 65.8200 0.0000 0.0000 0.0000
# 3 18.2042 65.8200 141.4061 0.0000 0.0000 0.0000
# 4 0.0000 0.0000 0.0000 38.6185 0.0000 0.0000
# 5 0.0000 0.0000 0.0000 0.0000 20.6266 0.0000
# 6 0.0000 0.0000 0.0000 0.0000 0.0000 20.3200
#
#
#
# Elastic Compliance Matrix: (Units=1/GPa)
#
#
# Indices 1 2 3 4 5 6 
#
# 1 0.031632 -0.000474 -0.003852 0.000000 0.000000 0.000000
# 2 -0.000474 0.010573 -0.004860 0.000000 0.000000 0.000000
# 3 -0.003852 -0.004860 0.009830 0.000000 0.000000 0.000000
# 4 0.000000 0.000000 0.000000 0.025894 0.000000 0.000000
# 5 0.000000 0.000000 0.000000 0.000000 0.048481 0.000000
# 6 0.000000 0.000000 0.000000 0.000000 0.000000 0.049213
#
#
# Mechanical properties :
#
#
# Convention : Reuss Voigt Hill
#
# Bulk Modulus (GPa) = 29.70605 54.27739 41.99172
# Shear Modulus (GPa) = 24.36469 29.69651 27.03060
#
# Velocity S-wave (km/s) = 3.56163 3.93207 3.75142
# Velocity P-wave (km/s) = 5.69032 6.99098 6.37391
#
# Compressibility (1/GPa) = 0.03366318
#
# Stress axis : x y z
#
# Youngs Moduli (GPa) = 31.61397 94.58181 101.72908
#
# Poissons Ratio (x) = 0.04479 0.39183
# Poissons Ratio (y) = 0.01497 0.49444
# Poissons Ratio (z) = 0.12177 0.45970
#
# Static dielectric constant tensor:
#      x y z
#    x 3.307920 0.000000 0.000000 
#    y 0.000000 3.447910 0.000000 
#    z 0.000000 0.000000 3.839960 
# 
# 
# High freq. dielectric constant tensor:
#      x y z
#    x 1.737590 0.000000 0.000000 
#    y 0.000000 1.745060 0.000000 
#    z 0.000000 0.000000 1.751040 
# 
# From -- ./inp_files/60086.got.cif
#   From: 2010.03.12/outbox.cif.g09.slc.cpg/sg63_31_cif.got.tgz:60086.got - 2010.04.10 19:34:48.
