data_PCOD8256639
_publ_section_title
;
Structure prediction by ZEFSAII (Michael W. Deem and Ramdas Pophale) SiO2 
 PCOD8256639
Probable space group: C M C M
;
_chemical_formula_sum "Si O2"
_cell_formula_units_Z 96
_cell_length_a 17.763058
_cell_length_b 17.562271
_cell_length_c 18.790210
_cell_angle_alpha 90.000000
_cell_angle_beta 90.000000
_cell_angle_gamma 90.000000
_cell_volume 5861.787117
_symmetry_space_group_name_H-M "C M C M"
_symmetry_group_IT_number 63
_symmetry_cell_setting 'orthorhombic'
loop_
_space_group_symop_operation_xyz
x,y,z
-x,-y,1/2+z
x,-y,-z
-x,y,1/2-z
-x,-y,-z
x,y,1/2-z
-x,y,z
x,-y,1/2+z
1/2+x,1/2+y,z
1/2-x,1/2-y,1/2+z
1/2+x,1/2-y,-z
1/2-x,1/2+y,1/2-z
1/2-x,1/2-y,-z
1/2+x,1/2+y,1/2-z
1/2-x,1/2+y,z
1/2+x,1/2-y,1/2+z
loop_
_atom_site_type_symbol
_atom_site_label
_atom_site_fract_x
_atom_site_fract_y
_atom_site_fract_z
Si Si1 0.209633 0.225397 0.666973
Si Si2 0.916355 0.493021 0.415708
Si Si3 0.805539 0.372462 0.069658
Si Si4 0.179618 0.999862 0.077342
Si Si5 0.200325 0.619877 0.407895
Si Si6 0.584545 0.395561 0.166904
O O1 0.229255 0.215946 0.750000
O O2 0.280371 0.196827 0.619989
O O3 0.194762 0.312804 0.649020
O O4 0.135373 0.177074 0.646329
O O5 0.917758 0.500000 0.500000
O O6 0.882741 0.408797 0.399026
O O7 0.864876 0.560778 0.384715
O O8 0.000000 0.499135 0.382681
O O9 0.747471 0.441175 0.071862
O O10 0.813392 0.346162 0.987378
O O11 0.216743 0.081030 0.098141
O O12 0.117489 0.973417 0.133838
O O13 0.139728 0.000000 0.000000
O O14 0.584443 0.409838 0.250000
O O15 0.500000 0.380497 0.138616
#
# Coordination Sequence:
#
# PCOD8256639 Si02
#       6
#    16  16  16  16  16  16
#     4  10  19  29  43  63  87 115 145 176 210 253
#     4   8  14  26  46  70  91 112 141 177 217 260
#     4   8  15  29  46  63  87 117 145 172 207 256
#     4   8  15  28  46  66  84 107 142 180 213 246
#     4   9  16  27  46  69  89 109 138 181 222 249
#     4   9  18  31  44  59  84 117 144 168 208 259
#
# _framework density 16.377258000000001
#
# number of rings (size 3 to 8) (size 9 to 14) (size 15 to 20)
#    0.000    3.333    0.000    2.500    0.000    1.667 
#    0.000    2.500    0.000    2.500    0.000    0.000 
#    0.000    0.000    0.000    0.000    0.000    0.000 
#
# Total GULP energy -594906.690258 kJ/mol
# GULP energy per Si atom -12393.889380 kJ/mol
# Density = 1.633998 g / cm^3
# Si number density = 16.377258 Si / 1000 Ang^3
#
#
#
# Elastic Constant Matrix: (Units=GPa)
#
#
# Indices 1 2 3 4 5 6 
#
# 1 89.4057 40.0609 25.1922 0.0000 0.0000 0.0000
# 2 40.0609 80.9810 26.5019 0.0000 0.0000 0.0000
# 3 25.1922 26.5019 38.9083 0.0000 0.0000 0.0000
# 4 0.0000 0.0000 0.0000 26.0653 0.0000 0.0000
# 5 0.0000 0.0000 0.0000 0.0000 16.7212 0.0000
# 6 0.0000 0.0000 0.0000 0.0000 0.0000 17.3921
#
#
#
# Elastic Compliance Matrix: (Units=1/GPa)
#
#
# Indices 1 2 3 4 5 6 
#
# 1 0.015442 -0.005620 -0.006170 0.000000 0.000000 0.000000
# 2 -0.005620 0.017936 -0.008578 0.000000 0.000000 0.000000
# 3 -0.006170 -0.008578 0.035540 0.000000 0.000000 0.000000
# 4 0.000000 0.000000 0.000000 0.038365 0.000000 0.000000
# 5 0.000000 0.000000 0.000000 0.000000 0.059804 0.000000
# 6 0.000000 0.000000 0.000000 0.000000 0.000000 0.057497
#
#
# Mechanical properties :
#
#
# Convention : Reuss Voigt Hill
#
# Bulk Modulus (GPa) = 35.48529 43.64500 39.56514
# Shear Modulus (GPa) = 18.20074 19.87172 19.03623
#
# Velocity S-wave (km/s) = 3.33730 3.48713 3.41304
# Velocity P-wave (km/s) = 6.04686 6.55142 6.30419
#
# Compressibility (1/GPa) = 0.02818069
#
# Stress axis : x y z
#
# Youngs Moduli (GPa) = 64.75988 55.75409 28.13760
#
# Poissons Ratio (x) = 0.31332 0.17362
# Poissons Ratio (y) = 0.36392 0.24137
# Poissons Ratio (z) = 0.39959 0.47827
#
# Static dielectric constant tensor:
#      x y z
#    x 3.341570 0.000000 0.000000 
#    y 0.000000 3.002310 0.000000 
#    z 0.000000 0.000000 2.979590 
# 
# 
# High freq. dielectric constant tensor:
#      x y z
#    x 1.615570 0.000000 0.000000 
#    y 0.000000 1.617390 0.000000 
#    z 0.000000 0.000000 1.611820 
# 
# From -- ./inp_files/45771.got.cif
#   From: 2010.03.12/outbox.cif.g09.slc.cpg/sg63_23_cif.got.tgz:45771.got - 2010.04.10 19:34:48.
