data_PCOD8256539
_publ_section_title
;
Structure prediction by ZEFSAII (Michael W. Deem and Ramdas Pophale) SiO2 
 PCOD8256539
Probable space group: C M C M
;
_chemical_formula_sum "Si O2"
_cell_formula_units_Z 72
_cell_length_a 14.852240
_cell_length_b 25.729926
_cell_length_c 10.154911
_cell_angle_alpha 90.000000
_cell_angle_beta 90.000000
_cell_angle_gamma 90.000000
_cell_volume 3880.669141
_symmetry_space_group_name_H-M "C M C M"
_symmetry_group_IT_number 63
_symmetry_cell_setting 'orthorhombic'
loop_
_space_group_symop_operation_xyz
x,y,z
-x,-y,1/2+z
x,-y,-z
-x,y,1/2-z
-x,-y,-z
x,y,1/2-z
-x,y,z
x,-y,1/2+z
1/2+x,1/2+y,z
1/2-x,1/2-y,1/2+z
1/2+x,1/2-y,-z
1/2-x,1/2+y,1/2-z
1/2-x,1/2-y,-z
1/2+x,1/2+y,1/2-z
1/2-x,1/2+y,z
1/2+x,1/2-y,1/2+z
loop_
_atom_site_type_symbol
_atom_site_label
_atom_site_fract_x
_atom_site_fract_y
_atom_site_fract_z
Si Si1 0.304261 0.442957 0.250000
Si Si2 0.606843 0.658013 0.250000
Si Si3 0.791713 0.193583 0.497531
Si Si4 0.500000 0.949237 0.092152
Si Si5 0.812766 0.591728 0.991550
Si Si6 0.224952 0.942596 0.750000
Si Si7 0.397021 0.340897 0.250000
O O1 0.247660 0.432666 0.379382
O O2 0.330978 0.503445 0.250000
O O3 0.389536 0.403998 0.250000
O O4 0.500000 0.653448 0.250000
O O5 0.640036 0.689366 0.376350
O O6 0.647621 0.600349 0.250000
O O7 0.750000 0.250000 0.500000
O O8 0.709883 0.152457 0.487091
O O9 0.849692 0.184369 0.626082
O O10 0.500000 0.962296 0.250000
O O11 0.415492 0.913909 0.052279
O O12 0.500000 0.000000 0.000000
O O13 0.791433 0.560541 0.125153
O O14 0.500000 0.324740 0.250000
#
# Coordination Sequence:
#
# PCOD8256539 Si02
#       7
#     8   8  16   8  16   8   8
#     4  10  18  35  56  81 111 152 182 223 286 345
#     4  10  21  38  59  90 114 145 190 236 282 349
#     4  10  21  41  62  80 115 153 190 238 294 341
#     4  12  24  38  58  86 122 156 198 248 293 347
#     4  10  22  36  55  83 111 149 198 235 281 350
#     4  10  20  35  58  81 117 152 184 225 288 347
#     4  10  21  36  59  88 114 141 190 234 278 341
#
# _framework density 18.553501000000001
#
# number of rings (size 3 to 8) (size 9 to 14) (size 15 to 20)
#    0.000    1.778    1.111    3.333    1.556    0.444 
#    4.000    0.000    0.000    8.000    0.000    0.000 
#    0.000    0.000    0.000    0.000    0.000    0.000 
#
# Total GULP energy -446394.991202 kJ/mol
# GULP energy per Si atom -12399.860867 kJ/mol
# Density = 1.851127 g / cm^3
# Si number density = 18.553501 Si / 1000 Ang^3
#
#
#
# Elastic Constant Matrix: (Units=GPa)
#
#
# Indices 1 2 3 4 5 6 
#
# 1 121.3478 43.9204 47.8491 0.0000 0.0000 0.0000
# 2 43.9204 135.4650 42.0414 0.0000 0.0000 0.0000
# 3 47.8491 42.0414 163.6691 0.0000 0.0000 0.0000
# 4 0.0000 0.0000 0.0000 13.7432 0.0000 0.0000
# 5 0.0000 0.0000 0.0000 0.0000 25.4771 0.0000
# 6 0.0000 0.0000 0.0000 0.0000 0.0000 16.3438
#
#
#
# Elastic Compliance Matrix: (Units=1/GPa)
#
#
# Indices 1 2 3 4 5 6 
#
# 1 0.010067 -0.002554 -0.002287 0.000000 0.000000 0.000000
# 2 -0.002554 0.008669 -0.001480 0.000000 0.000000 0.000000
# 3 -0.002287 -0.001480 0.007159 0.000000 0.000000 0.000000
# 4 0.000000 0.000000 0.000000 0.072763 0.000000 0.000000
# 5 0.000000 0.000000 0.000000 0.000000 0.039251 0.000000
# 6 0.000000 0.000000 0.000000 0.000000 0.000000 0.061185
#
#
# Mechanical properties :
#
#
# Convention : Reuss Voigt Hill
#
# Bulk Modulus (GPa) = 75.45778 76.45596 75.95687
# Shear Modulus (GPa) = 23.13158 30.22423 26.67791
#
# Velocity S-wave (km/s) = 3.53477 4.04050 3.79607
# Velocity P-wave (km/s) = 7.57747 7.94137 7.76156
#
# Compressibility (1/GPa) = 0.01325244
#
# Stress axis : x y z
#
# Youngs Moduli (GPa) = 99.33417 115.34744 139.68960
#
# Poissons Ratio (x) = 0.29461 0.31948
# Poissons Ratio (y) = 0.25371 0.20677
# Poissons Ratio (z) = 0.22718 0.17074
#
# Static dielectric constant tensor:
#      x y z
#    x 3.338110 0.000000 0.000000 
#    y 0.000000 3.466560 0.000000 
#    z 0.000000 0.000000 3.666960 
# 
# 
# High freq. dielectric constant tensor:
#      x y z
#    x 1.707250 0.000000 0.000000 
#    y 0.000000 1.719390 0.000000 
#    z 0.000000 0.000000 1.748620 
# 
# From -- ./inp_files/4753.got.cif
#   From: 2010.03.12/outbox.cif.g09.slc.cpg/sg63_3_cif.got.tgz:4753.got - 2010.04.10 19:34:48.
