data_PCOD8256620
_publ_section_title
;
Structure prediction by ZEFSAII (Michael W. Deem and Ramdas Pophale) SiO2 
 PCOD8256620
Probable space group: C M C M
;
_chemical_formula_sum "Si O2"
_cell_formula_units_Z 104
_cell_length_a 27.691063
_cell_length_b 32.190784
_cell_length_c 8.935945
_cell_angle_alpha 90.000000
_cell_angle_beta 90.000000
_cell_angle_gamma 90.000000
_cell_volume 7965.474813
_symmetry_space_group_name_H-M "C M C M"
_symmetry_group_IT_number 63
_symmetry_cell_setting 'orthorhombic'
loop_
_space_group_symop_operation_xyz
x,y,z
-x,-y,1/2+z
x,-y,-z
-x,y,1/2-z
-x,-y,-z
x,y,1/2-z
-x,y,z
x,-y,1/2+z
1/2+x,1/2+y,z
1/2-x,1/2-y,1/2+z
1/2+x,1/2-y,-z
1/2-x,1/2+y,1/2-z
1/2-x,1/2-y,-z
1/2+x,1/2+y,1/2-z
1/2-x,1/2+y,z
1/2+x,1/2-y,1/2+z
loop_
_atom_site_type_symbol
_atom_site_label
_atom_site_fract_x
_atom_site_fract_y
_atom_site_fract_z
Si Si1 0.309978 0.455906 0.423906
Si Si2 0.866379 0.163157 0.081416
Si Si3 0.910663 0.911353 0.075795
Si Si4 0.279315 0.809290 0.081201
Si Si5 0.735709 0.617990 0.081900
Si Si6 0.176889 0.763935 0.418932
Si Si7 0.500000 0.544919 0.072479
O O1 0.304177 0.500000 0.500000
O O2 0.298866 0.460110 0.250000
O O3 0.363688 0.439230 0.453109
O O4 0.270390 0.425019 0.493560
O O5 0.886752 0.167209 0.250000
O O6 0.814297 0.142348 0.083882
O O7 0.902245 0.135501 0.981199
O O8 0.862445 0.208721 0.008068
O O9 0.924837 0.910254 0.250000
O O10 0.952977 0.930554 0.978427
O O11 0.297112 0.816591 0.250000
O O12 0.227940 0.786877 0.079901
O O13 0.275835 0.853743 0.999397
O O14 0.318562 0.780894 0.996883
O O15 0.753202 0.608490 0.250000
O O16 0.158565 0.757589 0.250000
O O17 0.500000 0.540136 0.250000
O O18 0.500000 0.500000 0.000000
#
# Coordination Sequence:
#
# PCOD8256620 Si02
#       7
#    16  16  16  16  16  16   8
#     4  10  19  29  41  54  67  84 107 135 167 203
#     4   9  16  26  39  54  70  87 106 128 156 191
#     4  10  20  33  46  58  71  86 105 132 167 207
#     4   9  15  22  32  47  67  88 109 131 154 182
#     4   9  16  25  36  49  66  86 107 131 159 191
#     4   9  15  22  33  49  68  89 110 129 151 182
#     4  12  24  36  48  60  72  86 106 134 170 212
#
# _framework density 13.056347000000001
#
# number of rings (size 3 to 8) (size 9 to 14) (size 15 to 20)
#    0.000    2.462    0.000    3.923    0.000   10.462 
#    0.000    0.000    0.000    0.000    0.000    0.000 
#    0.000    0.000    0.000    0.000    0.000    0.000 
#
# Total GULP energy -644777.942257 kJ/mol
# GULP energy per Si atom -12399.575813 kJ/mol
# Density = 1.302663 g / cm^3
# Si number density = 13.056347 Si / 1000 Ang^3
#
#
#
# Elastic Constant Matrix: (Units=GPa)
#
#
# Indices 1 2 3 4 5 6 
#
# 1 20.6913 36.5870 24.7962 0.0000 0.0000 0.0000
# 2 36.5870 103.1454 67.3880 0.0000 0.0000 0.0000
# 3 24.7962 67.3880 126.4081 0.0000 0.0000 0.0000
# 4 0.0000 0.0000 0.0000 28.1072 0.0000 0.0000
# 5 0.0000 0.0000 0.0000 0.0000 14.3876 0.0000
# 6 0.0000 0.0000 0.0000 0.0000 0.0000 5.6108
#
#
#
# Elastic Compliance Matrix: (Units=1/GPa)
#
#
# Indices 1 2 3 4 5 6 
#
# 1 0.129806 -0.045125 -0.001407 0.000000 0.000000 0.000000
# 2 -0.045125 0.030563 -0.007441 0.000000 0.000000 0.000000
# 3 -0.001407 -0.007441 0.012154 0.000000 0.000000 0.000000
# 4 0.000000 0.000000 0.000000 0.035578 0.000000 0.000000
# 5 0.000000 0.000000 0.000000 0.000000 0.069504 0.000000
# 6 0.000000 0.000000 0.000000 0.000000 0.000000 0.178227
#
#
# Mechanical properties :
#
#
# Convention : Reuss Voigt Hill
#
# Bulk Modulus (GPa) = 15.48536 56.42080 35.95308
# Shear Modulus (GPa) = 8.54255 17.71935 13.13095
#
# Velocity S-wave (km/s) = 2.56067 3.68794 3.17474
# Velocity P-wave (km/s) = 4.54190 7.83847 6.40588
#
# Compressibility (1/GPa) = 0.06457712
#
# Stress axis : x y z
#
# Youngs Moduli (GPa) = 7.70378 32.71914 82.27815
#
# Poissons Ratio (x) = 1.47645 0.11575
# Poissons Ratio (y) = 0.34763 0.61227
# Poissons Ratio (z) = 0.01084 0.24348
#
# Static dielectric constant tensor:
#      x y z
#    x 2.169870 0.000000 0.000000 
#    y 0.000000 2.695530 0.000000 
#    z 0.000000 0.000000 2.882850 
# 
# 
# High freq. dielectric constant tensor:
#      x y z
#    x 1.421230 0.000000 0.000000 
#    y 0.000000 1.492760 0.000000 
#    z 0.000000 0.000000 1.522720 
# 
# From -- ./inp_files/11095.got.cif
#   From: 2010.03.12/outbox.cif.g09.slc.cpg/sg63_6_cif.got.tgz:11095.got - 2010.04.10 19:34:48.
