data_PCOD8256740
_publ_section_title
;
Structure prediction by ZEFSAII (Michael W. Deem and Ramdas Pophale) SiO2 
 PCOD8256740
Probable space group: C M C M
;
_chemical_formula_sum "Si O2"
_cell_formula_units_Z 96
_cell_length_a 9.101912
_cell_length_b 31.584746
_cell_length_c 18.861142
_cell_angle_alpha 90.000000
_cell_angle_beta 90.000000
_cell_angle_gamma 90.000000
_cell_volume 5422.230877
_symmetry_space_group_name_H-M "C M C M"
_symmetry_group_IT_number 63
_symmetry_cell_setting 'orthorhombic'
loop_
_space_group_symop_operation_xyz
x,y,z
-x,-y,1/2+z
x,-y,-z
-x,y,1/2-z
-x,-y,-z
x,y,1/2-z
-x,y,z
x,-y,1/2+z
1/2+x,1/2+y,z
1/2-x,1/2-y,1/2+z
1/2+x,1/2-y,-z
1/2-x,1/2+y,1/2-z
1/2-x,1/2-y,-z
1/2+x,1/2+y,1/2-z
1/2-x,1/2+y,z
1/2+x,1/2-y,1/2+z
loop_
_atom_site_type_symbol
_atom_site_label
_atom_site_fract_x
_atom_site_fract_y
_atom_site_fract_z
Si Si1 0.165793 0.001335 0.915748
Si Si2 0.172822 0.415258 0.077857
Si Si3 0.825994 0.753510 0.828281
Si Si4 0.828152 0.417929 0.585998
Si Si5 0.667814 0.655176 0.165324
Si Si6 0.825508 0.662379 0.830760
O O1 0.247540 0.960012 0.885532
O O2 0.000000 0.001760 0.886498
O O3 0.248700 0.043438 0.889645
O O4 0.169987 0.000000 0.000000
O O5 0.237716 0.374698 0.119574
O O6 0.000000 0.421262 0.089153
O O7 0.211922 0.408846 0.995588
O O8 0.757048 0.752693 0.750000
O O9 0.780317 0.798192 0.864701
O O10 0.776351 0.708592 0.863578
O O11 0.000000 0.754313 0.821924
O O12 0.776809 0.378580 0.632290
O O13 0.000000 0.424930 0.596505
O O14 0.681092 0.654568 0.250000
O O15 0.500000 0.645287 0.142416
O O16 0.768109 0.656790 0.750000
O O17 0.000000 0.659572 0.831150
#
# Coordination Sequence:
#
# PCOD8256740 Si02
#       6
#    16  16  16  16  16  16
#     4   9  17  30  48  66  85 116 157 191 220 263
#     4   9  17  29  46  69  94 118 147 186 229 269
#     4   7  11  22  42  66  88 113 148 185 217 254
#     4  10  19  30  45  66  93 121 148 182 227 277
#     4   9  17  30  48  68  89 115 151 192 226 258
#     4   8  13  24  45  70  92 116 149 185 218 257
#
# _framework density 17.704889000000001
#
# number of rings (size 3 to 8) (size 9 to 14) (size 15 to 20)
#    0.000    3.333    0.000    3.000    0.000    3.000 
#    0.000    1.667    0.000    4.500    0.000    2.333 
#    0.000    0.000    0.000    0.000    0.000    0.000 
#
# Total GULP energy -594626.769891 kJ/mol
# GULP energy per Si atom -12388.057706 kJ/mol
# Density = 1.766459 g / cm^3
# Si number density = 17.704889 Si / 1000 Ang^3
#
#
#
# Elastic Constant Matrix: (Units=GPa)
#
#
# Indices 1 2 3 4 5 6 
#
# 1 52.9348 48.9058 19.0019 0.0000 0.0000 0.0000
# 2 48.9058 192.2953 42.5328 0.0000 0.0000 0.0000
# 3 19.0019 42.5328 32.5619 0.0000 0.0000 0.0000
# 4 0.0000 0.0000 0.0000 28.2789 0.0000 0.0000
# 5 0.0000 0.0000 0.0000 0.0000 13.2863 0.0000
# 6 0.0000 0.0000 0.0000 0.0000 0.0000 24.5132
#
#
#
# Elastic Compliance Matrix: (Units=1/GPa)
#
#
# Indices 1 2 3 4 5 6 
#
# 1 0.026593 -0.004684 -0.009400 0.000000 0.000000 0.000000
# 2 -0.004684 0.008138 -0.007897 0.000000 0.000000 0.000000
# 3 -0.009400 -0.007897 0.046511 0.000000 0.000000 0.000000
# 4 0.000000 0.000000 0.000000 0.035362 0.000000 0.000000
# 5 0.000000 0.000000 0.000000 0.000000 0.075265 0.000000
# 6 0.000000 0.000000 0.000000 0.000000 0.000000 0.040794
#
#
# Mechanical properties :
#
#
# Convention : Reuss Voigt Hill
#
# Bulk Modulus (GPa) = 26.82383 55.40812 41.11597
# Shear Modulus (GPa) = 17.29780 24.37246 20.83513
#
# Velocity S-wave (km/s) = 3.12910 3.71427 3.43417
# Velocity P-wave (km/s) = 5.31399 7.05392 6.24485
#
# Compressibility (1/GPa) = 0.03728029
#
# Stress axis : x y z
#
# Youngs Moduli (GPa) = 37.60359 122.87566 21.50008
#
# Poissons Ratio (x) = 0.57557 0.20211
# Poissons Ratio (y) = 0.17614 0.16978
# Poissons Ratio (z) = 0.35349 0.97033
#
# Static dielectric constant tensor:
#      x y z
#    x 2.983840 0.000000 0.000000 
#    y 0.000000 3.865150 0.000000 
#    z 0.000000 0.000000 2.938240 
# 
# 
# High freq. dielectric constant tensor:
#      x y z
#    x 1.651850 0.000000 0.000000 
#    y 0.000000 1.712880 0.000000 
#    z 0.000000 0.000000 1.635930 
# 
# From -- ./inp_files/51278.got.cif
#   From: 2010.03.12/outbox.cif.g09.slc.cpg/sg63_26_cif.got.tgz:51278.got - 2010.04.10 19:34:48.
