data_PCOD8256494
_publ_section_title
;
Structure prediction by ZEFSAII (Michael W. Deem and Ramdas Pophale) SiO2 
 PCOD8256494
Probable space group: C M C M
;
_chemical_formula_sum "Si O2"
_cell_formula_units_Z 128
_cell_length_a 18.120063
_cell_length_b 20.674868
_cell_length_c 19.619555
_cell_angle_alpha 90.000000
_cell_angle_beta 90.000000
_cell_angle_gamma 90.000000
_cell_volume 7350.072137
_symmetry_space_group_name_H-M "C M C M"
_symmetry_group_IT_number 63
_symmetry_cell_setting 'orthorhombic'
loop_
_space_group_symop_operation_xyz
x,y,z
-x,-y,1/2+z
x,-y,-z
-x,y,1/2-z
-x,-y,-z
x,y,1/2-z
-x,y,z
x,-y,1/2+z
1/2+x,1/2+y,z
1/2-x,1/2-y,1/2+z
1/2+x,1/2-y,-z
1/2-x,1/2+y,1/2-z
1/2-x,1/2-y,-z
1/2+x,1/2+y,1/2-z
1/2-x,1/2+y,z
1/2+x,1/2-y,1/2+z
loop_
_atom_site_type_symbol
_atom_site_label
_atom_site_fract_x
_atom_site_fract_y
_atom_site_fract_z
Si Si1 0.798948 0.516561 0.391194
Si Si2 0.343098 0.328072 0.451313
Si Si3 0.196068 0.603365 0.981718
Si Si4 0.915666 0.606104 0.172859
Si Si5 0.913922 0.692338 0.047343
Si Si6 0.852992 0.976963 0.673703
Si Si7 0.413561 0.563234 0.460968
Si Si8 0.416011 0.617167 0.826991
O O1 0.818311 0.445511 0.419541
O O2 0.774390 0.564160 0.452466
O O3 0.869215 0.544540 0.351808
O O4 0.733222 0.509203 0.337245
O O5 0.257004 0.342390 0.463790
O O6 0.363915 0.254619 0.467424
O O7 0.394138 0.373322 0.497315
O O8 0.361384 0.340566 0.372366
O O9 0.117642 0.636994 0.997236
O O10 0.893994 0.625747 0.250000
O O11 0.902685 0.668991 0.125444
O O12 0.000000 0.583385 0.167997
O O13 0.000000 0.704798 0.030877
O O14 0.864512 0.948277 0.750000
O O15 0.881587 0.928347 0.615538
O O16 0.899940 0.041736 0.664500
O O17 0.379827 0.500000 0.500000
O O18 0.500000 0.555717 0.455424
O O19 0.403317 0.640114 0.750000
O O20 0.500000 0.629625 0.850322
#
# Coordination Sequence:
#
# PCOD8256494 Si02
#       8
#    16  16  16  16  16  16  16  16
#     4  10  18  34  55  81 104 137 170 218 279 327
#     4  12  20  35  54  77 107 149 190 222 265 328
#     4  10  20  34  55  78 108 136 175 221 272 323
#     4   9  19  36  57  80 106 138 179 225 277 336
#     4  10  22  36  53  79 109 143 183 230 275 319
#     4  11  20  31  48  73 106 137 171 218 268 318
#     4  11  20  31  49  73 104 142 181 222 266 317
#     4  10  20  31  46  73 108 142 177 220 268 318
#
# _framework density 17.414795999999999
#
# number of rings (size 3 to 8) (size 9 to 14) (size 15 to 20)
#    0.000    1.625    3.750    2.250    0.000    1.750 
#    0.000    3.750    0.000    0.000    0.000    1.750 
#    0.000    2.000    0.000    0.000    0.000    0.000 
#
# Total GULP energy -793630.677321 kJ/mol
# GULP energy per Si atom -12400.479333 kJ/mol
# Density = 1.737516 g / cm^3
# Si number density = 17.414796 Si / 1000 Ang^3
#
#
#
# Elastic Constant Matrix: (Units=GPa)
#
#
# Indices 1 2 3 4 5 6 
#
# 1 77.0510 34.1325 36.3118 0.0000 0.0000 0.0000
# 2 34.1325 82.3805 33.2009 0.0000 0.0000 0.0000
# 3 36.3118 33.2009 94.2119 0.0000 0.0000 0.0000
# 4 0.0000 0.0000 0.0000 17.4824 0.0000 0.0000
# 5 0.0000 0.0000 0.0000 0.0000 27.5703 0.0000
# 6 0.0000 0.0000 0.0000 0.0000 0.0000 26.0255
#
#
#
# Elastic Compliance Matrix: (Units=1/GPa)
#
#
# Indices 1 2 3 4 5 6 
#
# 1 0.017663 -0.005332 -0.004929 0.000000 0.000000 0.000000
# 2 -0.005332 0.015758 -0.003498 0.000000 0.000000 0.000000
# 3 -0.004929 -0.003498 0.013747 0.000000 0.000000 0.000000
# 4 0.000000 0.000000 0.000000 0.057200 0.000000 0.000000
# 5 0.000000 0.000000 0.000000 0.000000 0.036271 0.000000
# 6 0.000000 0.000000 0.000000 0.000000 0.000000 0.038424
#
#
# Mechanical properties :
#
#
# Convention : Reuss Voigt Hill
#
# Bulk Modulus (GPa) = 50.89040 51.21485 51.05262
# Shear Modulus (GPa) = 23.45980 24.21553 23.83766
#
# Velocity S-wave (km/s) = 3.67429 3.73301 3.70377
# Velocity P-wave (km/s) = 6.87652 6.93203 6.90433
#
# Compressibility (1/GPa) = 0.01965007
#
# Stress axis : x y z
#
# Youngs Moduli (GPa) = 56.61490 63.46086 72.74407
#
# Poissons Ratio (x) = 0.33837 0.35855
# Poissons Ratio (y) = 0.30187 0.25446
# Poissons Ratio (z) = 0.27905 0.22199
#
# Static dielectric constant tensor:
#      x y z
#    x 3.216380 0.000000 0.000000 
#    y 0.000000 3.038860 0.000000 
#    z 0.000000 0.000000 3.386180 
# 
# 
# High freq. dielectric constant tensor:
#      x y z
#    x 1.678060 0.000000 0.000000 
#    y 0.000000 1.647850 0.000000 
#    z 0.000000 0.000000 1.673810 
# 
# From -- ./inp_files/56030.got.cif
#   From: 2010.03.12/outbox.cif.g09.slc.cpg/sg63_29_cif.got.tgz:56030.got - 2010.04.10 19:34:48.
