data_PCOD8256630
_publ_section_title
;
Structure prediction by ZEFSAII (Michael W. Deem and Ramdas Pophale) SiO2 
 PCOD8256630
Probable space group: C M C M
;
_chemical_formula_sum "Si O2"
_cell_formula_units_Z 80
_cell_length_a 14.265227
_cell_length_b 38.071109
_cell_length_c 9.772671
_cell_angle_alpha 90.000000
_cell_angle_beta 90.000000
_cell_angle_gamma 90.000000
_cell_volume 5307.469329
_symmetry_space_group_name_H-M "C M C M"
_symmetry_group_IT_number 63
_symmetry_cell_setting 'orthorhombic'
loop_
_space_group_symop_operation_xyz
x,y,z
-x,-y,1/2+z
x,-y,-z
-x,y,1/2-z
-x,-y,-z
x,y,1/2-z
-x,y,z
x,-y,1/2+z
1/2+x,1/2+y,z
1/2-x,1/2-y,1/2+z
1/2+x,1/2-y,-z
1/2-x,1/2+y,1/2-z
1/2-x,1/2-y,-z
1/2+x,1/2+y,1/2-z
1/2-x,1/2+y,z
1/2+x,1/2-y,1/2+z
loop_
_atom_site_type_symbol
_atom_site_label
_atom_site_fract_x
_atom_site_fract_y
_atom_site_fract_z
Si Si1 0.392278 0.891555 0.589014
Si Si2 0.889112 0.529357 0.099363
Si Si3 0.894345 0.798604 0.406801
Si Si4 0.391408 0.234173 0.593826
Si Si5 0.712801 0.836633 0.092794
O O1 0.376963 0.885543 0.750000
O O2 0.500000 0.883232 0.549692
O O3 0.366077 0.931430 0.547599
O O4 0.322414 0.867296 0.504617
O O5 0.845881 0.523418 0.250000
O O6 0.000000 0.524709 0.107426
O O7 0.844314 0.500000 0.000000
O O8 0.889046 0.785779 0.250000
O O9 0.859622 0.766209 0.498511
O O10 0.824685 0.831562 0.429064
O O11 0.000000 0.810469 0.446225
O O12 0.368964 0.244629 0.750000
O O13 0.500000 0.225646 0.572055
O O14 0.335966 0.199611 0.549620
O O15 0.689018 0.846250 0.250000
#
# Coordination Sequence:
#
# PCOD8256630 Si02
#       5
#    16  16  16  16  16
#     4   9  18  30  42  60  87 114 138 165 197 235
#     4   8  14  25  40  58  81 109 138 163 187 221
#     4   9  18  31  44  58  77 103 138 177 212 247
#     4   9  17  28  41  58  79 102 132 171 210 247
#     4  10  19  29  42  60  82 108 137 170 208 246
#
# _framework density 15.073097000000001
#
# number of rings (size 3 to 8) (size 9 to 14) (size 15 to 20)
#    0.000    3.000    0.000    2.400    0.000    3.600 
#    0.000    4.000    0.000    0.000    0.000    0.000 
#    0.000    0.800    0.000    1.800    0.000    2.800 
#
# Total GULP energy -495873.934311 kJ/mol
# GULP energy per Si atom -12396.848358 kJ/mol
# Density = 1.503879 g / cm^3
# Si number density = 15.073097 Si / 1000 Ang^3
#
#
#
# Elastic Constant Matrix: (Units=GPa)
#
#
# Indices 1 2 3 4 5 6 
#
# 1 55.6686 48.1713 33.9598 0.0000 0.0000 0.0000
# 2 48.1713 102.9315 64.1975 0.0000 0.0000 0.0000
# 3 33.9598 64.1975 70.0447 0.0000 0.0000 0.0000
# 4 0.0000 0.0000 0.0000 30.8858 0.0000 0.0000
# 5 0.0000 0.0000 0.0000 0.0000 17.8101 0.0000
# 6 0.0000 0.0000 0.0000 0.0000 0.0000 15.3001
#
#
#
# Elastic Compliance Matrix: (Units=1/GPa)
#
#
# Indices 1 2 3 4 5 6 
#
# 1 0.030662 -0.011854 -0.004002 0.000000 0.000000 0.000000
# 2 -0.011854 0.027262 -0.019239 0.000000 0.000000 0.000000
# 3 -0.004002 -0.019239 0.033850 0.000000 0.000000 0.000000
# 4 0.000000 0.000000 0.000000 0.032377 0.000000 0.000000
# 5 0.000000 0.000000 0.000000 0.000000 0.056148 0.000000
# 6 0.000000 0.000000 0.000000 0.000000 0.000000 0.065359
#
#
# Mechanical properties :
#
#
# Convention : Reuss Voigt Hill
#
# Bulk Modulus (GPa) = 46.32917 57.92243 52.12580
# Shear Modulus (GPa) = 15.47788 18.28695 16.88242
#
# Velocity S-wave (km/s) = 3.20793 3.48691 3.35033
# Velocity P-wave (km/s) = 6.67264 7.39746 7.04438
#
# Compressibility (1/GPa) = 0.02158467
#
# Stress axis : x y z
#
# Youngs Moduli (GPa) = 32.61374 36.68112 29.54236
#
# Poissons Ratio (x) = 0.43481 0.11821
# Poissons Ratio (y) = 0.38660 0.56837
# Poissons Ratio (z) = 0.13050 0.70571
#
# Static dielectric constant tensor:
#      x y z
#    x 2.820540 0.000000 0.000000 
#    y 0.000000 2.814850 0.000000 
#    z 0.000000 0.000000 3.089580 
# 
# 
# High freq. dielectric constant tensor:
#      x y z
#    x 1.551760 0.000000 0.000000 
#    y 0.000000 1.558070 0.000000 
#    z 0.000000 0.000000 1.583190 
# 
# From -- ./inp_files/19379.got.cif
#   From: 2010.03.12/outbox.cif.g09.slc.cpg/sg63_10_cif.got.tgz:19379.got - 2010.04.10 19:34:48.
