data_PCOD8256236
_publ_section_title
;
Structure prediction by ZEFSAII (Michael W. Deem and Ramdas Pophale) SiO2 
 PCOD8256236
Probable space group: C M C M
;
_chemical_formula_sum "Si O2"
_cell_formula_units_Z 80
_cell_length_a 8.705502
_cell_length_b 20.643065
_cell_length_c 24.685581
_cell_angle_alpha 90.000000
_cell_angle_beta 90.000000
_cell_angle_gamma 90.000000
_cell_volume 4436.202405
_symmetry_space_group_name_H-M "C M C M"
_symmetry_group_IT_number 63
_symmetry_cell_setting 'orthorhombic'
loop_
_space_group_symop_operation_xyz
x,y,z
-x,-y,1/2+z
x,-y,-z
-x,y,1/2-z
-x,-y,-z
x,y,1/2-z
-x,y,z
x,-y,1/2+z
1/2+x,1/2+y,z
1/2-x,1/2-y,1/2+z
1/2+x,1/2-y,-z
1/2-x,1/2+y,1/2-z
1/2-x,1/2-y,-z
1/2+x,1/2+y,1/2-z
1/2-x,1/2+y,z
1/2+x,1/2-y,1/2+z
loop_
_atom_site_type_symbol
_atom_site_label
_atom_site_fract_x
_atom_site_fract_y
_atom_site_fract_z
Si Si1 0.832249 0.392532 0.750000
Si Si2 0.183231 0.382837 0.634245
Si Si3 0.818255 0.742305 0.861350
Si Si4 0.670332 0.738839 0.750000
Si Si5 0.680983 0.307489 0.034900
Si Si6 0.320231 0.564604 0.469874
O O1 0.751901 0.410917 0.807482
O O2 0.844593 0.315398 0.750000
O O3 0.000000 0.424982 0.750000
O O4 0.255217 0.312895 0.622498
O O5 0.231069 0.431894 0.587139
O O6 0.000000 0.374954 0.637675
O O7 0.761613 0.716342 0.803289
O O8 0.756816 0.691846 0.905801
O O9 0.000000 0.745277 0.862064
O O10 0.500000 0.707563 0.750000
O O11 0.500000 0.297730 0.039947
O O12 0.750000 0.250000 0.000000
O O13 0.724421 0.375205 0.007413
O O14 0.265015 0.500000 0.500000
O O15 0.500000 0.562777 0.456918
#
# Coordination Sequence:
#
# PCOD8256236 Si02
#       6
#     8  16  16   8  16  16
#     4   7  14  27  45  72 101 130 163 209 261 307
#     4  10  18  31  52  76 105 138 177 220 266 319
#     4  11  20  31  50  78 110 141 177 221 269 322
#     4   9  17  31  49  74 107 140 175 219 271 319
#     4  11  21  34  54  78 106 140 178 223 270 319
#     4  10  22  38  54  75 107 143 180 224 274 325
#
# _framework density 18.033441
#
# number of rings (size 3 to 8) (size 9 to 14) (size 15 to 20)
#    0.000    2.000    2.000    4.500    0.000    1.200 
#    0.000    1.500    0.000    1.200    0.000    7.000 
#    0.000    0.000    0.000    0.000    0.000    0.000 
#
# Total GULP energy -495860.010191 kJ/mol
# GULP energy per Si atom -12396.500255 kJ/mol
# Density = 1.799240 g / cm^3
# Si number density = 18.033441 Si / 1000 Ang^3
#
#
#
# Elastic Constant Matrix: (Units=GPa)
#
#
# Indices 1 2 3 4 5 6 
#
# 1 96.8853 35.8343 61.8370 0.0000 0.0000 0.0000
# 2 35.8343 79.7253 60.3305 0.0000 0.0000 0.0000
# 3 61.8370 60.3305 194.0259 0.0000 0.0000 0.0000
# 4 0.0000 0.0000 0.0000 18.7073 0.0000 0.0000
# 5 0.0000 0.0000 0.0000 0.0000 34.7912 0.0000
# 6 0.0000 0.0000 0.0000 0.0000 0.0000 17.8254
#
#
#
# Elastic Compliance Matrix: (Units=1/GPa)
#
#
# Indices 1 2 3 4 5 6 
#
# 1 0.013764 -0.003749 -0.003221 0.000000 0.000000 0.000000
# 2 -0.003749 0.017424 -0.004223 0.000000 0.000000 0.000000
# 3 -0.003221 -0.004223 0.007494 0.000000 0.000000 0.000000
# 4 0.000000 0.000000 0.000000 0.053455 0.000000 0.000000
# 5 0.000000 0.000000 0.000000 0.000000 0.028743 0.000000
# 6 0.000000 0.000000 0.000000 0.000000 0.000000 0.056100
#
#
# Mechanical properties :
#
#
# Convention : Reuss Voigt Hill
#
# Bulk Modulus (GPa) = 61.36703 76.29334 68.83019
# Shear Modulus (GPa) = 24.41447 28.44041 26.42744
#
# Velocity S-wave (km/s) = 3.68345 3.97557 3.83230
# Velocity P-wave (km/s) = 7.22453 7.96693 7.60480
#
# Compressibility (1/GPa) = 0.01629539
#
# Stress axis : x y z
#
# Youngs Moduli (GPa) = 72.65405 57.39275 133.44858
#
# Poissons Ratio (x) = 0.21517 0.42982
# Poissons Ratio (y) = 0.27239 0.56354
# Poissons Ratio (z) = 0.23401 0.24236
#
# Static dielectric constant tensor:
#      x y z
#    x 3.319080 0.000000 0.000000 
#    y 0.000000 2.966130 0.000000 
#    z 0.000000 0.000000 3.913610 
# 
# 
# High freq. dielectric constant tensor:
#      x y z
#    x 1.699710 0.000000 0.000000 
#    y 0.000000 1.640580 0.000000 
#    z 0.000000 0.000000 1.726720 
# 
# From -- ./inp_files/59548.got.cif
#   From: 2010.03.12/outbox.cif.g09.slc.cpg/sg63_30_cif.got.tgz:59548.got - 2010.04.10 19:34:48.
