data_PCOD8256627
_publ_section_title
;
Structure prediction by ZEFSAII (Michael W. Deem and Ramdas Pophale) SiO2 
 PCOD8256627
Probable space group: C M C M
;
_chemical_formula_sum "Si O2"
_cell_formula_units_Z 112
_cell_length_a 31.955662
_cell_length_b 32.044641
_cell_length_c 8.771082
_cell_angle_alpha 90.000000
_cell_angle_beta 90.000000
_cell_angle_gamma 90.000000
_cell_volume 8981.655652
_symmetry_space_group_name_H-M "C M C M"
_symmetry_group_IT_number 63
_symmetry_cell_setting 'orthorhombic'
loop_
_space_group_symop_operation_xyz
x,y,z
-x,-y,1/2+z
x,-y,-z
-x,y,1/2-z
-x,-y,-z
x,y,1/2-z
-x,y,z
x,-y,1/2+z
1/2+x,1/2+y,z
1/2-x,1/2-y,1/2+z
1/2+x,1/2-y,-z
1/2-x,1/2+y,1/2-z
1/2-x,1/2-y,-z
1/2+x,1/2+y,1/2-z
1/2-x,1/2+y,z
1/2+x,1/2-y,1/2+z
loop_
_atom_site_type_symbol
_atom_site_label
_atom_site_fract_x
_atom_site_fract_y
_atom_site_fract_z
Si Si1 0.000000 0.080000 0.430945
Si Si2 0.000000 0.170195 0.572486
Si Si3 0.136320 0.885554 0.926263
Si Si4 0.727369 0.210761 0.428989
Si Si5 0.650010 0.741842 0.579994
Si Si6 0.583936 0.456043 0.069577
Si Si7 0.418735 0.696139 0.423985
Si Si8 0.207349 0.839484 0.077876
O O1 0.000000 0.128430 0.473102
O O2 0.959707 0.057440 0.496851
O O3 0.000000 0.075850 0.250000
O O4 0.959311 0.197349 0.531260
O O5 0.000000 0.158617 0.750000
O O6 0.137204 0.898676 0.750000
O O7 0.105432 0.846866 0.953660
O O8 0.120111 0.923466 0.028125
O O9 0.183179 0.874585 0.980689
O O10 0.736594 0.209688 0.250000
O O11 0.750000 0.250000 0.500000
O O12 0.677347 0.216646 0.461009
O O13 0.746565 0.168913 0.505211
O O14 0.631521 0.745739 0.750000
O O15 0.611268 0.735212 0.465683
O O16 0.681127 0.702839 0.571471
O O17 0.578848 0.459069 0.250000
O O18 0.597741 0.500000 0.000000
O O19 0.432863 0.700736 0.250000
O O20 0.213064 0.855525 0.250000
#
# Coordination Sequence:
#
# PCOD8256627 Si02
#       8
#     8   8  16  16  16  16  16  16
#     4  12  23  37  50  62  75  86 110 142 178 220
#     4  12  22  31  45  58  72  92 115 144 180 218
#     4  10  19  31  45  59  75  92 112 139 170 208
#     4   9  15  23  35  52  73  94 115 137 162 193
#     4   8  15  25  36  51  72  93 115 137 163 198
#     4  12  24  37  50  62  75  91 111 139 178 220
#     4  10  19  29  42  56  72  90 113 142 173 209
#     4   9  16  25  38  55  74  94 115 136 161 197
#
# _framework density 12.469861999999999
#
# number of rings (size 3 to 8) (size 9 to 14) (size 15 to 20)
#    0.000    2.000    1.429    5.357    0.000    5.143 
#    0.000    0.000    0.000    0.000    0.000    0.000 
#    0.000    0.000    0.000    0.000    0.000    0.000 
#
# Total GULP energy -694220.812991 kJ/mol
# GULP energy per Si atom -12396.800232 kJ/mol
# Density = 1.244148 g / cm^3
# Si number density = 12.469862 Si / 1000 Ang^3
#
#
#
# Elastic Constant Matrix: (Units=GPa)
#
#
# Indices 1 2 3 4 5 6 
#
# 1 58.7129 36.2734 36.0648 0.0000 0.0000 0.0000
# 2 36.2734 33.7625 24.0055 0.0000 0.0000 0.0000
# 3 36.0648 24.0055 93.0562 0.0000 0.0000 0.0000
# 4 0.0000 0.0000 0.0000 16.1871 0.0000 0.0000
# 5 0.0000 0.0000 0.0000 0.0000 21.5020 0.0000
# 6 0.0000 0.0000 0.0000 0.0000 0.0000 -15.4481
#
#
#
# Elastic Compliance Matrix: (Units=1/GPa)
#
#
# Indices 1 2 3 4 5 6 
#
# 1 0.054488 -0.053302 -0.007367 0.000000 0.000000 0.000000
# 2 -0.053302 0.088413 -0.002150 0.000000 0.000000 0.000000
# 3 -0.007367 -0.002150 0.014156 0.000000 0.000000 0.000000
# 4 0.000000 0.000000 0.000000 0.061778 0.000000 0.000000
# 5 0.000000 0.000000 0.000000 0.000000 0.046507 0.000000
# 6 0.000000 0.000000 0.000000 0.000000 0.000000 -0.064733
#
#
# Mechanical properties :
#
#
# Convention : Reuss Voigt Hill
#
# Bulk Modulus (GPa) = 31.82798 42.02433 36.92615
# Shear Modulus (GPa) = 14.84914 10.39405 12.62160
#
# Velocity S-wave (km/s) = 3.45454 2.89023 3.18491
# Velocity P-wave (km/s) = 6.44136 6.70163 6.57278
#
# Compressibility (1/GPa) = 0.03141890
#
# Stress axis : x y z
#
# Youngs Moduli (GPa) = 18.35281 11.31053 70.64121
#
# Poissons Ratio (x) = 0.60287 0.52041
# Poissons Ratio (y) = 0.97824 0.15189
# Poissons Ratio (z) = 0.13521 0.02432
#
# Static dielectric constant tensor:
#      x y z
#    x 2.690900 0.000000 0.000000 
#    y 0.000000 2.353410 0.000000 
#    z 0.000000 0.000000 2.721790 
# 
# 
# High freq. dielectric constant tensor:
#      x y z
#    x 1.458290 0.000000 0.000000 
#    y 0.000000 1.418120 0.000000 
#    z 0.000000 0.000000 1.495040 
# 
# From -- ./inp_files/15004.got.cif
#   From: 2010.03.12/outbox.cif.g09.slc.cpg/sg63_8_cif.got.tgz:15004.got - 2010.04.10 19:34:48.
