data_PCOD8256412
_publ_section_title
;
Structure prediction by ZEFSAII (Michael W. Deem and Ramdas Pophale) SiO2 
 PCOD8256412
Probable space group: C M C M
;
_chemical_formula_sum "Si O2"
_cell_formula_units_Z 88
_cell_length_a 18.019112
_cell_length_b 30.122296
_cell_length_c 8.785593
_cell_angle_alpha 90.000000
_cell_angle_beta 90.000000
_cell_angle_gamma 90.000000
_cell_volume 4768.618034
_symmetry_space_group_name_H-M "C M C M"
_symmetry_group_IT_number 63
_symmetry_cell_setting 'orthorhombic'
loop_
_space_group_symop_operation_xyz
x,y,z
-x,-y,1/2+z
x,-y,-z
-x,y,1/2-z
-x,-y,-z
x,y,1/2-z
-x,y,z
x,-y,1/2+z
1/2+x,1/2+y,z
1/2-x,1/2-y,1/2+z
1/2+x,1/2-y,-z
1/2-x,1/2+y,1/2-z
1/2-x,1/2-y,-z
1/2+x,1/2+y,1/2-z
1/2-x,1/2+y,z
1/2+x,1/2-y,1/2+z
loop_
_atom_site_type_symbol
_atom_site_label
_atom_site_fract_x
_atom_site_fract_y
_atom_site_fract_z
Si Si1 0.585719 0.741845 0.579078
Si Si2 0.774811 0.117763 0.571171
Si Si3 0.795024 0.290312 0.429536
Si Si4 0.150117 0.451650 0.430828
Si Si5 0.000000 0.450877 0.932125
Si Si6 0.583797 0.351990 0.929483
O O1 0.617629 0.737838 0.750000
O O2 0.500000 0.752420 0.579638
O O3 0.621654 0.783511 0.491435
O O4 0.604770 0.695757 0.497202
O O5 0.788268 0.118505 0.750000
O O6 0.735989 0.162796 0.512811
O O7 0.721732 0.077288 0.523700
O O8 0.855717 0.112715 0.491709
O O9 0.794399 0.287951 0.250000
O O10 0.750000 0.250000 0.500000
O O11 0.164024 0.500000 0.500000
O O12 0.139502 0.454576 0.250000
O O13 0.075975 0.428795 0.503728
O O14 0.000000 0.450632 0.750000
O O15 0.000000 0.500000 0.000000
O O16 0.589361 0.348930 0.750000
O O17 0.500000 0.366032 0.979391
#
# Coordination Sequence:
#
# PCOD8256412 Si02
#       6
#    16  16  16  16   8  16
#     4  10  20  34  51  71 101 141 181 221 264 311
#     4  10  22  37  55  79 108 142 178 217 271 325
#     4  11  21  34  52  76 105 141 179 220 266 315
#     4  10  20  37  59  83 110 141 178 222 267 320
#     4  10  18  32  56  84 110 142 178 218 264 316
#     4  10  20  33  53  80 106 137 180 225 265 313
#
# _framework density 18.453984999999999
#
# number of rings (size 3 to 8) (size 9 to 14) (size 15 to 20)
#    0.000    1.818    1.818    4.091    0.000    4.364 
#    1.636    0.000    0.000    0.545    0.000    0.000 
#    0.000    0.000    0.000    0.000    0.000    0.000 
#
# Total GULP energy -545485.581393 kJ/mol
# GULP energy per Si atom -12397.399577 kJ/mol
# Density = 1.841198 g / cm^3
# Si number density = 18.453985 Si / 1000 Ang^3
#
#
#
# Elastic Constant Matrix: (Units=GPa)
#
#
# Indices 1 2 3 4 5 6 
#
# 1 148.0245 59.4310 58.7964 0.0000 0.0000 0.0000
# 2 59.4310 75.6593 36.9547 0.0000 0.0000 0.0000
# 3 58.7964 36.9547 87.4366 0.0000 0.0000 0.0000
# 4 0.0000 0.0000 0.0000 23.7180 0.0000 0.0000
# 5 0.0000 0.0000 0.0000 0.0000 36.4343 0.0000
# 6 0.0000 0.0000 0.0000 0.0000 0.0000 31.4950
#
#
#
# Elastic Compliance Matrix: (Units=1/GPa)
#
#
# Indices 1 2 3 4 5 6 
#
# 1 0.011291 -0.006503 -0.004844 0.000000 0.000000 0.000000
# 2 -0.006503 0.020401 -0.004249 0.000000 0.000000 0.000000
# 3 -0.004844 -0.004249 0.016490 0.000000 0.000000 0.000000
# 4 0.000000 0.000000 0.000000 0.042162 0.000000 0.000000
# 5 0.000000 0.000000 0.000000 0.000000 0.027447 0.000000
# 6 0.000000 0.000000 0.000000 0.000000 0.000000 0.031751
#
#
# Mechanical properties :
#
#
# Convention : Reuss Voigt Hill
#
# Bulk Modulus (GPa) = 58.86154 69.05384 63.95769
# Shear Modulus (GPa) = 26.82453 28.72536 27.77495
#
# Velocity S-wave (km/s) = 3.81673 3.94965 3.88376
# Velocity P-wave (km/s) = 7.16861 7.63547 7.40572
#
# Compressibility (1/GPa) = 0.01698902
#
# Stress axis : x y z
#
# Youngs Moduli (GPa) = 88.56982 49.01768 60.64243
#
# Poissons Ratio (x) = 0.31876 0.29374
# Poissons Ratio (y) = 0.57596 0.25770
# Poissons Ratio (z) = 0.42902 0.20830
#
# Static dielectric constant tensor:
#      x y z
#    x 3.999990 0.000000 0.000000 
#    y 0.000000 3.129750 0.000000 
#    z 0.000000 0.000000 3.605090 
# 
# 
# High freq. dielectric constant tensor:
#      x y z
#    x 1.737340 0.000000 0.000000 
#    y 0.000000 1.670740 0.000000 
#    z 0.000000 0.000000 1.728590 
# 
# From -- ./inp_files/6791.got.cif
#   From: 2010.03.12/outbox.cif.g09.slc.cpg/sg63_4_cif.got.tgz:6791.got - 2010.04.10 19:34:48.
