data_PCOD8256809
_publ_section_title
;
Structure prediction by ZEFSAII (Michael W. Deem and Ramdas Pophale) SiO2 
 PCOD8256809
Probable space group: C M C M
;
_chemical_formula_sum "Si O2"
_cell_formula_units_Z 96
_cell_length_a 8.830959
_cell_length_b 30.245889
_cell_length_c 20.332212
_cell_angle_alpha 90.000000
_cell_angle_beta 90.000000
_cell_angle_gamma 90.000000
_cell_volume 5430.738007
_symmetry_space_group_name_H-M "C M C M"
_symmetry_group_IT_number 63
_symmetry_cell_setting 'orthorhombic'
loop_
_space_group_symop_operation_xyz
x,y,z
-x,-y,1/2+z
x,-y,-z
-x,y,1/2-z
-x,-y,-z
x,y,1/2-z
-x,y,z
x,-y,1/2+z
1/2+x,1/2+y,z
1/2-x,1/2-y,1/2+z
1/2+x,1/2-y,-z
1/2-x,1/2+y,1/2-z
1/2-x,1/2-y,-z
1/2+x,1/2+y,1/2-z
1/2-x,1/2+y,z
1/2+x,1/2-y,1/2+z
loop_
_atom_site_type_symbol
_atom_site_label
_atom_site_fract_x
_atom_site_fract_y
_atom_site_fract_z
Si Si1 0.826857 0.745291 0.676673
Si Si2 0.822464 0.456873 0.463022
Si Si3 0.670654 0.657237 0.652516
Si Si4 0.672983 0.068195 0.678779
Si Si5 0.671969 0.634190 0.503903
Si Si6 0.821956 0.716372 0.052095
O O1 0.807836 0.765494 0.750000
O O2 0.782988 0.693881 0.680230
O O3 0.717684 0.770344 0.626451
O O4 0.000000 0.749476 0.652610
O O5 0.758135 0.500000 0.500000
O O6 0.784668 0.461854 0.384658
O O7 0.743887 0.414328 0.494596
O O8 0.000000 0.451920 0.475568
O O9 0.500000 0.667078 0.676145
O O10 0.719739 0.610390 0.681125
O O11 0.679710 0.657489 0.574190
O O12 0.693224 0.043358 0.750000
O O13 0.500000 0.084195 0.670213
O O14 0.500000 0.629782 0.478967
O O15 0.764077 0.666201 0.455635
O O16 0.000000 0.718069 0.041676
O O17 0.750000 0.750000 0.000000
#
# Coordination Sequence:
#
# PCOD8256809 Si02
#       6
#    16  16  16  16  16  16
#     4  11  23  36  51  73 105 144 182 222 268 317
#     4   9  18  33  53  76 102 133 172 216 265 321
#     4  10  19  30  47  72 103 137 171 210 257 315
#     4   9  17  29  46  69  99 132 164 204 257 317
#     4  10  20  34  53  78 105 137 176 219 265 316
#     4  12  23  36  56  79 106 141 182 224 264 314
#
# _framework density 17.677154999999999
#
# number of rings (size 3 to 8) (size 9 to 14) (size 15 to 20)
#    0.000    1.833    1.667    3.500    0.000    5.333 
#    0.000    0.000    0.000    1.000    0.000    2.333 
#    0.000    0.000    0.000    0.000    0.000    0.000 
#
# Total GULP energy -595089.008396 kJ/mol
# GULP energy per Si atom -12397.687675 kJ/mol
# Density = 1.763692 g / cm^3
# Si number density = 17.677155 Si / 1000 Ang^3
#
#
#
# Elastic Constant Matrix: (Units=GPa)
#
#
# Indices 1 2 3 4 5 6 
#
# 1 97.0116 43.7428 37.3074 0.0000 0.0000 0.0000
# 2 43.7428 95.9777 58.5679 0.0000 0.0000 0.0000
# 3 37.3074 58.5679 109.0007 0.0000 0.0000 0.0000
# 4 0.0000 0.0000 0.0000 18.3295 0.0000 0.0000
# 5 0.0000 0.0000 0.0000 0.0000 20.6343 0.0000
# 6 0.0000 0.0000 0.0000 0.0000 0.0000 24.3673
#
#
#
# Elastic Compliance Matrix: (Units=1/GPa)
#
#
# Indices 1 2 3 4 5 6 
#
# 1 0.013238 -0.004863 -0.001918 0.000000 0.000000 0.000000
# 2 -0.004863 0.017288 -0.007625 0.000000 0.000000 0.000000
# 3 -0.001918 -0.007625 0.013928 0.000000 0.000000 0.000000
# 4 0.000000 0.000000 0.000000 0.054557 0.000000 0.000000
# 5 0.000000 0.000000 0.000000 0.000000 0.048463 0.000000
# 6 0.000000 0.000000 0.000000 0.000000 0.000000 0.041039
#
#
# Mechanical properties :
#
#
# Convention : Reuss Voigt Hill
#
# Bulk Modulus (GPa) = 63.92846 64.58070 64.25458
# Shear Modulus (GPa) = 22.46794 23.49100 22.97947
#
# Velocity S-wave (km/s) = 3.56900 3.64935 3.60940
# Velocity P-wave (km/s) = 7.29566 7.37358 7.33472
#
# Compressibility (1/GPa) = 0.01564248
#
# Stress axis : x y z
#
# Youngs Moduli (GPa) = 75.53745 57.84238 71.79942
#
# Poissons Ratio (x) = 0.28129 0.13772
# Poissons Ratio (y) = 0.36735 0.54746
# Poissons Ratio (z) = 0.14489 0.44104
#
# Static dielectric constant tensor:
#      x y z
#    x 3.384260 0.000000 0.000000 
#    y 0.000000 3.059190 0.000000 
#    z 0.000000 0.000000 3.505810 
# 
# 
# High freq. dielectric constant tensor:
#      x y z
#    x 1.694390 0.000000 0.000000 
#    y 0.000000 1.647150 0.000000 
#    z 0.000000 0.000000 1.685330 
# 
# From -- ./inp_files/51294.got.cif
#   From: 2010.03.12/outbox.cif.g09.slc.cpg/sg63_26_cif.got.tgz:51294.got - 2010.04.10 19:34:48.
