data_PCOD8256998
_publ_section_title
;
Structure prediction by ZEFSAII (Michael W. Deem and Ramdas Pophale) SiO2 
 PCOD8256998
Probable space group: C M C M
;
_chemical_formula_sum "Si O2"
_cell_formula_units_Z 96
_cell_length_a 9.082842
_cell_length_b 24.985474
_cell_length_c 24.809776
_cell_angle_alpha 90.000000
_cell_angle_beta 90.000000
_cell_angle_gamma 90.000000
_cell_volume 5630.308550
_symmetry_space_group_name_H-M "C M C M"
_symmetry_group_IT_number 63
_symmetry_cell_setting 'orthorhombic'
loop_
_space_group_symop_operation_xyz
x,y,z
-x,-y,1/2+z
x,-y,-z
-x,y,1/2-z
-x,-y,-z
x,y,1/2-z
-x,y,z
x,-y,1/2+z
1/2+x,1/2+y,z
1/2-x,1/2-y,1/2+z
1/2+x,1/2-y,-z
1/2-x,1/2+y,1/2-z
1/2-x,1/2-y,-z
1/2+x,1/2+y,1/2-z
1/2-x,1/2+y,z
1/2+x,1/2-y,1/2+z
loop_
_atom_site_type_symbol
_atom_site_label
_atom_site_fract_x
_atom_site_fract_y
_atom_site_fract_z
Si Si1 0.671404 0.847323 0.688435
Si Si2 0.166063 0.258032 0.185918
Si Si3 0.672982 0.942048 0.389775
Si Si4 0.833969 0.936488 0.496505
Si Si5 0.670674 0.934494 0.601997
Si Si6 0.169654 0.136680 0.813712
O O1 0.715940 0.860230 0.750000
O O2 0.500000 0.833194 0.684157
O O3 0.759690 0.796569 0.665115
O O4 0.713650 0.899020 0.653492
O O5 0.168755 0.258218 0.250000
O O6 0.257658 0.308648 0.164209
O O7 0.000000 0.261509 0.163590
O O8 0.500000 0.931075 0.389924
O O9 0.740842 0.917892 0.444727
O O10 0.746741 0.913564 0.339013
O O11 0.710660 0.004610 0.383614
O O12 0.761414 0.912975 0.550671
O O13 0.000000 0.914664 0.491255
O O14 0.830394 0.000000 0.500000
O O15 0.500000 0.929360 0.586861
O O16 0.187821 0.131658 0.750000
O O17 0.000000 0.136294 0.831297
#
# Coordination Sequence:
#
# PCOD8256998 Si02
#       6
#    16  16  16  16  16  16
#     4   9  17  30  48  70  97 128 159 192 233 280
#     4   9  17  30  48  69  92 121 160 200 234 274
#     4  10  19  31  49  72  98 127 160 198 237 280
#     4   9  17  30  48  68  92 124 162 200 236 278
#     4   9  18  31  48  71  98 128 161 196 235 280
#     4  10  20  33  49  70  97 128 160 195 237 284
#
# _framework density 17.050574000000001
#
# number of rings (size 3 to 8) (size 9 to 14) (size 15 to 20)
#    0.000    2.667    0.000    2.000    0.000    7.000 
#    0.000    1.667    0.000    3.000    0.000    0.000 
#    0.000    0.000    0.000    0.000    0.000    0.000 
#
# Total GULP energy -595244.986428 kJ/mol
# GULP energy per Si atom -12400.937217 kJ/mol
# Density = 1.701177 g / cm^3
# Si number density = 17.050574 Si / 1000 Ang^3
#
#
#
# Elastic Constant Matrix: (Units=GPa)
#
#
# Indices 1 2 3 4 5 6 
#
# 1 117.6376 57.4270 49.0879 0.0000 0.0000 0.0000
# 2 57.4270 89.5327 44.9728 0.0000 0.0000 0.0000
# 3 49.0879 44.9728 66.3632 0.0000 0.0000 0.0000
# 4 0.0000 0.0000 0.0000 5.3760 0.0000 0.0000
# 5 0.0000 0.0000 0.0000 0.0000 28.9308 0.0000
# 6 0.0000 0.0000 0.0000 0.0000 0.0000 28.1722
#
#
#
# Elastic Compliance Matrix: (Units=1/GPa)
#
#
# Indices 1 2 3 4 5 6 
#
# 1 0.013997 -0.005727 -0.006473 0.000000 0.000000 0.000000
# 2 -0.005727 0.019276 -0.008827 0.000000 0.000000 0.000000
# 3 -0.006473 -0.008827 0.025838 0.000000 0.000000 0.000000
# 4 0.000000 0.000000 0.000000 0.186010 0.000000 0.000000
# 5 0.000000 0.000000 0.000000 0.000000 0.034565 0.000000
# 6 0.000000 0.000000 0.000000 0.000000 0.000000 0.035496
#
#
# Mechanical properties :
#
#
# Convention : Reuss Voigt Hill
#
# Bulk Modulus (GPa) = 58.62098 64.05652 61.33875
# Shear Modulus (GPa) = 13.77706 20.63221 17.20463
#
# Velocity S-wave (km/s) = 2.84564 3.48236 3.17998
# Velocity P-wave (km/s) = 6.72697 7.33616 7.03816
#
# Compressibility (1/GPa) = 0.01705874
#
# Stress axis : x y z
#
# Youngs Moduli (GPa) = 71.44298 51.87772 38.70235
#
# Poissons Ratio (x) = 0.29708 0.25051
# Poissons Ratio (y) = 0.40913 0.34163
# Poissons Ratio (z) = 0.46243 0.45793
#
# Static dielectric constant tensor:
#      x y z
#    x 3.358380 0.000000 0.000000 
#    y 0.000000 3.085130 0.000000 
#    z 0.000000 0.000000 3.070450 
# 
# 
# High freq. dielectric constant tensor:
#      x y z
#    x 1.670970 0.000000 0.000000 
#    y 0.000000 1.639610 0.000000 
#    z 0.000000 0.000000 1.638500 
# 
# From -- ./inp_files/59898.got.cif
#   From: 2010.03.12/outbox.cif.g09.slc.cpg/sg63_30_cif.got.tgz:59898.got - 2010.04.10 19:34:48.
