data_PCOD8256917
_publ_section_title
;
Structure prediction by ZEFSAII (Michael W. Deem and Ramdas Pophale) SiO2 
 PCOD8256917
Probable space group: C M C M
;
_chemical_formula_sum "Si O2"
_cell_formula_units_Z 96
_cell_length_a 28.126872
_cell_length_b 20.761467
_cell_length_c 9.114558
_cell_angle_alpha 90.000000
_cell_angle_beta 90.000000
_cell_angle_gamma 90.000000
_cell_volume 5322.492855
_symmetry_space_group_name_H-M "C M C M"
_symmetry_group_IT_number 63
_symmetry_cell_setting 'orthorhombic'
loop_
_space_group_symop_operation_xyz
x,y,z
-x,-y,1/2+z
x,-y,-z
-x,y,1/2-z
-x,-y,-z
x,y,1/2-z
-x,y,z
x,-y,1/2+z
1/2+x,1/2+y,z
1/2-x,1/2-y,1/2+z
1/2+x,1/2-y,-z
1/2-x,1/2+y,1/2-z
1/2-x,1/2-y,-z
1/2+x,1/2+y,1/2-z
1/2-x,1/2+y,z
1/2+x,1/2-y,1/2+z
loop_
_atom_site_type_symbol
_atom_site_label
_atom_site_fract_x
_atom_site_fract_y
_atom_site_fract_z
Si Si1 0.943364 0.938022 0.415267
Si Si2 0.724532 0.191426 0.578557
Si Si3 0.886725 0.688116 0.580563
Si Si4 0.612255 0.938114 0.585275
Si Si5 0.725463 0.062775 0.083324
Si Si6 0.945051 0.188751 0.421145
O O1 0.923766 0.939187 0.250000
O O2 0.925228 0.873351 0.493684
O O3 0.000000 0.940072 0.418124
O O4 0.922610 0.000000 0.500000
O O5 0.737575 0.189862 0.750000
O O6 0.750000 0.250000 0.500000
O O7 0.668639 0.200282 0.553191
O O8 0.743009 0.125656 0.504189
O O9 0.897514 0.674309 0.750000
O O10 0.905946 0.626785 0.491738
O O11 0.915168 0.750194 0.523774
O O12 0.592317 0.939783 0.750000
O O13 0.668891 0.939970 0.583997
O O14 0.591737 0.000000 0.500000
O O15 0.745041 0.064571 0.250000
O O16 0.745902 0.000000 0.000000
O O17 0.937251 0.175506 0.250000
O O18 0.000000 0.201914 0.457809
#
# Coordination Sequence:
#
# PCOD8256917 Si02
#       6
#    16  16  16  16  16  16
#     4   9  16  26  42  65  91 118 150 188 226 264
#     4  10  19  31  47  68  94 123 154 188 227 270
#     4   9  18  31  47  68  94 122 151 186 227 270
#     4   9  16  26  43  66  91 118 150 189 228 267
#     4   9  16  27  44  67  92 118 150 188 229 270
#     4   9  17  30  48  69  93 121 151 184 225 271
#
# _framework density 18.036660999999999
#
# number of rings (size 3 to 8) (size 9 to 14) (size 15 to 20)
#    0.000    2.833    0.000    2.000    0.000    7.333 
#    0.000    0.000    0.000    1.500    0.000    4.667 
#    0.000    0.000    0.000    0.000    0.000    0.000 
#
# Total GULP energy -595204.383815 kJ/mol
# GULP energy per Si atom -12400.091329 kJ/mol
# Density = 1.799561 g / cm^3
# Si number density = 18.036661 Si / 1000 Ang^3
#
#
#
# Elastic Constant Matrix: (Units=GPa)
#
#
# Indices 1 2 3 4 5 6 
#
# 1 18.8429 37.3710 26.7923 0.0000 0.0000 0.0000
# 2 37.3710 212.7332 110.4433 0.0000 0.0000 0.0000
# 3 26.7923 110.4433 146.6382 0.0000 0.0000 0.0000
# 4 0.0000 0.0000 0.0000 44.0165 0.0000 0.0000
# 5 0.0000 0.0000 0.0000 0.0000 12.9591 0.0000
# 6 0.0000 0.0000 0.0000 0.0000 0.0000 26.3513
#
#
#
# Elastic Compliance Matrix: (Units=1/GPa)
#
#
# Indices 1 2 3 4 5 6 
#
# 1 0.085718 -0.011375 -0.007094 0.000000 0.000000 0.000000
# 2 -0.011375 0.009229 -0.004872 0.000000 0.000000 0.000000
# 3 -0.007094 -0.004872 0.011785 0.000000 0.000000 0.000000
# 4 0.000000 0.000000 0.000000 0.022719 0.000000 0.000000
# 5 0.000000 0.000000 0.000000 0.000000 0.077166 0.000000
# 6 0.000000 0.000000 0.000000 0.000000 0.000000 0.037949
#
#
# Mechanical properties :
#
#
# Convention : Reuss Voigt Hill
#
# Bulk Modulus (GPa) = 16.65319 80.82526 48.73923
# Shear Modulus (GPa) = 16.06352 30.23921 23.15137
#
# Velocity S-wave (km/s) = 2.98754 4.09900 3.58658
# Velocity P-wave (km/s) = 4.59929 8.20435 6.65075
#
# Compressibility (1/GPa) = 0.06004855
#
# Stress axis : x y z
#
# Youngs Moduli (GPa) = 11.66620 108.35990 84.85131
#
# Poissons Ratio (x) = 1.23260 0.60195
# Poissons Ratio (y) = 0.13270 0.41342
# Poissons Ratio (z) = 0.08276 0.52796
#
# Static dielectric constant tensor:
#      x y z
#    x 2.791790 0.000000 0.000000 
#    y 0.000000 3.581200 0.000000 
#    z 0.000000 0.000000 3.513270 
# 
# 
# High freq. dielectric constant tensor:
#      x y z
#    x 1.631380 0.000000 0.000000 
#    y 0.000000 1.717240 0.000000 
#    z 0.000000 0.000000 1.710590 
# 
# From -- ./inp_files/12327.got.cif
#   From: 2010.03.12/outbox.cif.g09.slc.cpg/sg63_7_cif.got.tgz:12327.got - 2010.04.10 19:34:48.
