data_PCOD8256841
_publ_section_title
;
Structure prediction by ZEFSAII (Michael W. Deem and Ramdas Pophale) SiO2 
 PCOD8256841
Probable space group: C M C M
;
_chemical_formula_sum "Si O2"
_cell_formula_units_Z 80
_cell_length_a 13.488625
_cell_length_b 19.185175
_cell_length_c 19.041788
_cell_angle_alpha 90.000000
_cell_angle_beta 90.000000
_cell_angle_gamma 90.000000
_cell_volume 4927.664958
_symmetry_space_group_name_H-M "C M C M"
_symmetry_group_IT_number 63
_symmetry_cell_setting 'orthorhombic'
loop_
_space_group_symop_operation_xyz
x,y,z
-x,-y,1/2+z
x,-y,-z
-x,y,1/2-z
-x,-y,-z
x,y,1/2-z
-x,y,z
x,-y,1/2+z
1/2+x,1/2+y,z
1/2-x,1/2-y,1/2+z
1/2+x,1/2-y,-z
1/2-x,1/2+y,1/2-z
1/2-x,1/2-y,-z
1/2+x,1/2+y,1/2-z
1/2-x,1/2+y,z
1/2+x,1/2-y,1/2+z
loop_
_atom_site_type_symbol
_atom_site_label
_atom_site_fract_x
_atom_site_fract_y
_atom_site_fract_z
Si Si1 0.729640 0.715141 0.668929
Si Si2 0.384833 0.295512 0.462458
Si Si3 0.388436 0.098784 0.669943
Si Si4 0.112743 0.527585 0.077956
Si Si5 0.729055 0.167019 0.431537
O O1 0.694288 0.717469 0.750000
O O2 0.642500 0.683932 0.618590
O O3 0.826170 0.668263 0.658220
O O4 0.757590 0.792839 0.641118
O O5 0.500000 0.306351 0.476357
O O6 0.351914 0.214391 0.474143
O O7 0.325063 0.343055 0.518503
O O8 0.385817 0.074728 0.750000
O O9 0.500000 0.115787 0.644625
O O10 0.344781 0.034054 0.626488
O O11 0.183323 0.593368 0.088796
O O12 0.000000 0.547682 0.099238
O O13 0.117253 0.500000 0.000000
#
# Coordination Sequence:
#
# PCOD8256841 Si02
#       5
#    16  16  16  16  16
#     4   9  18  32  49  73 100 131 168 203 245 298
#     4   9  18  32  49  70  96 129 167 207 247 290
#     4   9  18  32  50  74 104 133 160 199 253 306
#     4  10  19  30  49  74 100 129 162 202 251 301
#     4   9  19  32  48  75  98 133 166 207 251 293
#
# _framework density 16.234870000000001
#
# number of rings (size 3 to 8) (size 9 to 14) (size 15 to 20)
#    1.200    1.600    0.000    1.800    0.000    2.000 
#    0.000    0.000    0.000    5.400    0.000    0.000 
#    0.000    0.000    0.000    0.000    0.000    0.000 
#
# Total GULP energy -495653.886016 kJ/mol
# GULP energy per Si atom -12391.347150 kJ/mol
# Density = 1.619792 g / cm^3
# Si number density = 16.234870 Si / 1000 Ang^3
#
#
#
# Elastic Constant Matrix: (Units=GPa)
#
#
# Indices 1 2 3 4 5 6 
#
# 1 95.1548 41.3397 44.7356 0.0000 0.0000 0.0000
# 2 41.3397 97.1491 37.4995 0.0000 0.0000 0.0000
# 3 44.7356 37.4995 85.2315 0.0000 0.0000 0.0000
# 4 0.0000 0.0000 0.0000 24.2979 0.0000 0.0000
# 5 0.0000 0.0000 0.0000 0.0000 18.4512 0.0000
# 6 0.0000 0.0000 0.0000 0.0000 0.0000 25.3212
#
#
#
# Elastic Compliance Matrix: (Units=1/GPa)
#
#
# Indices 1 2 3 4 5 6 
#
# 1 0.015184 -0.004077 -0.006176 0.000000 0.000000 0.000000
# 2 -0.004077 0.013494 -0.003797 0.000000 0.000000 0.000000
# 3 -0.006176 -0.003797 0.016645 0.000000 0.000000 0.000000
# 4 0.000000 0.000000 0.000000 0.041156 0.000000 0.000000
# 5 0.000000 0.000000 0.000000 0.000000 0.054197 0.000000
# 6 0.000000 0.000000 0.000000 0.000000 0.000000 0.039493
#
#
# Mechanical properties :
#
#
# Convention : Reuss Voigt Hill
#
# Bulk Modulus (GPa) = 58.06257 58.29833 58.18045
# Shear Modulus (GPa) = 23.36345 23.87809 23.62077
#
# Velocity S-wave (km/s) = 3.79765 3.83925 3.81851
# Velocity P-wave (km/s) = 7.42100 7.45925 7.44015
#
# Compressibility (1/GPa) = 0.01722280
#
# Stress axis : x y z
#
# Youngs Moduli (GPa) = 65.85870 74.10639 60.07906
#
# Poissons Ratio (x) = 0.30216 0.37103
# Poissons Ratio (y) = 0.26853 0.22812
# Poissons Ratio (z) = 0.40672 0.28138
#
# Static dielectric constant tensor:
#      x y z
#    x 2.857280 0.000000 0.000000 
#    y 0.000000 2.842000 0.000000 
#    z 0.000000 0.000000 3.099600 
# 
# 
# High freq. dielectric constant tensor:
#      x y z
#    x 1.603570 0.000000 0.000000 
#    y 0.000000 1.603420 0.000000 
#    z 0.000000 0.000000 1.630460 
# 
# From -- ./inp_files/54324.got.cif
#   From: 2010.03.12/outbox.cif.g09.slc.cpg/sg63_28_cif.got.tgz:54324.got - 2010.04.10 19:34:48.
