data_PCOD8256913
_publ_section_title
;
Structure prediction by ZEFSAII (Michael W. Deem and Ramdas Pophale) SiO2 
 PCOD8256913
Probable space group: C M C M
;
_chemical_formula_sum "Si O2"
_cell_formula_units_Z 104
_cell_length_a 28.275615
_cell_length_b 24.178972
_cell_length_c 9.012013
_cell_angle_alpha 90.000000
_cell_angle_beta 90.000000
_cell_angle_gamma 90.000000
_cell_volume 6161.290722
_symmetry_space_group_name_H-M "C M C M"
_symmetry_group_IT_number 63
_symmetry_cell_setting 'orthorhombic'
loop_
_space_group_symop_operation_xyz
x,y,z
-x,-y,1/2+z
x,-y,-z
-x,y,1/2-z
-x,-y,-z
x,y,1/2-z
-x,y,z
x,-y,1/2+z
1/2+x,1/2+y,z
1/2-x,1/2-y,1/2+z
1/2+x,1/2-y,-z
1/2-x,1/2+y,1/2-z
1/2-x,1/2-y,-z
1/2+x,1/2+y,1/2-z
1/2-x,1/2+y,z
1/2+x,1/2-y,1/2+z
loop_
_atom_site_type_symbol
_atom_site_label
_atom_site_fract_x
_atom_site_fract_y
_atom_site_fract_z
Si Si1 0.778795 0.057202 0.920414
Si Si2 0.910849 0.368798 0.074777
Si Si3 0.176577 0.440855 0.423871
Si Si4 0.118746 0.059858 0.925162
Si Si5 0.500000 0.058730 0.923824
Si Si6 0.445253 0.237906 0.076005
Si Si7 0.555594 0.350651 0.578992
O O1 0.777962 0.041885 0.750000
O O2 0.728578 0.086530 0.961242
O O3 0.828784 0.087402 0.956727
O O4 0.779359 0.000000 0.000000
O O5 0.911994 0.357098 0.250000
O O6 0.862614 0.397748 0.020438
O O7 0.953993 0.407653 0.025195
O O8 0.913686 0.311117 0.989137
O O9 0.169394 0.500000 0.500000
O O10 0.169806 0.451074 0.250000
O O11 0.109081 0.054114 0.750000
O O12 0.079968 0.098699 0.996983
O O13 0.114727 0.000000 0.000000
O O14 0.500000 0.048444 0.750000
O O15 0.500000 0.000000 0.000000
O O16 0.436345 0.243809 0.250000
O O17 0.500000 0.225888 0.038851
O O18 0.428238 0.293995 0.998021
O O19 0.571128 0.348937 0.750000
O O20 0.500000 0.359632 0.561417
#
# Coordination Sequence:
#
# PCOD8256913 Si02
#       7
#    16  16  16  16   8  16  16
#     4   8  15  28  46  69  96 127 162 198 237 282
#     4  10  19  31  47  67  95 130 165 204 247 293
#     4   9  17  29  46  69  97 129 164 203 247 291
#     4  10  19  32  52  77 105 133 161 195 235 284
#     4  10  20  30  42  64  96 130 163 200 247 294
#     4  10  20  34  52  72  93 123 165 207 244 287
#     4  10  21  36  54  75 100 129 159 195 238 287
#
# _framework density 16.879580000000001
#
# number of rings (size 3 to 8) (size 9 to 14) (size 15 to 20)
#    0.000    2.462    0.769    1.846    0.000    3.692 
#    0.000    0.000    0.000    0.923    0.000    0.000 
#    0.000    0.000    0.000    0.000    0.000    0.000 
#
# Total GULP energy -644425.498735 kJ/mol
# GULP energy per Si atom -12392.798053 kJ/mol
# Density = 1.684116 g / cm^3
# Si number density = 16.879580 Si / 1000 Ang^3
#
#
#
# Elastic Constant Matrix: (Units=GPa)
#
#
# Indices 1 2 3 4 5 6 
#
# 1 89.7698 60.2033 43.0731 0.0000 0.0000 0.0000
# 2 60.2033 111.9755 51.5142 0.0000 0.0000 0.0000
# 3 43.0731 51.5142 72.1487 0.0000 0.0000 0.0000
# 4 0.0000 0.0000 0.0000 32.5789 0.0000 0.0000
# 5 0.0000 0.0000 0.0000 0.0000 17.4944 0.0000
# 6 0.0000 0.0000 0.0000 0.0000 0.0000 11.3434
#
#
#
# Elastic Compliance Matrix: (Units=1/GPa)
#
#
# Indices 1 2 3 4 5 6 
#
# 1 0.019040 -0.007457 -0.006043 0.000000 0.000000 0.000000
# 2 -0.007457 0.016219 -0.007129 0.000000 0.000000 0.000000
# 3 -0.006043 -0.007129 0.022558 0.000000 0.000000 0.000000
# 4 0.000000 0.000000 0.000000 0.030695 0.000000 0.000000
# 5 0.000000 0.000000 0.000000 0.000000 0.057161 0.000000
# 6 0.000000 0.000000 0.000000 0.000000 0.000000 0.088157
#
#
# Mechanical properties :
#
#
# Convention : Reuss Voigt Hill
#
# Bulk Modulus (GPa) = 60.38570 64.83059 62.60814
# Shear Modulus (GPa) = 17.81857 20.22358 19.02107
#
# Velocity S-wave (km/s) = 3.25257 3.46513 3.36053
# Velocity P-wave (km/s) = 7.06807 7.38245 7.22697
#
# Compressibility (1/GPa) = 0.01656021
#
# Stress axis : x y z
#
# Youngs Moduli (GPa) = 52.52151 61.65519 44.33060
#
# Poissons Ratio (x) = 0.45975 0.26788
# Poissons Ratio (y) = 0.39164 0.31602
# Poissons Ratio (z) = 0.31737 0.43953
#
# Static dielectric constant tensor:
#      x y z
#    x 3.730300 0.000000 0.000000 
#    y 0.000000 2.941480 0.000000 
#    z 0.000000 0.000000 3.221740 
# 
# 
# High freq. dielectric constant tensor:
#      x y z
#    x 1.657190 0.000000 0.000000 
#    y 0.000000 1.624950 0.000000 
#    z 0.000000 0.000000 1.659200 
# 
# From -- ./inp_files/14469.got.cif
#   From: 2010.03.12/outbox.cif.g09.slc.cpg/sg63_8_cif.got.tgz:14469.got - 2010.04.10 19:34:48.
