data_PCOD8256733
_publ_section_title
;
Structure prediction by ZEFSAII (Michael W. Deem and Ramdas Pophale) SiO2 
 PCOD8256733
Probable space group: C M C M
;
_chemical_formula_sum "Si O2"
_cell_formula_units_Z 104
_cell_length_a 24.152971
_cell_length_b 33.048614
_cell_length_c 8.730775
_cell_angle_alpha 90.000000
_cell_angle_beta 90.000000
_cell_angle_gamma 90.000000
_cell_volume 6969.098564
_symmetry_space_group_name_H-M "C M C M"
_symmetry_group_IT_number 63
_symmetry_cell_setting 'orthorhombic'
loop_
_space_group_symop_operation_xyz
x,y,z
-x,-y,1/2+z
x,-y,-z
-x,y,1/2-z
-x,-y,-z
x,y,1/2-z
-x,y,z
x,-y,1/2+z
1/2+x,1/2+y,z
1/2-x,1/2-y,1/2+z
1/2+x,1/2-y,-z
1/2-x,1/2+y,1/2-z
1/2-x,1/2-y,-z
1/2+x,1/2+y,1/2-z
1/2-x,1/2+y,z
1/2+x,1/2-y,1/2+z
loop_
_atom_site_type_symbol
_atom_site_label
_atom_site_fract_x
_atom_site_fract_y
_atom_site_fract_z
Si Si1 0.937843 0.159477 0.574502
Si Si2 0.939062 0.754921 0.925307
Si Si3 0.233302 0.188993 0.571055
Si Si4 0.000000 0.957031 0.073851
Si Si5 0.333321 0.769097 0.571511
Si Si6 0.879146 0.955562 0.430326
Si Si7 0.336219 0.379981 0.571558
O O1 0.917154 0.153955 0.750000
O O2 0.937658 0.206598 0.535809
O O3 0.897269 0.137102 0.459265
O O4 0.000000 0.141435 0.556652
O O5 0.927621 0.767945 0.750000
O O6 0.000000 0.734316 0.938752
O O7 0.891413 0.724399 0.982895
O O8 0.245574 0.187608 0.750000
O O9 0.290828 0.196865 0.484765
O O10 0.189714 0.224406 0.530724
O O11 0.209678 0.146326 0.515399
O O12 0.940869 0.936114 0.032994
O O13 0.000000 0.966652 0.250000
O O14 0.000000 0.000000 0.000000
O O15 0.343414 0.774798 0.750000
O O16 0.868069 0.957626 0.250000
O O17 0.834352 0.925927 0.508284
O O18 0.872403 0.000000 0.500000
O O19 0.322840 0.379397 0.750000
#
# Coordination Sequence:
#
# PCOD8256733 Si02
#       7
#    16  16  16   8  16  16  16
#     4  10  20  32  44  59  82 111 143 181 225 267
#     4  10  19  30  45  65  89 116 146 180 218 262
#     4  10  20  33  48  65  86 114 145 182 222 262
#     4   8  16  30  48  64  80 104 134 172 216 268
#     4  10  19  31  48  66  88 116 145 180 221 262
#     4  10  20  35  50  65  84 109 140 177 222 269
#     4  12  23  33  47  66  87 110 143 181 222 270
#
# _framework density 14.923021
#
# number of rings (size 3 to 8) (size 9 to 14) (size 15 to 20)
#    0.000    1.846    1.538    3.692    1.077    3.692 
#    0.000    0.000    0.000    0.000    0.000    0.000 
#    0.000    0.000    0.000    0.000    0.000    0.769 
#
# Total GULP energy -644631.923240 kJ/mol
# GULP energy per Si atom -12396.767755 kJ/mol
# Density = 1.488906 g / cm^3
# Si number density = 14.923021 Si / 1000 Ang^3
#
#
#
# Elastic Constant Matrix: (Units=GPa)
#
#
# Indices 1 2 3 4 5 6 
#
# 1 75.9627 29.8632 28.4622 0.0000 0.0000 0.0000
# 2 29.8632 56.3716 16.6262 0.0000 0.0000 0.0000
# 3 28.4622 16.6262 61.5239 0.0000 0.0000 0.0000
# 4 0.0000 0.0000 0.0000 21.9609 0.0000 0.0000
# 5 0.0000 0.0000 0.0000 0.0000 23.8898 0.0000
# 6 0.0000 0.0000 0.0000 0.0000 0.0000 22.5354
#
#
#
# Elastic Compliance Matrix: (Units=1/GPa)
#
#
# Indices 1 2 3 4 5 6 
#
# 1 0.018755 -0.008015 -0.006510 0.000000 0.000000 0.000000
# 2 -0.008015 0.022701 -0.002427 0.000000 0.000000 0.000000
# 3 -0.006510 -0.002427 0.019921 0.000000 0.000000 0.000000
# 4 0.000000 0.000000 0.000000 0.045536 0.000000 0.000000
# 5 0.000000 0.000000 0.000000 0.000000 0.041859 0.000000
# 6 0.000000 0.000000 0.000000 0.000000 0.000000 0.044375
#
#
# Mechanical properties :
#
#
# Convention : Reuss Voigt Hill
#
# Bulk Modulus (GPa) = 36.39957 38.19571 37.29764
# Shear Modulus (GPa) = 21.16772 21.60433 21.38603
#
# Velocity S-wave (km/s) = 3.77033 3.80902 3.78972
# Velocity P-wave (km/s) = 6.58774 6.70787 6.64808
#
# Compressibility (1/GPa) = 0.02747285
#
# Stress axis : x y z
#
# Youngs Moduli (GPa) = 53.31988 44.05025 50.19723
#
# Poissons Ratio (x) = 0.35308 0.32680
# Poissons Ratio (y) = 0.42738 0.12182
# Poissons Ratio (z) = 0.34713 0.10690
#
# Static dielectric constant tensor:
#      x y z
#    x 2.919160 0.000000 0.000000 
#    y 0.000000 2.645540 0.000000 
#    z 0.000000 0.000000 2.927720 
# 
# 
# High freq. dielectric constant tensor:
#      x y z
#    x 1.548810 0.000000 0.000000 
#    y 0.000000 1.531890 0.000000 
#    z 0.000000 0.000000 1.590980 
# 
# From -- ./inp_files/11116.got.cif
#   From: 2010.03.12/outbox.cif.g09.slc.cpg/sg63_6_cif.got.tgz:11116.got - 2010.04.10 19:34:48.
