data_PCOD8256644
_publ_section_title
;
Structure prediction by ZEFSAII (Michael W. Deem and Ramdas Pophale) SiO2 
 PCOD8256644
Probable space group: C M C M
;
_chemical_formula_sum "Si O2"
_cell_formula_units_Z 80
_cell_length_a 18.296088
_cell_length_b 27.681734
_cell_length_c 9.277525
_cell_angle_alpha 90.000000
_cell_angle_beta 90.000000
_cell_angle_gamma 90.000000
_cell_volume 4698.764348
_symmetry_space_group_name_H-M "C M C M"
_symmetry_group_IT_number 63
_symmetry_cell_setting 'orthorhombic'
loop_
_space_group_symop_operation_xyz
x,y,z
-x,-y,1/2+z
x,-y,-z
-x,y,1/2-z
-x,-y,-z
x,y,1/2-z
-x,y,z
x,-y,1/2+z
1/2+x,1/2+y,z
1/2-x,1/2-y,1/2+z
1/2+x,1/2-y,-z
1/2-x,1/2+y,1/2-z
1/2-x,1/2-y,-z
1/2+x,1/2+y,1/2-z
1/2-x,1/2+y,z
1/2+x,1/2-y,1/2+z
loop_
_atom_site_type_symbol
_atom_site_label
_atom_site_fract_x
_atom_site_fract_y
_atom_site_fract_z
Si Si1 0.288412 0.352095 0.579836
Si Si2 0.579335 0.909112 0.579662
Si Si3 0.728638 0.047585 0.078615
Si Si4 0.860051 0.692965 0.419587
Si Si5 0.417027 0.713992 0.419302
O O1 0.282129 0.354810 0.750000
O O2 0.277956 0.407106 0.524688
O O3 0.223068 0.316888 0.527285
O O4 0.365795 0.330403 0.528066
O O5 0.579101 0.912664 0.750000
O O6 0.500000 0.925522 0.516681
O O7 0.645220 0.942905 0.524068
O O8 0.592349 0.853545 0.536769
O O9 0.733030 0.040543 0.250000
O O10 0.758753 0.000000 0.000000
O O11 0.863801 0.703741 0.250000
O O12 0.893416 0.737709 0.502415
O O13 0.407409 0.722655 0.250000
O O14 0.500000 0.700293 0.459518
#
# Coordination Sequence:
#
# PCOD8256644 Si02
#       5
#    16  16  16  16  16
#     4   8  16  31  47  63  86 117 148 174 209 261
#     4   8  14  25  41  61  86 115 142 166 200 251
#     4   9  17  30  47  63  80 106 141 179 215 253
#     4   9  16  28  47  66  86 117 152 178 201 242
#     4  10  19  29  43  65  92 118 143 175 215 256
#
# _framework density 17.025753999999999
#
# number of rings (size 3 to 8) (size 9 to 14) (size 15 to 20)
#    0.000    3.200    0.000    3.600    0.000    1.600 
#    0.000    5.000    0.000    1.800    0.000    0.000 
#    0.000    0.000    0.000    0.000    0.000    0.000 
#
# Total GULP energy -495665.210158 kJ/mol
# GULP energy per Si atom -12391.630254 kJ/mol
# Density = 1.698700 g / cm^3
# Si number density = 17.025754 Si / 1000 Ang^3
#
#
#
# Elastic Constant Matrix: (Units=GPa)
#
#
# Indices 1 2 3 4 5 6 
#
# 1 92.0315 37.6501 19.3131 0.0000 0.0000 0.0000
# 2 37.6501 90.2922 25.1124 0.0000 0.0000 0.0000
# 3 19.3131 25.1124 21.3821 0.0000 0.0000 0.0000
# 4 0.0000 0.0000 0.0000 27.6179 0.0000 0.0000
# 5 0.0000 0.0000 0.0000 0.0000 13.9786 0.0000
# 6 0.0000 0.0000 0.0000 0.0000 0.0000 13.6411
#
#
#
# Elastic Compliance Matrix: (Units=1/GPa)
#
#
# Indices 1 2 3 4 5 6 
#
# 1 0.014104 -0.003472 -0.008661 0.000000 0.000000 0.000000
# 2 -0.003472 0.017303 -0.017185 0.000000 0.000000 0.000000
# 3 -0.008661 -0.017185 0.074774 0.000000 0.000000 0.000000
# 4 0.000000 0.000000 0.000000 0.036208 0.000000 0.000000
# 5 0.000000 0.000000 0.000000 0.000000 0.071538 0.000000
# 6 0.000000 0.000000 0.000000 0.000000 0.000000 0.073308
#
#
# Mechanical properties :
#
#
# Convention : Reuss Voigt Hill
#
# Bulk Modulus (GPa) = 21.03319 40.87300 30.95309
# Shear Modulus (GPa) = 13.82289 19.15622 16.48955
#
# Velocity S-wave (km/s) = 2.85244 3.35794 3.11546
# Velocity P-wave (km/s) = 4.81966 6.25244 5.58221
#
# Compressibility (1/GPa) = 0.04754390
#
# Stress axis : x y z
#
# Youngs Moduli (GPa) = 70.90246 57.79508 13.37363
#
# Poissons Ratio (x) = 0.20067 0.11583
# Poissons Ratio (y) = 0.24618 0.22982
# Poissons Ratio (z) = 0.61410 0.99320
#
# Static dielectric constant tensor:
#      x y z
#    x 3.651420 0.000000 0.000000 
#    y 0.000000 3.200120 0.000000 
#    z 0.000000 0.000000 2.711870 
# 
# 
# High freq. dielectric constant tensor:
#      x y z
#    x 1.653860 0.000000 0.000000 
#    y 0.000000 1.652220 0.000000 
#    z 0.000000 0.000000 1.614070 
# 
# From -- ./inp_files/6367.got.cif
#   From: 2010.03.12/outbox.cif.g09.slc.cpg/sg63_4_cif.got.tgz:6367.got - 2010.04.10 19:34:48.
