data_PCOD8256575
_publ_section_title
;
Structure prediction by ZEFSAII (Michael W. Deem and Ramdas Pophale) SiO2 
 PCOD8256575
Probable space group: C M C M
;
_chemical_formula_sum "Si O2"
_cell_formula_units_Z 68
_cell_length_a 10.542664
_cell_length_b 18.526731
_cell_length_c 17.956284
_cell_angle_alpha 90.000000
_cell_angle_beta 90.000000
_cell_angle_gamma 90.000000
_cell_volume 3507.241142
_symmetry_space_group_name_H-M "C M C M"
_symmetry_group_IT_number 63
_symmetry_cell_setting 'orthorhombic'
loop_
_space_group_symop_operation_xyz
x,y,z
-x,-y,1/2+z
x,-y,-z
-x,y,1/2-z
-x,-y,-z
x,y,1/2-z
-x,y,z
x,-y,1/2+z
1/2+x,1/2+y,z
1/2-x,1/2-y,1/2+z
1/2+x,1/2-y,-z
1/2-x,1/2+y,1/2-z
1/2-x,1/2-y,-z
1/2+x,1/2+y,1/2-z
1/2-x,1/2+y,z
1/2+x,1/2-y,1/2+z
loop_
_atom_site_type_symbol
_atom_site_label
_atom_site_fract_x
_atom_site_fract_y
_atom_site_fract_z
Si Si1 0.000000 0.188919 0.875280
Si Si2 0.774301 0.891302 0.879997
Si Si3 0.500000 0.849767 0.899635
Si Si4 0.351957 0.707965 0.250000
Si Si5 0.696839 0.661316 0.750000
Si Si6 0.744849 0.493348 0.750000
Si Si7 0.500000 0.084346 0.250000
Si Si8 0.500000 0.585121 0.011611
O O1 0.876525 0.182268 0.824562
O O2 0.000000 0.265057 0.920903
O O3 0.000000 0.123377 0.932489
O O4 0.634143 0.889933 0.921190
O O5 0.786237 0.823260 0.824488
O O6 0.808860 0.960506 0.827593
O O7 0.875117 0.888710 0.945550
O O8 0.500000 0.855288 0.811765
O O9 0.500000 0.690014 0.250000
O O10 0.327998 0.793867 0.250000
O O11 0.725099 0.577430 0.750000
O O12 0.889894 0.472748 0.750000
O O13 0.500000 0.500000 0.000000
#
# Coordination Sequence:
#
# PCOD8256575 Si02
#       8
#     8  16   8   8   8   8   4   8
#     4  11  23  36  62  82 118 156 196 247 303 352
#     4  10  21  39  63  85 120 160 205 242 300 359
#     4  10  18  38  59  84 108 155 202 244 291 358
#     4  11  20  36  63  91 120 152 198 254 290 355
#     4  11  21  37  57  90 118 149 199 249 301 347
#     4   9  19  32  58  85 116 156 198 242 299 355
#     4   8  16  32  56  80 108 150 192 242 294 354
#     4  12  25  41  59  87 127 159 199 250 301 359
#
# _framework density 19.388458
#
# number of rings (size 3 to 8) (size 9 to 14) (size 15 to 20)
#    0.000    1.647    3.529    2.824    0.824    1.882 
#    0.000    0.588    0.000    0.000    0.000    0.000 
#    0.000    0.000    0.000    0.000    0.000    0.000 
#
# Total GULP energy -421195.631369 kJ/mol
# GULP energy per Si atom -12388.106805 kJ/mol
# Density = 1.934433 g / cm^3
# Si number density = 19.388458 Si / 1000 Ang^3
#
#
#
# Elastic Constant Matrix: (Units=GPa)
#
#
# Indices 1 2 3 4 5 6 
#
# 1 113.6743 17.0706 33.3081 0.0000 0.0000 0.0000
# 2 17.0706 128.3231 15.4883 0.0000 0.0000 0.0000
# 3 33.3081 15.4883 72.8302 0.0000 0.0000 0.0000
# 4 0.0000 0.0000 0.0000 12.8299 0.0000 0.0000
# 5 0.0000 0.0000 0.0000 0.0000 -20.3143 0.0000
# 6 0.0000 0.0000 0.0000 0.0000 0.0000 12.4362
#
#
#
# Elastic Compliance Matrix: (Units=1/GPa)
#
#
# Indices 1 2 3 4 5 6 
#
# 1 0.010241 -0.000818 -0.004510 0.000000 0.000000 0.000000
# 2 -0.000818 0.008063 -0.001341 0.000000 0.000000 0.000000
# 3 -0.004510 -0.001341 0.016078 0.000000 0.000000 0.000000
# 4 0.000000 0.000000 0.000000 0.077943 0.000000 0.000000
# 5 0.000000 0.000000 0.000000 0.000000 -0.049227 0.000000
# 6 0.000000 0.000000 0.000000 0.000000 0.000000 0.080410
#
#
# Mechanical properties :
#
#
# Convention : Reuss Voigt Hill
#
# Bulk Modulus (GPa) = 47.51511 49.61796 48.56653
# Shear Modulus (GPa) = 30.51344 17.58773 24.05059
#
# Velocity S-wave (km/s) = 3.97141 3.01512 3.52584
# Velocity P-wave (km/s) = 6.75201 6.14559 6.45592
#
# Compressibility (1/GPa) = 0.02104594
#
# Stress axis : x y z
#
# Youngs Moduli (GPa) = 97.64336 124.01607 62.19602
#
# Poissons Ratio (x) = 0.10145 0.28049
# Poissons Ratio (y) = 0.07988 0.08338
# Poissons Ratio (z) = 0.44035 0.16626
#
# Static dielectric constant tensor:
#      x y z
#    x 5.276200 0.000000 0.000000 
#    y 0.000000 3.513340 0.000000 
#    z 0.000000 0.000000 3.394650 
# 
# 
# High freq. dielectric constant tensor:
#      x y z
#    x 1.768630 0.000000 0.000000 
#    y 0.000000 1.751940 0.000000 
#    z 0.000000 0.000000 1.728720 
# 
# From -- ./inp_files/41973.got.cif
#   From: 2010.03.12/outbox.cif.g09.slc.cpg/sg63_21_cif.got.tgz:41973.got - 2010.04.10 19:34:48.
