data_PCOD8256833
_publ_section_title
;
Structure prediction by ZEFSAII (Michael W. Deem and Ramdas Pophale) SiO2 
 PCOD8256833
Probable space group: C M C M
;
_chemical_formula_sum "Si O2"
_cell_formula_units_Z 56
_cell_length_a 17.995487
_cell_length_b 19.363169
_cell_length_c 10.134006
_cell_angle_alpha 90.000000
_cell_angle_beta 90.000000
_cell_angle_gamma 90.000000
_cell_volume 3531.190905
_symmetry_space_group_name_H-M "C M C M"
_symmetry_group_IT_number 63
_symmetry_cell_setting 'orthorhombic'
loop_
_space_group_symop_operation_xyz
x,y,z
-x,-y,1/2+z
x,-y,-z
-x,y,1/2-z
-x,-y,-z
x,y,1/2-z
-x,y,z
x,-y,1/2+z
1/2+x,1/2+y,z
1/2-x,1/2-y,1/2+z
1/2+x,1/2-y,-z
1/2-x,1/2+y,1/2-z
1/2-x,1/2-y,-z
1/2+x,1/2+y,1/2-z
1/2-x,1/2+y,z
1/2+x,1/2-y,1/2+z
loop_
_atom_site_type_symbol
_atom_site_label
_atom_site_fract_x
_atom_site_fract_y
_atom_site_fract_z
Si Si1 0.784243 0.799066 0.392989
Si Si2 0.197247 0.576835 0.980160
Si Si3 0.125124 0.606157 0.250000
Si Si4 0.415427 0.048457 0.750000
Si Si5 0.082260 0.241881 0.750000
O O1 0.748609 0.779902 0.250000
O O2 0.750000 0.750000 0.500000
O O3 0.765362 0.878670 0.423445
O O4 0.873460 0.786347 0.380254
O O5 0.126601 0.575446 0.880727
O O6 0.228584 0.500000 0.000000
O O7 0.175334 0.609940 0.119475
O O8 0.078839 0.535041 0.250000
O O9 0.075023 0.674734 0.250000
O O10 0.500000 0.077058 0.750000
O O11 0.000000 0.210279 0.750000
#
# Coordination Sequence:
#
# PCOD8256833 Si02
#       5
#    16  16   8   8   8
#     4  10  19  35  54  75 103 135 173 212 252 300
#     4  10  19  33  50  74 100 136 176 212 249 303
#     4  10  19  30  48  74 104 136 173 196 252 304
#     4  10  20  31  45  70 111 141 166 204 250 305
#     4  10  20  31  53  76 102 131 169 212 257 303
#
# _framework density 15.858672
#
# number of rings (size 3 to 8) (size 9 to 14) (size 15 to 20)
#    0.857    1.143    4.286    0.429    0.000    6.286 
#    0.000    0.000    0.000    0.857    0.000    0.000 
#    0.000    0.000    0.000    0.000    0.000    0.000 
#
# Total GULP energy -346888.569078 kJ/mol
# GULP energy per Si atom -12388.877467 kJ/mol
# Density = 1.582258 g / cm^3
# Si number density = 15.858672 Si / 1000 Ang^3
#
#
#
# Elastic Constant Matrix: (Units=GPa)
#
#
# Indices 1 2 3 4 5 6 
#
# 1 116.1759 57.7624 45.3320 0.0000 0.0000 0.0000
# 2 57.7624 87.8030 35.8956 0.0000 0.0000 0.0000
# 3 45.3320 35.8956 117.7685 0.0000 0.0000 0.0000
# 4 0.0000 0.0000 0.0000 19.8740 0.0000 0.0000
# 5 0.0000 0.0000 0.0000 0.0000 18.1122 0.0000
# 6 0.0000 0.0000 0.0000 0.0000 0.0000 14.4556
#
#
#
# Elastic Compliance Matrix: (Units=1/GPa)
#
#
# Indices 1 2 3 4 5 6 
#
# 1 0.013587 -0.007768 -0.002862 0.000000 0.000000 0.000000
# 2 -0.007768 0.017452 -0.002329 0.000000 0.000000 0.000000
# 3 -0.002862 -0.002329 0.010303 0.000000 0.000000 0.000000
# 4 0.000000 0.000000 0.000000 0.050317 0.000000 0.000000
# 5 0.000000 0.000000 0.000000 0.000000 0.055211 0.000000
# 6 0.000000 0.000000 0.000000 0.000000 0.000000 0.069177
#
#
# Mechanical properties :
#
#
# Convention : Reuss Voigt Hill
#
# Bulk Modulus (GPa) = 64.84026 66.63638 65.73832
# Shear Modulus (GPa) = 20.23419 22.67220 21.45319
#
# Velocity S-wave (km/s) = 3.57586 3.78516 3.68200
# Velocity P-wave (km/s) = 7.61735 7.82390 7.72132
#
# Compressibility (1/GPa) = 0.01542252
#
# Stress axis : x y z
#
# Youngs Moduli (GPa) = 73.60113 57.30111 97.06048
#
# Poissons Ratio (x) = 0.44512 0.27780
# Poissons Ratio (y) = 0.57174 0.22606
# Poissons Ratio (z) = 0.21066 0.13346
#
# Static dielectric constant tensor:
#      x y z
#    x 2.708530 0.000000 0.000000 
#    y 0.000000 3.175680 0.000000 
#    z 0.000000 0.000000 3.179800 
# 
# 
# High freq. dielectric constant tensor:
#      x y z
#    x 1.569170 0.000000 0.000000 
#    y 0.000000 1.608990 0.000000 
#    z 0.000000 0.000000 1.622190 
# 
# From -- ./inp_files/7738.got.cif
#   From: 2010.03.12/outbox.cif.g09.slc.cpg/sg63_4_cif.got.tgz:7738.got - 2010.04.10 19:34:48.
