data_PCOD8256438
_publ_section_title
;
Structure prediction by ZEFSAII (Michael W. Deem and Ramdas Pophale) SiO2 
 PCOD8256438
Probable space group: C M C M
;
_chemical_formula_sum "Si O2"
_cell_formula_units_Z 128
_cell_length_a 15.756244
_cell_length_b 18.562190
_cell_length_c 22.726480
_cell_angle_alpha 90.000000
_cell_angle_beta 90.000000
_cell_angle_gamma 90.000000
_cell_volume 6646.822578
_symmetry_space_group_name_H-M "C M C M"
_symmetry_group_IT_number 63
_symmetry_cell_setting 'orthorhombic'
loop_
_space_group_symop_operation_xyz
x,y,z
-x,-y,1/2+z
x,-y,-z
-x,y,1/2-z
-x,-y,-z
x,y,1/2-z
-x,y,z
x,-y,1/2+z
1/2+x,1/2+y,z
1/2-x,1/2-y,1/2+z
1/2+x,1/2-y,-z
1/2-x,1/2+y,1/2-z
1/2-x,1/2-y,-z
1/2+x,1/2+y,1/2-z
1/2-x,1/2+y,z
1/2+x,1/2-y,1/2+z
loop_
_atom_site_type_symbol
_atom_site_label
_atom_site_fract_x
_atom_site_fract_y
_atom_site_fract_z
Si Si1 0.765836 0.489832 0.814626
Si Si2 0.248062 0.665378 0.502304
Si Si3 0.091168 0.079552 0.336821
Si Si4 0.595729 0.265239 0.319545
Si Si5 0.175114 0.640323 0.381839
Si Si6 0.674886 0.716272 0.183396
Si Si7 0.742040 0.148444 0.863845
Si Si8 0.405007 0.425465 0.526384
O O1 0.807040 0.486264 0.750000
O O2 0.669153 0.461650 0.807222
O O3 0.824255 0.441379 0.857588
O O4 0.766724 0.571060 0.835740
O O5 0.250000 0.750000 0.500000
O O6 0.180126 0.637120 0.453346
O O7 0.222873 0.639396 0.567167
O O8 0.343523 0.639006 0.490805
O O9 0.091875 0.166372 0.323428
O O10 0.095725 0.062958 0.404860
O O11 0.000000 0.051963 0.312221
O O12 0.615447 0.254602 0.250000
O O13 0.500000 0.295626 0.328003
O O14 0.599017 0.188201 0.354397
O O15 0.664188 0.319711 0.348491
O O16 0.259788 0.679177 0.360604
O O17 0.709029 0.714668 0.250000
O O18 0.668048 0.799455 0.162838
O O19 0.370023 0.500000 0.500000
O O20 0.500000 0.407956 0.502936
#
# Coordination Sequence:
#
# PCOD8256438 Si02
#       8
#    16  16  16  16  16  16  16  16
#     4  11  21  34  54  80 110 143 179 222 274 327
#     4  12  20  35  55  78 111 145 191 229 266 324
#     4  10  19  33  51  76 106 140 182 217 258 317
#     4  10  20  36  57  81 112 147 184 232 286 338
#     4  10  19  35  54  77 105 143 189 224 264 322
#     4  10  18  33  52  71 101 137 176 221 263 307
#     4  11  22  34  54  81 113 140 180 224 278 330
#     4  10  20  34  52  77 114 150 177 215 271 328
#
# _framework density 19.257321000000001
#
# number of rings (size 3 to 8) (size 9 to 14) (size 15 to 20)
#    0.000    1.500    5.000    4.875    0.000    2.000 
#    0.000    0.000    0.000    0.750    0.000    0.875 
#    0.000    0.000    0.000    0.000    0.000    0.000 
#
# Total GULP energy -792961.914069 kJ/mol
# GULP energy per Si atom -12390.029907 kJ/mol
# Density = 1.921349 g / cm^3
# Si number density = 19.257321 Si / 1000 Ang^3
#
#
#
# Elastic Constant Matrix: (Units=GPa)
#
#
# Indices 1 2 3 4 5 6 
#
# 1 22.3591 17.5325 19.2123 0.0000 0.0000 0.0000
# 2 17.5325 133.1062 40.6402 0.0000 0.0000 0.0000
# 3 19.2123 40.6402 142.0364 0.0000 0.0000 0.0000
# 4 0.0000 0.0000 0.0000 60.2794 0.0000 0.0000
# 5 0.0000 0.0000 0.0000 0.0000 26.5264 0.0000
# 6 0.0000 0.0000 0.0000 0.0000 0.0000 18.9288
#
#
#
# Elastic Compliance Matrix: (Units=1/GPa)
#
#
# Indices 1 2 3 4 5 6 
#
# 1 0.053856 -0.005336 -0.005758 0.000000 0.000000 0.000000
# 2 -0.005336 0.008761 -0.001785 0.000000 0.000000 0.000000
# 3 -0.005758 -0.001785 0.008330 0.000000 0.000000 0.000000
# 4 0.000000 0.000000 0.000000 0.016589 0.000000 0.000000
# 5 0.000000 0.000000 0.000000 0.000000 0.037698 0.000000
# 6 0.000000 0.000000 0.000000 0.000000 0.000000 0.052830
#
#
# Mechanical properties :
#
#
# Convention : Reuss Voigt Hill
#
# Bulk Modulus (GPa) = 22.12909 50.25241 36.19075
# Shear Modulus (GPa) = 22.84307 35.82137 29.33222
#
# Velocity S-wave (km/s) = 3.44786 4.31762 3.90702
# Velocity P-wave (km/s) = 5.23131 7.14196 6.25996
#
# Compressibility (1/GPa) = 0.04518939
#
# Stress axis : x y z
#
# Youngs Moduli (GPa) = 18.56794 114.14766 120.04800
#
# Poissons Ratio (x) = 0.60907 0.69124
# Poissons Ratio (y) = 0.09907 0.21427
# Poissons Ratio (z) = 0.10692 0.20374
#
# Static dielectric constant tensor:
#      x y z
#    x 3.564850 0.000000 0.000000 
#    y 0.000000 3.858000 0.000000 
#    z 0.000000 0.000000 3.943520 
# 
# 
# High freq. dielectric constant tensor:
#      x y z
#    x 1.701830 0.000000 0.000000 
#    y 0.000000 1.745710 0.000000 
#    z 0.000000 0.000000 1.771400 
# 
# From -- ./inp_files/64090.got.cif
#   From: 2010.03.12/outbox.cif.g09.slc.cpg/sg63_33_cif.got.tgz:64090.got - 2010.04.10 19:34:48.
