data_PCOD8256189
_publ_section_title
;
Structure prediction by ZEFSAII (Michael W. Deem and Ramdas Pophale) SiO2 
 PCOD8256189
Probable space group: C M C M
;
_chemical_formula_sum "Si O2"
_cell_formula_units_Z 80
_cell_length_a 8.595734
_cell_length_b 25.861509
_cell_length_c 19.412326
_cell_angle_alpha 90.000000
_cell_angle_beta 90.000000
_cell_angle_gamma 90.000000
_cell_volume 4315.333906
_symmetry_space_group_name_H-M "C M C M"
_symmetry_group_IT_number 63
_symmetry_cell_setting 'orthorhombic'
loop_
_space_group_symop_operation_xyz
x,y,z
-x,-y,1/2+z
x,-y,-z
-x,y,1/2-z
-x,-y,-z
x,y,1/2-z
-x,y,z
x,-y,1/2+z
1/2+x,1/2+y,z
1/2-x,1/2-y,1/2+z
1/2+x,1/2-y,-z
1/2-x,1/2+y,1/2-z
1/2-x,1/2-y,-z
1/2+x,1/2+y,1/2-z
1/2-x,1/2+y,z
1/2+x,1/2-y,1/2+z
loop_
_atom_site_type_symbol
_atom_site_label
_atom_site_fract_x
_atom_site_fract_y
_atom_site_fract_z
Si Si1 0.684478 0.856406 0.925483
Si Si2 0.684263 0.749128 0.423438
Si Si3 0.184681 0.554386 0.173765
Si Si4 0.181222 0.146647 0.576456
Si Si5 0.821356 0.438396 0.169360
O O1 0.500000 0.853021 0.922884
O O2 0.754065 0.804264 0.890289
O O3 0.749828 0.904448 0.881041
O O4 0.736756 0.864492 0.003792
O O5 0.500000 0.750446 0.422043
O O6 0.750000 0.750000 0.500000
O O7 0.750770 0.801038 0.387593
O O8 0.251294 0.567126 0.250000
O O9 0.234057 0.496582 0.151455
O O10 0.000000 0.556649 0.176789
O O11 0.210225 0.099569 0.627678
O O12 0.000000 0.153949 0.562723
O O13 0.801461 0.427473 0.250000
O O14 0.000000 0.429617 0.146860
#
# Coordination Sequence:
#
# PCOD8256189 Si02
#       5
#    16  16  16  16  16
#     4  10  18  31  53  78 103 131 166 207 251 299
#     4  10  18  31  50  72 100 132 167 206 252 299
#     4   8  16  32  54  77 100 130 167 205 247 297
#     4  11  21  33  50  74 104 134 168 207 248 297
#     4   9  18  35  56  75  98 130 168 208 250 296
#
# _framework density 18.538542
#
# number of rings (size 3 to 8) (size 9 to 14) (size 15 to 20)
#    0.000    2.400    0.000    7.800    0.000    1.200 
#    0.000    7.000    0.000    8.400    0.000    0.000 
#    0.000    0.000    0.000    0.000    0.000    0.000 
#
# Total GULP energy -495843.650904 kJ/mol
# GULP energy per Si atom -12396.091273 kJ/mol
# Density = 1.849635 g / cm^3
# Si number density = 18.538542 Si / 1000 Ang^3
#
#
#
# Elastic Constant Matrix: (Units=GPa)
#
#
# Indices 1 2 3 4 5 6 
#
# 1 87.0707 42.5421 18.2599 0.0000 0.0000 0.0000
# 2 42.5421 171.6339 64.4220 0.0000 0.0000 0.0000
# 3 18.2599 64.4220 55.4261 0.0000 0.0000 0.0000
# 4 0.0000 0.0000 0.0000 8.8634 0.0000 0.0000
# 5 0.0000 0.0000 0.0000 0.0000 13.2957 0.0000
# 6 0.0000 0.0000 0.0000 0.0000 0.0000 30.4126
#
#
#
# Elastic Compliance Matrix: (Units=1/GPa)
#
#
# Indices 1 2 3 4 5 6 
#
# 1 0.013096 -0.002886 -0.000961 0.000000 0.000000 0.000000
# 2 -0.002886 0.010971 -0.011801 0.000000 0.000000 0.000000
# 3 -0.000961 -0.011801 0.032075 0.000000 0.000000 0.000000
# 4 0.000000 0.000000 0.000000 0.112824 0.000000 0.000000
# 5 0.000000 0.000000 0.000000 0.000000 0.075213 0.000000
# 6 0.000000 0.000000 0.000000 0.000000 0.000000 0.032881
#
#
# Mechanical properties :
#
#
# Convention : Reuss Voigt Hill
#
# Bulk Modulus (GPa) = 40.24505 62.73099 51.48802
# Shear Modulus (GPa) = 15.79097 23.10810 19.44953
#
# Velocity S-wave (km/s) = 2.92171 3.53440 3.24256
# Velocity P-wave (km/s) = 5.75655 7.11109 6.46937
#
# Compressibility (1/GPa) = 0.02484778
#
# Stress axis : x y z
#
# Youngs Moduli (GPa) = 76.35791 91.14880 31.17689
#
# Poissons Ratio (x) = 0.26301 0.02995
# Poissons Ratio (y) = 0.22033 0.36792
# Poissons Ratio (z) = 0.07335 1.07566
#
# Static dielectric constant tensor:
#      x y z
#    x 3.228130 0.000000 0.000000 
#    y 0.000000 4.185080 0.000000 
#    z 0.000000 0.000000 3.241310 
# 
# 
# High freq. dielectric constant tensor:
#      x y z
#    x 1.709330 0.000000 0.000000 
#    y 0.000000 1.741200 0.000000 
#    z 0.000000 0.000000 1.685330 
# 
# From -- ./inp_files/40453.got.cif
#   From: 2010.03.12/outbox.cif.g09.slc.cpg/sg63_21_cif.got.tgz:40453.got - 2010.04.10 19:34:48.
