data_PCOD8256291
_publ_section_title
;
Structure prediction by ZEFSAII (Michael W. Deem and Ramdas Pophale) SiO2 
 PCOD8256291
Probable space group: C M C M
;
_chemical_formula_sum "Si O2"
_cell_formula_units_Z 112
_cell_length_a 24.428562
_cell_length_b 14.047606
_cell_length_c 17.723457
_cell_angle_alpha 90.000000
_cell_angle_beta 90.000000
_cell_angle_gamma 90.000000
_cell_volume 6082.031380
_symmetry_space_group_name_H-M "C M C M"
_symmetry_group_IT_number 63
_symmetry_cell_setting 'orthorhombic'
loop_
_space_group_symop_operation_xyz
x,y,z
-x,-y,1/2+z
x,-y,-z
-x,y,1/2-z
-x,-y,-z
x,y,1/2-z
-x,y,z
x,-y,1/2+z
1/2+x,1/2+y,z
1/2-x,1/2-y,1/2+z
1/2+x,1/2-y,-z
1/2-x,1/2+y,1/2-z
1/2-x,1/2-y,-z
1/2+x,1/2+y,1/2-z
1/2-x,1/2+y,z
1/2+x,1/2-y,1/2+z
loop_
_atom_site_type_symbol
_atom_site_label
_atom_site_fract_x
_atom_site_fract_y
_atom_site_fract_z
Si Si1 0.118372 0.993811 0.088881
Si Si2 0.000000 0.971427 0.412721
Si Si3 0.606488 0.143488 0.164450
Si Si4 0.716796 0.604668 0.160340
Si Si5 0.788789 0.319611 0.164421
Si Si6 0.664529 0.328219 0.333060
Si Si7 0.000000 0.236099 0.660251
Si Si8 0.321055 0.998404 0.911471
O O1 0.056513 0.018523 0.117397
O O2 0.128207 0.882707 0.106118
O O3 0.160373 0.055863 0.136336
O O4 0.126904 0.000000 0.000000
O O5 0.000000 0.858583 0.391638
O O6 0.000000 0.000000 0.500000
O O7 0.599817 0.106667 0.250000
O O8 0.658086 0.215114 0.156573
O O9 0.552118 0.198918 0.138406
O O10 0.622238 0.053673 0.112277
O O11 0.724692 0.600306 0.250000
O O12 0.710219 0.713048 0.131263
O O13 0.768670 0.554223 0.123327
O O14 0.810464 0.319992 0.250000
O O15 0.727191 0.359018 0.159658
O O16 0.825570 0.392144 0.116222
O O17 0.642278 0.356211 0.250000
O O18 0.000000 0.209841 0.750000
O O19 0.314727 0.000000 0.000000
#
# Coordination Sequence:
#
# PCOD8256291 Si02
#       8
#    16   8  16  16  16  16   8  16
#     4  11  22  35  53  81 119 151 184 225 284 348
#     4  10  22  38  54  86 122 152 182 229 304 346
#     4  10  20  37  59  85 113 142 188 248 291 329
#     4  11  22  37  56  80 112 154 193 232 280 333
#     4  10  21  36  55  80 114 154 191 228 278 335
#     4  10  18  31  56  83 107 145 190 233 278 329
#     4  10  20  36  65  92 108 145 205 252 287 331
#     4  12  24  36  55  86 119 151 189 228 290 351
#
# _framework density 18.414899999999999
#
# number of rings (size 3 to 8) (size 9 to 14) (size 15 to 20)
#    0.000    1.429    4.286    2.143    0.000    2.286 
#    0.000    0.357    0.000    0.857    0.000    1.000 
#    0.000    0.000    0.000    0.000    0.000    0.000 
#
# Total GULP energy -694068.476705 kJ/mol
# GULP energy per Si atom -12394.079941 kJ/mol
# Density = 1.837299 g / cm^3
# Si number density = 18.414900 Si / 1000 Ang^3
#
#
#
# Elastic Constant Matrix: (Units=GPa)
#
#
# Indices 1 2 3 4 5 6 
#
# 1 83.2075 34.5885 32.3812 0.0000 0.0000 0.0000
# 2 34.5885 97.8580 47.9353 0.0000 0.0000 0.0000
# 3 32.3812 47.9353 85.6299 0.0000 0.0000 0.0000
# 4 0.0000 0.0000 0.0000 13.2925 0.0000 0.0000
# 5 0.0000 0.0000 0.0000 0.0000 22.6058 0.0000
# 6 0.0000 0.0000 0.0000 0.0000 0.0000 27.9571
#
#
#
# Elastic Compliance Matrix: (Units=1/GPa)
#
#
# Indices 1 2 3 4 5 6 
#
# 1 0.014893 -0.003452 -0.003699 0.000000 0.000000 0.000000
# 2 -0.003452 0.014880 -0.007024 0.000000 0.000000 0.000000
# 3 -0.003699 -0.007024 0.017009 0.000000 0.000000 0.000000
# 4 0.000000 0.000000 0.000000 0.075230 0.000000 0.000000
# 5 0.000000 0.000000 0.000000 0.000000 0.044237 0.000000
# 6 0.000000 0.000000 0.000000 0.000000 0.000000 0.035769
#
#
# Mechanical properties :
#
#
# Convention : Reuss Voigt Hill
#
# Bulk Modulus (GPa) = 54.25729 55.16726 54.71227
# Shear Modulus (GPa) = 21.14055 22.89044 22.01549
#
# Velocity S-wave (km/s) = 3.39191 3.52950 3.46139
# Velocity P-wave (km/s) = 6.69835 6.82882 6.76390
#
# Compressibility (1/GPa) = 0.01843070
#
# Stress axis : x y z
#
# Youngs Moduli (GPa) = 67.14702 67.20527 58.79136
#
# Poissons Ratio (x) = 0.23198 0.21749
# Poissons Ratio (y) = 0.23178 0.41297
# Poissons Ratio (z) = 0.24840 0.47207
#
# Static dielectric constant tensor:
#      x y z
#    x 3.504970 0.000000 0.000000 
#    y 0.000000 3.504950 0.000000 
#    z 0.000000 0.000000 3.148960 
# 
# 
# High freq. dielectric constant tensor:
#      x y z
#    x 1.706510 0.000000 0.000000 
#    y 0.000000 1.713730 0.000000 
#    z 0.000000 0.000000 1.701930 
# 
# From -- ./inp_files/37999.got.cif
#   From: 2010.03.12/outbox.cif.g09.slc.cpg/sg63_19_cif.got.tgz:37999.got - 2010.04.10 19:34:48.
