data_PCOD8256370
_publ_section_title
;
Structure prediction by ZEFSAII (Michael W. Deem and Ramdas Pophale) SiO2 
 PCOD8256370
Probable space group: C M C M
;
_chemical_formula_sum "Si O2"
_cell_formula_units_Z 96
_cell_length_a 9.239753
_cell_length_b 20.634071
_cell_length_c 28.198371
_cell_angle_alpha 90.000000
_cell_angle_beta 90.000000
_cell_angle_gamma 90.000000
_cell_volume 5376.124313
_symmetry_space_group_name_H-M "C M C M"
_symmetry_group_IT_number 63
_symmetry_cell_setting 'orthorhombic'
loop_
_space_group_symop_operation_xyz
x,y,z
-x,-y,1/2+z
x,-y,-z
-x,y,1/2-z
-x,-y,-z
x,y,1/2-z
-x,y,z
x,-y,1/2+z
1/2+x,1/2+y,z
1/2-x,1/2-y,1/2+z
1/2+x,1/2-y,-z
1/2-x,1/2+y,1/2-z
1/2-x,1/2-y,-z
1/2+x,1/2+y,1/2-z
1/2-x,1/2+y,z
1/2+x,1/2-y,1/2+z
loop_
_atom_site_type_symbol
_atom_site_label
_atom_site_fract_x
_atom_site_fract_y
_atom_site_fract_z
Si Si1 0.828014 0.118453 0.847409
Si Si2 0.671160 0.125069 0.137466
Si Si3 0.671330 0.579559 0.050195
Si Si4 0.329160 0.566976 0.945946
Si Si5 0.827833 0.747706 0.303415
Si Si6 0.665356 0.000632 0.695438
O O1 0.774062 0.110163 0.901892
O O2 0.770495 0.187197 0.828698
O O3 0.763861 0.062399 0.814721
O O4 0.000000 0.113545 0.843858
O O5 0.500000 0.128901 0.130586
O O6 0.746662 0.127264 0.086095
O O7 0.729404 0.186303 0.167176
O O8 0.719219 0.060340 0.164880
O O9 0.500000 0.586804 0.057572
O O10 0.727202 0.506449 0.060122
O O11 0.719373 0.597847 0.996279
O O12 0.500000 0.562412 0.946597
O O13 0.765654 0.744542 0.250000
O O14 0.000000 0.747422 0.301952
O O15 0.681337 0.980506 0.750000
O O16 0.500000 0.018055 0.682942
#
# Coordination Sequence:
#
# PCOD8256370 Si02
#       6
#    16  16  16  16  16  16
#     4  10  18  32  54  76  94 121 167 211 239 276
#     4  10  19  32  49  71  98 129 163 197 237 288
#     4   9  16  30  50  72  99 129 160 195 244 295
#     4   8  15  28  49  74  99 126 156 197 248 294
#     4   9  18  32  50  71  97 130 164 199 242 289
#     4  10  20  32  47  69  98 128 157 196 247 294
#
# _framework density 17.856729999999999
#
# number of rings (size 3 to 8) (size 9 to 14) (size 15 to 20)
#    0.000    2.667    1.667    2.000    0.000    3.000 
#    0.000    4.167    0.000    2.500    0.000    0.000 
#    0.000    0.000    0.000    0.000    0.000    0.000 
#
# Total GULP energy -595080.649688 kJ/mol
# GULP energy per Si atom -12397.513535 kJ/mol
# Density = 1.781609 g / cm^3
# Si number density = 17.856730 Si / 1000 Ang^3
#
#
#
# Elastic Constant Matrix: (Units=GPa)
#
#
# Indices 1 2 3 4 5 6 
#
# 1 21.2739 19.7017 21.6203 0.0000 0.0000 0.0000
# 2 19.7017 105.4435 53.4499 0.0000 0.0000 0.0000
# 3 21.6203 53.4499 140.1351 0.0000 0.0000 0.0000
# 4 0.0000 0.0000 0.0000 35.9080 0.0000 0.0000
# 5 0.0000 0.0000 0.0000 0.0000 26.9907 0.0000
# 6 0.0000 0.0000 0.0000 0.0000 0.0000 16.7930
#
#
#
# Elastic Compliance Matrix: (Units=1/GPa)
#
#
# Indices 1 2 3 4 5 6 
#
# 1 0.060992 -0.008214 -0.006277 0.000000 0.000000 0.000000
# 2 -0.008214 0.012863 -0.003639 0.000000 0.000000 0.000000
# 3 -0.006277 -0.003639 0.009492 0.000000 0.000000 0.000000
# 4 0.000000 0.000000 0.000000 0.027849 0.000000 0.000000
# 5 0.000000 0.000000 0.000000 0.000000 0.037050 0.000000
# 6 0.000000 0.000000 0.000000 0.000000 0.000000 0.059549
#
#
# Mechanical properties :
#
#
# Convention : Reuss Voigt Hill
#
# Bulk Modulus (GPa) = 21.23707 50.71069 35.97388
# Shear Modulus (GPa) = 19.24916 27.41037 23.32977
#
# Velocity S-wave (km/s) = 3.28682 3.92218 3.61847
# Velocity P-wave (km/s) = 5.13060 6.99797 6.13574
#
# Compressibility (1/GPa) = 0.04708748
#
# Stress axis : x y z
#
# Youngs Moduli (GPa) = 16.39548 77.74140 105.34848
#
# Poissons Ratio (x) = 0.63860 0.66126
# Poissons Ratio (y) = 0.13468 0.38335
# Poissons Ratio (z) = 0.10291 0.28289
#
# Static dielectric constant tensor:
#      x y z
#    x 2.885570 0.000000 0.000000 
#    y 0.000000 3.269520 0.000000 
#    z 0.000000 0.000000 3.683650 
# 
# 
# High freq. dielectric constant tensor:
#      x y z
#    x 1.648470 0.000000 0.000000 
#    y 0.000000 1.675520 0.000000 
#    z 0.000000 0.000000 1.710880 
# 
# From -- ./inp_files/61495.got.cif
#   From: 2010.03.12/outbox.cif.g09.slc.cpg/sg63_31_cif.got.tgz:61495.got - 2010.04.10 19:34:48.
