data_PCOD8256124
_publ_section_title
;
Structure prediction by ZEFSAII (Michael W. Deem and Ramdas Pophale) SiO2 
 PCOD8256124
Probable space group: C M C M
;
_chemical_formula_sum "Si O2"
_cell_formula_units_Z 80
_cell_length_a 25.525324
_cell_length_b 19.286172
_cell_length_c 8.679834
_cell_angle_alpha 90.000000
_cell_angle_beta 90.000000
_cell_angle_gamma 90.000000
_cell_volume 4272.958929
_symmetry_space_group_name_H-M "C M C M"
_symmetry_group_IT_number 63
_symmetry_cell_setting 'orthorhombic'
loop_
_space_group_symop_operation_xyz
x,y,z
-x,-y,1/2+z
x,-y,-z
-x,y,1/2-z
-x,-y,-z
x,y,1/2-z
-x,y,z
x,-y,1/2+z
1/2+x,1/2+y,z
1/2-x,1/2-y,1/2+z
1/2+x,1/2-y,-z
1/2-x,1/2+y,1/2-z
1/2-x,1/2-y,-z
1/2+x,1/2+y,1/2-z
1/2-x,1/2+y,z
1/2+x,1/2-y,1/2+z
loop_
_atom_site_type_symbol
_atom_site_label
_atom_site_fract_x
_atom_site_fract_y
_atom_site_fract_z
Si Si1 0.694731 0.573703 0.568586
Si Si2 0.392189 0.332430 0.571881
Si Si3 0.386786 0.168725 0.576790
Si Si4 0.500000 0.329296 0.428985
Si Si5 0.500000 0.813993 0.425326
Si Si6 0.805463 0.427393 0.929664
O O1 0.677285 0.500000 0.500000
O O2 0.698397 0.566691 0.750000
O O3 0.653476 0.631960 0.524024
O O4 0.751190 0.596892 0.505028
O O5 0.387103 0.352666 0.750000
O O6 0.386346 0.250543 0.545063
O O7 0.447952 0.360203 0.509046
O O8 0.367490 0.152375 0.750000
O O9 0.446847 0.141252 0.553456
O O10 0.349268 0.130690 0.457350
O O11 0.500000 0.348966 0.250000
O O12 0.500000 0.246656 0.449492
O O13 0.500000 0.781520 0.250000
O O14 0.796272 0.437166 0.750000
O O15 0.824945 0.500000 0.000000
#
# Coordination Sequence:
#
# PCOD8256124 Si02
#       6
#    16  16  16   8   8  16
#     4  11  22  38  58  79 106 140 178 219 266 319
#     4  10  20  36  57  81 110 143 178 218 264 313
#     4   9  18  34  56  81 108 139 177 220 264 311
#     4  10  18  30  51  80 111 142 177 216 261 312
#     4   8  16  32  53  76 107 144 176 214 265 316
#     4  11  22  37  56  77 105 141 179 219 267 320
#
# _framework density 18.722390000000001
#
# number of rings (size 3 to 8) (size 9 to 14) (size 15 to 20)
#    0.000    2.000    0.000    7.500    0.000    4.800 
#    0.000    1.000    0.000    0.000    0.000    0.000 
#    0.000    0.000    0.000    0.000    0.000    0.000 
#
# Total GULP energy -495996.176846 kJ/mol
# GULP energy per Si atom -12399.904421 kJ/mol
# Density = 1.867978 g / cm^3
# Si number density = 18.722390 Si / 1000 Ang^3
#
#
#
# Elastic Constant Matrix: (Units=GPa)
#
#
# Indices 1 2 3 4 5 6 
#
# 1 135.8411 54.7781 55.5839 0.0000 0.0000 0.0000
# 2 54.7781 50.4773 34.3790 0.0000 0.0000 0.0000
# 3 55.5839 34.3790 145.5619 0.0000 0.0000 0.0000
# 4 0.0000 0.0000 0.0000 27.1203 0.0000 0.0000
# 5 0.0000 0.0000 0.0000 0.0000 34.1380 0.0000
# 6 0.0000 0.0000 0.0000 0.0000 0.0000 -3.7749
#
#
#
# Elastic Compliance Matrix: (Units=1/GPa)
#
#
# Indices 1 2 3 4 5 6 
#
# 1 0.013576 -0.013349 -0.002031 0.000000 0.000000 0.000000
# 2 -0.013349 0.036734 -0.003579 0.000000 0.000000 0.000000
# 3 -0.002031 -0.003579 0.008491 0.000000 0.000000 0.000000
# 4 0.000000 0.000000 0.000000 0.036873 0.000000 0.000000
# 5 0.000000 0.000000 0.000000 0.000000 0.029293 0.000000
# 6 0.000000 0.000000 0.000000 0.000000 0.000000 -0.264906
#
#
# Mechanical properties :
#
#
# Convention : Reuss Voigt Hill
#
# Bulk Modulus (GPa) = 47.88487 69.04028 58.46258
# Shear Modulus (GPa) = -52.59774 23.97262 -14.31256
#
# Velocity S-wave (km/s) = -5.30608 3.58218 -2.76789
# Velocity P-wave (km/s) = 3.45073 7.35291 4.59117
#
# Compressibility (1/GPa) = 0.02088342
#
# Stress axis : x y z
#
# Youngs Moduli (GPa) = 73.66135 27.22239 117.77513
#
# Poissons Ratio (x) = 0.36339 0.23922
# Poissons Ratio (y) = 0.98330 0.42147
# Poissons Ratio (z) = 0.14962 0.09742
#
# Static dielectric constant tensor:
#      x y z
#    x 3.667990 0.000000 0.000000 
#    y 0.000000 3.076160 0.000000 
#    z 0.000000 0.000000 3.466420 
# 
# 
# High freq. dielectric constant tensor:
#      x y z
#    x 1.743380 0.000000 0.000000 
#    y 0.000000 1.690670 0.000000 
#    z 0.000000 0.000000 1.738630 
# 
# From -- ./inp_files/12119.got.cif
#   From: 2010.03.12/outbox.cif.g09.slc.cpg/sg63_7_cif.got.tgz:12119.got - 2010.04.10 19:34:48.
