data_PCOD8256152
_publ_section_title
;
Structure prediction by ZEFSAII (Michael W. Deem and Ramdas Pophale) SiO2 
 PCOD8256152
Probable space group: C M C M
;
_chemical_formula_sum "Si O2"
_cell_formula_units_Z 112
_cell_length_a 20.727253
_cell_length_b 17.296967
_cell_length_c 18.698384
_cell_angle_alpha 90.000000
_cell_angle_beta 90.000000
_cell_angle_gamma 90.000000
_cell_volume 6703.718662
_symmetry_space_group_name_H-M "C M C M"
_symmetry_group_IT_number 63
_symmetry_cell_setting 'orthorhombic'
loop_
_space_group_symop_operation_xyz
x,y,z
-x,-y,1/2+z
x,-y,-z
-x,y,1/2-z
-x,-y,-z
x,y,1/2-z
-x,y,z
x,-y,1/2+z
1/2+x,1/2+y,z
1/2-x,1/2-y,1/2+z
1/2+x,1/2-y,-z
1/2-x,1/2+y,1/2-z
1/2-x,1/2-y,-z
1/2+x,1/2+y,1/2-z
1/2-x,1/2+y,z
1/2+x,1/2-y,1/2+z
loop_
_atom_site_type_symbol
_atom_site_label
_atom_site_fract_x
_atom_site_fract_y
_atom_site_fract_z
Si Si1 0.150046 0.502519 0.667509
Si Si2 0.664146 0.749753 0.919346
Si Si3 0.189654 0.887794 0.329746
Si Si4 0.688320 0.698910 0.427906
Si Si5 0.425454 0.144297 0.331186
Si Si6 0.223455 0.026986 0.418511
Si Si7 0.163529 0.667758 0.671030
O O1 0.175682 0.507969 0.750000
O O2 0.088225 0.447250 0.662184
O O3 0.206863 0.466607 0.619024
O O4 0.127991 0.589312 0.642498
O O5 0.648897 0.681015 0.864199
O O6 0.736538 0.781297 0.922411
O O7 0.615612 0.815878 0.893790
O O8 0.651832 0.717272 0.998319
O O9 0.164484 0.904064 0.250000
O O10 0.262530 0.858355 0.331267
O O11 0.180275 0.964633 0.376661
O O12 0.684037 0.607458 0.412641
O O13 0.650013 0.754367 0.373108
O O14 0.406486 0.171433 0.250000
O O15 0.500000 0.160143 0.346211
O O16 0.233684 0.000000 0.500000
O O17 0.140095 0.689172 0.750000
#
# Coordination Sequence:
#
# PCOD8256152 Si02
#       7
#    16  16  16  16  16  16  16
#     4   9  18  31  45  63  93 130 163 202 247 287
#     4  10  18  31  44  68  97 126 161 201 251 297
#     4   9  17  28  42  62  92 125 156 193 241 297
#     4  10  19  28  46  70  95 131 161 196 253 308
#     4  10  20  33  51  72  95 131 176 212 243 287
#     4  11  18  28  43  68  96 126 161 195 243 307
#     4   8  16  28  43  64  91 123 161 198 239 298
#
# _framework density 16.707145000000001
#
# number of rings (size 3 to 8) (size 9 to 14) (size 15 to 20)
#    0.000    2.429    2.857    1.714    2.000    1.714 
#    0.000    0.000    0.000    3.857    0.000    2.000 
#    0.000    0.000    0.000    7.286    0.000    0.000 
#
# Total GULP energy -693781.024924 kJ/mol
# GULP energy per Si atom -12388.946874 kJ/mol
# Density = 1.666912 g / cm^3
# Si number density = 16.707145 Si / 1000 Ang^3
#
#
#
# Elastic Constant Matrix: (Units=GPa)
#
#
# Indices 1 2 3 4 5 6 
#
# 1 32.7182 19.5831 23.0457 0.0000 0.0000 0.0000
# 2 19.5831 118.7150 55.0630 0.0000 0.0000 0.0000
# 3 23.0457 55.0630 108.7698 0.0000 0.0000 0.0000
# 4 0.0000 0.0000 0.0000 31.4121 0.0000 0.0000
# 5 0.0000 0.0000 0.0000 0.0000 13.7736 0.0000
# 6 0.0000 0.0000 0.0000 0.0000 0.0000 11.2134
#
#
#
# Elastic Compliance Matrix: (Units=1/GPa)
#
#
# Indices 1 2 3 4 5 6 
#
# 1 0.036839 -0.003210 -0.006180 0.000000 0.000000 0.000000
# 2 -0.003210 0.011288 -0.005034 0.000000 0.000000 0.000000
# 3 -0.006180 -0.005034 0.013052 0.000000 0.000000 0.000000
# 4 0.000000 0.000000 0.000000 0.031835 0.000000 0.000000
# 5 0.000000 0.000000 0.000000 0.000000 0.072603 0.000000
# 6 0.000000 0.000000 0.000000 0.000000 0.000000 0.089179
#
#
# Mechanical properties :
#
#
# Convention : Reuss Voigt Hill
#
# Bulk Modulus (GPa) = 30.93189 50.62071 40.77630
# Shear Modulus (GPa) = 16.98252 22.11389 19.54821
#
# Velocity S-wave (km/s) = 3.19169 3.64210 3.42431
# Velocity P-wave (km/s) = 5.66894 6.93190 6.33198
#
# Compressibility (1/GPa) = 0.03232909
#
# Stress axis : x y z
#
# Youngs Moduli (GPa) = 27.14542 88.58873 76.61888
#
# Poissons Ratio (x) = 0.28441 0.47350
# Poissons Ratio (y) = 0.08715 0.38572
# Poissons Ratio (z) = 0.16776 0.44597
#
# Static dielectric constant tensor:
#      x y z
#    x 2.489180 0.000000 0.000000 
#    y 0.000000 3.453970 0.000000 
#    z 0.000000 0.000000 3.350650 
# 
# 
# High freq. dielectric constant tensor:
#      x y z
#    x 1.561670 0.000000 0.000000 
#    y 0.000000 1.661490 0.000000 
#    z 0.000000 0.000000 1.654500 
# 
# From -- ./inp_files/47320.got.cif
#   From: 2010.03.12/outbox.cif.g09.slc.cpg/sg63_24_cif.got.tgz:47320.got - 2010.04.10 19:34:48.
