data_PCOD8256145
_publ_section_title
;
Structure prediction by ZEFSAII (Michael W. Deem and Ramdas Pophale) SiO2 
 PCOD8256145
Probable space group: C M C M
;
_chemical_formula_sum "Si O2"
_cell_formula_units_Z 128
_cell_length_a 20.225255
_cell_length_b 20.897004
_cell_length_c 18.270135
_cell_angle_alpha 90.000000
_cell_angle_beta 90.000000
_cell_angle_gamma 90.000000
_cell_volume 7721.822034
_symmetry_space_group_name_H-M "C M C M"
_symmetry_group_IT_number 63
_symmetry_cell_setting 'orthorhombic'
loop_
_space_group_symop_operation_xyz
x,y,z
-x,-y,1/2+z
x,-y,-z
-x,y,1/2-z
-x,-y,-z
x,y,1/2-z
-x,y,z
x,-y,1/2+z
1/2+x,1/2+y,z
1/2-x,1/2-y,1/2+z
1/2+x,1/2-y,-z
1/2-x,1/2+y,1/2-z
1/2-x,1/2-y,-z
1/2+x,1/2+y,1/2-z
1/2-x,1/2+y,z
1/2+x,1/2-y,1/2+z
loop_
_atom_site_type_symbol
_atom_site_label
_atom_site_fract_x
_atom_site_fract_y
_atom_site_fract_z
Si Si1 0.360473 0.721028 0.831169
Si Si2 0.851001 0.882428 0.928767
Si Si3 0.186098 0.920348 0.168576
Si Si4 0.425722 0.517656 0.165998
Si Si5 0.693309 0.796218 0.463826
Si Si6 0.742693 0.935303 0.027427
Si Si7 0.725288 0.280161 0.665176
Si Si8 0.076131 0.776106 0.020383
O O1 0.392608 0.724949 0.750000
O O2 0.320692 0.655222 0.841253
O O3 0.305551 0.777195 0.841179
O O4 0.418028 0.723108 0.891283
O O5 0.900875 0.922517 0.880182
O O6 0.801847 0.843177 0.875363
O O7 0.894356 0.839138 0.982942
O O8 0.809284 0.930007 0.979514
O O9 0.210752 0.938053 0.250000
O O10 0.240866 0.945891 0.112681
O O11 0.116009 0.953637 0.151997
O O12 0.422244 0.539305 0.250000
O O13 0.500000 0.500764 0.141876
O O14 0.750000 0.750000 0.500000
O O15 0.701937 0.870384 0.482937
O O16 0.695044 0.781944 0.376705
O O17 0.619986 0.782953 0.493002
O O18 0.704890 0.000000 0.000000
O O19 0.702826 0.278798 0.750000
O O20 0.000000 0.766662 0.998343
#
# Coordination Sequence:
#
# PCOD8256145 Si02
#       8
#    16  16  16  16  16  16  16  16
#     4  10  18  31  49  72  99 129 165 211 261 308
#     4  11  19  33  48  73 100 130 174 213 254 303
#     4  10  19  32  47  68  97 132 172 209 249 305
#     4  10  21  34  44  60  97 141 169 200 248 301
#     4  11  18  36  55  74 105 134 171 220 262 306
#     4  12  20  32  54  78 102 135 171 215 269 305
#     4  10  18  30  55  78  97 132 173 215 268 310
#     4  11  21  33  52  75 100 137 175 213 260 312
#
# _framework density 16.576398999999999
#
# number of rings (size 3 to 8) (size 9 to 14) (size 15 to 20)
#    0.000    1.375    7.500    0.750    0.000    0.750 
#    0.000    1.875    0.000    3.750    0.000    0.000 
#    0.000    0.000    0.000    1.375    0.000    0.000 
#
# Total GULP energy -793247.425226 kJ/mol
# GULP energy per Si atom -12394.491019 kJ/mol
# Density = 1.653867 g / cm^3
# Si number density = 16.576399 Si / 1000 Ang^3
#
#
#
# Elastic Constant Matrix: (Units=GPa)
#
#
# Indices 1 2 3 4 5 6 
#
# 1 56.9466 23.8476 29.4567 0.0000 0.0000 0.0000
# 2 23.8476 83.0188 30.7817 0.0000 0.0000 0.0000
# 3 29.4567 30.7817 99.9298 0.0000 0.0000 0.0000
# 4 0.0000 0.0000 0.0000 23.3159 0.0000 0.0000
# 5 0.0000 0.0000 0.0000 0.0000 20.6926 0.0000
# 6 0.0000 0.0000 0.0000 0.0000 0.0000 18.6583
#
#
#
# Elastic Compliance Matrix: (Units=1/GPa)
#
#
# Indices 1 2 3 4 5 6 
#
# 1 0.022077 -0.004435 -0.005142 0.000000 0.000000 0.000000
# 2 -0.004435 0.014490 -0.003156 0.000000 0.000000 0.000000
# 3 -0.005142 -0.003156 0.012495 0.000000 0.000000 0.000000
# 4 0.000000 0.000000 0.000000 0.042889 0.000000 0.000000
# 5 0.000000 0.000000 0.000000 0.000000 0.048326 0.000000
# 6 0.000000 0.000000 0.000000 0.000000 0.000000 0.053595
#
#
# Mechanical properties :
#
#
# Convention : Reuss Voigt Hill
#
# Bulk Modulus (GPa) = 42.37999 45.34081 43.86040
# Shear Modulus (GPa) = 22.00666 22.92064 22.46365
#
# Velocity S-wave (km/s) = 3.64756 3.72254 3.68524
# Velocity P-wave (km/s) = 6.58495 6.77410 6.68019
#
# Compressibility (1/GPa) = 0.02359604
#
# Stress axis : x y z
#
# Youngs Moduli (GPa) = 45.29534 69.01451 80.03375
#
# Poissons Ratio (x) = 0.30611 0.41150
# Poissons Ratio (y) = 0.20090 0.25258
# Poissons Ratio (z) = 0.23289 0.21780
#
# Static dielectric constant tensor:
#      x y z
#    x 2.837990 0.000000 0.000000 
#    y 0.000000 3.068810 0.000000 
#    z 0.000000 0.000000 3.483320 
# 
# 
# High freq. dielectric constant tensor:
#      x y z
#    x 1.595550 0.000000 0.000000 
#    y 0.000000 1.626380 0.000000 
#    z 0.000000 0.000000 1.662820 
# 
# From -- ./inp_files/47535.got.cif
#   From: 2010.03.12/outbox.cif.g09.slc.cpg/sg63_24_cif.got.tgz:47535.got - 2010.04.10 19:34:48.
