data_PCOD8256067
_publ_section_title
;
Structure prediction by ZEFSAII (Michael W. Deem and Ramdas Pophale) SiO2 
 PCOD8256067
Probable space group: C M C M
;
_chemical_formula_sum "Si O2"
_cell_formula_units_Z 112
_cell_length_a 14.162002
_cell_length_b 26.552613
_cell_length_c 15.638229
_cell_angle_alpha 90.000000
_cell_angle_beta 90.000000
_cell_angle_gamma 90.000000
_cell_volume 5880.570834
_symmetry_space_group_name_H-M "C M C M"
_symmetry_group_IT_number 63
_symmetry_cell_setting 'orthorhombic'
loop_
_space_group_symop_operation_xyz
x,y,z
-x,-y,1/2+z
x,-y,-z
-x,y,1/2-z
-x,-y,-z
x,y,1/2-z
-x,y,z
x,-y,1/2+z
1/2+x,1/2+y,z
1/2-x,1/2-y,1/2+z
1/2+x,1/2-y,-z
1/2-x,1/2+y,1/2-z
1/2-x,1/2-y,-z
1/2+x,1/2+y,1/2-z
1/2-x,1/2+y,z
1/2+x,1/2-y,1/2+z
loop_
_atom_site_type_symbol
_atom_site_label
_atom_site_fract_x
_atom_site_fract_y
_atom_site_fract_z
Si Si1 0.786229 0.952204 0.942934
Si Si2 0.893781 0.655572 0.653647
Si Si3 0.795691 0.206427 0.652961
Si Si4 0.892848 0.398182 0.978840
Si Si5 0.103371 0.021037 0.653550
Si Si6 0.389303 0.381649 0.448164
Si Si7 0.891887 0.690750 0.152682
O O1 0.673686 0.944390 0.949936
O O2 0.823690 0.973460 0.852505
O O3 0.838046 0.898974 0.963848
O O4 0.820730 0.000000 0.000000
O O5 0.885173 0.631502 0.750000
O O6 0.817884 0.700505 0.644498
O O7 0.873277 0.614866 0.578849
O O8 0.000000 0.677462 0.640382
O O9 0.828965 0.194193 0.750000
O O10 0.847976 0.170153 0.586873
O O11 0.822747 0.263308 0.629571
O O12 0.869377 0.351947 0.916253
O O13 0.000000 0.416314 0.966097
O O14 0.091391 0.035414 0.750000
O O15 0.000000 0.006627 0.614480
O O16 0.140699 0.073307 0.614439
O O17 0.500000 0.374974 0.462507
O O18 0.873319 0.671340 0.250000
O O19 0.000000 0.709072 0.143739
#
# Coordination Sequence:
#
# PCOD8256067 Si02
#       7
#    16  16  16  16  16  16  16
#     4  10  20  34  50  74 100 132 172 219 261 304
#     4   9  18  33  52  74 101 134 172 214 258 306
#     4  10  18  30  52  79 103 131 166 207 254 305
#     4  10  20  36  55  74 100 139 179 214 261 310
#     4   9  18  32  51  74 102 136 169 205 255 315
#     4  10  18  30  49  76 105 131 160 205 261 314
#     4   9  19  34  52  77 107 135 166 207 254 308
#
# _framework density 19.045770999999998
#
# number of rings (size 3 to 8) (size 9 to 14) (size 15 to 20)
#    0.000    2.429    1.429    1.286    0.000    4.571 
#    0.000    0.000    0.000    0.857    0.000    6.000 
#    0.000    0.000    0.000    0.000    0.000    0.000 
#
# Total GULP energy -693828.257049 kJ/mol
# GULP energy per Si atom -12389.790304 kJ/mol
# Density = 1.900242 g / cm^3
# Si number density = 19.045771 Si / 1000 Ang^3
#
#
#
# Elastic Constant Matrix: (Units=GPa)
#
#
# Indices 1 2 3 4 5 6 
#
# 1 96.1117 21.4440 12.7258 0.0000 0.0000 0.0000
# 2 21.4440 42.9736 16.0494 0.0000 0.0000 0.0000
# 3 12.7258 16.0494 55.8144 0.0000 0.0000 0.0000
# 4 0.0000 0.0000 0.0000 15.3681 0.0000 0.0000
# 5 0.0000 0.0000 0.0000 0.0000 21.9328 0.0000
# 6 0.0000 0.0000 0.0000 0.0000 0.0000 33.2148
#
#
#
# Elastic Compliance Matrix: (Units=1/GPa)
#
#
# Indices 1 2 3 4 5 6 
#
# 1 0.011770 -0.005457 -0.001114 0.000000 0.000000 0.000000
# 2 -0.005457 0.028600 -0.006980 0.000000 0.000000 0.000000
# 3 -0.001114 -0.006980 0.020178 0.000000 0.000000 0.000000
# 4 0.000000 0.000000 0.000000 0.065070 0.000000 0.000000
# 5 0.000000 0.000000 0.000000 0.000000 0.045594 0.000000
# 6 0.000000 0.000000 0.000000 0.000000 0.000000 0.030107
#
#
# Mechanical properties :
#
#
# Convention : Reuss Voigt Hill
#
# Bulk Modulus (GPa) = 29.89968 32.81532 31.35750
# Shear Modulus (GPa) = 20.87091 23.74852 22.30972
#
# Velocity S-wave (km/s) = 3.31392 3.53500 3.42625
# Velocity P-wave (km/s) = 5.51142 5.82484 5.67030
#
# Compressibility (1/GPa) = 0.03344518
#
# Stress axis : x y z
#
# Youngs Moduli (GPa) = 84.96447 34.96530 49.55989
#
# Poissons Ratio (x) = 0.19080 0.05523
# Poissons Ratio (y) = 0.46364 0.34591
# Poissons Ratio (z) = 0.09468 0.24405
#
# Static dielectric constant tensor:
#      x y z
#    x 3.727520 0.000000 0.000000 
#    y 0.000000 3.144950 0.000000 
#    z 0.000000 0.000000 3.623120 
# 
# 
# High freq. dielectric constant tensor:
#      x y z
#    x 1.752380 0.000000 0.000000 
#    y 0.000000 1.704540 0.000000 
#    z 0.000000 0.000000 1.733990 
# 
# From -- ./inp_files/32799.got.cif
#   From: 2010.03.12/outbox.cif.g09.slc.cpg/sg63_17_cif.got.tgz:32799.got - 2010.04.10 19:34:48.
