data_PCOD8256440
_publ_section_title
;
Structure prediction by ZEFSAII (Michael W. Deem and Ramdas Pophale) SiO2 
 PCOD8256440
Probable space group: C M C M
;
_chemical_formula_sum "Si O2"
_cell_formula_units_Z 80
_cell_length_a 7.846825
_cell_length_b 20.562164
_cell_length_c 27.427285
_cell_angle_alpha 90.000000
_cell_angle_beta 90.000000
_cell_angle_gamma 90.000000
_cell_volume 4425.329421
_symmetry_space_group_name_H-M "C M C M"
_symmetry_group_IT_number 63
_symmetry_cell_setting 'orthorhombic'
loop_
_space_group_symop_operation_xyz
x,y,z
-x,-y,1/2+z
x,-y,-z
-x,y,1/2-z
-x,-y,-z
x,y,1/2-z
-x,y,z
x,-y,1/2+z
1/2+x,1/2+y,z
1/2-x,1/2-y,1/2+z
1/2+x,1/2-y,-z
1/2-x,1/2+y,1/2-z
1/2-x,1/2-y,-z
1/2+x,1/2+y,1/2-z
1/2-x,1/2+y,z
1/2+x,1/2-y,1/2+z
loop_
_atom_site_type_symbol
_atom_site_label
_atom_site_fract_x
_atom_site_fract_y
_atom_site_fract_z
Si Si1 0.000000 0.641204 0.695161
Si Si2 0.000000 0.486933 0.696110
Si Si3 0.191831 0.313142 0.028460
Si Si4 0.195781 0.935947 0.974485
Si Si5 0.691398 0.512756 0.369509
Si Si6 0.809634 0.137935 0.628052
O O1 0.000000 0.564130 0.698861
O O2 0.829431 0.664458 0.666752
O O3 0.000000 0.670958 0.750000
O O4 0.828705 0.462347 0.669590
O O5 0.000000 0.456431 0.750000
O O6 0.301974 0.323559 0.077143
O O7 0.000000 0.304210 0.046348
O O8 0.250000 0.250000 0.000000
O O9 0.201004 0.373425 0.991515
O O10 0.214561 0.942420 0.916621
O O11 0.000000 0.927163 0.990702
O O12 0.272934 0.000000 0.000000
O O13 0.500000 0.520629 0.348043
O O14 0.725492 0.437786 0.383885
O O15 0.000000 0.147621 0.649968
#
# Coordination Sequence:
#
# PCOD8256440 Si02
#       6
#     8   8  16  16  16  16
#     4   9  18  32  49  77 107 139 183 226 274 321
#     4   9  18  30  46  72 108 138 176 228 271 319
#     4  12  24  36  52  78 114 150 183 225 276 333
#     4  10  19  33  53  78 108 143 181 220 262 325
#     4   9  18  30  50  76 105 140 178 220 266 319
#     4  10  18  33  52  75 109 145 177 220 272 321
#
# _framework density 18.077749000000001
#
# number of rings (size 3 to 8) (size 9 to 14) (size 15 to 20)
#    0.000    2.000    3.000    1.800    1.400    1.200 
#    0.000    4.000    0.000    0.000    0.000    1.400 
#    0.000    0.000    0.000    0.000    0.000    0.000 
#
# Total GULP energy -495999.988873 kJ/mol
# GULP energy per Si atom -12399.999722 kJ/mol
# Density = 1.803660 g / cm^3
# Si number density = 18.077749 Si / 1000 Ang^3
#
#
#
# Elastic Constant Matrix: (Units=GPa)
#
#
# Indices 1 2 3 4 5 6 
#
# 1 130.3506 21.9437 61.7533 0.0000 0.0000 0.0000
# 2 21.9437 64.2901 30.7072 0.0000 0.0000 0.0000
# 3 61.7533 30.7072 122.9817 0.0000 0.0000 0.0000
# 4 0.0000 0.0000 0.0000 12.9947 0.0000 0.0000
# 5 0.0000 0.0000 0.0000 0.0000 29.2511 0.0000
# 6 0.0000 0.0000 0.0000 0.0000 0.0000 18.4602
#
#
#
# Elastic Compliance Matrix: (Units=1/GPa)
#
#
# Indices 1 2 3 4 5 6 
#
# 1 0.010143 -0.001169 -0.004801 0.000000 0.000000 0.000000
# 2 -0.001169 0.017795 -0.003856 0.000000 0.000000 0.000000
# 3 -0.004801 -0.003856 0.011505 0.000000 0.000000 0.000000
# 4 0.000000 0.000000 0.000000 0.076954 0.000000 0.000000
# 5 0.000000 0.000000 0.000000 0.000000 0.034187 0.000000
# 6 0.000000 0.000000 0.000000 0.000000 0.000000 0.054171
#
#
# Mechanical properties :
#
#
# Convention : Reuss Voigt Hill
#
# Bulk Modulus (GPa) = 50.52938 60.71450 55.62194
# Shear Modulus (GPa) = 21.64456 25.68908 23.66682
#
# Velocity S-wave (km/s) = 3.46396 3.77375 3.62217
# Velocity P-wave (km/s) = 6.63404 7.25578 6.95187
#
# Compressibility (1/GPa) = 0.01979046
#
# Stress axis : x y z
#
# Youngs Moduli (GPa) = 98.59035 56.19430 86.91793
#
# Poissons Ratio (x) = 0.06568 0.41732
# Poissons Ratio (y) = 0.11523 0.33519
# Poissons Ratio (z) = 0.47336 0.21671
#
# Static dielectric constant tensor:
#      x y z
#    x 3.532970 0.000000 0.000000 
#    y 0.000000 2.927350 0.000000 
#    z 0.000000 0.000000 3.323850 
# 
# 
# High freq. dielectric constant tensor:
#      x y z
#    x 1.716270 0.000000 0.000000 
#    y 0.000000 1.647180 0.000000 
#    z 0.000000 0.000000 1.691830 
# 
# From -- ./inp_files/66677.got.cif
#   From: 2010.03.12/outbox.cif.g09.slc.cpg/sg63_34_cif.got.tgz:66677.got - 2010.04.10 19:34:48.
