data_PCOD8256622
_publ_section_title
;
Structure prediction by ZEFSAII (Michael W. Deem and Ramdas Pophale) SiO2 
 PCOD8256622
Probable space group: C M C M
;
_chemical_formula_sum "Si O2"
_cell_formula_units_Z 96
_cell_length_a 28.564893
_cell_length_b 27.929647
_cell_length_c 9.040043
_cell_angle_alpha 90.000000
_cell_angle_beta 90.000000
_cell_angle_gamma 90.000000
_cell_volume 7212.213004
_symmetry_space_group_name_H-M "C M C M"
_symmetry_group_IT_number 63
_symmetry_cell_setting 'orthorhombic'
loop_
_space_group_symop_operation_xyz
x,y,z
-x,-y,1/2+z
x,-y,-z
-x,y,1/2-z
-x,-y,-z
x,y,1/2-z
-x,y,z
x,-y,1/2+z
1/2+x,1/2+y,z
1/2-x,1/2-y,1/2+z
1/2+x,1/2-y,-z
1/2-x,1/2+y,1/2-z
1/2-x,1/2-y,-z
1/2+x,1/2+y,1/2-z
1/2-x,1/2+y,z
1/2+x,1/2-y,1/2+z
loop_
_atom_site_type_symbol
_atom_site_label
_atom_site_fract_x
_atom_site_fract_y
_atom_site_fract_z
Si Si1 0.000000 0.298552 0.424279
Si Si2 0.000000 0.407213 0.427284
Si Si3 0.090311 0.548419 0.421989
Si Si4 0.653406 0.862186 0.580186
Si Si5 0.100645 0.278165 0.074692
Si Si6 0.736304 0.822852 0.415208
Si Si7 0.314573 0.721065 0.415029
O O1 0.000000 0.352574 0.486161
O O2 0.953317 0.269962 0.475424
O O3 0.000000 0.302710 0.250000
O O4 0.954767 0.432936 0.491682
O O5 0.000000 0.411012 0.250000
O O6 0.107359 0.500000 0.500000
O O7 0.077561 0.540157 0.250000
O O8 0.133688 0.584613 0.437676
O O9 0.657698 0.846431 0.750000
O O10 0.617706 0.826608 0.500687
O O11 0.705195 0.860030 0.508759
O O12 0.105581 0.286274 0.250000
O O13 0.132329 0.232172 0.028212
O O14 0.741413 0.842924 0.250000
O O15 0.711706 0.771596 0.417518
O O16 0.788582 0.817529 0.482238
O O17 0.315131 0.699723 0.250000
#
# Coordination Sequence:
#
# PCOD8256622 Si02
#       7
#     8   8  16  16  16  16  16
#     4   9  16  26  42  59  73  94 124 154 185 223
#     4  11  20  32  49  59  70  92 120 158 196 233
#     4  11  23  35  45  57  73  92 119 155 194 236
#     4  10  19  29  41  56  72  89 113 148 186 223
#     4   9  16  27  41  56  73  95 121 147 180 219
#     4   9  16  25  39  55  72  92 114 138 172 218
#     4   8  14  23  36  54  75  94 113 140 172 209
#
# _framework density 13.310756
#
# number of rings (size 3 to 8) (size 9 to 14) (size 15 to 20)
#    0.000    2.500    1.667    3.000    0.000    6.000 
#    0.000    0.417    0.000    0.000    0.000    0.000 
#    0.000    0.000    0.000    0.000    0.000    0.000 
#
# Total GULP energy -594935.944931 kJ/mol
# GULP energy per Si atom -12394.498853 kJ/mol
# Density = 1.328046 g / cm^3
# Si number density = 13.310756 Si / 1000 Ang^3
#
#
#
# Elastic Constant Matrix: (Units=GPa)
#
#
# Indices 1 2 3 4 5 6 
#
# 1 110.6676 42.8404 43.8092 0.0000 0.0000 0.0000
# 2 42.8404 31.2522 25.6113 0.0000 0.0000 0.0000
# 3 43.8092 25.6113 73.6968 0.0000 0.0000 0.0000
# 4 0.0000 0.0000 0.0000 14.7616 0.0000 0.0000
# 5 0.0000 0.0000 0.0000 0.0000 17.0872 0.0000
# 6 0.0000 0.0000 0.0000 0.0000 0.0000 11.7222
#
#
#
# Elastic Compliance Matrix: (Units=1/GPa)
#
#
# Indices 1 2 3 4 5 6 
#
# 1 0.019800 -0.024463 -0.003269 0.000000 0.000000 0.000000
# 2 -0.024463 0.074963 -0.011509 0.000000 0.000000 0.000000
# 3 -0.003269 -0.011509 0.019512 0.000000 0.000000 0.000000
# 4 0.000000 0.000000 0.000000 0.067743 0.000000 0.000000
# 5 0.000000 0.000000 0.000000 0.000000 0.058523 0.000000
# 6 0.000000 0.000000 0.000000 0.000000 0.000000 0.085308
#
#
# Mechanical properties :
#
#
# Convention : Reuss Voigt Hill
#
# Bulk Modulus (GPa) = 27.93834 48.90428 38.42131
# Shear Modulus (GPa) = 12.01167 15.60458 13.80812
#
# Velocity S-wave (km/s) = 3.00726 3.42764 3.22431
# Velocity P-wave (km/s) = 5.75265 7.24466 6.54134
#
# Compressibility (1/GPa) = 0.03579311
#
# Stress axis : x y z
#
# Youngs Moduli (GPa) = 50.50582 13.33992 51.25057
#
# Poissons Ratio (x) = 0.32633 0.16752
# Poissons Ratio (y) = 1.23550 0.58987
# Poissons Ratio (z) = 0.16509 0.15354
#
# Static dielectric constant tensor:
#      x y z
#    x 3.032350 0.000000 0.000000 
#    y 0.000000 2.367940 0.000000 
#    z 0.000000 0.000000 2.800760 
# 
# 
# High freq. dielectric constant tensor:
#      x y z
#    x 1.503540 0.000000 0.000000 
#    y 0.000000 1.448330 0.000000 
#    z 0.000000 0.000000 1.517000 
# 
# From -- ./inp_files/14960.got.cif
#   From: 2010.03.12/outbox.cif.g09.slc.cpg/sg63_8_cif.got.tgz:14960.got - 2010.04.10 19:34:48.
