data_PCOD8256752
_publ_section_title
;
Structure prediction by ZEFSAII (Michael W. Deem and Ramdas Pophale) SiO2 
 PCOD8256752
Probable space group: C M C M
;
_chemical_formula_sum "Si O2"
_cell_formula_units_Z 96
_cell_length_a 8.625536
_cell_length_b 27.205860
_cell_length_c 23.929499
_cell_angle_alpha 90.000000
_cell_angle_beta 90.000000
_cell_angle_gamma 90.000000
_cell_volume 5615.418870
_symmetry_space_group_name_H-M "C M C M"
_symmetry_group_IT_number 63
_symmetry_cell_setting 'orthorhombic'
loop_
_space_group_symop_operation_xyz
x,y,z
-x,-y,1/2+z
x,-y,-z
-x,y,1/2-z
-x,-y,-z
x,y,1/2-z
-x,y,z
x,-y,1/2+z
1/2+x,1/2+y,z
1/2-x,1/2-y,1/2+z
1/2+x,1/2-y,-z
1/2-x,1/2+y,1/2-z
1/2-x,1/2-y,-z
1/2+x,1/2+y,1/2-z
1/2-x,1/2+y,z
1/2+x,1/2-y,1/2+z
loop_
_atom_site_type_symbol
_atom_site_label
_atom_site_fract_x
_atom_site_fract_y
_atom_site_fract_z
Si Si1 0.818766 0.520100 0.418921
Si Si2 0.180921 0.929764 0.022548
Si Si3 0.318966 0.272325 0.579409
Si Si4 0.821342 0.673197 0.977300
Si Si5 0.816272 0.176512 0.189276
Si Si6 0.180938 0.065680 0.186135
O O1 0.770927 0.464708 0.434328
O O2 0.731285 0.558845 0.458985
O O3 0.775211 0.529932 0.354712
O O4 0.000000 0.526731 0.428360
O O5 0.218130 0.873667 0.037840
O O6 0.000000 0.939682 0.029107
O O7 0.500000 0.284813 0.570450
O O8 0.220668 0.305627 0.537718
O O9 0.287009 0.214738 0.569343
O O10 0.260804 0.285586 0.641744
O O11 0.000000 0.657400 0.977527
O O12 0.750282 0.193332 0.250000
O O13 0.759755 0.121310 0.175707
O O14 0.000000 0.175364 0.192538
O O15 0.214820 0.049904 0.250000
O O16 0.000000 0.060829 0.172408
#
# Coordination Sequence:
#
# PCOD8256752 Si02
#       6
#    16  16  16  16  16  16
#     4  11  21  33  50  73  99 123 154 200 247 287
#     4  11  21  34  51  69  93 127 163 196 240 297
#     4   9  17  29  47  70  96 126 157 191 234 283
#     4  10  19  30  45  69  98 125 156 196 238 279
#     4   8  14  26  46  70  93 120 155 190 223 267
#     4   9  17  30  49  73 101 132 163 192 227 280
#
# _framework density 17.095787000000001
#
# number of rings (size 3 to 8) (size 9 to 14) (size 15 to 20)
#    0.000    2.333    0.000    6.500    0.000    2.333 
#    0.000    0.000    0.000    2.500    0.000    2.333 
#    0.000    0.000    0.000    0.000    0.000    0.000 
#
# Total GULP energy -595186.517519 kJ/mol
# GULP energy per Si atom -12399.719115 kJ/mol
# Density = 1.705688 g / cm^3
# Si number density = 17.095787 Si / 1000 Ang^3
#
#
#
# Elastic Constant Matrix: (Units=GPa)
#
#
# Indices 1 2 3 4 5 6 
#
# 1 53.4484 18.9154 23.3106 0.0000 0.0000 0.0000
# 2 18.9154 91.0194 51.0093 0.0000 0.0000 0.0000
# 3 23.3106 51.0093 118.8708 0.0000 0.0000 0.0000
# 4 0.0000 0.0000 0.0000 25.3061 0.0000 0.0000
# 5 0.0000 0.0000 0.0000 0.0000 19.8937 0.0000
# 6 0.0000 0.0000 0.0000 0.0000 0.0000 23.6999
#
#
#
# Elastic Compliance Matrix: (Units=1/GPa)
#
#
# Indices 1 2 3 4 5 6 
#
# 1 0.020952 -0.002701 -0.002950 0.000000 0.000000 0.000000
# 2 -0.002701 0.014814 -0.005827 0.000000 0.000000 0.000000
# 3 -0.002950 -0.005827 0.011491 0.000000 0.000000 0.000000
# 4 0.000000 0.000000 0.000000 0.039516 0.000000 0.000000
# 5 0.000000 0.000000 0.000000 0.000000 0.050267 0.000000
# 6 0.000000 0.000000 0.000000 0.000000 0.000000 0.042194
#
#
# Mechanical properties :
#
#
# Convention : Reuss Voigt Hill
#
# Bulk Modulus (GPa) = 41.14989 49.97878 45.56433
# Shear Modulus (GPa) = 23.77662 25.12017 24.44840
#
# Velocity S-wave (km/s) = 3.73337 3.83740 3.78575
# Velocity P-wave (km/s) = 6.53502 6.99516 6.76900
#
# Compressibility (1/GPa) = 0.02430140
#
# Stress axis : x y z
#
# Youngs Moduli (GPa) = 47.72815 67.50534 87.02168
#
# Poissons Ratio (x) = 0.18234 0.25668
# Poissons Ratio (y) = 0.12892 0.50708
# Poissons Ratio (z) = 0.14078 0.39336
#
# Static dielectric constant tensor:
#      x y z
#    x 3.079070 0.000000 0.000000 
#    y 0.000000 3.155410 0.000000 
#    z 0.000000 0.000000 3.349340 
# 
# 
# High freq. dielectric constant tensor:
#      x y z
#    x 1.653300 0.000000 0.000000 
#    y 0.000000 1.648410 0.000000 
#    z 0.000000 0.000000 1.650880 
# 
# From -- ./inp_files/60258.got.cif
#   From: 2010.03.12/outbox.cif.g09.slc.cpg/sg63_31_cif.got.tgz:60258.got - 2010.04.10 19:34:48.
