data_PCOD8256795
_publ_section_title
;
Structure prediction by ZEFSAII (Michael W. Deem and Ramdas Pophale) SiO2 
 PCOD8256795
Probable space group: C M C M
;
_chemical_formula_sum "Si O2"
_cell_formula_units_Z 112
_cell_length_a 9.534561
_cell_length_b 25.358257
_cell_length_c 25.407888
_cell_angle_alpha 90.000000
_cell_angle_beta 90.000000
_cell_angle_gamma 90.000000
_cell_volume 6143.115304
_symmetry_space_group_name_H-M "C M C M"
_symmetry_group_IT_number 63
_symmetry_cell_setting 'orthorhombic'
loop_
_space_group_symop_operation_xyz
x,y,z
-x,-y,1/2+z
x,-y,-z
-x,y,1/2-z
-x,-y,-z
x,y,1/2-z
-x,y,z
x,-y,1/2+z
1/2+x,1/2+y,z
1/2-x,1/2-y,1/2+z
1/2+x,1/2-y,-z
1/2-x,1/2+y,1/2-z
1/2-x,1/2-y,-z
1/2+x,1/2+y,1/2-z
1/2-x,1/2+y,z
1/2+x,1/2-y,1/2+z
loop_
_atom_site_type_symbol
_atom_site_label
_atom_site_fract_x
_atom_site_fract_y
_atom_site_fract_z
Si Si1 0.332700 0.537822 0.891880
Si Si2 0.837903 0.235969 0.658872
Si Si3 0.838083 0.164790 0.190411
Si Si4 0.660106 0.283893 0.461185
Si Si5 0.165833 0.121536 0.808992
Si Si6 0.667089 0.579867 0.106213
Si Si7 0.834323 0.100776 0.990010
O O1 0.500000 0.539861 0.889836
O O2 0.269617 0.577811 0.848265
O O3 0.278570 0.478868 0.879761
O O4 0.280695 0.555228 0.950212
O O5 0.748763 0.281731 0.685462
O O6 0.819777 0.239270 0.596518
O O7 0.776668 0.180001 0.678673
O O8 0.000000 0.242851 0.675610
O O9 0.822694 0.143228 0.250000
O O10 0.777445 0.120657 0.150303
O O11 0.000000 0.177214 0.177181
O O12 0.500000 0.280394 0.479780
O O13 0.750000 0.250000 0.500000
O O14 0.711855 0.344109 0.464082
O O15 0.207718 0.105039 0.750000
O O16 0.000000 0.123546 0.817189
O O17 0.500000 0.580781 0.105586
O O18 0.729265 0.594943 0.048693
O O19 0.000000 0.096617 0.994834
#
# Coordination Sequence:
#
# PCOD8256795 Si02
#       7
#    16  16  16  16  16  16  16
#     4   9  15  25  41  65  94 124 159 197 240 290
#     4  10  19  33  51  72  97 128 168 207 242 290
#     4  10  21  35  49  70 101 132 164 204 248 296
#     4  10  19  30  47  71 102 133 163 202 244 291
#     4   9  16  26  42  65  92 120 154 201 248 282
#     4   9  17  27  43  65  93 129 161 192 239 293
#     4   9  15  26  42  64  94 124 157 197 239 287
#
# _framework density 18.231793
#
# number of rings (size 3 to 8) (size 9 to 14) (size 15 to 20)
#    0.000    2.571    1.429    1.714    0.000    4.857 
#    0.000    2.857    0.000    0.000    0.000    2.000 
#    0.000    4.571    0.000    0.000    0.000    0.000 
#
# Total GULP energy -694212.052697 kJ/mol
# GULP energy per Si atom -12396.643798 kJ/mol
# Density = 1.819030 g / cm^3
# Si number density = 18.231793 Si / 1000 Ang^3
#
#
#
# Elastic Constant Matrix: (Units=GPa)
#
#
# Indices 1 2 3 4 5 6 
#
# 1 19.5424 20.9362 17.4166 0.0000 0.0000 0.0000
# 2 20.9362 118.6484 60.0873 0.0000 0.0000 0.0000
# 3 17.4166 60.0873 123.5695 0.0000 0.0000 0.0000
# 4 0.0000 0.0000 0.0000 28.9865 0.0000 0.0000
# 5 0.0000 0.0000 0.0000 0.0000 15.1978 0.0000
# 6 0.0000 0.0000 0.0000 0.0000 0.0000 15.4535
#
#
#
# Elastic Compliance Matrix: (Units=1/GPa)
#
#
# Indices 1 2 3 4 5 6 
#
# 1 0.065148 -0.009082 -0.004766 0.000000 0.000000 0.000000
# 2 -0.009082 0.012448 -0.004773 0.000000 0.000000 0.000000
# 3 -0.004766 -0.004773 0.011085 0.000000 0.000000 0.000000
# 4 0.000000 0.000000 0.000000 0.034499 0.000000 0.000000
# 5 0.000000 0.000000 0.000000 0.000000 0.065799 0.000000
# 6 0.000000 0.000000 0.000000 0.000000 0.000000 0.064710
#
#
# Mechanical properties :
#
#
# Convention : Reuss Voigt Hill
#
# Bulk Modulus (GPa) = 19.44033 50.96005 35.20019
# Shear Modulus (GPa) = 16.22962 22.81557 19.52259
#
# Velocity S-wave (km/s) = 2.98683 3.54137 3.27586
# Velocity P-wave (km/s) = 4.75193 6.68832 5.80149
#
# Compressibility (1/GPa) = 0.05143946
#
# Stress axis : x y z
#
# Youngs Moduli (GPa) = 15.34955 80.33405 90.20976
#
# Poissons Ratio (x) = 0.72960 0.42995
# Poissons Ratio (y) = 0.13941 0.43056
# Poissons Ratio (z) = 0.07316 0.38343
#
# Static dielectric constant tensor:
#      x y z
#    x 2.716510 0.000000 0.000000 
#    y 0.000000 2.914540 0.000000 
#    z 0.000000 0.000000 3.796780 
# 
# 
# High freq. dielectric constant tensor:
#      x y z
#    x 1.625780 0.000000 0.000000 
#    y 0.000000 1.716720 0.000000 
#    z 0.000000 0.000000 1.724890 
# 
# From -- ./inp_files/61929.got.cif
#   From: 2010.03.12/outbox.cif.g09.slc.cpg/sg63_31_cif.got.tgz:61929.got - 2010.04.10 19:34:48.
