data_PCOD8256853
_publ_section_title
;
Structure prediction by ZEFSAII (Michael W. Deem and Ramdas Pophale) SiO2 
 PCOD8256853
Probable space group: C M C M
;
_chemical_formula_sum "Si O2"
_cell_formula_units_Z 96
_cell_length_a 22.188519
_cell_length_b 11.527540
_cell_length_c 19.804711
_cell_angle_alpha 90.000000
_cell_angle_beta 90.000000
_cell_angle_gamma 90.000000
_cell_volume 5065.629973
_symmetry_space_group_name_H-M "C M C M"
_symmetry_group_IT_number 63
_symmetry_cell_setting 'orthorhombic'
loop_
_space_group_symop_operation_xyz
x,y,z
-x,-y,1/2+z
x,-y,-z
-x,y,1/2-z
-x,-y,-z
x,y,1/2-z
-x,y,z
x,-y,1/2+z
1/2+x,1/2+y,z
1/2-x,1/2-y,1/2+z
1/2+x,1/2-y,-z
1/2-x,1/2+y,1/2-z
1/2-x,1/2-y,-z
1/2+x,1/2+y,1/2-z
1/2-x,1/2+y,z
1/2+x,1/2-y,1/2+z
loop_
_atom_site_type_symbol
_atom_site_label
_atom_site_fract_x
_atom_site_fract_y
_atom_site_fract_z
Si Si1 0.430612 0.106580 0.326805
Si Si2 0.861278 0.197352 0.884566
Si Si3 0.232445 0.745585 0.922143
Si Si4 0.567548 0.727755 0.481106
Si Si5 0.851994 0.951466 0.927624
Si Si6 0.369075 0.935753 0.069664
O O1 0.427260 0.062689 0.250000
O O2 0.500000 0.107402 0.352140
O O3 0.403282 0.237318 0.330305
O O4 0.389048 0.025510 0.373009
O O5 0.792106 0.237258 0.876666
O O6 0.863772 0.057538 0.875888
O O7 0.885034 0.233868 0.958277
O O8 0.198691 0.863724 0.899950
O O9 0.190502 0.633878 0.907275
O O10 0.250000 0.750000 0.000000
O O11 0.500000 0.714839 0.507904
O O12 0.584559 0.616735 0.435320
O O13 0.575288 0.846426 0.439477
O O14 0.829540 0.000000 0.000000
O O15 0.354364 0.000000 0.000000
#
# Coordination Sequence:
#
# PCOD8256853 Si02
#       6
#    16  16  16  16  16  16
#     4  11  25  43  60  84 119 159 203 250 306 360
#     4  11  21  32  56  81 113 155 191 236 293 353
#     4  11  19  32  54  88 123 152 187 237 299 352
#     4  10  19  30  49  83 118 145 186 240 288 344
#     4   9  19  30  46  79 114 148 181 227 286 346
#     4  11  21  34  61  89 116 154 197 249 294 357
#
# _framework density 18.951245
#
# number of rings (size 3 to 8) (size 9 to 14) (size 15 to 20)
#    0.000    1.500    6.667    1.000    4.667    4.333 
#    0.000    0.833    0.000    4.000    0.000    9.333 
#    0.000    0.000    0.000    0.000    0.000    0.000 
#
# Total GULP energy -595035.057659 kJ/mol
# GULP energy per Si atom -12396.563701 kJ/mol
# Density = 1.890811 g / cm^3
# Si number density = 18.951245 Si / 1000 Ang^3
#
#
#
# Elastic Constant Matrix: (Units=GPa)
#
#
# Indices 1 2 3 4 5 6 
#
# 1 137.7620 50.2164 21.2678 0.0000 0.0000 0.0000
# 2 50.2164 130.1476 28.4117 0.0000 0.0000 0.0000
# 3 21.2678 28.4117 45.6505 0.0000 0.0000 0.0000
# 4 0.0000 0.0000 0.0000 17.2078 0.0000 0.0000
# 5 0.0000 0.0000 0.0000 0.0000 13.0523 0.0000
# 6 0.0000 0.0000 0.0000 0.0000 0.0000 23.4264
#
#
#
# Elastic Compliance Matrix: (Units=1/GPa)
#
#
# Indices 1 2 3 4 5 6 
#
# 1 0.008643 -0.002842 -0.002258 0.000000 0.000000 0.000000
# 2 -0.002842 0.009826 -0.004791 0.000000 0.000000 0.000000
# 3 -0.002258 -0.004791 0.025940 0.000000 0.000000 0.000000
# 4 0.000000 0.000000 0.000000 0.058113 0.000000 0.000000
# 5 0.000000 0.000000 0.000000 0.000000 0.076615 0.000000
# 6 0.000000 0.000000 0.000000 0.000000 0.000000 0.042687
#
#
# Mechanical properties :
#
#
# Convention : Reuss Voigt Hill
#
# Bulk Modulus (GPa) = 40.60726 57.03909 48.82317
# Shear Modulus (GPa) = 20.01475 24.98159 22.49817
#
# Velocity S-wave (km/s) = 3.25332 3.63465 3.44926
# Velocity P-wave (km/s) = 5.96539 6.91212 6.45613
#
# Compressibility (1/GPa) = 0.02462614
#
# Stress axis : x y z
#
# Youngs Moduli (GPa) = 115.69422 101.76896 38.55102
#
# Poissons Ratio (x) = 0.28924 0.08705
# Poissons Ratio (y) = 0.32881 0.18472
# Poissons Ratio (z) = 0.26124 0.48763
#
# Static dielectric constant tensor:
#      x y z
#    x 3.671830 0.000000 0.000000 
#    y 0.000000 3.933580 0.000000 
#    z 0.000000 0.000000 2.918240 
# 
# 
# High freq. dielectric constant tensor:
#      x y z
#    x 1.748690 0.000000 0.000000 
#    y 0.000000 1.759210 0.000000 
#    z 0.000000 0.000000 1.660010 
# 
# From -- ./inp_files/57494.got.cif
#   From: 2010.03.12/outbox.cif.g09.slc.cpg/sg63_29_cif.got.tgz:57494.got - 2010.04.10 19:34:48.
