data_PCOD8256004
_publ_section_title
;
Structure prediction by ZEFSAII (Michael W. Deem and Ramdas Pophale) SiO2 
 PCOD8256004
Probable space group: C M C M
;
_chemical_formula_sum "Si O2"
_cell_formula_units_Z 64
_cell_length_a 14.387557
_cell_length_b 27.948370
_cell_length_c 8.611598
_cell_angle_alpha 90.000000
_cell_angle_beta 90.000000
_cell_angle_gamma 90.000000
_cell_volume 3462.799049
_symmetry_space_group_name_H-M "C M C M"
_symmetry_group_IT_number 63
_symmetry_cell_setting 'orthorhombic'
loop_
_space_group_symop_operation_xyz
x,y,z
-x,-y,1/2+z
x,-y,-z
-x,y,1/2-z
-x,-y,-z
x,y,1/2-z
-x,y,z
x,-y,1/2+z
1/2+x,1/2+y,z
1/2-x,1/2-y,1/2+z
1/2+x,1/2-y,-z
1/2-x,1/2+y,1/2-z
1/2-x,1/2-y,-z
1/2+x,1/2+y,1/2-z
1/2-x,1/2+y,z
1/2+x,1/2-y,1/2+z
loop_
_atom_site_type_symbol
_atom_site_label
_atom_site_fract_x
_atom_site_fract_y
_atom_site_fract_z
Si Si1 0.898730 0.674597 0.571491
Si Si2 0.606569 0.448485 0.067588
Si Si3 0.152836 0.233130 0.566136
Si Si4 0.210441 0.860488 0.932588
O O1 0.866805 0.677496 0.750000
O O2 0.917439 0.728368 0.506056
O O3 0.818559 0.646220 0.480088
O O4 0.000000 0.648760 0.555393
O O5 0.624860 0.448285 0.250000
O O6 0.500000 0.435009 0.028381
O O7 0.631554 0.500000 0.000000
O O8 0.676426 0.412077 0.985862
O O9 0.146197 0.234891 0.750000
O O10 0.250000 0.250000 0.500000
O O11 0.140393 0.178481 0.509755
O O12 0.203035 0.855193 0.750000
#
# Coordination Sequence:
#
# PCOD8256004 Si02
#       4
#    16  16  16  16
#     4  10  20  34  52  75 106 143 181 220 261 308
#     4  10  21  38  59  82 107 134 168 212 262 315
#     4  10  18  30  48  70 100 135 173 215 256 301
#     4  11  21  34  54  78 107 141 177 217 260 311
#
# _framework density 18.48216
#
# number of rings (size 3 to 8) (size 9 to 14) (size 15 to 20)
#    0.000    1.750    0.000    9.000    0.000    4.500 
#    0.000    0.000    0.000    0.750    0.000    0.000 
#    0.000    0.000    0.000    0.000    0.000    0.000 
#
# Total GULP energy -396599.836879 kJ/mol
# GULP energy per Si atom -12393.744902 kJ/mol
# Density = 1.844009 g / cm^3
# Si number density = 18.482160 Si / 1000 Ang^3
#
#
#
# Elastic Constant Matrix: (Units=GPa)
#
#
# Indices 1 2 3 4 5 6 
#
# 1 82.1426 45.5379 28.6921 0.0000 0.0000 0.0000
# 2 45.5379 102.0067 41.1563 0.0000 0.0000 0.0000
# 3 28.6921 41.1563 136.0170 0.0000 0.0000 0.0000
# 4 0.0000 0.0000 0.0000 34.7212 0.0000 0.0000
# 5 0.0000 0.0000 0.0000 0.0000 21.2567 0.0000
# 6 0.0000 0.0000 0.0000 0.0000 0.0000 24.1498
#
#
#
# Elastic Compliance Matrix: (Units=1/GPa)
#
#
# Indices 1 2 3 4 5 6 
#
# 1 0.016414 -0.006755 -0.001418 0.000000 0.000000 0.000000
# 2 -0.006755 0.013947 -0.002795 0.000000 0.000000 0.000000
# 3 -0.001418 -0.002795 0.008497 0.000000 0.000000 0.000000
# 4 0.000000 0.000000 0.000000 0.028801 0.000000 0.000000
# 5 0.000000 0.000000 0.000000 0.000000 0.047044 0.000000
# 6 0.000000 0.000000 0.000000 0.000000 0.000000 0.041408
#
#
# Mechanical properties :
#
#
# Convention : Reuss Voigt Hill
#
# Bulk Modulus (GPa) = 59.10054 61.21543 60.15798
# Shear Modulus (GPa) = 27.21991 29.67756 28.44874
#
# Velocity S-wave (km/s) = 3.84183 4.01152 3.92759
# Velocity P-wave (km/s) = 7.19208 7.39254 7.29300
#
# Compressibility (1/GPa) = 0.01692032
#
# Stress axis : x y z
#
# Youngs Moduli (GPa) = 60.92189 71.70134 117.68915
#
# Poissons Ratio (x) = 0.48437 0.16694
# Poissons Ratio (y) = 0.41155 0.32894
# Poissons Ratio (z) = 0.08642 0.20041
#
# Static dielectric constant tensor:
#      x y z
#    x 3.606270 0.000000 0.000000 
#    y 0.000000 3.630320 0.000000 
#    z 0.000000 0.000000 3.550540 
# 
# 
# High freq. dielectric constant tensor:
#      x y z
#    x 1.710320 0.000000 0.000000 
#    y 0.000000 1.697400 0.000000 
#    z 0.000000 0.000000 1.739480 
# 
# From -- ./inp_files/4272.got.cif
#   From: 2010.03.12/outbox.cif.g09.slc.cpg/sg63_3_cif.got.tgz:4272.got - 2010.04.10 19:34:48.
