data_PCOD8256076
_publ_section_title
;
Structure prediction by ZEFSAII (Michael W. Deem and Ramdas Pophale) SiO2 
 PCOD8256076
Probable space group: C M C M
;
_chemical_formula_sum "Si O2"
_cell_formula_units_Z 96
_cell_length_a 8.957278
_cell_length_b 25.134506
_cell_length_c 25.264875
_cell_angle_alpha 90.000000
_cell_angle_beta 90.000000
_cell_angle_gamma 90.000000
_cell_volume 5688.052040
_symmetry_space_group_name_H-M "C M C M"
_symmetry_group_IT_number 63
_symmetry_cell_setting 'orthorhombic'
loop_
_space_group_symop_operation_xyz
x,y,z
-x,-y,1/2+z
x,-y,-z
-x,y,1/2-z
-x,-y,-z
x,y,1/2-z
-x,y,z
x,-y,1/2+z
1/2+x,1/2+y,z
1/2-x,1/2-y,1/2+z
1/2+x,1/2-y,-z
1/2-x,1/2+y,1/2-z
1/2-x,1/2-y,-z
1/2+x,1/2+y,1/2-z
1/2-x,1/2+y,z
1/2+x,1/2-y,1/2+z
loop_
_atom_site_type_symbol
_atom_site_label
_atom_site_fract_x
_atom_site_fract_y
_atom_site_fract_z
Si Si1 0.167806 0.938231 0.135676
Si Si2 0.327719 0.861223 0.442506
Si Si3 0.175977 0.559142 0.250000
Si Si4 0.677710 0.140618 0.437226
Si Si5 0.829416 0.049711 0.750000
Si Si6 0.675104 0.562942 0.142941
Si Si7 0.824956 0.755198 0.943586
O O1 0.268036 0.906944 0.094991
O O2 0.191794 0.916296 0.196096
O O3 0.000000 0.928512 0.116891
O O4 0.206895 0.000516 0.135230
O O5 0.500000 0.872543 0.448013
O O6 0.263614 0.865259 0.502265
O O7 0.298241 0.802753 0.416447
O O8 0.207114 0.496401 0.250000
O O9 0.251349 0.584137 0.302499
O O10 0.000000 0.570697 0.250000
O O11 0.500000 0.141717 0.432338
O O12 0.744909 0.091555 0.405572
O O13 0.743745 0.196186 0.413160
O O14 0.000000 0.025082 0.750000
O O15 0.500000 0.575882 0.143646
O O16 0.000000 0.767422 0.949095
O O17 0.750000 0.750000 0.000000
#
# Coordination Sequence:
#
# PCOD8256076 Si02
#       7
#    16  16   8  16   8  16  16
#     4   9  18  31  49  70  95 127 162 196 236 284
#     4   9  19  32  47  70 100 127 156 196 243 288
#     4  10  18  30  50  73  94 123 162 200 236 282
#     4  10  20  33  49  72  98 127 161 200 243 289
#     4   8  16  32  48  67  94 125 162 200 234 276
#     4  10  20  34  50  71  99 130 161 198 239 283
#     4   9  17  31  49  69  93 125 162 200 239 285
#
# _framework density 16.877482000000001
#
# number of rings (size 3 to 8) (size 9 to 14) (size 15 to 20)
#    0.000    2.667    0.000    4.250    0.000    8.000 
#    0.000    3.333    0.000    1.000    0.000    2.333 
#    0.000    0.000    0.000    0.000    0.000    0.000 
#
# Total GULP energy -594774.966832 kJ/mol
# GULP energy per Si atom -12391.145142 kJ/mol
# Density = 1.683907 g / cm^3
# Si number density = 16.877482 Si / 1000 Ang^3
#
#
#
# Elastic Constant Matrix: (Units=GPa)
#
#
# Indices 1 2 3 4 5 6 
#
# 1 78.9379 36.1046 38.2853 0.0000 0.0000 0.0000
# 2 36.1046 67.1028 48.5841 0.0000 0.0000 0.0000
# 3 38.2853 48.5841 96.0522 0.0000 0.0000 0.0000
# 4 0.0000 0.0000 0.0000 0.9839 0.0000 0.0000
# 5 0.0000 0.0000 0.0000 0.0000 29.0851 0.0000
# 6 0.0000 0.0000 0.0000 0.0000 0.0000 31.7756
#
#
#
# Elastic Compliance Matrix: (Units=1/GPa)
#
#
# Indices 1 2 3 4 5 6 
#
# 1 0.017516 -0.006895 -0.003495 0.000000 0.000000 0.000000
# 2 -0.006895 0.026227 -0.010518 0.000000 0.000000 0.000000
# 3 -0.003495 -0.010518 0.017124 0.000000 0.000000 0.000000
# 4 0.000000 0.000000 0.000000 1.016383 0.000000 0.000000
# 5 0.000000 0.000000 0.000000 0.000000 0.034382 0.000000
# 6 0.000000 0.000000 0.000000 0.000000 0.000000 0.031471
#
#
# Mechanical properties :
#
#
# Convention : Reuss Voigt Hill
#
# Bulk Modulus (GPa) = 52.48324 54.22675 53.35500
# Shear Modulus (GPa) = 4.19721 20.31018 12.25369
#
# Velocity S-wave (km/s) = 1.57869 3.47275 2.69743
# Velocity P-wave (km/s) = 5.87257 6.94834 6.43298
#
# Compressibility (1/GPa) = 0.01905370
#
# Stress axis : x y z
#
# Youngs Moduli (GPa) = 57.08908 38.12809 58.39775
#
# Poissons Ratio (x) = 0.26288 0.20407
# Poissons Ratio (y) = 0.39361 0.61422
# Poissons Ratio (z) = 0.19950 0.40103
#
# Static dielectric constant tensor:
#      x y z
#    x 3.223550 0.000000 0.000000 
#    y 0.000000 3.224230 0.000000 
#    z 0.000000 0.000000 3.211250 
# 
# 
# High freq. dielectric constant tensor:
#      x y z
#    x 1.661130 0.000000 0.000000 
#    y 0.000000 1.632460 0.000000 
#    z 0.000000 0.000000 1.635460 
# 
# From -- ./inp_files/60009.got.cif
#   From: 2010.03.12/outbox.cif.g09.slc.cpg/sg63_31_cif.got.tgz:60009.got - 2010.04.10 19:34:48.
