data_PCOD8256177
_publ_section_title
;
Structure prediction by ZEFSAII (Michael W. Deem and Ramdas Pophale) SiO2 
 PCOD8256177
Probable space group: C M C M
;
_chemical_formula_sum "Si O2"
_cell_formula_units_Z 56
_cell_length_a 20.966773
_cell_length_b 18.371581
_cell_length_c 8.471016
_cell_angle_alpha 90.000000
_cell_angle_beta 90.000000
_cell_angle_gamma 90.000000
_cell_volume 3262.974105
_symmetry_space_group_name_H-M "C M C M"
_symmetry_group_IT_number 63
_symmetry_cell_setting 'orthorhombic'
loop_
_space_group_symop_operation_xyz
x,y,z
-x,-y,1/2+z
x,-y,-z
-x,y,1/2-z
-x,-y,-z
x,y,1/2-z
-x,y,z
x,-y,1/2+z
1/2+x,1/2+y,z
1/2-x,1/2-y,1/2+z
1/2+x,1/2-y,-z
1/2-x,1/2+y,1/2-z
1/2-x,1/2-y,-z
1/2+x,1/2+y,1/2-z
1/2-x,1/2+y,z
1/2+x,1/2-y,1/2+z
loop_
_atom_site_type_symbol
_atom_site_label
_atom_site_fract_x
_atom_site_fract_y
_atom_site_fract_z
Si Si1 0.312570 0.711003 0.937216
Si Si2 0.500000 0.919056 0.563732
Si Si3 0.625102 0.156699 0.936631
Si Si4 0.750531 0.920513 0.563445
O O1 0.313060 0.706533 0.750000
O O2 0.250000 0.750000 0.000000
O O3 0.371335 0.760114 0.998233
O O4 0.310635 0.629795 0.010150
O O5 0.500000 0.921372 0.750000
O O6 0.438332 0.877672 0.503786
O O7 0.500000 0.000000 0.500000
O O8 0.622622 0.158240 0.750000
O O9 0.684827 0.108214 0.989877
O O10 0.743433 0.920581 0.750000
O O11 0.765803 0.000000 0.500000
#
# Coordination Sequence:
#
# PCOD8256177 Si02
#       4
#    16   8  16  16
#     4  10  18  31  49  71  96 127 162 201 244 292
#     4  12  24  38  52  72  99 132 169 206 242 286
#     4  11  21  35  51  71  98 132 167 203 243 291
#     4  11  20  32  49  73 101 131 163 203 248 294
#
# _framework density 17.162255999999999
#
# number of rings (size 3 to 8) (size 9 to 14) (size 15 to 20)
#    0.000    1.143    0.000   13.286    0.000    0.000 
#    0.000    0.000    0.000    0.000    0.000    1.000 
#    0.000    0.000    0.000    0.000    0.000    0.000 
#
# Total GULP energy -347159.139333 kJ/mol
# GULP energy per Si atom -12398.540690 kJ/mol
# Density = 1.712319 g / cm^3
# Si number density = 17.162256 Si / 1000 Ang^3
#
#
#
# Elastic Constant Matrix: (Units=GPa)
#
#
# Indices 1 2 3 4 5 6 
#
# 1 73.9951 65.1294 30.7424 0.0000 0.0000 0.0000
# 2 65.1294 166.0939 54.5952 0.0000 0.0000 0.0000
# 3 30.7424 54.5952 164.4439 0.0000 0.0000 0.0000
# 4 0.0000 0.0000 0.0000 35.1327 0.0000 0.0000
# 5 0.0000 0.0000 0.0000 0.0000 26.5609 0.0000
# 6 0.0000 0.0000 0.0000 0.0000 0.0000 -25.2964
#
#
#
# Elastic Compliance Matrix: (Units=1/GPa)
#
#
# Indices 1 2 3 4 5 6 
#
# 1 0.020894 -0.007755 -0.001331 0.000000 0.000000 0.000000
# 2 -0.007755 0.009637 -0.001750 0.000000 0.000000 0.000000
# 3 -0.001331 -0.001750 0.006911 0.000000 0.000000 0.000000
# 4 0.000000 0.000000 0.000000 0.028464 0.000000 0.000000
# 5 0.000000 0.000000 0.000000 0.000000 0.037649 0.000000
# 6 0.000000 0.000000 0.000000 0.000000 0.000000 -0.039531
#
#
# Mechanical properties :
#
#
# Convention : Reuss Voigt Hill
#
# Bulk Modulus (GPa) = 63.41565 78.38523 70.90044
# Shear Modulus (GPa) = 54.97452 24.21718 39.59585
#
# Velocity S-wave (km/s) = 5.66584 3.76050 4.80849
# Velocity P-wave (km/s) = 8.93494 8.03911 8.49884
#
# Compressibility (1/GPa) = 0.01576898
#
# Stress axis : x y z
#
# Youngs Moduli (GPa) = 47.86156 103.76874 144.70030
#
# Poissons Ratio (x) = 0.80476 0.19263
# Poissons Ratio (y) = 0.37118 0.25316
# Poissons Ratio (z) = 0.06372 0.18155
#
# Static dielectric constant tensor:
#      x y z
#    x 3.164530 0.000000 0.000000 
#    y 0.000000 3.951710 0.000000 
#    z 0.000000 0.000000 3.501080 
# 
# 
# High freq. dielectric constant tensor:
#      x y z
#    x 1.619290 0.000000 0.000000 
#    y 0.000000 1.675390 0.000000 
#    z 0.000000 0.000000 1.695030 
# 
# From -- ./inp_files/5522.got.cif
#   From: 2010.03.12/outbox.cif.g09.slc.cpg/sg63_3_cif.got.tgz:5522.got - 2010.04.10 19:34:48.
