data_PCOD8256051
_publ_section_title
;
Structure prediction by ZEFSAII (Michael W. Deem and Ramdas Pophale) SiO2 
 PCOD8256051
Probable space group: C M C M
;
_chemical_formula_sum "Si O2"
_cell_formula_units_Z 120
_cell_length_a 28.485540
_cell_length_b 27.373166
_cell_length_c 8.980491
_cell_angle_alpha 90.000000
_cell_angle_beta 90.000000
_cell_angle_gamma 90.000000
_cell_volume 7002.442799
_symmetry_space_group_name_H-M "C M C M"
_symmetry_group_IT_number 63
_symmetry_cell_setting 'orthorhombic'
loop_
_space_group_symop_operation_xyz
x,y,z
-x,-y,1/2+z
x,-y,-z
-x,y,1/2-z
-x,-y,-z
x,y,1/2-z
-x,y,z
x,-y,1/2+z
1/2+x,1/2+y,z
1/2-x,1/2-y,1/2+z
1/2+x,1/2-y,-z
1/2-x,1/2+y,1/2-z
1/2-x,1/2-y,-z
1/2+x,1/2+y,1/2-z
1/2-x,1/2+y,z
1/2+x,1/2-y,1/2+z
loop_
_atom_site_type_symbol
_atom_site_label
_atom_site_fract_x
_atom_site_fract_y
_atom_site_fract_z
Si Si1 0.204610 0.184660 0.582042
Si Si2 0.080992 0.895874 0.421144
Si Si3 0.052739 0.786701 0.076359
Si Si4 0.271048 0.050515 0.424190
Si Si5 0.500000 0.449105 0.922326
Si Si6 0.805516 0.646926 0.919499
Si Si7 0.639537 0.225434 0.423492
Si Si8 0.327745 0.593345 0.079385
O O1 0.189097 0.167709 0.750000
O O2 0.260981 0.183529 0.570675
O O3 0.182806 0.237434 0.548826
O O4 0.186289 0.148787 0.454957
O O5 0.069389 0.908506 0.250000
O O6 0.078516 0.838141 0.451630
O O7 0.044891 0.919100 0.532448
O O8 0.130618 0.919759 0.465846
O O9 0.046111 0.778698 0.250000
O O10 0.089586 0.746433 0.014738
O O11 0.000000 0.783599 0.002963
O O12 0.282822 0.048584 0.250000
O O13 0.298534 0.096079 0.494411
O O14 0.215451 0.057167 0.452367
O O15 0.287255 0.000000 0.500000
O O16 0.500000 0.458857 0.750000
O O17 0.500000 0.500000 0.000000
O O18 0.817165 0.633514 0.750000
O O19 0.849605 0.675488 0.989799
O O20 0.635188 0.213282 0.250000
O O21 0.344487 0.589935 0.250000
#
# Coordination Sequence:
#
# PCOD8256051 Si02
#       8
#    16  16  16  16   8  16  16  16
#     4   9  17  30  47  69  98 135 173 206 249 301
#     4  11  20  36  58  75  97 131 169 214 266 320
#     4   9  17  31  53  77 100 132 174 212 257 313
#     4  10  21  37  55  74 100 135 172 212 256 303
#     4  12  26  42  56  74  94 120 164 220 277 324
#     4  10  20  32  48  73 104 135 170 211 253 304
#     4  10  18  30  49  73 102 136 171 209 254 309
#     4  10  20  32  49  75 103 130 167 213 256 302
#
# _framework density 17.136876000000001
#
# number of rings (size 3 to 8) (size 9 to 14) (size 15 to 20)
#    0.000    2.000    2.000    2.600    0.000    3.200 
#    0.000    1.333    0.000    0.000    0.000    0.000 
#    0.000    0.533    0.000    1.467    0.000    2.133 
#
# Total GULP energy -743737.639042 kJ/mol
# GULP energy per Si atom -12395.627317 kJ/mol
# Density = 1.709787 g / cm^3
# Si number density = 17.136876 Si / 1000 Ang^3
#
#
#
# Elastic Constant Matrix: (Units=GPa)
#
#
# Indices 1 2 3 4 5 6 
#
# 1 50.9025 33.4768 26.9673 0.0000 0.0000 0.0000
# 2 33.4768 88.1721 45.2220 0.0000 0.0000 0.0000
# 3 26.9673 45.2220 88.7473 0.0000 0.0000 0.0000
# 4 0.0000 0.0000 0.0000 29.1724 0.0000 0.0000
# 5 0.0000 0.0000 0.0000 0.0000 22.9831 0.0000
# 6 0.0000 0.0000 0.0000 0.0000 0.0000 23.7190
#
#
#
# Elastic Compliance Matrix: (Units=1/GPa)
#
#
# Indices 1 2 3 4 5 6 
#
# 1 0.027227 -0.008250 -0.004069 0.000000 0.000000 0.000000
# 2 -0.008250 0.017854 -0.006591 0.000000 0.000000 0.000000
# 3 -0.004069 -0.006591 0.015863 0.000000 0.000000 0.000000
# 4 0.000000 0.000000 0.000000 0.034279 0.000000 0.000000
# 5 0.000000 0.000000 0.000000 0.000000 0.043510 0.000000
# 6 0.000000 0.000000 0.000000 0.000000 0.000000 0.042160
#
#
# Mechanical properties :
#
#
# Convention : Reuss Voigt Hill
#
# Bulk Modulus (GPa) = 43.24647 48.79491 46.02069
# Shear Modulus (GPa) = 22.08257 23.31862 22.70060
#
# Velocity S-wave (km/s) = 3.59360 3.69281 3.64354
# Velocity P-wave (km/s) = 6.51992 6.83505 6.67934
#
# Compressibility (1/GPa) = 0.02312327
#
# Stress axis : x y z
#
# Youngs Moduli (GPa) = 36.72783 56.00904 63.04026
#
# Poissons Ratio (x) = 0.46210 0.25653
# Poissons Ratio (y) = 0.30302 0.41548
# Poissons Ratio (z) = 0.14946 0.36914
#
# Static dielectric constant tensor:
#      x y z
#    x 3.351840 0.000000 0.000000 
#    y 0.000000 2.816160 0.000000 
#    z 0.000000 0.000000 3.091750 
# 
# 
# High freq. dielectric constant tensor:
#      x y z
#    x 1.640110 0.000000 0.000000 
#    y 0.000000 1.639930 0.000000 
#    z 0.000000 0.000000 1.660190 
# 
# From -- ./inp_files/13140.got.cif
#   From: 2010.03.12/outbox.cif.g09.slc.cpg/sg63_7_cif.got.tgz:13140.got - 2010.04.10 19:34:48.
