data_PCOD8256835
_publ_section_title
;
Structure prediction by ZEFSAII (Michael W. Deem and Ramdas Pophale) SiO2 
 PCOD8256835
Probable space group: C M C M
;
_chemical_formula_sum "Si O2"
_cell_formula_units_Z 128
_cell_length_a 19.031281
_cell_length_b 21.679234
_cell_length_c 19.334392
_cell_angle_alpha 90.000000
_cell_angle_beta 90.000000
_cell_angle_gamma 90.000000
_cell_volume 7977.052941
_symmetry_space_group_name_H-M "C M C M"
_symmetry_group_IT_number 63
_symmetry_cell_setting 'orthorhombic'
loop_
_space_group_symop_operation_xyz
x,y,z
-x,-y,1/2+z
x,-y,-z
-x,y,1/2-z
-x,-y,-z
x,y,1/2-z
-x,y,z
x,-y,1/2+z
1/2+x,1/2+y,z
1/2-x,1/2-y,1/2+z
1/2+x,1/2-y,-z
1/2-x,1/2+y,1/2-z
1/2-x,1/2-y,-z
1/2+x,1/2+y,1/2-z
1/2-x,1/2+y,z
1/2+x,1/2-y,1/2+z
loop_
_atom_site_type_symbol
_atom_site_label
_atom_site_fract_x
_atom_site_fract_y
_atom_site_fract_z
Si Si1 0.419677 0.615108 0.826343
Si Si2 0.081419 0.834267 0.030288
Si Si3 0.079720 0.586980 0.924741
Si Si4 0.336103 0.992112 0.171264
Si Si5 0.175064 0.001188 0.327142
Si Si6 0.680511 0.565462 0.038152
Si Si7 0.339889 0.910873 0.944949
Si Si8 0.079885 0.302566 0.988930
O O1 0.399810 0.642040 0.750000
O O2 0.500000 0.593207 0.827055
O O3 0.406241 0.665109 0.886507
O O4 0.374755 0.555432 0.844287
O O5 0.000000 0.846427 0.012027
O O6 0.126244 0.886740 0.993646
O O7 0.106757 0.767437 0.003166
O O8 0.120566 0.567234 0.855444
O O9 0.082324 0.661808 0.936388
O O10 0.000000 0.562959 0.920126
O O11 0.118067 0.556375 0.991682
O O12 0.357971 0.006171 0.250000
O O13 0.254212 0.975989 0.164557
O O14 0.354204 0.052075 0.125469
O O15 0.162133 0.027455 0.250000
O O16 0.160055 0.055800 0.381323
O O17 0.758522 0.592893 0.033463
O O18 0.676490 0.500000 0.000000
O O19 0.370506 0.841040 0.935559
O O20 0.000000 0.302155 0.959865
#
# Coordination Sequence:
#
# PCOD8256835 Si02
#       8
#    16  16  16  16  16  16  16  16
#     4   9  17  29  47  69  95 129 164 198 243 298
#     4  10  20  33  49  72 102 129 167 213 245 286
#     4   9  18  32  50  68  95 131 165 198 241 291
#     4  10  19  30  48  75 102 130 161 203 253 293
#     4   9  18  32  46  66 102 134 153 191 252 304
#     4  11  19  29  49  78 100 123 162 207 252 293
#     4   9  18  32  50  70  98 129 163 200 238 300
#     4   8  18  34  50  67  94 135 170 197 244 293
#
# _framework density 16.046026999999999
#
# number of rings (size 3 to 8) (size 9 to 14) (size 15 to 20)
#    0.750    1.875    1.250    1.875    0.000    3.000 
#    0.000    0.625    0.000    1.500    0.000    1.750 
#    0.000    0.000    0.000    0.000    0.000    0.000 
#
# Total GULP energy -792980.557249 kJ/mol
# GULP energy per Si atom -12390.321207 kJ/mol
# Density = 1.600951 g / cm^3
# Si number density = 16.046027 Si / 1000 Ang^3
#
#
#
# Elastic Constant Matrix: (Units=GPa)
#
#
# Indices 1 2 3 4 5 6 
#
# 1 72.5431 53.0842 42.0825 0.0000 0.0000 0.0000
# 2 53.0842 105.7763 46.0341 0.0000 0.0000 0.0000
# 3 42.0825 46.0341 100.6848 0.0000 0.0000 0.0000
# 4 0.0000 0.0000 0.0000 11.8304 0.0000 0.0000
# 5 0.0000 0.0000 0.0000 0.0000 20.5079 0.0000
# 6 0.0000 0.0000 0.0000 0.0000 0.0000 23.4077
#
#
#
# Elastic Compliance Matrix: (Units=1/GPa)
#
#
# Indices 1 2 3 4 5 6 
#
# 1 0.024134 -0.009640 -0.005680 0.000000 0.000000 0.000000
# 2 -0.009640 0.015653 -0.003128 0.000000 0.000000 0.000000
# 3 -0.005680 -0.003128 0.013736 0.000000 0.000000 0.000000
# 4 0.000000 0.000000 0.000000 0.084528 0.000000 0.000000
# 5 0.000000 0.000000 0.000000 0.000000 0.048762 0.000000
# 6 0.000000 0.000000 0.000000 0.000000 0.000000 0.042721
#
#
# Mechanical properties :
#
#
# Convention : Reuss Voigt Hill
#
# Bulk Modulus (GPa) = 60.13797 62.37843 61.25820
# Shear Modulus (GPa) = 18.38440 20.33609 19.36025
#
# Velocity S-wave (km/s) = 3.38853 3.56386 3.47730
# Velocity P-wave (km/s) = 7.27113 7.47622 7.37439
#
# Compressibility (1/GPa) = 0.01662843
#
# Stress axis : x y z
#
# Youngs Moduli (GPa) = 41.43595 63.88642 72.80266
#
# Poissons Ratio (x) = 0.61585 0.41349
# Poissons Ratio (y) = 0.39943 0.22769
# Poissons Ratio (z) = 0.23534 0.19981
#
# Static dielectric constant tensor:
#      x y z
#    x 3.099770 0.000000 0.000000 
#    y 0.000000 2.837900 0.000000 
#    z 0.000000 0.000000 3.160650 
# 
# 
# High freq. dielectric constant tensor:
#      x y z
#    x 1.625090 0.000000 0.000000 
#    y 0.000000 1.589900 0.000000 
#    z 0.000000 0.000000 1.607330 
# 
# From -- ./inp_files/56020.got.cif
#   From: 2010.03.12/outbox.cif.g09.slc.cpg/sg63_29_cif.got.tgz:56020.got - 2010.04.10 19:34:48.
