data_PCOD8256728
_publ_section_title
;
Structure prediction by ZEFSAII (Michael W. Deem and Ramdas Pophale) SiO2 
 PCOD8256728
Probable space group: C M C M
;
_chemical_formula_sum "Si O2"
_cell_formula_units_Z 80
_cell_length_a 24.714738
_cell_length_b 22.225819
_cell_length_c 9.974947
_cell_angle_alpha 90.000000
_cell_angle_beta 90.000000
_cell_angle_gamma 90.000000
_cell_volume 5479.291189
_symmetry_space_group_name_H-M "C M C M"
_symmetry_group_IT_number 63
_symmetry_cell_setting 'orthorhombic'
loop_
_space_group_symop_operation_xyz
x,y,z
-x,-y,1/2+z
x,-y,-z
-x,y,1/2-z
-x,-y,-z
x,y,1/2-z
-x,y,z
x,-y,1/2+z
1/2+x,1/2+y,z
1/2-x,1/2-y,1/2+z
1/2+x,1/2-y,-z
1/2-x,1/2+y,1/2-z
1/2-x,1/2-y,-z
1/2+x,1/2+y,1/2-z
1/2-x,1/2+y,z
1/2+x,1/2-y,1/2+z
loop_
_atom_site_type_symbol
_atom_site_label
_atom_site_fract_x
_atom_site_fract_y
_atom_site_fract_z
Si Si1 0.729816 0.056214 0.091079
Si Si2 0.565123 0.916608 0.250000
Si Si3 0.119446 0.618952 0.018241
Si Si4 0.212288 0.174761 0.102294
Si Si5 0.171845 0.737390 0.100321
Si Si6 0.562620 0.052308 0.250000
O O1 0.721218 0.041048 0.250000
O O2 0.675212 0.082487 0.027462
O O3 0.778332 0.104196 0.073559
O O4 0.747191 0.000000 0.000000
O O5 0.500000 0.910658 0.250000
O O6 0.591579 0.883151 0.375032
O O7 0.587182 0.985137 0.250000
O O8 0.127730 0.689065 0.052296
O O9 0.078006 0.589076 0.119673
O O10 0.186833 0.183625 0.250000
O O11 0.269991 0.206765 0.096674
O O12 0.171291 0.203948 0.995163
O O13 0.157443 0.759057 0.250000
O O14 0.500000 0.042094 0.250000
#
# Coordination Sequence:
#
# PCOD8256728 Si02
#       6
#    16   8  16  16  16   8
#     4  10  19  30  44  65  89 113 143 176 210 251
#     4  11  24  34  44  61  80 108 147 184 227 271
#     4  11  20  32  45  63  80 107 145 187 217 257
#     4   8  16  28  42  61  85 108 133 170 209 245
#     4   9  16  29  44  61  81 103 137 175 211 251
#     4  11  20  34  48  57  80 110 139 182 233 263
#
# _framework density 14.600429
#
# number of rings (size 3 to 8) (size 9 to 14) (size 15 to 20)
#    0.000    2.200    2.000    3.600    2.800    2.400 
#    3.600    0.000    0.000    0.000    0.000    0.000 
#    0.000    0.000    0.000    0.000    0.000    6.000 
#
# Total GULP energy -495834.199409 kJ/mol
# GULP energy per Si atom -12395.854985 kJ/mol
# Density = 1.456720 g / cm^3
# Si number density = 14.600429 Si / 1000 Ang^3
#
#
#
# Elastic Constant Matrix: (Units=GPa)
#
#
# Indices 1 2 3 4 5 6 
#
# 1 28.7064 26.6712 33.4813 0.0000 0.0000 0.0000
# 2 26.6712 79.5992 58.3136 0.0000 0.0000 0.0000
# 3 33.4813 58.3136 140.1378 0.0000 0.0000 0.0000
# 4 0.0000 0.0000 0.0000 31.8804 0.0000 0.0000
# 5 0.0000 0.0000 0.0000 0.0000 8.9990 0.0000
# 6 0.0000 0.0000 0.0000 0.0000 0.0000 20.4725
#
#
#
# Elastic Compliance Matrix: (Units=1/GPa)
#
#
# Indices 1 2 3 4 5 6 
#
# 1 0.056261 -0.012953 -0.008052 0.000000 0.000000 0.000000
# 2 -0.012953 0.021054 -0.005666 0.000000 0.000000 0.000000
# 3 -0.008052 -0.005666 0.011417 0.000000 0.000000 0.000000
# 4 0.000000 0.000000 0.000000 0.031367 0.000000 0.000000
# 5 0.000000 0.000000 0.000000 0.000000 0.111123 0.000000
# 6 0.000000 0.000000 0.000000 0.000000 0.000000 0.048846
#
#
# Mechanical properties :
#
#
# Convention : Reuss Voigt Hill
#
# Bulk Modulus (GPa) = 28.25589 53.93062 41.09326
# Shear Modulus (GPa) = 14.48404 20.93554 17.70979
#
# Velocity S-wave (km/s) = 3.15307 3.79079 3.48654
# Velocity P-wave (km/s) = 5.71407 7.49520 6.66441
#
# Compressibility (1/GPa) = 0.03539085
#
# Stress axis : x y z
#
# Youngs Moduli (GPa) = 17.77427 47.49682 87.58532
#
# Poissons Ratio (x) = 0.61521 0.70523
# Poissons Ratio (y) = 0.23022 0.49629
# Poissons Ratio (z) = 0.14312 0.26913
#
# Static dielectric constant tensor:
#      x y z
#    x 2.478200 0.000000 0.000000 
#    y 0.000000 2.924430 0.000000 
#    z 0.000000 0.000000 2.726370 
# 
# 
# High freq. dielectric constant tensor:
#      x y z
#    x 1.504470 0.000000 0.000000 
#    y 0.000000 1.547280 0.000000 
#    z 0.000000 0.000000 1.578230 
# 
# From -- ./inp_files/8055.got.cif
#   From: 2010.03.12/outbox.cif.g09.slc.cpg/sg63_5_cif.got.tgz:8055.got - 2010.04.10 19:34:48.
