data_PCOD8256489
_publ_section_title
;
Structure prediction by ZEFSAII (Michael W. Deem and Ramdas Pophale) SiO2 
 PCOD8256489
Probable space group: C M C M
;
_chemical_formula_sum "Si O2"
_cell_formula_units_Z 96
_cell_length_a 23.410128
_cell_length_b 25.554088
_cell_length_c 9.131135
_cell_angle_alpha 90.000000
_cell_angle_beta 90.000000
_cell_angle_gamma 90.000000
_cell_volume 5462.468405
_symmetry_space_group_name_H-M "C M C M"
_symmetry_group_IT_number 63
_symmetry_cell_setting 'orthorhombic'
loop_
_space_group_symop_operation_xyz
x,y,z
-x,-y,1/2+z
x,-y,-z
-x,y,1/2-z
-x,-y,-z
x,y,1/2-z
-x,y,z
x,-y,1/2+z
1/2+x,1/2+y,z
1/2-x,1/2-y,1/2+z
1/2+x,1/2-y,-z
1/2-x,1/2+y,1/2-z
1/2-x,1/2-y,-z
1/2+x,1/2+y,1/2-z
1/2-x,1/2+y,z
1/2+x,1/2-y,1/2+z
loop_
_atom_site_type_symbol
_atom_site_label
_atom_site_fract_x
_atom_site_fract_y
_atom_site_fract_z
Si Si1 0.321018 0.051767 0.580163
Si Si2 0.878902 0.151774 0.576505
Si Si3 0.121647 0.341384 0.080407
Si Si4 0.500000 0.312243 0.423724
Si Si5 0.500000 0.202822 0.583071
Si Si6 0.310338 0.752767 0.576068
Si Si7 0.309569 0.447175 0.422839
O O1 0.324014 0.039185 0.750000
O O2 0.362218 0.099488 0.537015
O O3 0.255913 0.065549 0.534557
O O4 0.343398 0.000000 0.500000
O O5 0.876206 0.150086 0.750000
O O6 0.944400 0.155874 0.521331
O O7 0.845716 0.202736 0.520174
O O8 0.848940 0.099659 0.514126
O O9 0.137801 0.330224 0.250000
O O10 0.054708 0.333257 0.050353
O O11 0.157332 0.304286 0.975113
O O12 0.500000 0.306727 0.250000
O O13 0.500000 0.253494 0.482255
O O14 0.500000 0.222629 0.750000
O O15 0.302976 0.753569 0.750000
O O16 0.250000 0.750000 0.500000
O O17 0.330692 0.500000 0.500000
O O18 0.317058 0.453850 0.250000
#
# Coordination Sequence:
#
# PCOD8256489 Si02
#       7
#    16  16  16   8   8  16  16
#     4   9  18  33  53  73 101 136 174 216 262 315
#     4   9  18  32  52  74 100 133 170 209 253 305
#     4  10  20  35  53  76 106 140 173 214 266 318
#     4  10  18  34  55  74  98 136 179 211 248 307
#     4  10  20  34  53  76 106 140 173 213 266 315
#     4  11  21  33  51  77 106 136 171 216 264 317
#     4   9  17  32  51  72  97 130 168 209 256 305
#
# _framework density 17.574473000000001
#
# number of rings (size 3 to 8) (size 9 to 14) (size 15 to 20)
#    0.000    2.333    1.667    1.500    0.000    3.333 
#    0.000    6.667    0.000    0.000    0.000    0.000 
#    0.000    0.000    0.000    0.000    0.000    0.000 
#
# Total GULP energy -595224.310222 kJ/mol
# GULP energy per Si atom -12400.506463 kJ/mol
# Density = 1.753447 g / cm^3
# Si number density = 17.574473 Si / 1000 Ang^3
#
#
#
# Elastic Constant Matrix: (Units=GPa)
#
#
# Indices 1 2 3 4 5 6 
#
# 1 131.6767 70.8518 37.2593 0.0000 0.0000 0.0000
# 2 70.8518 142.9698 40.1375 0.0000 0.0000 0.0000
# 3 37.2593 40.1375 42.5202 0.0000 0.0000 0.0000
# 4 0.0000 0.0000 0.0000 31.6142 0.0000 0.0000
# 5 0.0000 0.0000 0.0000 0.0000 21.5451 0.0000
# 6 0.0000 0.0000 0.0000 0.0000 0.0000 24.6017
#
#
#
# Elastic Compliance Matrix: (Units=1/GPa)
#
#
# Indices 1 2 3 4 5 6 
#
# 1 0.011506 -0.003907 -0.006394 0.000000 0.000000 0.000000
# 2 -0.003907 0.010843 -0.006812 0.000000 0.000000 0.000000
# 3 -0.006394 -0.006812 0.035552 0.000000 0.000000 0.000000
# 4 0.000000 0.000000 0.000000 0.031631 0.000000 0.000000
# 5 0.000000 0.000000 0.000000 0.000000 0.046414 0.000000
# 6 0.000000 0.000000 0.000000 0.000000 0.000000 0.040648
#
#
# Mechanical properties :
#
#
# Convention : Reuss Voigt Hill
#
# Bulk Modulus (GPa) = 42.23996 68.18489 55.21243
# Shear Modulus (GPa) = 22.86116 26.81340 24.83728
#
# Velocity S-wave (km/s) = 3.61060 3.91026 3.76341
# Velocity P-wave (km/s) = 6.43963 7.69862 7.09710
#
# Compressibility (1/GPa) = 0.02367426
#
# Stress axis : x y z
#
# Youngs Moduli (GPa) = 86.91202 92.22551 28.12802
#
# Poissons Ratio (x) = 0.36031 0.17986
# Poissons Ratio (y) = 0.33955 0.19161
# Poissons Ratio (z) = 0.55575 0.62823
#
# Static dielectric constant tensor:
#      x y z
#    x 3.444490 0.000000 0.000000 
#    y 0.000000 3.377220 0.000000 
#    z 0.000000 0.000000 3.111240 
# 
# 
# High freq. dielectric constant tensor:
#      x y z
#    x 1.683010 0.000000 0.000000 
#    y 0.000000 1.680260 0.000000 
#    z 0.000000 0.000000 1.661930 
# 
# From -- ./inp_files/10529.got.cif
#   From: 2010.03.12/outbox.cif.g09.slc.cpg/sg63_6_cif.got.tgz:10529.got - 2010.04.10 19:34:48.
