data_PCOD8256657
_publ_section_title
;
Structure prediction by ZEFSAII (Michael W. Deem and Ramdas Pophale) SiO2 
 PCOD8256657
Probable space group: C M C M
;
_chemical_formula_sum "Si O2"
_cell_formula_units_Z 96
_cell_length_a 9.459108
_cell_length_b 23.666238
_cell_length_c 25.377039
_cell_angle_alpha 90.000000
_cell_angle_beta 90.000000
_cell_angle_gamma 90.000000
_cell_volume 5680.942046
_symmetry_space_group_name_H-M "C M C M"
_symmetry_group_IT_number 63
_symmetry_cell_setting 'orthorhombic'
loop_
_space_group_symop_operation_xyz
x,y,z
-x,-y,1/2+z
x,-y,-z
-x,y,1/2-z
-x,-y,-z
x,y,1/2-z
-x,y,z
x,-y,1/2+z
1/2+x,1/2+y,z
1/2-x,1/2-y,1/2+z
1/2+x,1/2-y,-z
1/2-x,1/2+y,1/2-z
1/2-x,1/2-y,-z
1/2+x,1/2+y,1/2-z
1/2-x,1/2+y,z
1/2+x,1/2-y,1/2+z
loop_
_atom_site_type_symbol
_atom_site_label
_atom_site_fract_x
_atom_site_fract_y
_atom_site_fract_z
Si Si1 0.662021 0.817185 0.311186
Si Si2 0.165334 0.192612 0.502524
Si Si3 0.832019 0.118093 0.404563
Si Si4 0.168422 0.810099 0.691827
Si Si5 0.831613 0.998426 0.059359
Si Si6 0.834541 0.880504 0.395698
O O1 0.678164 0.832338 0.250000
O O2 0.500000 0.822891 0.329364
O O3 0.717551 0.753509 0.322012
O O4 0.755251 0.861195 0.343408
O O5 0.250000 0.250000 0.500000
O O6 0.219292 0.152849 0.455307
O O7 0.200100 0.162028 0.557072
O O8 0.000000 0.205854 0.496738
O O9 0.769327 0.146607 0.351478
O O10 0.777037 0.053726 0.409158
O O11 0.000000 0.118649 0.402397
O O12 0.224590 0.827579 0.750000
O O13 0.000000 0.811018 0.692175
O O14 0.000000 0.997553 0.056200
O O15 0.777310 0.942698 0.089187
O O16 0.770631 0.000000 0.000000
O O17 0.000000 0.882177 0.383382
#
# Coordination Sequence:
#
# PCOD8256657 Si02
#       6
#    16  16  16  16  16  16
#     4   9  18  33  51  69  93 127 159 187 231 290
#     4  10  19  29  44  68  95 123 155 193 238 286
#     4   9  15  25  43  64  88 121 156 188 229 278
#     4   8  14  25  42  64  87 113 151 195 232 269
#     4   9  15  27  44  63  91 128 160 185 227 287
#     4  10  19  30  47  72  97 121 157 201 240 279
#
# _framework density 16.898606000000001
#
# number of rings (size 3 to 8) (size 9 to 14) (size 15 to 20)
#    0.000    2.833    1.667    2.000    0.000    2.333 
#    0.000    0.833    0.000    4.500    0.000    0.000 
#    0.000    0.000    0.000    0.000    0.000    0.000 
#
# Total GULP energy -595050.999625 kJ/mol
# GULP energy per Si atom -12396.895826 kJ/mol
# Density = 1.686014 g / cm^3
# Si number density = 16.898606 Si / 1000 Ang^3
#
#
#
# Elastic Constant Matrix: (Units=GPa)
#
#
# Indices 1 2 3 4 5 6 
#
# 1 23.4315 34.7135 28.7538 0.0000 0.0000 0.0000
# 2 34.7135 154.0571 72.4403 0.0000 0.0000 0.0000
# 3 28.7538 72.4403 111.2510 0.0000 0.0000 0.0000
# 4 0.0000 0.0000 0.0000 30.0680 0.0000 0.0000
# 5 0.0000 0.0000 0.0000 0.0000 20.0002 0.0000
# 6 0.0000 0.0000 0.0000 0.0000 0.0000 19.7957
#
#
#
# Elastic Compliance Matrix: (Units=1/GPa)
#
#
# Indices 1 2 3 4 5 6 
#
# 1 0.073488 -0.010994 -0.011835 0.000000 0.000000 0.000000
# 2 -0.010994 0.011000 -0.004321 0.000000 0.000000 0.000000
# 3 -0.011835 -0.004321 0.014861 0.000000 0.000000 0.000000
# 4 0.000000 0.000000 0.000000 0.033258 0.000000 0.000000
# 5 0.000000 0.000000 0.000000 0.000000 0.049999 0.000000
# 6 0.000000 0.000000 0.000000 0.000000 0.000000 0.050516
#
#
# Mechanical properties :
#
#
# Convention : Reuss Voigt Hill
#
# Bulk Modulus (GPa) = 22.19788 62.28384 42.24086
# Shear Modulus (GPa) = 16.53218 24.16158 20.34688
#
# Velocity S-wave (km/s) = 3.13120 3.78537 3.47372
# Velocity P-wave (km/s) = 5.12220 7.48617 6.41404
#
# Compressibility (1/GPa) = 0.04504934
#
# Stress axis : x y z
#
# Youngs Moduli (GPa) = 13.60761 90.90672 67.28880
#
# Poissons Ratio (x) = 0.99943 0.79637
# Poissons Ratio (y) = 0.14960 0.29077
# Poissons Ratio (z) = 0.16105 0.39283
#
# Static dielectric constant tensor:
#      x y z
#    x 2.626490 0.000000 0.000000 
#    y 0.000000 3.345630 0.000000 
#    z 0.000000 0.000000 3.340420 
# 
# 
# High freq. dielectric constant tensor:
#      x y z
#    x 1.592570 0.000000 0.000000 
#    y 0.000000 1.657750 0.000000 
#    z 0.000000 0.000000 1.658240 
# 
# From -- ./inp_files/59842.got.cif
#   From: 2010.03.12/outbox.cif.g09.slc.cpg/sg63_30_cif.got.tgz:59842.got - 2010.04.10 19:34:48.
