data_PCOD8256186
_publ_section_title
;
Structure prediction by ZEFSAII (Michael W. Deem and Ramdas Pophale) SiO2 
 PCOD8256186
Probable space group: C M C M
;
_chemical_formula_sum "Si O2"
_cell_formula_units_Z 128
_cell_length_a 12.376001
_cell_length_b 26.689032
_cell_length_c 24.119779
_cell_angle_alpha 90.000000
_cell_angle_beta 90.000000
_cell_angle_gamma 90.000000
_cell_volume 7966.847103
_symmetry_space_group_name_H-M "C M C M"
_symmetry_group_IT_number 63
_symmetry_cell_setting 'orthorhombic'
loop_
_space_group_symop_operation_xyz
x,y,z
-x,-y,1/2+z
x,-y,-z
-x,y,1/2-z
-x,-y,-z
x,y,1/2-z
-x,y,z
x,-y,1/2+z
1/2+x,1/2+y,z
1/2-x,1/2-y,1/2+z
1/2+x,1/2-y,-z
1/2-x,1/2+y,1/2-z
1/2-x,1/2-y,-z
1/2+x,1/2+y,1/2-z
1/2-x,1/2+y,z
1/2+x,1/2-y,1/2+z
loop_
_atom_site_type_symbol
_atom_site_label
_atom_site_fract_x
_atom_site_fract_y
_atom_site_fract_z
Si Si1 0.741520 0.629939 0.688695
Si Si2 0.624913 0.402785 0.415627
Si Si3 0.626215 0.966095 0.310676
Si Si4 0.260515 0.169421 0.991703
Si Si5 0.786505 0.486553 0.421637
Si Si6 0.622630 0.227544 0.811987
Si Si7 0.873703 0.239827 0.068911
Si Si8 0.878230 0.426724 0.987215
O O1 0.690492 0.626758 0.750000
O O2 0.645827 0.616845 0.646557
O O3 0.840163 0.591482 0.681405
O O4 0.791701 0.683988 0.677934
O O5 0.500000 0.405300 0.428278
O O6 0.676546 0.362579 0.456540
O O7 0.670077 0.459288 0.424524
O O8 0.662672 0.986117 0.250000
O O9 0.500000 0.970296 0.317606
O O10 0.682918 0.998835 0.358166
O O11 0.194683 0.195633 0.041077
O O12 0.347415 0.131430 0.018548
O O13 0.325978 0.207613 0.952871
O O14 0.871167 0.446743 0.449258
O O15 0.791517 0.539645 0.453055
O O16 0.641361 0.251790 0.750000
O O17 0.500000 0.206556 0.814878
O O18 0.639952 0.265341 0.863959
O O19 0.000000 0.236043 0.052168
O O20 0.000000 0.434126 0.964898
#
# Coordination Sequence:
#
# PCOD8256186 Si02
#       8
#    16  16  16  16  16  16  16  16
#     4   9  16  26  40  63  92 122 155 187 222 275
#     4  10  19  31  44  63  93 129 159 191 226 270
#     4   9  15  23  39  64  93 119 142 177 227 274
#     4  10  20  32  46  69  94 121 158 191 229 279
#     4   9  18  30  45  68  92 118 152 191 222 272
#     4   9  16  27  46  71  94 117 148 191 240 280
#     4  10  19  32  49  69  94 123 153 192 235 278
#     4  10  18  31  50  70  92 118 148 186 231 276
#
# _framework density 16.066582
#
# number of rings (size 3 to 8) (size 9 to 14) (size 15 to 20)
#    0.000    2.500    1.250    2.625    0.000    1.750 
#    0.000    5.625    0.000    0.750    0.000    0.000 
#    0.000    2.000    0.000    0.000    0.000    0.000 
#
# Total GULP energy -793043.819783 kJ/mol
# GULP energy per Si atom -12391.309684 kJ/mol
# Density = 1.603001 g / cm^3
# Si number density = 16.066582 Si / 1000 Ang^3
#
#
#
# Elastic Constant Matrix: (Units=GPa)
#
#
# Indices 1 2 3 4 5 6 
#
# 1 75.0997 25.7747 27.8605 0.0000 0.0000 0.0000
# 2 25.7747 66.3045 36.2842 0.0000 0.0000 0.0000
# 3 27.8605 36.2842 104.7769 0.0000 0.0000 0.0000
# 4 0.0000 0.0000 0.0000 18.7492 0.0000 0.0000
# 5 0.0000 0.0000 0.0000 0.0000 20.0695 0.0000
# 6 0.0000 0.0000 0.0000 0.0000 0.0000 16.2280
#
#
#
# Elastic Compliance Matrix: (Units=1/GPa)
#
#
# Indices 1 2 3 4 5 6 
#
# 1 0.015910 -0.004775 -0.002577 0.000000 0.000000 0.000000
# 2 -0.004775 0.020041 -0.005671 0.000000 0.000000 0.000000
# 3 -0.002577 -0.005671 0.012193 0.000000 0.000000 0.000000
# 4 0.000000 0.000000 0.000000 0.053336 0.000000 0.000000
# 5 0.000000 0.000000 0.000000 0.000000 0.049827 0.000000
# 6 0.000000 0.000000 0.000000 0.000000 0.000000 0.061622
#
#
# Mechanical properties :
#
#
# Convention : Reuss Voigt Hill
#
# Bulk Modulus (GPa) = 45.24924 47.33555 46.29240
# Shear Modulus (GPa) = 20.29712 21.42679 20.86195
#
# Velocity S-wave (km/s) = 3.55817 3.65584 3.60734
# Velocity P-wave (km/s) = 6.71606 6.88087 6.79896
#
# Compressibility (1/GPa) = 0.02209982
#
# Stress axis : x y z
#
# Youngs Moduli (GPa) = 62.85204 49.89733 82.01345
#
# Poissons Ratio (x) = 0.23824 0.21136
# Poissons Ratio (y) = 0.30009 0.46507
# Poissons Ratio (z) = 0.16198 0.28295
#
# Static dielectric constant tensor:
#      x y z
#    x 2.866330 0.000000 0.000000 
#    y 0.000000 2.794820 0.000000 
#    z 0.000000 0.000000 3.418250 
# 
# 
# High freq. dielectric constant tensor:
#      x y z
#    x 1.603370 0.000000 0.000000 
#    y 0.000000 1.583830 0.000000 
#    z 0.000000 0.000000 1.628630 
# 
# From -- ./inp_files/62059.got.cif
#   From: 2010.03.12/outbox.cif.g09.slc.cpg/sg63_32_cif.got.tgz:62059.got - 2010.04.10 19:34:48.
