data_PCOD8256570
_publ_section_title
;
Structure prediction by ZEFSAII (Michael W. Deem and Ramdas Pophale) SiO2 
 PCOD8256570
Probable space group: C M C M
;
_chemical_formula_sum "Si O2"
_cell_formula_units_Z 88
_cell_length_a 11.928385
_cell_length_b 13.310834
_cell_length_c 28.130130
_cell_angle_alpha 90.000000
_cell_angle_beta 90.000000
_cell_angle_gamma 90.000000
_cell_volume 4466.410692
_symmetry_space_group_name_H-M "C M C M"
_symmetry_group_IT_number 63
_symmetry_cell_setting 'orthorhombic'
loop_
_space_group_symop_operation_xyz
x,y,z
-x,-y,1/2+z
x,-y,-z
-x,y,1/2-z
-x,-y,-z
x,y,1/2-z
-x,y,z
x,-y,1/2+z
1/2+x,1/2+y,z
1/2-x,1/2-y,1/2+z
1/2+x,1/2-y,-z
1/2-x,1/2+y,1/2-z
1/2-x,1/2-y,-z
1/2+x,1/2+y,1/2-z
1/2-x,1/2+y,z
1/2+x,1/2-y,1/2+z
loop_
_atom_site_type_symbol
_atom_site_label
_atom_site_fract_x
_atom_site_fract_y
_atom_site_fract_z
Si Si1 0.500000 0.102352 0.402840
Si Si2 0.791161 0.703565 0.821056
Si Si3 0.132089 0.864354 0.750000
Si Si4 0.500000 0.909933 0.348577
Si Si5 0.745854 0.113203 0.506502
Si Si6 0.866655 0.097754 0.750000
Si Si7 0.500000 0.906092 0.455155
Si Si8 0.706803 0.238388 0.079309
O O1 0.500000 0.029762 0.449942
O O2 0.396570 0.176369 0.401167
O O3 0.500000 0.031565 0.355648
O O4 0.819290 0.809011 0.796239
O O5 0.683541 0.650837 0.797029
O O6 0.777507 0.727594 0.875993
O O7 0.893039 0.624351 0.817856
O O8 0.000000 0.854544 0.750000
O O9 0.167942 0.980712 0.750000
O O10 0.500000 0.860312 0.401631
O O11 0.612841 0.127921 0.517896
O O12 0.776476 0.168381 0.457175
O O13 0.820916 0.160433 0.549065
O O14 0.783310 0.000000 0.500000
O O15 0.000000 0.112656 0.750000
#
# Coordination Sequence:
#
# PCOD8256570 Si02
#       8
#     8  16   8   8  16   8   8  16
#     4  10  21  36  58  91 119 164 208 255 324 345
#     4  11  23  42  66  93 122 155 215 258 302 377
#     4  10  22  42  69  89 118 158 202 246 317 380
#     4  10  20  39  67  93 114 160 211 270 295 350
#     4  11  20  36  57  90 124 167 212 253 306 361
#     4  10  26  45  62  90 129 164 187 249 328 379
#     4  10  18  37  59  84 121 163 210 263 304 346
#     4  11  23  34  60  90 124 163 205 257 311 372
#
# _framework density 19.702622999999999
#
# number of rings (size 3 to 8) (size 9 to 14) (size 15 to 20)
#    0.545    0.909    4.545    0.818    3.818    0.000 
#    0.000    0.455    0.000    0.000    0.000    0.000 
#    0.000    0.000    0.000    0.000    0.000    0.000 
#
# Total GULP energy -545305.086663 kJ/mol
# GULP energy per Si atom -12393.297424 kJ/mol
# Density = 1.965778 g / cm^3
# Si number density = 19.702623 Si / 1000 Ang^3
#
#
#
# Elastic Constant Matrix: (Units=GPa)
#
#
# Indices 1 2 3 4 5 6 
#
# 1 83.9499 45.1217 24.1901 0.0000 0.0000 0.0000
# 2 45.1217 135.8890 44.1462 0.0000 0.0000 0.0000
# 3 24.1901 44.1462 106.3711 0.0000 0.0000 0.0000
# 4 0.0000 0.0000 0.0000 365.3711 0.0000 0.0000
# 5 0.0000 0.0000 0.0000 0.0000 -7.9550 0.0000
# 6 0.0000 0.0000 0.0000 0.0000 0.0000 27.3200
#
#
#
# Elastic Compliance Matrix: (Units=1/GPa)
#
#
# Indices 1 2 3 4 5 6 
#
# 1 0.014710 -0.004390 -0.001524 0.000000 0.000000 0.000000
# 2 -0.004390 0.009816 -0.003075 0.000000 0.000000 0.000000
# 3 -0.001524 -0.003075 0.011024 0.000000 0.000000 0.000000
# 4 0.000000 0.000000 0.000000 0.002737 0.000000 0.000000
# 5 0.000000 0.000000 0.000000 0.000000 -0.125708 0.000000
# 6 0.000000 0.000000 0.000000 0.000000 0.000000 0.036603
#
#
# Mechanical properties :
#
#
# Convention : Reuss Voigt Hill
#
# Bulk Modulus (GPa) = 56.90660 61.45844 59.18252
# Shear Modulus (GPa) = -185.30153 91.13068 -47.08542
#
# Velocity S-wave (km/s) = -9.70842 6.80834 -4.89387
# Velocity P-wave (km/s) = 9.83492 9.64704 1.35283
#
# Compressibility (1/GPa) = 0.01757265
#
# Stress axis : x y z
#
# Youngs Moduli (GPa) = 67.98011 101.87866 90.71203
#
# Poissons Ratio (x) = 0.44720 0.13820
# Poissons Ratio (y) = 0.29840 0.27898
# Poissons Ratio (z) = 0.10357 0.31332
#
# Static dielectric constant tensor:
#      x y z
#    x 3.372120 0.000000 0.000000 
#    y 0.000000 3.756970 0.000000 
#    z 0.000000 0.000000 3.589500 
# 
# 
# High freq. dielectric constant tensor:
#      x y z
#    x 1.744920 0.000000 0.000000 
#    y 0.000000 1.773190 0.000000 
#    z 0.000000 0.000000 1.773670 
# 
# From -- ./inp_files/68257.got.cif
#   From: 2010.03.12/outbox.cif.g09.slc.cpg/sg63_35_cif.got.tgz:68257.got - 2010.04.10 19:34:48.
