data_PCOD8256299
_publ_section_title
;
Structure prediction by ZEFSAII (Michael W. Deem and Ramdas Pophale) SiO2 
 PCOD8256299
Probable space group: C M C M
;
_chemical_formula_sum "Si O2"
_cell_formula_units_Z 96
_cell_length_a 8.674228
_cell_length_b 27.698921
_cell_length_c 22.856009
_cell_angle_alpha 90.000000
_cell_angle_beta 90.000000
_cell_angle_gamma 90.000000
_cell_volume 5491.539140
_symmetry_space_group_name_H-M "C M C M"
_symmetry_group_IT_number 63
_symmetry_cell_setting 'orthorhombic'
loop_
_space_group_symop_operation_xyz
x,y,z
-x,-y,1/2+z
x,-y,-z
-x,y,1/2-z
-x,-y,-z
x,y,1/2-z
-x,y,z
x,-y,1/2+z
1/2+x,1/2+y,z
1/2-x,1/2-y,1/2+z
1/2+x,1/2-y,-z
1/2-x,1/2+y,1/2-z
1/2-x,1/2-y,-z
1/2+x,1/2+y,1/2-z
1/2-x,1/2+y,z
1/2+x,1/2-y,1/2+z
loop_
_atom_site_type_symbol
_atom_site_label
_atom_site_fract_x
_atom_site_fract_y
_atom_site_fract_z
Si Si1 0.675527 0.193718 0.942210
Si Si2 0.318372 0.369068 0.250000
Si Si3 0.816561 0.216999 0.131565
Si Si4 0.315648 0.761518 0.250000
Si Si5 0.323875 0.899997 0.132786
Si Si6 0.320358 0.357805 0.544896
Si Si7 0.683689 0.448391 0.023041
O O1 0.500000 0.197113 0.964963
O O2 0.738017 0.243079 0.914867
O O3 0.688376 0.153731 0.891949
O O4 0.787778 0.181967 0.995529
O O5 0.500000 0.362563 0.250000
O O6 0.243024 0.316114 0.250000
O O7 0.267419 0.400378 0.306174
O O8 0.750279 0.230779 0.195028
O O9 0.758348 0.164466 0.106936
O O10 0.000000 0.217868 0.135014
O O11 0.500000 0.764581 0.250000
O O12 0.500000 0.915106 0.144195
O O13 0.251049 0.938355 0.087334
O O14 0.500000 0.365487 0.551257
O O15 0.249176 0.409084 0.524119
O O16 0.500000 0.445593 0.027390
O O17 0.740846 0.500000 0.000000
#
# Coordination Sequence:
#
# PCOD8256299 Si02
#       7
#    16   8  16   8  16  16  16
#     4   9  16  27  43  65  92 122 153 191 238 280
#     4  12  22  32  48  73 104 133 163 194 237 293
#     4   9  16  27  44  64  89 123 161 197 231 278
#     4  10  18  32  48  63  92 133 165 194 235 279
#     4  10  19  32  51  73  99 130 167 203 240 292
#     4   9  17  28  44  67  91 121 160 198 242 292
#     4   9  18  33  51  72 101 131 161 209 267 306
#
# _framework density 17.481438000000001
#
# number of rings (size 3 to 8) (size 9 to 14) (size 15 to 20)
#    0.000    2.500    1.667    1.750    0.000    1.000 
#    0.000    0.833    0.000    1.000    0.000    4.667 
#    0.000    0.000    0.000    0.000    0.000    0.000 
#
# Total GULP energy -594792.552257 kJ/mol
# GULP energy per Si atom -12391.511505 kJ/mol
# Density = 1.744165 g / cm^3
# Si number density = 17.481438 Si / 1000 Ang^3
#
#
#
# Elastic Constant Matrix: (Units=GPa)
#
#
# Indices 1 2 3 4 5 6 
#
# 1 32.0899 18.3231 18.2223 0.0000 0.0000 0.0000
# 2 18.3231 106.9016 77.3524 0.0000 0.0000 0.0000
# 3 18.2223 77.3524 113.4037 0.0000 0.0000 0.0000
# 4 0.0000 0.0000 0.0000 19.0107 0.0000 0.0000
# 5 0.0000 0.0000 0.0000 0.0000 21.3872 0.0000
# 6 0.0000 0.0000 0.0000 0.0000 0.0000 12.9558
#
#
#
# Elastic Compliance Matrix: (Units=1/GPa)
#
#
# Indices 1 2 3 4 5 6 
#
# 1 0.035063 -0.003817 -0.003031 0.000000 0.000000 0.000000
# 2 -0.003817 0.018886 -0.012269 0.000000 0.000000 0.000000
# 3 -0.003031 -0.012269 0.017674 0.000000 0.000000 0.000000
# 4 0.000000 0.000000 0.000000 0.052602 0.000000 0.000000
# 5 0.000000 0.000000 0.000000 0.000000 0.046757 0.000000
# 6 0.000000 0.000000 0.000000 0.000000 0.000000 0.077185
#
#
# Mechanical properties :
#
#
# Convention : Reuss Voigt Hill
#
# Bulk Modulus (GPa) = 29.94926 53.35453 41.65190
# Shear Modulus (GPa) = 16.80504 19.90390 18.35447
#
# Velocity S-wave (km/s) = 3.10386 3.37794 3.24379
# Velocity P-wave (km/s) = 5.47855 6.76763 6.15692
#
# Compressibility (1/GPa) = 0.03338980
#
# Stress axis : x y z
#
# Youngs Moduli (GPa) = 28.52024 52.94858 56.58150
#
# Poissons Ratio (x) = 0.20210 0.17147
# Poissons Ratio (y) = 0.10886 0.69419
# Poissons Ratio (z) = 0.08643 0.64962
#
# Static dielectric constant tensor:
#      x y z
#    x 3.043840 0.000000 0.000000 
#    y 0.000000 3.279890 0.000000 
#    z 0.000000 0.000000 3.495100 
# 
# 
# High freq. dielectric constant tensor:
#      x y z
#    x 1.654340 0.000000 0.000000 
#    y 0.000000 1.652240 0.000000 
#    z 0.000000 0.000000 1.674660 
# 
# From -- ./inp_files/60295.got.cif
#   From: 2010.03.12/outbox.cif.g09.slc.cpg/sg63_31_cif.got.tgz:60295.got - 2010.04.10 19:34:48.
