data_PCOD8256722
_publ_section_title
;
Structure prediction by ZEFSAII (Michael W. Deem and Ramdas Pophale) SiO2 
 PCOD8256722
Probable space group: C M C M
;
_chemical_formula_sum "Si O2"
_cell_formula_units_Z 96
_cell_length_a 13.275486
_cell_length_b 23.966527
_cell_length_c 18.977041
_cell_angle_alpha 90.000000
_cell_angle_beta 90.000000
_cell_angle_gamma 90.000000
_cell_volume 6037.873777
_symmetry_space_group_name_H-M "C M C M"
_symmetry_group_IT_number 63
_symmetry_cell_setting 'orthorhombic'
loop_
_space_group_symop_operation_xyz
x,y,z
-x,-y,1/2+z
x,-y,-z
-x,y,1/2-z
-x,-y,-z
x,y,1/2-z
-x,y,z
x,-y,1/2+z
1/2+x,1/2+y,z
1/2-x,1/2-y,1/2+z
1/2+x,1/2-y,-z
1/2-x,1/2+y,1/2-z
1/2-x,1/2-y,-z
1/2+x,1/2+y,1/2-z
1/2-x,1/2+y,z
1/2+x,1/2-y,1/2+z
loop_
_atom_site_type_symbol
_atom_site_label
_atom_site_fract_x
_atom_site_fract_y
_atom_site_fract_z
Si Si1 0.699244 0.296563 0.417001
Si Si2 0.388741 0.519101 0.166494
Si Si3 0.304206 0.366599 0.667947
Si Si4 0.884029 0.777253 0.933457
Si Si5 0.618167 0.604255 0.832207
Si Si6 0.611840 0.198634 0.170071
O O1 0.816235 0.277200 0.415398
O O2 0.659016 0.305298 0.495791
O O3 0.689035 0.354505 0.376065
O O4 0.629422 0.250464 0.380628
O O5 0.394627 0.517305 0.250000
O O6 0.500000 0.530381 0.135638
O O7 0.318216 0.569887 0.140483
O O8 0.350615 0.458102 0.141952
O O9 0.333206 0.361746 0.750000
O O10 0.376400 0.323590 0.627489
O O11 0.187888 0.351708 0.653346
O O12 0.000000 0.758377 0.941142
O O13 0.641097 0.613011 0.750000
O O14 0.500000 0.615150 0.847427
O O15 0.626477 0.220146 0.250000
O O16 0.500000 0.174972 0.157639
#
# Coordination Sequence:
#
# PCOD8256722 Si02
#       6
#    16  16  16  16  16  16
#     4  10  19  30  44  63  88 113 138 173 213 252
#     4   8  14  25  42  63  85 110 139 171 210 253
#     4   9  17  29  44  62  85 113 144 175 207 249
#     4  10  20  31  44  63  86 114 143 171 209 252
#     4   9  16  27  46  68  87 111 142 175 212 252
#     4   9  16  26  43  65  85 108 140 178 216 249
#
# _framework density 15.899637
#
# number of rings (size 3 to 8) (size 9 to 14) (size 15 to 20)
#    0.000    2.833    0.000    3.500    0.000    3.000 
#    0.000    0.833    0.000    4.000    0.000    2.333 
#    0.000    8.000    0.000    0.000    0.000    0.000 
#
# Total GULP energy -594996.165171 kJ/mol
# GULP energy per Si atom -12395.753441 kJ/mol
# Density = 1.586345 g / cm^3
# Si number density = 15.899637 Si / 1000 Ang^3
#
#
#
# Elastic Constant Matrix: (Units=GPa)
#
#
# Indices 1 2 3 4 5 6 
#
# 1 96.6356 56.5324 26.7385 0.0000 0.0000 0.0000
# 2 56.5324 129.5237 42.7757 0.0000 0.0000 0.0000
# 3 26.7385 42.7757 54.5926 0.0000 0.0000 0.0000
# 4 0.0000 0.0000 0.0000 3.6258 0.0000 0.0000
# 5 0.0000 0.0000 0.0000 0.0000 17.1670 0.0000
# 6 0.0000 0.0000 0.0000 0.0000 0.0000 21.7670
#
#
#
# Elastic Compliance Matrix: (Units=1/GPa)
#
#
# Indices 1 2 3 4 5 6 
#
# 1 0.014214 -0.005268 -0.002834 0.000000 0.000000 0.000000
# 2 -0.005268 0.012368 -0.007111 0.000000 0.000000 0.000000
# 3 -0.002834 -0.007111 0.025277 0.000000 0.000000 0.000000
# 4 0.000000 0.000000 0.000000 0.275803 0.000000 0.000000
# 5 0.000000 0.000000 0.000000 0.000000 0.058251 0.000000
# 6 0.000000 0.000000 0.000000 0.000000 0.000000 0.045941
#
#
# Mechanical properties :
#
#
# Convention : Reuss Voigt Hill
#
# Bulk Modulus (GPa) = 46.65562 59.20502 52.93032
# Shear Modulus (GPa) = 10.65131 18.82565 14.73848
#
# Velocity S-wave (km/s) = 2.59107 3.44471 3.04792
# Velocity P-wave (km/s) = 6.19347 7.28964 6.76380
#
# Compressibility (1/GPa) = 0.02143365
#
# Stress axis : x y z
#
# Youngs Moduli (GPa) = 70.35248 80.85198 39.56113
#
# Poissons Ratio (x) = 0.42592 0.11212
# Poissons Ratio (y) = 0.37061 0.28132
# Poissons Ratio (z) = 0.19939 0.57493
#
# Static dielectric constant tensor:
#      x y z
#    x 2.974740 0.000000 0.000000 
#    y 0.000000 3.131170 0.000000 
#    z 0.000000 0.000000 2.977820 
# 
# 
# High freq. dielectric constant tensor:
#      x y z
#    x 1.595230 0.000000 0.000000 
#    y 0.000000 1.601660 0.000000 
#    z 0.000000 0.000000 1.602570 
# 
# From -- ./inp_files/53028.got.cif
#   From: 2010.03.12/outbox.cif.g09.slc.cpg/sg63_27_cif.got.tgz:53028.got - 2010.04.10 19:34:48.
