data_PCOD8256581
_publ_section_title
;
Structure prediction by ZEFSAII (Michael W. Deem and Ramdas Pophale) SiO2 
 PCOD8256581
Probable space group: C M C M
;
_chemical_formula_sum "Si O2"
_cell_formula_units_Z 64
_cell_length_a 21.604914
_cell_length_b 9.226584
_cell_length_c 16.945268
_cell_angle_alpha 90.000000
_cell_angle_beta 90.000000
_cell_angle_gamma 90.000000
_cell_volume 3377.862163
_symmetry_space_group_name_H-M "C M C M"
_symmetry_group_IT_number 63
_symmetry_cell_setting 'orthorhombic'
loop_
_space_group_symop_operation_xyz
x,y,z
-x,-y,1/2+z
x,-y,-z
-x,y,1/2-z
-x,-y,-z
x,y,1/2-z
-x,y,z
x,-y,1/2+z
1/2+x,1/2+y,z
1/2-x,1/2-y,1/2+z
1/2+x,1/2-y,-z
1/2-x,1/2+y,1/2-z
1/2-x,1/2-y,-z
1/2+x,1/2+y,1/2-z
1/2-x,1/2+y,z
1/2+x,1/2-y,1/2+z
loop_
_atom_site_type_symbol
_atom_site_label
_atom_site_fract_x
_atom_site_fract_y
_atom_site_fract_z
Si Si1 0.785820 0.935642 0.163736
Si Si2 0.597812 0.472424 0.250000
Si Si3 0.000000 0.283220 0.750000
Si Si4 0.604412 0.000000 0.000000
Si Si5 0.500000 0.962991 0.123382
Si Si6 0.215014 0.334379 0.932809
Si Si7 0.500000 0.280783 0.750000
O O1 0.752516 0.952571 0.250000
O O2 0.858155 0.980877 0.172189
O O3 0.751036 0.020447 0.093935
O O4 0.787490 0.765763 0.143909
O O5 0.559440 0.322254 0.250000
O O6 0.559221 0.617735 0.250000
O O7 0.000000 0.386747 0.827111
O O8 0.561570 0.052244 0.928572
O O9 0.647271 0.871561 0.966264
O O10 0.500000 0.819425 0.174372
O O11 0.250000 0.250000 0.000000
#
# Coordination Sequence:
#
# PCOD8256581 Si02
#       7
#    16   8   4   8   8  16   4
#     4  10  23  39  61  95 124 169 208 258 317 381
#     4   9  22  36  66  90 124 151 214 266 318 363
#     4  10  18  46  64  88 120 168 220 268 312 360
#     4  11  24  40  64  90 132 163 216 248 334 383
#     4  10  24  42  66  90 118 172 214 268 303 383
#     4  12  22  41  61  94 135 167 202 259 323 386
#     4  10  22  42  64  92 116 160 220 276 304 356
#
# _framework density 18.946895999999999
#
# number of rings (size 3 to 8) (size 9 to 14) (size 15 to 20)
#    0.750    0.750    2.500    2.250    3.500    0.000 
#    4.500    0.000    0.000    4.500    0.000    0.000 
#    0.000    0.000    0.000    0.000    0.000    0.000 
#
# Total GULP energy -396551.403762 kJ/mol
# GULP energy per Si atom -12392.231368 kJ/mol
# Density = 1.890377 g / cm^3
# Si number density = 18.946896 Si / 1000 Ang^3
#
#
#
# Elastic Constant Matrix: (Units=GPa)
#
#
# Indices 1 2 3 4 5 6 
#
# 1 132.1738 54.2283 50.9315 0.0000 0.0000 0.0000
# 2 54.2283 130.2089 55.3802 0.0000 0.0000 0.0000
# 3 50.9315 55.3802 107.4259 0.0000 0.0000 0.0000
# 4 0.0000 0.0000 0.0000 39.5451 0.0000 0.0000
# 5 0.0000 0.0000 0.0000 0.0000 32.3142 0.0000
# 6 0.0000 0.0000 0.0000 0.0000 0.0000 20.7021
#
#
#
# Elastic Compliance Matrix: (Units=1/GPa)
#
#
# Indices 1 2 3 4 5 6 
#
# 1 0.009967 -0.002742 -0.003312 0.000000 0.000000 0.000000
# 2 -0.002742 0.010591 -0.004160 0.000000 0.000000 0.000000
# 3 -0.003312 -0.004160 0.013023 0.000000 0.000000 0.000000
# 4 0.000000 0.000000 0.000000 0.025288 0.000000 0.000000
# 5 0.000000 0.000000 0.000000 0.000000 0.030946 0.000000
# 6 0.000000 0.000000 0.000000 0.000000 0.000000 0.048304
#
#
# Mechanical properties :
#
#
# Convention : Reuss Voigt Hill
#
# Bulk Modulus (GPa) = 76.02369 76.76540 76.39454
# Shear Modulus (GPa) = 30.68756 32.46352 31.57554
#
# Velocity S-wave (km/s) = 4.02887 4.14381 4.08674
# Velocity P-wave (km/s) = 7.86474 7.96862 7.91685
#
# Compressibility (1/GPa) = 0.01315380
#
# Stress axis : x y z
#
# Youngs Moduli (GPa) = 100.33013 94.41630 76.78539
#
# Poissons Ratio (x) = 0.25894 0.25429
# Poissons Ratio (y) = 0.27516 0.31941
# Poissons Ratio (z) = 0.33226 0.39276
#
# Static dielectric constant tensor:
#      x y z
#    x 3.676450 0.000000 0.000000 
#    y 0.000000 3.627390 0.000000 
#    z 0.000000 0.000000 3.526030 
# 
# 
# High freq. dielectric constant tensor:
#      x y z
#    x 1.736430 0.000000 0.000000 
#    y 0.000000 1.743410 0.000000 
#    z 0.000000 0.000000 1.744280 
# 
# From -- ./inp_files/47767.got.cif
#   From: 2010.03.12/outbox.cif.g09.slc.cpg/sg63_24_cif.got.tgz:47767.got - 2010.04.10 19:34:48.
