data_PCOD8256945
_publ_section_title
;
Structure prediction by ZEFSAII (Michael W. Deem and Ramdas Pophale) SiO2 
 PCOD8256945
Probable space group: C M C M
;
_chemical_formula_sum "Si O2"
_cell_formula_units_Z 112
_cell_length_a 20.874768
_cell_length_b 16.918974
_cell_length_c 18.640018
_cell_angle_alpha 90.000000
_cell_angle_beta 90.000000
_cell_angle_gamma 90.000000
_cell_volume 6583.275165
_symmetry_space_group_name_H-M "C M C M"
_symmetry_group_IT_number 63
_symmetry_cell_setting 'orthorhombic'
loop_
_space_group_symop_operation_xyz
x,y,z
-x,-y,1/2+z
x,-y,-z
-x,y,1/2-z
-x,-y,-z
x,y,1/2-z
-x,y,z
x,-y,1/2+z
1/2+x,1/2+y,z
1/2-x,1/2-y,1/2+z
1/2+x,1/2-y,-z
1/2-x,1/2+y,1/2-z
1/2-x,1/2-y,-z
1/2+x,1/2+y,1/2-z
1/2-x,1/2+y,z
1/2+x,1/2-y,1/2+z
loop_
_atom_site_type_symbol
_atom_site_label
_atom_site_fract_x
_atom_site_fract_y
_atom_site_fract_z
Si Si1 0.326128 0.481021 0.833102
Si Si2 0.573999 0.738165 0.952120
Si Si3 0.074019 0.056847 0.935174
Si Si4 0.175175 0.681791 0.959530
Si Si5 0.767531 0.616340 0.829657
Si Si6 0.169097 0.252384 0.669416
Si Si7 0.737874 0.655645 0.085445
O O1 0.343288 0.458122 0.750000
O O2 0.383813 0.533748 0.865596
O O3 0.259046 0.527872 0.833916
O O4 0.314262 0.406922 0.886105
O O5 0.500000 0.759069 0.950204
O O6 0.587061 0.645060 0.965105
O O7 0.604673 0.758580 0.875890
O O8 0.604513 0.796885 0.011672
O O9 0.000000 0.047197 0.912090
O O10 0.092958 0.000000 0.000000
O O11 0.174834 0.629530 0.886623
O O12 0.202955 0.766987 0.941887
O O13 0.217409 0.631572 0.017373
O O14 0.794085 0.635605 0.750000
O O15 0.707319 0.672164 0.848798
O O16 0.145565 0.255800 0.750000
O O17 0.215952 0.325581 0.652663
#
# Coordination Sequence:
#
# PCOD8256945 Si02
#       7
#    16  16  16  16  16  16  16
#     4  11  21  31  47  74 100 129 164 203 246 302
#     4  10  19  31  48  69  93 127 171 206 235 283
#     4  10  21  33  46  66  98 138 171 200 233 278
#     4   9  18  33  48  70  93 129 162 204 253 290
#     4   9  18  30  47  71 100 125 155 202 257 305
#     4   9  16  30  46  67  97 124 153 201 253 295
#     4   9  18  29  49  70  95 125 161 200 243 295
#
# _framework density 17.012808
#
# number of rings (size 3 to 8) (size 9 to 14) (size 15 to 20)
#    0.000    2.429    1.429    2.143    2.000    1.143 
#    0.000    1.429    0.000    0.429    0.000    8.000 
#    0.000    4.571    0.000    0.000    0.000    0.571 
#
# Total GULP energy -693870.485991 kJ/mol
# GULP energy per Si atom -12390.544393 kJ/mol
# Density = 1.697409 g / cm^3
# Si number density = 17.012808 Si / 1000 Ang^3
#
#
#
# Elastic Constant Matrix: (Units=GPa)
#
#
# Indices 1 2 3 4 5 6 
#
# 1 72.4190 13.5200 44.7983 0.0000 0.0000 0.0000
# 2 13.5200 30.5592 23.7217 0.0000 0.0000 0.0000
# 3 44.7983 23.7217 98.2534 0.0000 0.0000 0.0000
# 4 0.0000 0.0000 0.0000 23.5524 0.0000 0.0000
# 5 0.0000 0.0000 0.0000 0.0000 19.9505 0.0000
# 6 0.0000 0.0000 0.0000 0.0000 0.0000 23.6254
#
#
#
# Elastic Compliance Matrix: (Units=1/GPa)
#
#
# Indices 1 2 3 4 5 6 
#
# 1 0.019343 -0.002106 -0.008311 0.000000 0.000000 0.000000
# 2 -0.002106 0.040500 -0.008818 0.000000 0.000000 0.000000
# 3 -0.008311 -0.008818 0.016096 0.000000 0.000000 0.000000
# 4 0.000000 0.000000 0.000000 0.042458 0.000000 0.000000
# 5 0.000000 0.000000 0.000000 0.000000 0.050124 0.000000
# 6 0.000000 0.000000 0.000000 0.000000 0.000000 0.042327
#
#
# Mechanical properties :
#
#
# Convention : Reuss Voigt Hill
#
# Bulk Modulus (GPa) = 26.68863 40.59017 33.63940
# Shear Modulus (GPa) = 19.09798 21.37178 20.23488
#
# Velocity S-wave (km/s) = 3.35410 3.54816 3.45250
# Velocity P-wave (km/s) = 5.54269 6.37937 5.97569
#
# Compressibility (1/GPa) = 0.03746913
#
# Stress axis : x y z
#
# Youngs Moduli (GPa) = 51.69895 24.69134 62.12764
#
# Poissons Ratio (x) = 0.05201 0.51632
# Poissons Ratio (y) = 0.10890 0.54782
# Poissons Ratio (z) = 0.42965 0.21772
#
# Static dielectric constant tensor:
#      x y z
#    x 3.008080 0.000000 0.000000 
#    y 0.000000 3.099270 0.000000 
#    z 0.000000 0.000000 3.370010 
# 
# 
# High freq. dielectric constant tensor:
#      x y z
#    x 1.624170 0.000000 0.000000 
#    y 0.000000 1.635600 0.000000 
#    z 0.000000 0.000000 1.668030 
# 
# From -- ./inp_files/47345.got.cif
#   From: 2010.03.12/outbox.cif.g09.slc.cpg/sg63_24_cif.got.tgz:47345.got - 2010.04.10 19:34:48.
