data_PCOD8256820
_publ_section_title
;
Structure prediction by ZEFSAII (Michael W. Deem and Ramdas Pophale) SiO2 
 PCOD8256820
Probable space group: C M C M
;
_chemical_formula_sum "Si O2"
_cell_formula_units_Z 112
_cell_length_a 26.251936
_cell_length_b 17.084239
_cell_length_c 13.823768
_cell_angle_alpha 90.000000
_cell_angle_beta 90.000000
_cell_angle_gamma 90.000000
_cell_volume 6199.881828
_symmetry_space_group_name_H-M "C M C M"
_symmetry_group_IT_number 63
_symmetry_cell_setting 'orthorhombic'
loop_
_space_group_symop_operation_xyz
x,y,z
-x,-y,1/2+z
x,-y,-z
-x,y,1/2-z
-x,-y,-z
x,y,1/2-z
-x,y,z
x,-y,1/2+z
1/2+x,1/2+y,z
1/2-x,1/2-y,1/2+z
1/2+x,1/2-y,-z
1/2-x,1/2+y,1/2-z
1/2-x,1/2-y,-z
1/2+x,1/2+y,1/2-z
1/2-x,1/2+y,z
1/2+x,1/2-y,1/2+z
loop_
_atom_site_type_symbol
_atom_site_label
_atom_site_fract_x
_atom_site_fract_y
_atom_site_fract_z
Si Si1 0.209359 0.413847 0.980510
Si Si2 0.794009 0.137844 0.140422
Si Si3 0.058946 0.954681 0.356185
Si Si4 0.941002 0.799917 0.042928
Si Si5 0.850168 0.286559 0.863931
Si Si6 0.912317 0.123323 0.139173
Si Si7 0.251165 0.800639 0.138187
O O1 0.260995 0.425076 0.918210
O O2 0.168230 0.364256 0.919786
O O3 0.186334 0.500000 0.000000
O O4 0.226333 0.373745 0.080674
O O5 0.774713 0.134727 0.250000
O O6 0.852316 0.118335 0.129739
O O7 0.781819 0.224462 0.099625
O O8 0.085442 0.953147 0.250000
O O9 0.080650 0.883393 0.418850
O O10 0.000000 0.938099 0.345002
O O11 0.066991 0.040488 0.401995
O O12 0.905036 0.734574 0.090135
O O13 0.000000 0.781415 0.068946
O O14 0.934794 0.806264 0.926232
O O15 0.856881 0.304981 0.750000
O O16 0.809187 0.216171 0.878418
O O17 0.929835 0.138177 0.250000
O O18 0.262837 0.817612 0.250000
#
# Coordination Sequence:
#
# PCOD8256820 Si02
#       7
#    16  16  16  16  16  16  16
#     4  11  21  33  53  78 105 134 167 208 258 312
#     4   9  18  33  51  73 102 137 173 203 236 291
#     4   9  18  31  45  66  98 134 172 213 255 297
#     4  11  21  33  52  74  97 133 182 227 265 310
#     4  10  21  38  56  75 102 134 170 214 261 307
#     4  10  19  30  47  73 109 146 175 209 254 304
#     4   9  18  33  53  74 101 135 167 203 246 299
#
# _framework density 18.064859999999999
#
# number of rings (size 3 to 8) (size 9 to 14) (size 15 to 20)
#    0.000    2.143    0.000    6.000    0.000    6.286 
#    0.000    2.857    0.000    0.429    0.000    0.000 
#    0.000    0.000    0.000    0.000    0.000    0.000 
#
# Total GULP energy -694200.363309 kJ/mol
# GULP energy per Si atom -12396.435059 kJ/mol
# Density = 1.802374 g / cm^3
# Si number density = 18.064860 Si / 1000 Ang^3
#
#
#
# Elastic Constant Matrix: (Units=GPa)
#
#
# Indices 1 2 3 4 5 6 
#
# 1 74.4254 39.7298 40.1160 0.0000 0.0000 0.0000
# 2 39.7298 89.2539 49.9370 0.0000 0.0000 0.0000
# 3 40.1160 49.9370 82.7668 0.0000 0.0000 0.0000
# 4 0.0000 0.0000 0.0000 19.0318 0.0000 0.0000
# 5 0.0000 0.0000 0.0000 0.0000 22.0029 0.0000
# 6 0.0000 0.0000 0.0000 0.0000 0.0000 22.9968
#
#
#
# Elastic Compliance Matrix: (Units=1/GPa)
#
#
# Indices 1 2 3 4 5 6 
#
# 1 0.019645 -0.005159 -0.006409 0.000000 0.000000 0.000000
# 2 -0.005159 0.018268 -0.008522 0.000000 0.000000 0.000000
# 3 -0.006409 -0.008522 0.020330 0.000000 0.000000 0.000000
# 4 0.000000 0.000000 0.000000 0.052544 0.000000 0.000000
# 5 0.000000 0.000000 0.000000 0.000000 0.045449 0.000000
# 6 0.000000 0.000000 0.000000 0.000000 0.000000 0.043484
#
#
# Mechanical properties :
#
#
# Convention : Reuss Voigt Hill
#
# Bulk Modulus (GPa) = 55.35855 56.22351 55.79103
# Shear Modulus (GPa) = 20.33189 20.58385 20.45787
#
# Velocity S-wave (km/s) = 3.35848 3.37922 3.36887
# Velocity P-wave (km/s) = 6.76388 6.81295 6.78846
#
# Compressibility (1/GPa) = 0.01806406
#
# Stress axis : x y z
#
# Youngs Moduli (GPa) = 50.90462 54.74032 49.18844
#
# Poissons Ratio (x) = 0.28239 0.31525
# Poissons Ratio (y) = 0.26260 0.41917
# Poissons Ratio (z) = 0.32625 0.46648
#
# Static dielectric constant tensor:
#      x y z
#    x 3.177830 0.000000 0.000000 
#    y 0.000000 3.026730 0.000000 
#    z 0.000000 0.000000 3.684300 
# 
# 
# High freq. dielectric constant tensor:
#      x y z
#    x 1.682780 0.000000 0.000000 
#    y 0.000000 1.657910 0.000000 
#    z 0.000000 0.000000 1.724790 
# 
# From -- ./inp_files/37972.got.cif
#   From: 2010.03.12/outbox.cif.g09.slc.cpg/sg63_19_cif.got.tgz:37972.got - 2010.04.10 19:34:48.
