data_PCOD8256946
_publ_section_title
;
Structure prediction by ZEFSAII (Michael W. Deem and Ramdas Pophale) SiO2 
 PCOD8256946
Probable space group: C M C M
;
_chemical_formula_sum "Si O2"
_cell_formula_units_Z 112
_cell_length_a 12.547602
_cell_length_b 24.542972
_cell_length_c 23.006535
_cell_angle_alpha 90.000000
_cell_angle_beta 90.000000
_cell_angle_gamma 90.000000
_cell_volume 7084.987714
_symmetry_space_group_name_H-M "C M C M"
_symmetry_group_IT_number 63
_symmetry_cell_setting 'orthorhombic'
loop_
_space_group_symop_operation_xyz
x,y,z
-x,-y,1/2+z
x,-y,-z
-x,y,1/2-z
-x,-y,-z
x,y,1/2-z
-x,y,z
x,-y,1/2+z
1/2+x,1/2+y,z
1/2-x,1/2-y,1/2+z
1/2+x,1/2-y,-z
1/2-x,1/2+y,1/2-z
1/2-x,1/2-y,-z
1/2+x,1/2+y,1/2-z
1/2-x,1/2+y,z
1/2+x,1/2-y,1/2+z
loop_
_atom_site_type_symbol
_atom_site_label
_atom_site_fract_x
_atom_site_fract_y
_atom_site_fract_z
Si Si1 0.622663 0.692727 0.817967
Si Si2 0.787920 0.909702 0.124685
Si Si3 0.223394 0.934483 0.995433
Si Si4 0.121872 0.516339 0.682898
Si Si5 0.500000 0.468290 0.399441
Si Si6 0.374648 0.087631 0.392706
Si Si7 0.500000 0.565340 0.466433
Si Si8 0.626729 0.185260 0.185570
O O1 0.637013 0.680019 0.750000
O O2 0.500000 0.685187 0.836309
O O3 0.693914 0.652203 0.855905
O O4 0.662143 0.753875 0.832656
O O5 0.896426 0.944470 0.132439
O O6 0.696467 0.933586 0.165622
O O7 0.749183 0.910078 0.058250
O O8 0.322109 0.919112 0.955333
O O9 0.115958 0.905143 0.968942
O O10 0.206597 0.000000 0.000000
O O11 0.137803 0.501665 0.750000
O O12 0.156245 0.463675 0.646617
O O13 0.000000 0.532898 0.669779
O O14 0.500000 0.533961 0.403350
O O15 0.500000 0.461163 0.468857
O O16 0.500000 0.091696 0.402995
O O17 0.329852 0.141728 0.360919
O O18 0.671531 0.171402 0.250000
O O19 0.500000 0.182560 0.188447
#
# Coordination Sequence:
#
# PCOD8256946 Si02
#       8
#    16  16  16  16   8  16   8  16
#     4   9  17  29  48  73  95 116 148 193 244 284
#     4  11  18  29  45  69  98 121 149 188 232 280
#     4  11  18  29  45  68  94 129 160 183 227 275
#     4  10  20  31  44  65  95 126 154 187 230 282
#     4   9  14  24  43  62  88 118 147 183 222 260
#     4  10  19  31  48  69  94 121 159 196 232 273
#     4   9  14  28  42  60  90 122 166 180 201 273
#     4   8  15  30  50  70  92 119 153 196 243 281
#
# _framework density 15.808071999999999
#
# number of rings (size 3 to 8) (size 9 to 14) (size 15 to 20)
#    0.000    2.286    5.000    1.714    0.000    2.571 
#    0.000    0.714    0.000    0.000    1.857    1.500 
#    0.000    0.000    0.000    0.000    0.000    0.000 
#
# Total GULP energy -693846.153488 kJ/mol
# GULP energy per Si atom -12390.109884 kJ/mol
# Density = 1.577209 g / cm^3
# Si number density = 15.808072 Si / 1000 Ang^3
#
#
#
# Elastic Constant Matrix: (Units=GPa)
#
#
# Indices 1 2 3 4 5 6 
#
# 1 52.8808 29.7963 33.4045 0.0000 0.0000 0.0000
# 2 29.7963 79.0704 39.6834 0.0000 0.0000 0.0000
# 3 33.4045 39.6834 76.6972 0.0000 0.0000 0.0000
# 4 0.0000 0.0000 0.0000 21.6745 0.0000 0.0000
# 5 0.0000 0.0000 0.0000 0.0000 17.3303 0.0000
# 6 0.0000 0.0000 0.0000 0.0000 0.0000 14.6617
#
#
#
# Elastic Compliance Matrix: (Units=1/GPa)
#
#
# Indices 1 2 3 4 5 6 
#
# 1 0.028045 -0.005995 -0.009113 0.000000 0.000000 0.000000
# 2 -0.005995 0.018364 -0.006891 0.000000 0.000000 0.000000
# 3 -0.009113 -0.006891 0.020573 0.000000 0.000000 0.000000
# 4 0.000000 0.000000 0.000000 0.046137 0.000000 0.000000
# 5 0.000000 0.000000 0.000000 0.000000 0.057702 0.000000
# 6 0.000000 0.000000 0.000000 0.000000 0.000000 0.068205
#
#
# Mechanical properties :
#
#
# Convention : Reuss Voigt Hill
#
# Bulk Modulus (GPa) = 43.50682 46.04632 44.77657
# Shear Modulus (GPa) = 17.20079 17.78426 17.49252
#
# Velocity S-wave (km/s) = 3.30222 3.35776 3.33010
# Velocity P-wave (km/s) = 6.49008 6.65014 6.57060
#
# Compressibility (1/GPa) = 0.02298490
#
# Stress axis : x y z
#
# Youngs Moduli (GPa) = 35.65726 54.45354 48.60825
#
# Poissons Ratio (x) = 0.32643 0.44296
# Poissons Ratio (y) = 0.21375 0.33495
# Poissons Ratio (z) = 0.32494 0.37523
#
# Static dielectric constant tensor:
#      x y z
#    x 3.017900 0.000000 0.000000 
#    y 0.000000 2.931730 0.000000 
#    z 0.000000 0.000000 2.965940 
# 
# 
# High freq. dielectric constant tensor:
#      x y z
#    x 1.591220 0.000000 0.000000 
#    y 0.000000 1.581490 0.000000 
#    z 0.000000 0.000000 1.603590 
# 
# From -- ./inp_files/62003.got.cif
#   From: 2010.03.12/outbox.cif.g09.slc.cpg/sg63_32_cif.got.tgz:62003.got - 2010.04.10 19:34:48.
