data_PCOD8256184
_publ_section_title
;
Structure prediction by ZEFSAII (Michael W. Deem and Ramdas Pophale) SiO2 
 PCOD8256184
Probable space group: C M C M
;
_chemical_formula_sum "Si O2"
_cell_formula_units_Z 112
_cell_length_a 13.486524
_cell_length_b 32.024472
_cell_length_c 15.701503
_cell_angle_alpha 90.000000
_cell_angle_beta 90.000000
_cell_angle_gamma 90.000000
_cell_volume 6781.460464
_symmetry_space_group_name_H-M "C M C M"
_symmetry_group_IT_number 63
_symmetry_cell_setting 'orthorhombic'
loop_
_space_group_symop_operation_xyz
x,y,z
-x,-y,1/2+z
x,-y,-z
-x,y,1/2-z
-x,-y,-z
x,y,1/2-z
-x,y,z
x,-y,1/2+z
1/2+x,1/2+y,z
1/2-x,1/2-y,1/2+z
1/2+x,1/2-y,-z
1/2-x,1/2+y,1/2-z
1/2-x,1/2-y,-z
1/2+x,1/2+y,1/2-z
1/2-x,1/2+y,z
1/2+x,1/2-y,1/2+z
loop_
_atom_site_type_symbol
_atom_site_label
_atom_site_fract_x
_atom_site_fract_y
_atom_site_fract_z
Si Si1 0.696616 0.902140 0.899046
Si Si2 0.882136 0.398173 0.084030
Si Si3 0.697085 0.273164 0.843137
Si Si4 0.608361 0.186125 0.377700
Si Si5 0.382428 0.043032 0.250000
Si Si6 0.887296 0.859483 0.648894
Si Si7 0.890644 0.304668 0.076174
Si Si8 0.883665 0.553669 0.750000
O O1 0.638828 0.861813 0.864113
O O2 0.666357 0.939370 0.836160
O O3 0.815072 0.893463 0.894520
O O4 0.668974 0.913652 0.996364
O O5 0.852869 0.350264 0.105348
O O6 0.841548 0.425355 0.163294
O O7 0.000000 0.402084 0.070251
O O8 0.652326 0.264557 0.750000
O O9 0.813648 0.283175 0.833617
O O10 0.640586 0.312913 0.884993
O O11 0.684988 0.231194 0.896698
O O12 0.500000 0.192904 0.336242
O O13 0.604667 0.196632 0.475903
O O14 0.500000 0.050755 0.250000
O O15 0.355218 0.994438 0.250000
O O16 0.871216 0.860853 0.750000
O O17 0.000000 0.870118 0.623002
O O18 0.000000 0.295705 0.114742
O O19 0.000000 0.561511 0.750000
#
# Coordination Sequence:
#
# PCOD8256184 Si02
#       8
#    16  16  16  16   8  16  16   8
#     4  10  18  31  49  75  97 129 163 189 235 291
#     4   9  18  33  50  70  99 129 161 199 237 282
#     4  10  19  27  41  68  93 120 159 196 236 276
#     4   9  18  31  44  62  94 129 157 189 229 276
#     4  11  20  30  49  76 103 127 156 186 233 301
#     4   9  17  30  45  68 103 129 155 201 244 280
#     4   9  17  29  46  63  84 122 164 198 230 268
#     4   9  20  34  48  72 101 129 157 194 242 283
#
# _framework density 16.515616999999999
#
# number of rings (size 3 to 8) (size 9 to 14) (size 15 to 20)
#    0.000    2.571    0.714    3.000    2.000    1.714 
#    0.000    2.143    0.000    0.000    0.000    3.500 
#    0.000    0.000    0.000    0.000    0.000    0.000 
#
# Total GULP energy -694193.124513 kJ/mol
# GULP energy per Si atom -12396.305795 kJ/mol
# Density = 1.647803 g / cm^3
# Si number density = 16.515617 Si / 1000 Ang^3
#
#
#
# Elastic Constant Matrix: (Units=GPa)
#
#
# Indices 1 2 3 4 5 6 
#
# 1 94.0397 35.1494 37.4817 0.0000 0.0000 0.0000
# 2 35.1494 94.7700 61.2371 0.0000 0.0000 0.0000
# 3 37.4817 61.2371 87.2493 0.0000 0.0000 0.0000
# 4 0.0000 0.0000 0.0000 21.1407 0.0000 0.0000
# 5 0.0000 0.0000 0.0000 0.0000 16.7595 0.0000
# 6 0.0000 0.0000 0.0000 0.0000 0.0000 19.2698
#
#
#
# Elastic Compliance Matrix: (Units=1/GPa)
#
#
# Indices 1 2 3 4 5 6 
#
# 1 0.013084 -0.002234 -0.004053 0.000000 0.000000 0.000000
# 2 -0.002234 0.019690 -0.012860 0.000000 0.000000 0.000000
# 3 -0.004053 -0.012860 0.022229 0.000000 0.000000 0.000000
# 4 0.000000 0.000000 0.000000 0.047302 0.000000 0.000000
# 5 0.000000 0.000000 0.000000 0.000000 0.059668 0.000000
# 6 0.000000 0.000000 0.000000 0.000000 0.000000 0.051895
#
#
# Mechanical properties :
#
#
# Convention : Reuss Voigt Hill
#
# Bulk Modulus (GPa) = 59.84834 60.42172 60.13503
# Shear Modulus (GPa) = 19.40004 20.91337 20.15671
#
# Velocity S-wave (km/s) = 3.43103 3.56234 3.49730
# Velocity P-wave (km/s) = 7.21194 7.32014 7.26624
#
# Compressibility (1/GPa) = 0.01670890
#
# Stress axis : x y z
#
# Youngs Moduli (GPa) = 76.42811 50.78664 44.98700
#
# Poissons Ratio (x) = 0.11345 0.18233
# Poissons Ratio (y) = 0.17073 0.57854
# Poissons Ratio (z) = 0.30976 0.65313
#
# Static dielectric constant tensor:
#      x y z
#    x 3.134590 0.000000 0.000000 
#    y 0.000000 2.982320 0.000000 
#    z 0.000000 0.000000 3.071760 
# 
# 
# High freq. dielectric constant tensor:
#      x y z
#    x 1.615560 0.000000 0.000000 
#    y 0.000000 1.616970 0.000000 
#    z 0.000000 0.000000 1.634110 
# 
# From -- ./inp_files/44775.got.cif
#   From: 2010.03.12/outbox.cif.g09.slc.cpg/sg63_23_cif.got.tgz:44775.got - 2010.04.10 19:34:48.
