data_PCOD8256109
_publ_section_title
;
Structure prediction by ZEFSAII (Michael W. Deem and Ramdas Pophale) SiO2 
 PCOD8256109
Probable space group: C M C M
;
_chemical_formula_sum "Si O2"
_cell_formula_units_Z 72
_cell_length_a 15.653565
_cell_length_b 28.544125
_cell_length_c 8.993406
_cell_angle_alpha 90.000000
_cell_angle_beta 90.000000
_cell_angle_gamma 90.000000
_cell_volume 4018.409531
_symmetry_space_group_name_H-M "C M C M"
_symmetry_group_IT_number 63
_symmetry_cell_setting 'orthorhombic'
loop_
_space_group_symop_operation_xyz
x,y,z
-x,-y,1/2+z
x,-y,-z
-x,y,1/2-z
-x,-y,-z
x,y,1/2-z
-x,y,z
x,-y,1/2+z
1/2+x,1/2+y,z
1/2-x,1/2-y,1/2+z
1/2+x,1/2-y,-z
1/2-x,1/2+y,1/2-z
1/2-x,1/2-y,-z
1/2+x,1/2+y,1/2-z
1/2-x,1/2+y,z
1/2+x,1/2-y,1/2+z
loop_
_atom_site_type_symbol
_atom_site_label
_atom_site_fract_x
_atom_site_fract_y
_atom_site_fract_z
Si Si1 0.000000 0.875002 0.418575
Si Si2 0.315539 0.386404 0.083507
Si Si3 0.000000 0.779935 0.925343
Si Si4 0.327569 0.723924 0.923458
Si Si5 0.184525 0.550033 0.076349
Si Si6 0.500000 0.951248 0.578078
O O1 0.086630 0.905370 0.436729
O O2 0.000000 0.852281 0.250000
O O3 0.000000 0.835201 0.543243
O O4 0.282761 0.396665 0.250000
O O5 0.315217 0.331281 0.050134
O O6 0.255172 0.412771 0.969819
O O7 0.000000 0.769891 0.750000
O O8 0.084989 0.757893 0.999666
O O9 0.330843 0.736598 0.750000
O O10 0.250000 0.750000 0.000000
O O11 0.193695 0.541128 0.250000
O O12 0.090741 0.573136 0.035974
O O13 0.199070 0.500000 0.000000
O O14 0.500000 0.962370 0.750000
O O15 0.500000 0.000000 0.500000
#
# Coordination Sequence:
#
# PCOD8256109 Si02
#       6
#     8  16   8  16  16   8
#     4   8  16  32  51  70  97 132 166 202 244 294
#     4   9  18  33  52  74 100 129 162 202 248 294
#     4  10  18  30  51  76 101 132 170 208 250 306
#     4  10  20  35  54  76 103 135 171 212 254 299
#     4  10  19  32  51  73  98 128 164 204 246 294
#     4   8  16  30  47  68  93 124 160 196 236 286
#
# _framework density 17.917536999999999
#
# number of rings (size 3 to 8) (size 9 to 14) (size 15 to 20)
#    0.000    2.667    0.000    3.667    0.000    5.333 
#    0.000    1.667    0.000    5.333    0.000    0.000 
#    0.000    0.000    0.000    0.000    0.000    0.000 
#
# Total GULP energy -446015.242200 kJ/mol
# GULP energy per Si atom -12389.312283 kJ/mol
# Density = 1.787676 g / cm^3
# Si number density = 17.917537 Si / 1000 Ang^3
#
#
#
# Elastic Constant Matrix: (Units=GPa)
#
#
# Indices 1 2 3 4 5 6 
#
# 1 186.7216 49.4670 76.1906 0.0000 0.0000 0.0000
# 2 49.4670 37.0828 31.9270 0.0000 0.0000 0.0000
# 3 76.1906 31.9270 105.6447 0.0000 0.0000 0.0000
# 4 0.0000 0.0000 0.0000 27.4946 0.0000 0.0000
# 5 0.0000 0.0000 0.0000 0.0000 33.9407 0.0000
# 6 0.0000 0.0000 0.0000 0.0000 0.0000 26.6735
#
#
#
# Elastic Compliance Matrix: (Units=1/GPa)
#
#
# Indices 1 2 3 4 5 6 
#
# 1 0.009408 -0.009068 -0.004045 0.000000 0.000000 0.000000
# 2 -0.009068 0.045191 -0.007117 0.000000 0.000000 0.000000
# 3 -0.004045 -0.007117 0.014534 0.000000 0.000000 0.000000
# 4 0.000000 0.000000 0.000000 0.036371 0.000000 0.000000
# 5 0.000000 0.000000 0.000000 0.000000 0.029463 0.000000
# 6 0.000000 0.000000 0.000000 0.000000 0.000000 0.037490
#
#
# Mechanical properties :
#
#
# Convention : Reuss Voigt Hill
#
# Bulk Modulus (GPa) = 34.87658 71.62426 53.25042
# Shear Modulus (GPa) = 22.47445 29.07939 25.77692
#
# Velocity S-wave (km/s) = 3.54549 4.03296 3.79706
# Velocity P-wave (km/s) = 6.02229 7.85796 7.00056
#
# Compressibility (1/GPa) = 0.02867254
#
# Stress axis : x y z
#
# Youngs Moduli (GPa) = 106.28871 22.12847 68.80519
#
# Poissons Ratio (x) = 0.20066 0.27831
# Poissons Ratio (y) = 0.96381 0.48971
# Poissons Ratio (z) = 0.42992 0.15750
#
# Static dielectric constant tensor:
#      x y z
#    x 4.105400 0.000000 0.000000 
#    y 0.000000 2.782330 0.000000 
#    z 0.000000 0.000000 3.321070 
# 
# 
# High freq. dielectric constant tensor:
#      x y z
#    x 1.722610 0.000000 0.000000 
#    y 0.000000 1.635940 0.000000 
#    z 0.000000 0.000000 1.703220 
# 
# From -- ./inp_files/4985.got.cif
#   From: 2010.03.12/outbox.cif.g09.slc.cpg/sg63_3_cif.got.tgz:4985.got - 2010.04.10 19:34:48.
