data_PCOD8256616
_publ_section_title
;
Structure prediction by ZEFSAII (Michael W. Deem and Ramdas Pophale) SiO2 
 PCOD8256616
Probable space group: C M C M
;
_chemical_formula_sum "Si O2"
_cell_formula_units_Z 88
_cell_length_a 25.230885
_cell_length_b 27.837138
_cell_length_c 9.174021
_cell_angle_alpha 90.000000
_cell_angle_beta 90.000000
_cell_angle_gamma 90.000000
_cell_volume 6443.425277
_symmetry_space_group_name_H-M "C M C M"
_symmetry_group_IT_number 63
_symmetry_cell_setting 'orthorhombic'
loop_
_space_group_symop_operation_xyz
x,y,z
-x,-y,1/2+z
x,-y,-z
-x,y,1/2-z
-x,-y,-z
x,y,1/2-z
-x,y,z
x,-y,1/2+z
1/2+x,1/2+y,z
1/2-x,1/2-y,1/2+z
1/2+x,1/2-y,-z
1/2-x,1/2+y,1/2-z
1/2-x,1/2-y,-z
1/2+x,1/2+y,1/2-z
1/2-x,1/2+y,z
1/2+x,1/2-y,1/2+z
loop_
_atom_site_type_symbol
_atom_site_label
_atom_site_fract_x
_atom_site_fract_y
_atom_site_fract_z
Si Si1 0.294324 0.049129 0.576554
Si Si2 0.500000 0.950193 0.581732
Si Si3 0.145734 0.684906 0.911152
Si Si4 0.262821 0.358262 0.410971
Si Si5 0.298031 0.724780 0.080174
Si Si6 0.109161 0.599441 0.079065
O O1 0.301926 0.042816 0.750000
O O2 0.246711 0.086514 0.540608
O O3 0.349746 0.067043 0.510113
O O4 0.277356 0.000000 0.500000
O O5 0.500000 0.963389 0.750000
O O6 0.448948 0.919100 0.539626
O O7 0.500000 0.000000 0.500000
O O8 0.120892 0.677232 0.750000
O O9 0.205489 0.665994 0.911077
O O10 0.149251 0.742336 0.947303
O O11 0.111717 0.655337 0.028962
O O12 0.287925 0.356330 0.250000
O O13 0.303311 0.329562 0.517220
O O14 0.284850 0.721458 0.250000
O O15 0.250000 0.750000 0.000000
O O16 0.122099 0.596103 0.250000
#
# Coordination Sequence:
#
# PCOD8256616 Si02
#       6
#    16   8  16  16  16  16
#     4  10  19  29  39  52  69  89 115 146 176 208
#     4  10  22  34  42  54  68  84 112 148 185 222
#     4   8  15  26  37  52  71  87 105 133 167 204
#     4   8  15  25  35  49  69  88 108 135 164 196
#     4   9  15  22  34  51  70  88 106 129 159 197
#     4  10  19  30  42  54  67  85 111 144 181 220
#
# _framework density 13.657333
#
# number of rings (size 3 to 8) (size 9 to 14) (size 15 to 20)
#    0.000    2.909    0.000    4.364    0.000   10.909 
#    0.000    0.000    0.000    0.000    0.000    0.000 
#    0.000    0.000    0.000    0.000    0.000    0.000 
#
# Total GULP energy -545143.172662 kJ/mol
# GULP energy per Si atom -12389.617560 kJ/mol
# Density = 1.362625 g / cm^3
# Si number density = 13.657333 Si / 1000 Ang^3
#
#
#
# Elastic Constant Matrix: (Units=GPa)
#
#
# Indices 1 2 3 4 5 6 
#
# 1 25.1686 40.1128 26.9982 0.0000 0.0000 0.0000
# 2 40.1128 120.8768 64.9599 0.0000 0.0000 0.0000
# 3 26.9982 64.9599 86.7291 0.0000 0.0000 0.0000
# 4 0.0000 0.0000 0.0000 28.2642 0.0000 0.0000
# 5 0.0000 0.0000 0.0000 0.0000 13.1035 0.0000
# 6 0.0000 0.0000 0.0000 0.0000 0.0000 16.2677
#
#
#
# Elastic Compliance Matrix: (Units=1/GPa)
#
#
# Indices 1 2 3 4 5 6 
#
# 1 0.088607 -0.024404 -0.009304 0.000000 0.000000 0.000000
# 2 -0.024404 0.020567 -0.007808 0.000000 0.000000 0.000000
# 3 -0.009304 -0.007808 0.020275 0.000000 0.000000 0.000000
# 4 0.000000 0.000000 0.000000 0.035380 0.000000 0.000000
# 5 0.000000 0.000000 0.000000 0.000000 0.076315 0.000000
# 6 0.000000 0.000000 0.000000 0.000000 0.000000 0.061472
#
#
# Mechanical properties :
#
#
# Convention : Reuss Voigt Hill
#
# Bulk Modulus (GPa) = 21.54412 55.21290 38.37851
# Shear Modulus (GPa) = 12.46507 18.24066 15.35286
#
# Velocity S-wave (km/s) = 3.02437 3.65854 3.35647
# Velocity P-wave (km/s) = 5.29195 7.63948 6.57139
#
# Compressibility (1/GPa) = 0.04641637
#
# Stress axis : x y z
#
# Youngs Moduli (GPa) = 11.28583 48.62064 49.32224
#
# Poissons Ratio (x) = 1.18653 0.45891
# Poissons Ratio (y) = 0.27542 0.38512
# Poissons Ratio (z) = 0.10501 0.37964
#
# Static dielectric constant tensor:
#      x y z
#    x 2.406800 0.000000 0.000000 
#    y 0.000000 3.538520 0.000000 
#    z 0.000000 0.000000 2.964300 
# 
# 
# High freq. dielectric constant tensor:
#      x y z
#    x 1.446430 0.000000 0.000000 
#    y 0.000000 1.526700 0.000000 
#    z 0.000000 0.000000 1.536240 
# 
# From -- ./inp_files/8955.got.cif
#   From: 2010.03.12/outbox.cif.g09.slc.cpg/sg63_5_cif.got.tgz:8955.got - 2010.04.10 19:34:48.
