data_PCOD8256171
_publ_section_title
;
Structure prediction by ZEFSAII (Michael W. Deem and Ramdas Pophale) SiO2 
 PCOD8256171
Probable space group: C M C M
;
_chemical_formula_sum "Si O2"
_cell_formula_units_Z 72
_cell_length_a 16.888376
_cell_length_b 28.453712
_cell_length_c 8.649135
_cell_angle_alpha 90.000000
_cell_angle_beta 90.000000
_cell_angle_gamma 90.000000
_cell_volume 4156.229272
_symmetry_space_group_name_H-M "C M C M"
_symmetry_group_IT_number 63
_symmetry_cell_setting 'orthorhombic'
loop_
_space_group_symop_operation_xyz
x,y,z
-x,-y,1/2+z
x,-y,-z
-x,y,1/2-z
-x,-y,-z
x,y,1/2-z
-x,y,z
x,-y,1/2+z
1/2+x,1/2+y,z
1/2-x,1/2-y,1/2+z
1/2+x,1/2-y,-z
1/2-x,1/2+y,1/2-z
1/2-x,1/2-y,-z
1/2+x,1/2+y,1/2-z
1/2-x,1/2+y,z
1/2+x,1/2-y,1/2+z
loop_
_atom_site_type_symbol
_atom_site_label
_atom_site_fract_x
_atom_site_fract_y
_atom_site_fract_z
Si Si1 0.730949 0.858125 0.067952
Si Si2 0.000000 0.449786 0.929180
Si Si3 0.822354 0.220364 0.066524
Si Si4 0.671921 0.051982 0.432623
Si Si5 0.590299 0.201213 0.069837
O O1 0.739684 0.855718 0.250000
O O2 0.807839 0.832871 0.991544
O O3 0.733133 0.912118 0.011055
O O4 0.648677 0.833864 0.018571
O O5 0.916018 0.426199 0.974774
O O6 0.000000 0.458195 0.750000
O O7 0.000000 0.500000 0.000000
O O8 0.826006 0.222043 0.250000
O O9 0.750000 0.250000 0.000000
O O10 0.900349 0.245296 0.995333
O O11 0.686110 0.050293 0.250000
O O12 0.684499 0.000000 0.500000
O O13 0.612552 0.199987 0.250000
O O14 0.500000 0.184714 0.043152
#
# Coordination Sequence:
#
# PCOD8256171 Si02
#       5
#    16   8  16  16  16
#     4  11  21  32  47  67  92 124 159 193 231 276
#     4   8  16  28  42  56  78 110 144 184 226 264
#     4  10  18  31  49  67  90 119 151 189 232 277
#     4  10  19  32  46  64  88 119 156 194 235 272
#     4  10  20  33  49  69  94 122 153 191 232 276
#
# _framework density 17.323395000000001
#
# number of rings (size 3 to 8) (size 9 to 14) (size 15 to 20)
#    0.000    2.000    0.000    8.000    1.556    2.667 
#    0.000    0.000    0.000    0.000    0.000    0.000 
#    0.000    0.889    0.000    3.333    0.000    5.111 
#
# Total GULP energy -446028.715427 kJ/mol
# GULP energy per Si atom -12389.686540 kJ/mol
# Density = 1.728397 g / cm^3
# Si number density = 17.323395 Si / 1000 Ang^3
#
#
#
# Elastic Constant Matrix: (Units=GPa)
#
#
# Indices 1 2 3 4 5 6 
#
# 1 14.3608 7.5742 6.0796 0.0000 0.0000 0.0000
# 2 7.5742 81.7878 21.8943 0.0000 0.0000 0.0000
# 3 6.0796 21.8943 99.4216 0.0000 0.0000 0.0000
# 4 0.0000 0.0000 0.0000 31.2254 0.0000 0.0000
# 5 0.0000 0.0000 0.0000 0.0000 19.8732 0.0000
# 6 0.0000 0.0000 0.0000 0.0000 0.0000 25.0090
#
#
#
# Elastic Compliance Matrix: (Units=1/GPa)
#
#
# Indices 1 2 3 4 5 6 
#
# 1 0.074163 -0.006008 -0.003212 0.000000 0.000000 0.000000
# 2 -0.006008 0.013479 -0.002601 0.000000 0.000000 0.000000
# 3 -0.003212 -0.002601 0.010827 0.000000 0.000000 0.000000
# 4 0.000000 0.000000 0.000000 0.032025 0.000000 0.000000
# 5 0.000000 0.000000 0.000000 0.000000 0.050319 0.000000
# 6 0.000000 0.000000 0.000000 0.000000 0.000000 0.039986
#
#
# Mechanical properties :
#
#
# Convention : Reuss Voigt Hill
#
# Bulk Modulus (GPa) = 13.36409 29.62958 21.49684
# Shear Modulus (GPa) = 18.56086 25.88968 22.22527
#
# Velocity S-wave (km/s) = 3.27683 3.87006 3.58573
# Velocity P-wave (km/s) = 4.69553 6.09186 5.43869
#
# Compressibility (1/GPa) = 0.07482737
#
# Stress axis : x y z
#
# Youngs Moduli (GPa) = 13.48384 74.18700 92.35862
#
# Poissons Ratio (x) = 0.44573 0.29665
# Poissons Ratio (y) = 0.08101 0.24022
# Poissons Ratio (z) = 0.04331 0.19296
#
# Static dielectric constant tensor:
#      x y z
#    x 3.388480 0.000000 0.000000 
#    y 0.000000 3.469490 0.000000 
#    z 0.000000 0.000000 3.314380 
# 
# 
# High freq. dielectric constant tensor:
#      x y z
#    x 1.618180 0.000000 0.000000 
#    y 0.000000 1.664080 0.000000 
#    z 0.000000 0.000000 1.689000 
# 
# From -- ./inp_files/8389.got.cif
#   From: 2010.03.12/outbox.cif.g09.slc.cpg/sg63_5_cif.got.tgz:8389.got - 2010.04.10 19:34:48.
