data_PCOD8256656
_publ_section_title
;
Structure prediction by ZEFSAII (Michael W. Deem and Ramdas Pophale) SiO2 
 PCOD8256656
Probable space group: C M C M
;
_chemical_formula_sum "Si O2"
_cell_formula_units_Z 112
_cell_length_a 13.226212
_cell_length_b 31.646668
_cell_length_c 16.029221
_cell_angle_alpha 90.000000
_cell_angle_beta 90.000000
_cell_angle_gamma 90.000000
_cell_volume 6709.279545
_symmetry_space_group_name_H-M "C M C M"
_symmetry_group_IT_number 63
_symmetry_cell_setting 'orthorhombic'
loop_
_space_group_symop_operation_xyz
x,y,z
-x,-y,1/2+z
x,-y,-z
-x,y,1/2-z
-x,-y,-z
x,y,1/2-z
-x,y,z
x,-y,1/2+z
1/2+x,1/2+y,z
1/2-x,1/2-y,1/2+z
1/2+x,1/2-y,-z
1/2-x,1/2+y,1/2-z
1/2-x,1/2-y,-z
1/2+x,1/2+y,1/2-z
1/2-x,1/2+y,z
1/2+x,1/2-y,1/2+z
loop_
_atom_site_type_symbol
_atom_site_label
_atom_site_fract_x
_atom_site_fract_y
_atom_site_fract_z
Si Si1 0.388550 0.277188 0.847718
Si Si2 0.884305 0.928133 0.617829
Si Si3 0.119311 0.625783 0.503076
Si Si4 0.748586 0.147992 0.344470
Si Si5 0.620215 0.182663 0.843625
Si Si6 0.255797 0.046436 0.973886
Si Si7 0.109847 0.021871 0.841080
O O1 0.400843 0.283789 0.750000
O O2 0.500000 0.283356 0.889277
O O3 0.309473 0.311733 0.880931
O O4 0.345662 0.230330 0.866375
O O5 0.823526 0.891579 0.664801
O O6 0.836285 0.935646 0.527719
O O7 0.000000 0.913418 0.608657
O O8 0.873794 0.971581 0.668213
O O9 0.161560 0.640044 0.412912
O O10 0.161875 0.652934 0.581773
O O11 0.148723 0.577394 0.522827
O O12 0.000000 0.629497 0.496715
O O13 0.704547 0.155986 0.250000
O O14 0.660582 0.169915 0.750000
O O15 0.500000 0.180643 0.840893
O O16 0.205352 0.043937 0.883412
O O17 0.294005 0.000000 0.000000
O O18 0.106203 0.041983 0.750000
O O19 0.000000 0.029694 0.885847
#
# Coordination Sequence:
#
# PCOD8256656 Si02
#       7
#    16  16  16  16  16  16  16
#     4   8  14  26  46  72  98 118 137 171 222 274
#     4   9  16  27  44  66  93 120 143 172 216 273
#     4  10  21  34  47  64  86 119 162 199 231 262
#     4  10  19  29  44  68  95 122 150 178 214 266
#     4   8  15  30  50  69  89 112 142 185 231 270
#     4   9  18  31  45  62  86 116 152 193 231 269
#     4   9  16  26  43  67  92 116 140 171 220 280
#
# _framework density 16.693297999999999
#
# number of rings (size 3 to 8) (size 9 to 14) (size 15 to 20)
#    0.000    3.000    0.000    2.143    0.000    4.857 
#    0.000    0.000    0.000    0.000    0.000    3.000 
#    0.000    2.286    0.000    0.000    0.000    0.000 
#
# Total GULP energy -693798.003869 kJ/mol
# GULP energy per Si atom -12389.250069 kJ/mol
# Density = 1.665530 g / cm^3
# Si number density = 16.693298 Si / 1000 Ang^3
#
#
#
# Elastic Constant Matrix: (Units=GPa)
#
#
# Indices 1 2 3 4 5 6 
#
# 1 65.2230 37.2163 34.4871 0.0000 0.0000 0.0000
# 2 37.2163 87.0019 43.8189 0.0000 0.0000 0.0000
# 3 34.4871 43.8189 88.2510 0.0000 0.0000 0.0000
# 4 0.0000 0.0000 0.0000 16.4232 0.0000 0.0000
# 5 0.0000 0.0000 0.0000 0.0000 10.8874 0.0000
# 6 0.0000 0.0000 0.0000 0.0000 0.0000 18.5576
#
#
#
# Elastic Compliance Matrix: (Units=1/GPa)
#
#
# Indices 1 2 3 4 5 6 
#
# 1 0.021950 -0.006760 -0.005221 0.000000 0.000000 0.000000
# 2 -0.006760 0.017409 -0.006002 0.000000 0.000000 0.000000
# 3 -0.005221 -0.006002 0.016352 0.000000 0.000000 0.000000
# 4 0.000000 0.000000 0.000000 0.060889 0.000000 0.000000
# 5 0.000000 0.000000 0.000000 0.000000 0.091849 0.000000
# 6 0.000000 0.000000 0.000000 0.000000 0.000000 0.053886
#
#
# Mechanical properties :
#
#
# Convention : Reuss Voigt Hill
#
# Bulk Modulus (GPa) = 50.64819 52.39115 51.51967
# Shear Modulus (GPa) = 16.39970 17.50387 16.95178
#
# Velocity S-wave (km/s) = 3.13775 3.24166 3.19012
# Velocity P-wave (km/s) = 6.59800 6.74268 6.67073
#
# Compressibility (1/GPa) = 0.01974404
#
# Stress axis : x y z
#
# Youngs Moduli (GPa) = 45.55830 57.44287 61.15451
#
# Poissons Ratio (x) = 0.38829 0.31931
# Poissons Ratio (y) = 0.30796 0.36707
# Poissons Ratio (z) = 0.23788 0.34479
#
# Static dielectric constant tensor:
#      x y z
#    x 2.914240 0.000000 0.000000 
#    y 0.000000 3.306300 0.000000 
#    z 0.000000 0.000000 3.165810 
# 
# 
# High freq. dielectric constant tensor:
#      x y z
#    x 1.613080 0.000000 0.000000 
#    y 0.000000 1.640080 0.000000 
#    z 0.000000 0.000000 1.638120 
# 
# From -- ./inp_files/32804.got.cif
#   From: 2010.03.12/outbox.cif.g09.slc.cpg/sg63_17_cif.got.tgz:32804.got - 2010.04.10 19:34:48.
