data_PCOD8256906
_publ_section_title
;
Structure prediction by ZEFSAII (Michael W. Deem and Ramdas Pophale) SiO2 
 PCOD8256906
Probable space group: C M C M
;
_chemical_formula_sum "Si O2"
_cell_formula_units_Z 80
_cell_length_a 9.078858
_cell_length_b 18.557086
_cell_length_c 26.028393
_cell_angle_alpha 90.000000
_cell_angle_beta 90.000000
_cell_angle_gamma 90.000000
_cell_volume 4385.189438
_symmetry_space_group_name_H-M "C M C M"
_symmetry_group_IT_number 63
_symmetry_cell_setting 'orthorhombic'
loop_
_space_group_symop_operation_xyz
x,y,z
-x,-y,1/2+z
x,-y,-z
-x,y,1/2-z
-x,-y,-z
x,y,1/2-z
-x,y,z
x,-y,1/2+z
1/2+x,1/2+y,z
1/2-x,1/2-y,1/2+z
1/2+x,1/2-y,-z
1/2-x,1/2+y,1/2-z
1/2-x,1/2-y,-z
1/2+x,1/2+y,1/2-z
1/2-x,1/2+y,z
1/2+x,1/2-y,1/2+z
loop_
_atom_site_type_symbol
_atom_site_label
_atom_site_fract_x
_atom_site_fract_y
_atom_site_fract_z
Si Si1 0.834084 0.458188 0.250000
Si Si2 0.333022 0.713110 0.649385
Si Si3 0.171849 0.288509 0.453160
Si Si4 0.670330 0.042856 0.950525
Si Si5 0.165454 0.041558 0.849586
Si Si6 0.667131 0.213822 0.750000
O O1 0.752745 0.488675 0.199604
O O2 0.832500 0.372187 0.250000
O O3 0.000000 0.487710 0.250000
O O4 0.500000 0.742790 0.647746
O O5 0.245239 0.740082 0.599347
O O6 0.332932 0.627369 0.651332
O O7 0.251147 0.743702 0.699779
O O8 0.250000 0.250000 0.500000
O O9 0.198292 0.373195 0.459819
O O10 0.000000 0.268931 0.452130
O O11 0.500000 0.026438 0.940013
O O12 0.758635 0.013350 0.901464
O O13 0.728723 0.000000 0.000000
O O14 0.000000 0.011467 0.847439
O O15 0.500000 0.242927 0.750000
#
# Coordination Sequence:
#
# PCOD8256906 Si02
#       6
#     8  16  16  16  16   8
#     4   9  15  23  37  57  84 117 148 179 220 269
#     4   9  16  26  40  60  87 117 148 183 224 268
#     4  10  19  31  47  67  92 121 153 189 227 268
#     4   9  18  32  48  66  90 121 155 188 223 267
#     4   9  16  25  39  61  88 115 145 184 227 267
#     4   9  15  23  37  59  86 115 146 181 224 269
#
# _framework density 18.243224999999999
#
# number of rings (size 3 to 8) (size 9 to 14) (size 15 to 20)
#    0.000    2.800    0.000    2.400    0.000    8.400 
#    0.000    0.000    0.000    0.000    0.000    1.400 
#    0.000    3.200    0.000    0.000    0.000    0.000 
#
# Total GULP energy -495991.072909 kJ/mol
# GULP energy per Si atom -12399.776823 kJ/mol
# Density = 1.820170 g / cm^3
# Si number density = 18.243225 Si / 1000 Ang^3
#
#
#
# Elastic Constant Matrix: (Units=GPa)
#
#
# Indices 1 2 3 4 5 6 
#
# 1 172.9848 22.4813 116.8873 0.0000 0.0000 0.0000
# 2 22.4813 11.1643 27.6130 0.0000 0.0000 0.0000
# 3 116.8873 27.6130 216.6464 0.0000 0.0000 0.0000
# 4 0.0000 0.0000 0.0000 21.9718 0.0000 0.0000
# 5 0.0000 0.0000 0.0000 0.0000 44.7913 0.0000
# 6 0.0000 0.0000 0.0000 0.0000 0.0000 12.2223
#
#
#
# Elastic Compliance Matrix: (Units=1/GPa)
#
#
# Indices 1 2 3 4 5 6 
#
# 1 0.009766 -0.009687 -0.004034 0.000000 0.000000 0.000000
# 2 -0.009687 0.140417 -0.012670 0.000000 0.000000 0.000000
# 3 -0.004034 -0.012670 0.008407 0.000000 0.000000 0.000000
# 4 0.000000 0.000000 0.000000 0.045513 0.000000 0.000000
# 5 0.000000 0.000000 0.000000 0.000000 0.022326 0.000000
# 6 0.000000 0.000000 0.000000 0.000000 0.000000 0.081818
#
#
# Mechanical properties :
#
#
# Convention : Reuss Voigt Hill
#
# Bulk Modulus (GPa) = 9.45125 81.63986 45.54556
# Shear Modulus (GPa) = 12.61675 31.38468 22.00071
#
# Velocity S-wave (km/s) = 2.63265 4.15221 3.47647
# Velocity P-wave (km/s) = 3.79909 8.23624 6.41361
#
# Compressibility (1/GPa) = 0.10580608
#
# Stress axis : x y z
#
# Youngs Moduli (GPa) = 102.39828 7.12166 118.94355
#
# Poissons Ratio (x) = 0.06899 0.47985
# Poissons Ratio (y) = 0.99195 1.50707
# Poissons Ratio (z) = 0.41310 0.09023
#
# Static dielectric constant tensor:
#      x y z
#    x 3.585740 0.000000 0.000000 
#    y 0.000000 2.703100 0.000000 
#    z 0.000000 0.000000 3.620480 
# 
# 
# High freq. dielectric constant tensor:
#      x y z
#    x 1.723950 0.000000 0.000000 
#    y 0.000000 1.625700 0.000000 
#    z 0.000000 0.000000 1.728010 
# 
# From -- ./inp_files/50963.got.cif
#   From: 2010.03.12/outbox.cif.g09.slc.cpg/sg63_26_cif.got.tgz:50963.got - 2010.04.10 19:34:48.
