data_PCOD8256441
_publ_section_title
;
Structure prediction by ZEFSAII (Michael W. Deem and Ramdas Pophale) SiO2 
 PCOD8256441
Probable space group: C M C M
;
_chemical_formula_sum "Si O2"
_cell_formula_units_Z 72
_cell_length_a 13.261454
_cell_length_b 22.630850
_cell_length_c 13.326587
_cell_angle_alpha 90.000000
_cell_angle_beta 90.000000
_cell_angle_gamma 90.000000
_cell_volume 3999.548321
_symmetry_space_group_name_H-M "C M C M"
_symmetry_group_IT_number 63
_symmetry_cell_setting 'orthorhombic'
loop_
_space_group_symop_operation_xyz
x,y,z
-x,-y,1/2+z
x,-y,-z
-x,y,1/2-z
-x,-y,-z
x,y,1/2-z
-x,y,z
x,-y,1/2+z
1/2+x,1/2+y,z
1/2-x,1/2-y,1/2+z
1/2+x,1/2-y,-z
1/2-x,1/2+y,1/2-z
1/2-x,1/2-y,-z
1/2+x,1/2+y,1/2-z
1/2-x,1/2+y,z
1/2+x,1/2-y,1/2+z
loop_
_atom_site_type_symbol
_atom_site_label
_atom_site_fract_x
_atom_site_fract_y
_atom_site_fract_z
Si Si1 0.000000 0.171494 0.061464
Si Si2 0.500000 0.203970 0.863417
Si Si3 0.117285 0.978920 0.135945
Si Si4 0.500000 0.745566 0.634223
Si Si5 0.682306 0.405680 0.541448
Si Si6 0.669842 0.197075 0.481249
O O1 0.903078 0.134400 0.089585
O O2 0.000000 0.225443 0.137845
O O3 0.000000 0.190752 0.943616
O O4 0.500000 0.178889 0.750000
O O5 0.398300 0.184354 0.920654
O O6 0.133985 0.961168 0.250000
O O7 0.000000 0.993843 0.112084
O O8 0.187914 0.034859 0.107891
O O9 0.153271 0.922573 0.072577
O O10 0.500000 0.724090 0.750000
O O11 0.599905 0.784314 0.612561
O O12 0.782946 0.366612 0.544529
O O13 0.750000 0.250000 0.500000
#
# Coordination Sequence:
#
# PCOD8256441 Si02
#       6
#     8   8  16   8  16  16
#     4  10  18  33  52  80 112 147 172 216 268 316
#     4  10  22  36  51  80 114 142 181 223 262 317
#     4  10  21  33  52  81 109 141 178 219 267 315
#     4  10  22  36  51  80 114 142 181 223 262 317
#     4  11  18  36  54  75 114 145 174 214 263 325
#     4  10  20  37  55  79 109 145 180 217 273 320
#
# _framework density 18.002032
#
# number of rings (size 3 to 8) (size 9 to 14) (size 15 to 20)
#    0.000    2.000    6.667    0.667    0.000    4.444 
#    0.000    0.000    0.000   10.667    0.000   12.444 
#    0.000    0.000    0.000    0.000    0.000    0.000 
#
# Total GULP energy -446162.818415 kJ/mol
# GULP energy per Si atom -12393.411623 kJ/mol
# Density = 1.796106 g / cm^3
# Si number density = 18.002032 Si / 1000 Ang^3
#
#
#
# Elastic Constant Matrix: (Units=GPa)
#
#
# Indices 1 2 3 4 5 6 
#
# 1 93.6139 20.9623 1.0954 0.0000 0.0000 0.0000
# 2 20.9623 52.9679 -29.6099 0.0000 0.0000 0.0000
# 3 1.0954 -29.6099 62.2934 0.0000 0.0000 0.0000
# 4 0.0000 0.0000 0.0000 14.2756 0.0000 0.0000
# 5 0.0000 0.0000 0.0000 0.0000 19.0204 0.0000
# 6 0.0000 0.0000 0.0000 0.0000 0.0000 26.1046
#
#
#
# Elastic Compliance Matrix: (Units=1/GPa)
#
#
# Indices 1 2 3 4 5 6 
#
# 1 0.012236 -0.006758 -0.003428 0.000000 0.000000 0.000000
# 2 -0.006758 0.029444 0.014115 0.000000 0.000000 0.000000
# 3 -0.003428 0.014115 0.022822 0.000000 0.000000 0.000000
# 4 0.000000 0.000000 0.000000 0.070049 0.000000 0.000000
# 5 0.000000 0.000000 0.000000 0.000000 0.052575 0.000000
# 6 0.000000 0.000000 0.000000 0.000000 0.000000 0.038307
#
#
# Mechanical properties :
#
#
# Convention : Reuss Voigt Hill
#
# Bulk Modulus (GPa) = 13.81988 21.53008 17.67498
# Shear Modulus (GPa) = 20.68704 26.30862 23.49783
#
# Velocity S-wave (km/s) = 3.39359 3.82701 3.61680
# Velocity P-wave (km/s) = 4.80091 5.61371 5.22315
#
# Compressibility (1/GPa) = 0.07235955
#
# Stress axis : x y z
#
# Youngs Moduli (GPa) = 81.72844 33.96239 43.81654
#
# Poissons Ratio (x) = 0.22953 0.15019
# Poissons Ratio (y) = 0.55235 -0.61845
# Poissons Ratio (z) = 0.28014 -0.47937
#
# Static dielectric constant tensor:
#      x y z
#    x 3.311390 0.000000 0.000000 
#    y 0.000000 3.239450 0.000000 
#    z 0.000000 0.000000 3.149400 
# 
# 
# High freq. dielectric constant tensor:
#      x y z
#    x 1.684360 0.000000 0.000000 
#    y 0.000000 1.689950 0.000000 
#    z 0.000000 0.000000 1.687250 
# 
# From -- ./inp_files/29655.got.cif
#   From: 2010.03.12/outbox.cif.g09.slc.cpg/sg63_15_cif.got.tgz:29655.got - 2010.04.10 19:34:48.
