data_PCOD8256046
_publ_section_title
;
Structure prediction by ZEFSAII (Michael W. Deem and Ramdas Pophale) SiO2 
 PCOD8256046
Probable space group: C M C M
;
_chemical_formula_sum "Si O2"
_cell_formula_units_Z 128
_cell_length_a 12.614453
_cell_length_b 22.257957
_cell_length_c 27.399039
_cell_angle_alpha 90.000000
_cell_angle_beta 90.000000
_cell_angle_gamma 90.000000
_cell_volume 7692.881675
_symmetry_space_group_name_H-M "C M C M"
_symmetry_group_IT_number 63
_symmetry_cell_setting 'orthorhombic'
loop_
_space_group_symop_operation_xyz
x,y,z
-x,-y,1/2+z
x,-y,-z
-x,y,1/2-z
-x,-y,-z
x,y,1/2-z
-x,y,z
x,-y,1/2+z
1/2+x,1/2+y,z
1/2-x,1/2-y,1/2+z
1/2+x,1/2-y,-z
1/2-x,1/2+y,1/2-z
1/2-x,1/2-y,-z
1/2+x,1/2+y,1/2-z
1/2-x,1/2+y,z
1/2+x,1/2-y,1/2+z
loop_
_atom_site_type_symbol
_atom_site_label
_atom_site_fract_x
_atom_site_fract_y
_atom_site_fract_z
Si Si1 0.877502 0.585313 0.886731
Si Si2 0.625388 0.675747 0.413847
Si Si3 0.620981 0.549405 0.370657
Si Si4 0.377107 0.656441 0.694456
Si Si5 0.301920 0.464097 0.451814
Si Si6 0.878894 0.835566 0.025342
Si Si7 0.239100 0.706580 0.888404
Si Si8 0.256435 0.535410 0.694082
O O1 0.810806 0.552794 0.928705
O O2 0.851510 0.655938 0.886427
O O3 0.849351 0.554814 0.834776
O O4 0.000000 0.575578 0.898141
O O5 0.500000 0.683641 0.409794
O O6 0.662367 0.614415 0.387873
O O7 0.660814 0.675874 0.470337
O O8 0.683079 0.729293 0.385497
O O9 0.500000 0.553097 0.352666
O O10 0.627855 0.504010 0.415859
O O11 0.694152 0.526495 0.326218
O O12 0.353139 0.676172 0.750000
O O13 0.500000 0.661345 0.681595
O O14 0.314716 0.700727 0.658591
O O15 0.343703 0.587457 0.686043
O O16 0.274375 0.500000 0.500000
O O17 0.371733 0.405898 0.462927
O O18 0.806684 0.797407 0.061971
O O19 0.000000 0.814700 0.031810
O O20 0.224769 0.526012 0.750000
#
# Coordination Sequence:
#
# PCOD8256046 Si02
#       8
#    16  16  16  16  16  16  16  16
#     4   9  19  32  48  70  94 126 166 203 239 277
#     4  10  20  32  47  68  99 136 167 196 233 284
#     4  10  19  30  48  74 102 130 156 192 245 296
#     4   9  17  31  53  78  99 120 152 200 254 295
#     4  10  18  30  49  72  99 126 158 199 242 289
#     4  10  19  30  49  75  99 128 164 200 244 290
#     4  10  19  32  49  69  99 131 166 203 236 279
#     4   9  18  32  52  77 100 122 154 200 250 299
#
# _framework density 16.638757999999999
#
# number of rings (size 3 to 8) (size 9 to 14) (size 15 to 20)
#    0.000    2.375    1.250    2.625    0.000    1.750 
#    0.000    0.625    0.000    8.625    0.000    0.000 
#    0.000    0.000    0.000    0.000    0.000    0.000 
#
# Total GULP energy -793703.571328 kJ/mol
# GULP energy per Si atom -12401.618302 kJ/mol
# Density = 1.660089 g / cm^3
# Si number density = 16.638758 Si / 1000 Ang^3
#
#
#
# Elastic Constant Matrix: (Units=GPa)
#
#
# Indices 1 2 3 4 5 6 
#
# 1 61.1371 15.3954 15.5419 0.0000 0.0000 0.0000
# 2 15.3954 79.4710 18.5478 0.0000 0.0000 0.0000
# 3 15.5419 18.5478 74.6989 0.0000 0.0000 0.0000
# 4 0.0000 0.0000 0.0000 17.4539 0.0000 0.0000
# 5 0.0000 0.0000 0.0000 0.0000 25.5520 0.0000
# 6 0.0000 0.0000 0.0000 0.0000 0.0000 39.9267
#
#
#
# Elastic Compliance Matrix: (Units=1/GPa)
#
#
# Indices 1 2 3 4 5 6 
#
# 1 0.017817 -0.002745 -0.003025 0.000000 0.000000 0.000000
# 2 -0.002745 0.013780 -0.002850 0.000000 0.000000 0.000000
# 3 -0.003025 -0.002850 0.014724 0.000000 0.000000 0.000000
# 4 0.000000 0.000000 0.000000 0.057294 0.000000 0.000000
# 5 0.000000 0.000000 0.000000 0.000000 0.039136 0.000000
# 6 0.000000 0.000000 0.000000 0.000000 0.000000 0.025046
#
#
# Mechanical properties :
#
#
# Convention : Reuss Voigt Hill
#
# Bulk Modulus (GPa) = 34.38882 34.91968 34.65425
# Shear Modulus (GPa) = 25.67619 27.64132 26.65875
#
# Velocity S-wave (km/s) = 3.93256 4.08028 4.00710
# Velocity P-wave (km/s) = 6.42906 6.57501 6.50245
#
# Compressibility (1/GPa) = 0.02907922
#
# Stress axis : x y z
#
# Youngs Moduli (GPa) = 56.12580 72.56714 67.91495
#
# Poissons Ratio (x) = 0.19923 0.20547
# Poissons Ratio (y) = 0.15409 0.19359
# Poissons Ratio (z) = 0.16980 0.20685
#
# Static dielectric constant tensor:
#      x y z
#    x 2.895300 0.000000 0.000000 
#    y 0.000000 3.014890 0.000000 
#    z 0.000000 0.000000 3.258280 
# 
# 
# High freq. dielectric constant tensor:
#      x y z
#    x 1.629040 0.000000 0.000000 
#    y 0.000000 1.627810 0.000000 
#    z 0.000000 0.000000 1.645710 
# 
# From -- ./inp_files/68790.got.cif
#   From: 2010.03.12/outbox.cif.g09.slc.cpg/sg63_35_cif.got.tgz:68790.got - 2010.04.10 19:34:48.
