data_PCOD8256920
_publ_section_title
;
Structure prediction by ZEFSAII (Michael W. Deem and Ramdas Pophale) SiO2 
 PCOD8256920
Probable space group: C M C M
;
_chemical_formula_sum "Si O2"
_cell_formula_units_Z 96
_cell_length_a 9.108333
_cell_length_b 27.262525
_cell_length_c 22.708185
_cell_angle_alpha 90.000000
_cell_angle_beta 90.000000
_cell_angle_gamma 90.000000
_cell_volume 5638.809212
_symmetry_space_group_name_H-M "C M C M"
_symmetry_group_IT_number 63
_symmetry_cell_setting 'orthorhombic'
loop_
_space_group_symop_operation_xyz
x,y,z
-x,-y,1/2+z
x,-y,-z
-x,y,1/2-z
-x,-y,-z
x,y,1/2-z
-x,y,z
x,-y,1/2+z
1/2+x,1/2+y,z
1/2-x,1/2-y,1/2+z
1/2+x,1/2-y,-z
1/2-x,1/2+y,1/2-z
1/2-x,1/2-y,-z
1/2+x,1/2+y,1/2-z
1/2-x,1/2+y,z
1/2+x,1/2-y,1/2+z
loop_
_atom_site_type_symbol
_atom_site_label
_atom_site_fract_x
_atom_site_fract_y
_atom_site_fract_z
Si Si1 0.825477 0.620054 0.750000
Si Si2 0.827465 0.356787 0.374734
Si Si3 0.335306 0.440573 0.430873
Si Si4 0.325195 0.198837 0.987822
Si Si5 0.668945 0.612473 0.451924
Si Si6 0.332274 0.465232 0.638905
Si Si7 0.825946 0.507946 0.750000
O O1 0.772089 0.651108 0.692660
O O2 0.763941 0.563939 0.750000
O O3 0.000000 0.615671 0.750000
O O4 0.778429 0.411210 0.390914
O O5 0.768429 0.317538 0.422467
O O6 0.000000 0.355187 0.377517
O O7 0.500000 0.423307 0.414537
O O8 0.304166 0.429661 0.499220
O O9 0.313142 0.497360 0.415735
O O10 0.500000 0.203762 0.991489
O O11 0.250000 0.250000 0.000000
O O12 0.272400 0.159255 0.036182
O O13 0.500000 0.630290 0.452621
O O14 0.708186 0.588113 0.388680
O O15 0.500000 0.465470 0.661616
O O16 0.228114 0.478472 0.692847
O O17 0.000000 0.507287 0.750000
#
# Coordination Sequence:
#
# PCOD8256920 Si02
#       7
#     8  16  16  16  16  16   8
#     4   9  16  29  47  68  99 132 163 196 233 282
#     4   9  17  30  48  71  98 130 163 198 243 294
#     4   9  16  27  45  70  99 130 162 197 238 285
#     4  10  20  34  54  76  98 124 161 209 262 312
#     4   9  18  32  50  72  98 128 162 202 247 294
#     4  10  19  31  47  69 100 135 170 203 238 285
#     4  11  21  31  47  68  99 142 175 204 239 280
#
# _framework density 17.02487
#
# number of rings (size 3 to 8) (size 9 to 14) (size 15 to 20)
#    0.000    2.500    1.667    1.250    0.000    3.333 
#    0.000    0.417    0.000    6.000    0.000    5.833 
#    0.000    0.000    0.000    0.000    0.000    0.000 
#
# Total GULP energy -594796.247303 kJ/mol
# GULP energy per Si atom -12391.588485 kJ/mol
# Density = 1.698612 g / cm^3
# Si number density = 17.024870 Si / 1000 Ang^3
#
#
#
# Elastic Constant Matrix: (Units=GPa)
#
#
# Indices 1 2 3 4 5 6 
#
# 1 41.8239 38.1149 34.9180 0.0000 0.0000 0.0000
# 2 38.1149 97.9078 55.1433 0.0000 0.0000 0.0000
# 3 34.9180 55.1433 95.1168 0.0000 0.0000 0.0000
# 4 0.0000 0.0000 0.0000 15.0695 0.0000 0.0000
# 5 0.0000 0.0000 0.0000 0.0000 23.7828 0.0000
# 6 0.0000 0.0000 0.0000 0.0000 0.0000 24.3761
#
#
#
# Elastic Compliance Matrix: (Units=1/GPa)
#
#
# Indices 1 2 3 4 5 6 
#
# 1 0.041388 -0.011217 -0.008691 0.000000 0.000000 0.000000
# 2 -0.011217 0.018206 -0.006437 0.000000 0.000000 0.000000
# 3 -0.008691 -0.006437 0.017435 0.000000 0.000000 0.000000
# 4 0.000000 0.000000 0.000000 0.066359 0.000000 0.000000
# 5 0.000000 0.000000 0.000000 0.000000 0.042047 0.000000
# 6 0.000000 0.000000 0.000000 0.000000 0.000000 0.041024
#
#
# Mechanical properties :
#
#
# Convention : Reuss Voigt Hill
#
# Bulk Modulus (GPa) = 41.08499 54.57787 47.83143
# Shear Modulus (GPa) = 17.40570 19.75716 18.58143
#
# Velocity S-wave (km/s) = 3.20092 3.41029 3.30726
# Velocity P-wave (km/s) = 6.15190 6.90175 6.53758
#
# Compressibility (1/GPa) = 0.02433979
#
# Stress axis : x y z
#
# Youngs Moduli (GPa) = 24.16161 54.92751 57.35457
#
# Poissons Ratio (x) = 0.61614 0.49845
# Poissons Ratio (y) = 0.27103 0.36917
# Poissons Ratio (z) = 0.20998 0.35355
#
# Static dielectric constant tensor:
#      x y z
#    x 3.117250 0.000000 0.000000 
#    y 0.000000 2.970620 0.000000 
#    z 0.000000 0.000000 3.554270 
# 
# 
# High freq. dielectric constant tensor:
#      x y z
#    x 1.647850 0.000000 0.000000 
#    y 0.000000 1.627420 0.000000 
#    z 0.000000 0.000000 1.656900 
# 
# From -- ./inp_files/60066.got.cif
#   From: 2010.03.12/outbox.cif.g09.slc.cpg/sg63_31_cif.got.tgz:60066.got - 2010.04.10 19:34:48.
