data_PCOD8256246
_publ_section_title
;
Structure prediction by ZEFSAII (Michael W. Deem and Ramdas Pophale) SiO2 
 PCOD8256246
Probable space group: C M C M
;
_chemical_formula_sum "Si O2"
_cell_formula_units_Z 104
_cell_length_a 16.918289
_cell_length_b 15.246885
_cell_length_c 20.118885
_cell_angle_alpha 90.000000
_cell_angle_beta 90.000000
_cell_angle_gamma 90.000000
_cell_volume 5189.690665
_symmetry_space_group_name_H-M "C M C M"
_symmetry_group_IT_number 63
_symmetry_cell_setting 'orthorhombic'
loop_
_space_group_symop_operation_xyz
x,y,z
-x,-y,1/2+z
x,-y,-z
-x,y,1/2-z
-x,-y,-z
x,y,1/2-z
-x,y,z
x,-y,1/2+z
1/2+x,1/2+y,z
1/2-x,1/2-y,1/2+z
1/2+x,1/2-y,-z
1/2-x,1/2+y,1/2-z
1/2-x,1/2-y,-z
1/2+x,1/2+y,1/2-z
1/2-x,1/2+y,z
1/2+x,1/2-y,1/2+z
loop_
_atom_site_type_symbol
_atom_site_label
_atom_site_fract_x
_atom_site_fract_y
_atom_site_fract_z
Si Si1 0.088011 0.386515 0.358886
Si Si2 0.170080 0.010179 0.106605
Si Si3 0.180430 0.988298 0.750000
Si Si4 0.792885 0.654725 0.750000
Si Si5 0.854333 0.333439 0.500289
Si Si6 0.348222 0.067111 0.371201
Si Si7 0.168277 0.139081 0.993982
Si Si8 0.705507 0.166943 0.250000
O O1 0.152112 0.334535 0.314892
O O2 0.101149 0.367568 0.436028
O O3 0.093855 0.490852 0.346069
O O4 0.000000 0.356527 0.338223
O O5 0.130652 0.004779 0.180830
O O6 0.264276 0.019794 0.115152
O O7 0.147219 0.920528 0.069404
O O8 0.139980 0.092200 0.062535
O O9 0.215447 0.890673 0.750000
O O10 0.250095 0.060743 0.750000
O O11 0.727101 0.730560 0.750000
O O12 0.884429 0.389535 0.562743
O O13 0.876356 0.231352 0.511495
O O14 0.761332 0.346090 0.493798
O O15 0.343703 0.143814 0.316171
#
# Coordination Sequence:
#
# PCOD8256246 Si02
#       8
#    16  16   8   8  16  16  16   8
#     4  12  24  39  55  79 121 166 194 221 277 362
#     4   9  16  29  47  73 108 142 168 228 291 354
#     4  10  18  31  52  80 115 136 180 230 293 349
#     4  12  23  37  57  80 117 156 190 236 289 347
#     4  10  20  30  51  78 104 149 195 238 279 332
#     4  10  19  35  51  79 112 148 193 237 288 340
#     4   9  17  29  48  74 112 138 182 233 301 335
#     4  10  22  34  56  82 118 150 184 248 298 344
#
# _framework density 20.039731
#
# number of rings (size 3 to 8) (size 9 to 14) (size 15 to 20)
#    0.000    1.846    4.615    0.692   10.769    1.231 
#    0.000    0.000    0.000    0.000    0.000    2.154 
#    0.000    2.462    0.000    0.000    0.000    0.000 
#
# Total GULP energy -644580.902410 kJ/mol
# GULP energy per Si atom -12395.786585 kJ/mol
# Density = 1.999412 g / cm^3
# Si number density = 20.039731 Si / 1000 Ang^3
#
#
#
# Elastic Constant Matrix: (Units=GPa)
#
#
# Indices 1 2 3 4 5 6 
#
# 1 21.8259 10.6562 9.9490 0.0000 0.0000 0.0000
# 2 10.6562 101.5557 36.4339 0.0000 0.0000 0.0000
# 3 9.9490 36.4339 161.6187 0.0000 0.0000 0.0000
# 4 0.0000 0.0000 0.0000 30.5632 0.0000 0.0000
# 5 0.0000 0.0000 0.0000 0.0000 3.0433 0.0000
# 6 0.0000 0.0000 0.0000 0.0000 0.0000 11.4955
#
#
#
# Elastic Compliance Matrix: (Units=1/GPa)
#
#
# Indices 1 2 3 4 5 6 
#
# 1 0.048888 -0.004406 -0.002016 0.000000 0.000000 0.000000
# 2 -0.004406 0.011110 -0.002233 0.000000 0.000000 0.000000
# 3 -0.002016 -0.002233 0.006815 0.000000 0.000000 0.000000
# 4 0.000000 0.000000 0.000000 0.032719 0.000000 0.000000
# 5 0.000000 0.000000 0.000000 0.000000 0.328589 0.000000
# 6 0.000000 0.000000 0.000000 0.000000 0.000000 0.086991
#
#
# Mechanical properties :
#
#
# Convention : Reuss Voigt Hill
#
# Bulk Modulus (GPa) = 20.20155 44.34205 32.27180
# Shear Modulus (GPa) = 9.10873 24.21781 16.66327
#
# Velocity S-wave (km/s) = 2.13429 3.48011 2.88672
# Velocity P-wave (km/s) = 4.02197 6.19058 5.22013
#
# Compressibility (1/GPa) = 0.04950114
#
# Stress axis : x y z
#
# Youngs Moduli (GPa) = 20.45509 90.00560 146.73541
#
# Poissons Ratio (x) = 0.39660 0.29583
# Poissons Ratio (y) = 0.09013 0.32772
# Poissons Ratio (z) = 0.04124 0.20102
#
# Static dielectric constant tensor:
#      x y z
#    x 2.898430 0.000000 0.000000 
#    y 0.000000 3.737680 0.000000 
#    z 0.000000 0.000000 4.115260 
# 
# 
# High freq. dielectric constant tensor:
#      x y z
#    x 1.698160 0.000000 0.000000 
#    y 0.000000 1.785310 0.000000 
#    z 0.000000 0.000000 1.806150 
# 
# From -- ./inp_files/55661.got.cif
#   From: 2010.03.12/outbox.cif.g09.slc.cpg/sg63_28_cif.got.tgz:55661.got - 2010.04.10 19:34:48.
