data_PCOD8256008
_publ_section_title
;
Structure prediction by ZEFSAII (Michael W. Deem and Ramdas Pophale) SiO2 
 PCOD8256008
Probable space group: C M C M
;
_chemical_formula_sum "Si O2"
_cell_formula_units_Z 72
_cell_length_a 17.799864
_cell_length_b 23.404684
_cell_length_c 9.479321
_cell_angle_alpha 90.000000
_cell_angle_beta 90.000000
_cell_angle_gamma 90.000000
_cell_volume 3949.086950
_symmetry_space_group_name_H-M "C M C M"
_symmetry_group_IT_number 63
_symmetry_cell_setting 'orthorhombic'
loop_
_space_group_symop_operation_xyz
x,y,z
-x,-y,1/2+z
x,-y,-z
-x,y,1/2-z
-x,-y,-z
x,y,1/2-z
-x,y,z
x,-y,1/2+z
1/2+x,1/2+y,z
1/2-x,1/2-y,1/2+z
1/2+x,1/2-y,-z
1/2-x,1/2+y,1/2-z
1/2-x,1/2-y,-z
1/2+x,1/2+y,1/2-z
1/2-x,1/2+y,z
1/2+x,1/2-y,1/2+z
loop_
_atom_site_type_symbol
_atom_site_label
_atom_site_fract_x
_atom_site_fract_y
_atom_site_fract_z
Si Si1 0.716840 0.058020 0.584781
Si Si2 0.585477 0.859684 0.086789
Si Si3 0.141691 0.130440 0.916687
Si Si4 0.087916 0.250278 0.587219
Si Si5 0.000000 0.058446 0.581971
O O1 0.725946 0.044344 0.750000
O O2 0.636166 0.085585 0.549895
O O3 0.780311 0.102595 0.533018
O O4 0.725790 0.000000 0.500000
O O5 0.593439 0.843271 0.250000
O O6 0.500000 0.875758 0.046551
O O7 0.614252 0.805266 0.000007
O O8 0.136548 0.133645 0.750000
O O9 0.133668 0.195505 0.972492
O O10 0.072971 0.092385 0.971494
O O11 0.106253 0.262585 0.750000
O O12 0.000000 0.237599 0.565593
O O13 0.000000 0.048204 0.750000
O O14 0.000000 0.000000 0.500000
#
# Coordination Sequence:
#
# PCOD8256008 Si02
#       5
#    16  16  16  16   8
#     4  10  21  36  52  71  99 132 166 205 247 291
#     4   9  19  35  52  72 100 131 160 201 256 298
#     4   9  17  31  51  73  99 131 163 199 243 287
#     4   9  16  30  53  77  99 127 165 202 238 291
#     4  10  18  30  48  70  98 132 167 200 235 282
#
# _framework density 18.232061999999999
#
# number of rings (size 3 to 8) (size 9 to 14) (size 15 to 20)
#    0.000    2.667    1.111    0.667    0.000    2.222 
#    0.000    2.222    0.000    0.000    0.000    0.000 
#    0.000    0.000    0.000    0.000    0.000    0.000 
#
# Total GULP energy -446380.771066 kJ/mol
# GULP energy per Si atom -12399.465863 kJ/mol
# Density = 1.819057 g / cm^3
# Si number density = 18.232062 Si / 1000 Ang^3
#
#
#
# Elastic Constant Matrix: (Units=GPa)
#
#
# Indices 1 2 3 4 5 6 
#
# 1 91.9798 40.4028 24.4872 0.0000 0.0000 0.0000
# 2 40.4028 93.5734 37.6870 0.0000 0.0000 0.0000
# 3 24.4872 37.6870 39.9610 0.0000 0.0000 0.0000
# 4 0.0000 0.0000 0.0000 37.4638 0.0000 0.0000
# 5 0.0000 0.0000 0.0000 0.0000 14.7844 0.0000
# 6 0.0000 0.0000 0.0000 0.0000 0.0000 30.5661
#
#
#
# Elastic Compliance Matrix: (Units=1/GPa)
#
#
# Indices 1 2 3 4 5 6 
#
# 1 0.013925 -0.004154 -0.004616 0.000000 0.000000 0.000000
# 2 -0.004154 0.018471 -0.014875 0.000000 0.000000 0.000000
# 3 -0.004616 -0.014875 0.041881 0.000000 0.000000 0.000000
# 4 0.000000 0.000000 0.000000 0.026692 0.000000 0.000000
# 5 0.000000 0.000000 0.000000 0.000000 0.067639 0.000000
# 6 0.000000 0.000000 0.000000 0.000000 0.000000 0.032716
#
#
# Mechanical properties :
#
#
# Convention : Reuss Voigt Hill
#
# Bulk Modulus (GPa) = 37.05191 47.85201 42.45196
# Shear Modulus (GPa) = 19.40921 24.75869 22.08395
#
# Velocity S-wave (km/s) = 3.26631 3.68907 3.48411
# Velocity P-wave (km/s) = 5.88146 6.66699 6.28650
#
# Compressibility (1/GPa) = 0.02698916
#
# Stress axis : x y z
#
# Youngs Moduli (GPa) = 71.81185 54.13872 23.87703
#
# Poissons Ratio (x) = 0.22487 0.11021
# Poissons Ratio (y) = 0.29827 0.35517
# Poissons Ratio (z) = 0.33148 0.80530
#
# Static dielectric constant tensor:
#      x y z
#    x 3.764300 0.000000 0.000000 
#    y 0.000000 3.390580 0.000000 
#    z 0.000000 0.000000 3.148950 
# 
# 
# High freq. dielectric constant tensor:
#      x y z
#    x 1.709420 0.000000 0.000000 
#    y 0.000000 1.711910 0.000000 
#    z 0.000000 0.000000 1.676580 
# 
# From -- ./inp_files/6082.got.cif
#   From: 2010.03.12/outbox.cif.g09.slc.cpg/sg63_4_cif.got.tgz:6082.got - 2010.04.10 19:34:48.
