data_PCOD8256256
_publ_section_title
;
Structure prediction by ZEFSAII (Michael W. Deem and Ramdas Pophale) SiO2 
 PCOD8256256
Probable space group: C M C M
;
_chemical_formula_sum "Si O2"
_cell_formula_units_Z 72
_cell_length_a 9.920579
_cell_length_b 22.941321
_cell_length_c 17.230709
_cell_angle_alpha 90.000000
_cell_angle_beta 90.000000
_cell_angle_gamma 90.000000
_cell_volume 3921.557520
_symmetry_space_group_name_H-M "C M C M"
_symmetry_group_IT_number 63
_symmetry_cell_setting 'orthorhombic'
loop_
_space_group_symop_operation_xyz
x,y,z
-x,-y,1/2+z
x,-y,-z
-x,y,1/2-z
-x,-y,-z
x,y,1/2-z
-x,y,z
x,-y,1/2+z
1/2+x,1/2+y,z
1/2-x,1/2-y,1/2+z
1/2+x,1/2-y,-z
1/2-x,1/2+y,1/2-z
1/2-x,1/2-y,-z
1/2+x,1/2+y,1/2-z
1/2-x,1/2+y,z
1/2+x,1/2-y,1/2+z
loop_
_atom_site_type_symbol
_atom_site_label
_atom_site_fract_x
_atom_site_fract_y
_atom_site_fract_z
Si Si1 0.000000 0.035179 0.835124
Si Si2 0.000000 0.221132 0.437399
Si Si3 0.500000 0.180145 0.437649
Si Si4 0.500000 0.404539 0.493959
Si Si5 0.000000 0.549273 0.063124
Si Si6 0.205573 0.056842 0.115513
Si Si7 0.764071 0.183526 0.337972
O O1 0.000000 0.084240 0.901825
O O2 0.000000 0.065409 0.750000
O O3 0.867066 0.995286 0.840038
O O4 0.870827 0.223830 0.382013
O O5 0.000000 0.278362 0.488977
O O6 0.000000 0.164635 0.493105
O O7 0.500000 0.114538 0.472286
O O8 0.626150 0.191176 0.383170
O O9 0.365836 0.434116 0.531156
O O10 0.863809 0.541237 0.112680
O O11 0.000000 0.500000 0.000000
O O12 0.185414 0.116641 0.162859
O O13 0.747808 0.205478 0.250000
#
# Coordination Sequence:
#
# PCOD8256256 Si02
#       7
#     8   8   8   8   8  16  16
#     4  11  19  30  47  71 102 134 164 204 252 303
#     4  10  20  35  54  74 101 136 174 210 249 302
#     4  10  21  34  51  76 107 137 164 205 257 308
#     4   9  18  32  50  70  97 132 170 205 245 301
#     4  10  18  31  53  77  98 127 164 204 246 300
#     4   9  18  31  51  75 100 128 165 210 255 298
#     4  10  19  33  53  79 102 129 170 217 255 290
#
# _framework density 18.360050999999999
#
# number of rings (size 3 to 8) (size 9 to 14) (size 15 to 20)
#    0.000    2.222    0.000    5.333    0.000    0.000 
#    0.000    2.778    0.000    0.000    0.000   14.000 
#    0.000    0.000    0.000    0.000    0.000    0.000 
#
# Total GULP energy -446339.580732 kJ/mol
# GULP energy per Si atom -12398.321687 kJ/mol
# Density = 1.831826 g / cm^3
# Si number density = 18.360051 Si / 1000 Ang^3
#
#
#
# Elastic Constant Matrix: (Units=GPa)
#
#
# Indices 1 2 3 4 5 6 
#
# 1 145.9803 35.4208 46.2578 0.0000 0.0000 0.0000
# 2 35.4208 67.0472 49.4242 0.0000 0.0000 0.0000
# 3 46.2578 49.4242 141.1009 0.0000 0.0000 0.0000
# 4 0.0000 0.0000 0.0000 23.0081 0.0000 0.0000
# 5 0.0000 0.0000 0.0000 0.0000 12.4592 0.0000
# 6 0.0000 0.0000 0.0000 0.0000 0.0000 27.9671
#
#
#
# Elastic Compliance Matrix: (Units=1/GPa)
#
#
# Indices 1 2 3 4 5 6 
#
# 1 0.008104 -0.003132 -0.001560 0.000000 0.000000 0.000000
# 2 -0.003132 0.021317 -0.006440 0.000000 0.000000 0.000000
# 3 -0.001560 -0.006440 0.009854 0.000000 0.000000 0.000000
# 4 0.000000 0.000000 0.000000 0.043463 0.000000 0.000000
# 5 0.000000 0.000000 0.000000 0.000000 0.080262 0.000000
# 6 0.000000 0.000000 0.000000 0.000000 0.000000 0.035756
#
#
# Mechanical properties :
#
#
# Convention : Reuss Voigt Hill
#
# Bulk Modulus (GPa) = 58.78165 68.48154 63.63159
# Shear Modulus (GPa) = 22.05651 27.55526 24.80589
#
# Velocity S-wave (km/s) = 3.46978 3.87825 3.67969
# Velocity P-wave (km/s) = 6.93816 7.57857 7.26542
#
# Compressibility (1/GPa) = 0.01701211
#
# Stress axis : x y z
#
# Youngs Moduli (GPa) = 123.38958 46.91184 101.47811
#
# Poissons Ratio (x) = 0.14691 0.15831
# Poissons Ratio (y) = 0.38640 0.65352
# Poissons Ratio (z) = 0.19249 0.30211
#
# Static dielectric constant tensor:
#      x y z
#    x 3.324840 0.000000 0.000000 
#    y 0.000000 3.183630 0.000000 
#    z 0.000000 0.000000 3.175240 
# 
# 
# High freq. dielectric constant tensor:
#      x y z
#    x 1.730970 0.000000 0.000000 
#    y 0.000000 1.684000 0.000000 
#    z 0.000000 0.000000 1.696130 
# 
# From -- ./inp_files/40312.got.cif
#   From: 2010.03.12/outbox.cif.g09.slc.cpg/sg63_21_cif.got.tgz:40312.got - 2010.04.10 19:34:48.
