data_PCOD8256605
_publ_section_title
;
Structure prediction by ZEFSAII (Michael W. Deem and Ramdas Pophale) SiO2 
 PCOD8256605
Probable space group: C M C M
;
_chemical_formula_sum "Si O2"
_cell_formula_units_Z 96
_cell_length_a 8.941507
_cell_length_b 27.846480
_cell_length_c 22.804621
_cell_angle_alpha 90.000000
_cell_angle_beta 90.000000
_cell_angle_gamma 90.000000
_cell_volume 5678.111086
_symmetry_space_group_name_H-M "C M C M"
_symmetry_group_IT_number 63
_symmetry_cell_setting 'orthorhombic'
loop_
_space_group_symop_operation_xyz
x,y,z
-x,-y,1/2+z
x,-y,-z
-x,y,1/2-z
-x,-y,-z
x,y,1/2-z
-x,y,z
x,-y,1/2+z
1/2+x,1/2+y,z
1/2-x,1/2-y,1/2+z
1/2+x,1/2-y,-z
1/2-x,1/2+y,1/2-z
1/2-x,1/2-y,-z
1/2+x,1/2+y,1/2-z
1/2-x,1/2+y,z
1/2+x,1/2-y,1/2+z
loop_
_atom_site_type_symbol
_atom_site_label
_atom_site_fract_x
_atom_site_fract_y
_atom_site_fract_z
Si Si1 0.668497 0.195541 0.945901
Si Si2 0.180220 0.367457 0.250000
Si Si3 0.823833 0.217887 0.129014
Si Si4 0.321462 0.757726 0.250000
Si Si5 0.333437 0.896806 0.127755
Si Si6 0.325799 0.361127 0.544374
Si Si7 0.821799 0.446572 0.013821
O O1 0.500000 0.201394 0.971575
O O2 0.737071 0.244598 0.919687
O O3 0.663415 0.158061 0.892591
O O4 0.780542 0.177471 0.995473
O O5 0.238126 0.312462 0.250000
O O6 0.242949 0.395956 0.307586
O O7 0.000000 0.366703 0.250000
O O8 0.756816 0.229076 0.193265
O O9 0.787356 0.163490 0.107461
O O10 0.000000 0.226657 0.131407
O O11 0.500000 0.756833 0.250000
O O12 0.500000 0.917329 0.135371
O O13 0.255478 0.930174 0.077605
O O14 0.500000 0.372509 0.538640
O O15 0.237196 0.411028 0.536925
O O16 0.000000 0.442360 0.013768
O O17 0.765645 0.500000 0.000000
#
# Coordination Sequence:
#
# PCOD8256605 Si02
#       7
#    16   8  16   8  16  16  16
#     4   9  15  26  42  62  89 120 150 177 207 254
#     4   9  12  18  36  63  90 110 134 178 221 248
#     4   9  16  25  39  62  92 122 153 181 210 249
#     4   9  14  22  38  61  90 124 150 180 215 242
#     4   8  13  21  38  64  87 106 136 177 221 258
#     4  10  19  28  41  66  93 115 142 181 222 264
#     4   9  18  33  50  65  83 111 147 187 232 278
#
# _framework density 16.907031
#
# number of rings (size 3 to 8) (size 9 to 14) (size 15 to 20)
#    0.000    3.000    1.667    2.000    0.000    0.333 
#    0.000    0.833    0.000    1.000    0.000   20.417 
#    0.000    0.000    0.000    0.000    0.000    0.333 
#
# Total GULP energy -594635.476489 kJ/mol
# GULP energy per Si atom -12388.239094 kJ/mol
# Density = 1.686855 g / cm^3
# Si number density = 16.907031 Si / 1000 Ang^3
#
#
#
# Elastic Constant Matrix: (Units=GPa)
#
#
# Indices 1 2 3 4 5 6 
#
# 1 16.2859 16.2015 12.3803 0.0000 0.0000 0.0000
# 2 16.2015 121.5073 65.6392 0.0000 0.0000 0.0000
# 3 12.3803 65.6392 94.2490 0.0000 0.0000 0.0000
# 4 0.0000 0.0000 0.0000 19.0650 0.0000 0.0000
# 5 0.0000 0.0000 0.0000 0.0000 11.0914 0.0000
# 6 0.0000 0.0000 0.0000 0.0000 0.0000 17.2460
#
#
#
# Elastic Compliance Matrix: (Units=1/GPa)
#
#
# Indices 1 2 3 4 5 6 
#
# 1 0.071934 -0.007193 -0.004439 0.000000 0.000000 0.000000
# 2 -0.007193 0.013913 -0.008745 0.000000 0.000000 0.000000
# 3 -0.004439 -0.008745 0.017284 0.000000 0.000000 0.000000
# 4 0.000000 0.000000 0.000000 0.052452 0.000000 0.000000
# 5 0.000000 0.000000 0.000000 0.000000 0.090160 0.000000
# 6 0.000000 0.000000 0.000000 0.000000 0.000000 0.057984
#
#
# Mechanical properties :
#
#
# Convention : Reuss Voigt Hill
#
# Bulk Modulus (GPa) = 16.03191 46.72045 31.37618
# Shear Modulus (GPa) = 13.68838 18.66857 16.17847
#
# Velocity S-wave (km/s) = 2.84848 3.32654 3.09675
# Velocity P-wave (km/s) = 4.50793 6.51523 5.60222
#
# Compressibility (1/GPa) = 0.06237561
#
# Stress axis : x y z
#
# Youngs Moduli (GPa) = 13.90170 71.87454 57.85826
#
# Poissons Ratio (x) = 0.51702 0.25685
# Poissons Ratio (y) = 0.10000 0.50596
# Poissons Ratio (z) = 0.06171 0.62853
#
# Static dielectric constant tensor:
#      x y z
#    x 2.690160 0.000000 0.000000 
#    y 0.000000 3.097480 0.000000 
#    z 0.000000 0.000000 3.429570 
# 
# 
# High freq. dielectric constant tensor:
#      x y z
#    x 1.599780 0.000000 0.000000 
#    y 0.000000 1.630390 0.000000 
#    z 0.000000 0.000000 1.651550 
# 
# From -- ./inp_files/60292.got.cif
#   From: 2010.03.12/outbox.cif.g09.slc.cpg/sg63_31_cif.got.tgz:60292.got - 2010.04.10 19:34:48.
