data_PCOD8256068
_publ_section_title
;
Structure prediction by ZEFSAII (Michael W. Deem and Ramdas Pophale) SiO2 
 PCOD8256068
Probable space group: C M C M
;
_chemical_formula_sum "Si O2"
_cell_formula_units_Z 112
_cell_length_a 23.911546
_cell_length_b 15.227087
_cell_length_c 16.214284
_cell_angle_alpha 90.000000
_cell_angle_beta 90.000000
_cell_angle_gamma 90.000000
_cell_volume 5903.672548
_symmetry_space_group_name_H-M "C M C M"
_symmetry_group_IT_number 63
_symmetry_cell_setting 'orthorhombic'
loop_
_space_group_symop_operation_xyz
x,y,z
-x,-y,1/2+z
x,-y,-z
-x,y,1/2-z
-x,-y,-z
x,y,1/2-z
-x,y,z
x,-y,1/2+z
1/2+x,1/2+y,z
1/2-x,1/2-y,1/2+z
1/2+x,1/2-y,-z
1/2-x,1/2+y,1/2-z
1/2-x,1/2-y,-z
1/2+x,1/2+y,1/2-z
1/2-x,1/2+y,z
1/2+x,1/2-y,1/2+z
loop_
_atom_site_type_symbol
_atom_site_label
_atom_site_fract_x
_atom_site_fract_y
_atom_site_fract_z
Si Si1 0.063114 0.691939 0.117596
Si Si2 0.122314 0.331718 0.156724
Si Si3 0.438496 0.994039 0.096129
Si Si4 0.282556 0.703775 0.156267
Si Si5 0.829746 0.205551 0.659671
Si Si6 0.664901 0.602149 0.493671
Si Si7 0.938103 0.207290 0.453984
O O1 0.077726 0.589744 0.131994
O O2 0.108760 0.751319 0.163287
O O3 0.000000 0.712584 0.150418
O O4 0.066126 0.714978 0.020943
O O5 0.109376 0.350814 0.250000
O O6 0.110630 0.424839 0.113908
O O7 0.185463 0.297027 0.140320
O O8 0.080929 0.253430 0.129892
O O9 0.500000 0.965546 0.131711
O O10 0.444840 0.000000 0.000000
O O11 0.298103 0.670021 0.250000
O O12 0.216372 0.718184 0.150054
O O13 0.298203 0.636842 0.083081
O O14 0.821746 0.158891 0.750000
O O15 0.819397 0.140715 0.583299
O O16 0.674554 0.500000 0.500000
O O17 0.600294 0.624320 0.476213
O O18 0.000000 0.168700 0.444842
#
# Coordination Sequence:
#
# PCOD8256068 Si02
#       7
#    16  16  16  16  16  16  16
#     4   9  18  33  54  78 106 143 183 220 267 329
#     4  10  19  31  50  76 106 141 182 225 271 323
#     4  10  18  30  49  76 112 147 179 220 270 325
#     4   9  20  40  60  79 109 145 183 228 273 324
#     4  10  21  39  59  79 110 148 184 224 273 328
#     4  10  21  37  58  84 109 139 182 228 276 323
#     4   9  17  32  53  75 104 142 178 219 271 327
#
# _framework density 18.971243000000001
#
# number of rings (size 3 to 8) (size 9 to 14) (size 15 to 20)
#    0.000    2.429    1.429    0.857    0.000    2.857 
#    2.571    1.429    0.000    0.000    0.000    4.000 
#    0.000    0.000    0.000    0.000    0.000    0.000 
#
# Total GULP energy -693879.250279 kJ/mol
# GULP energy per Si atom -12390.700898 kJ/mol
# Density = 1.892806 g / cm^3
# Si number density = 18.971243 Si / 1000 Ang^3
#
#
#
# Elastic Constant Matrix: (Units=GPa)
#
#
# Indices 1 2 3 4 5 6 
#
# 1 105.1647 37.2306 41.4753 0.0000 0.0000 0.0000
# 2 37.2306 104.1464 52.3470 0.0000 0.0000 0.0000
# 3 41.4753 52.3470 97.7041 0.0000 0.0000 0.0000
# 4 0.0000 0.0000 0.0000 11.5879 0.0000 0.0000
# 5 0.0000 0.0000 0.0000 0.0000 17.1805 0.0000
# 6 0.0000 0.0000 0.0000 0.0000 0.0000 12.6675
#
#
#
# Elastic Compliance Matrix: (Units=1/GPa)
#
#
# Indices 1 2 3 4 5 6 
#
# 1 0.011821 -0.002331 -0.003769 0.000000 0.000000 0.000000
# 2 -0.002331 0.013600 -0.006297 0.000000 0.000000 0.000000
# 3 -0.003769 -0.006297 0.015209 0.000000 0.000000 0.000000
# 4 0.000000 0.000000 0.000000 0.086297 0.000000 0.000000
# 5 0.000000 0.000000 0.000000 0.000000 0.058206 0.000000
# 6 0.000000 0.000000 0.000000 0.000000 0.000000 0.078942
#
#
# Mechanical properties :
#
#
# Convention : Reuss Voigt Hill
#
# Bulk Modulus (GPa) = 63.15027 63.23568 63.19297
# Shear Modulus (GPa) = 16.99830 20.01799 18.50814
#
# Velocity S-wave (km/s) = 2.99658 3.25187 3.12683
# Velocity P-wave (km/s) = 6.73292 6.89234 6.81310
#
# Compressibility (1/GPa) = 0.01583525
#
# Stress axis : x y z
#
# Youngs Moduli (GPa) = 84.59814 73.52751 65.75242
#
# Poissons Ratio (x) = 0.17142 0.24780
# Poissons Ratio (y) = 0.19723 0.41404
# Poissons Ratio (z) = 0.31883 0.46300
#
# Static dielectric constant tensor:
#      x y z
#    x 3.600610 0.000000 0.000000 
#    y 0.000000 3.187150 0.000000 
#    z 0.000000 0.000000 3.643170 
# 
# 
# High freq. dielectric constant tensor:
#      x y z
#    x 1.739850 0.000000 0.000000 
#    y 0.000000 1.701780 0.000000 
#    z 0.000000 0.000000 1.747240 
# 
# From -- ./inp_files/36951.got.cif
#   From: 2010.03.12/outbox.cif.g09.slc.cpg/sg63_19_cif.got.tgz:36951.got - 2010.04.10 19:34:48.
