data_PCOD8256375
_publ_section_title
;
Structure prediction by ZEFSAII (Michael W. Deem and Ramdas Pophale) SiO2 
 PCOD8256375
Probable space group: C M C M
;
_chemical_formula_sum "Si O2"
_cell_formula_units_Z 104
_cell_length_a 28.266815
_cell_length_b 20.239309
_cell_length_c 8.992711
_cell_angle_alpha 90.000000
_cell_angle_beta 90.000000
_cell_angle_gamma 90.000000
_cell_volume 5144.737186
_symmetry_space_group_name_H-M "C M C M"
_symmetry_group_IT_number 63
_symmetry_cell_setting 'orthorhombic'
loop_
_space_group_symop_operation_xyz
x,y,z
-x,-y,1/2+z
x,-y,-z
-x,y,1/2-z
-x,-y,-z
x,y,1/2-z
-x,y,z
x,-y,1/2+z
1/2+x,1/2+y,z
1/2-x,1/2-y,1/2+z
1/2+x,1/2-y,-z
1/2-x,1/2+y,1/2-z
1/2-x,1/2-y,-z
1/2+x,1/2+y,1/2-z
1/2-x,1/2+y,z
1/2+x,1/2-y,1/2+z
loop_
_atom_site_type_symbol
_atom_site_label
_atom_site_fract_x
_atom_site_fract_y
_atom_site_fract_z
Si Si1 0.110447 0.430465 0.425696
Si Si2 0.407947 0.430378 0.575100
Si Si3 0.619382 0.688159 0.916042
Si Si4 0.780982 0.567307 0.923541
Si Si5 0.055528 0.688700 0.424748
Si Si6 0.727035 0.692330 0.914298
Si Si7 0.500000 0.428015 0.427450
O O1 0.096008 0.500000 0.500000
O O2 0.102500 0.436275 0.250000
O O3 0.164931 0.412947 0.465149
O O4 0.076138 0.373779 0.488080
O O5 0.394429 0.500000 0.500000
O O6 0.414813 0.441512 0.750000
O O7 0.372091 0.372741 0.532622
O O8 0.453390 0.395178 0.494754
O O9 0.603114 0.664806 0.750000
O O10 0.584203 0.745417 0.974787
O O11 0.672563 0.712858 0.909178
O O12 0.776057 0.554478 0.750000
O O13 0.743574 0.622031 0.983413
O O14 0.765274 0.500000 0.000000
O O15 0.063005 0.676789 0.250000
O O16 0.000000 0.698245 0.463304
O O17 0.748875 0.691359 0.750000
O O18 0.750000 0.750000 0.000000
O O19 0.500000 0.500000 0.500000
O O20 0.500000 0.429627 0.250000
#
# Coordination Sequence:
#
# PCOD8256375 Si02
#       7
#    16  16  16  16  16  16   8
#     4  10  20  36  60  87 116 149 185 229 283 344
#     4  11  22  37  57  83 113 149 193 240 288 341
#     4  10  22  39  58  83 115 154 195 242 295 345
#     4   9  19  35  56  85 117 148 184 230 282 339
#     4  10  22  39  58  82 113 151 193 237 288 341
#     4  10  21  37  58  84 115 149 191 236 286 348
#     4  10  18  32  54  78 106 140 181 228 277 330
#
# _framework density 20.214832000000001
#
# number of rings (size 3 to 8) (size 9 to 14) (size 15 to 20)
#    0.000    2.000    0.000    4.385    1.077    3.692 
#    0.000    1.538    0.000    0.000    0.000    0.000 
#    0.000    0.000    0.000    0.000    0.000    0.000 
#
# Total GULP energy -644362.573993 kJ/mol
# GULP energy per Si atom -12391.587961 kJ/mol
# Density = 2.016882 g / cm^3
# Si number density = 20.214832 Si / 1000 Ang^3
#
#
#
# Elastic Constant Matrix: (Units=GPa)
#
#
# Indices 1 2 3 4 5 6 
#
# 1 93.8257 65.4567 36.8058 0.0000 0.0000 0.0000
# 2 65.4567 160.5162 62.8891 0.0000 0.0000 0.0000
# 3 36.8058 62.8891 108.1135 0.0000 0.0000 0.0000
# 4 0.0000 0.0000 0.0000 39.1951 0.0000 0.0000
# 5 0.0000 0.0000 0.0000 0.0000 23.3592 0.0000
# 6 0.0000 0.0000 0.0000 0.0000 0.0000 37.3074
#
#
#
# Elastic Compliance Matrix: (Units=1/GPa)
#
#
# Indices 1 2 3 4 5 6 
#
# 1 0.015234 -0.005414 -0.002037 0.000000 0.000000 0.000000
# 2 -0.005414 0.009993 -0.003970 0.000000 0.000000 0.000000
# 3 -0.002037 -0.003970 0.012252 0.000000 0.000000 0.000000
# 4 0.000000 0.000000 0.000000 0.025513 0.000000 0.000000
# 5 0.000000 0.000000 0.000000 0.000000 0.042810 0.000000
# 6 0.000000 0.000000 0.000000 0.000000 0.000000 0.026804
#
#
# Mechanical properties :
#
#
# Convention : Reuss Voigt Hill
#
# Bulk Modulus (GPa) = 68.31634 76.97318 72.64476
# Shear Modulus (GPa) = 31.18605 33.12592 32.15599
#
# Velocity S-wave (km/s) = 3.93202 4.05247 3.99270
# Velocity P-wave (km/s) = 7.38125 7.74964 7.56769
#
# Compressibility (1/GPa) = 0.01463779
#
# Stress axis : x y z
#
# Youngs Moduli (GPa) = 65.64117 100.06881 81.61868
#
# Poissons Ratio (x) = 0.54181 0.16624
# Poissons Ratio (y) = 0.35541 0.32400
# Poissons Ratio (z) = 0.13370 0.39724
#
# Static dielectric constant tensor:
#      x y z
#    x 4.301880 0.000000 0.000000 
#    y 0.000000 3.476340 0.000000 
#    z 0.000000 0.000000 3.699700 
# 
# 
# High freq. dielectric constant tensor:
#      x y z
#    x 1.790320 0.000000 0.000000 
#    y 0.000000 1.793140 0.000000 
#    z 0.000000 0.000000 1.785260 
# 
# From -- ./inp_files/12566.got.cif
#   From: 2010.03.12/outbox.cif.g09.slc.cpg/sg63_7_cif.got.tgz:12566.got - 2010.04.10 19:34:48.
