data_PCOD8256077
_publ_section_title
;
Structure prediction by ZEFSAII (Michael W. Deem and Ramdas Pophale) SiO2 
 PCOD8256077
Probable space group: C M C M
;
_chemical_formula_sum "Si O2"
_cell_formula_units_Z 64
_cell_length_a 18.762301
_cell_length_b 23.058439
_cell_length_c 8.926317
_cell_angle_alpha 90.000000
_cell_angle_beta 90.000000
_cell_angle_gamma 90.000000
_cell_volume 3861.786928
_symmetry_space_group_name_H-M "C M C M"
_symmetry_group_IT_number 63
_symmetry_cell_setting 'orthorhombic'
loop_
_space_group_symop_operation_xyz
x,y,z
-x,-y,1/2+z
x,-y,-z
-x,y,1/2-z
-x,-y,-z
x,y,1/2-z
-x,y,z
x,-y,1/2+z
1/2+x,1/2+y,z
1/2-x,1/2-y,1/2+z
1/2+x,1/2-y,-z
1/2-x,1/2+y,1/2-z
1/2-x,1/2-y,-z
1/2+x,1/2+y,1/2-z
1/2-x,1/2+y,z
1/2+x,1/2-y,1/2+z
loop_
_atom_site_type_symbol
_atom_site_label
_atom_site_fract_x
_atom_site_fract_y
_atom_site_fract_z
Si Si1 0.163141 0.166543 0.919073
Si Si2 0.184743 0.636625 0.918679
Si Si3 0.288850 0.439636 0.572952
Si Si4 0.582518 0.778988 0.925983
O O1 0.136550 0.153049 0.750000
O O2 0.248085 0.181601 0.917296
O O3 0.119010 0.220134 0.987288
O O4 0.152663 0.108880 0.021452
O O5 0.164273 0.617953 0.750000
O O6 0.210426 0.579515 0.010941
O O7 0.116496 0.665383 0.994982
O O8 0.311774 0.500000 0.500000
O O9 0.287100 0.445446 0.750000
O O10 0.596028 0.784939 0.750000
O O11 0.500000 0.777061 0.968148
#
# Coordination Sequence:
#
# PCOD8256077 Si02
#       4
#    16  16  16  16
#     4   8  17  31  47  70  98 125 158 196 236 278
#     4   9  18  31  48  70  97 126 159 197 236 278
#     4  10  18  30  50  73  95 120 156 200 241 281
#     4  10  19  31  48  71 100 131 160 193 235 281
#
# _framework density 16.57264
#
# number of rings (size 3 to 8) (size 9 to 14) (size 15 to 20)
#    1.500    1.250    0.000    3.000    0.000    1.500 
#    0.000    0.000    0.000    1.500    0.000    0.000 
#    0.000    0.000    0.000    0.000    0.000    0.000 
#
# Total GULP energy -396438.946173 kJ/mol
# GULP energy per Si atom -12388.717068 kJ/mol
# Density = 1.653492 g / cm^3
# Si number density = 16.572640 Si / 1000 Ang^3
#
#
#
# Elastic Constant Matrix: (Units=GPa)
#
#
# Indices 1 2 3 4 5 6 
#
# 1 30.4507 -14.6039 0.6637 0.0000 0.0000 0.0000
# 2 -14.6039 24.9347 7.9424 0.0000 0.0000 0.0000
# 3 0.6637 7.9424 81.0345 0.0000 0.0000 0.0000
# 4 0.0000 0.0000 0.0000 24.1523 0.0000 0.0000
# 5 0.0000 0.0000 0.0000 0.0000 17.9296 0.0000
# 6 0.0000 0.0000 0.0000 0.0000 0.0000 8.0639
#
#
#
# Elastic Compliance Matrix: (Units=1/GPa)
#
#
# Indices 1 2 3 4 5 6 
#
# 1 0.046431 0.028195 -0.003144 0.000000 0.000000 0.000000
# 2 0.028195 0.058519 -0.005966 0.000000 0.000000 0.000000
# 3 -0.003144 -0.005966 0.012951 0.000000 0.000000 0.000000
# 4 0.000000 0.000000 0.000000 0.041404 0.000000 0.000000
# 5 0.000000 0.000000 0.000000 0.000000 0.055774 0.000000
# 6 0.000000 0.000000 0.000000 0.000000 0.000000 0.124009
#
#
# Mechanical properties :
#
#
# Convention : Reuss Voigt Hill
#
# Bulk Modulus (GPa) = 6.40737 13.82491 10.11614
# Shear Modulus (GPa) = 14.16669 19.52368 16.84518
#
# Velocity S-wave (km/s) = 2.92691 3.43602 3.19163
# Velocity P-wave (km/s) = 3.91114 4.90936 4.43840
#
# Compressibility (1/GPa) = 0.15607018
#
# Stress axis : x y z
#
# Youngs Moduli (GPa) = 21.53752 17.08853 77.21434
#
# Poissons Ratio (x) = -0.48181 0.24274
# Poissons Ratio (y) = -0.60725 0.46070
# Poissons Ratio (z) = 0.06771 0.10196
#
# Static dielectric constant tensor:
#      x y z
#    x 2.800030 0.000000 0.000000 
#    y 0.000000 2.931850 0.000000 
#    z 0.000000 0.000000 3.073730 
# 
# 
# High freq. dielectric constant tensor:
#      x y z
#    x 1.598350 0.000000 0.000000 
#    y 0.000000 1.622810 0.000000 
#    z 0.000000 0.000000 1.644250 
# 
# From -- ./inp_files/5737.got.cif
#   From: 2010.03.12/outbox.cif.g09.slc.cpg/sg63_3_cif.got.tgz:5737.got - 2010.04.10 19:34:48.
