data_PCOD8256461
_publ_section_title
;
Structure prediction by ZEFSAII (Michael W. Deem and Ramdas Pophale) SiO2 
 PCOD8256461
Probable space group: C M C M
;
_chemical_formula_sum "Si O2"
_cell_formula_units_Z 64
_cell_length_a 8.849049
_cell_length_b 15.306780
_cell_length_c 27.331656
_cell_angle_alpha 90.000000
_cell_angle_beta 90.000000
_cell_angle_gamma 90.000000
_cell_volume 3702.085002
_symmetry_space_group_name_H-M "C M C M"
_symmetry_group_IT_number 63
_symmetry_cell_setting 'orthorhombic'
loop_
_space_group_symop_operation_xyz
x,y,z
-x,-y,1/2+z
x,-y,-z
-x,y,1/2-z
-x,-y,-z
x,y,1/2-z
-x,y,z
x,-y,1/2+z
1/2+x,1/2+y,z
1/2-x,1/2-y,1/2+z
1/2+x,1/2-y,-z
1/2-x,1/2+y,1/2-z
1/2-x,1/2-y,-z
1/2+x,1/2+y,1/2-z
1/2-x,1/2+y,z
1/2+x,1/2-y,1/2+z
loop_
_atom_site_type_symbol
_atom_site_label
_atom_site_fract_x
_atom_site_fract_y
_atom_site_fract_z
Si Si1 0.820600 0.515634 0.194827
Si Si2 0.828894 0.358428 0.371178
Si Si3 0.670885 0.667580 0.362639
Si Si4 0.678397 0.253036 0.052923
O O1 0.761731 0.502255 0.250000
O O2 0.759459 0.435199 0.162078
O O3 0.757014 0.606135 0.174877
O O4 0.000000 0.519041 0.193508
O O5 0.828416 0.266707 0.340745
O O6 0.727956 0.343989 0.420189
O O7 0.000000 0.381693 0.387288
O O8 0.500000 0.633890 0.370527
O O9 0.756585 0.671057 0.415343
O O10 0.500000 0.246454 0.049003
O O11 0.750000 0.250000 0.000000
#
# Coordination Sequence:
#
# PCOD8256461 Si02
#       4
#    16  16  16  16
#     4  10  20  35  55  79 108 142 178 217 263 313
#     4   8  18  35  53  76 109 142 176 216 263 316
#     4   9  19  35  54  78 108 140 178 219 262 312
#     4  10  18  33  57  80 106 139 175 218 267 317
#
# _framework density 17.287555999999999
#
# number of rings (size 3 to 8) (size 9 to 14) (size 15 to 20)
#    1.500    1.250    0.000    2.250    0.000    2.500 
#    0.000    3.750    0.000    7.500    0.000    0.000 
#    0.000    0.000    0.000    0.000    0.000    0.000 
#
# Total GULP energy -396426.674209 kJ/mol
# GULP energy per Si atom -12388.333569 kJ/mol
# Density = 1.724821 g / cm^3
# Si number density = 17.287556 Si / 1000 Ang^3
#
#
#
# Elastic Constant Matrix: (Units=GPa)
#
#
# Indices 1 2 3 4 5 6 
#
# 1 64.3470 21.3741 51.7333 0.0000 0.0000 0.0000
# 2 21.3741 62.7718 33.4845 0.0000 0.0000 0.0000
# 3 51.7333 33.4845 115.2443 0.0000 0.0000 0.0000
# 4 0.0000 0.0000 0.0000 32.1890 0.0000 0.0000
# 5 0.0000 0.0000 0.0000 0.0000 27.5417 0.0000
# 6 0.0000 0.0000 0.0000 0.0000 0.0000 26.7248
#
#
#
# Elastic Compliance Matrix: (Units=1/GPa)
#
#
# Indices 1 2 3 4 5 6 
#
# 1 0.024774 -0.002962 -0.010260 0.000000 0.000000 0.000000
# 2 -0.002962 0.019207 -0.004251 0.000000 0.000000 0.000000
# 3 -0.010260 -0.004251 0.014518 0.000000 0.000000 0.000000
# 4 0.000000 0.000000 0.000000 0.031067 0.000000 0.000000
# 5 0.000000 0.000000 0.000000 0.000000 0.036309 0.000000
# 6 0.000000 0.000000 0.000000 0.000000 0.000000 0.037418
#
#
# Mechanical properties :
#
#
# Convention : Reuss Voigt Hill
#
# Bulk Modulus (GPa) = 42.45938 50.61632 46.53785
# Shear Modulus (GPa) = 24.26127 26.34251 25.30189
#
# Velocity S-wave (km/s) = 3.75026 3.90780 3.82984
# Velocity P-wave (km/s) = 6.58533 7.05010 6.82167
#
# Compressibility (1/GPa) = 0.02355192
#
# Stress axis : x y z
#
# Youngs Moduli (GPa) = 40.36539 52.06443 68.87948
#
# Poissons Ratio (x) = 0.15424 0.70672
# Poissons Ratio (y) = 0.11958 0.29279
# Poissons Ratio (z) = 0.41416 0.22132
#
# Static dielectric constant tensor:
#      x y z
#    x 3.236030 0.000000 0.000000 
#    y 0.000000 3.081950 0.000000 
#    z 0.000000 0.000000 3.128020 
# 
# 
# High freq. dielectric constant tensor:
#      x y z
#    x 1.671290 0.000000 0.000000 
#    y 0.000000 1.649400 0.000000 
#    z 0.000000 0.000000 1.654070 
# 
# From -- ./inp_files/59222.got.cif
#   From: 2010.03.12/outbox.cif.g09.slc.cpg/sg63_30_cif.got.tgz:59222.got - 2010.04.10 19:34:48.
