data_PCOD8256665
_publ_section_title
;
Structure prediction by ZEFSAII (Michael W. Deem and Ramdas Pophale) SiO2 
 PCOD8256665
Probable space group: C M C M
;
_chemical_formula_sum "Si O2"
_cell_formula_units_Z 96
_cell_length_a 9.462794
_cell_length_b 24.604391
_cell_length_c 23.021055
_cell_angle_alpha 90.000000
_cell_angle_beta 90.000000
_cell_angle_gamma 90.000000
_cell_volume 5359.906679
_symmetry_space_group_name_H-M "C M C M"
_symmetry_group_IT_number 63
_symmetry_cell_setting 'orthorhombic'
loop_
_space_group_symop_operation_xyz
x,y,z
-x,-y,1/2+z
x,-y,-z
-x,y,1/2-z
-x,-y,-z
x,y,1/2-z
-x,y,z
x,-y,1/2+z
1/2+x,1/2+y,z
1/2-x,1/2-y,1/2+z
1/2+x,1/2-y,-z
1/2-x,1/2+y,1/2-z
1/2-x,1/2-y,-z
1/2+x,1/2+y,1/2-z
1/2-x,1/2+y,z
1/2+x,1/2-y,1/2+z
loop_
_atom_site_type_symbol
_atom_site_label
_atom_site_fract_x
_atom_site_fract_y
_atom_site_fract_z
Si Si1 0.336946 0.065848 0.437460
Si Si2 0.652167 0.700915 0.510844
Si Si3 0.337417 0.758977 0.317055
Si Si4 0.832089 0.853469 0.127590
Si Si5 0.664157 0.939993 0.070362
Si Si6 0.655968 0.653721 0.387205
O O1 0.500000 0.081670 0.432726
O O2 0.287998 0.076098 0.504451
O O3 0.257769 0.101398 0.387403
O O4 0.310694 0.003733 0.420685
O O5 0.500000 0.724830 0.528152
O O6 0.750000 0.750000 0.500000
O O7 0.710758 0.667587 0.564400
O O8 0.641296 0.664043 0.455045
O O9 0.326304 0.742951 0.250000
O O10 0.500000 0.772029 0.334846
O O11 0.239941 0.812144 0.326893
O O12 0.281727 0.706636 0.353612
O O13 0.756553 0.912276 0.122559
O O14 0.000000 0.858821 0.140329
O O15 0.500000 0.924902 0.079256
O O16 0.500000 0.639987 0.361251
#
# Coordination Sequence:
#
# PCOD8256665 Si02
#       6
#    16  16  16  16  16  16
#     4   9  18  31  49  75 106 140 173 205 246 300
#     4  10  19  29  44  72 104 133 164 201 252 308
#     4  10  22  39  56  73  97 135 177 213 254 304
#     4  11  21  32  50  77 106 134 167 210 259 306
#     4   9  18  32  49  73 107 142 173 204 245 304
#     4  10  19  32  50  74 104 134 167 209 256 308
#
# _framework density 17.91076
#
# number of rings (size 3 to 8) (size 9 to 14) (size 15 to 20)
#    0.000    2.167    3.333    1.500    0.000    3.000 
#    0.000    1.667    0.000    1.000    0.000    4.667 
#    0.000    0.000    0.000    0.000    0.000    0.000 
#
# Total GULP energy -594685.972349 kJ/mol
# GULP energy per Si atom -12389.291091 kJ/mol
# Density = 1.786999 g / cm^3
# Si number density = 17.910760 Si / 1000 Ang^3
#
#
#
# Elastic Constant Matrix: (Units=GPa)
#
#
# Indices 1 2 3 4 5 6 
#
# 1 75.7887 52.1542 16.3302 0.0000 0.0000 0.0000
# 2 52.1542 94.3666 20.4859 0.0000 0.0000 0.0000
# 3 16.3302 20.4859 48.8984 0.0000 0.0000 0.0000
# 4 0.0000 0.0000 0.0000 14.3830 0.0000 0.0000
# 5 0.0000 0.0000 0.0000 0.0000 19.5362 0.0000
# 6 0.0000 0.0000 0.0000 0.0000 0.0000 35.9207
#
#
#
# Elastic Compliance Matrix: (Units=1/GPa)
#
#
# Indices 1 2 3 4 5 6 
#
# 1 0.021552 -0.011384 -0.002428 0.000000 0.000000 0.000000
# 2 -0.011384 0.017670 -0.003601 0.000000 0.000000 0.000000
# 3 -0.002428 -0.003601 0.022770 0.000000 0.000000 0.000000
# 4 0.000000 0.000000 0.000000 0.069526 0.000000 0.000000
# 5 0.000000 0.000000 0.000000 0.000000 0.051187 0.000000
# 6 0.000000 0.000000 0.000000 0.000000 0.000000 0.027839
#
#
# Mechanical properties :
#
#
# Convention : Reuss Voigt Hill
#
# Bulk Modulus (GPa) = 36.81118 44.11048 40.46083
# Shear Modulus (GPa) = 19.65202 22.64020 21.14611
#
# Velocity S-wave (km/s) = 3.31602 3.55921 3.43977
# Velocity P-wave (km/s) = 5.93789 6.44764 6.19801
#
# Compressibility (1/GPa) = 0.02716566
#
# Stress axis : x y z
#
# Youngs Moduli (GPa) = 46.40007 56.59185 43.91714
#
# Poissons Ratio (x) = 0.64424 0.10664
# Poissons Ratio (y) = 0.52822 0.15815
# Poissons Ratio (z) = 0.11267 0.20380
#
# Static dielectric constant tensor:
#      x y z
#    x 3.478880 0.000000 0.000000 
#    y 0.000000 3.260310 0.000000 
#    z 0.000000 0.000000 2.992320 
# 
# 
# High freq. dielectric constant tensor:
#      x y z
#    x 1.695300 0.000000 0.000000 
#    y 0.000000 1.692120 0.000000 
#    z 0.000000 0.000000 1.653730 
# 
# From -- ./inp_files/59932.got.cif
#   From: 2010.03.12/outbox.cif.g09.slc.cpg/sg63_30_cif.got.tgz:59932.got - 2010.04.10 19:34:48.
