data_PCOD8256384
_publ_section_title
;
Structure prediction by ZEFSAII (Michael W. Deem and Ramdas Pophale) SiO2 
 PCOD8256384
Probable space group: C M C M
;
_chemical_formula_sum "Si O2"
_cell_formula_units_Z 88
_cell_length_a 29.851458
_cell_length_b 19.922388
_cell_length_c 8.772675
_cell_angle_alpha 90.000000
_cell_angle_beta 90.000000
_cell_angle_gamma 90.000000
_cell_volume 5217.217978
_symmetry_space_group_name_H-M "C M C M"
_symmetry_group_IT_number 63
_symmetry_cell_setting 'orthorhombic'
loop_
_space_group_symop_operation_xyz
x,y,z
-x,-y,1/2+z
x,-y,-z
-x,y,1/2-z
-x,-y,-z
x,y,1/2-z
-x,y,z
x,-y,1/2+z
1/2+x,1/2+y,z
1/2-x,1/2-y,1/2+z
1/2+x,1/2-y,-z
1/2-x,1/2+y,1/2-z
1/2-x,1/2-y,-z
1/2+x,1/2+y,1/2-z
1/2-x,1/2+y,z
1/2+x,1/2-y,1/2+z
loop_
_atom_site_type_symbol
_atom_site_label
_atom_site_fract_x
_atom_site_fract_y
_atom_site_fract_z
Si Si1 0.500000 0.925553 0.932458
Si Si2 0.393340 0.565866 0.080979
Si Si3 0.049383 0.311966 0.077271
Si Si4 0.710314 0.292407 0.567234
Si Si5 0.115065 0.206988 0.930490
Si Si6 0.788073 0.062226 0.414914
O O1 0.500000 0.928051 0.750000
O O2 0.544110 0.885144 0.994773
O O3 0.500000 0.000000 0.000000
O O4 0.414460 0.573676 0.250000
O O5 0.340967 0.552251 0.097519
O O6 0.415071 0.500000 0.000000
O O7 0.402165 0.634454 0.988567
O O8 0.068142 0.320947 0.250000
O O9 0.000000 0.278071 0.083285
O O10 0.080656 0.264426 0.977784
O O11 0.708069 0.289554 0.750000
O O12 0.750000 0.250000 0.500000
O O13 0.662408 0.270634 0.502184
O O14 0.721528 0.367001 0.504860
O O15 0.119549 0.203640 0.750000
O O16 0.765495 0.062736 0.250000
O O17 0.765235 0.000000 0.500000
#
# Coordination Sequence:
#
# PCOD8256384 Si02
#       6
#     8  16  16  16  16  16
#     4  10  18  32  54  82 109 134 167 208 252 306
#     4   9  16  27  43  66  95 126 165 208 247 289
#     4   9  19  34  53  77 104 134 167 208 256 302
#     4  10  20  33  48  70  99 131 169 210 253 304
#     4  11  20  31  50  74 102 135 169 209 258 309
#     4   8  15  26  42  63  87 116 153 198 240 283
#
# _framework density 16.867228000000001
#
# number of rings (size 3 to 8) (size 9 to 14) (size 15 to 20)
#    0.545    2.000    0.000    4.909    0.000    5.091 
#    0.000    0.000    0.000    1.636    0.000    5.091 
#    0.000    0.000    0.000    0.000    0.000    0.000 
#
# Total GULP energy -545110.931563 kJ/mol
# GULP energy per Si atom -12388.884808 kJ/mol
# Density = 1.682884 g / cm^3
# Si number density = 16.867228 Si / 1000 Ang^3
#
#
#
# Elastic Constant Matrix: (Units=GPa)
#
#
# Indices 1 2 3 4 5 6 
#
# 1 50.7896 49.2114 30.3494 0.0000 0.0000 0.0000
# 2 49.2114 134.0511 57.8406 0.0000 0.0000 0.0000
# 3 30.3494 57.8406 131.8771 0.0000 0.0000 0.0000
# 4 0.0000 0.0000 0.0000 32.7658 0.0000 0.0000
# 5 0.0000 0.0000 0.0000 0.0000 22.6151 0.0000
# 6 0.0000 0.0000 0.0000 0.0000 0.0000 23.2066
#
#
#
# Elastic Compliance Matrix: (Units=1/GPa)
#
#
# Indices 1 2 3 4 5 6 
#
# 1 0.031302 -0.010340 -0.002669 0.000000 0.000000 0.000000
# 2 -0.010340 0.012617 -0.003154 0.000000 0.000000 0.000000
# 3 -0.002669 -0.003154 0.009580 0.000000 0.000000 0.000000
# 4 0.000000 0.000000 0.000000 0.030520 0.000000 0.000000
# 5 0.000000 0.000000 0.000000 0.000000 0.044218 0.000000
# 6 0.000000 0.000000 0.000000 0.000000 0.000000 0.043091
#
#
# Mechanical properties :
#
#
# Convention : Reuss Voigt Hill
#
# Bulk Modulus (GPa) = 47.22765 65.72451 56.47608
# Shear Modulus (GPa) = 23.72912 27.67192 25.70052
#
# Velocity S-wave (km/s) = 3.75483 4.05479 3.90769
# Velocity P-wave (km/s) = 6.84534 7.80847 7.34271
#
# Compressibility (1/GPa) = 0.02117404
#
# Stress axis : x y z
#
# Youngs Moduli (GPa) = 31.94651 79.26062 104.38069
#
# Poissons Ratio (x) = 0.81954 0.27856
# Poissons Ratio (y) = 0.33032 0.32922
# Poissons Ratio (z) = 0.08526 0.24999
#
# Static dielectric constant tensor:
#      x y z
#    x 2.717860 0.000000 0.000000 
#    y 0.000000 2.161490 0.000000 
#    z 0.000000 0.000000 4.032510 
# 
# 
# High freq. dielectric constant tensor:
#      x y z
#    x 1.593520 0.000000 0.000000 
#    y 0.000000 1.655930 0.000000 
#    z 0.000000 0.000000 1.669180 
# 
# From -- ./inp_files/14397.got.cif
#   From: 2010.03.12/outbox.cif.g09.slc.cpg/sg63_8_cif.got.tgz:14397.got - 2010.04.10 19:34:48.
