data_PCOD8256061
_publ_section_title
;
Structure prediction by ZEFSAII (Michael W. Deem and Ramdas Pophale) SiO2 
 PCOD8256061
Probable space group: C M C M
;
_chemical_formula_sum "Si O2"
_cell_formula_units_Z 112
_cell_length_a 13.957286
_cell_length_b 24.077329
_cell_length_c 18.395952
_cell_angle_alpha 90.000000
_cell_angle_beta 90.000000
_cell_angle_gamma 90.000000
_cell_volume 6182.036325
_symmetry_space_group_name_H-M "C M C M"
_symmetry_group_IT_number 63
_symmetry_cell_setting 'orthorhombic'
loop_
_space_group_symop_operation_xyz
x,y,z
-x,-y,1/2+z
x,-y,-z
-x,y,1/2-z
-x,-y,-z
x,y,1/2-z
-x,y,z
x,-y,1/2+z
1/2+x,1/2+y,z
1/2-x,1/2-y,1/2+z
1/2+x,1/2-y,-z
1/2-x,1/2+y,1/2-z
1/2-x,1/2-y,-z
1/2+x,1/2+y,1/2-z
1/2-x,1/2+y,z
1/2+x,1/2-y,1/2+z
loop_
_atom_site_type_symbol
_atom_site_label
_atom_site_fract_x
_atom_site_fract_y
_atom_site_fract_z
Si Si1 0.609121 0.549104 0.450903
Si Si2 0.390473 0.672724 0.447677
Si Si3 0.394101 0.930579 0.664894
Si Si4 0.223453 0.323224 0.663208
Si Si5 0.391841 0.393918 0.164078
Si Si6 0.221974 0.000115 0.334333
Si Si7 0.612021 0.720960 0.902613
O O1 0.655795 0.500000 0.500000
O O2 0.500000 0.533628 0.436289
O O3 0.621124 0.610945 0.483690
O O4 0.661796 0.548529 0.373248
O O5 0.500000 0.680989 0.421960
O O6 0.325539 0.680104 0.376851
O O7 0.364208 0.716873 0.511047
O O8 0.407368 0.922886 0.750000
O O9 0.500000 0.934498 0.628303
O O10 0.335833 0.877059 0.636166
O O11 0.334450 0.987480 0.648326
O O12 0.239612 0.322537 0.750000
O O13 0.164822 0.270216 0.637406
O O14 0.394197 0.391141 0.250000
O O15 0.500000 0.407546 0.134650
O O16 0.315380 0.440359 0.137654
O O17 0.353567 0.335797 0.134679
O O18 0.200731 0.007848 0.250000
O O19 0.500000 0.729878 0.889846
#
# Coordination Sequence:
#
# PCOD8256061 Si02
#       7
#    16  16  16  16  16  16  16
#     4  10  19  31  49  75 107 143 176 208 255 316
#     4  10  21  35  51  76 109 142 178 218 266 325
#     4   9  18  32  50  74 101 129 169 219 265 308
#     4  11  21  35  55  79 106 141 180 221 272 319
#     4   9  17  29  48  78 109 134 168 217 269 322
#     4  10  18  30  49  74 104 137 173 215 267 318
#     4  10  20  35  55  79 107 138 176 222 271 321
#
# _framework density 18.117007999999998
#
# number of rings (size 3 to 8) (size 9 to 14) (size 15 to 20)
#    0.000    2.143    1.429    2.571    0.000    4.857 
#    0.000    1.429    0.000    1.286    0.000    2.000 
#    0.000    0.000    0.000    0.000    0.000    0.000 
#
# Total GULP energy -694030.062711 kJ/mol
# GULP energy per Si atom -12393.393977 kJ/mol
# Density = 1.807577 g / cm^3
# Si number density = 18.117008 Si / 1000 Ang^3
#
#
#
# Elastic Constant Matrix: (Units=GPa)
#
#
# Indices 1 2 3 4 5 6 
#
# 1 98.6192 53.9808 32.8530 0.0000 0.0000 0.0000
# 2 53.9808 96.1404 27.1511 0.0000 0.0000 0.0000
# 3 32.8530 27.1511 44.5217 0.0000 0.0000 0.0000
# 4 0.0000 0.0000 0.0000 24.2080 0.0000 0.0000
# 5 0.0000 0.0000 0.0000 0.0000 23.3495 0.0000
# 6 0.0000 0.0000 0.0000 0.0000 0.0000 27.4283
#
#
#
# Elastic Compliance Matrix: (Units=1/GPa)
#
#
# Indices 1 2 3 4 5 6 
#
# 1 0.016695 -0.007121 -0.007977 0.000000 0.000000 0.000000
# 2 -0.007121 0.015603 -0.004261 0.000000 0.000000 0.000000
# 3 -0.007977 -0.004261 0.030945 0.000000 0.000000 0.000000
# 4 0.000000 0.000000 0.000000 0.041309 0.000000 0.000000
# 5 0.000000 0.000000 0.000000 0.000000 0.042827 0.000000
# 6 0.000000 0.000000 0.000000 0.000000 0.000000 0.036459
#
#
# Mechanical properties :
#
#
# Convention : Reuss Voigt Hill
#
# Bulk Modulus (GPa) = 40.77215 51.91678 46.34446
# Shear Modulus (GPa) = 21.67024 23.35025 22.51024
#
# Velocity S-wave (km/s) = 3.46226 3.59396 3.52872
# Velocity P-wave (km/s) = 6.20780 6.77795 6.49913
#
# Compressibility (1/GPa) = 0.02452655
#
# Stress axis : x y z
#
# Youngs Moduli (GPa) = 59.89713 64.08958 32.31514
#
# Poissons Ratio (x) = 0.45640 0.25777
# Poissons Ratio (y) = 0.42655 0.13768
# Poissons Ratio (z) = 0.47778 0.27305
#
# Static dielectric constant tensor:
#      x y z
#    x 3.439470 0.000000 0.000000 
#    y 0.000000 3.415140 0.000000 
#    z 0.000000 0.000000 3.272010 
# 
# 
# High freq. dielectric constant tensor:
#      x y z
#    x 1.688460 0.000000 0.000000 
#    y 0.000000 1.698700 0.000000 
#    z 0.000000 0.000000 1.694460 
# 
# From -- ./inp_files/53139.got.cif
#   From: 2010.03.12/outbox.cif.g09.slc.cpg/sg63_27_cif.got.tgz:53139.got - 2010.04.10 19:34:48.
