data_PCOD8256194
_publ_section_title
;
Structure prediction by ZEFSAII (Michael W. Deem and Ramdas Pophale) SiO2 
 PCOD8256194
Probable space group: C M C M
;
_chemical_formula_sum "Si O2"
_cell_formula_units_Z 56
_cell_length_a 20.543241
_cell_length_b 14.620143
_cell_length_c 10.259802
_cell_angle_alpha 90.000000
_cell_angle_beta 90.000000
_cell_angle_gamma 90.000000
_cell_volume 3081.481474
_symmetry_space_group_name_H-M "C M C M"
_symmetry_group_IT_number 63
_symmetry_cell_setting 'orthorhombic'
loop_
_space_group_symop_operation_xyz
x,y,z
-x,-y,1/2+z
x,-y,-z
-x,y,1/2-z
-x,-y,-z
x,y,1/2-z
-x,y,z
x,-y,1/2+z
1/2+x,1/2+y,z
1/2-x,1/2-y,1/2+z
1/2+x,1/2-y,-z
1/2-x,1/2+y,1/2-z
1/2-x,1/2-y,-z
1/2+x,1/2+y,1/2-z
1/2-x,1/2+y,z
1/2+x,1/2-y,1/2+z
loop_
_atom_site_type_symbol
_atom_site_label
_atom_site_fract_x
_atom_site_fract_y
_atom_site_fract_z
Si Si1 0.221586 0.500000 0.000000
Si Si2 0.776161 0.938334 0.750000
Si Si3 0.200208 0.267057 0.750000
Si Si4 0.369608 0.174879 0.014863
Si Si5 0.000000 0.583295 0.099988
Si Si6 0.655682 0.259398 0.750000
O O1 0.271609 0.500416 0.878330
O O2 0.176757 0.411114 0.011532
O O3 0.710174 0.877366 0.750000
O O4 0.839123 0.870698 0.750000
O O5 0.161312 0.249687 0.614957
O O6 0.270365 0.216886 0.750000
O O7 0.437379 0.145012 0.076061
O O8 0.382202 0.225721 0.877851
O O9 0.000000 0.547677 0.250000
O O10 0.000000 0.500000 0.000000
#
# Coordination Sequence:
#
# PCOD8256194 Si02
#       6
#     8   8   8  16   8   8
#     4  10  18  31  50  74 104 145 174 220 254 320
#     4   8  19  31  47  76 105 133 178 209 277 316
#     4   8  18  33  50  70 100 141 180 220 267 312
#     4  11  20  35  52  75 111 146 187 222 253 317
#     4  12  26  36  52  76 110 152 195 215 251 315
#     4  10  21  32  53  76 101 146 182 225 278 310
#
# _framework density 18.173078
#
# number of rings (size 3 to 8) (size 9 to 14) (size 15 to 20)
#    0.857    1.143    2.857    1.714    2.000    0.000 
#    0.000    0.000    0.000    0.000    0.000    0.000 
#    0.000    4.571    0.000    0.000    0.000    0.000 
#
# Total GULP energy -346923.036894 kJ/mol
# GULP energy per Si atom -12390.108461 kJ/mol
# Density = 1.813171 g / cm^3
# Si number density = 18.173078 Si / 1000 Ang^3
#
#
#
# Elastic Constant Matrix: (Units=GPa)
#
#
# Indices 1 2 3 4 5 6 
#
# 1 48.5075 12.4177 24.0072 0.0000 0.0000 0.0000
# 2 12.4177 33.4558 24.4438 0.0000 0.0000 0.0000
# 3 24.0072 24.4438 168.4551 0.0000 0.0000 0.0000
# 4 0.0000 0.0000 0.0000 23.5130 0.0000 0.0000
# 5 0.0000 0.0000 0.0000 0.0000 27.5497 0.0000
# 6 0.0000 0.0000 0.0000 0.0000 0.0000 12.8893
#
#
#
# Elastic Compliance Matrix: (Units=1/GPa)
#
#
# Indices 1 2 3 4 5 6 
#
# 1 0.023575 -0.007042 -0.002338 0.000000 0.000000 0.000000
# 2 -0.007042 0.035538 -0.004153 0.000000 0.000000 0.000000
# 3 -0.002338 -0.004153 0.006872 0.000000 0.000000 0.000000
# 4 0.000000 0.000000 0.000000 0.042530 0.000000 0.000000
# 5 0.000000 0.000000 0.000000 0.000000 0.036298 0.000000
# 6 0.000000 0.000000 0.000000 0.000000 0.000000 0.077584
#
#
# Mechanical properties :
#
#
# Convention : Reuss Voigt Hill
#
# Bulk Modulus (GPa) = 25.69429 41.35064 33.52247
# Shear Modulus (GPa) = 19.05221 25.42707 22.23964
#
# Velocity S-wave (km/s) = 3.24138 3.74459 3.50204
# Velocity P-wave (km/s) = 5.30830 6.44199 5.90242
#
# Compressibility (1/GPa) = 0.03891915
#
# Stress axis : x y z
#
# Youngs Moduli (GPa) = 42.41746 28.13856 145.51501
#
# Poissons Ratio (x) = 0.19816 0.34021
# Poissons Ratio (y) = 0.29871 0.60436
# Poissons Ratio (z) = 0.09917 0.11687
#
# Static dielectric constant tensor:
#      x y z
#    x 3.029030 0.000000 0.000000 
#    y 0.000000 2.980090 0.000000 
#    z 0.000000 0.000000 3.674000 
# 
# 
# High freq. dielectric constant tensor:
#      x y z
#    x 1.660620 0.000000 0.000000 
#    y 0.000000 1.662800 0.000000 
#    z 0.000000 0.000000 1.735760 
# 
# From -- ./inp_files/9758.got.cif
#   From: 2010.03.12/outbox.cif.g09.slc.cpg/sg63_5_cif.got.tgz:9758.got - 2010.04.10 19:34:48.
