data_PCOD8256293
_publ_section_title
;
Structure prediction by ZEFSAII (Michael W. Deem and Ramdas Pophale) SiO2 
 PCOD8256293
Probable space group: C M C M
;
_chemical_formula_sum "Si O2"
_cell_formula_units_Z 64
_cell_length_a 24.688257
_cell_length_b 14.867358
_cell_length_c 8.747354
_cell_angle_alpha 90.000000
_cell_angle_beta 90.000000
_cell_angle_gamma 90.000000
_cell_volume 3210.708896
_symmetry_space_group_name_H-M "C M C M"
_symmetry_group_IT_number 63
_symmetry_cell_setting 'orthorhombic'
loop_
_space_group_symop_operation_xyz
x,y,z
-x,-y,1/2+z
x,-y,-z
-x,y,1/2-z
-x,-y,-z
x,y,1/2-z
-x,y,z
x,-y,1/2+z
1/2+x,1/2+y,z
1/2-x,1/2-y,1/2+z
1/2+x,1/2-y,-z
1/2-x,1/2+y,1/2-z
1/2-x,1/2-y,-z
1/2+x,1/2+y,1/2-z
1/2-x,1/2+y,z
1/2+x,1/2-y,1/2+z
loop_
_atom_site_type_symbol
_atom_site_label
_atom_site_fract_x
_atom_site_fract_y
_atom_site_fract_z
Si Si1 0.000000 0.595562 0.927073
Si Si2 0.616814 0.901058 0.069580
Si Si3 0.109197 0.097771 0.569791
Si Si4 0.808781 0.747005 0.070779
Si Si5 0.000000 0.900783 0.932171
O O1 0.942861 0.643063 0.970635
O O2 0.000000 0.576876 0.750000
O O3 0.000000 0.500000 0.000000
O O4 0.626481 0.906496 0.250000
O O5 0.661718 0.839354 0.995673
O O6 0.622200 0.000000 0.000000
O O7 0.100068 0.087761 0.750000
O O8 0.159407 0.161723 0.528755
O O9 0.055287 0.143726 0.495476
O O10 0.121642 0.000000 0.500000
O O11 0.803920 0.734813 0.250000
O O12 0.750000 0.750000 0.000000
O O13 0.000000 0.898318 0.750000
O O14 0.000000 0.000000 0.000000
#
# Coordination Sequence:
#
# PCOD8256293 Si02
#       5
#     8  16  16  16   8
#     4   8  16  31  54  85 116 146 182 225 277 337
#     4  10  20  37  61  88 119 153 190 234 285 341
#     4  10  21  38  60  86 116 150 188 234 287 341
#     4  11  25  42  59  82 113 151 197 245 289 339
#     4  10  18  31  56  87 118 150 184 227 280 341
#
# _framework density 19.933294
#
# number of rings (size 3 to 8) (size 9 to 14) (size 15 to 20)
#    0.000    2.000    0.000    4.875    0.000    7.000 
#    0.000    5.000    0.000    0.000    0.000    0.000 
#    0.000    0.000    0.000    0.000    0.000    0.000 
#
# Total GULP energy -396564.327084 kJ/mol
# GULP energy per Si atom -12392.635221 kJ/mol
# Density = 1.988792 g / cm^3
# Si number density = 19.933294 Si / 1000 Ang^3
#
#
#
# Elastic Constant Matrix: (Units=GPa)
#
#
# Indices 1 2 3 4 5 6 
#
# 1 218.1677 84.3429 89.4530 0.0000 0.0000 0.0000
# 2 84.3429 102.0687 57.9201 0.0000 0.0000 0.0000
# 3 89.4530 57.9201 117.7984 0.0000 0.0000 0.0000
# 4 0.0000 0.0000 0.0000 30.8863 0.0000 0.0000
# 5 0.0000 0.0000 0.0000 0.0000 35.8190 0.0000
# 6 0.0000 0.0000 0.0000 0.0000 0.0000 42.2853
#
#
#
# Elastic Compliance Matrix: (Units=1/GPa)
#
#
# Indices 1 2 3 4 5 6 
#
# 1 0.007806 -0.004281 -0.003823 0.000000 0.000000 0.000000
# 2 -0.004281 0.015937 -0.004585 0.000000 0.000000 0.000000
# 3 -0.003823 -0.004585 0.013646 0.000000 0.000000 0.000000
# 4 0.000000 0.000000 0.000000 0.032377 0.000000 0.000000
# 5 0.000000 0.000000 0.000000 0.000000 0.027918 0.000000
# 6 0.000000 0.000000 0.000000 0.000000 0.000000 0.023649
#
#
# Mechanical properties :
#
#
# Convention : Reuss Voigt Hill
#
# Bulk Modulus (GPa) = 83.25337 100.16298 91.70818
# Shear Modulus (GPa) = 33.17528 35.55271 34.36399
#
# Velocity S-wave (km/s) = 4.08403 4.22783 4.15655
# Velocity P-wave (km/s) = 8.00598 8.61342 8.31525
#
# Compressibility (1/GPa) = 0.01201153
#
# Stress axis : x y z
#
# Youngs Moduli (GPa) = 128.10433 62.74783 73.27984
#
# Poissons Ratio (x) = 0.26864 0.28013
# Poissons Ratio (y) = 0.54844 0.33598
# Poissons Ratio (z) = 0.48971 0.28769
#
# Static dielectric constant tensor:
#      x y z
#    x 4.263190 0.000000 0.000000 
#    y 0.000000 3.436730 0.000000 
#    z 0.000000 0.000000 3.778360 
# 
# 
# High freq. dielectric constant tensor:
#      x y z
#    x 1.793660 0.000000 0.000000 
#    y 0.000000 1.762380 0.000000 
#    z 0.000000 0.000000 1.793140 
# 
# From -- ./inp_files/9685.got.cif
#   From: 2010.03.12/outbox.cif.g09.slc.cpg/sg63_5_cif.got.tgz:9685.got - 2010.04.10 19:34:48.
