data_PCOD8256580
_publ_section_title
;
Structure prediction by ZEFSAII (Michael W. Deem and Ramdas Pophale) SiO2 
 PCOD8256580
Probable space group: C M C M
;
_chemical_formula_sum "Si O2"
_cell_formula_units_Z 80
_cell_length_a 22.901669
_cell_length_b 18.825446
_cell_length_c 8.992632
_cell_angle_alpha 90.000000
_cell_angle_beta 90.000000
_cell_angle_gamma 90.000000
_cell_volume 3877.030601
_symmetry_space_group_name_H-M "C M C M"
_symmetry_group_IT_number 63
_symmetry_cell_setting 'orthorhombic'
loop_
_space_group_symop_operation_xyz
x,y,z
-x,-y,1/2+z
x,-y,-z
-x,y,1/2-z
-x,-y,-z
x,y,1/2-z
-x,y,z
x,-y,1/2+z
1/2+x,1/2+y,z
1/2-x,1/2-y,1/2+z
1/2+x,1/2-y,-z
1/2-x,1/2+y,1/2-z
1/2-x,1/2-y,-z
1/2+x,1/2+y,1/2-z
1/2-x,1/2+y,z
1/2+x,1/2-y,1/2+z
loop_
_atom_site_type_symbol
_atom_site_label
_atom_site_fract_x
_atom_site_fract_y
_atom_site_fract_z
Si Si1 0.393527 0.438730 0.085847
Si Si2 0.785528 0.423924 0.577460
Si Si3 0.500000 0.232455 0.073354
Si Si4 0.697836 0.678638 0.914519
Si Si5 0.500000 0.382729 0.923363
Si Si6 0.126269 0.309723 0.576500
O O1 0.414429 0.463465 0.250000
O O2 0.360293 0.366148 0.104750
O O3 0.355224 0.500000 0.000000
O O4 0.445105 0.429492 0.967902
O O5 0.780999 0.500000 0.500000
O O6 0.773178 0.436971 0.750000
O O7 0.740692 0.364510 0.520831
O O8 0.849857 0.389628 0.549092
O O9 0.500000 0.227567 0.250000
O O10 0.439842 0.196011 0.010298
O O11 0.500000 0.312925 0.023737
O O12 0.726379 0.689817 0.750000
O O13 0.674601 0.752839 0.988337
O O14 0.500000 0.362865 0.750000
O O15 0.123464 0.290951 0.750000
#
# Coordination Sequence:
#
# PCOD8256580 Si02
#       6
#    16  16   8  16   8  16
#     4  11  22  36  54  77 112 154 197 239 285 339
#     4  11  23  39  59  87 121 157 195 240 294 349
#     4  10  18  39  66  87 113 149 193 243 294 350
#     4  10  20  37  61  88 115 150 195 240 289 345
#     4  12  23  35  52  79 114 149 193 239 289 344
#     4   9  19  37  64  91 115 150 196 240 292 351
#
# _framework density 20.634349
#
# number of rings (size 3 to 8) (size 9 to 14) (size 15 to 20)
#    0.000    1.600    2.000    3.600    0.000    3.200 
#    0.000    3.500    0.000    0.000    0.000    0.000 
#    0.000    0.000    0.000    0.000    0.000    0.000 
#
# Total GULP energy -495568.112827 kJ/mol
# GULP energy per Si atom -12389.202821 kJ/mol
# Density = 2.058738 g / cm^3
# Si number density = 20.634349 Si / 1000 Ang^3
#
#
#
# Elastic Constant Matrix: (Units=GPa)
#
#
# Indices 1 2 3 4 5 6 
#
# 1 84.8115 58.0936 37.0399 0.0000 0.0000 0.0000
# 2 58.0936 100.9983 36.9425 0.0000 0.0000 0.0000
# 3 37.0399 36.9425 80.2118 0.0000 0.0000 0.0000
# 4 0.0000 0.0000 0.0000 18.7208 0.0000 0.0000
# 5 0.0000 0.0000 0.0000 0.0000 11.1861 0.0000
# 6 0.0000 0.0000 0.0000 0.0000 0.0000 -1.5191
#
#
#
# Elastic Compliance Matrix: (Units=1/GPa)
#
#
# Indices 1 2 3 4 5 6 
#
# 1 0.020983 -0.010252 -0.004968 0.000000 0.000000 0.000000
# 2 -0.010252 0.016916 -0.003057 0.000000 0.000000 0.000000
# 3 -0.004968 -0.003057 0.016169 0.000000 0.000000 0.000000
# 4 0.000000 0.000000 0.000000 0.053417 0.000000 0.000000
# 5 0.000000 0.000000 0.000000 0.000000 0.089397 0.000000
# 6 0.000000 0.000000 0.000000 0.000000 0.000000 -0.658289
#
#
# Mechanical properties :
#
#
# Convention : Reuss Voigt Hill
#
# Bulk Modulus (GPa) = 57.09486 58.90818 58.00152
# Shear Modulus (GPa) = -11.93270 14.60727 1.33729
#
# Velocity S-wave (km/s) = -2.40738 2.66355 0.80591
# Velocity P-wave (km/s) = 4.47242 6.17008 5.38853
#
# Compressibility (1/GPa) = 0.01751471
#
# Stress axis : x y z
#
# Youngs Moduli (GPa) = 47.65799 59.11480 61.84776
#
# Poissons Ratio (x) = 0.60606 0.30724
# Poissons Ratio (y) = 0.48860 0.18905
# Poissons Ratio (z) = 0.23675 0.18070
#
# Static dielectric constant tensor:
#      x y z
#    x 3.946690 0.000000 0.000000 
#    y 0.000000 3.822570 0.000000 
#    z 0.000000 0.000000 3.622590 
# 
# 
# High freq. dielectric constant tensor:
#      x y z
#    x 1.802940 0.000000 0.000000 
#    y 0.000000 1.810830 0.000000 
#    z 0.000000 0.000000 1.789730 
# 
# From -- ./inp_files/10112.got.cif
#   From: 2010.03.12/outbox.cif.g09.slc.cpg/sg63_6_cif.got.tgz:10112.got - 2010.04.10 19:34:48.
