data_PCOD8256374
_publ_section_title
;
Structure prediction by ZEFSAII (Michael W. Deem and Ramdas Pophale) SiO2 
 PCOD8256374
Probable space group: C M C M
;
_chemical_formula_sum "Si O2"
_cell_formula_units_Z 104
_cell_length_a 27.641239
_cell_length_b 22.962726
_cell_length_c 8.891260
_cell_angle_alpha 90.000000
_cell_angle_beta 90.000000
_cell_angle_gamma 90.000000
_cell_volume 5643.444520
_symmetry_space_group_name_H-M "C M C M"
_symmetry_group_IT_number 63
_symmetry_cell_setting 'orthorhombic'
loop_
_space_group_symop_operation_xyz
x,y,z
-x,-y,1/2+z
x,-y,-z
-x,y,1/2-z
-x,-y,-z
x,y,1/2-z
-x,y,z
x,-y,1/2+z
1/2+x,1/2+y,z
1/2-x,1/2-y,1/2+z
1/2+x,1/2-y,-z
1/2-x,1/2+y,1/2-z
1/2-x,1/2-y,-z
1/2+x,1/2+y,1/2-z
1/2-x,1/2+y,z
1/2+x,1/2-y,1/2+z
loop_
_atom_site_type_symbol
_atom_site_label
_atom_site_fract_x
_atom_site_fract_y
_atom_site_fract_z
Si Si1 0.199075 0.258733 0.578101
Si Si2 0.945791 0.438637 0.926877
Si Si3 0.000000 0.935816 0.429402
Si Si4 0.267391 0.058789 0.575766
Si Si5 0.851175 0.625196 0.427878
Si Si6 0.094454 0.062272 0.073693
Si Si7 0.825783 0.130612 0.919699
O O1 0.211105 0.272471 0.750000
O O2 0.250000 0.250000 0.500000
O O3 0.166019 0.311226 0.511383
O O4 0.168765 0.199618 0.560468
O O5 0.943934 0.448402 0.750000
O O6 0.906762 0.389043 0.975292
O O7 0.000000 0.418832 0.977359
O O8 0.931620 0.500000 0.000000
O O9 0.048470 0.905847 0.494085
O O10 0.000000 0.936288 0.250000
O O11 0.000000 0.000000 0.500000
O O12 0.276316 0.046754 0.750000
O O13 0.317780 0.075906 0.500355
O O14 0.229094 0.110609 0.549026
O O15 0.247166 0.000000 0.500000
O O16 0.845551 0.621856 0.250000
O O17 0.085077 0.054686 0.250000
O O18 0.140531 0.102119 0.044749
O O19 0.104529 0.000000 0.000000
O O20 0.840965 0.111755 0.750000
#
# Coordination Sequence:
#
# PCOD8256374 Si02
#       7
#    16  16   8  16  16  16  16
#     4  10  20  36  56  77 104 138 180 222 262 315
#     4   9  18  33  53  79 109 140 174 217 268 322
#     4  10  18  32  54  78 106 138 172 212 259 316
#     4  11  22  34  50  75 108 141 173 216 264 319
#     4  10  20  34  55  79 105 139 177 221 267 320
#     4  11  21  34  54  80 108 140 176 219 269 321
#     4  10  21  36  52  74 105 140 179 221 264 316
#
# _framework density 18.428462
#
# number of rings (size 3 to 8) (size 9 to 14) (size 15 to 20)
#    0.000    1.846    1.538    4.385    0.000    4.923 
#    0.000    0.000    1.692    0.000    0.000    0.000 
#    0.000    0.000    0.000    0.000    0.000    0.000 
#
# Total GULP energy -644708.885409 kJ/mol
# GULP energy per Si atom -12398.247796 kJ/mol
# Density = 1.838652 g / cm^3
# Si number density = 18.428462 Si / 1000 Ang^3
#
#
#
# Elastic Constant Matrix: (Units=GPa)
#
#
# Indices 1 2 3 4 5 6 
#
# 1 129.4210 53.7310 44.0875 0.0000 0.0000 0.0000
# 2 53.7310 100.6380 28.4837 0.0000 0.0000 0.0000
# 3 44.0875 28.4837 78.7929 0.0000 0.0000 0.0000
# 4 0.0000 0.0000 0.0000 22.0616 0.0000 0.0000
# 5 0.0000 0.0000 0.0000 0.0000 29.9922 0.0000
# 6 0.0000 0.0000 0.0000 0.0000 0.0000 21.5311
#
#
#
# Elastic Compliance Matrix: (Units=1/GPa)
#
#
# Indices 1 2 3 4 5 6 
#
# 1 0.011243 -0.004704 -0.004591 0.000000 0.000000 0.000000
# 2 -0.004704 0.013037 -0.002081 0.000000 0.000000 0.000000
# 3 -0.004591 -0.002081 0.016012 0.000000 0.000000 0.000000
# 4 0.000000 0.000000 0.000000 0.045328 0.000000 0.000000
# 5 0.000000 0.000000 0.000000 0.000000 0.033342 0.000000
# 6 0.000000 0.000000 0.000000 0.000000 0.000000 0.046444
#
#
# Mechanical properties :
#
#
# Convention : Reuss Voigt Hill
#
# Bulk Modulus (GPa) = 57.00582 62.38402 59.69492
# Shear Modulus (GPa) = 25.77260 26.88696 26.32978
#
# Velocity S-wave (km/s) = 3.74374 3.82382 3.78399
# Velocity P-wave (km/s) = 7.04898 7.30896 7.18015
#
# Compressibility (1/GPa) = 0.01754207
#
# Stress axis : x y z
#
# Youngs Moduli (GPa) = 88.94189 76.70578 62.45135
#
# Poissons Ratio (x) = 0.36079 0.28670
# Poissons Ratio (y) = 0.41834 0.12996
# Poissons Ratio (z) = 0.40831 0.15963
#
# Static dielectric constant tensor:
#      x y z
#    x 3.734970 0.000000 0.000000 
#    y 0.000000 3.409060 0.000000 
#    z 0.000000 0.000000 3.383590 
# 
# 
# High freq. dielectric constant tensor:
#      x y z
#    x 1.718280 0.000000 0.000000 
#    y 0.000000 1.695510 0.000000 
#    z 0.000000 0.000000 1.715470 
# 
# From -- ./inp_files/12870.got.cif
#   From: 2010.03.12/outbox.cif.g09.slc.cpg/sg63_7_cif.got.tgz:12870.got - 2010.04.10 19:34:48.
