data_PCOD8256797
_publ_section_title
;
Structure prediction by ZEFSAII (Michael W. Deem and Ramdas Pophale) SiO2 
 PCOD8256797
Probable space group: C M C M
;
_chemical_formula_sum "Si O2"
_cell_formula_units_Z 80
_cell_length_a 9.001393
_cell_length_b 28.332958
_cell_length_c 20.196995
_cell_angle_alpha 90.000000
_cell_angle_beta 90.000000
_cell_angle_gamma 90.000000
_cell_volume 5150.962631
_symmetry_space_group_name_H-M "C M C M"
_symmetry_group_IT_number 63
_symmetry_cell_setting 'orthorhombic'
loop_
_space_group_symop_operation_xyz
x,y,z
-x,-y,1/2+z
x,-y,-z
-x,y,1/2-z
-x,-y,-z
x,y,1/2-z
-x,y,z
x,-y,1/2+z
1/2+x,1/2+y,z
1/2-x,1/2-y,1/2+z
1/2+x,1/2-y,-z
1/2-x,1/2+y,1/2-z
1/2-x,1/2-y,-z
1/2+x,1/2+y,1/2-z
1/2-x,1/2+y,z
1/2+x,1/2-y,1/2+z
loop_
_atom_site_type_symbol
_atom_site_label
_atom_site_fract_x
_atom_site_fract_y
_atom_site_fract_z
Si Si1 0.668120 0.858312 0.944575
Si Si2 0.169280 0.551569 0.986348
Si Si3 0.174334 0.296341 0.675412
Si Si4 0.175322 0.866534 0.072202
Si Si5 0.671263 0.800276 0.327394
O O1 0.500000 0.840926 0.957972
O O2 0.674695 0.915968 0.946536
O O3 0.722792 0.838753 0.873749
O O4 0.770069 0.839119 0.005297
O O5 0.000000 0.545954 0.960905
O O6 0.239059 0.500000 0.000000
O O7 0.264486 0.579150 0.930194
O O8 0.220323 0.311186 0.750000
O O9 0.260284 0.249889 0.652071
O O10 0.000000 0.285624 0.671514
O O11 0.242100 0.841900 0.136377
O O12 0.000000 0.866082 0.076579
O O13 0.692567 0.809268 0.250000
O O14 0.500000 0.800862 0.348593
#
# Coordination Sequence:
#
# PCOD8256797 Si02
#       5
#    16  16  16  16  16
#     4   8  16  30  46  68  93 121 154 189 231 276
#     4   8  15  30  50  69  92 121 152 189 234 278
#     4   9  17  30  48  68  92 122 155 191 230 272
#     4  10  19  30  47  71  94 120 155 194 231 271
#     4  10  20  33  48  66  92 125 157 187 226 278
#
# _framework density 15.531077
#
# number of rings (size 3 to 8) (size 9 to 14) (size 15 to 20)
#    1.200    1.800    0.000    1.800    0.000    3.200 
#    0.000    0.000    0.000    1.200    0.000    5.600 
#    0.000    0.000    0.000    0.000    0.000    0.000 
#
# Total GULP energy -495533.049770 kJ/mol
# GULP energy per Si atom -12388.326244 kJ/mol
# Density = 1.549573 g / cm^3
# Si number density = 15.531077 Si / 1000 Ang^3
#
#
#
# Elastic Constant Matrix: (Units=GPa)
#
#
# Indices 1 2 3 4 5 6 
#
# 1 80.9125 45.2206 35.2284 0.0000 0.0000 0.0000
# 2 45.2206 107.9162 52.8381 0.0000 0.0000 0.0000
# 3 35.2284 52.8381 63.5794 0.0000 0.0000 0.0000
# 4 0.0000 0.0000 0.0000 14.2097 0.0000 0.0000
# 5 0.0000 0.0000 0.0000 0.0000 18.8982 0.0000
# 6 0.0000 0.0000 0.0000 0.0000 0.0000 22.8888
#
#
#
# Elastic Compliance Matrix: (Units=1/GPa)
#
#
# Indices 1 2 3 4 5 6 
#
# 1 0.017415 -0.004338 -0.006044 0.000000 0.000000 0.000000
# 2 -0.004338 0.016704 -0.011479 0.000000 0.000000 0.000000
# 3 -0.006044 -0.011479 0.028617 0.000000 0.000000 0.000000
# 4 0.000000 0.000000 0.000000 0.070374 0.000000 0.000000
# 5 0.000000 0.000000 0.000000 0.000000 0.052915 0.000000
# 6 0.000000 0.000000 0.000000 0.000000 0.000000 0.043689
#
#
# Mechanical properties :
#
#
# Convention : Reuss Voigt Hill
#
# Bulk Modulus (GPa) = 52.59188 57.66470 55.12829
# Shear Modulus (GPa) = 17.87148 19.14076 18.50612
#
# Velocity S-wave (km/s) = 3.39586 3.51439 3.45563
# Velocity P-wave (km/s) = 7.02223 7.32647 7.17596
#
# Compressibility (1/GPa) = 0.01901434
#
# Stress axis : x y z
#
# Youngs Moduli (GPa) = 57.42129 59.86411 34.94450
#
# Poissons Ratio (x) = 0.25970 0.21121
# Poissons Ratio (y) = 0.24910 0.40112
# Poissons Ratio (z) = 0.34707 0.68716
#
# Static dielectric constant tensor:
#      x y z
#    x 2.945920 0.000000 0.000000 
#    y 0.000000 2.895820 0.000000 
#    z 0.000000 0.000000 2.869910 
# 
# 
# High freq. dielectric constant tensor:
#      x y z
#    x 1.598500 0.000000 0.000000 
#    y 0.000000 1.578700 0.000000 
#    z 0.000000 0.000000 1.576190 
# 
# From -- ./inp_files/51571.got.cif
#   From: 2010.03.12/outbox.cif.g09.slc.cpg/sg63_26_cif.got.tgz:51571.got - 2010.04.10 19:34:48.
