data_PCOD8256382
_publ_section_title
;
Structure prediction by ZEFSAII (Michael W. Deem and Ramdas Pophale) SiO2 
 PCOD8256382
Probable space group: C M C M
;
_chemical_formula_sum "Si O2"
_cell_formula_units_Z 88
_cell_length_a 18.954373
_cell_length_b 25.190932
_cell_length_c 8.737281
_cell_angle_alpha 90.000000
_cell_angle_beta 90.000000
_cell_angle_gamma 90.000000
_cell_volume 4171.862265
_symmetry_space_group_name_H-M "C M C M"
_symmetry_group_IT_number 63
_symmetry_cell_setting 'orthorhombic'
loop_
_space_group_symop_operation_xyz
x,y,z
-x,-y,1/2+z
x,-y,-z
-x,y,1/2-z
-x,-y,-z
x,y,1/2-z
-x,y,z
x,-y,1/2+z
1/2+x,1/2+y,z
1/2-x,1/2-y,1/2+z
1/2+x,1/2-y,-z
1/2-x,1/2+y,1/2-z
1/2-x,1/2-y,-z
1/2+x,1/2+y,1/2-z
1/2-x,1/2+y,z
1/2+x,1/2-y,1/2+z
loop_
_atom_site_type_symbol
_atom_site_label
_atom_site_fract_x
_atom_site_fract_y
_atom_site_fract_z
Si Si1 0.000000 0.058690 0.567786
Si Si2 0.580488 0.729088 0.431175
Si Si3 0.418301 0.945487 0.429664
Si Si4 0.858813 0.057196 0.429964
Si Si5 0.855542 0.662854 0.571501
Si Si6 0.197687 0.846146 0.428338
O O1 0.070603 0.085045 0.500982
O O2 0.000000 0.058992 0.750000
O O3 0.000000 0.000000 0.500000
O O4 0.592543 0.723916 0.250000
O O5 0.500000 0.714371 0.475930
O O6 0.596159 0.788952 0.489735
O O7 0.635035 0.690826 0.514336
O O8 0.406390 0.949498 0.250000
O O9 0.500000 0.939120 0.473689
O O10 0.378062 0.893975 0.500862
O O11 0.387235 0.000000 0.500000
O O12 0.866662 0.051100 0.250000
O O13 0.798713 0.098182 0.479237
O O14 0.842232 0.000000 0.500000
O O15 0.869810 0.656935 0.750000
O O16 0.774338 0.678888 0.538058
O O17 0.186794 0.858011 0.250000
#
# Coordination Sequence:
#
# PCOD8256382 Si02
#       6
#     8  16  16  16  16  16
#     4  10  18  32  54  80 108 142 184 232 283 332
#     4  10  21  39  63  87 111 145 194 246 298 356
#     4   9  17  32  56  86 118 151 190 234 283 341
#     4  11  22  38  58  82 114 152 195 237 286 341
#     4   9  19  37  60  84 113 153 195 238 290 350
#     4  11  23  38  57  84 119 154 193 241 294 351
#
# _framework density 21.093698
#
# number of rings (size 3 to 8) (size 9 to 14) (size 15 to 20)
#    0.000    2.000    0.000    5.182    1.273    3.273 
#    0.000    5.455    0.000    2.182    0.000    0.000 
#    0.000    0.000    0.000    0.000    0.000    0.000 
#
# Total GULP energy -545438.689631 kJ/mol
# GULP energy per Si atom -12396.333855 kJ/mol
# Density = 2.104569 g / cm^3
# Si number density = 21.093698 Si / 1000 Ang^3
#
#
#
# Elastic Constant Matrix: (Units=GPa)
#
#
# Indices 1 2 3 4 5 6 
#
# 1 88.2180 49.8499 33.7937 0.0000 0.0000 0.0000
# 2 49.8499 128.2539 29.3955 0.0000 0.0000 0.0000
# 3 33.7937 29.3955 97.8833 0.0000 0.0000 0.0000
# 4 0.0000 0.0000 0.0000 31.3393 0.0000 0.0000
# 5 0.0000 0.0000 0.0000 0.0000 24.6369 0.0000
# 6 0.0000 0.0000 0.0000 0.0000 0.0000 35.1059
#
#
#
# Elastic Compliance Matrix: (Units=1/GPa)
#
#
# Indices 1 2 3 4 5 6 
#
# 1 0.015785 -0.005247 -0.003874 0.000000 0.000000 0.000000
# 2 -0.005247 0.010118 -0.001227 0.000000 0.000000 0.000000
# 3 -0.003874 -0.001227 0.011922 0.000000 0.000000 0.000000
# 4 0.000000 0.000000 0.000000 0.031909 0.000000 0.000000
# 5 0.000000 0.000000 0.000000 0.000000 0.040589 0.000000
# 6 0.000000 0.000000 0.000000 0.000000 0.000000 0.028485
#
#
# Mechanical properties :
#
#
# Convention : Reuss Voigt Hill
#
# Bulk Modulus (GPa) = 58.38186 60.04815 59.21501
# Shear Modulus (GPa) = 30.26389 31.63749 30.95069
#
# Velocity S-wave (km/s) = 3.79190 3.87700 3.83469
# Velocity P-wave (km/s) = 6.84900 6.96926 6.90939
#
# Compressibility (1/GPa) = 0.01712861
#
# Stress axis : x y z
#
# Youngs Moduli (GPa) = 63.35282 98.83597 83.87803
#
# Poissons Ratio (x) = 0.51863 0.32492
# Poissons Ratio (y) = 0.33243 0.10291
# Poissons Ratio (z) = 0.24541 0.12126
#
# Static dielectric constant tensor:
#      x y z
#    x 4.234920 0.000000 0.000000 
#    y 0.000000 4.074830 0.000000 
#    z 0.000000 0.000000 3.609680 
# 
# 
# High freq. dielectric constant tensor:
#      x y z
#    x 1.827930 0.000000 0.000000 
#    y 0.000000 1.837480 0.000000 
#    z 0.000000 0.000000 1.801830 
# 
# From -- ./inp_files/8240.got.cif
#   From: 2010.03.12/outbox.cif.g09.slc.cpg/sg63_5_cif.got.tgz:8240.got - 2010.04.10 19:34:48.
