data_PCOD8256990
_publ_section_title
;
Structure prediction by ZEFSAII (Michael W. Deem and Ramdas Pophale) SiO2 
 PCOD8256990
Probable space group: C M C M
;
_chemical_formula_sum "Si O2"
_cell_formula_units_Z 96
_cell_length_a 9.307811
_cell_length_b 19.987143
_cell_length_c 29.166484
_cell_angle_alpha 90.000000
_cell_angle_beta 90.000000
_cell_angle_gamma 90.000000
_cell_volume 5426.032044
_symmetry_space_group_name_H-M "C M C M"
_symmetry_group_IT_number 63
_symmetry_cell_setting 'orthorhombic'
loop_
_space_group_symop_operation_xyz
x,y,z
-x,-y,1/2+z
x,-y,-z
-x,y,1/2-z
-x,-y,-z
x,y,1/2-z
-x,y,z
x,-y,1/2+z
1/2+x,1/2+y,z
1/2-x,1/2-y,1/2+z
1/2+x,1/2-y,-z
1/2-x,1/2+y,1/2-z
1/2-x,1/2-y,-z
1/2+x,1/2+y,1/2-z
1/2-x,1/2+y,z
1/2+x,1/2-y,1/2+z
loop_
_atom_site_type_symbol
_atom_site_label
_atom_site_fract_x
_atom_site_fract_y
_atom_site_fract_z
Si Si1 0.171533 0.887887 0.621346
Si Si2 0.329248 0.490700 0.801552
Si Si3 0.330212 0.432851 0.978585
Si Si4 0.332310 0.748804 0.628551
Si Si5 0.664619 0.302377 0.028842
Si Si6 0.329812 0.639568 0.698562
O O1 0.227810 0.937412 0.661356
O O2 0.226969 0.916934 0.572636
O O3 0.241549 0.816199 0.630106
O O4 0.000000 0.879686 0.621977
O O5 0.276070 0.471647 0.750000
O O6 0.500000 0.491232 0.802192
O O7 0.272798 0.565243 0.814886
O O8 0.500000 0.440891 0.975399
O O9 0.261228 0.500000 0.000000
O O10 0.283029 0.375701 0.014162
O O11 0.500000 0.766290 0.635945
O O12 0.307412 0.708228 0.582040
O O13 0.268472 0.698403 0.666670
O O14 0.500000 0.292734 0.015329
O O15 0.750000 0.250000 0.000000
O O16 0.281243 0.656646 0.750000
O O17 0.500000 0.638965 0.693752
#
# Coordination Sequence:
#
# PCOD8256990 Si02
#       6
#    16  16  16  16  16  16
#     4  10  19  31  49  71  96 124 155 193 238 280
#     4   8  15  28  47  71  95 119 153 198 239 273
#     4   9  18  30  46  70  94 118 154 197 233 270
#     4  10  20  31  48  72  97 126 158 192 231 280
#     4  10  19  32  49  69  96 126 156 191 233 279
#     4   8  15  29  48  71  97 123 156 197 238 278
#
# _framework density 17.692487
#
# number of rings (size 3 to 8) (size 9 to 14) (size 15 to 20)
#    0.000    2.833    1.667    1.000    2.333    0.667 
#    0.000    0.000    0.000    3.000    0.000    2.333 
#    0.000    0.000    0.000    0.000    0.000    0.000 
#
# Total GULP energy -594931.823652 kJ/mol
# GULP energy per Si atom -12394.412993 kJ/mol
# Density = 1.765222 g / cm^3
# Si number density = 17.692487 Si / 1000 Ang^3
#
#
#
# Elastic Constant Matrix: (Units=GPa)
#
#
# Indices 1 2 3 4 5 6 
#
# 1 18.8442 32.8641 26.7357 0.0000 0.0000 0.0000
# 2 32.8641 184.7327 108.1180 0.0000 0.0000 0.0000
# 3 26.7357 108.1180 140.8427 0.0000 0.0000 0.0000
# 4 0.0000 0.0000 0.0000 44.0591 0.0000 0.0000
# 5 0.0000 0.0000 0.0000 0.0000 12.9059 0.0000
# 6 0.0000 0.0000 0.0000 0.0000 0.0000 24.6543
#
#
#
# Elastic Compliance Matrix: (Units=1/GPa)
#
#
# Indices 1 2 3 4 5 6 
#
# 1 0.081485 -0.009884 -0.007881 0.000000 0.000000 0.000000
# 2 -0.009884 0.011028 -0.006590 0.000000 0.000000 0.000000
# 3 -0.007881 -0.006590 0.013655 0.000000 0.000000 0.000000
# 4 0.000000 0.000000 0.000000 0.022697 0.000000 0.000000
# 5 0.000000 0.000000 0.000000 0.000000 0.077484 0.000000
# 6 0.000000 0.000000 0.000000 0.000000 0.000000 0.040561
#
#
# Mechanical properties :
#
#
# Convention : Reuss Voigt Hill
#
# Bulk Modulus (GPa) = 17.40356 75.53947 46.47152
# Shear Modulus (GPa) = 15.88457 28.10399 21.99428
#
# Velocity S-wave (km/s) = 2.99961 3.98989 3.52965
# Velocity P-wave (km/s) = 4.67492 8.00088 6.55244
#
# Compressibility (1/GPa) = 0.05745951
#
# Stress axis : x y z
#
# Youngs Moduli (GPa) = 12.27219 90.67569 73.23542
#
# Poissons Ratio (x) = 0.89624 0.57713
# Poissons Ratio (y) = 0.12130 0.48260
# Poissons Ratio (z) = 0.09671 0.59752
#
# Static dielectric constant tensor:
#      x y z
#    x 2.768740 0.000000 0.000000 
#    y 0.000000 3.533700 0.000000 
#    z 0.000000 0.000000 3.557880 
# 
# 
# High freq. dielectric constant tensor:
#      x y z
#    x 1.622200 0.000000 0.000000 
#    y 0.000000 1.697550 0.000000 
#    z 0.000000 0.000000 1.697900 
# 
# From -- ./inp_files/61446.got.cif
#   From: 2010.03.12/outbox.cif.g09.slc.cpg/sg63_31_cif.got.tgz:61446.got - 2010.04.10 19:34:48.
