data_PCOD8256843
_publ_section_title
;
Structure prediction by ZEFSAII (Michael W. Deem and Ramdas Pophale) SiO2 
 PCOD8256843
Probable space group: C M C M
;
_chemical_formula_sum "Si O2"
_cell_formula_units_Z 96
_cell_length_a 23.965929
_cell_length_b 23.928640
_cell_length_c 9.652067
_cell_angle_alpha 90.000000
_cell_angle_beta 90.000000
_cell_angle_gamma 90.000000
_cell_volume 5535.191009
_symmetry_space_group_name_H-M "C M C M"
_symmetry_group_IT_number 63
_symmetry_cell_setting 'orthorhombic'
loop_
_space_group_symop_operation_xyz
x,y,z
-x,-y,1/2+z
x,-y,-z
-x,y,1/2-z
-x,-y,-z
x,y,1/2-z
-x,y,z
x,-y,1/2+z
1/2+x,1/2+y,z
1/2-x,1/2-y,1/2+z
1/2+x,1/2-y,-z
1/2-x,1/2+y,1/2-z
1/2-x,1/2-y,-z
1/2+x,1/2+y,1/2-z
1/2-x,1/2+y,z
1/2+x,1/2-y,1/2+z
loop_
_atom_site_type_symbol
_atom_site_label
_atom_site_fract_x
_atom_site_fract_y
_atom_site_fract_z
Si Si1 0.349527 0.271551 0.585620
Si Si2 0.759814 0.857035 0.905932
Si Si3 0.344388 0.855062 0.413174
Si Si4 0.854727 0.051585 0.404614
Si Si5 0.561820 0.357459 0.915251
Si Si6 0.435878 0.053771 0.589336
O O1 0.351045 0.275278 0.750000
O O2 0.291573 0.301143 0.537522
O O3 0.355256 0.208077 0.534098
O O4 0.402673 0.305246 0.525446
O O5 0.736861 0.846987 0.750000
O O6 0.802622 0.907504 0.905504
O O7 0.710122 0.875846 0.006648
O O8 0.332327 0.857048 0.250000
O O9 0.397189 0.893723 0.452159
O O10 0.865500 0.029170 0.250000
O O11 0.909206 0.084502 0.460251
O O12 0.840738 0.000000 0.500000
O O13 0.560171 0.354241 0.750000
O O14 0.500000 0.354897 0.979605
O O15 0.427769 0.038061 0.750000
O O16 0.500000 0.070667 0.558318
O O17 0.417987 0.000000 0.500000
#
# Coordination Sequence:
#
# PCOD8256843 Si02
#       6
#    16  16  16  16  16  16
#     4   8  15  28  45  67  95 122 148 184 228 270
#     4   9  18  32  47  65  94 127 153 181 224 275
#     4  10  19  30  49  75  94 113 150 192 225 265
#     4   9  18  31  46  66  92 122 156 191 226 266
#     4   8  14  26  45  68  93 121 152 186 226 271
#     4   9  19  35  51  68  93 121 148 184 229 272
#
# _framework density 17.343575000000001
#
# number of rings (size 3 to 8) (size 9 to 14) (size 15 to 20)
#    0.000    3.167    0.000    2.500    0.000    3.000 
#    0.000    6.667    0.000    1.000    0.000    0.000 
#    0.000    0.000    0.000    0.000    0.000    0.000 
#
# Total GULP energy -594957.938888 kJ/mol
# GULP energy per Si atom -12394.957060 kJ/mol
# Density = 1.730410 g / cm^3
# Si number density = 17.343575 Si / 1000 Ang^3
#
#
#
# Elastic Constant Matrix: (Units=GPa)
#
#
# Indices 1 2 3 4 5 6 
#
# 1 108.4405 50.4365 38.0561 0.0000 0.0000 0.0000
# 2 50.4365 101.5265 39.6614 0.0000 0.0000 0.0000
# 3 38.0561 39.6614 41.4722 0.0000 0.0000 0.0000
# 4 0.0000 0.0000 0.0000 23.5931 0.0000 0.0000
# 5 0.0000 0.0000 0.0000 0.0000 18.2998 0.0000
# 6 0.0000 0.0000 0.0000 0.0000 0.0000 21.1131
#
#
#
# Elastic Compliance Matrix: (Units=1/GPa)
#
#
# Indices 1 2 3 4 5 6 
#
# 1 0.014201 -0.003136 -0.010032 0.000000 0.000000 0.000000
# 2 -0.003136 0.016416 -0.012822 0.000000 0.000000 0.000000
# 3 -0.010032 -0.012822 0.045581 0.000000 0.000000 0.000000
# 4 0.000000 0.000000 0.000000 0.042385 0.000000 0.000000
# 5 0.000000 0.000000 0.000000 0.000000 0.054645 0.000000
# 6 0.000000 0.000000 0.000000 0.000000 0.000000 0.047364
#
#
# Mechanical properties :
#
#
# Convention : Reuss Voigt Hill
#
# Bulk Modulus (GPa) = 41.29223 56.41635 48.85429
# Shear Modulus (GPa) = 17.81604 20.82021 19.31812
#
# Velocity S-wave (km/s) = 3.20854 3.46852 3.34106
# Velocity P-wave (km/s) = 6.13077 6.97425 6.56607
#
# Compressibility (1/GPa) = 0.02421763
#
# Stress axis : x y z
#
# Youngs Moduli (GPa) = 70.41874 60.91475 21.93893
#
# Poissons Ratio (x) = 0.19100 0.22010
# Poissons Ratio (y) = 0.22080 0.28131
# Poissons Ratio (z) = 0.70647 0.78107
#
# Static dielectric constant tensor:
#      x y z
#    x 3.404780 0.000000 0.000000 
#    y 0.000000 3.309460 0.000000 
#    z 0.000000 0.000000 2.928770 
# 
# 
# High freq. dielectric constant tensor:
#      x y z
#    x 1.672630 0.000000 0.000000 
#    y 0.000000 1.671490 0.000000 
#    z 0.000000 0.000000 1.632420 
# 
# From -- ./inp_files/10484.got.cif
#   From: 2010.03.12/outbox.cif.g09.slc.cpg/sg63_6_cif.got.tgz:10484.got - 2010.04.10 19:34:48.
