data_PCOD8256097
_publ_section_title
;
Structure prediction by ZEFSAII (Michael W. Deem and Ramdas Pophale) SiO2 
 PCOD8256097
Probable space group: C M C M
;
_chemical_formula_sum "Si O2"
_cell_formula_units_Z 80
_cell_length_a 22.148844
_cell_length_b 9.366572
_cell_length_c 17.666525
_cell_angle_alpha 90.000000
_cell_angle_beta 90.000000
_cell_angle_gamma 90.000000
_cell_volume 3665.075053
_symmetry_space_group_name_H-M "C M C M"
_symmetry_group_IT_number 63
_symmetry_cell_setting 'orthorhombic'
loop_
_space_group_symop_operation_xyz
x,y,z
-x,-y,1/2+z
x,-y,-z
-x,y,1/2-z
-x,-y,-z
x,y,1/2-z
-x,y,z
x,-y,1/2+z
1/2+x,1/2+y,z
1/2-x,1/2-y,1/2+z
1/2+x,1/2-y,-z
1/2-x,1/2+y,1/2-z
1/2-x,1/2-y,-z
1/2+x,1/2+y,1/2-z
1/2-x,1/2+y,z
1/2+x,1/2-y,1/2+z
loop_
_atom_site_type_symbol
_atom_site_label
_atom_site_fract_x
_atom_site_fract_y
_atom_site_fract_z
Si Si1 0.568520 0.951128 0.418699
Si Si2 0.679355 0.865906 0.336579
Si Si3 0.000000 0.159696 0.028747
Si Si4 0.913978 0.243092 0.595445
Si Si5 0.207200 0.690272 0.161780
Si Si6 0.000000 0.018655 0.836676
O O1 0.500000 0.878650 0.422240
O O2 0.616475 0.844123 0.381432
O O3 0.564718 0.101024 0.371982
O O4 0.593129 0.000000 0.500000
O O5 0.662800 0.841062 0.250000
O O6 0.707786 0.021281 0.351114
O O7 0.727747 0.749208 0.363973
O O8 0.938634 0.233541 0.992828
O O9 0.000000 0.134465 0.119510
O O10 0.000000 0.000000 0.000000
O O11 0.841915 0.234858 0.606474
O O12 0.941772 0.115285 0.644055
O O13 0.194142 0.729015 0.250000
O O14 0.000000 0.974991 0.750000
#
# Coordination Sequence:
#
# PCOD8256097 Si02
#       6
#    16  16   8  16  16   8
#     4  10  19  34  55  80 108 143 183 234 282 326
#     4   9  19  35  55  82 112 147 189 233 285 336
#     4   8  16  30  46  73 105 135 171 220 271 318
#     4   9  16  32  53  78 103 143 182 221 280 329
#     4   9  17  32  54  80 113 147 185 232 283 337
#     4  10  18  30  50  79 106 133 179 230 277 326
#
# _framework density 21.827655
#
# number of rings (size 3 to 8) (size 9 to 14) (size 15 to 20)
#    0.000    3.000    2.000    0.600    0.000    1.200 
#    0.000   13.000    0.000    3.600    0.000    0.000 
#    0.000    0.000    0.000    0.000    0.000    0.000 
#
# Total GULP energy -495690.900619 kJ/mol
# GULP energy per Si atom -12392.272515 kJ/mol
# Density = 2.177797 g / cm^3
# Si number density = 21.827655 Si / 1000 Ang^3
#
#
#
# Elastic Constant Matrix: (Units=GPa)
#
#
# Indices 1 2 3 4 5 6 
#
# 1 161.8420 30.5082 59.5605 0.0000 0.0000 0.0000
# 2 30.5082 60.3697 20.9296 0.0000 0.0000 0.0000
# 3 59.5605 20.9296 102.8756 0.0000 0.0000 0.0000
# 4 0.0000 0.0000 0.0000 23.4847 0.0000 0.0000
# 5 0.0000 0.0000 0.0000 0.0000 41.2721 0.0000
# 6 0.0000 0.0000 0.0000 0.0000 0.0000 39.7772
#
#
#
# Elastic Compliance Matrix: (Units=1/GPa)
#
#
# Indices 1 2 3 4 5 6 
#
# 1 0.008242 -0.002701 -0.004222 0.000000 0.000000 0.000000
# 2 -0.002701 0.018707 -0.002242 0.000000 0.000000 0.000000
# 3 -0.004222 -0.002242 0.012621 0.000000 0.000000 0.000000
# 4 0.000000 0.000000 0.000000 0.042581 0.000000 0.000000
# 5 0.000000 0.000000 0.000000 0.000000 0.024229 0.000000
# 6 0.000000 0.000000 0.000000 0.000000 0.000000 0.025140
#
#
# Mechanical properties :
#
#
# Convention : Reuss Voigt Hill
#
# Bulk Modulus (GPa) = 47.08281 60.78711 53.93496
# Shear Modulus (GPa) = 31.86121 35.17941 33.52031
#
# Velocity S-wave (km/s) = 3.82471 4.01894 3.92303
# Velocity P-wave (km/s) = 6.41261 7.03171 6.72929
#
# Compressibility (1/GPa) = 0.02123917
#
# Stress axis : x y z
#
# Youngs Moduli (GPa) = 121.33140 53.45595 79.23299
#
# Poissons Ratio (x) = 0.14440 0.33453
# Poissons Ratio (y) = 0.32776 0.17763
# Poissons Ratio (z) = 0.51228 0.11984
#
# Static dielectric constant tensor:
#      x y z
#    x 3.962280 0.000000 0.000000 
#    y 0.000000 4.826360 0.000000 
#    z 0.000000 0.000000 4.184310 
# 
# 
# High freq. dielectric constant tensor:
#      x y z
#    x 1.845930 0.000000 0.000000 
#    y 0.000000 1.874710 0.000000 
#    z 0.000000 0.000000 1.836380 
# 
# From -- ./inp_files/46850.got.cif
#   From: 2010.03.12/outbox.cif.g09.slc.cpg/sg63_24_cif.got.tgz:46850.got - 2010.04.10 19:34:48.
