data_PCOD8256487
_publ_section_title
;
Structure prediction by ZEFSAII (Michael W. Deem and Ramdas Pophale) SiO2 
 PCOD8256487
Probable space group: C M C M
;
_chemical_formula_sum "Si O2"
_cell_formula_units_Z 104
_cell_length_a 28.730821
_cell_length_b 13.216462
_cell_length_c 14.926894
_cell_angle_alpha 90.000000
_cell_angle_beta 90.000000
_cell_angle_gamma 90.000000
_cell_volume 5668.037264
_symmetry_space_group_name_H-M "C M C M"
_symmetry_group_IT_number 63
_symmetry_cell_setting 'orthorhombic'
loop_
_space_group_symop_operation_xyz
x,y,z
-x,-y,1/2+z
x,-y,-z
-x,y,1/2-z
-x,-y,-z
x,y,1/2-z
-x,y,z
x,-y,1/2+z
1/2+x,1/2+y,z
1/2-x,1/2-y,1/2+z
1/2+x,1/2-y,-z
1/2-x,1/2+y,1/2-z
1/2-x,1/2-y,-z
1/2+x,1/2+y,1/2-z
1/2-x,1/2+y,z
1/2+x,1/2-y,1/2+z
loop_
_atom_site_type_symbol
_atom_site_label
_atom_site_fract_x
_atom_site_fract_y
_atom_site_fract_z
Si Si1 0.000000 0.214163 0.849717
Si Si2 0.225448 0.408355 0.145668
Si Si3 0.900873 0.159089 0.853884
Si Si4 0.832038 0.215245 0.354655
Si Si5 0.177322 0.991029 0.354997
Si Si6 0.336830 0.000000 0.000000
Si Si7 0.500000 0.122331 0.495881
Si Si8 0.100983 0.310282 0.011178
O O1 0.043921 0.139989 0.867227
O O2 0.000000 0.323091 0.899090
O O3 0.000000 0.255407 0.750000
O O4 0.218316 0.436097 0.250000
O O5 0.210908 0.291870 0.126788
O O6 0.278922 0.422634 0.114480
O O7 0.194422 0.485648 0.088530
O O8 0.888902 0.186921 0.750000
O O9 0.870882 0.061842 0.885081
O O10 0.890149 0.250467 0.919627
O O11 0.844069 0.210671 0.250000
O O12 0.878625 0.252622 0.403177
O O13 0.819062 0.104659 0.394795
O O14 0.178510 0.002915 0.250000
O O15 0.370678 0.907982 0.985178
O O16 0.452239 0.163720 0.540199
O O17 0.500000 0.000000 0.500000
#
# Coordination Sequence:
#
# PCOD8256487 Si02
#       8
#     8  16  16  16  16   8   8  16
#     4   8  16  32  51  75 103 129 163 210 259 300
#     4   9  19  34  51  73 102 135 171 211 254 301
#     4   9  18  32  52  77 102 129 168 213 256 305
#     4   9  19  36  53  72 104 137 170 212 252 301
#     4   9  18  34  55  77 103 139 174 209 257 302
#     4  10  20  33  50  74 102 135 172 208 258 306
#     4  10  18  34  55  73 103 135 165 212 258 304
#     4  10  20  34  53  76 102 136 170 209 260 304
#
# _framework density 18.348503999999998
#
# number of rings (size 3 to 8) (size 9 to 14) (size 15 to 20)
#    0.000    2.769    0.769    0.000    0.000    3.692 
#    0.000    8.077    0.000    4.615    0.000    0.000 
#    0.000    0.000    0.000    0.000    0.000    0.000 
#
# Total GULP energy -644217.707230 kJ/mol
# GULP energy per Si atom -12388.802062 kJ/mol
# Density = 1.830674 g / cm^3
# Si number density = 18.348504 Si / 1000 Ang^3
#
#
#
# Elastic Constant Matrix: (Units=GPa)
#
#
# Indices 1 2 3 4 5 6 
#
# 1 159.9311 97.0704 48.0029 0.0000 0.0000 0.0000
# 2 97.0704 130.1653 41.1098 0.0000 0.0000 0.0000
# 3 48.0029 41.1098 57.0298 0.0000 0.0000 0.0000
# 4 0.0000 0.0000 0.0000 20.3548 0.0000 0.0000
# 5 0.0000 0.0000 0.0000 0.0000 24.2815 0.0000
# 6 0.0000 0.0000 0.0000 0.0000 0.0000 20.6260
#
#
#
# Elastic Compliance Matrix: (Units=1/GPa)
#
#
# Indices 1 2 3 4 5 6 
#
# 1 0.012390 -0.007699 -0.004879 0.000000 0.000000 0.000000
# 2 -0.007699 0.014731 -0.004139 0.000000 0.000000 0.000000
# 3 -0.004879 -0.004139 0.024625 0.000000 0.000000 0.000000
# 4 0.000000 0.000000 0.000000 0.049128 0.000000 0.000000
# 5 0.000000 0.000000 0.000000 0.000000 0.041184 0.000000
# 6 0.000000 0.000000 0.000000 0.000000 0.000000 0.048483
#
#
# Mechanical properties :
#
#
# Convention : Reuss Voigt Hill
#
# Bulk Modulus (GPa) = 54.60693 79.94359 67.27526
# Shear Modulus (GPa) = 21.73178 23.78199 22.75688
#
# Velocity S-wave (km/s) = 3.44523 3.60408 3.52555
# Velocity P-wave (km/s) = 6.75661 7.80918 7.30189
#
# Compressibility (1/GPa) = 0.01831269
#
# Stress axis : x y z
#
# Youngs Moduli (GPa) = 80.71049 67.88415 40.60933
#
# Poissons Ratio (x) = 0.52263 0.19814
# Poissons Ratio (y) = 0.62137 0.16807
# Poissons Ratio (z) = 0.39380 0.28094
#
# Static dielectric constant tensor:
#      x y z
#    x 3.734040 0.000000 0.000000 
#    y 0.000000 3.500610 0.000000 
#    z 0.000000 0.000000 3.290810 
# 
# 
# High freq. dielectric constant tensor:
#      x y z
#    x 1.720300 0.000000 0.000000 
#    y 0.000000 1.705370 0.000000 
#    z 0.000000 0.000000 1.703350 
# 
# From -- ./inp_files/49066.got.cif
#   From: 2010.03.12/outbox.cif.g09.slc.cpg/sg63_25_cif.got.tgz:49066.got - 2010.04.10 19:34:48.
