data_PCOD8256916
_publ_section_title
;
Structure prediction by ZEFSAII (Michael W. Deem and Ramdas Pophale) SiO2 
 PCOD8256916
Probable space group: C M C M
;
_chemical_formula_sum "Si O2"
_cell_formula_units_Z 80
_cell_length_a 24.370882
_cell_length_b 23.488625
_cell_length_c 8.794628
_cell_angle_alpha 90.000000
_cell_angle_beta 90.000000
_cell_angle_gamma 90.000000
_cell_volume 5034.383733
_symmetry_space_group_name_H-M "C M C M"
_symmetry_group_IT_number 63
_symmetry_cell_setting 'orthorhombic'
loop_
_space_group_symop_operation_xyz
x,y,z
-x,-y,1/2+z
x,-y,-z
-x,y,1/2-z
-x,-y,-z
x,y,1/2-z
-x,y,z
x,-y,1/2+z
1/2+x,1/2+y,z
1/2-x,1/2-y,1/2+z
1/2+x,1/2-y,-z
1/2-x,1/2+y,1/2-z
1/2-x,1/2-y,-z
1/2+x,1/2+y,1/2-z
1/2-x,1/2+y,z
1/2+x,1/2-y,1/2+z
loop_
_atom_site_type_symbol
_atom_site_label
_atom_site_fract_x
_atom_site_fract_y
_atom_site_fract_z
Si Si1 0.059924 0.230556 0.076053
Si Si2 0.938015 0.888965 0.427200
Si Si3 0.333916 0.558883 0.428619
Si Si4 0.272371 0.339436 0.425409
Si Si5 0.825839 0.733194 0.575755
O O1 0.061425 0.208867 0.250000
O O2 0.108693 0.276534 0.048714
O O3 0.000000 0.257934 0.039118
O O4 0.070963 0.176610 0.970132
O O5 0.925751 0.895822 0.250000
O O6 0.895660 0.928124 0.517291
O O7 0.000000 0.908244 0.468019
O O8 0.313341 0.500000 0.500000
O O9 0.334259 0.552840 0.250000
O O10 0.290648 0.607372 0.474634
O O11 0.282747 0.354699 0.250000
O O12 0.208045 0.324699 0.458616
O O13 0.307302 0.283751 0.465936
O O14 0.814240 0.751885 0.750000
#
# Coordination Sequence:
#
# PCOD8256916 Si02
#       5
#    16  16  16  16  16
#     4   9  16  27  45  69  96 125 155 188 226 269
#     4  10  20  33  48  67  91 120 156 196 235 273
#     4  12  24  37  51  66  88 119 158 199 241 280
#     4  10  19  31  47  68  93 121 156 193 232 275
#     4   9  17  29  47  70  95 124 154 188 229 277
#
# _framework density 15.890722999999999
#
# number of rings (size 3 to 8) (size 9 to 14) (size 15 to 20)
#    0.000    2.000    2.000    3.000    0.000    2.400 
#    0.000    0.000    0.000    0.000    0.000    0.000 
#    0.000    0.800    0.000    1.400    0.000    2.000 
#
# Total GULP energy -495811.911634 kJ/mol
# GULP energy per Si atom -12395.297791 kJ/mol
# Density = 1.585456 g / cm^3
# Si number density = 15.890723 Si / 1000 Ang^3
#
#
#
# Elastic Constant Matrix: (Units=GPa)
#
#
# Indices 1 2 3 4 5 6 
#
# 1 109.6604 50.2631 34.4968 0.0000 0.0000 0.0000
# 2 50.2631 68.4775 35.8970 0.0000 0.0000 0.0000
# 3 34.4968 35.8970 91.4266 0.0000 0.0000 0.0000
# 4 0.0000 0.0000 0.0000 21.7025 0.0000 0.0000
# 5 0.0000 0.0000 0.0000 0.0000 19.2828 0.0000
# 6 0.0000 0.0000 0.0000 0.0000 0.0000 18.0314
#
#
#
# Elastic Compliance Matrix: (Units=1/GPa)
#
#
# Indices 1 2 3 4 5 6 
#
# 1 0.013917 -0.009397 -0.001562 0.000000 0.000000 0.000000
# 2 -0.009397 0.024733 -0.006165 0.000000 0.000000 0.000000
# 3 -0.001562 -0.006165 0.013948 0.000000 0.000000 0.000000
# 4 0.000000 0.000000 0.000000 0.046078 0.000000 0.000000
# 5 0.000000 0.000000 0.000000 0.000000 0.051860 0.000000
# 6 0.000000 0.000000 0.000000 0.000000 0.000000 0.055459
#
#
# Mechanical properties :
#
#
# Convention : Reuss Voigt Hill
#
# Bulk Modulus (GPa) = 54.49577 56.76426 55.63001
# Shear Modulus (GPa) = 20.29564 21.73050 21.01307
#
# Velocity S-wave (km/s) = 3.57767 3.70198 3.64036
# Velocity P-wave (km/s) = 7.17181 7.35337 7.26316
#
# Compressibility (1/GPa) = 0.01835005
#
# Stress axis : x y z
#
# Youngs Moduli (GPa) = 71.85238 40.43251 71.69645
#
# Poissons Ratio (x) = 0.37994 0.11198
# Poissons Ratio (y) = 0.67518 0.44202
# Poissons Ratio (z) = 0.11222 0.24928
#
# Static dielectric constant tensor:
#      x y z
#    x 3.419350 0.000000 0.000000 
#    y 0.000000 2.723570 0.000000 
#    z 0.000000 0.000000 3.122980 
# 
# 
# High freq. dielectric constant tensor:
#      x y z
#    x 1.617060 0.000000 0.000000 
#    y 0.000000 1.558010 0.000000 
#    z 0.000000 0.000000 1.624620 
# 
# From -- ./inp_files/12069.got.cif
#   From: 2010.03.12/outbox.cif.g09.slc.cpg/sg63_7_cif.got.tgz:12069.got - 2010.04.10 19:34:48.
