data_PCOD8256087
_publ_section_title
;
Structure prediction by ZEFSAII (Michael W. Deem and Ramdas Pophale) SiO2 
 PCOD8256087
Probable space group: C M C M
;
_chemical_formula_sum "Si O2"
_cell_formula_units_Z 112
_cell_length_a 12.489015
_cell_length_b 22.642667
_cell_length_c 23.639863
_cell_angle_alpha 90.000000
_cell_angle_beta 90.000000
_cell_angle_gamma 90.000000
_cell_volume 6684.989387
_symmetry_space_group_name_H-M "C M C M"
_symmetry_group_IT_number 63
_symmetry_cell_setting 'orthorhombic'
loop_
_space_group_symop_operation_xyz
x,y,z
-x,-y,1/2+z
x,-y,-z
-x,y,1/2-z
-x,-y,-z
x,y,1/2-z
-x,y,z
x,-y,1/2+z
1/2+x,1/2+y,z
1/2-x,1/2-y,1/2+z
1/2+x,1/2-y,-z
1/2-x,1/2+y,1/2-z
1/2-x,1/2-y,-z
1/2+x,1/2+y,1/2-z
1/2-x,1/2+y,z
1/2+x,1/2-y,1/2+z
loop_
_atom_site_type_symbol
_atom_site_label
_atom_site_fract_x
_atom_site_fract_y
_atom_site_fract_z
Si Si1 0.759712 0.239001 0.586116
Si Si2 0.127231 0.537286 0.812333
Si Si3 0.125721 0.622822 0.592193
Si Si4 0.624207 0.797954 0.685214
Si Si5 0.743864 0.932333 0.991653
Si Si6 0.875902 0.820437 0.988097
Si Si7 0.875676 0.421181 0.874749
O O1 0.674489 0.187242 0.590488
O O2 0.809120 0.251994 0.647429
O O3 0.854583 0.219921 0.543426
O O4 0.697768 0.296514 0.562981
O O5 0.176794 0.546157 0.750000
O O6 0.169002 0.590149 0.851767
O O7 0.166601 0.475051 0.836873
O O8 0.000000 0.537401 0.809598
O O9 0.155054 0.583096 0.538325
O O10 0.000000 0.630536 0.593240
O O11 0.664361 0.794114 0.750000
O O12 0.500000 0.780950 0.681170
O O13 0.644215 0.863291 0.662127
O O14 0.845604 0.888910 0.999548
O O15 0.692646 0.919968 0.931250
O O16 0.781401 0.000000 0.000000
O O17 0.000000 0.816206 0.971811
O O18 0.000000 0.428530 0.891218
#
# Coordination Sequence:
#
# PCOD8256087 Si02
#       7
#    16  16  16  16  16  16  16
#     4  10  20  35  53  76 101 138 174 207 254 307
#     4   9  17  29  45  68 100 134 163 199 252 306
#     4  10  20  31  48  76 107 135 168 209 257 311
#     4  10  20  34  54  80 106 133 170 213 253 298
#     4  11  20  32  52  78 102 130 171 211 263 311
#     4  10  21  36  53  74 104 136 170 213 257 303
#     4  10  18  30  50  76 104 131 163 208 259 307
#
# _framework density 16.753952999999999
#
# number of rings (size 3 to 8) (size 9 to 14) (size 15 to 20)
#    0.000    2.000    2.857    1.714    0.000    3.143 
#    0.000    0.000    0.000    1.286    0.000    0.000 
#    0.000    1.429    0.000    0.000    0.000    0.000 
#
# Total GULP energy -694423.818629 kJ/mol
# GULP energy per Si atom -12400.425333 kJ/mol
# Density = 1.671582 g / cm^3
# Si number density = 16.753953 Si / 1000 Ang^3
#
#
#
# Elastic Constant Matrix: (Units=GPa)
#
#
# Indices 1 2 3 4 5 6 
#
# 1 50.4420 29.2730 31.3135 0.0000 0.0000 0.0000
# 2 29.2730 95.5307 32.8390 0.0000 0.0000 0.0000
# 3 31.3135 32.8390 134.3671 0.0000 0.0000 0.0000
# 4 0.0000 0.0000 0.0000 24.8238 0.0000 0.0000
# 5 0.0000 0.0000 0.0000 0.0000 20.1000 0.0000
# 6 0.0000 0.0000 0.0000 0.0000 0.0000 12.4785
#
#
#
# Elastic Compliance Matrix: (Units=1/GPa)
#
#
# Indices 1 2 3 4 5 6 
#
# 1 0.026453 -0.006536 -0.004567 0.000000 0.000000 0.000000
# 2 -0.006536 0.013043 -0.001664 0.000000 0.000000 0.000000
# 3 -0.004567 -0.001664 0.008913 0.000000 0.000000 0.000000
# 4 0.000000 0.000000 0.000000 0.040284 0.000000 0.000000
# 5 0.000000 0.000000 0.000000 0.000000 0.049751 0.000000
# 6 0.000000 0.000000 0.000000 0.000000 0.000000 0.080138
#
#
# Mechanical properties :
#
#
# Convention : Reuss Voigt Hill
#
# Bulk Modulus (GPa) = 43.71793 51.91006 47.81399
# Shear Modulus (GPa) = 19.86155 23.94139 21.90147
#
# Velocity S-wave (km/s) = 3.44682 3.78431 3.61950
# Velocity P-wave (km/s) = 6.48009 7.08136 6.78739
#
# Compressibility (1/GPa) = 0.02287391
#
# Stress axis : x y z
#
# Youngs Moduli (GPa) = 37.80286 76.67097 112.18938
#
# Poissons Ratio (x) = 0.50111 0.51241
# Poissons Ratio (y) = 0.24707 0.18674
# Poissons Ratio (z) = 0.17266 0.12762
#
# Static dielectric constant tensor:
#      x y z
#    x 2.779810 0.000000 0.000000 
#    y 0.000000 3.241030 0.000000 
#    z 0.000000 0.000000 3.388780 
# 
# 
# High freq. dielectric constant tensor:
#      x y z
#    x 1.609490 0.000000 0.000000 
#    y 0.000000 1.657320 0.000000 
#    z 0.000000 0.000000 1.652650 
# 
# From -- ./inp_files/53194.got.cif
#   From: 2010.03.12/outbox.cif.g09.slc.cpg/sg63_27_cif.got.tgz:53194.got - 2010.04.10 19:34:48.
