data_PCOD8256640
_publ_section_title
;
Structure prediction by ZEFSAII (Michael W. Deem and Ramdas Pophale) SiO2 
 PCOD8256640
Probable space group: C M C M
;
_chemical_formula_sum "Si O2"
_cell_formula_units_Z 80
_cell_length_a 25.330759
_cell_length_b 11.111785
_cell_length_c 13.905229
_cell_angle_alpha 90.000000
_cell_angle_beta 90.000000
_cell_angle_gamma 90.000000
_cell_volume 3913.904082
_symmetry_space_group_name_H-M "C M C M"
_symmetry_group_IT_number 63
_symmetry_cell_setting 'orthorhombic'
loop_
_space_group_symop_operation_xyz
x,y,z
-x,-y,1/2+z
x,-y,-z
-x,y,1/2-z
-x,-y,-z
x,y,1/2-z
-x,y,z
x,-y,1/2+z
1/2+x,1/2+y,z
1/2-x,1/2-y,1/2+z
1/2+x,1/2-y,-z
1/2-x,1/2+y,1/2-z
1/2-x,1/2-y,-z
1/2+x,1/2+y,1/2-z
1/2-x,1/2+y,z
1/2+x,1/2-y,1/2+z
loop_
_atom_site_type_symbol
_atom_site_label
_atom_site_fract_x
_atom_site_fract_y
_atom_site_fract_z
Si Si1 0.940073 0.857778 0.513579
Si Si2 0.785358 0.024797 0.143000
Si Si3 0.792874 0.348444 0.525865
Si Si4 0.360745 0.686422 0.639624
Si Si5 0.354347 0.242277 0.857862
O O1 0.915690 0.803019 0.416523
O O2 0.907884 0.806536 0.605100
O O3 0.000000 0.813540 0.525549
O O4 0.936939 0.000000 0.500000
O O5 0.767672 0.982217 0.250000
O O6 0.734991 0.029271 0.069604
O O7 0.809739 0.156397 0.148288
O O8 0.827128 0.928813 0.101228
O O9 0.750000 0.250000 0.500000
O O10 0.826455 0.303921 0.617604
O O11 0.832629 0.360210 0.432832
O O12 0.375131 0.674001 0.750000
O O13 0.363950 0.189186 0.750000
#
# Coordination Sequence:
#
# PCOD8256640 Si02
#       5
#    16  16  16  16  16
#     4  10  19  29  43  63  88 121 161 197 230 270
#     4   9  16  28  45  64  87 117 154 193 233 275
#     4   9  18  28  45  63  87 117 157 196 231 277
#     4  10  19  31  47  66  92 125 159 195 234 278
#     4   9  17  29  42  59  83 116 154 191 228 271
#
# _framework density 20.43995
#
# number of rings (size 3 to 8) (size 9 to 14) (size 15 to 20)
#    0.000    2.600    2.000    0.600    0.000    1.600 
#    0.000    2.000    0.000    1.200    0.000    0.000 
#    0.000    0.000    0.000  136.800    0.000  566.000 
#
# Total GULP energy -495537.510509 kJ/mol
# GULP energy per Si atom -12388.437763 kJ/mol
# Density = 2.039343 g / cm^3
# Si number density = 20.439950 Si / 1000 Ang^3
#
#
#
# Elastic Constant Matrix: (Units=GPa)
#
#
# Indices 1 2 3 4 5 6 
#
# 1 119.3717 14.6013 64.6338 0.0000 0.0000 0.0000
# 2 14.6013 18.4627 17.3545 0.0000 0.0000 0.0000
# 3 64.6338 17.3545 134.5116 0.0000 0.0000 0.0000
# 4 0.0000 0.0000 0.0000 22.1694 0.0000 0.0000
# 5 0.0000 0.0000 0.0000 0.0000 20.4954 0.0000
# 6 0.0000 0.0000 0.0000 0.0000 0.0000 22.1767
#
#
#
# Elastic Compliance Matrix: (Units=1/GPa)
#
#
# Indices 1 2 3 4 5 6 
#
# 1 0.011642 -0.004494 -0.005014 0.000000 0.000000 0.000000
# 2 -0.004494 0.063373 -0.006017 0.000000 0.000000 0.000000
# 3 -0.005014 -0.006017 0.010620 0.000000 0.000000 0.000000
# 4 0.000000 0.000000 0.000000 0.045107 0.000000 0.000000
# 5 0.000000 0.000000 0.000000 0.000000 0.048791 0.000000
# 6 0.000000 0.000000 0.000000 0.000000 0.000000 0.045092
#
#
# Mechanical properties :
#
#
# Convention : Reuss Voigt Hill
#
# Bulk Modulus (GPa) = 18.32009 51.72501 35.02255
# Shear Modulus (GPa) = 18.25680 24.68540 21.47110
#
# Velocity S-wave (km/s) = 2.99187 3.47897 3.24458
# Velocity P-wave (km/s) = 4.57356 6.44193 5.58641
#
# Compressibility (1/GPa) = 0.05458489
#
# Stress axis : x y z
#
# Youngs Moduli (GPa) = 85.89737 15.77958 94.16231
#
# Poissons Ratio (x) = 0.07091 0.47215
# Poissons Ratio (y) = 0.38600 0.56657
# Poissons Ratio (z) = 0.43071 0.09495
#
# Static dielectric constant tensor:
#      x y z
#    x 3.730490 0.000000 0.000000 
#    y 0.000000 3.618730 0.000000 
#    z 0.000000 0.000000 4.283390 
# 
# 
# High freq. dielectric constant tensor:
#      x y z
#    x 1.770990 0.000000 0.000000 
#    y 0.000000 1.762500 0.000000 
#    z 0.000000 0.000000 1.824090 
# 
# From -- ./inp_files/36445.got.cif
#   From: 2010.03.12/outbox.cif.g09.slc.cpg/sg63_19_cif.got.tgz:36445.got - 2010.04.10 19:34:48.
