data_PCOD8256647
_publ_section_title
;
Structure prediction by ZEFSAII (Michael W. Deem and Ramdas Pophale) SiO2 
 PCOD8256647
Probable space group: C M C M
;
_chemical_formula_sum "Si O2"
_cell_formula_units_Z 96
_cell_length_a 25.780940
_cell_length_b 22.683580
_cell_length_c 8.911364
_cell_angle_alpha 90.000000
_cell_angle_beta 90.000000
_cell_angle_gamma 90.000000
_cell_volume 5211.401446
_symmetry_space_group_name_H-M "C M C M"
_symmetry_group_IT_number 63
_symmetry_cell_setting 'orthorhombic'
loop_
_space_group_symop_operation_xyz
x,y,z
-x,-y,1/2+z
x,-y,-z
-x,y,1/2-z
-x,-y,-z
x,y,1/2-z
-x,y,z
x,-y,1/2+z
1/2+x,1/2+y,z
1/2-x,1/2-y,1/2+z
1/2+x,1/2-y,-z
1/2-x,1/2+y,1/2-z
1/2-x,1/2-y,-z
1/2+x,1/2+y,1/2-z
1/2-x,1/2+y,z
1/2+x,1/2-y,1/2+z
loop_
_atom_site_type_symbol
_atom_site_label
_atom_site_fract_x
_atom_site_fract_y
_atom_site_fract_z
Si Si1 0.645698 0.145692 0.585231
Si Si2 0.699707 0.267248 0.585091
Si Si3 0.385547 0.329580 0.425496
Si Si4 0.152741 0.938028 0.574298
Si Si5 0.727925 0.062080 0.426272
Si Si6 0.559395 0.788900 0.926585
O O1 0.636513 0.116155 0.750000
O O2 0.665872 0.210510 0.612901
O O3 0.687352 0.109470 0.489685
O O4 0.591184 0.156613 0.499406
O O5 0.710358 0.296914 0.750000
O O6 0.750000 0.250000 0.500000
O O7 0.672353 0.311438 0.471214
O O8 0.390614 0.341268 0.250000
O O9 0.390618 0.392005 0.511419
O O10 0.424587 0.277643 0.479647
O O11 0.144662 0.943992 0.750000
O O12 0.212622 0.919716 0.536042
O O13 0.139625 0.000000 0.500000
O O14 0.719074 0.056717 0.250000
O O15 0.714055 0.000000 0.500000
O O16 0.569148 0.792588 0.750000
O O17 0.500000 0.798495 0.971906
#
# Coordination Sequence:
#
# PCOD8256647 Si02
#       6
#    16  16  16  16  16  16
#     4  10  20  32  48  72 100 129 163 203 246 294
#     4  10  19  29  43  66  97 130 162 198 241 291
#     4  10  19  31  49  72  98 128 163 204 249 297
#     4  10  20  33  50  73 103 138 173 206 242 288
#     4  10  20  33  50  72 101 137 172 204 239 285
#     4   9  19  36  56  76  98 127 164 207 256 305
#
# _framework density 18.421147999999999
#
# number of rings (size 3 to 8) (size 9 to 14) (size 15 to 20)
#    0.000    2.167    0.000    3.500    0.000    7.667 
#    0.000    0.000    0.000    1.000    0.000    0.000 
#    0.000    0.000    0.000    0.000    0.000    0.000 
#
# Total GULP energy -594733.404567 kJ/mol
# GULP energy per Si atom -12390.279262 kJ/mol
# Density = 1.837922 g / cm^3
# Si number density = 18.421148 Si / 1000 Ang^3
#
#
#
# Elastic Constant Matrix: (Units=GPa)
#
#
# Indices 1 2 3 4 5 6 
#
# 1 33.4672 -8.2400 11.8242 0.0000 0.0000 0.0000
# 2 -8.2400 50.5184 20.5859 0.0000 0.0000 0.0000
# 3 11.8242 20.5859 83.5566 0.0000 0.0000 0.0000
# 4 0.0000 0.0000 0.0000 34.4561 0.0000 0.0000
# 5 0.0000 0.0000 0.0000 0.0000 19.5382 0.0000
# 6 0.0000 0.0000 0.0000 0.0000 0.0000 23.3537
#
#
#
# Elastic Compliance Matrix: (Units=1/GPa)
#
#
# Indices 1 2 3 4 5 6 
#
# 1 0.034415 0.008446 -0.006951 0.000000 0.000000 0.000000
# 2 0.008446 0.024077 -0.007127 0.000000 0.000000 0.000000
# 3 -0.006951 -0.007127 0.014707 0.000000 0.000000 0.000000
# 4 0.000000 0.000000 0.000000 0.029022 0.000000 0.000000
# 5 0.000000 0.000000 0.000000 0.000000 0.051182 0.000000
# 6 0.000000 0.000000 0.000000 0.000000 0.000000 0.042820
#
#
# Mechanical properties :
#
#
# Convention : Reuss Voigt Hill
#
# Bulk Modulus (GPa) = 16.14590 23.98696 20.06643
# Shear Modulus (GPa) = 21.91709 25.02773 23.47241
#
# Velocity S-wave (km/s) = 3.45306 3.68997 3.57348
# Velocity P-wave (km/s) = 4.96810 5.58608 5.28613
#
# Compressibility (1/GPa) = 0.06193524
#
# Stress axis : x y z
#
# Youngs Moduli (GPa) = 29.05684 41.53419 67.99269
#
# Poissons Ratio (x) = -0.35079 0.47262
# Poissons Ratio (y) = -0.24541 0.48458
# Poissons Ratio (z) = 0.20197 0.29601
#
# Static dielectric constant tensor:
#      x y z
#    x -206.439660 0.000000 0.000000 
#    y 0.000000 3.336390 0.000000 
#    z 0.000000 0.000000 3.640290 
# 
# 
# High freq. dielectric constant tensor:
#      x y z
#    x 1.680850 0.000000 0.000000 
#    y 0.000000 1.709040 0.000000 
#    z 0.000000 0.000000 1.729530 
# 
# From -- ./inp_files/10421.got.cif
#   From: 2010.03.12/outbox.cif.g09.slc.cpg/sg63_6_cif.got.tgz:10421.got - 2010.04.10 19:34:48.
