data_PCOD8256821
_publ_section_title
;
Structure prediction by ZEFSAII (Michael W. Deem and Ramdas Pophale) SiO2 
 PCOD8256821
Probable space group: C M C M
;
_chemical_formula_sum "Si O2"
_cell_formula_units_Z 80
_cell_length_a 9.106910
_cell_length_b 20.287589
_cell_length_c 27.719263
_cell_angle_alpha 90.000000
_cell_angle_beta 90.000000
_cell_angle_gamma 90.000000
_cell_volume 5121.334725
_symmetry_space_group_name_H-M "C M C M"
_symmetry_group_IT_number 63
_symmetry_cell_setting 'orthorhombic'
loop_
_space_group_symop_operation_xyz
x,y,z
-x,-y,1/2+z
x,-y,-z
-x,y,1/2-z
-x,-y,-z
x,y,1/2-z
-x,y,z
x,-y,1/2+z
1/2+x,1/2+y,z
1/2-x,1/2-y,1/2+z
1/2+x,1/2-y,-z
1/2-x,1/2+y,1/2-z
1/2-x,1/2-y,-z
1/2+x,1/2+y,1/2-z
1/2-x,1/2+y,z
1/2+x,1/2-y,1/2+z
loop_
_atom_site_type_symbol
_atom_site_label
_atom_site_fract_x
_atom_site_fract_y
_atom_site_fract_z
Si Si1 0.173611 0.430545 0.363873
Si Si2 0.165516 0.943123 0.855841
Si Si3 0.833729 0.015294 0.947422
Si Si4 0.330243 0.169907 0.194992
Si Si5 0.168124 0.178432 0.805925
O O1 0.242374 0.493895 0.335410
O O2 0.234923 0.430272 0.419251
O O3 0.221614 0.363933 0.337856
O O4 0.000000 0.436108 0.364035
O O5 0.235410 0.874316 0.840770
O O6 0.000000 0.947422 0.835527
O O7 0.166336 0.948600 0.914541
O O8 0.000000 0.042639 0.953052
O O9 0.765820 0.000000 0.000000
O O10 0.284438 0.154905 0.250000
O O11 0.500000 0.153109 0.187176
O O12 0.298692 0.245597 0.182265
O O13 0.198429 0.163932 0.750000
O O14 0.000000 0.160958 0.818887
#
# Coordination Sequence:
#
# PCOD8256821 Si02
#       5
#    16  16  16  16  16
#     4  10  19  30  47  73  98 122 156 198 236 274
#     4   9  18  31  48  71  94 123 158 193 235 279
#     4   8  16  32  51  70  93 122 155 192 238 285
#     4   9  18  32  49  69  95 127 159 193 234 277
#     4   9  18  33  50  67  93 130 164 191 229 280
#
# _framework density 15.620927999999999
#
# number of rings (size 3 to 8) (size 9 to 14) (size 15 to 20)
#    1.200    1.800    0.000    3.000    0.000    2.800 
#    0.000    2.000    0.000    1.200    0.000    0.000 
#    0.000    0.000    0.000    0.000    0.000    0.000 
#
# Total GULP energy -495609.681051 kJ/mol
# GULP energy per Si atom -12390.242026 kJ/mol
# Density = 1.558537 g / cm^3
# Si number density = 15.620928 Si / 1000 Ang^3
#
#
#
# Elastic Constant Matrix: (Units=GPa)
#
#
# Indices 1 2 3 4 5 6 
#
# 1 108.5117 54.0965 45.9432 0.0000 0.0000 0.0000
# 2 54.0965 80.2273 47.0524 0.0000 0.0000 0.0000
# 3 45.9432 47.0524 74.8440 0.0000 0.0000 0.0000
# 4 0.0000 0.0000 0.0000 6.6523 0.0000 0.0000
# 5 0.0000 0.0000 0.0000 0.0000 13.4746 0.0000
# 6 0.0000 0.0000 0.0000 0.0000 0.0000 31.1448
#
#
#
# Elastic Compliance Matrix: (Units=1/GPa)
#
#
# Indices 1 2 3 4 5 6 
#
# 1 0.014759 -0.007347 -0.004441 0.000000 0.000000 0.000000
# 2 -0.007347 0.023402 -0.010202 0.000000 0.000000 0.000000
# 3 -0.004441 -0.010202 0.022501 0.000000 0.000000 0.000000
# 4 0.000000 0.000000 0.000000 0.150323 0.000000 0.000000
# 5 0.000000 0.000000 0.000000 0.000000 0.074214 0.000000
# 6 0.000000 0.000000 0.000000 0.000000 0.000000 0.032108
#
#
# Mechanical properties :
#
#
# Convention : Reuss Voigt Hill
#
# Bulk Modulus (GPa) = 59.94639 61.97413 60.96026
# Shear Modulus (GPa) = 13.62966 18.02040 15.82503
#
# Velocity S-wave (km/s) = 2.95706 3.40016 3.18632
# Velocity P-wave (km/s) = 7.07940 7.42797 7.25578
#
# Compressibility (1/GPa) = 0.01668157
#
# Stress axis : x y z
#
# Youngs Moduli (GPa) = 67.75749 42.73101 44.44274
#
# Poissons Ratio (x) = 0.31395 0.19735
# Poissons Ratio (y) = 0.49783 0.45342
# Poissons Ratio (z) = 0.30088 0.43595
#
# Static dielectric constant tensor:
#      x y z
#    x 2.905930 0.000000 0.000000 
#    y 0.000000 2.757910 0.000000 
#    z 0.000000 0.000000 2.831030 
# 
# 
# High freq. dielectric constant tensor:
#      x y z
#    x 1.604210 0.000000 0.000000 
#    y 0.000000 1.581110 0.000000 
#    z 0.000000 0.000000 1.579280 
# 
# From -- ./inp_files/71771.got.cif
#   From: 2010.03.12/outbox.cif.g09.slc.cpg/sg63_36_cif.got.tgz:71771.got - 2010.04.10 19:34:48.
