data_PCOD8256057
_publ_section_title
;
Structure prediction by ZEFSAII (Michael W. Deem and Ramdas Pophale) SiO2 
 PCOD8256057
Probable space group: C M C M
;
_chemical_formula_sum "Si O2"
_cell_formula_units_Z 80
_cell_length_a 25.430516
_cell_length_b 20.114756
_cell_length_c 8.746304
_cell_angle_alpha 90.000000
_cell_angle_beta 90.000000
_cell_angle_gamma 90.000000
_cell_volume 4473.984853
_symmetry_space_group_name_H-M "C M C M"
_symmetry_group_IT_number 63
_symmetry_cell_setting 'orthorhombic'
loop_
_space_group_symop_operation_xyz
x,y,z
-x,-y,1/2+z
x,-y,-z
-x,y,1/2-z
-x,-y,-z
x,y,1/2-z
-x,y,z
x,-y,1/2+z
1/2+x,1/2+y,z
1/2-x,1/2-y,1/2+z
1/2+x,1/2-y,-z
1/2-x,1/2+y,1/2-z
1/2-x,1/2-y,-z
1/2+x,1/2+y,1/2-z
1/2-x,1/2+y,z
1/2+x,1/2-y,1/2+z
loop_
_atom_site_type_symbol
_atom_site_label
_atom_site_fract_x
_atom_site_fract_y
_atom_site_fract_z
Si Si1 0.000000 0.171297 0.928029
Si Si2 0.000000 0.690498 0.575212
Si Si3 0.892179 0.170872 0.068409
Si Si4 0.691219 0.930825 0.430068
Si Si5 0.886378 0.678411 0.926340
Si Si6 0.811916 0.069763 0.930113
O O1 0.000000 0.154061 0.750000
O O2 0.947111 0.141240 0.003979
O O3 0.000000 0.249891 0.955464
O O4 0.946035 0.649202 0.550137
O O5 0.000000 0.719844 0.750000
O O6 0.893814 0.167414 0.250000
O O7 0.883406 0.246578 0.007938
O O8 0.844234 0.128769 0.004899
O O9 0.683403 0.935941 0.250000
O O10 0.655377 0.871851 0.503368
O O11 0.751423 0.916416 0.473930
O O12 0.671769 0.000000 0.500000
O O13 0.871318 0.682418 0.750000
O O14 0.821127 0.068114 0.750000
O O15 0.830844 0.000000 0.000000
#
# Coordination Sequence:
#
# PCOD8256057 Si02
#       6
#     8   8  16  16  16  16
#     4  10  18  30  49  74 103 130 158 196 242 288
#     4   8  14  28  49  70  96 132 167 198 243 296
#     4  10  19  33  53  75  99 129 164 200 242 292
#     4   9  18  33  50  69  97 132 168 204 246 294
#     4   8  15  29  50  73  97 129 166 202 242 292
#     4  10  20  34  51  71  97 130 165 203 247 293
#
# _framework density 17.881150000000002
#
# number of rings (size 3 to 8) (size 9 to 14) (size 15 to 20)
#    0.000    2.800    0.000    3.300    0.000    1.600 
#    0.000    6.000    0.000    0.000    0.000    0.000 
#    0.000    0.000    0.000    0.000    0.000    0.000 
#
# Total GULP energy -495737.319213 kJ/mol
# GULP energy per Si atom -12393.432980 kJ/mol
# Density = 1.784045 g / cm^3
# Si number density = 17.881150 Si / 1000 Ang^3
#
#
#
# Elastic Constant Matrix: (Units=GPa)
#
#
# Indices 1 2 3 4 5 6 
#
# 1 127.6862 82.3849 36.7730 0.0000 0.0000 0.0000
# 2 82.3849 105.4206 30.9216 0.0000 0.0000 0.0000
# 3 36.7730 30.9216 61.4943 0.0000 0.0000 0.0000
# 4 0.0000 0.0000 0.0000 22.3057 0.0000 0.0000
# 5 0.0000 0.0000 0.0000 0.0000 21.0220 0.0000
# 6 0.0000 0.0000 0.0000 0.0000 0.0000 13.7348
#
#
#
# Elastic Compliance Matrix: (Units=1/GPa)
#
#
# Indices 1 2 3 4 5 6 
#
# 1 0.016592 -0.011796 -0.003990 0.000000 0.000000 0.000000
# 2 -0.011796 0.019513 -0.002758 0.000000 0.000000 0.000000
# 3 -0.003990 -0.002758 0.020035 0.000000 0.000000 0.000000
# 4 0.000000 0.000000 0.000000 0.044832 0.000000 0.000000
# 5 0.000000 0.000000 0.000000 0.000000 0.047569 0.000000
# 6 0.000000 0.000000 0.000000 0.000000 0.000000 0.072808
#
#
# Mechanical properties :
#
#
# Convention : Reuss Voigt Hill
#
# Bulk Modulus (GPa) = 52.49056 66.08446 59.28751
# Shear Modulus (GPa) = 18.88311 21.04727 19.96519
#
# Velocity S-wave (km/s) = 3.25319 3.43456 3.34511
# Velocity P-wave (km/s) = 6.59773 7.26403 6.93888
#
# Compressibility (1/GPa) = 0.01905104
#
# Stress axis : x y z
#
# Youngs Moduli (GPa) = 60.27106 51.24766 49.91332
#
# Poissons Ratio (x) = 0.60451 0.19917
# Poissons Ratio (y) = 0.71095 0.13767
# Poissons Ratio (z) = 0.24050 0.14135
#
# Static dielectric constant tensor:
#      x y z
#    x 3.650550 0.000000 0.000000 
#    y 0.000000 3.277080 0.000000 
#    z 0.000000 0.000000 3.127510 
# 
# 
# High freq. dielectric constant tensor:
#      x y z
#    x 1.706320 0.000000 0.000000 
#    y 0.000000 1.665000 0.000000 
#    z 0.000000 0.000000 1.677750 
# 
# From -- ./inp_files/12123.got.cif
#   From: 2010.03.12/outbox.cif.g09.slc.cpg/sg63_7_cif.got.tgz:12123.got - 2010.04.10 19:34:48.
