data_PCOD8256138
_publ_section_title
;
Structure prediction by ZEFSAII (Michael W. Deem and Ramdas Pophale) SiO2 
 PCOD8256138
Probable space group: C M C M
;
_chemical_formula_sum "Si O2"
_cell_formula_units_Z 96
_cell_length_a 9.071716
_cell_length_b 29.859474
_cell_length_c 19.022292
_cell_angle_alpha 90.000000
_cell_angle_beta 90.000000
_cell_angle_gamma 90.000000
_cell_volume 5152.695075
_symmetry_space_group_name_H-M "C M C M"
_symmetry_group_IT_number 63
_symmetry_cell_setting 'orthorhombic'
loop_
_space_group_symop_operation_xyz
x,y,z
-x,-y,1/2+z
x,-y,-z
-x,y,1/2-z
-x,-y,-z
x,y,1/2-z
-x,y,z
x,-y,1/2+z
1/2+x,1/2+y,z
1/2-x,1/2-y,1/2+z
1/2+x,1/2-y,-z
1/2-x,1/2+y,1/2-z
1/2-x,1/2-y,-z
1/2+x,1/2+y,1/2-z
1/2-x,1/2+y,z
1/2+x,1/2-y,1/2+z
loop_
_atom_site_type_symbol
_atom_site_label
_atom_site_fract_x
_atom_site_fract_y
_atom_site_fract_z
Si Si1 0.671566 0.273166 0.098887
Si Si2 0.175042 0.518478 0.170518
Si Si3 0.327762 0.311683 0.553299
Si Si4 0.673294 0.905392 0.565406
Si Si5 0.674118 0.066746 0.587574
Si Si6 0.332641 0.848132 0.169838
O O1 0.500000 0.264666 0.109981
O O2 0.751967 0.225395 0.102541
O O3 0.734786 0.303803 0.161007
O O4 0.707214 0.299349 0.027012
O O5 0.238847 0.518743 0.250000
O O6 0.220557 0.564233 0.131463
O O7 0.242141 0.476722 0.126419
O O8 0.000000 0.514529 0.172379
O O9 0.500000 0.312201 0.569402
O O10 0.261269 0.359557 0.571770
O O11 0.500000 0.894427 0.565049
O O12 0.717050 0.932429 0.494563
O O13 0.500000 0.065453 0.597698
O O14 0.736266 0.111633 0.623957
O O15 0.327829 0.863855 0.250000
O O16 0.500000 0.837401 0.145896
#
# Coordination Sequence:
#
# PCOD8256138 Si02
#       6
#    16  16  16  16  16  16
#     4  10  20  34  53  76 103 135 172 215 263 312
#     4   9  17  29  47  75 108 138 172 217 265 308
#     4  10  20  34  54  77 102 133 172 217 265 313
#     4  10  18  30  52  79 104 135 177 221 261 307
#     4   9  16  28  48  75 106 137 173 215 259 308
#     4  10  19  31  50  77 109 142 173 212 264 317
#
# _framework density 18.631025999999999
#
# number of rings (size 3 to 8) (size 9 to 14) (size 15 to 20)
#    0.000    2.333    1.667    2.000    0.000    5.667 
#    0.000    0.833    0.000    6.500    0.000    0.000 
#    0.000    0.000    0.000    0.000    0.000    0.000 
#
# Total GULP energy -595228.269056 kJ/mol
# GULP energy per Si atom -12400.588939 kJ/mol
# Density = 1.858862 g / cm^3
# Si number density = 18.631026 Si / 1000 Ang^3
#
#
#
# Elastic Constant Matrix: (Units=GPa)
#
#
# Indices 1 2 3 4 5 6 
#
# 1 54.6455 48.1251 24.8511 0.0000 0.0000 0.0000
# 2 48.1251 153.3286 58.2774 0.0000 0.0000 0.0000
# 3 24.8511 58.2774 92.5521 0.0000 0.0000 0.0000
# 4 0.0000 0.0000 0.0000 27.9356 0.0000 0.0000
# 5 0.0000 0.0000 0.0000 0.0000 15.2669 0.0000
# 6 0.0000 0.0000 0.0000 0.0000 0.0000 26.6922
#
#
#
# Elastic Compliance Matrix: (Units=1/GPa)
#
#
# Indices 1 2 3 4 5 6 
#
# 1 0.025688 -0.007153 -0.002393 0.000000 0.000000 0.000000
# 2 -0.007153 0.010566 -0.004732 0.000000 0.000000 0.000000
# 3 -0.002393 -0.004732 0.014427 0.000000 0.000000 0.000000
# 4 0.000000 0.000000 0.000000 0.035797 0.000000 0.000000
# 5 0.000000 0.000000 0.000000 0.000000 0.065501 0.000000
# 6 0.000000 0.000000 0.000000 0.000000 0.000000 0.037464
#
#
# Mechanical properties :
#
#
# Convention : Reuss Voigt Hill
#
# Bulk Modulus (GPa) = 45.20117 62.55925 53.88021
# Shear Modulus (GPa) = 22.18537 25.26379 23.72458
#
# Velocity S-wave (km/s) = 3.45451 3.68639 3.57233
# Velocity P-wave (km/s) = 6.34235 7.19515 6.78217
#
# Compressibility (1/GPa) = 0.02212332
#
# Stress axis : x y z
#
# Youngs Moduli (GPa) = 38.92935 94.64636 69.31373
#
# Poissons Ratio (x) = 0.67699 0.16590
# Poissons Ratio (y) = 0.27846 0.32801
# Poissons Ratio (z) = 0.09317 0.44789
#
# Static dielectric constant tensor:
#      x y z
#    x 3.022770 0.000000 0.000000 
#    y 0.000000 3.489940 0.000000 
#    z 0.000000 0.000000 3.393050 
# 
# 
# High freq. dielectric constant tensor:
#      x y z
#    x 1.682100 0.000000 0.000000 
#    y 0.000000 1.733960 0.000000 
#    z 0.000000 0.000000 1.712330 
# 
# From -- ./inp_files/51269.got.cif
#   From: 2010.03.12/outbox.cif.g09.slc.cpg/sg63_26_cif.got.tgz:51269.got - 2010.04.10 19:34:48.
