data_PCOD8256634
_publ_section_title
;
Structure prediction by ZEFSAII (Michael W. Deem and Ramdas Pophale) SiO2 
 PCOD8256634
Probable space group: C M C M
;
_chemical_formula_sum "Si O2"
_cell_formula_units_Z 96
_cell_length_a 30.412639
_cell_length_b 20.726769
_cell_length_c 9.028080
_cell_angle_alpha 90.000000
_cell_angle_beta 90.000000
_cell_angle_gamma 90.000000
_cell_volume 5690.902078
_symmetry_space_group_name_H-M "C M C M"
_symmetry_group_IT_number 63
_symmetry_cell_setting 'orthorhombic'
loop_
_space_group_symop_operation_xyz
x,y,z
-x,-y,1/2+z
x,-y,-z
-x,y,1/2-z
-x,-y,-z
x,y,1/2-z
-x,y,z
x,-y,1/2+z
1/2+x,1/2+y,z
1/2-x,1/2-y,1/2+z
1/2+x,1/2-y,-z
1/2-x,1/2+y,1/2-z
1/2-x,1/2-y,-z
1/2+x,1/2+y,1/2-z
1/2-x,1/2+y,z
1/2+x,1/2-y,1/2+z
loop_
_atom_site_type_symbol
_atom_site_label
_atom_site_fract_x
_atom_site_fract_y
_atom_site_fract_z
Si Si1 0.246975 0.936676 0.422052
Si Si2 0.214836 0.202252 0.573510
Si Si3 0.430392 0.938749 0.578040
Si Si4 0.345845 0.907859 0.082630
Si Si5 0.634148 0.239993 0.919318
Si Si6 0.951073 0.703608 0.422519
O O1 0.238816 0.945308 0.250000
O O2 0.224300 0.870982 0.477270
O O3 0.298248 0.932890 0.461886
O O4 0.226513 0.000000 0.500000
O O5 0.218211 0.210586 0.750000
O O6 0.250000 0.250000 0.500000
O O7 0.165544 0.215163 0.517341
O O8 0.436432 0.948899 0.750000
O O9 0.379061 0.938916 0.534248
O O10 0.451700 0.871355 0.526267
O O11 0.453864 0.000000 0.500000
O O12 0.359141 0.928005 0.250000
O O13 0.345838 0.830942 0.069296
O O14 0.633035 0.264340 0.750000
O O15 0.584489 0.243474 0.983525
O O16 0.938058 0.707801 0.250000
O O17 0.000000 0.731931 0.451023
#
# Coordination Sequence:
#
# PCOD8256634 Si02
#       6
#    16  16  16  16  16  16
#     4  10  21  34  47  69 100 133 170 209 249 294
#     4  11  21  35  53  75 103 136 173 211 252 301
#     4  10  19  29  42  62  86 120 162 204 249 298
#     4   9  17  31  46  64  92 124 162 208 248 290
#     4  10  19  33  52  75  99 125 164 210 253 299
#     4   9  19  35  51  68  92 123 160 203 253 305
#
# _framework density 16.869029999999999
#
# number of rings (size 3 to 8) (size 9 to 14) (size 15 to 20)
#    0.000    2.167    1.667    2.000    0.000    5.333 
#    0.000    0.000    0.000    0.000    0.000    0.000 
#    0.000    0.667    0.000    2.167    0.000    2.667 
#
# Total GULP energy -595126.201117 kJ/mol
# GULP energy per Si atom -12398.462523 kJ/mol
# Density = 1.683064 g / cm^3
# Si number density = 16.869030 Si / 1000 Ang^3
#
#
#
# Elastic Constant Matrix: (Units=GPa)
#
#
# Indices 1 2 3 4 5 6 
#
# 1 82.4148 43.6460 38.1576 0.0000 0.0000 0.0000
# 2 43.6460 81.3573 35.5496 0.0000 0.0000 0.0000
# 3 38.1576 35.5496 66.0414 0.0000 0.0000 0.0000
# 4 0.0000 0.0000 0.0000 25.7080 0.0000 0.0000
# 5 0.0000 0.0000 0.0000 0.0000 21.7878 0.0000
# 6 0.0000 0.0000 0.0000 0.0000 0.0000 5.5006
#
#
#
# Elastic Compliance Matrix: (Units=1/GPa)
#
#
# Indices 1 2 3 4 5 6 
#
# 1 0.019310 -0.007171 -0.007297 0.000000 0.000000 0.000000
# 2 -0.007171 0.018735 -0.005942 0.000000 0.000000 0.000000
# 3 -0.007297 -0.005942 0.022556 0.000000 0.000000 0.000000
# 4 0.000000 0.000000 0.000000 0.038898 0.000000 0.000000
# 5 0.000000 0.000000 0.000000 0.000000 0.045897 0.000000
# 6 0.000000 0.000000 0.000000 0.000000 0.000000 0.181797
#
#
# Mechanical properties :
#
#
# Convention : Reuss Voigt Hill
#
# Bulk Modulus (GPa) = 50.55027 51.61332 51.08179
# Shear Modulus (GPa) = 13.34737 18.09665 15.72201
#
# Velocity S-wave (km/s) = 2.81594 3.27888 3.05619
# Velocity P-wave (km/s) = 6.37213 6.70803 6.54224
#
# Compressibility (1/GPa) = 0.01978229
#
# Stress axis : x y z
#
# Youngs Moduli (GPa) = 51.78750 53.37729 44.33348
#
# Poissons Ratio (x) = 0.38275 0.32350
# Poissons Ratio (y) = 0.37135 0.26341
# Poissons Ratio (z) = 0.37789 0.31714
#
# Static dielectric constant tensor:
#      x y z
#    x 3.080150 0.000000 0.000000 
#    y 0.000000 3.065690 0.000000 
#    z 0.000000 0.000000 3.171070 
# 
# 
# High freq. dielectric constant tensor:
#      x y z
#    x 1.635980 0.000000 0.000000 
#    y 0.000000 1.619790 0.000000 
#    z 0.000000 0.000000 1.656390 
# 
# From -- ./inp_files/12308.got.cif
#   From: 2010.03.12/outbox.cif.g09.slc.cpg/sg63_7_cif.got.tgz:12308.got - 2010.04.10 19:34:48.
