data_PCOD8256390
_publ_section_title
;
Structure prediction by ZEFSAII (Michael W. Deem and Ramdas Pophale) SiO2 
 PCOD8256390
Probable space group: C M C M
;
_chemical_formula_sum "Si O2"
_cell_formula_units_Z 96
_cell_length_a 9.000933
_cell_length_b 20.619914
_cell_length_c 28.348548
_cell_angle_alpha 90.000000
_cell_angle_beta 90.000000
_cell_angle_gamma 90.000000
_cell_volume 5261.446976
_symmetry_space_group_name_H-M "C M C M"
_symmetry_group_IT_number 63
_symmetry_cell_setting 'orthorhombic'
loop_
_space_group_symop_operation_xyz
x,y,z
-x,-y,1/2+z
x,-y,-z
-x,y,1/2-z
-x,-y,-z
x,y,1/2-z
-x,y,z
x,-y,1/2+z
1/2+x,1/2+y,z
1/2-x,1/2-y,1/2+z
1/2+x,1/2-y,-z
1/2-x,1/2+y,1/2-z
1/2-x,1/2-y,-z
1/2+x,1/2+y,1/2-z
1/2-x,1/2+y,z
1/2+x,1/2-y,1/2+z
loop_
_atom_site_type_symbol
_atom_site_label
_atom_site_fract_x
_atom_site_fract_y
_atom_site_fract_z
Si Si1 0.673477 0.676290 0.696692
Si Si2 0.824864 0.366954 0.392412
Si Si3 0.324232 0.177627 0.301015
Si Si4 0.324474 0.123136 0.101926
Si Si5 0.824184 0.759433 0.549930
Si Si6 0.824063 0.508294 0.947365
O O1 0.706584 0.652442 0.750000
O O2 0.500000 0.673100 0.685503
O O3 0.757167 0.629653 0.660048
O O4 0.735084 0.749562 0.689906
O O5 0.776153 0.300279 0.417065
O O6 0.760559 0.426534 0.423374
O O7 0.000000 0.373280 0.387601
O O8 0.263734 0.152150 0.250000
O O9 0.500000 0.181809 0.298395
O O10 0.274733 0.130218 0.343282
O O11 0.500000 0.135402 0.095301
O O12 0.235763 0.174342 0.071212
O O13 0.276656 0.052150 0.085014
O O14 0.750000 0.750000 0.500000
O O15 0.000000 0.762868 0.543932
O O16 0.000000 0.513378 0.951254
O O17 0.756732 0.500000 0.000000
#
# Coordination Sequence:
#
# PCOD8256390 Si02
#       6
#    16  16  16  16  16  16
#     4   9  17  31  52  77 105 136 168 207 257 309
#     4  10  20  34  52  77 106 136 171 211 257 307
#     4   8  14  26  47  75 101 125 161 207 252 298
#     4  10  18  32  55  76  98 132 172 214 258 304
#     4  11  22  34  51  75 103 133 170 217 260 305
#     4   9  18  33  51  72 103 141 173 204 255 314
#
# _framework density 18.245930000000001
#
# number of rings (size 3 to 8) (size 9 to 14) (size 15 to 20)
#    0.000    2.500    1.667    2.500    0.000    3.667 
#    0.000    1.667    0.000    5.500    0.000    0.000 
#    0.000    0.000    0.000    0.000    0.000    0.000 
#
# Total GULP energy -595061.802927 kJ/mol
# GULP energy per Si atom -12397.120894 kJ/mol
# Density = 1.820440 g / cm^3
# Si number density = 18.245930 Si / 1000 Ang^3
#
#
#
# Elastic Constant Matrix: (Units=GPa)
#
#
# Indices 1 2 3 4 5 6 
#
# 1 29.6456 22.3244 29.6119 0.0000 0.0000 0.0000
# 2 22.3244 82.4254 46.3743 0.0000 0.0000 0.0000
# 3 29.6119 46.3743 155.8839 0.0000 0.0000 0.0000
# 4 0.0000 0.0000 0.0000 35.2272 0.0000 0.0000
# 5 0.0000 0.0000 0.0000 0.0000 27.6378 0.0000
# 6 0.0000 0.0000 0.0000 0.0000 0.0000 18.1119
#
#
#
# Elastic Compliance Matrix: (Units=1/GPa)
#
#
# Indices 1 2 3 4 5 6 
#
# 1 0.046819 -0.009220 -0.006151 0.000000 0.000000 0.000000
# 2 -0.009220 0.016387 -0.003123 0.000000 0.000000 0.000000
# 3 -0.006151 -0.003123 0.008513 0.000000 0.000000 0.000000
# 4 0.000000 0.000000 0.000000 0.028387 0.000000 0.000000
# 5 0.000000 0.000000 0.000000 0.000000 0.036182 0.000000
# 6 0.000000 0.000000 0.000000 0.000000 0.000000 0.055212
#
#
# Mechanical properties :
#
#
# Convention : Reuss Voigt Hill
#
# Bulk Modulus (GPa) = 28.79403 51.61957 40.20680
# Shear Modulus (GPa) = 20.82770 27.50500 24.16635
#
# Velocity S-wave (km/s) = 3.38227 3.88681 3.64329
# Velocity P-wave (km/s) = 5.57390 6.96387 6.30729
#
# Compressibility (1/GPa) = 0.03472943
#
# Stress axis : x y z
#
# Youngs Moduli (GPa) = 21.35901 61.02514 117.47191
#
# Poissons Ratio (x) = 0.56265 0.72255
# Poissons Ratio (y) = 0.19693 0.36692
# Poissons Ratio (z) = 0.13138 0.19061
#
# Static dielectric constant tensor:
#      x y z
#    x 2.967110 0.000000 0.000000 
#    y 0.000000 3.341320 0.000000 
#    z 0.000000 0.000000 3.675670 
# 
# 
# High freq. dielectric constant tensor:
#      x y z
#    x 1.667470 0.000000 0.000000 
#    y 0.000000 1.691740 0.000000 
#    z 0.000000 0.000000 1.728480 
# 
# From -- ./inp_files/66959.got.cif
#   From: 2010.03.12/outbox.cif.g09.slc.cpg/sg63_34_cif.got.tgz:66959.got - 2010.04.10 19:34:48.
