data_PCOD8256852
_publ_section_title
;
Structure prediction by ZEFSAII (Michael W. Deem and Ramdas Pophale) SiO2 
 PCOD8256852
Probable space group: C M C M
;
_chemical_formula_sum "Si O2"
_cell_formula_units_Z 80
_cell_length_a 8.092731
_cell_length_b 28.530794
_cell_length_c 12.781549
_cell_angle_alpha 90.000000
_cell_angle_beta 90.000000
_cell_angle_gamma 90.000000
_cell_volume 2951.157936
_symmetry_space_group_name_H-M "C M C M"
_symmetry_group_IT_number 63
_symmetry_cell_setting 'orthorhombic'
loop_
_space_group_symop_operation_xyz
x,y,z
-x,-y,1/2+z
x,-y,-z
-x,y,1/2-z
-x,-y,-z
x,y,1/2-z
-x,y,z
x,-y,1/2+z
1/2+x,1/2+y,z
1/2-x,1/2-y,1/2+z
1/2+x,1/2-y,-z
1/2-x,1/2+y,1/2-z
1/2-x,1/2-y,-z
1/2+x,1/2+y,1/2-z
1/2-x,1/2+y,z
1/2+x,1/2-y,1/2+z
loop_
_atom_site_type_symbol
_atom_site_label
_atom_site_fract_x
_atom_site_fract_y
_atom_site_fract_z
Si Si1 0.190555 0.727758 0.128775
Si Si2 0.688904 0.628468 0.124461
Si Si3 0.000000 0.877730 0.367281
Si Si4 0.182593 0.674782 0.624552
Si Si5 0.178618 0.530171 0.103572
Si Si6 0.500000 0.512470 0.880498
O O1 0.240307 0.723256 0.250000
O O2 0.235114 0.677151 0.077627
O O3 0.293501 0.771724 0.080598
O O4 0.000000 0.739845 0.115201
O O5 0.701246 0.627685 0.250000
O O6 0.500000 0.623384 0.085693
O O7 0.791743 0.584951 0.078573
O O8 0.170921 0.859137 0.421098
O O9 0.000000 0.857084 0.250000
O O10 0.000000 0.933055 0.361631
O O11 0.194780 0.675605 0.750000
O O12 0.000000 0.657089 0.590089
O O13 0.334287 0.510296 0.171220
O O14 0.000000 0.525307 0.161550
O O15 0.169589 0.500000 0.000000
O O16 0.500000 0.500000 0.000000
#
# Coordination Sequence:
#
# PCOD8256852 Si02
#       6
#    16  16   8  16  16   8
#     4   9  15  25  43  72 114 154 182 215 266 330
#     4  10  19  30  49  81 118 151 185 230 282 333
#     4  10  20  34  54  82 112 146 187 229 272 321
#     4   9  16  28  47  74 113 151 181 219 268 327
#     4  10  21  38  58  78 105 141 195 239 284 339
#     4  10  22  40  58  78 106 144 190 237 286 335
#
# _framework density 27.108003
#
# number of rings (size 3 to 8) (size 9 to 14) (size 15 to 20)
#    0.000    2.400    2.000    1.200    0.000    5.200 
#    0.000    0.000    0.000    0.000    0.000    5.600 
#    0.000    0.000    0.000    0.000    0.000    0.400 
#
# Total GULP energy -495811.040842 kJ/mol
# GULP energy per Si atom -12395.276021 kJ/mol
# Density = 2.704630 g / cm^3
# Si number density = 27.108003 Si / 1000 Ang^3
#
#
#
# Elastic Constant Matrix: (Units=GPa)
#
#
# Indices 1 2 3 4 5 6 
#
# 1 285.0037 119.4403 7.9144 0.0000 0.0000 0.0000
# 2 119.4403 220.0871 22.8125 0.0000 0.0000 0.0000
# 3 7.9144 22.8125 50.0270 0.0000 0.0000 0.0000
# 4 0.0000 0.0000 0.0000 1.4130 0.0000 0.0000
# 5 0.0000 0.0000 0.0000 0.0000 -47.3671 0.0000
# 6 0.0000 0.0000 0.0000 0.0000 0.0000 52.7115
#
#
#
# Elastic Compliance Matrix: (Units=1/GPa)
#
#
# Indices 1 2 3 4 5 6 
#
# 1 0.004550 -0.002514 0.000426 0.000000 0.000000 0.000000
# 2 -0.002514 0.006158 -0.002410 0.000000 0.000000 0.000000
# 3 0.000426 -0.002410 0.021021 0.000000 0.000000 0.000000
# 4 0.000000 0.000000 0.000000 0.707723 0.000000 0.000000
# 5 0.000000 0.000000 0.000000 0.000000 -0.021112 0.000000
# 6 0.000000 0.000000 0.000000 0.000000 0.000000 0.018971
#
#
# Mechanical properties :
#
#
# Convention : Reuss Voigt Hill
#
# Bulk Modulus (GPa) = 43.98747 95.05022 69.51885
# Shear Modulus (GPa) = 6.63232 28.34819 17.49025
#
# Velocity S-wave (km/s) = 1.56587 3.23731 2.54285
# Velocity P-wave (km/s) = 4.41941 7.00808 5.85852
#
# Compressibility (1/GPa) = 0.02273375
#
# Stress axis : x y z
#
# Youngs Moduli (GPa) = 219.76551 162.40061 47.57185
#
# Poissons Ratio (x) = 0.40821 -0.02028
# Poissons Ratio (y) = 0.55241 0.11466
# Poissons Ratio (z) = -0.09370 0.39142
#
# Static dielectric constant tensor:
#      x y z
#    x 11.720710 0.000000 0.000000 
#    y 0.000000 4.854430 0.000000 
#    z 0.000000 0.000000 4.928320 
# 
# 
# High freq. dielectric constant tensor:
#      x y z
#    x 2.100080 0.000000 0.000000 
#    y 0.000000 2.089140 0.000000 
#    z 0.000000 0.000000 2.128840 
# 
# From -- ./inp_files/50917.got.cif
#   From: 2010.03.12/outbox.cif.g09.slc.cpg/sg63_26_cif.got.tgz:50917.got - 2010.04.10 19:34:48.
