data_PCOD8256452
_publ_section_title
;
Structure prediction by ZEFSAII (Michael W. Deem and Ramdas Pophale) SiO2 
 PCOD8256452
Probable space group: C M C M
;
_chemical_formula_sum "Si O2"
_cell_formula_units_Z 112
_cell_length_a 17.765024
_cell_length_b 17.475132
_cell_length_c 20.002979
_cell_angle_alpha 90.000000
_cell_angle_beta 90.000000
_cell_angle_gamma 90.000000
_cell_volume 6209.847607
_symmetry_space_group_name_H-M "C M C M"
_symmetry_group_IT_number 63
_symmetry_cell_setting 'orthorhombic'
loop_
_space_group_symop_operation_xyz
x,y,z
-x,-y,1/2+z
x,-y,-z
-x,y,1/2-z
-x,-y,-z
x,y,1/2-z
-x,y,z
x,-y,1/2+z
1/2+x,1/2+y,z
1/2-x,1/2-y,1/2+z
1/2+x,1/2-y,-z
1/2-x,1/2+y,1/2-z
1/2-x,1/2-y,-z
1/2+x,1/2+y,1/2-z
1/2-x,1/2+y,z
1/2+x,1/2-y,1/2+z
loop_
_atom_site_type_symbol
_atom_site_label
_atom_site_fract_x
_atom_site_fract_y
_atom_site_fract_z
Si Si1 0.766881 0.348118 0.822690
Si Si2 0.416743 0.609022 0.827346
Si Si3 0.231683 0.025142 0.825865
Si Si4 0.083791 0.722717 0.361620
Si Si5 0.703525 0.687749 0.460301
Si Si6 0.083470 0.703136 0.985113
Si Si7 0.702657 0.076467 0.961463
O O1 0.735315 0.321972 0.750000
O O2 0.750506 0.436865 0.832466
O O3 0.856126 0.329514 0.822635
O O4 0.725257 0.304855 0.882382
O O5 0.419582 0.630014 0.750000
O O6 0.500000 0.582087 0.852108
O O7 0.356766 0.541530 0.841084
O O8 0.391803 0.687884 0.863294
O O9 0.251764 0.054083 0.750000
O O10 0.278341 0.067210 0.883360
O O11 0.081903 0.691622 0.436127
O O12 0.000000 0.714578 0.329264
O O13 0.750000 0.750000 0.500000
O O14 0.616304 0.712336 0.466288
O O15 0.725489 0.607078 0.494727
O O16 0.000000 0.698104 0.954275
O O17 0.133549 0.634642 0.956854
O O18 0.676602 0.000000 0.000000
#
# Coordination Sequence:
#
# PCOD8256452 Si02
#       7
#    16  16  16  16  16  16  16
#     4  11  21  35  54  83 113 144 182 223 275 330
#     4   9  18  32  52  79 108 139 176 225 282 328
#     4  10  21  35  54  81 111 143 183 226 271 327
#     4  10  18  33  55  83 111 137 174 229 284 325
#     4  10  19  36  56  78 107 144 183 223 264 318
#     4  10  21  35  55  79 110 146 181 222 270 323
#     4  11  19  35  59  80 107 142 185 227 271 320
#
# _framework density 18.035869999999999
#
# number of rings (size 3 to 8) (size 9 to 14) (size 15 to 20)
#    0.000    1.857    4.286    1.286    2.000    1.143 
#    0.000    1.429    0.000    4.286    0.000    0.000 
#    0.000    0.000    0.000    0.000    0.000    0.000 
#
# Total GULP energy -693901.614453 kJ/mol
# GULP energy per Si atom -12391.100258 kJ/mol
# Density = 1.799482 g / cm^3
# Si number density = 18.035870 Si / 1000 Ang^3
#
#
#
# Elastic Constant Matrix: (Units=GPa)
#
#
# Indices 1 2 3 4 5 6 
#
# 1 124.3888 60.2575 36.3454 0.0000 0.0000 0.0000
# 2 60.2575 82.2122 24.6930 0.0000 0.0000 0.0000
# 3 36.3454 24.6930 120.9375 0.0000 0.0000 0.0000
# 4 0.0000 0.0000 0.0000 28.6173 0.0000 0.0000
# 5 0.0000 0.0000 0.0000 0.0000 20.6374 0.0000
# 6 0.0000 0.0000 0.0000 0.0000 0.0000 30.0606
#
#
#
# Elastic Compliance Matrix: (Units=1/GPa)
#
#
# Indices 1 2 3 4 5 6 
#
# 1 0.012938 -0.008858 -0.002080 0.000000 0.000000 0.000000
# 2 -0.008858 0.019023 -0.001222 0.000000 0.000000 0.000000
# 3 -0.002080 -0.001222 0.009143 0.000000 0.000000 0.000000
# 4 0.000000 0.000000 0.000000 0.034944 0.000000 0.000000
# 5 0.000000 0.000000 0.000000 0.000000 0.048456 0.000000
# 6 0.000000 0.000000 0.000000 0.000000 0.000000 0.033266
#
#
# Mechanical properties :
#
#
# Convention : Reuss Voigt Hill
#
# Bulk Modulus (GPa) = 59.57755 63.34780 61.46267
# Shear Modulus (GPa) = 26.64027 29.61257 28.12642
#
# Velocity S-wave (km/s) = 3.84744 4.05640 3.95330
# Velocity P-wave (km/s) = 7.26922 7.55901 7.41553
#
# Compressibility (1/GPa) = 0.01678485
#
# Stress axis : x y z
#
# Youngs Moduli (GPa) = 77.29025 52.56658 109.37065
#
# Poissons Ratio (x) = 0.46566 0.22745
# Poissons Ratio (y) = 0.68467 0.13365
# Poissons Ratio (z) = 0.16073 0.06424
#
# Static dielectric constant tensor:
#      x y z
#    x 4.347820 0.000000 0.000000 
#    y 0.000000 3.802160 0.000000 
#    z 0.000000 0.000000 3.435920 
# 
# 
# High freq. dielectric constant tensor:
#      x y z
#    x 1.685560 0.000000 0.000000 
#    y 0.000000 1.686670 0.000000 
#    z 0.000000 0.000000 1.703480 
# 
# From -- ./inp_files/55837.got.cif
#   From: 2010.03.12/outbox.cif.g09.slc.cpg/sg63_28_cif.got.tgz:55837.got - 2010.04.10 19:34:48.
