data_PCOD8256100
_publ_section_title
;
Structure prediction by ZEFSAII (Michael W. Deem and Ramdas Pophale) SiO2 
 PCOD8256100
Probable space group: C M C M
;
_chemical_formula_sum "Si O2"
_cell_formula_units_Z 112
_cell_length_a 27.481241
_cell_length_b 16.132071
_cell_length_c 14.269160
_cell_angle_alpha 90.000000
_cell_angle_beta 90.000000
_cell_angle_gamma 90.000000
_cell_volume 6325.937156
_symmetry_space_group_name_H-M "C M C M"
_symmetry_group_IT_number 63
_symmetry_cell_setting 'orthorhombic'
loop_
_space_group_symop_operation_xyz
x,y,z
-x,-y,1/2+z
x,-y,-z
-x,y,1/2-z
-x,-y,-z
x,y,1/2-z
-x,y,z
x,-y,1/2+z
1/2+x,1/2+y,z
1/2-x,1/2-y,1/2+z
1/2+x,1/2-y,-z
1/2-x,1/2+y,1/2-z
1/2-x,1/2-y,-z
1/2+x,1/2+y,1/2-z
1/2-x,1/2+y,z
1/2+x,1/2-y,1/2+z
loop_
_atom_site_type_symbol
_atom_site_label
_atom_site_fract_x
_atom_site_fract_y
_atom_site_fract_z
Si Si1 0.553657 0.502383 0.139150
Si Si2 0.625776 0.636950 0.644276
Si Si3 0.142414 0.753490 0.971194
Si Si4 0.301596 0.909769 0.992168
Si Si5 0.734688 0.315234 0.639897
Si Si6 0.555227 0.688186 0.360480
Si Si7 0.265841 0.633067 0.648444
O O1 0.554242 0.502739 0.250000
O O2 0.500000 0.477925 0.102178
O O3 0.591382 0.434523 0.101268
O O4 0.567224 0.594569 0.104608
O O5 0.609361 0.665210 0.750000
O O6 0.626563 0.713419 0.573060
O O7 0.679538 0.599071 0.650465
O O8 0.184482 0.808768 0.920114
O O9 0.094016 0.750893 0.907998
O O10 0.158370 0.658790 0.984080
O O11 0.270404 0.887658 0.898457
O O12 0.262913 0.920111 0.074890
O O13 0.327298 0.000000 0.000000
O O14 0.723252 0.331146 0.750000
O O15 0.764881 0.230857 0.622228
O O16 0.561326 0.695846 0.250000
O O17 0.500000 0.712234 0.389482
O O18 0.241070 0.621586 0.750000
#
# Coordination Sequence:
#
# PCOD8256100 Si02
#       7
#    16  16  16  16  16  16  16
#     4   8  16  31  49  75 108 136 164 203 250 301
#     4  10  18  30  51  73 103 142 176 208 248 304
#     4  11  20  35  54  78 102 137 180 214 257 310
#     4  11  22  35  50  74 105 136 176 219 262 307
#     4  10  19  35  55  73  99 135 173 218 261 306
#     4   9  19  36  56  77 104 135 169 213 262 313
#     4   9  17  33  52  71  97 133 174 211 253 304
#
# _framework density 17.704885999999998
#
# number of rings (size 3 to 8) (size 9 to 14) (size 15 to 20)
#    0.000    2.286    2.857    2.143    0.000    3.429 
#    0.000    2.857    0.000    0.429    0.000    0.000 
#    0.000    2.286    0.000    0.000    0.000    0.000 
#
# Total GULP energy -693965.579252 kJ/mol
# GULP energy per Si atom -12392.242487 kJ/mol
# Density = 1.766459 g / cm^3
# Si number density = 17.704886 Si / 1000 Ang^3
#
#
#
# Elastic Constant Matrix: (Units=GPa)
#
#
# Indices 1 2 3 4 5 6 
#
# 1 102.0661 50.2795 35.0267 0.0000 0.0000 0.0000
# 2 50.2795 93.5158 35.5599 0.0000 0.0000 0.0000
# 3 35.0267 35.5599 81.3271 0.0000 0.0000 0.0000
# 4 0.0000 0.0000 0.0000 12.1068 0.0000 0.0000
# 5 0.0000 0.0000 0.0000 0.0000 22.3374 0.0000
# 6 0.0000 0.0000 0.0000 0.0000 0.0000 28.2751
#
#
#
# Elastic Compliance Matrix: (Units=1/GPa)
#
#
# Indices 1 2 3 4 5 6 
#
# 1 0.014025 -0.006290 -0.003290 0.000000 0.000000 0.000000
# 2 -0.006290 0.015646 -0.004132 0.000000 0.000000 0.000000
# 3 -0.003290 -0.004132 0.015520 0.000000 0.000000 0.000000
# 4 0.000000 0.000000 0.000000 0.082598 0.000000 0.000000
# 5 0.000000 0.000000 0.000000 0.000000 0.044768 0.000000
# 6 0.000000 0.000000 0.000000 0.000000 0.000000 0.035367
#
#
# Mechanical properties :
#
#
# Convention : Reuss Voigt Hill
#
# Bulk Modulus (GPa) = 56.28486 57.62680 56.95583
# Shear Modulus (GPa) = 20.72352 22.94671 21.83511
#
# Velocity S-wave (km/s) = 3.42496 3.60400 3.51562
# Velocity P-wave (km/s) = 6.89203 7.06665 6.97989
#
# Compressibility (1/GPa) = 0.01776677
#
# Stress axis : x y z
#
# Youngs Moduli (GPa) = 71.30081 63.91250 64.43265
#
# Poissons Ratio (x) = 0.40198 0.21201
# Poissons Ratio (y) = 0.44845 0.26627
# Poissons Ratio (z) = 0.23461 0.26412
#
# Static dielectric constant tensor:
#      x y z
#    x 3.396190 0.000000 0.000000 
#    y 0.000000 3.060090 0.000000 
#    z 0.000000 0.000000 3.433310 
# 
# 
# High freq. dielectric constant tensor:
#      x y z
#    x 1.670240 0.000000 0.000000 
#    y 0.000000 1.647690 0.000000 
#    z 0.000000 0.000000 1.701650 
# 
# From -- ./inp_files/38730.got.cif
#   From: 2010.03.12/outbox.cif.g09.slc.cpg/sg63_20_cif.got.tgz:38730.got - 2010.04.10 19:34:48.
