data_PCOD8256678
_publ_section_title
;
Structure prediction by ZEFSAII (Michael W. Deem and Ramdas Pophale) SiO2 
 PCOD8256678
Probable space group: C M C M
;
_chemical_formula_sum "Si O2"
_cell_formula_units_Z 80
_cell_length_a 17.992575
_cell_length_b 27.418852
_cell_length_c 9.546700
_cell_angle_alpha 90.000000
_cell_angle_beta 90.000000
_cell_angle_gamma 90.000000
_cell_volume 4709.728414
_symmetry_space_group_name_H-M "C M C M"
_symmetry_group_IT_number 63
_symmetry_cell_setting 'orthorhombic'
loop_
_space_group_symop_operation_xyz
x,y,z
-x,-y,1/2+z
x,-y,-z
-x,y,1/2-z
-x,-y,-z
x,y,1/2-z
-x,y,z
x,-y,1/2+z
1/2+x,1/2+y,z
1/2-x,1/2-y,1/2+z
1/2+x,1/2-y,-z
1/2-x,1/2+y,1/2-z
1/2-x,1/2-y,-z
1/2+x,1/2+y,1/2-z
1/2-x,1/2+y,z
1/2+x,1/2-y,1/2+z
loop_
_atom_site_type_symbol
_atom_site_label
_atom_site_fract_x
_atom_site_fract_y
_atom_site_fract_z
Si Si1 0.803418 0.147668 0.412254
Si Si2 0.150743 0.306354 0.584304
Si Si3 0.418344 0.095635 0.083237
Si Si4 0.586676 0.704998 0.585533
Si Si5 0.271344 0.954307 0.912709
O O1 0.823178 0.155401 0.250000
O O2 0.736075 0.183475 0.457961
O O3 0.874815 0.160089 0.505873
O O4 0.781631 0.091718 0.440683
O O5 0.142632 0.305649 0.750000
O O6 0.099722 0.350252 0.524571
O O7 0.121671 0.255102 0.524084
O O8 0.415770 0.097918 0.250000
O O9 0.500000 0.079337 0.028844
O O10 0.355059 0.057943 0.033285
O O11 0.601765 0.699363 0.750000
O O12 0.500000 0.704148 0.550859
O O13 0.271400 0.968329 0.750000
O O14 0.240609 0.000000 0.000000
#
# Coordination Sequence:
#
# PCOD8256678 Si02
#       5
#    16  16  16  16  16
#     4   9  18  32  48  66  90 121 154 184 218 265
#     4   8  14  26  44  66  93 124 155 182 209 251
#     4   8  13  23  41  65  93 123 152 181 214 256
#     4  10  19  29  45  71  97 119 147 184 223 261
#     4   9  18  31  47  67  88 114 151 190 227 267
#
# _framework density 16.986117
#
# number of rings (size 3 to 8) (size 9 to 14) (size 15 to 20)
#    0.000    3.200    0.000    3.600    0.000    4.000 
#    0.000    0.000    0.000    1.800    0.000    0.000 
#    0.000    0.000    0.000    0.000    0.000    0.000 
#
# Total GULP energy -495791.905788 kJ/mol
# GULP energy per Si atom -12394.797645 kJ/mol
# Density = 1.694746 g / cm^3
# Si number density = 16.986117 Si / 1000 Ang^3
#
#
#
# Elastic Constant Matrix: (Units=GPa)
#
#
# Indices 1 2 3 4 5 6 
#
# 1 90.5387 57.8282 42.7122 0.0000 0.0000 0.0000
# 2 57.8282 105.3548 46.5228 0.0000 0.0000 0.0000
# 3 42.7122 46.5228 40.7512 0.0000 0.0000 0.0000
# 4 0.0000 0.0000 0.0000 24.6092 0.0000 0.0000
# 5 0.0000 0.0000 0.0000 0.0000 22.5506 0.0000
# 6 0.0000 0.0000 0.0000 0.0000 0.0000 14.5634
#
#
#
# Elastic Compliance Matrix: (Units=1/GPa)
#
#
# Indices 1 2 3 4 5 6 
#
# 1 0.022626 -0.003927 -0.019232 0.000000 0.000000 0.000000
# 2 -0.003927 0.019823 -0.018515 0.000000 0.000000 0.000000
# 3 -0.019232 -0.018515 0.065833 0.000000 0.000000 0.000000
# 4 0.000000 0.000000 0.000000 0.040635 0.000000 0.000000
# 5 0.000000 0.000000 0.000000 0.000000 0.044345 0.000000
# 6 0.000000 0.000000 0.000000 0.000000 0.000000 0.068665
#
#
# Mechanical properties :
#
#
# Convention : Reuss Voigt Hill
#
# Bulk Modulus (GPa) = 40.10317 58.97457 49.53887
# Shear Modulus (GPa) = 14.14086 18.31674 16.22880
#
# Velocity S-wave (km/s) = 2.88843 3.28736 3.09433
# Velocity P-wave (km/s) = 5.89785 7.01453 6.48029
#
# Compressibility (1/GPa) = 0.02493569
#
# Stress axis : x y z
#
# Youngs Moduli (GPa) = 44.19751 50.44697 15.18985
#
# Poissons Ratio (x) = 0.19809 0.29213
# Poissons Ratio (y) = 0.17355 0.28124
# Poissons Ratio (z) = 0.85000 0.93401
#
# Static dielectric constant tensor:
#      x y z
#    x 3.155410 0.000000 0.000000 
#    y 0.000000 3.153710 0.000000 
#    z 0.000000 0.000000 2.712670 
# 
# 
# High freq. dielectric constant tensor:
#      x y z
#    x 1.647730 0.000000 0.000000 
#    y 0.000000 1.650970 0.000000 
#    z 0.000000 0.000000 1.611770 
# 
# From -- ./inp_files/6416.got.cif
#   From: 2010.03.12/outbox.cif.g09.slc.cpg/sg63_4_cif.got.tgz:6416.got - 2010.04.10 19:34:48.
