data_PCOD8256225
_publ_section_title
;
Structure prediction by ZEFSAII (Michael W. Deem and Ramdas Pophale) SiO2 
 PCOD8256225
Probable space group: C M C M
;
_chemical_formula_sum "Si O2"
_cell_formula_units_Z 128
_cell_length_a 19.579141
_cell_length_b 21.097323
_cell_length_c 18.177805
_cell_angle_alpha 90.000000
_cell_angle_beta 90.000000
_cell_angle_gamma 90.000000
_cell_volume 7508.659771
_symmetry_space_group_name_H-M "C M C M"
_symmetry_group_IT_number 63
_symmetry_cell_setting 'orthorhombic'
loop_
_space_group_symop_operation_xyz
x,y,z
-x,-y,1/2+z
x,-y,-z
-x,y,1/2-z
-x,-y,-z
x,y,1/2-z
-x,y,z
x,-y,1/2+z
1/2+x,1/2+y,z
1/2-x,1/2-y,1/2+z
1/2+x,1/2-y,-z
1/2-x,1/2+y,1/2-z
1/2-x,1/2-y,-z
1/2+x,1/2+y,1/2-z
1/2-x,1/2+y,z
1/2+x,1/2-y,1/2+z
loop_
_atom_site_type_symbol
_atom_site_label
_atom_site_fract_x
_atom_site_fract_y
_atom_site_fract_z
Si Si1 0.785725 0.383253 0.836401
Si Si2 0.077059 0.197595 0.915188
Si Si3 0.924062 0.064832 0.334404
Si Si4 0.797736 0.857052 0.337309
Si Si5 0.209513 0.003676 0.663809
Si Si6 0.294820 0.740584 0.337232
Si Si7 0.075488 0.328027 0.665658
Si Si8 0.077880 0.195691 0.413924
O O1 0.772460 0.385040 0.750000
O O2 0.756584 0.448282 0.872290
O O3 0.746071 0.321245 0.866684
O O4 0.866498 0.379319 0.854864
O O5 0.127750 0.152105 0.871769
O O6 0.085540 0.268682 0.886648
O O7 0.000000 0.172974 0.901741
O O8 0.095599 0.196996 0.000594
O O9 0.914483 0.087218 0.250000
O O10 0.910100 0.125030 0.384989
O O11 0.000000 0.037227 0.347761
O O12 0.869890 0.010493 0.354736
O O13 0.806603 0.855434 0.250000
O O14 0.771428 0.926140 0.365375
O O15 0.745267 0.803262 0.364330
O O16 0.222434 0.003113 0.750000
O O17 0.301896 0.740645 0.250000
O O18 0.370304 0.742821 0.372294
O O19 0.085779 0.305060 0.750000
O O20 0.000000 0.358430 0.654994
O O21 0.000000 0.218154 0.398735
#
# Coordination Sequence:
#
# PCOD8256225 Si02
#       8
#    16  16  16  16  16  16  16  16
#     4   9  15  27  48  72  93 118 156 200 238 275
#     4  10  20  32  46  70 102 132 159 191 240 291
#     4   9  16  28  47  68  88 118 162 199 230 275
#     4  10  20  33  49  72 100 129 159 194 239 288
#     4   9  17  29  47  70  96 124 155 196 238 279
#     4  10  18  31  52  74  94 122 160 200 241 283
#     4   9  16  28  48  71  94 121 156 197 239 286
#     4  10  20  32  48  71  98 127 162 203 239 275
#
# _framework density 17.046983999999998
#
# number of rings (size 3 to 8) (size 9 to 14) (size 15 to 20)
#    0.000    2.500    2.500    0.750    0.000    2.500 
#    0.000    1.875    0.000    3.000    0.000    3.500 
#    0.000    3.000    0.000    0.000    0.000    0.000 
#
# Total GULP energy -793290.229571 kJ/mol
# GULP energy per Si atom -12395.159837 kJ/mol
# Density = 1.700818 g / cm^3
# Si number density = 17.046984 Si / 1000 Ang^3
#
#
#
# Elastic Constant Matrix: (Units=GPa)
#
#
# Indices 1 2 3 4 5 6 
#
# 1 120.5717 74.1531 27.4771 0.0000 0.0000 0.0000
# 2 74.1531 128.2729 22.6385 0.0000 0.0000 0.0000
# 3 27.4771 22.6385 31.4531 0.0000 0.0000 0.0000
# 4 0.0000 0.0000 0.0000 5.8001 0.0000 0.0000
# 5 0.0000 0.0000 0.0000 0.0000 19.3908 0.0000
# 6 0.0000 0.0000 0.0000 0.0000 0.0000 24.1852
#
#
#
# Elastic Compliance Matrix: (Units=1/GPa)
#
#
# Indices 1 2 3 4 5 6 
#
# 1 0.014252 -0.006921 -0.007469 0.000000 0.000000 0.000000
# 2 -0.006921 0.012291 -0.002800 0.000000 0.000000 0.000000
# 3 -0.007469 -0.002800 0.040334 0.000000 0.000000 0.000000
# 4 0.000000 0.000000 0.000000 0.172412 0.000000 0.000000
# 5 0.000000 0.000000 0.000000 0.000000 0.051571 0.000000
# 6 0.000000 0.000000 0.000000 0.000000 0.000000 0.041348
#
#
# Mechanical properties :
#
#
# Convention : Reuss Voigt Hill
#
# Bulk Modulus (GPa) = 30.77295 58.75944 44.76619
# Shear Modulus (GPa) = 13.24778 20.27715 16.76247
#
# Velocity S-wave (km/s) = 2.79074 3.45263 3.13918
# Velocity P-wave (km/s) = 5.33623 7.10198 6.28146
#
# Compressibility (1/GPa) = 0.03249607
#
# Stress axis : x y z
#
# Youngs Moduli (GPa) = 70.16316 81.36009 24.79283
#
# Poissons Ratio (x) = 0.56309 0.18519
# Poissons Ratio (y) = 0.48560 0.06943
# Poissons Ratio (z) = 0.52408 0.22784
#
# Static dielectric constant tensor:
#      x y z
#    x 3.449040 0.000000 0.000000 
#    y 0.000000 3.240800 0.000000 
#    z 0.000000 0.000000 2.934670 
# 
# 
# High freq. dielectric constant tensor:
#      x y z
#    x 1.666560 0.000000 0.000000 
#    y 0.000000 1.635180 0.000000 
#    z 0.000000 0.000000 1.627310 
# 
# From -- ./inp_files/56989.got.cif
#   From: 2010.03.12/outbox.cif.g09.slc.cpg/sg63_29_cif.got.tgz:56989.got - 2010.04.10 19:34:48.
