data_PCOD8256975
_publ_section_title
;
Structure prediction by ZEFSAII (Michael W. Deem and Ramdas Pophale) SiO2 
 PCOD8256975
Probable space group: C M C M
;
_chemical_formula_sum "Si O2"
_cell_formula_units_Z 80
_cell_length_a 27.895992
_cell_length_b 17.917869
_cell_length_c 8.382788
_cell_angle_alpha 90.000000
_cell_angle_beta 90.000000
_cell_angle_gamma 90.000000
_cell_volume 4190.025345
_symmetry_space_group_name_H-M "C M C M"
_symmetry_group_IT_number 63
_symmetry_cell_setting 'orthorhombic'
loop_
_space_group_symop_operation_xyz
x,y,z
-x,-y,1/2+z
x,-y,-z
-x,y,1/2-z
-x,-y,-z
x,y,1/2-z
-x,y,z
x,-y,1/2+z
1/2+x,1/2+y,z
1/2-x,1/2-y,1/2+z
1/2+x,1/2-y,-z
1/2-x,1/2+y,1/2-z
1/2-x,1/2-y,-z
1/2+x,1/2+y,1/2-z
1/2-x,1/2+y,z
1/2+x,1/2-y,1/2+z
loop_
_atom_site_type_symbol
_atom_site_label
_atom_site_fract_x
_atom_site_fract_y
_atom_site_fract_z
Si Si1 0.191228 0.843527 0.565347
Si Si2 0.897324 0.921770 0.061644
Si Si3 0.852555 0.302584 0.563857
Si Si4 0.947436 0.773139 0.060875
Si Si5 0.215514 0.582639 0.564929
O O1 0.186745 0.822366 0.750000
O O2 0.154234 0.908866 0.519762
O O3 0.180856 0.769738 0.462301
O O4 0.244108 0.872970 0.530995
O O5 0.890194 0.922365 0.250000
O O6 0.933769 0.856937 0.006684
O O7 0.918503 0.000000 0.000000
O O8 0.852143 0.322637 0.750000
O O9 0.906632 0.284490 0.501678
O O10 0.834134 0.373283 0.463922
O O11 0.948994 0.770688 0.250000
O O12 0.000000 0.752633 0.989963
O O13 0.209361 0.500000 0.500000
O O14 0.228801 0.580233 0.750000
#
# Coordination Sequence:
#
# PCOD8256975 Si02
#       5
#    16  16  16  16  16
#     4  11  21  35  54  77 107 143 181 214 252 302
#     4  10  19  31  48  73 107 143 179 217 259 305
#     4  10  20  36  57  81 108 138 174 214 258 307
#     4   8  16  32  54  77 101 133 173 216 262 311
#     4  12  24  38  55  78 108 139 174 214 260 309
#
# _framework density 19.092963999999998
#
# number of rings (size 3 to 8) (size 9 to 14) (size 15 to 20)
#    0.000    1.800    0.000    7.200    0.000    0.400 
#    0.000    0.000    0.000   21.600    0.000    0.000 
#    0.000    0.000    0.000    0.000    0.000    0.000 
#
# Total GULP energy -496055.937696 kJ/mol
# GULP energy per Si atom -12401.398442 kJ/mol
# Density = 1.904951 g / cm^3
# Si number density = 19.092964 Si / 1000 Ang^3
#
#
#
# Elastic Constant Matrix: (Units=GPa)
#
#
# Indices 1 2 3 4 5 6 
#
# 1 132.4302 50.5206 13.4735 0.0000 0.0000 0.0000
# 2 50.5206 79.2630 7.7226 0.0000 0.0000 0.0000
# 3 13.4735 7.7226 65.9190 0.0000 0.0000 0.0000
# 4 0.0000 0.0000 0.0000 27.9718 0.0000 0.0000
# 5 0.0000 0.0000 0.0000 0.0000 17.6895 0.0000
# 6 0.0000 0.0000 0.0000 0.0000 0.0000 13.4418
#
#
#
# Elastic Compliance Matrix: (Units=1/GPa)
#
#
# Indices 1 2 3 4 5 6 
#
# 1 0.010090 -0.006302 -0.001324 0.000000 0.000000 0.000000
# 2 -0.006302 0.016698 -0.000668 0.000000 0.000000 0.000000
# 3 -0.001324 -0.000668 0.015519 0.000000 0.000000 0.000000
# 4 0.000000 0.000000 0.000000 0.035750 0.000000 0.000000
# 5 0.000000 0.000000 0.000000 0.000000 0.056531 0.000000
# 6 0.000000 0.000000 0.000000 0.000000 0.000000 0.074395
#
#
# Mechanical properties :
#
#
# Convention : Reuss Voigt Hill
#
# Bulk Modulus (GPa) = 38.88234 46.78284 42.83259
# Shear Modulus (GPa) = 21.35429 25.54697 23.45063
#
# Velocity S-wave (km/s) = 3.34793 3.66188 3.50842
# Velocity P-wave (km/s) = 5.94591 6.51421 6.23654
#
# Compressibility (1/GPa) = 0.02571862
#
# Stress axis : x y z
#
# Youngs Moduli (GPa) = 99.10728 59.88665 64.43706
#
# Poissons Ratio (x) = 0.37742 0.08532
# Poissons Ratio (y) = 0.62459 0.04305
# Poissons Ratio (z) = 0.13122 0.04001
#
# Static dielectric constant tensor:
#      x y z
#    x 3.778260 0.000000 0.000000 
#    y 0.000000 3.508370 0.000000 
#    z 0.000000 0.000000 3.368480 
# 
# 
# High freq. dielectric constant tensor:
#      x y z
#    x 1.734460 0.000000 0.000000 
#    y 0.000000 1.728680 0.000000 
#    z 0.000000 0.000000 1.738180 
# 
# From -- ./inp_files/12046.got.cif
#   From: 2010.03.12/outbox.cif.g09.slc.cpg/sg63_7_cif.got.tgz:12046.got - 2010.04.10 19:34:48.
