data_PCOD8256176
_publ_section_title
;
Structure prediction by ZEFSAII (Michael W. Deem and Ramdas Pophale) SiO2 
 PCOD8256176
Probable space group: C M C M
;
_chemical_formula_sum "Si O2"
_cell_formula_units_Z 72
_cell_length_a 16.598809
_cell_length_b 8.916459
_cell_length_c 26.735112
_cell_angle_alpha 90.000000
_cell_angle_beta 90.000000
_cell_angle_gamma 90.000000
_cell_volume 3956.866085
_symmetry_space_group_name_H-M "C M C M"
_symmetry_group_IT_number 63
_symmetry_cell_setting 'orthorhombic'
loop_
_space_group_symop_operation_xyz
x,y,z
-x,-y,1/2+z
x,-y,-z
-x,y,1/2-z
-x,-y,-z
x,y,1/2-z
-x,y,z
x,-y,1/2+z
1/2+x,1/2+y,z
1/2-x,1/2-y,1/2+z
1/2+x,1/2-y,-z
1/2-x,1/2+y,1/2-z
1/2-x,1/2-y,-z
1/2+x,1/2+y,1/2-z
1/2-x,1/2+y,z
1/2+x,1/2-y,1/2+z
loop_
_atom_site_type_symbol
_atom_site_label
_atom_site_fract_x
_atom_site_fract_y
_atom_site_fract_z
Si Si1 0.852803 0.189489 0.193711
Si Si2 0.863063 0.328419 0.883491
Si Si3 0.241025 0.073936 0.649645
Si Si4 0.500000 0.177991 0.853871
Si Si5 0.500000 0.047417 0.443198
Si Si6 0.000000 0.371400 0.692764
O O1 0.886894 0.192607 0.250000
O O2 0.784365 0.315217 0.188353
O O3 0.922200 0.218353 0.152957
O O4 0.817711 0.026538 0.182709
O O5 0.810902 0.176385 0.889204
O O6 0.804961 0.473416 0.880485
O O7 0.920490 0.353149 0.931580
O O8 0.918882 0.312325 0.834003
O O9 0.500000 0.100461 0.908212
O O10 0.500000 0.051805 0.810570
O O11 0.500000 0.000000 0.500000
O O12 0.000000 0.317729 0.750000
#
# Coordination Sequence:
#
# PCOD8256176 Si02
#       6
#    16  16  16   8   8   8
#     4  11  20  32  52  79 114 152 184 213 258 324
#     4   9  20  36  56  79 107 147 178 231 274 321
#     4  10  20  34  52  79 116 142 180 220 271 316
#     4  10  20  34  51  76 103 141 177 228 267 316
#     4  10  20  41  64  80 100 142 190 230 291 343
#     4  10  18  31  49  71 107 148 188 213 257 323
#
# _framework density 18.196217999999998
#
# number of rings (size 3 to 8) (size 9 to 14) (size 15 to 20)
#    0.000    2.222    4.444    1.667    0.000    6.222 
#    0.000    1.111    0.000    1.333    0.000    0.000 
#    0.000    0.000    0.000    0.000    0.000    0.000 
#
# Total GULP energy -446301.246857 kJ/mol
# GULP energy per Si atom -12397.256857 kJ/mol
# Density = 1.815480 g / cm^3
# Si number density = 18.196218 Si / 1000 Ang^3
#
#
#
# Elastic Constant Matrix: (Units=GPa)
#
#
# Indices 1 2 3 4 5 6 
#
# 1 118.7775 53.5112 38.3542 0.0000 0.0000 0.0000
# 2 53.5112 107.7574 25.1342 0.0000 0.0000 0.0000
# 3 38.3542 25.1342 93.3130 0.0000 0.0000 0.0000
# 4 0.0000 0.0000 0.0000 13.8590 0.0000 0.0000
# 5 0.0000 0.0000 0.0000 0.0000 14.3842 0.0000
# 6 0.0000 0.0000 0.0000 0.0000 0.0000 24.6228
#
#
#
# Elastic Compliance Matrix: (Units=1/GPa)
#
#
# Indices 1 2 3 4 5 6 
#
# 1 0.011827 -0.005057 -0.003499 0.000000 0.000000 0.000000
# 2 -0.005057 0.012065 -0.001171 0.000000 0.000000 0.000000
# 3 -0.003499 -0.001171 0.012470 0.000000 0.000000 0.000000
# 4 0.000000 0.000000 0.000000 0.072155 0.000000 0.000000
# 5 0.000000 0.000000 0.000000 0.000000 0.069521 0.000000
# 6 0.000000 0.000000 0.000000 0.000000 0.000000 0.040613
#
#
# Mechanical properties :
#
#
# Convention : Reuss Voigt Hill
#
# Bulk Modulus (GPa) = 59.14536 61.53857 60.34196
# Shear Modulus (GPa) = 20.51355 24.09643 22.30499
#
# Velocity S-wave (km/s) = 3.36125 3.64298 3.50495
# Velocity P-wave (km/s) = 6.90208 7.18247 7.04367
#
# Compressibility (1/GPa) = 0.01690750
#
# Stress axis : x y z
#
# Youngs Moduli (GPa) = 84.54973 82.88734 80.19047
#
# Poissons Ratio (x) = 0.41917 0.28060
# Poissons Ratio (y) = 0.42758 0.09390
# Poissons Ratio (z) = 0.29586 0.09706
#
# Static dielectric constant tensor:
#      x y z
#    x 3.632280 0.000000 0.000000 
#    y 0.000000 3.359750 0.000000 
#    z 0.000000 0.000000 2.794260 
# 
# 
# High freq. dielectric constant tensor:
#      x y z
#    x 1.727100 0.000000 0.000000 
#    y 0.000000 1.704000 0.000000 
#    z 0.000000 0.000000 1.648910 
# 
# From -- ./inp_files/69690.got.cif
#   From: 2010.03.12/outbox.cif.g09.slc.cpg/sg63_35_cif.got.tgz:69690.got - 2010.04.10 19:34:48.
