data_PCOD8256373
_publ_section_title
;
Structure prediction by ZEFSAII (Michael W. Deem and Ramdas Pophale) SiO2 
 PCOD8256373
Probable space group: C M C M
;
_chemical_formula_sum "Si O2"
_cell_formula_units_Z 104
_cell_length_a 21.851572
_cell_length_b 27.383631
_cell_length_c 8.974555
_cell_angle_alpha 90.000000
_cell_angle_beta 90.000000
_cell_angle_gamma 90.000000
_cell_volume 5370.152798
_symmetry_space_group_name_H-M "C M C M"
_symmetry_group_IT_number 63
_symmetry_cell_setting 'orthorhombic'
loop_
_space_group_symop_operation_xyz
x,y,z
-x,-y,1/2+z
x,-y,-z
-x,y,1/2-z
-x,-y,-z
x,y,1/2-z
-x,y,z
x,-y,1/2+z
1/2+x,1/2+y,z
1/2-x,1/2-y,1/2+z
1/2+x,1/2-y,-z
1/2-x,1/2+y,1/2-z
1/2-x,1/2-y,-z
1/2+x,1/2+y,1/2-z
1/2-x,1/2+y,z
1/2+x,1/2-y,1/2+z
loop_
_atom_site_type_symbol
_atom_site_label
_atom_site_fract_x
_atom_site_fract_y
_atom_site_fract_z
Si Si1 0.883219 0.448390 0.923976
Si Si2 0.168296 0.050512 0.580423
Si Si3 0.193523 0.276048 0.422004
Si Si4 0.211934 0.389261 0.417869
Si Si5 0.430699 0.725708 0.073513
Si Si6 0.500000 0.946270 0.072374
Si Si7 0.430150 0.623981 0.577911
O O1 0.896563 0.455614 0.750000
O O2 0.870379 0.500000 0.000000
O O3 0.825054 0.415343 0.951384
O O4 0.939591 0.420588 0.006946
O O5 0.159003 0.035164 0.750000
O O6 0.219670 0.091852 0.562197
O O7 0.107823 0.077365 0.517371
O O8 0.184147 0.000000 0.500000
O O9 0.196882 0.261749 0.250000
O O10 0.250000 0.250000 0.500000
O O11 0.205509 0.332567 0.449947
O O12 0.124987 0.261148 0.481988
O O13 0.188201 0.401686 0.250000
O O14 0.432133 0.724270 0.250000
O O15 0.500000 0.741588 0.017110
O O16 0.414121 0.672171 0.014448
O O17 0.500000 0.947033 0.250000
O O18 0.500000 0.000000 0.000000
O O19 0.413428 0.634729 0.750000
O O20 0.500000 0.608941 0.557175
#
# Coordination Sequence:
#
# PCOD8256373 Si02
#       7
#    16  16  16  16  16   8  16
#     4  11  21  35  55  79 108 140 179 225 270 322
#     4  10  21  35  52  75 107 143 182 229 273 327
#     4  10  21  37  58  82 111 145 186 233 281 338
#     4  10  21  37  53  76 107 142 185 228 277 330
#     4   9  18  34  56  83 113 143 180 227 276 329
#     4  10  18  32  54  78 104 138 176 214 260 314
#     4   9  18  34  56  81 109 143 180 219 270 329
#
# _framework density 19.366302000000001
#
# number of rings (size 3 to 8) (size 9 to 14) (size 15 to 20)
#    0.000    2.154    0.000    4.385    0.000    5.231 
#    1.385    0.000    0.000    0.000    0.000    0.000 
#    0.000    0.000    0.000    0.000    0.000    0.000 
#
# Total GULP energy -644444.451164 kJ/mol
# GULP energy per Si atom -12393.162522 kJ/mol
# Density = 1.932222 g / cm^3
# Si number density = 19.366302 Si / 1000 Ang^3
#
#
#
# Elastic Constant Matrix: (Units=GPa)
#
#
# Indices 1 2 3 4 5 6 
#
# 1 133.1964 70.7480 43.2657 0.0000 0.0000 0.0000
# 2 70.7480 109.9129 34.7011 0.0000 0.0000 0.0000
# 3 43.2657 34.7011 80.2229 0.0000 0.0000 0.0000
# 4 0.0000 0.0000 0.0000 28.2645 0.0000 0.0000
# 5 0.0000 0.0000 0.0000 0.0000 30.8338 0.0000
# 6 0.0000 0.0000 0.0000 0.0000 0.0000 36.9024
#
#
#
# Elastic Compliance Matrix: (Units=1/GPa)
#
#
# Indices 1 2 3 4 5 6 
#
# 1 0.012295 -0.006741 -0.003715 0.000000 0.000000 0.000000
# 2 -0.006741 0.014233 -0.002521 0.000000 0.000000 0.000000
# 3 -0.003715 -0.002521 0.015559 0.000000 0.000000 0.000000
# 4 0.000000 0.000000 0.000000 0.035380 0.000000 0.000000
# 5 0.000000 0.000000 0.000000 0.000000 0.032432 0.000000
# 6 0.000000 0.000000 0.000000 0.000000 0.000000 0.027099
#
#
# Mechanical properties :
#
#
# Convention : Reuss Voigt Hill
#
# Bulk Modulus (GPa) = 61.98418 68.97354 65.47886
# Shear Modulus (GPa) = 29.70355 30.84129 30.27242
#
# Velocity S-wave (km/s) = 3.92059 3.99497 3.95796
# Velocity P-wave (km/s) = 7.25055 7.54800 7.40077
#
# Compressibility (1/GPa) = 0.01613315
#
# Stress axis : x y z
#
# Youngs Moduli (GPa) = 81.33386 70.25883 64.26999
#
# Poissons Ratio (x) = 0.47362 0.23876
# Poissons Ratio (y) = 0.54828 0.16203
# Poissons Ratio (z) = 0.30216 0.17713
#
# Static dielectric constant tensor:
#      x y z
#    x 4.142830 0.000000 0.000000 
#    y 0.000000 3.107730 0.000000 
#    z 0.000000 0.000000 3.483190 
# 
# 
# High freq. dielectric constant tensor:
#      x y z
#    x 1.774670 0.000000 0.000000 
#    y 0.000000 1.736290 0.000000 
#    z 0.000000 0.000000 1.745090 
# 
# From -- ./inp_files/8761.got.cif
#   From: 2010.03.12/outbox.cif.g09.slc.cpg/sg63_5_cif.got.tgz:8761.got - 2010.04.10 19:34:48.
