data_PCOD8256497
_publ_section_title
;
Structure prediction by ZEFSAII (Michael W. Deem and Ramdas Pophale) SiO2 
 PCOD8256497
Probable space group: C M C M
;
_chemical_formula_sum "Si O2"
_cell_formula_units_Z 96
_cell_length_a 14.372309
_cell_length_b 20.838093
_cell_length_c 15.200566
_cell_angle_alpha 90.000000
_cell_angle_beta 90.000000
_cell_angle_gamma 90.000000
_cell_volume 4552.440488
_symmetry_space_group_name_H-M "C M C M"
_symmetry_group_IT_number 63
_symmetry_cell_setting 'orthorhombic'
loop_
_space_group_symop_operation_xyz
x,y,z
-x,-y,1/2+z
x,-y,-z
-x,y,1/2-z
-x,-y,-z
x,y,1/2-z
-x,y,z
x,-y,1/2+z
1/2+x,1/2+y,z
1/2-x,1/2-y,1/2+z
1/2+x,1/2-y,-z
1/2-x,1/2+y,1/2-z
1/2-x,1/2-y,-z
1/2+x,1/2+y,1/2-z
1/2-x,1/2+y,z
1/2+x,1/2-y,1/2+z
loop_
_atom_site_type_symbol
_atom_site_label
_atom_site_fract_x
_atom_site_fract_y
_atom_site_fract_z
Si Si1 0.297749 0.736520 0.092687
Si Si2 0.500000 0.305112 0.144106
Si Si3 0.000000 0.660798 0.354910
Si Si4 0.693337 0.970150 0.355208
Si Si5 0.500000 0.918929 0.354154
Si Si6 0.309547 0.354461 0.348858
Si Si7 0.305024 0.888220 0.646087
Si Si8 0.000000 0.270972 0.355886
O O1 0.256438 0.791690 0.155883
O O2 0.270235 0.664509 0.119403
O O3 0.409482 0.738862 0.098863
O O4 0.250000 0.750000 0.000000
O O5 0.500000 0.304426 0.250000
O O6 0.500000 0.232927 0.108717
O O7 0.591814 0.339419 0.104513
O O8 0.907509 0.627044 0.392834
O O9 0.000000 0.659585 0.250000
O O10 0.693856 0.964772 0.250000
O O11 0.724925 0.040828 0.387708
O O12 0.590338 0.955264 0.391542
O O13 0.761028 0.915336 0.396296
O O14 0.500000 0.922604 0.250000
O O15 0.500000 0.845133 0.383394
O O16 0.331847 0.374845 0.250000
O O17 0.313078 0.889416 0.750000
O O18 0.000000 0.260567 0.250000
#
# Coordination Sequence:
#
# PCOD8256497 Si02
#       8
#    16   8   8  16   8  16  16   8
#     4  12  25  38  57  86 121 161 204 258 309 364
#     4   9  16  26  50  82 103 131 181 236 292 352
#     4   9  15  25  50  82 108 135 173 229 301 362
#     4   9  17  29  53  85 113 146 195 255 311 364
#     4   9  15  28  56  90 117 144 190 254 304 360
#     4  10  18  34  56  79 108 148 198 248 301 366
#     4  10  19  34  55  84 119 154 197 254 314 369
#     4  11  22  41  68  92 120 164 220 261 300 372
#
# _framework density 21.087589000000001
#
# number of rings (size 3 to 8) (size 9 to 14) (size 15 to 20)
#    0.000    2.000    3.333    2.000    0.000    3.333 
#    0.000    1.667    0.000    4.000    0.000    2.333 
#    0.000    0.000    0.000    0.000    0.000    0.000 
#
# Total GULP energy -594920.741231 kJ/mol
# GULP energy per Si atom -12394.182109 kJ/mol
# Density = 2.103959 g / cm^3
# Si number density = 21.087589 Si / 1000 Ang^3
#
#
#
# Elastic Constant Matrix: (Units=GPa)
#
#
# Indices 1 2 3 4 5 6 
#
# 1 172.7970 87.3386 11.6826 0.0000 0.0000 0.0000
# 2 87.3386 198.9827 10.2342 0.0000 0.0000 0.0000
# 3 11.6826 10.2342 21.6442 0.0000 0.0000 0.0000
# 4 0.0000 0.0000 0.0000 9.3482 0.0000 0.0000
# 5 0.0000 0.0000 0.0000 0.0000 14.5664 0.0000
# 6 0.0000 0.0000 0.0000 0.0000 0.0000 39.8869
#
#
#
# Elastic Compliance Matrix: (Units=1/GPa)
#
#
# Indices 1 2 3 4 5 6 
#
# 1 0.007575 -0.003192 -0.002579 0.000000 0.000000 0.000000
# 2 -0.003192 0.006496 -0.001349 0.000000 0.000000 0.000000
# 3 -0.002579 -0.001349 0.048231 0.000000 0.000000 0.000000
# 4 0.000000 0.000000 0.000000 0.106973 0.000000 0.000000
# 5 0.000000 0.000000 0.000000 0.000000 0.068651 0.000000
# 6 0.000000 0.000000 0.000000 0.000000 0.000000 0.025071
#
#
# Mechanical properties :
#
#
# Convention : Reuss Voigt Hill
#
# Bulk Modulus (GPa) = 20.80624 67.99273 44.39948
# Shear Modulus (GPa) = 17.04983 31.70487 24.37735
#
# Velocity S-wave (km/s) = 2.84654 3.88169 3.40370
# Velocity P-wave (km/s) = 4.54882 7.23899 6.04544
#
# Compressibility (1/GPa) = 0.04806251
#
# Stress axis : x y z
#
# Youngs Moduli (GPa) = 132.01357 153.93951 20.73334
#
# Poissons Ratio (x) = 0.49140 0.05348
# Poissons Ratio (y) = 0.42141 0.02796
# Poissons Ratio (z) = 0.34050 0.20760
#
# Static dielectric constant tensor:
#      x y z
#    x 4.048360 0.000000 0.000000 
#    y 0.000000 3.367770 0.000000 
#    z 0.000000 0.000000 3.563350 
# 
# 
# High freq. dielectric constant tensor:
#      x y z
#    x 1.823630 0.000000 0.000000 
#    y 0.000000 1.827010 0.000000 
#    z 0.000000 0.000000 1.787280 
# 
# From -- ./inp_files/31999.got.cif
#   From: 2010.03.12/outbox.cif.g09.slc.cpg/sg63_16_cif.got.tgz:31999.got - 2010.04.10 19:34:48.
