data_PCOD8256985
_publ_section_title
;
Structure prediction by ZEFSAII (Michael W. Deem and Ramdas Pophale) SiO2 
 PCOD8256985
Probable space group: C M C M
;
_chemical_formula_sum "Si O2"
_cell_formula_units_Z 64
_cell_length_a 28.921909
_cell_length_b 10.587476
_cell_length_c 9.720598
_cell_angle_alpha 90.000000
_cell_angle_beta 90.000000
_cell_angle_gamma 90.000000
_cell_volume 2976.544483
_symmetry_space_group_name_H-M "C M C M"
_symmetry_group_IT_number 63
_symmetry_cell_setting 'orthorhombic'
loop_
_space_group_symop_operation_xyz
x,y,z
-x,-y,1/2+z
x,-y,-z
-x,y,1/2-z
-x,-y,-z
x,y,1/2-z
-x,y,z
x,-y,1/2+z
1/2+x,1/2+y,z
1/2-x,1/2-y,1/2+z
1/2+x,1/2-y,-z
1/2-x,1/2+y,1/2-z
1/2-x,1/2-y,-z
1/2+x,1/2+y,1/2-z
1/2-x,1/2+y,z
1/2+x,1/2-y,1/2+z
loop_
_atom_site_type_symbol
_atom_site_label
_atom_site_fract_x
_atom_site_fract_y
_atom_site_fract_z
Si Si1 0.192344 0.173594 0.100866
Si Si2 0.054264 0.617911 0.908715
Si Si3 0.409118 0.389570 0.904665
Si Si4 0.792945 0.394562 0.903202
O O1 0.192429 0.247470 0.250000
O O2 0.146155 0.090727 0.092915
O O3 0.237481 0.084754 0.099599
O O4 0.193874 0.261563 0.968174
O O5 0.066516 0.589167 0.750000
O O6 0.078368 0.748497 0.958138
O O7 0.000000 0.636243 0.930799
O O8 0.072551 0.500000 0.000000
O O9 0.428874 0.406640 0.750000
O O10 0.431086 0.500000 0.000000
O O11 0.813929 0.402551 0.750000
O O12 0.815966 0.500000 0.000000
#
# Coordination Sequence:
#
# PCOD8256985 Si02
#       4
#    16  16  16  16
#     4   9  19  34  49  69  99 134 173 216 261 310
#     4   9  19  37  59  82 109 141 177 218 264 315
#     4  10  21  36  55  81 112 143 177 219 266 318
#     4  10  19  31  49  70  95 131 174 219 265 313
#
# _framework density 21.501442999999998
#
# number of rings (size 3 to 8) (size 9 to 14) (size 15 to 20)
#    0.000    2.500    0.000    1.500    0.000    4.500 
#    0.000    2.500    0.000    0.000    0.000    0.000 
#    0.000    0.000    0.000    0.000    0.000    0.000 
#
# Total GULP energy -396585.562370 kJ/mol
# GULP energy per Si atom -12393.298824 kJ/mol
# Density = 2.145250 g / cm^3
# Si number density = 21.501443 Si / 1000 Ang^3
#
#
#
# Elastic Constant Matrix: (Units=GPa)
#
#
# Indices 1 2 3 4 5 6 
#
# 1 29.7655 7.2518 8.1695 0.0000 0.0000 0.0000
# 2 7.2518 128.8411 81.4410 0.0000 0.0000 0.0000
# 3 8.1695 81.4410 168.6403 0.0000 0.0000 0.0000
# 4 0.0000 0.0000 0.0000 47.3150 0.0000 0.0000
# 5 0.0000 0.0000 0.0000 0.0000 16.9981 0.0000
# 6 0.0000 0.0000 0.0000 0.0000 0.0000 12.1341
#
#
#
# Elastic Compliance Matrix: (Units=1/GPa)
#
#
# Indices 1 2 3 4 5 6 
#
# 1 0.034191 -0.001263 -0.001046 0.000000 0.000000 0.000000
# 2 -0.001263 0.011218 -0.005357 0.000000 0.000000 0.000000
# 3 -0.001046 -0.005357 0.008567 0.000000 0.000000 0.000000
# 4 0.000000 0.000000 0.000000 0.021135 0.000000 0.000000
# 5 0.000000 0.000000 0.000000 0.000000 0.058830 0.000000
# 6 0.000000 0.000000 0.000000 0.000000 0.000000 0.082412
#
#
# Mechanical properties :
#
#
# Convention : Reuss Voigt Hill
#
# Bulk Modulus (GPa) = 25.87672 57.88575 41.88123
# Shear Modulus (GPa) = 20.44425 30.64841 25.54633
#
# Velocity S-wave (km/s) = 3.08690 3.77956 3.45065
# Velocity P-wave (km/s) = 4.97657 6.78432 5.94951
#
# Compressibility (1/GPa) = 0.03864478
#
# Stress axis : x y z
#
# Youngs Moduli (GPa) = 29.24759 89.13877 116.72315
#
# Poissons Ratio (x) = 0.11258 0.12214
# Poissons Ratio (y) = 0.03694 0.62523
# Poissons Ratio (z) = 0.03060 0.47747
#
# Static dielectric constant tensor:
#      x y z
#    x 3.653510 0.000000 0.000000 
#    y 0.000000 3.532650 0.000000 
#    z 0.000000 0.000000 4.118210 
# 
# 
# High freq. dielectric constant tensor:
#      x y z
#    x 1.821640 0.000000 0.000000 
#    y 0.000000 1.823590 0.000000 
#    z 0.000000 0.000000 1.853010 
# 
# From -- ./inp_files/13708.got.cif
#   From: 2010.03.12/outbox.cif.g09.slc.cpg/sg63_7_cif.got.tgz:13708.got - 2010.04.10 19:34:48.
