data_PCOD8256015
_publ_section_title
;
Structure prediction by ZEFSAII (Michael W. Deem and Ramdas Pophale) SiO2 
 PCOD8256015
Probable space group: C M C M
;
_chemical_formula_sum "Si O2"
_cell_formula_units_Z 88
_cell_length_a 16.986648
_cell_length_b 28.774981
_cell_length_c 8.776368
_cell_angle_alpha 90.000000
_cell_angle_beta 90.000000
_cell_angle_gamma 90.000000
_cell_volume 4289.805070
_symmetry_space_group_name_H-M "C M C M"
_symmetry_group_IT_number 63
_symmetry_cell_setting 'orthorhombic'
loop_
_space_group_symop_operation_xyz
x,y,z
-x,-y,1/2+z
x,-y,-z
-x,y,1/2-z
-x,-y,-z
x,y,1/2-z
-x,y,z
x,-y,1/2+z
1/2+x,1/2+y,z
1/2-x,1/2-y,1/2+z
1/2+x,1/2-y,-z
1/2-x,1/2+y,1/2-z
1/2-x,1/2-y,-z
1/2+x,1/2+y,1/2-z
1/2-x,1/2+y,z
1/2+x,1/2-y,1/2+z
loop_
_atom_site_type_symbol
_atom_site_label
_atom_site_fract_x
_atom_site_fract_y
_atom_site_fract_z
Si Si1 0.318844 0.449463 0.068702
Si Si2 0.000000 0.549600 0.569688
Si Si3 0.159769 0.596128 0.930178
Si Si4 0.409038 0.633141 0.429415
Si Si5 0.085359 0.314075 0.429408
Si Si6 0.325348 0.274121 0.571964
O O1 0.319087 0.453320 0.250000
O O2 0.236042 0.429671 0.000995
O O3 0.335667 0.500000 0.000000
O O4 0.386748 0.414079 0.016392
O O5 0.000000 0.500000 0.500000
O O6 0.079075 0.573824 0.509213
O O7 0.000000 0.548010 0.750000
O O8 0.167490 0.592236 0.750000
O O9 0.153533 0.650065 0.986882
O O10 0.396751 0.625958 0.250000
O O11 0.500000 0.644978 0.465421
O O12 0.352899 0.675394 0.490237
O O13 0.079378 0.322000 0.250000
O O14 0.103999 0.260991 0.467903
O O15 0.000000 0.325974 0.501781
O O16 0.309591 0.277684 0.750000
O O17 0.250000 0.250000 0.500000
#
# Coordination Sequence:
#
# PCOD8256015 Si02
#       6
#    16   8  16  16  16  16
#     4  11  23  39  60  86 114 148 191 242 302 360
#     4  10  18  30  48  72 104 144 186 230 275 322
#     4   9  17  30  50  79 112 145 186 231 278 333
#     4  10  22  41  62  86 117 153 196 244 292 347
#     4   9  15  27  50  79 108 141 184 227 261 311
#     4  10  20  34  56  86 117 150 187 229 280 336
#
# _framework density 20.513753000000001
#
# number of rings (size 3 to 8) (size 9 to 14) (size 15 to 20)
#    0.000    2.182    0.909    2.727    0.000    5.091 
#    0.000    0.909    0.000    2.727    0.000    0.000 
#    0.000    0.000    0.000    0.000    0.000    0.000 
#
# Total GULP energy -545234.270413 kJ/mol
# GULP energy per Si atom -12391.687964 kJ/mol
# Density = 2.046706 g / cm^3
# Si number density = 20.513753 Si / 1000 Ang^3
#
#
#
# Elastic Constant Matrix: (Units=GPa)
#
#
# Indices 1 2 3 4 5 6 
#
# 1 110.9977 54.1278 28.9363 0.0000 0.0000 0.0000
# 2 54.1278 170.9766 37.5862 0.0000 0.0000 0.0000
# 3 28.9363 37.5862 32.1198 0.0000 0.0000 0.0000
# 4 0.0000 0.0000 0.0000 23.8183 0.0000 0.0000
# 5 0.0000 0.0000 0.0000 0.0000 22.8652 0.0000
# 6 0.0000 0.0000 0.0000 0.0000 0.0000 21.8150
#
#
#
# Elastic Compliance Matrix: (Units=1/GPa)
#
#
# Indices 1 2 3 4 5 6 
#
# 1 0.012241 -0.001953 -0.008742 0.000000 0.000000 0.000000
# 2 -0.001953 0.008186 -0.007820 0.000000 0.000000 0.000000
# 3 -0.008742 -0.007820 0.048159 0.000000 0.000000 0.000000
# 4 0.000000 0.000000 0.000000 0.041984 0.000000 0.000000
# 5 0.000000 0.000000 0.000000 0.000000 0.043735 0.000000
# 6 0.000000 0.000000 0.000000 0.000000 0.000000 0.045840
#
#
# Mechanical properties :
#
#
# Convention : Reuss Voigt Hill
#
# Bulk Modulus (GPa) = 31.68895 61.71051 46.69973
# Shear Modulus (GPa) = 20.18632 26.59597 23.39114
#
# Velocity S-wave (km/s) = 3.14034 3.60459 3.38045
# Velocity P-wave (km/s) = 5.35072 6.88999 6.16855
#
# Compressibility (1/GPa) = 0.03155674
#
# Stress axis : x y z
#
# Youngs Moduli (GPa) = 81.69502 122.15730 20.76460
#
# Poissons Ratio (x) = 0.23863 0.18151
# Poissons Ratio (y) = 0.15959 0.16237
# Poissons Ratio (z) = 0.71414 0.95521
#
# Static dielectric constant tensor:
#      x y z
#    x 3.757070 0.000000 0.000000 
#    y 0.000000 3.789820 0.000000 
#    z 0.000000 0.000000 3.251690 
# 
# 
# High freq. dielectric constant tensor:
#      x y z
#    x 1.810550 0.000000 0.000000 
#    y 0.000000 1.821320 0.000000 
#    z 0.000000 0.000000 1.749810 
# 
# From -- ./inp_files/6784.got.cif
#   From: 2010.03.12/outbox.cif.g09.slc.cpg/sg63_4_cif.got.tgz:6784.got - 2010.04.10 19:34:48.
