data_PCOD8256376
_publ_section_title
;
Structure prediction by ZEFSAII (Michael W. Deem and Ramdas Pophale) SiO2 
 PCOD8256376
Probable space group: C M C M
;
_chemical_formula_sum "Si O2"
_cell_formula_units_Z 48
_cell_length_a 9.366502
_cell_length_b 18.638848
_cell_length_c 17.324646
_cell_angle_alpha 90.000000
_cell_angle_beta 90.000000
_cell_angle_gamma 90.000000
_cell_volume 3024.550681
_symmetry_space_group_name_H-M "C M C M"
_symmetry_group_IT_number 63
_symmetry_cell_setting 'orthorhombic'
loop_
_space_group_symop_operation_xyz
x,y,z
-x,-y,1/2+z
x,-y,-z
-x,y,1/2-z
-x,-y,-z
x,y,1/2-z
-x,y,z
x,-y,1/2+z
1/2+x,1/2+y,z
1/2-x,1/2-y,1/2+z
1/2+x,1/2-y,-z
1/2-x,1/2+y,1/2-z
1/2-x,1/2-y,-z
1/2+x,1/2+y,1/2-z
1/2-x,1/2+y,z
1/2+x,1/2-y,1/2+z
loop_
_atom_site_type_symbol
_atom_site_label
_atom_site_fract_x
_atom_site_fract_y
_atom_site_fract_z
Si Si1 0.342198 0.885020 0.662628
Si Si2 0.500000 0.995166 0.408775
Si Si3 0.000000 0.338163 0.159079
Si Si4 0.158054 0.773403 0.572274
O O1 0.286068 0.892761 0.750000
O O2 0.500000 0.847715 0.660751
O O3 0.230006 0.839803 0.614624
O O4 0.358758 0.964534 0.624957
O O5 0.500000 0.913602 0.383351
O O6 0.500000 0.000000 0.500000
O O7 0.859231 0.293617 0.131864
O O8 0.000000 0.349290 0.250000
O O9 0.250000 0.750000 0.500000
O O10 0.000000 0.797560 0.543777
#
# Coordination Sequence:
#
# PCOD8256376 Si02
#       4
#    16   8   8  16
#     4   9  18  32  52  76 104 139 176 216 266 320
#     4  10  18  32  54  78 107 138 179 220 268 322
#     4  10  20  32  54  82 106 136 182 226 262 312
#     4  10  20  32  53  78 108 139 178 221 266 317
#
# _framework density 15.870126000000001
#
# number of rings (size 3 to 8) (size 9 to 14) (size 15 to 20)
#    2.000    0.333    0.000    5.000    0.000    0.000 
#    0.000    0.000    0.000   11.000    0.000    0.000 
#    0.000    0.000    0.000    0.000    0.000    0.000 
#
# Total GULP energy -297318.256795 kJ/mol
# GULP energy per Si atom -12388.260700 kJ/mol
# Density = 1.583400 g / cm^3
# Si number density = 15.870126 Si / 1000 Ang^3
#
#
#
# Elastic Constant Matrix: (Units=GPa)
#
#
# Indices 1 2 3 4 5 6 
#
# 1 65.1581 16.6206 13.7963 0.0000 0.0000 0.0000
# 2 16.6206 90.2029 9.9675 0.0000 0.0000 0.0000
# 3 13.7963 9.9675 90.3843 0.0000 0.0000 0.0000
# 4 0.0000 0.0000 0.0000 34.8249 0.0000 0.0000
# 5 0.0000 0.0000 0.0000 0.0000 30.8256 0.0000
# 6 0.0000 0.0000 0.0000 0.0000 0.0000 26.6563
#
#
#
# Elastic Compliance Matrix: (Units=1/GPa)
#
#
# Indices 1 2 3 4 5 6 
#
# 1 0.016531 -0.002801 -0.002214 0.000000 0.000000 0.000000
# 2 -0.002801 0.011698 -0.000862 0.000000 0.000000 0.000000
# 3 -0.002214 -0.000862 0.011497 0.000000 0.000000 0.000000
# 4 0.000000 0.000000 0.000000 0.028715 0.000000 0.000000
# 5 0.000000 0.000000 0.000000 0.000000 0.032441 0.000000
# 6 0.000000 0.000000 0.000000 0.000000 0.000000 0.037515
#
#
# Mechanical properties :
#
#
# Convention : Reuss Voigt Hill
#
# Bulk Modulus (GPa) = 35.75351 36.27933 36.01642
# Shear Modulus (GPa) = 31.35299 32.15210 31.75255
#
# Velocity S-wave (km/s) = 4.44959 4.50594 4.47785
# Velocity P-wave (km/s) = 6.99830 7.06973 7.03411
#
# Compressibility (1/GPa) = 0.02796928
#
# Stress axis : x y z
#
# Youngs Moduli (GPa) = 60.49357 85.48793 86.97943
#
# Poissons Ratio (x) = 0.23947 0.19260
# Poissons Ratio (y) = 0.16946 0.07501
# Poissons Ratio (z) = 0.13395 0.07373
#
# Static dielectric constant tensor:
#      x y z
#    x 2.815510 0.000000 0.000000 
#    y 0.000000 3.072070 0.000000 
#    z 0.000000 0.000000 3.436740 
# 
# 
# High freq. dielectric constant tensor:
#      x y z
#    x 1.583610 0.000000 0.000000 
#    y 0.000000 1.600930 0.000000 
#    z 0.000000 0.000000 1.626870 
# 
# From -- ./inp_files/39717.got.cif
#   From: 2010.03.12/outbox.cif.g09.slc.cpg/sg63_20_cif.got.tgz:39717.got - 2010.04.10 19:34:48.
