data_PCOD8256136
_publ_section_title
;
Structure prediction by ZEFSAII (Michael W. Deem and Ramdas Pophale) SiO2 
 PCOD8256136
Probable space group: C M C M
;
_chemical_formula_sum "Si O2"
_cell_formula_units_Z 104
_cell_length_a 28.537302
_cell_length_b 19.941045
_cell_length_c 8.849339
_cell_angle_alpha 90.000000
_cell_angle_beta 90.000000
_cell_angle_gamma 90.000000
_cell_volume 5035.836916
_symmetry_space_group_name_H-M "C M C M"
_symmetry_group_IT_number 63
_symmetry_cell_setting 'orthorhombic'
loop_
_space_group_symop_operation_xyz
x,y,z
-x,-y,1/2+z
x,-y,-z
-x,y,1/2-z
-x,-y,-z
x,y,1/2-z
-x,y,z
x,-y,1/2+z
1/2+x,1/2+y,z
1/2-x,1/2-y,1/2+z
1/2+x,1/2-y,-z
1/2-x,1/2+y,1/2-z
1/2-x,1/2-y,-z
1/2+x,1/2+y,1/2-z
1/2-x,1/2+y,z
1/2+x,1/2-y,1/2+z
loop_
_atom_site_type_symbol
_atom_site_label
_atom_site_fract_x
_atom_site_fract_y
_atom_site_fract_z
Si Si1 0.114907 0.427998 0.429464
Si Si2 0.411261 0.433211 0.582719
Si Si3 0.623687 0.707435 0.079432
Si Si4 0.777724 0.569908 0.927108
Si Si5 0.055282 0.691766 0.429498
Si Si6 0.719027 0.694990 0.927644
Si Si7 0.500000 0.573499 0.572489
O O1 0.102147 0.500000 0.500000
O O2 0.106784 0.430277 0.250000
O O3 0.168842 0.408914 0.469984
O O4 0.080397 0.373717 0.503058
O O5 0.391887 0.500000 0.500000
O O6 0.427521 0.456162 0.750000
O O7 0.374644 0.373651 0.590230
O O8 0.452899 0.394756 0.492634
O O9 0.629311 0.736616 0.250000
O O10 0.578367 0.741904 0.003823
O O11 0.667899 0.719180 0.975379
O O12 0.774129 0.560187 0.750000
O O13 0.739361 0.623636 0.985906
O O14 0.763386 0.500000 0.000000
O O15 0.062540 0.693913 0.250000
O O16 0.000000 0.690963 0.470322
O O17 0.722741 0.696833 0.750000
O O18 0.750000 0.750000 0.000000
O O19 0.500000 0.500000 0.500000
O O20 0.500000 0.577080 0.750000
#
# Coordination Sequence:
#
# PCOD8256136 Si02
#       7
#    16  16  16  16  16  16   8
#     4  10  20  38  65  95 128 164 203 248 302 366
#     4  10  21  37  57  82 113 151 196 245 296 353
#     4  11  25  42  61  87 120 160 205 252 307 367
#     4   9  20  37  60  92 125 159 199 244 297 359
#     4  11  25  43  63  90 122 159 207 260 316 373
#     4  11  23  40  63  90 122 159 202 249 301 363
#     4  10  18  30  52  78 106 140 183 232 283 340
#
# _framework density 20.651979999999998
#
# number of rings (size 3 to 8) (size 9 to 14) (size 15 to 20)
#    0.000    1.692    0.000    4.846    1.077    7.692 
#    0.000    3.077    0.000    0.000    0.000    0.000 
#    0.000    0.000    0.000    0.000    0.000    0.000 
#
# Total GULP energy -644355.544867 kJ/mol
# GULP energy per Si atom -12391.452786 kJ/mol
# Density = 2.060498 g / cm^3
# Si number density = 20.651980 Si / 1000 Ang^3
#
#
#
# Elastic Constant Matrix: (Units=GPa)
#
#
# Indices 1 2 3 4 5 6 
#
# 1 102.3501 46.8492 42.8609 0.0000 0.0000 0.0000
# 2 46.8492 120.0576 51.1719 0.0000 0.0000 0.0000
# 3 42.8609 51.1719 125.7594 0.0000 0.0000 0.0000
# 4 0.0000 0.0000 0.0000 35.6782 0.0000 0.0000
# 5 0.0000 0.0000 0.0000 0.0000 29.1538 0.0000
# 6 0.0000 0.0000 0.0000 0.0000 0.0000 37.6902
#
#
#
# Elastic Compliance Matrix: (Units=1/GPa)
#
#
# Indices 1 2 3 4 5 6 
#
# 1 0.012654 -0.003750 -0.002787 0.000000 0.000000 0.000000
# 2 -0.003750 0.011188 -0.003275 0.000000 0.000000 0.000000
# 3 -0.002787 -0.003275 0.010234 0.000000 0.000000 0.000000
# 4 0.000000 0.000000 0.000000 0.028028 0.000000 0.000000
# 5 0.000000 0.000000 0.000000 0.000000 0.034301 0.000000
# 6 0.000000 0.000000 0.000000 0.000000 0.000000 0.026532
#
#
# Mechanical properties :
#
#
# Convention : Reuss Voigt Hill
#
# Bulk Modulus (GPa) = 69.18724 69.99235 69.58980
# Shear Modulus (GPa) = 33.92641 34.32346 34.12493
#
# Velocity S-wave (km/s) = 4.05750 4.08118 4.06936
# Velocity P-wave (km/s) = 7.45153 7.49486 7.47323
#
# Compressibility (1/GPa) = 0.01445353
#
# Stress axis : x y z
#
# Youngs Moduli (GPa) = 79.02694 89.37843 97.71470
#
# Poissons Ratio (x) = 0.33517 0.27231
# Poissons Ratio (y) = 0.29636 0.31997
# Poissons Ratio (z) = 0.22023 0.29267
#
# Static dielectric constant tensor:
#      x y z
#    x 5.380680 0.000000 0.000000 
#    y 0.000000 3.724290 0.000000 
#    z 0.000000 0.000000 3.882860 
# 
# 
# High freq. dielectric constant tensor:
#      x y z
#    x 1.804840 0.000000 0.000000 
#    y 0.000000 1.814760 0.000000 
#    z 0.000000 0.000000 1.820690 
# 
# From -- ./inp_files/12565.got.cif
#   From: 2010.03.12/outbox.cif.g09.slc.cpg/sg63_7_cif.got.tgz:12565.got - 2010.04.10 19:34:48.
