data_PCOD8256149
_publ_section_title
;
Structure prediction by ZEFSAII (Michael W. Deem and Ramdas Pophale) SiO2 
 PCOD8256149
Probable space group: C M C M
;
_chemical_formula_sum "Si O2"
_cell_formula_units_Z 112
_cell_length_a 20.483857
_cell_length_b 17.218059
_cell_length_c 19.356247
_cell_angle_alpha 90.000000
_cell_angle_beta 90.000000
_cell_angle_gamma 90.000000
_cell_volume 6826.798468
_symmetry_space_group_name_H-M "C M C M"
_symmetry_group_IT_number 63
_symmetry_cell_setting 'orthorhombic'
loop_
_space_group_symop_operation_xyz
x,y,z
-x,-y,1/2+z
x,-y,-z
-x,y,1/2-z
-x,-y,-z
x,y,1/2-z
-x,y,z
x,-y,1/2+z
1/2+x,1/2+y,z
1/2-x,1/2-y,1/2+z
1/2+x,1/2-y,-z
1/2-x,1/2+y,1/2-z
1/2-x,1/2-y,-z
1/2+x,1/2+y,1/2-z
1/2-x,1/2+y,z
1/2+x,1/2-y,1/2+z
loop_
_atom_site_type_symbol
_atom_site_label
_atom_site_fract_x
_atom_site_fract_y
_atom_site_fract_z
Si Si1 0.574369 0.920367 0.568089
Si Si2 0.175322 0.142778 0.826915
Si Si3 0.709850 0.512521 0.577241
Si Si4 0.722549 0.635119 0.329968
Si Si5 0.323100 0.800563 0.173534
Si Si6 0.632235 0.191240 0.329077
Si Si7 0.857540 0.427914 0.426161
O O1 0.500000 0.925992 0.542914
O O2 0.579786 0.851458 0.623152
O O3 0.621389 0.903685 0.503128
O O4 0.596302 0.002643 0.601832
O O5 0.156342 0.112552 0.750000
O O6 0.164802 0.075994 0.883802
O O7 0.249834 0.169012 0.825251
O O8 0.131404 0.217175 0.846903
O O9 0.682487 0.500000 0.500000
O O10 0.701911 0.433572 0.619771
O O11 0.783636 0.542389 0.573619
O O12 0.712873 0.610749 0.250000
O O13 0.677748 0.709912 0.348278
O O14 0.797563 0.654488 0.344232
O O15 0.353611 0.809189 0.250000
O O16 0.366340 0.851923 0.121458
O O17 0.611990 0.178076 0.250000
#
# Coordination Sequence:
#
# PCOD8256149 Si02
#       7
#    16  16  16  16  16  16  16
#     4  11  21  33  46  61  87 124 162 196 229 256
#     4   8  16  28  42  62  88 119 146 177 224 272
#     4  11  17  25  42  67  94 120 153 176 209 267
#     4   9  16  28  44  65  92 119 145 180 224 270
#     4   8  16  28  45  65  85 115 152 183 220 272
#     4   9  17  31  46  61  85 115 152 191 226 263
#     4  10  18  31  43  60  89 123 154 186 227 262
#
# _framework density 16.405933999999998
#
# number of rings (size 3 to 8) (size 9 to 14) (size 15 to 20)
#    0.000    2.571    2.857    3.000    0.000    2.571 
#    0.000    4.286    0.000    1.286    0.000    0.000 
#    0.000    6.286    0.000   12.429    0.000    0.000 
#
# Total GULP energy -694125.138367 kJ/mol
# GULP energy per Si atom -12395.091757 kJ/mol
# Density = 1.636859 g / cm^3
# Si number density = 16.405934 Si / 1000 Ang^3
#
#
#
# Elastic Constant Matrix: (Units=GPa)
#
#
# Indices 1 2 3 4 5 6 
#
# 1 28.7412 22.6352 21.9174 0.0000 0.0000 0.0000
# 2 22.6352 122.5902 85.3450 0.0000 0.0000 0.0000
# 3 21.9174 85.3450 109.6736 0.0000 0.0000 0.0000
# 4 0.0000 0.0000 0.0000 27.7152 0.0000 0.0000
# 5 0.0000 0.0000 0.0000 0.0000 6.5102 0.0000
# 6 0.0000 0.0000 0.0000 0.0000 0.0000 10.9686
#
#
#
# Elastic Compliance Matrix: (Units=1/GPa)
#
#
# Indices 1 2 3 4 5 6 
#
# 1 0.042005 -0.004172 -0.005148 0.000000 0.000000 0.000000
# 2 -0.004172 0.018215 -0.013341 0.000000 0.000000 0.000000
# 3 -0.005148 -0.013341 0.020528 0.000000 0.000000 0.000000
# 4 0.000000 0.000000 0.000000 0.036081 0.000000 0.000000
# 5 0.000000 0.000000 0.000000 0.000000 0.153605 0.000000
# 6 0.000000 0.000000 0.000000 0.000000 0.000000 0.091169
#
#
# Mechanical properties :
#
#
# Convention : Reuss Voigt Hill
#
# Bulk Modulus (GPa) = 28.22724 57.86669 43.04696
# Shear Modulus (GPa) = 11.94076 17.77929 14.86003
#
# Velocity S-wave (km/s) = 2.70076 3.29555 3.01287
# Velocity P-wave (km/s) = 5.19311 7.05898 6.19668
#
# Compressibility (1/GPa) = 0.03542677
#
# Stress axis : x y z
#
# Youngs Moduli (GPa) = 23.80695 54.89905 48.71351
#
# Poissons Ratio (x) = 0.22904 0.25076
# Poissons Ratio (y) = 0.09932 0.64988
# Poissons Ratio (z) = 0.12255 0.73240
#
# Static dielectric constant tensor:
#      x y z
#    x 2.563970 0.000000 0.000000 
#    y 0.000000 3.366260 0.000000 
#    z 0.000000 0.000000 3.258050 
# 
# 
# High freq. dielectric constant tensor:
#      x y z
#    x 1.564500 0.000000 0.000000 
#    y 0.000000 1.639600 0.000000 
#    z 0.000000 0.000000 1.636390 
# 
# From -- ./inp_files/48351.got.cif
#   From: 2010.03.12/outbox.cif.g09.slc.cpg/sg63_25_cif.got.tgz:48351.got - 2010.04.10 19:34:48.
