data_PCOD8256465
_publ_section_title
;
Structure prediction by ZEFSAII (Michael W. Deem and Ramdas Pophale) SiO2 
 PCOD8256465
Probable space group: C M C M
;
_chemical_formula_sum "Si O2"
_cell_formula_units_Z 80
_cell_length_a 8.536061
_cell_length_b 29.265240
_cell_length_c 15.695356
_cell_angle_alpha 90.000000
_cell_angle_beta 90.000000
_cell_angle_gamma 90.000000
_cell_volume 3920.854902
_symmetry_space_group_name_H-M "C M C M"
_symmetry_group_IT_number 63
_symmetry_cell_setting 'orthorhombic'
loop_
_space_group_symop_operation_xyz
x,y,z
-x,-y,1/2+z
x,-y,-z
-x,y,1/2-z
-x,-y,-z
x,y,1/2-z
-x,y,z
x,-y,1/2+z
1/2+x,1/2+y,z
1/2-x,1/2-y,1/2+z
1/2+x,1/2-y,-z
1/2-x,1/2+y,1/2-z
1/2-x,1/2-y,-z
1/2+x,1/2+y,1/2-z
1/2-x,1/2+y,z
1/2+x,1/2-y,1/2+z
loop_
_atom_site_type_symbol
_atom_site_label
_atom_site_fract_x
_atom_site_fract_y
_atom_site_fract_z
Si Si1 0.814416 0.199498 0.999537
Si Si2 0.182885 0.955699 0.596835
Si Si3 0.814131 0.858951 0.656497
Si Si4 0.318650 0.636998 0.845177
Si Si5 0.818455 0.451523 0.413341
O O1 0.756646 0.173760 0.913946
O O2 0.000000 0.201354 0.002612
O O3 0.750000 0.250000 0.000000
O O4 0.744514 0.173373 0.082406
O O5 0.245043 0.910976 0.646110
O O6 0.212525 0.947050 0.497144
O O7 0.000000 0.963789 0.612856
O O8 0.276303 0.000069 0.631276
O O9 0.760909 0.841078 0.750000
O O10 0.000000 0.858774 0.647916
O O11 0.293380 0.657042 0.750000
O O12 0.500000 0.625776 0.862475
O O13 0.221283 0.590192 0.851211
O O14 0.000000 0.450845 0.438405
#
# Coordination Sequence:
#
# PCOD8256465 Si02
#       5
#    16  16  16  16  16
#     4  10  21  39  60  84 111 143 183 232 286 339
#     4  10  18  33  57  82 113 155 199 230 270 334
#     4   9  18  34  58  85 111 142 185 231 272 326
#     4  10  21  39  61  83 110 150 197 235 274 336
#     4  11  21  33  53  84 120 152 188 234 287 333
#
# _framework density 20.403713
#
# number of rings (size 3 to 8) (size 9 to 14) (size 15 to 20)
#    0.000    2.000    2.000    3.600    0.000    2.800 
#    0.000    2.000    0.000    4.200    0.000    0.000 
#    0.000    0.000    0.000    0.000    0.000    0.000 
#
# Total GULP energy -495951.664894 kJ/mol
# GULP energy per Si atom -12398.791622 kJ/mol
# Density = 2.035727 g / cm^3
# Si number density = 20.403713 Si / 1000 Ang^3
#
#
#
# Elastic Constant Matrix: (Units=GPa)
#
#
# Indices 1 2 3 4 5 6 
#
# 1 40.4260 28.7320 17.2560 0.0000 0.0000 0.0000
# 2 28.7320 166.5708 87.0592 0.0000 0.0000 0.0000
# 3 17.2560 87.0592 148.3827 0.0000 0.0000 0.0000
# 4 0.0000 0.0000 0.0000 16.0337 0.0000 0.0000
# 5 0.0000 0.0000 0.0000 0.0000 8.0193 0.0000
# 6 0.0000 0.0000 0.0000 0.0000 0.0000 32.0980
#
#
#
# Elastic Compliance Matrix: (Units=1/GPa)
#
#
# Indices 1 2 3 4 5 6 
#
# 1 0.028232 -0.004549 -0.000614 0.000000 0.000000 0.000000
# 2 -0.004549 0.009392 -0.004981 0.000000 0.000000 0.000000
# 3 -0.000614 -0.004981 0.009733 0.000000 0.000000 0.000000
# 4 0.000000 0.000000 0.000000 0.062368 0.000000 0.000000
# 5 0.000000 0.000000 0.000000 0.000000 0.124699 0.000000
# 6 0.000000 0.000000 0.000000 0.000000 0.000000 0.031155
#
#
# Mechanical properties :
#
#
# Convention : Reuss Voigt Hill
#
# Bulk Modulus (GPa) = 36.94392 69.05267 52.99830
# Shear Modulus (GPa) = 16.95552 26.05237 21.50394
#
# Velocity S-wave (km/s) = 2.88584 3.57717 3.24994
# Velocity P-wave (km/s) = 5.40831 7.13990 6.33356
#
# Compressibility (1/GPa) = 0.02706805
#
# Stress axis : x y z
#
# Youngs Moduli (GPa) = 35.42129 106.47915 102.73934
#
# Poissons Ratio (x) = 0.48433 0.06313
# Poissons Ratio (y) = 0.16112 0.51177
# Poissons Ratio (z) = 0.02176 0.53040
#
# Static dielectric constant tensor:
#      x y z
#    x 3.340540 0.000000 0.000000 
#    y 0.000000 3.920120 0.000000 
#    z 0.000000 0.000000 3.785310 
# 
# 
# High freq. dielectric constant tensor:
#      x y z
#    x 1.767370 0.000000 0.000000 
#    y 0.000000 1.797870 0.000000 
#    z 0.000000 0.000000 1.794700 
# 
# From -- ./inp_files/40524.got.cif
#   From: 2010.03.12/outbox.cif.g09.slc.cpg/sg63_21_cif.got.tgz:40524.got - 2010.04.10 19:34:48.
