data_PCOD8256517
_publ_section_title
;
Structure prediction by ZEFSAII (Michael W. Deem and Ramdas Pophale) SiO2 
 PCOD8256517
Probable space group: C M C M
;
_chemical_formula_sum "Si O2"
_cell_formula_units_Z 96
_cell_length_a 9.063486
_cell_length_b 28.653715
_cell_length_c 20.363004
_cell_angle_alpha 90.000000
_cell_angle_beta 90.000000
_cell_angle_gamma 90.000000
_cell_volume 5288.323958
_symmetry_space_group_name_H-M "C M C M"
_symmetry_group_IT_number 63
_symmetry_cell_setting 'orthorhombic'
loop_
_space_group_symop_operation_xyz
x,y,z
-x,-y,1/2+z
x,-y,-z
-x,y,1/2-z
-x,-y,-z
x,y,1/2-z
-x,y,z
x,-y,1/2+z
1/2+x,1/2+y,z
1/2-x,1/2-y,1/2+z
1/2+x,1/2-y,-z
1/2-x,1/2+y,1/2-z
1/2-x,1/2-y,-z
1/2+x,1/2+y,1/2-z
1/2-x,1/2+y,z
1/2+x,1/2-y,1/2+z
loop_
_atom_site_type_symbol
_atom_site_label
_atom_site_fract_x
_atom_site_fract_y
_atom_site_fract_z
Si Si1 0.174891 0.221502 0.322629
Si Si2 0.331310 0.373095 0.022039
Si Si3 0.670350 0.524396 0.566172
Si Si4 0.173230 0.878214 0.870917
Si Si5 0.174798 0.280802 0.055643
Si Si6 0.169558 0.468315 0.824615
O O1 0.236744 0.233627 0.250000
O O2 0.235129 0.171180 0.345367
O O3 0.226473 0.260957 0.373752
O O4 0.000000 0.218999 0.321500
O O5 0.500000 0.355353 0.025504
O O6 0.308519 0.420098 0.063208
O O7 0.225758 0.334130 0.052542
O O8 0.287444 0.383356 0.947280
O O9 0.731278 0.500000 0.500000
O O10 0.500000 0.510117 0.575169
O O11 0.758745 0.507004 0.628947
O O12 0.253942 0.918356 0.831086
O O13 0.000000 0.883380 0.858278
O O14 0.000000 0.277457 0.046548
O O15 0.250000 0.250000 0.000000
O O16 0.187926 0.485829 0.750000
O O17 0.000000 0.462705 0.844397
#
# Coordination Sequence:
#
# PCOD8256517 Si02
#       6
#    16  16  16  16  16  16
#     4   9  18  33  54  80 108 143 186 224 262 319
#     4  10  20  36  58  86 112 135 181 237 278 328
#     4  10  20  38  61  82 108 145 188 233 278 332
#     4  10  18  34  59  83 110 143 183 231 277 331
#     4  11  21  35  56  81 113 149 185 227 274 326
#     4  11  24  38  53  82 121 151 182 229 281 335
#
# _framework density 18.153199000000001
#
# number of rings (size 3 to 8) (size 9 to 14) (size 15 to 20)
#    0.000    1.833    3.333    1.500    0.000    3.667 
#    0.000    0.833    0.000    6.000    0.000    0.000 
#    0.000    0.000    0.000    0.000    0.000    0.000 
#
# Total GULP energy -595323.159656 kJ/mol
# GULP energy per Si atom -12402.565826 kJ/mol
# Density = 1.811188 g / cm^3
# Si number density = 18.153199 Si / 1000 Ang^3
#
#
#
# Elastic Constant Matrix: (Units=GPa)
#
#
# Indices 1 2 3 4 5 6 
#
# 1 67.4313 43.3553 52.2978 0.0000 0.0000 0.0000
# 2 43.3553 97.2598 51.3392 0.0000 0.0000 0.0000
# 3 52.2978 51.3392 123.8936 0.0000 0.0000 0.0000
# 4 0.0000 0.0000 0.0000 31.6703 0.0000 0.0000
# 5 0.0000 0.0000 0.0000 0.0000 26.6321 0.0000
# 6 0.0000 0.0000 0.0000 0.0000 0.0000 33.3611
#
#
#
# Elastic Compliance Matrix: (Units=1/GPa)
#
#
# Indices 1 2 3 4 5 6 
#
# 1 0.025531 -0.007286 -0.007758 0.000000 0.000000 0.000000
# 2 -0.007286 0.015240 -0.003239 0.000000 0.000000 0.000000
# 3 -0.007758 -0.003239 0.012689 0.000000 0.000000 0.000000
# 4 0.000000 0.000000 0.000000 0.031575 0.000000 0.000000
# 5 0.000000 0.000000 0.000000 0.000000 0.037549 0.000000
# 6 0.000000 0.000000 0.000000 0.000000 0.000000 0.029975
#
#
# Mechanical properties :
#
#
# Convention : Reuss Voigt Hill
#
# Bulk Modulus (GPa) = 59.19751 64.72993 61.96372
# Shear Modulus (GPa) = 25.67306 27.77218 26.72262
#
# Velocity S-wave (km/s) = 3.76472 3.91561 3.84091
# Velocity P-wave (km/s) = 7.18180 7.49518 7.34016
#
# Compressibility (1/GPa) = 0.01689260
#
# Stress axis : x y z
#
# Youngs Moduli (GPa) = 39.16737 65.61880 78.81044
#
# Poissons Ratio (x) = 0.47809 0.61142
# Poissons Ratio (y) = 0.28537 0.25530
# Poissons Ratio (z) = 0.30387 0.21257
#
# Static dielectric constant tensor:
#      x y z
#    x 3.205610 0.000000 0.000000 
#    y 0.000000 3.376080 0.000000 
#    z 0.000000 0.000000 3.511390 
# 
# 
# High freq. dielectric constant tensor:
#      x y z
#    x 1.685570 0.000000 0.000000 
#    y 0.000000 1.705790 0.000000 
#    z 0.000000 0.000000 1.705280 
# 
# From -- ./inp_files/51284.got.cif
#   From: 2010.03.12/outbox.cif.g09.slc.cpg/sg63_26_cif.got.tgz:51284.got - 2010.04.10 19:34:48.
