data_PCOD8256141
_publ_section_title
;
Structure prediction by ZEFSAII (Michael W. Deem and Ramdas Pophale) SiO2 
 PCOD8256141
Probable space group: C M C M
;
_chemical_formula_sum "Si O2"
_cell_formula_units_Z 64
_cell_length_a 7.660505
_cell_length_b 22.102137
_cell_length_c 20.699783
_cell_angle_alpha 90.000000
_cell_angle_beta 90.000000
_cell_angle_gamma 90.000000
_cell_volume 3504.753351
_symmetry_space_group_name_H-M "C M C M"
_symmetry_group_IT_number 63
_symmetry_cell_setting 'orthorhombic'
loop_
_space_group_symop_operation_xyz
x,y,z
-x,-y,1/2+z
x,-y,-z
-x,y,1/2-z
-x,-y,-z
x,y,1/2-z
-x,y,z
x,-y,1/2+z
1/2+x,1/2+y,z
1/2-x,1/2-y,1/2+z
1/2+x,1/2-y,-z
1/2-x,1/2+y,1/2-z
1/2-x,1/2-y,-z
1/2+x,1/2+y,1/2-z
1/2-x,1/2+y,z
1/2+x,1/2-y,1/2+z
loop_
_atom_site_type_symbol
_atom_site_label
_atom_site_fract_x
_atom_site_fract_y
_atom_site_fract_z
Si Si1 0.203821 0.170564 0.178511
Si Si2 0.000000 0.899080 0.511343
Si Si3 0.697459 0.807109 0.957638
Si Si4 0.805307 0.467321 0.675535
Si Si5 0.500000 0.515908 0.599776
O O1 0.279169 0.188528 0.250000
O O2 0.290966 0.208063 0.119633
O O3 0.236353 0.100244 0.165216
O O4 0.000000 0.183680 0.176929
O O5 0.825925 0.861696 0.525769
O O6 0.000000 0.958772 0.553311
O O7 0.000000 0.919971 0.436944
O O8 0.500000 0.826056 0.974618
O O9 0.750000 0.750000 0.000000
O O10 0.808722 0.484656 0.750000
O O11 0.675756 0.514557 0.642027
O O12 0.000000 0.473086 0.645794
#
# Coordination Sequence:
#
# PCOD8256141 Si02
#       5
#    16   8  16  16   8
#     4  10  18  32  55  84 116 145 187 243 293 338
#     4  11  24  38  52  88 110 161 194 222 296 337
#     4  12  22  38  61  82 117 154 196 241 287 345
#     4  10  18  30  53  82 110 146 188 234 291 341
#     4  11  21  36  56  76 131 143 184 240 278 365
#
# _framework density 18.260915000000001
#
# number of rings (size 3 to 8) (size 9 to 14) (size 15 to 20)
#    0.000    1.250    6.250    1.125    0.000    2.500 
#    0.000    2.500    0.000    3.000    0.000    3.500 
#    0.000    0.000    0.000    0.000    0.000    0.000 
#
# Total GULP energy -396668.602235 kJ/mol
# GULP energy per Si atom -12395.893820 kJ/mol
# Density = 1.821935 g / cm^3
# Si number density = 18.260915 Si / 1000 Ang^3
#
#
#
# Elastic Constant Matrix: (Units=GPa)
#
#
# Indices 1 2 3 4 5 6 
#
# 1 120.7896 27.0029 35.1329 0.0000 0.0000 0.0000
# 2 27.0029 48.3078 43.9797 0.0000 0.0000 0.0000
# 3 35.1329 43.9797 124.4233 0.0000 0.0000 0.0000
# 4 0.0000 0.0000 0.0000 34.7861 0.0000 0.0000
# 5 0.0000 0.0000 0.0000 0.0000 27.0254 0.0000
# 6 0.0000 0.0000 0.0000 0.0000 0.0000 6.2262
#
#
#
# Elastic Compliance Matrix: (Units=1/GPa)
#
#
# Indices 1 2 3 4 5 6 
#
# 1 0.009581 -0.004265 -0.001198 0.000000 0.000000 0.000000
# 2 -0.004265 0.032421 -0.010256 0.000000 0.000000 0.000000
# 3 -0.001198 -0.010256 0.012000 0.000000 0.000000 0.000000
# 4 0.000000 0.000000 0.000000 0.028747 0.000000 0.000000
# 5 0.000000 0.000000 0.000000 0.000000 0.037002 0.000000
# 6 0.000000 0.000000 0.000000 0.000000 0.000000 0.160610
#
#
# Mechanical properties :
#
#
# Convention : Reuss Voigt Hill
#
# Bulk Modulus (GPa) = 44.31498 56.19464 50.25481
# Shear Modulus (GPa) = 15.65824 26.10123 20.87973
#
# Velocity S-wave (km/s) = 2.93144 3.78478 3.38510
# Velocity P-wave (km/s) = 5.98148 7.06678 6.54666
#
# Compressibility (1/GPa) = 0.02256573
#
# Stress axis : x y z
#
# Youngs Moduli (GPa) = 104.37685 30.84381 83.33100
#
# Poissons Ratio (x) = 0.13155 0.09981
# Poissons Ratio (y) = 0.44516 0.85462
# Poissons Ratio (z) = 0.12502 0.31632
#
# Static dielectric constant tensor:
#      x y z
#    x 2.093640 0.000000 0.000000 
#    y 0.000000 3.015330 0.000000 
#    z 0.000000 0.000000 3.952090 
# 
# 
# High freq. dielectric constant tensor:
#      x y z
#    x 1.727960 0.000000 0.000000 
#    y 0.000000 1.647370 0.000000 
#    z 0.000000 0.000000 1.723350 
# 
# From -- ./inp_files/50631.got.cif
#   From: 2010.03.12/outbox.cif.g09.slc.cpg/sg63_26_cif.got.tgz:50631.got - 2010.04.10 19:34:48.
