data_PCOD8256712
_publ_section_title
;
Structure prediction by ZEFSAII (Michael W. Deem and Ramdas Pophale) SiO2 
 PCOD8256712
Probable space group: C M C M
;
_chemical_formula_sum "Si O2"
_cell_formula_units_Z 112
_cell_length_a 25.393023
_cell_length_b 28.669157
_cell_length_c 9.580446
_cell_angle_alpha 90.000000
_cell_angle_beta 90.000000
_cell_angle_gamma 90.000000
_cell_volume 6974.531761
_symmetry_space_group_name_H-M "C M C M"
_symmetry_group_IT_number 63
_symmetry_cell_setting 'orthorhombic'
loop_
_space_group_symop_operation_xyz
x,y,z
-x,-y,1/2+z
x,-y,-z
-x,y,1/2-z
-x,-y,-z
x,y,1/2-z
-x,y,z
x,-y,1/2+z
1/2+x,1/2+y,z
1/2-x,1/2-y,1/2+z
1/2+x,1/2-y,-z
1/2-x,1/2+y,1/2-z
1/2-x,1/2-y,-z
1/2+x,1/2+y,1/2-z
1/2-x,1/2+y,z
1/2+x,1/2-y,1/2+z
loop_
_atom_site_type_symbol
_atom_site_label
_atom_site_fract_x
_atom_site_fract_y
_atom_site_fract_z
Si Si1 0.441931 0.795766 0.083814
Si Si2 0.252771 0.702914 0.914303
Si Si3 0.692492 0.456658 0.089592
Si Si4 0.653412 0.143649 0.915822
Si Si5 0.061078 0.190525 0.410510
Si Si6 0.184313 0.543517 0.911329
Si Si7 0.146359 0.141828 0.912963
O O1 0.442205 0.797071 0.250000
O O2 0.500000 0.810084 0.027922
O O3 0.398700 0.831394 0.022059
O O4 0.428129 0.743236 0.036271
O O5 0.247984 0.713662 0.750000
O O6 0.205096 0.670590 0.967855
O O7 0.306867 0.677121 0.950870
O O8 0.250000 0.750000 0.000000
O O9 0.681328 0.468378 0.250000
O O10 0.754068 0.448143 0.063636
O O11 0.662299 0.410276 0.042090
O O12 0.671182 0.500000 0.000000
O O13 0.652881 0.144670 0.750000
O O14 0.654640 0.089956 0.965721
O O15 0.078399 0.185328 0.250000
O O16 0.094362 0.154975 0.502711
O O17 0.000000 0.177784 0.428853
O O18 0.172047 0.533380 0.750000
O O19 0.162911 0.500000 0.000000
O O20 0.133418 0.144010 0.750000
#
# Coordination Sequence:
#
# PCOD8256712 Si02
#       7
#    16  16  16  16  16  16  16
#     4   8  14  25  43  67  90 115 154 196 223 253
#     4  10  19  30  43  64  94 125 152 182 225 278
#     4   9  17  30  46  66  91 118 150 188 227 273
#     4   9  15  26  44  62  87 122 151 180 225 271
#     4   9  18  32  49  70  94 120 155 194 226 264
#     4   9  16  28  45  64  87 117 150 184 224 268
#     4  10  19  31  47  68  95 122 151 188 231 280
#
# _framework density 16.058426000000001
#
# number of rings (size 3 to 8) (size 9 to 14) (size 15 to 20)
#    0.000    2.857    1.429    1.714    0.000    2.571 
#    0.000    0.714    0.000    1.714    0.000    0.000 
#    0.000    0.000    0.000    0.000    0.000    0.000 
#
# Total GULP energy -694284.842984 kJ/mol
# GULP energy per Si atom -12397.943625 kJ/mol
# Density = 1.602188 g / cm^3
# Si number density = 16.058426 Si / 1000 Ang^3
#
#
#
# Elastic Constant Matrix: (Units=GPa)
#
#
# Indices 1 2 3 4 5 6 
#
# 1 75.5078 55.2825 32.0178 0.0000 0.0000 0.0000
# 2 55.2825 140.0010 51.8075 0.0000 0.0000 0.0000
# 3 32.0178 51.8075 41.6166 0.0000 0.0000 0.0000
# 4 0.0000 0.0000 0.0000 28.8410 0.0000 0.0000
# 5 0.0000 0.0000 0.0000 0.0000 17.1483 0.0000
# 6 0.0000 0.0000 0.0000 0.0000 0.0000 25.3814
#
#
#
# Elastic Compliance Matrix: (Units=1/GPa)
#
#
# Indices 1 2 3 4 5 6 
#
# 1 0.020954 -0.004280 -0.010792 0.000000 0.000000 0.000000
# 2 -0.004280 0.014118 -0.014282 0.000000 0.000000 0.000000
# 3 -0.010792 -0.014282 0.050112 0.000000 0.000000 0.000000
# 4 0.000000 0.000000 0.000000 0.034673 0.000000 0.000000
# 5 0.000000 0.000000 0.000000 0.000000 0.058315 0.000000
# 6 0.000000 0.000000 0.000000 0.000000 0.000000 0.039399
#
#
# Mechanical properties :
#
#
# Convention : Reuss Voigt Hill
#
# Bulk Modulus (GPa) = 37.77331 59.48232 48.62781
# Shear Modulus (GPa) = 17.53741 22.14197 19.83969
#
# Velocity S-wave (km/s) = 3.30828 3.71730 3.51874
# Velocity P-wave (km/s) = 6.17790 7.45292 6.84516
#
# Compressibility (1/GPa) = 0.02647372
#
# Stress axis : x y z
#
# Youngs Moduli (GPa) = 47.72399 70.83070 19.95542
#
# Poissons Ratio (x) = 0.30318 0.21537
# Poissons Ratio (y) = 0.20428 0.28501
# Poissons Ratio (z) = 0.51505 1.01162
#
# Static dielectric constant tensor:
#      x y z
#    x 3.077340 0.000000 0.000000 
#    y 0.000000 3.166680 0.000000 
#    z 0.000000 0.000000 2.762880 
# 
# 
# High freq. dielectric constant tensor:
#      x y z
#    x 1.604640 0.000000 0.000000 
#    y 0.000000 1.621190 0.000000 
#    z 0.000000 0.000000 1.586890 
# 
# From -- ./inp_files/24092.got.cif
#   From: 2010.03.12/outbox.cif.g09.slc.cpg/sg63_13_cif.got.tgz:24092.got - 2010.04.10 19:34:48.
