data_PCOD8256812
_publ_section_title
;
Structure prediction by ZEFSAII (Michael W. Deem and Ramdas Pophale) SiO2 
 PCOD8256812
Probable space group: C M C M
;
_chemical_formula_sum "Si O2"
_cell_formula_units_Z 112
_cell_length_a 26.937264
_cell_length_b 16.111003
_cell_length_c 13.936020
_cell_angle_alpha 90.000000
_cell_angle_beta 90.000000
_cell_angle_gamma 90.000000
_cell_volume 6048.042330
_symmetry_space_group_name_H-M "C M C M"
_symmetry_group_IT_number 63
_symmetry_cell_setting 'orthorhombic'
loop_
_space_group_symop_operation_xyz
x,y,z
-x,-y,1/2+z
x,-y,-z
-x,y,1/2-z
-x,-y,-z
x,y,1/2-z
-x,y,z
x,-y,1/2+z
1/2+x,1/2+y,z
1/2-x,1/2-y,1/2+z
1/2+x,1/2-y,-z
1/2-x,1/2+y,1/2-z
1/2-x,1/2-y,-z
1/2+x,1/2+y,1/2-z
1/2-x,1/2+y,z
1/2+x,1/2-y,1/2+z
loop_
_atom_site_type_symbol
_atom_site_label
_atom_site_fract_x
_atom_site_fract_y
_atom_site_fract_z
Si Si1 0.781678 0.868970 0.861054
Si Si2 0.146892 0.715859 0.636531
Si Si3 0.801729 0.946488 0.140740
Si Si4 0.943218 0.953802 0.645751
Si Si5 0.907283 0.871740 0.139364
Si Si6 0.941530 0.206595 0.038796
Si Si7 0.789340 0.593822 0.517686
O O1 0.766879 0.865339 0.750000
O O2 0.819585 0.795873 0.887098
O O3 0.808431 0.956596 0.889602
O O4 0.729195 0.862444 0.918677
O O5 0.146857 0.694678 0.750000
O O6 0.090155 0.727730 0.600370
O O7 0.166662 0.640465 0.572083
O O8 0.785226 0.943071 0.250000
O O9 0.850099 0.892118 0.121714
O O10 0.758830 0.901818 0.083675
O O11 0.915087 0.948243 0.750000
O O12 0.922878 0.883552 0.575732
O O13 0.000000 0.933165 0.662518
O O14 0.937673 0.046560 0.605673
O O15 0.918396 0.848611 0.250000
O O16 0.926056 0.794835 0.073935
O O17 0.000000 0.226056 0.051353
O O18 0.807971 0.500000 0.500000
#
# Coordination Sequence:
#
# PCOD8256812 Si02
#       7
#    16  16  16  16  16  16  16
#     4   9  18  31  50  78 111 142 170 204 247 301
#     4  11  22  36  55  78 103 132 169 213 261 312
#     4   9  17  30  48  73 105 141 177 209 244 291
#     4   9  17  29  45  67  97 135 178 218 253 293
#     4  10  19  30  47  72 106 147 185 215 246 296
#     4  11  22  34  49  71 101 137 178 225 273 314
#     4  10  20  35  55  77 104 135 169 209 257 310
#
# _framework density 18.51839
#
# number of rings (size 3 to 8) (size 9 to 14) (size 15 to 20)
#    0.000    2.143    0.000    3.857    0.000    8.000 
#    0.000    2.143    0.000    0.429    0.000    0.000 
#    0.000    0.000    0.000    0.000    0.000    0.000 
#
# Total GULP energy -694170.763713 kJ/mol
# GULP energy per Si atom -12395.906495 kJ/mol
# Density = 1.847624 g / cm^3
# Si number density = 18.518390 Si / 1000 Ang^3
#
#
#
# Elastic Constant Matrix: (Units=GPa)
#
#
# Indices 1 2 3 4 5 6 
#
# 1 85.6697 43.7760 55.2993 0.0000 0.0000 0.0000
# 2 43.7760 51.2007 37.5173 0.0000 0.0000 0.0000
# 3 55.2993 37.5173 82.1459 0.0000 0.0000 0.0000
# 4 0.0000 0.0000 0.0000 21.9712 0.0000 0.0000
# 5 0.0000 0.0000 0.0000 0.0000 25.3789 0.0000
# 6 0.0000 0.0000 0.0000 0.0000 0.0000 26.7531
#
#
#
# Elastic Compliance Matrix: (Units=1/GPa)
#
#
# Indices 1 2 3 4 5 6 
#
# 1 0.026059 -0.014167 -0.011072 0.000000 0.000000 0.000000
# 2 -0.014167 0.037057 -0.007387 0.000000 0.000000 0.000000
# 3 -0.011072 -0.007387 0.023001 0.000000 0.000000 0.000000
# 4 0.000000 0.000000 0.000000 0.045514 0.000000 0.000000
# 5 0.000000 0.000000 0.000000 0.000000 0.039403 0.000000
# 6 0.000000 0.000000 0.000000 0.000000 0.000000 0.037379
#
#
# Mechanical properties :
#
#
# Convention : Reuss Voigt Hill
#
# Bulk Modulus (GPa) = 47.93046 54.68904 51.30975
# Shear Modulus (GPa) = 17.81771 20.31553 19.06662
#
# Velocity S-wave (km/s) = 3.10524 3.31576 3.21223
# Velocity P-wave (km/s) = 6.22860 6.65248 6.44403
#
# Compressibility (1/GPa) = 0.02086356
#
# Stress axis : x y z
#
# Youngs Moduli (GPa) = 38.37479 26.98575 43.47632
#
# Poissons Ratio (x) = 0.38230 0.48138
# Poissons Ratio (y) = 0.54365 0.32118
# Poissons Ratio (z) = 0.42489 0.19936
#
# Static dielectric constant tensor:
#      x y z
#    x 3.256590 0.000000 0.000000 
#    y 0.000000 3.064240 0.000000 
#    z 0.000000 0.000000 3.855120 
# 
# 
# High freq. dielectric constant tensor:
#      x y z
#    x 1.697580 0.000000 0.000000 
#    y 0.000000 1.665390 0.000000 
#    z 0.000000 0.000000 1.743670 
# 
# From -- ./inp_files/37978.got.cif
#   From: 2010.03.12/outbox.cif.g09.slc.cpg/sg63_19_cif.got.tgz:37978.got - 2010.04.10 19:34:48.
