data_PCOD8256910
_publ_section_title
;
Structure prediction by ZEFSAII (Michael W. Deem and Ramdas Pophale) SiO2 
 PCOD8256910
Probable space group: C M C M
;
_chemical_formula_sum "Si O2"
_cell_formula_units_Z 104
_cell_length_a 26.026873
_cell_length_b 21.483771
_cell_length_c 9.419274
_cell_angle_alpha 90.000000
_cell_angle_beta 90.000000
_cell_angle_gamma 90.000000
_cell_volume 5266.837727
_symmetry_space_group_name_H-M "C M C M"
_symmetry_group_IT_number 63
_symmetry_cell_setting 'orthorhombic'
loop_
_space_group_symop_operation_xyz
x,y,z
-x,-y,1/2+z
x,-y,-z
-x,y,1/2-z
-x,-y,-z
x,y,1/2-z
-x,y,z
x,-y,1/2+z
1/2+x,1/2+y,z
1/2-x,1/2-y,1/2+z
1/2+x,1/2-y,-z
1/2-x,1/2+y,1/2-z
1/2-x,1/2-y,-z
1/2+x,1/2+y,1/2-z
1/2-x,1/2+y,z
1/2+x,1/2-y,1/2+z
loop_
_atom_site_type_symbol
_atom_site_label
_atom_site_fract_x
_atom_site_fract_y
_atom_site_fract_z
Si Si1 0.000000 0.565172 0.079627
Si Si2 0.894488 0.374716 0.915407
Si Si3 0.621068 0.442535 0.909196
Si Si4 0.790470 0.158680 0.408818
Si Si5 0.857688 0.756481 0.084951
Si Si6 0.708221 0.938961 0.584333
Si Si7 0.057874 0.141718 0.910849
O O1 0.050288 0.603029 0.026029
O O2 0.000000 0.554683 0.250000
O O3 0.000000 0.500000 0.000000
O O4 0.901049 0.362197 0.750000
O O5 0.874505 0.309789 0.982388
O O6 0.852003 0.427605 0.946039
O O7 0.607049 0.463710 0.750000
O O8 0.664498 0.391138 0.908875
O O9 0.642265 0.500000 0.000000
O O10 0.570265 0.415332 0.984589
O O11 0.780842 0.184336 0.250000
O O12 0.806526 0.216847 0.507879
O O13 0.739589 0.122773 0.465111
O O14 0.843114 0.750800 0.250000
O O15 0.906267 0.799946 0.056706
O O16 0.719561 0.951005 0.750000
O O17 0.726396 0.000000 0.500000
O O18 0.066042 0.118239 0.750000
O O19 0.000000 0.164202 0.937528
#
# Coordination Sequence:
#
# PCOD8256910 Si02
#       7
#     8  16  16  16  16  16  16
#     4  10  20  36  58  82 112 146 181 222 269 316
#     4   9  19  34  55  82 109 140 176 220 268 313
#     4  10  19  31  47  67  93 127 166 208 256 307
#     4   9  19  34  51  73 104 138 170 212 263 309
#     4   9  18  33  53  77 103 133 174 215 257 312
#     4  10  20  35  54  78 108 141 178 218 262 313
#     4   9  18  31  48  69  93 124 164 211 255 303
#
# _framework density 19.746195
#
# number of rings (size 3 to 8) (size 9 to 14) (size 15 to 20)
#    0.000    2.615    0.000    1.385    1.077    2.462 
#    0.000    1.538    0.000    0.000    0.000    0.000 
#    0.000    0.000    0.000    0.000    0.000    0.000 
#
# Total GULP energy -644662.565352 kJ/mol
# GULP energy per Si atom -12397.357026 kJ/mol
# Density = 1.970125 g / cm^3
# Si number density = 19.746195 Si / 1000 Ang^3
#
#
#
# Elastic Constant Matrix: (Units=GPa)
#
#
# Indices 1 2 3 4 5 6 
#
# 1 116.9051 37.6340 28.7708 0.0000 0.0000 0.0000
# 2 37.6340 101.9640 42.2609 0.0000 0.0000 0.0000
# 3 28.7708 42.2609 71.2820 0.0000 0.0000 0.0000
# 4 0.0000 0.0000 0.0000 26.1371 0.0000 0.0000
# 5 0.0000 0.0000 0.0000 0.0000 20.6055 0.0000
# 6 0.0000 0.0000 0.0000 0.0000 0.0000 22.0617
#
#
#
# Elastic Compliance Matrix: (Units=1/GPa)
#
#
# Indices 1 2 3 4 5 6 
#
# 1 0.010021 -0.002681 -0.002455 0.000000 0.000000 0.000000
# 2 -0.002681 0.013720 -0.007052 0.000000 0.000000 0.000000
# 3 -0.002455 -0.007052 0.019201 0.000000 0.000000 0.000000
# 4 0.000000 0.000000 0.000000 0.038260 0.000000 0.000000
# 5 0.000000 0.000000 0.000000 0.000000 0.048531 0.000000
# 6 0.000000 0.000000 0.000000 0.000000 0.000000 0.045328
#
#
# Mechanical properties :
#
#
# Convention : Reuss Voigt Hill
#
# Bulk Modulus (GPa) = 53.86426 56.38694 55.12560
# Shear Modulus (GPa) = 24.31618 25.85988 25.08803
#
# Velocity S-wave (km/s) = 3.51299 3.62278 3.56831
# Velocity P-wave (km/s) = 6.61758 6.79097 6.70483
#
# Compressibility (1/GPa) = 0.01856519
#
# Stress axis : x y z
#
# Youngs Moduli (GPa) = 99.78739 72.88761 52.08175
#
# Poissons Ratio (x) = 0.19542 0.12787
# Poissons Ratio (y) = 0.26755 0.36727
# Poissons Ratio (z) = 0.24500 0.51399
#
# Static dielectric constant tensor:
#      x y z
#    x 3.721760 0.000000 0.000000 
#    y 0.000000 3.598910 0.000000 
#    z 0.000000 0.000000 3.569520 
# 
# 
# High freq. dielectric constant tensor:
#      x y z
#    x 1.777160 0.000000 0.000000 
#    y 0.000000 1.768920 0.000000 
#    z 0.000000 0.000000 1.742150 
# 
# From -- ./inp_files/12521.got.cif
#   From: 2010.03.12/outbox.cif.g09.slc.cpg/sg63_7_cif.got.tgz:12521.got - 2010.04.10 19:34:48.
