data_PCOD8256023
_publ_section_title
;
Structure prediction by ZEFSAII (Michael W. Deem and Ramdas Pophale) SiO2 
 PCOD8256023
Probable space group: C M C M
;
_chemical_formula_sum "Si O2"
_cell_formula_units_Z 56
_cell_length_a 22.851508
_cell_length_b 14.540400
_cell_length_c 8.651836
_cell_angle_alpha 90.000000
_cell_angle_beta 90.000000
_cell_angle_gamma 90.000000
_cell_volume 2874.746127
_symmetry_space_group_name_H-M "C M C M"
_symmetry_group_IT_number 63
_symmetry_cell_setting 'orthorhombic'
loop_
_space_group_symop_operation_xyz
x,y,z
-x,-y,1/2+z
x,-y,-z
-x,y,1/2-z
-x,-y,-z
x,y,1/2-z
-x,y,z
x,-y,1/2+z
1/2+x,1/2+y,z
1/2-x,1/2-y,1/2+z
1/2+x,1/2-y,-z
1/2-x,1/2+y,1/2-z
1/2-x,1/2-y,-z
1/2+x,1/2+y,1/2-z
1/2-x,1/2+y,z
1/2+x,1/2-y,1/2+z
loop_
_atom_site_type_symbol
_atom_site_label
_atom_site_fract_x
_atom_site_fract_y
_atom_site_fract_z
Si Si1 0.154088 0.095888 0.932061
Si Si2 0.219841 0.596528 0.433521
Si Si3 0.500000 0.102366 0.065185
Si Si4 0.111315 0.287283 0.567853
O O1 0.160132 0.084674 0.750000
O O2 0.109931 0.178899 0.977301
O O3 0.217383 0.122269 0.997829
O O4 0.129801 0.000000 0.000000
O O5 0.197781 0.500000 0.500000
O O6 0.224903 0.591323 0.250000
O O7 0.172410 0.670509 0.491717
O O8 0.500000 0.097999 0.250000
O O9 0.443922 0.157884 0.998518
O O10 0.500000 0.000000 0.000000
O O11 0.108651 0.298374 0.750000
#
# Coordination Sequence:
#
# PCOD8256023 Si02
#       4
#    16  16   8  16
#     4  10  19  33  50  73 100 131 165 203 245 292
#     4  10  18  30  48  75 103 131 162 200 245 295
#     4  10  20  38  57  76 100 130 163 202 243 290
#     4   9  19  33  52  73  99 132 167 200 244 294
#
# _framework density 19.479980999999999
#
# number of rings (size 3 to 8) (size 9 to 14) (size 15 to 20)
#    0.000    2.286    0.000    5.143    0.000    0.000 
#    0.000    9.286    0.000    0.000    0.000    0.000 
#    0.000    0.000    0.000    0.000    0.000    0.000 
#
# Total GULP energy -347085.995397 kJ/mol
# GULP energy per Si atom -12395.928407 kJ/mol
# Density = 1.943564 g / cm^3
# Si number density = 19.479981 Si / 1000 Ang^3
#
#
#
# Elastic Constant Matrix: (Units=GPa)
#
#
# Indices 1 2 3 4 5 6 
#
# 1 87.5607 86.8517 24.5281 0.0000 0.0000 0.0000
# 2 86.8517 178.3715 39.0531 0.0000 0.0000 0.0000
# 3 24.5281 39.0531 69.1249 0.0000 0.0000 0.0000
# 4 0.0000 0.0000 0.0000 29.3289 0.0000 0.0000
# 5 0.0000 0.0000 0.0000 0.0000 16.2347 0.0000
# 6 0.0000 0.0000 0.0000 0.0000 0.0000 37.0178
#
#
#
# Elastic Compliance Matrix: (Units=1/GPa)
#
#
# Indices 1 2 3 4 5 6 
#
# 1 0.022337 -0.010431 -0.002033 0.000000 0.000000 0.000000
# 2 -0.010431 0.011269 -0.002665 0.000000 0.000000 0.000000
# 3 -0.002033 -0.002665 0.016694 0.000000 0.000000 0.000000
# 4 0.000000 0.000000 0.000000 0.034096 0.000000 0.000000
# 5 0.000000 0.000000 0.000000 0.000000 0.061596 0.000000
# 6 0.000000 0.000000 0.000000 0.000000 0.000000 0.027014
#
#
# Mechanical properties :
#
#
# Convention : Reuss Voigt Hill
#
# Bulk Modulus (GPa) = 49.89715 70.65808 60.27761
# Shear Modulus (GPa) = 23.81593 28.82456 26.32025
#
# Velocity S-wave (km/s) = 3.50034 3.85086 3.67978
# Velocity P-wave (km/s) = 6.48126 7.49153 7.00463
#
# Compressibility (1/GPa) = 0.02004123
#
# Stress axis : x y z
#
# Youngs Moduli (GPa) = 44.76967 88.74088 59.90326
#
# Poissons Ratio (x) = 0.92565 0.12177
# Poissons Ratio (y) = 0.46699 0.15965
# Poissons Ratio (z) = 0.09101 0.23651
#
# Static dielectric constant tensor:
#      x y z
#    x 3.600810 0.000000 0.000000 
#    y 0.000000 3.837900 0.000000 
#    z 0.000000 0.000000 3.341580 
# 
# 
# High freq. dielectric constant tensor:
#      x y z
#    x 1.739080 0.000000 0.000000 
#    y 0.000000 1.777290 0.000000 
#    z 0.000000 0.000000 1.738920 
# 
# From -- ./inp_files/7310.got.cif
#   From: 2010.03.12/outbox.cif.g09.slc.cpg/sg63_4_cif.got.tgz:7310.got - 2010.04.10 19:34:48.
