data_PCOD8256334
_publ_section_title
;
Structure prediction by ZEFSAII (Michael W. Deem and Ramdas Pophale) SiO2 
 PCOD8256334
Probable space group: C M C M
;
_chemical_formula_sum "Si O2"
_cell_formula_units_Z 88
_cell_length_a 17.456722
_cell_length_b 28.752085
_cell_length_c 8.959407
_cell_angle_alpha 90.000000
_cell_angle_beta 90.000000
_cell_angle_gamma 90.000000
_cell_volume 4496.880070
_symmetry_space_group_name_H-M "C M C M"
_symmetry_group_IT_number 63
_symmetry_cell_setting 'orthorhombic'
loop_
_space_group_symop_operation_xyz
x,y,z
-x,-y,1/2+z
x,-y,-z
-x,y,1/2-z
-x,-y,-z
x,y,1/2-z
-x,y,z
x,-y,1/2+z
1/2+x,1/2+y,z
1/2-x,1/2-y,1/2+z
1/2+x,1/2-y,-z
1/2-x,1/2+y,1/2-z
1/2-x,1/2-y,-z
1/2+x,1/2+y,1/2-z
1/2-x,1/2+y,z
1/2+x,1/2-y,1/2+z
loop_
_atom_site_type_symbol
_atom_site_label
_atom_site_fract_x
_atom_site_fract_y
_atom_site_fract_z
Si Si1 0.500000 0.549875 0.927931
Si Si2 0.788534 0.450985 0.427162
Si Si3 0.089672 0.206000 0.923596
Si Si4 0.089865 0.608777 0.423347
Si Si5 0.643709 0.607859 0.926450
Si Si6 0.091042 0.298225 0.417640
O O1 0.500000 0.545399 0.750000
O O2 0.574464 0.576796 0.989150
O O3 0.500000 0.500000 0.000000
O O4 0.767444 0.500000 0.500000
O O5 0.792930 0.456741 0.250000
O O6 0.869455 0.433162 0.489588
O O7 0.724026 0.414002 0.477701
O O8 0.104494 0.215314 0.750000
O O9 0.135721 0.160943 0.983938
O O10 0.000000 0.197530 0.953995
O O11 0.122328 0.250530 0.011696
O O12 0.110679 0.606308 0.250000
O O13 0.119984 0.657931 0.486949
O O14 0.000000 0.602624 0.451752
O O15 0.636310 0.608754 0.750000
O O16 0.123178 0.303362 0.250000
O O17 0.000000 0.296842 0.419354
#
# Coordination Sequence:
#
# PCOD8256334 Si02
#       6
#     8  16  16  16  16  16
#     4  10  18  32  52  76 106 144 190 234 271 314
#     4  11  23  39  58  81 111 145 181 226 280 329
#     4   9  15  28  52  79 108 147 190 226 261 310
#     4  10  21  39  62  85 107 137 180 225 272 333
#     4   9  18  33  54  79 109 147 189 228 268 317
#     4   9  17  30  51  82 116 144 173 218 274 326
#
# _framework density 19.569123000000001
#
# number of rings (size 3 to 8) (size 9 to 14) (size 15 to 20)
#    0.000    2.364    0.909    2.182    0.000    3.636 
#    0.000    4.545    0.000    0.000    0.000    0.000 
#    0.000    0.000    0.000    0.000    0.000    0.000 
#
# Total GULP energy -545640.031117 kJ/mol
# GULP energy per Si atom -12400.909798 kJ/mol
# Density = 1.952458 g / cm^3
# Si number density = 19.569123 Si / 1000 Ang^3
#
#
#
# Elastic Constant Matrix: (Units=GPa)
#
#
# Indices 1 2 3 4 5 6 
#
# 1 62.3970 36.2001 36.4738 0.0000 0.0000 0.0000
# 2 36.2001 102.5530 43.1529 0.0000 0.0000 0.0000
# 3 36.4738 43.1529 87.6405 0.0000 0.0000 0.0000
# 4 0.0000 0.0000 0.0000 37.4370 0.0000 0.0000
# 5 0.0000 0.0000 0.0000 0.0000 15.6964 0.0000
# 6 0.0000 0.0000 0.0000 0.0000 0.0000 28.7082
#
#
#
# Elastic Compliance Matrix: (Units=1/GPa)
#
#
# Indices 1 2 3 4 5 6 
#
# 1 0.023188 -0.005202 -0.007089 0.000000 0.000000 0.000000
# 2 -0.005202 0.013467 -0.004466 0.000000 0.000000 0.000000
# 3 -0.007089 -0.004466 0.016559 0.000000 0.000000 0.000000
# 4 0.000000 0.000000 0.000000 0.026712 0.000000 0.000000
# 5 0.000000 0.000000 0.000000 0.000000 0.063709 0.000000
# 6 0.000000 0.000000 0.000000 0.000000 0.000000 0.034833
#
#
# Mechanical properties :
#
#
# Convention : Reuss Voigt Hill
#
# Bulk Modulus (GPa) = 50.76023 53.80491 52.28257
# Shear Modulus (GPa) = 22.87823 25.48588 24.18206
#
# Velocity S-wave (km/s) = 3.42292 3.61273 3.51910
# Velocity P-wave (km/s) = 6.45113 6.70499 6.57928
#
# Compressibility (1/GPa) = 0.01970046
#
# Stress axis : x y z
#
# Youngs Moduli (GPa) = 43.12510 74.25833 60.38910
#
# Poissons Ratio (x) = 0.38632 0.42809
# Poissons Ratio (y) = 0.22435 0.26968
# Poissons Ratio (z) = 0.30571 0.33161
#
# Static dielectric constant tensor:
#      x y z
#    x 3.442500 0.000000 0.000000 
#    y 0.000000 3.756030 0.000000 
#    z 0.000000 0.000000 3.430560 
# 
# 
# High freq. dielectric constant tensor:
#      x y z
#    x 1.739920 0.000000 0.000000 
#    y 0.000000 1.777270 0.000000 
#    z 0.000000 0.000000 1.746920 
# 
# From -- ./inp_files/6846.got.cif
#   From: 2010.03.12/outbox.cif.g09.slc.cpg/sg63_4_cif.got.tgz:6846.got - 2010.04.10 19:34:48.
