data_PCOD8256595
_publ_section_title
;
Structure prediction by ZEFSAII (Michael W. Deem and Ramdas Pophale) SiO2 
 PCOD8256595
Probable space group: C M C M
;
_chemical_formula_sum "Si O2"
_cell_formula_units_Z 80
_cell_length_a 13.745559
_cell_length_b 22.011384
_cell_length_c 17.255073
_cell_angle_alpha 90.000000
_cell_angle_beta 90.000000
_cell_angle_gamma 90.000000
_cell_volume 5220.673792
_symmetry_space_group_name_H-M "C M C M"
_symmetry_group_IT_number 63
_symmetry_cell_setting 'orthorhombic'
loop_
_space_group_symop_operation_xyz
x,y,z
-x,-y,1/2+z
x,-y,-z
-x,y,1/2-z
-x,-y,-z
x,y,1/2-z
-x,y,z
x,-y,1/2+z
1/2+x,1/2+y,z
1/2-x,1/2-y,1/2+z
1/2+x,1/2-y,-z
1/2-x,1/2+y,1/2-z
1/2-x,1/2-y,-z
1/2+x,1/2+y,1/2-z
1/2-x,1/2+y,z
1/2+x,1/2-y,1/2+z
loop_
_atom_site_type_symbol
_atom_site_label
_atom_site_fract_x
_atom_site_fract_y
_atom_site_fract_z
Si Si1 0.615273 0.738764 0.335415
Si Si2 0.112167 0.869988 0.560824
Si Si3 0.240500 0.943037 0.053164
Si Si4 0.389616 0.515159 0.335282
Si Si5 0.614152 0.876169 0.161094
O O1 0.657190 0.721238 0.250000
O O2 0.500000 0.734695 0.330727
O O3 0.651424 0.693185 0.402628
O O4 0.647387 0.807128 0.356147
O O5 0.186828 0.889246 0.493678
O O6 0.118238 0.918320 0.629342
O O7 0.000000 0.865224 0.530289
O O8 0.334223 0.918859 0.098378
O O9 0.163045 0.964571 0.115265
O O10 0.273081 0.000000 0.000000
O O11 0.342829 0.517844 0.250000
O O12 0.500000 0.493412 0.331538
O O13 0.641243 0.893541 0.250000
O O14 0.500000 0.884312 0.147976
#
# Coordination Sequence:
#
# PCOD8256595 Si02
#       5
#    16  16  16  16  16
#     4   8  14  26  44  63  81 104 136 170 201 234
#     4   9  16  26  41  63  89 110 129 160 202 243
#     4  10  19  28  40  61  87 111 134 162 199 244
#     4   9  16  26  41  60  84 114 141 162 189 233
#     4   9  18  32  47  60  76 102 138 177 208 233
#
# _framework density 15.323691999999999
#
# number of rings (size 3 to 8) (size 9 to 14) (size 15 to 20)
#    0.000    3.000    0.000    3.000    0.000    6.000 
#    0.000    0.000    0.000    0.000    0.000    0.000 
#    0.000    1.600    0.000    0.800    0.000    0.000 
#
# Total GULP energy -495737.306630 kJ/mol
# GULP energy per Si atom -12393.432666 kJ/mol
# Density = 1.528882 g / cm^3
# Si number density = 15.323692 Si / 1000 Ang^3
#
#
#
# Elastic Constant Matrix: (Units=GPa)
#
#
# Indices 1 2 3 4 5 6 
#
# 1 49.3242 39.8127 47.6637 0.0000 0.0000 0.0000
# 2 39.8127 75.6304 50.4839 0.0000 0.0000 0.0000
# 3 47.6637 50.4839 104.8088 0.0000 0.0000 0.0000
# 4 0.0000 0.0000 0.0000 22.1969 0.0000 0.0000
# 5 0.0000 0.0000 0.0000 0.0000 22.4146 0.0000
# 6 0.0000 0.0000 0.0000 0.0000 0.0000 16.4422
#
#
#
# Elastic Compliance Matrix: (Units=1/GPa)
#
#
# Indices 1 2 3 4 5 6 
#
# 1 0.045224 -0.014854 -0.013411 0.000000 0.000000 0.000000
# 2 -0.014854 0.024367 -0.004982 0.000000 0.000000 0.000000
# 3 -0.013411 -0.004982 0.018040 0.000000 0.000000 0.000000
# 4 0.000000 0.000000 0.000000 0.045051 0.000000 0.000000
# 5 0.000000 0.000000 0.000000 0.000000 0.044614 0.000000
# 6 0.000000 0.000000 0.000000 0.000000 0.000000 0.060819
#
#
# Mechanical properties :
#
#
# Convention : Reuss Voigt Hill
#
# Bulk Modulus (GPa) = 47.31287 56.18710 51.74999
# Shear Modulus (GPa) = 16.04342 18.33096 17.18719
#
# Velocity S-wave (km/s) = 3.23920 3.46244 3.35268
# Velocity P-wave (km/s) = 6.70317 7.26161 6.98797
#
# Compressibility (1/GPa) = 0.02113590
#
# Stress axis : x y z
#
# Youngs Moduli (GPa) = 22.11237 41.03928 55.43267
#
# Poissons Ratio (x) = 0.60960 0.74343
# Poissons Ratio (y) = 0.32846 0.27616
# Poissons Ratio (z) = 0.29656 0.20445
#
# Static dielectric constant tensor:
#      x y z
#    x 2.657830 0.000000 0.000000 
#    y 0.000000 3.030000 0.000000 
#    z 0.000000 0.000000 3.073000 
# 
# 
# High freq. dielectric constant tensor:
#      x y z
#    x 1.551810 0.000000 0.000000 
#    y 0.000000 1.585920 0.000000 
#    z 0.000000 0.000000 1.592730 
# 
# From -- ./inp_files/29733.got.cif
#   From: 2010.03.12/outbox.cif.g09.slc.cpg/sg63_15_cif.got.tgz:29733.got - 2010.04.10 19:34:48.
