data_PCOD8256352
_publ_section_title
;
Structure prediction by ZEFSAII (Michael W. Deem and Ramdas Pophale) SiO2 
 PCOD8256352
Probable space group: C M C M
;
_chemical_formula_sum "Si O2"
_cell_formula_units_Z 80
_cell_length_a 28.601280
_cell_length_b 8.657495
_cell_length_c 16.329197
_cell_angle_alpha 90.000000
_cell_angle_beta 90.000000
_cell_angle_gamma 90.000000
_cell_volume 4043.361277
_symmetry_space_group_name_H-M "C M C M"
_symmetry_group_IT_number 63
_symmetry_cell_setting 'orthorhombic'
loop_
_space_group_symop_operation_xyz
x,y,z
-x,-y,1/2+z
x,-y,-z
-x,y,1/2-z
-x,-y,-z
x,y,1/2-z
-x,y,z
x,-y,1/2+z
1/2+x,1/2+y,z
1/2-x,1/2-y,1/2+z
1/2+x,1/2-y,-z
1/2-x,1/2+y,1/2-z
1/2-x,1/2-y,-z
1/2+x,1/2+y,1/2-z
1/2-x,1/2+y,z
1/2+x,1/2-y,1/2+z
loop_
_atom_site_type_symbol
_atom_site_label
_atom_site_fract_x
_atom_site_fract_y
_atom_site_fract_z
Si Si1 0.292851 0.203694 0.652443
Si Si2 0.446148 0.822920 0.506599
Si Si3 0.875705 0.897787 0.578270
Si Si4 0.397731 0.301660 0.343676
Si Si5 0.802518 0.644825 0.153106
O O1 0.298202 0.216704 0.750000
O O2 0.330307 0.312242 0.610127
O O3 0.241920 0.258146 0.622009
O O4 0.300261 0.029951 0.620185
O O5 0.500000 0.800802 0.482627
O O6 0.416222 0.724058 0.442368
O O7 0.438895 0.765104 0.599765
O O8 0.430621 0.000000 0.500000
O O9 0.862132 0.000000 0.500000
O O10 0.894599 0.012868 0.648763
O O11 0.408084 0.255773 0.250000
O O12 0.349532 0.227043 0.377942
O O13 0.802160 0.643304 0.250000
#
# Coordination Sequence:
#
# PCOD8256352 Si02
#       5
#    16  16  16  16  16
#     4  10  18  32  53  76 107 145 184 221 264 321
#     4  10  22  41  61  80 108 145 181 224 282 336
#     4  10  21  35  54  80 108 142 178 222 276 328
#     4  10  20  36  58  84 112 143 185 229 270 323
#     4   9  18  31  52  80 109 143 179 221 269 315
#
# _framework density 19.785519000000001
#
# number of rings (size 3 to 8) (size 9 to 14) (size 15 to 20)
#    0.000    2.200    0.000    3.000    0.000    7.200 
#    0.000   11.000    0.000    4.200    0.000    0.000 
#    0.000    0.000    0.000    0.000    0.000    0.000 
#
# Total GULP energy -496073.601522 kJ/mol
# GULP energy per Si atom -12401.840038 kJ/mol
# Density = 1.974049 g / cm^3
# Si number density = 19.785519 Si / 1000 Ang^3
#
#
#
# Elastic Constant Matrix: (Units=GPa)
#
#
# Indices 1 2 3 4 5 6 
#
# 1 70.6698 40.2995 9.6590 0.0000 0.0000 0.0000
# 2 40.2995 139.7334 12.1983 0.0000 0.0000 0.0000
# 3 9.6590 12.1983 34.0740 0.0000 0.0000 0.0000
# 4 0.0000 0.0000 0.0000 26.6093 0.0000 0.0000
# 5 0.0000 0.0000 0.0000 0.0000 26.5471 0.0000
# 6 0.0000 0.0000 0.0000 0.0000 0.0000 36.1405
#
#
#
# Elastic Compliance Matrix: (Units=1/GPa)
#
#
# Indices 1 2 3 4 5 6 
#
# 1 0.017270 -0.004700 -0.003213 0.000000 0.000000 0.000000
# 2 -0.004700 0.008667 -0.001770 0.000000 0.000000 0.000000
# 3 -0.003213 -0.001770 0.030892 0.000000 0.000000 0.000000
# 4 0.000000 0.000000 0.000000 0.037581 0.000000 0.000000
# 5 0.000000 0.000000 0.000000 0.000000 0.037669 0.000000
# 6 0.000000 0.000000 0.000000 0.000000 0.000000 0.027670
#
#
# Mechanical properties :
#
#
# Convention : Reuss Voigt Hill
#
# Bulk Modulus (GPa) = 26.69355 40.97674 33.83515
# Shear Modulus (GPa) = 26.09578 30.01409 28.05494
#
# Velocity S-wave (km/s) = 3.63565 3.89906 3.76966
# Velocity P-wave (km/s) = 5.58074 6.40513 6.00709
#
# Compressibility (1/GPa) = 0.03746223
#
# Stress axis : x y z
#
# Youngs Moduli (GPa) = 57.90489 115.38610 32.37046
#
# Poissons Ratio (x) = 0.54233 0.10400
# Poissons Ratio (y) = 0.27216 0.05730
# Poissons Ratio (z) = 0.18604 0.20426
#
# Static dielectric constant tensor:
#      x y z
#    x 3.552290 0.000000 0.000000 
#    y 0.000000 3.954190 0.000000 
#    z 0.000000 0.000000 3.400330 
# 
# 
# High freq. dielectric constant tensor:
#      x y z
#    x 1.766200 0.000000 0.000000 
#    y 0.000000 1.791050 0.000000 
#    z 0.000000 0.000000 1.754580 
# 
# From -- ./inp_files/48743.got.cif
#   From: 2010.03.12/outbox.cif.g09.slc.cpg/sg63_25_cif.got.tgz:48743.got - 2010.04.10 19:34:48.
