data_PCOD8256311
_publ_section_title
;
Structure prediction by ZEFSAII (Michael W. Deem and Ramdas Pophale) SiO2 
 PCOD8256311
Probable space group: C M C M
;
_chemical_formula_sum "Si O2"
_cell_formula_units_Z 96
_cell_length_a 23.717065
_cell_length_b 24.985186
_cell_length_c 8.980540
_cell_angle_alpha 90.000000
_cell_angle_beta 90.000000
_cell_angle_gamma 90.000000
_cell_volume 5321.646009
_symmetry_space_group_name_H-M "C M C M"
_symmetry_group_IT_number 63
_symmetry_cell_setting 'orthorhombic'
loop_
_space_group_symop_operation_xyz
x,y,z
-x,-y,1/2+z
x,-y,-z
-x,y,1/2-z
-x,-y,-z
x,y,1/2-z
-x,y,z
x,-y,1/2+z
1/2+x,1/2+y,z
1/2-x,1/2-y,1/2+z
1/2+x,1/2-y,-z
1/2-x,1/2+y,1/2-z
1/2-x,1/2-y,-z
1/2+x,1/2+y,1/2-z
1/2-x,1/2+y,z
1/2+x,1/2-y,1/2+z
loop_
_atom_site_type_symbol
_atom_site_label
_atom_site_fract_x
_atom_site_fract_y
_atom_site_fract_z
Si Si1 0.391287 0.654926 0.426015
Si Si2 0.064834 0.943379 0.423176
Si Si3 0.117953 0.351435 0.415674
Si Si4 0.189650 0.749752 0.926197
Si Si5 0.500000 0.299781 0.077737
Si Si6 0.000000 0.701523 0.591702
Si Si7 0.935470 0.556240 0.423630
O O1 0.395094 0.647277 0.250000
O O2 0.389096 0.596569 0.503642
O O3 0.340094 0.694166 0.471345
O O4 0.446212 0.681412 0.490490
O O5 0.078513 0.949297 0.250000
O O6 0.000000 0.922543 0.446763
O O7 0.072799 0.000000 0.500000
O O8 0.140424 0.366398 0.250000
O O9 0.155254 0.302558 0.483515
O O10 0.114220 0.403486 0.520564
O O11 0.053844 0.334941 0.406349
O O12 0.195120 0.746527 0.750000
O O13 0.250000 0.750000 0.000000
O O14 0.500000 0.317766 0.250000
O O15 0.500000 0.235949 0.059526
O O16 0.000000 0.735119 0.750000
O O17 0.923699 0.500000 0.500000
O O18 0.926543 0.548725 0.250000
O O19 0.000000 0.575499 0.457938
#
# Coordination Sequence:
#
# PCOD8256311 Si02
#       7
#    16  16  16  16   8   8  16
#     4  11  21  36  56  78 110 149 183 221 273 330
#     4  10  20  33  51  81 116 150 184 218 265 322
#     4  10  19  34  55  78 107 144 179 218 269 325
#     4  10  23  40  58  80 106 143 186 228 279 327
#     4  12  22  30  47  80 113 142 178 221 270 325
#     4  10  18  32  51  74 109 144 175 213 270 335
#     4  10  20  32  49  78 113 148 181 216 262 319
#
# _framework density 18.039532000000001
#
# number of rings (size 3 to 8) (size 9 to 14) (size 15 to 20)
#    0.000    1.667    3.333    2.250    0.000    4.000 
#    0.000    0.000    0.000    1.000    0.000    7.000 
#    0.000    0.000    0.000    0.000    0.000    0.000 
#
# Total GULP energy -594773.676058 kJ/mol
# GULP energy per Si atom -12391.118251 kJ/mol
# Density = 1.799847 g / cm^3
# Si number density = 18.039532 Si / 1000 Ang^3
#
#
#
# Elastic Constant Matrix: (Units=GPa)
#
#
# Indices 1 2 3 4 5 6 
#
# 1 95.3790 52.7254 41.8942 0.0000 0.0000 0.0000
# 2 52.7254 125.0826 69.5557 0.0000 0.0000 0.0000
# 3 41.8942 69.5557 92.3510 0.0000 0.0000 0.0000
# 4 0.0000 0.0000 0.0000 34.9717 0.0000 0.0000
# 5 0.0000 0.0000 0.0000 0.0000 29.6960 0.0000
# 6 0.0000 0.0000 0.0000 0.0000 0.0000 13.2992
#
#
#
# Elastic Compliance Matrix: (Units=1/GPa)
#
#
# Indices 1 2 3 4 5 6 
#
# 1 0.014243 -0.004148 -0.003337 0.000000 0.000000 0.000000
# 2 -0.004148 0.014964 -0.009389 0.000000 0.000000 0.000000
# 3 -0.003337 -0.009389 0.019413 0.000000 0.000000 0.000000
# 4 0.000000 0.000000 0.000000 0.028595 0.000000 0.000000
# 5 0.000000 0.000000 0.000000 0.000000 0.033675 0.000000
# 6 0.000000 0.000000 0.000000 0.000000 0.000000 0.075193
#
#
# Mechanical properties :
#
#
# Convention : Reuss Voigt Hill
#
# Bulk Modulus (GPa) = 67.23654 71.24038 69.23846
# Shear Modulus (GPa) = 22.24314 25.50252 23.87283
#
# Velocity S-wave (km/s) = 3.51525 3.76400 3.64175
# Velocity P-wave (km/s) = 7.33680 7.64639 7.49319
#
# Compressibility (1/GPa) = 0.01487287
#
# Stress axis : x y z
#
# Youngs Moduli (GPa) = 70.20782 66.82627 51.51101
#
# Poissons Ratio (x) = 0.27722 0.17189
# Poissons Ratio (y) = 0.29124 0.48362
# Poissons Ratio (z) = 0.23429 0.62741
#
# Static dielectric constant tensor:
#      x y z
#    x 2.997920 0.000000 0.000000 
#    y 0.000000 3.635600 0.000000 
#    z 0.000000 0.000000 3.747640 
# 
# 
# High freq. dielectric constant tensor:
#      x y z
#    x 1.654960 0.000000 0.000000 
#    y 0.000000 1.709330 0.000000 
#    z 0.000000 0.000000 1.705610 
# 
# From -- ./inp_files/12773.got.cif
#   From: 2010.03.12/outbox.cif.g09.slc.cpg/sg63_7_cif.got.tgz:12773.got - 2010.04.10 19:34:48.
