data_PCOD8256800
_publ_section_title
;
Structure prediction by ZEFSAII (Michael W. Deem and Ramdas Pophale) SiO2 
 PCOD8256800
Probable space group: C M C M
;
_chemical_formula_sum "Si O2"
_cell_formula_units_Z 80
_cell_length_a 8.979481
_cell_length_b 19.786536
_cell_length_c 25.622492
_cell_angle_alpha 90.000000
_cell_angle_beta 90.000000
_cell_angle_gamma 90.000000
_cell_volume 4552.420513
_symmetry_space_group_name_H-M "C M C M"
_symmetry_group_IT_number 63
_symmetry_cell_setting 'orthorhombic'
loop_
_space_group_symop_operation_xyz
x,y,z
-x,-y,1/2+z
x,-y,-z
-x,y,1/2-z
-x,-y,-z
x,y,1/2-z
-x,y,z
x,-y,1/2+z
1/2+x,1/2+y,z
1/2-x,1/2-y,1/2+z
1/2+x,1/2-y,-z
1/2-x,1/2+y,1/2-z
1/2-x,1/2-y,-z
1/2+x,1/2+y,1/2-z
1/2-x,1/2+y,z
1/2+x,1/2-y,1/2+z
loop_
_atom_site_type_symbol
_atom_site_label
_atom_site_fract_x
_atom_site_fract_y
_atom_site_fract_z
Si Si1 0.175975 0.675556 0.108014
Si Si2 0.673715 0.671141 0.607758
Si Si3 0.174056 0.178426 0.006416
Si Si4 0.670493 0.416582 0.810785
Si Si5 0.822542 0.931349 0.307886
O O1 0.236447 0.752613 0.113921
O O2 0.249340 0.641666 0.055933
O O3 0.223714 0.634302 0.158536
O O4 0.000000 0.673529 0.101231
O O5 0.500000 0.674697 0.619752
O O6 0.701225 0.640981 0.549284
O O7 0.748041 0.620734 0.650093
O O8 0.000000 0.187016 0.017558
O O9 0.250000 0.250000 0.000000
O O10 0.685516 0.399386 0.750000
O O11 0.500000 0.407567 0.829213
O O12 0.727634 0.492628 0.821973
O O13 0.764773 0.911401 0.250000
O O14 0.000000 0.929633 0.308367
#
# Coordination Sequence:
#
# PCOD8256800 Si02
#       5
#    16  16  16  16  16
#     4  10  19  30  47  71  96 123 156 192 231 277
#     4   8  15  27  45  70  93 116 153 194 229 267
#     4   9  16  28  46  68  96 126 155 191 234 279
#     4   9  18  32  49  68  91 121 153 186 231 282
#     4   8  14  27  47  68  90 116 149 191 233 272
#
# _framework density 17.573069
#
# number of rings (size 3 to 8) (size 9 to 14) (size 15 to 20)
#    0.000    3.200    0.000    3.600    0.000    1.200 
#    0.000    3.000    0.000   13.200    0.000    0.000 
#    0.000    0.000    0.000    0.000    0.000    0.000 
#
# Total GULP energy -495631.305883 kJ/mol
# GULP energy per Si atom -12390.782647 kJ/mol
# Density = 1.753307 g / cm^3
# Si number density = 17.573069 Si / 1000 Ang^3
#
#
#
# Elastic Constant Matrix: (Units=GPa)
#
#
# Indices 1 2 3 4 5 6 
#
# 1 56.3743 24.2483 39.7101 0.0000 0.0000 0.0000
# 2 24.2483 78.0705 67.5482 0.0000 0.0000 0.0000
# 3 39.7101 67.5482 126.8176 0.0000 0.0000 0.0000
# 4 0.0000 0.0000 0.0000 15.3650 0.0000 0.0000
# 5 0.0000 0.0000 0.0000 0.0000 26.9993 0.0000
# 6 0.0000 0.0000 0.0000 0.0000 0.0000 16.5224
#
#
#
# Elastic Compliance Matrix: (Units=1/GPa)
#
#
# Indices 1 2 3 4 5 6 
#
# 1 0.022877 -0.001683 -0.006267 0.000000 0.000000 0.000000
# 2 -0.001683 0.023882 -0.012193 0.000000 0.000000 0.000000
# 3 -0.006267 -0.012193 0.016342 0.000000 0.000000 0.000000
# 4 0.000000 0.000000 0.000000 0.065083 0.000000 0.000000
# 5 0.000000 0.000000 0.000000 0.000000 0.037038 0.000000
# 6 0.000000 0.000000 0.000000 0.000000 0.000000 0.060524
#
#
# Mechanical properties :
#
#
# Convention : Reuss Voigt Hill
#
# Bulk Modulus (GPa) = 43.83248 58.25287 51.04267
# Shear Modulus (GPa) = 18.27239 20.42773 19.35006
#
# Velocity S-wave (km/s) = 3.22808 3.41316 3.32191
# Velocity P-wave (km/s) = 6.23628 6.98239 6.61986
#
# Compressibility (1/GPa) = 0.02281413
#
# Stress axis : x y z
#
# Youngs Moduli (GPa) = 43.71210 41.87333 61.19109
#
# Poissons Ratio (x) = 0.07049 0.38347
# Poissons Ratio (y) = 0.07358 0.74611
# Poissons Ratio (z) = 0.27394 0.51057
#
# Static dielectric constant tensor:
#      x y z
#    x 2.994180 0.000000 0.000000 
#    y 0.000000 3.168220 0.000000 
#    z 0.000000 0.000000 3.824520 
# 
# 
# High freq. dielectric constant tensor:
#      x y z
#    x 1.646860 0.000000 0.000000 
#    y 0.000000 1.650580 0.000000 
#    z 0.000000 0.000000 1.696560 
# 
# From -- ./inp_files/66592.got.cif
#   From: 2010.03.12/outbox.cif.g09.slc.cpg/sg63_34_cif.got.tgz:66592.got - 2010.04.10 19:34:48.
