data_PCOD8256857
_publ_section_title
;
Structure prediction by ZEFSAII (Michael W. Deem and Ramdas Pophale) SiO2 
 PCOD8256857
Probable space group: C M C M
;
_chemical_formula_sum "Si O2"
_cell_formula_units_Z 96
_cell_length_a 11.763959
_cell_length_b 18.785071
_cell_length_c 25.569818
_cell_angle_alpha 90.000000
_cell_angle_beta 90.000000
_cell_angle_gamma 90.000000
_cell_volume 5650.592386
_symmetry_space_group_name_H-M "C M C M"
_symmetry_group_IT_number 63
_symmetry_cell_setting 'orthorhombic'
loop_
_space_group_symop_operation_xyz
x,y,z
-x,-y,1/2+z
x,-y,-z
-x,y,1/2-z
-x,-y,-z
x,y,1/2-z
-x,y,z
x,-y,1/2+z
1/2+x,1/2+y,z
1/2-x,1/2-y,1/2+z
1/2+x,1/2-y,-z
1/2-x,1/2+y,1/2-z
1/2-x,1/2-y,-z
1/2+x,1/2+y,1/2-z
1/2-x,1/2+y,z
1/2+x,1/2-y,1/2+z
loop_
_atom_site_type_symbol
_atom_site_label
_atom_site_fract_x
_atom_site_fract_y
_atom_site_fract_z
Si Si1 0.500000 0.454618 0.418782
Si Si2 0.267947 0.633406 0.072452
Si Si3 0.743065 0.476146 0.391669
Si Si4 0.629658 0.119163 0.528915
Si Si5 0.133583 0.386985 0.190804
Si Si6 0.629916 0.763288 0.114935
Si Si7 0.000000 0.104541 0.475480
O O1 0.613128 0.449861 0.383818
O O2 0.500000 0.526182 0.452151
O O3 0.500000 0.392040 0.461588
O O4 0.253873 0.561417 0.105362
O O5 0.275392 0.700202 0.112529
O O6 0.387271 0.644002 0.042774
O O7 0.168061 0.637488 0.029909
O O8 0.794588 0.443858 0.445504
O O9 0.810799 0.452201 0.340572
O O10 0.500000 0.091927 0.527479
O O11 0.640113 0.190186 0.562652
O O12 0.179016 0.386960 0.250000
O O13 0.164733 0.311685 0.164528
O O14 0.000000 0.400143 0.188010
O O15 0.500000 0.735052 0.121976
#
# Coordination Sequence:
#
# PCOD8256857 Si02
#       7
#     8  16  16  16  16  16   8
#     4   9  16  28  43  72 102 138 164 181 235 299
#     4  11  18  29  48  74 106 133 163 202 245 288
#     4  10  19  30  50  76 101 129 167 208 245 289
#     4  10  20  31  45  71 107 142 170 197 233 288
#     4   9  19  38  59  74  92 125 167 208 254 303
#     4   9  18  32  50  72  98 130 167 205 241 286
#     4   9  16  26  44  68 104 142 162 182 231 292
#
# _framework density 16.989370000000001
#
# number of rings (size 3 to 8) (size 9 to 14) (size 15 to 20)
#    0.000    2.333    2.500    2.500    0.000    2.000 
#    0.000    1.250    0.000    0.000    0.000    0.000 
#    0.000    0.000    0.000    0.000    0.000    0.000 
#
# Total GULP energy -595042.761888 kJ/mol
# GULP energy per Si atom -12396.724206 kJ/mol
# Density = 1.695070 g / cm^3
# Si number density = 16.989370 Si / 1000 Ang^3
#
#
#
# Elastic Constant Matrix: (Units=GPa)
#
#
# Indices 1 2 3 4 5 6 
#
# 1 80.7710 34.8700 31.8545 0.0000 0.0000 0.0000
# 2 34.8700 96.3597 43.7975 0.0000 0.0000 0.0000
# 3 31.8545 43.7975 105.9946 0.0000 0.0000 0.0000
# 4 0.0000 0.0000 0.0000 13.4137 0.0000 0.0000
# 5 0.0000 0.0000 0.0000 0.0000 21.4323 0.0000
# 6 0.0000 0.0000 0.0000 0.0000 0.0000 22.9683
#
#
#
# Elastic Compliance Matrix: (Units=1/GPa)
#
#
# Indices 1 2 3 4 5 6 
#
# 1 0.015343 -0.004256 -0.002853 0.000000 0.000000 0.000000
# 2 -0.004256 0.013958 -0.004489 0.000000 0.000000 0.000000
# 3 -0.002853 -0.004489 0.012146 0.000000 0.000000 0.000000
# 4 0.000000 0.000000 0.000000 0.074551 0.000000 0.000000
# 5 0.000000 0.000000 0.000000 0.000000 0.046659 0.000000
# 6 0.000000 0.000000 0.000000 0.000000 0.000000 0.043538
#
#
# Mechanical properties :
#
#
# Convention : Reuss Voigt Hill
#
# Bulk Modulus (GPa) = 54.78319 56.01881 55.40100
# Shear Modulus (GPa) = 21.23389 23.06975 22.15182
#
# Velocity S-wave (km/s) = 3.53913 3.68896 3.61482
# Velocity P-wave (km/s) = 7.00116 7.15465 7.07832
#
# Compressibility (1/GPa) = 0.01825377
#
# Stress axis : x y z
#
# Youngs Moduli (GPa) = 65.17679 71.64397 82.32890
#
# Poissons Ratio (x) = 0.30489 0.23485
# Poissons Ratio (y) = 0.27737 0.36954
# Poissons Ratio (z) = 0.18592 0.32158
#
# Static dielectric constant tensor:
#      x y z
#    x 3.281840 0.000000 0.000000 
#    y 0.000000 3.094160 0.000000 
#    z 0.000000 0.000000 2.989270 
# 
# 
# High freq. dielectric constant tensor:
#      x y z
#    x 1.653790 0.000000 0.000000 
#    y 0.000000 1.650480 0.000000 
#    z 0.000000 0.000000 1.620050 
# 
# From -- ./inp_files/68355.got.cif
#   From: 2010.03.12/outbox.cif.g09.slc.cpg/sg63_35_cif.got.tgz:68355.got - 2010.04.10 19:34:48.
