data_PCOD8256475
_publ_section_title
;
Structure prediction by ZEFSAII (Michael W. Deem and Ramdas Pophale) SiO2 
 PCOD8256475
Probable space group: C M C M
;
_chemical_formula_sum "Si O2"
_cell_formula_units_Z 64
_cell_length_a 24.764458
_cell_length_b 14.975328
_cell_length_c 8.541551
_cell_angle_alpha 90.000000
_cell_angle_beta 90.000000
_cell_angle_gamma 90.000000
_cell_volume 3167.684424
_symmetry_space_group_name_H-M "C M C M"
_symmetry_group_IT_number 63
_symmetry_cell_setting 'orthorhombic'
loop_
_space_group_symop_operation_xyz
x,y,z
-x,-y,1/2+z
x,-y,-z
-x,y,1/2-z
-x,-y,-z
x,y,1/2-z
-x,y,z
x,-y,1/2+z
1/2+x,1/2+y,z
1/2-x,1/2-y,1/2+z
1/2+x,1/2-y,-z
1/2-x,1/2+y,1/2-z
1/2-x,1/2-y,-z
1/2+x,1/2+y,1/2-z
1/2-x,1/2+y,z
1/2+x,1/2-y,1/2+z
loop_
_atom_site_type_symbol
_atom_site_label
_atom_site_fract_x
_atom_site_fract_y
_atom_site_fract_z
Si Si1 0.883870 0.401759 0.435048
Si Si2 0.190279 0.757087 0.936118
Si Si3 0.000000 0.402654 0.434332
Si Si4 0.610901 0.400539 0.435360
Si Si5 0.500000 0.599420 0.064227
O O1 0.871536 0.500000 0.500000
O O2 0.881845 0.409865 0.250000
O O3 0.839585 0.332337 0.495993
O O4 0.942693 0.361072 0.490268
O O5 0.189615 0.765707 0.750000
O O6 0.250000 0.750000 0.000000
O O7 0.161753 0.843309 0.009069
O O8 0.000000 0.500000 0.500000
O O9 0.000000 0.405158 0.250000
O O10 0.618592 0.500000 0.500000
O O11 0.608095 0.404222 0.250000
O O12 0.555198 0.355525 0.500945
O O13 0.500000 0.603361 0.250000
O O14 0.500000 0.500000 0.000000
#
# Coordination Sequence:
#
# PCOD8256475 Si02
#       5
#    16  16   8  16   8
#     4   9  19  35  58  84 113 146 182 225 281 340
#     4  11  24  41  58  82 114 154 201 248 293 344
#     4   8  14  29  52  81 110 138 172 215 267 331
#     4  11  22  39  62  89 119 154 194 242 296 354
#     4  10  18  33  58  89 122 154 188 233 288 353
#
# _framework density 20.204034
#
# number of rings (size 3 to 8) (size 9 to 14) (size 15 to 20)
#    0.000    2.000    0.000    5.625    0.000    4.000 
#    0.000    5.000    0.000    3.000    0.000    0.000 
#    0.000    0.000    0.000    0.000    0.000    0.000 
#
# Total GULP energy -396526.468039 kJ/mol
# GULP energy per Si atom -12391.452126 kJ/mol
# Density = 2.015805 g / cm^3
# Si number density = 20.204034 Si / 1000 Ang^3
#
#
#
# Elastic Constant Matrix: (Units=GPa)
#
#
# Indices 1 2 3 4 5 6 
#
# 1 212.7402 83.9530 61.0283 0.0000 0.0000 0.0000
# 2 83.9530 107.6057 40.8468 0.0000 0.0000 0.0000
# 3 61.0283 40.8468 118.8610 0.0000 0.0000 0.0000
# 4 0.0000 0.0000 0.0000 27.3787 0.0000 0.0000
# 5 0.0000 0.0000 0.0000 0.0000 27.9996 0.0000
# 6 0.0000 0.0000 0.0000 0.0000 0.0000 47.4346
#
#
#
# Elastic Compliance Matrix: (Units=1/GPa)
#
#
# Indices 1 2 3 4 5 6 
#
# 1 0.007194 -0.004842 -0.002030 0.000000 0.000000 0.000000
# 2 -0.004842 0.013946 -0.002307 0.000000 0.000000 0.000000
# 3 -0.002030 -0.002307 0.010248 0.000000 0.000000 0.000000
# 4 0.000000 0.000000 0.000000 0.036525 0.000000 0.000000
# 5 0.000000 0.000000 0.000000 0.000000 0.035715 0.000000
# 6 0.000000 0.000000 0.000000 0.000000 0.000000 0.021082
#
#
# Mechanical properties :
#
#
# Convention : Reuss Voigt Hill
#
# Bulk Modulus (GPa) = 76.73630 90.09591 83.41611
# Shear Modulus (GPa) = 33.91919 37.45449 35.68684
#
# Velocity S-wave (km/s) = 4.10180 4.31026 4.20732
# Velocity P-wave (km/s) = 7.77793 8.33433 8.06093
#
# Compressibility (1/GPa) = 0.01303164
#
# Stress axis : x y z
#
# Youngs Moduli (GPa) = 139.01387 71.70301 97.58074
#
# Poissons Ratio (x) = 0.34718 0.19804
# Poissons Ratio (y) = 0.67309 0.22509
# Poissons Ratio (z) = 0.28213 0.16539
#
# Static dielectric constant tensor:
#      x y z
#    x 4.878100 0.000000 0.000000 
#    y 0.000000 3.604570 0.000000 
#    z 0.000000 0.000000 3.677450 
# 
# 
# High freq. dielectric constant tensor:
#      x y z
#    x 1.806430 0.000000 0.000000 
#    y 0.000000 1.775060 0.000000 
#    z 0.000000 0.000000 1.793140 
# 
# From -- ./inp_files/9678.got.cif
#   From: 2010.03.12/outbox.cif.g09.slc.cpg/sg63_5_cif.got.tgz:9678.got - 2010.04.10 19:34:48.
