data_PCOD8256763
_publ_section_title
;
Structure prediction by ZEFSAII (Michael W. Deem and Ramdas Pophale) SiO2 
 PCOD8256763
Probable space group: C M C M
;
_chemical_formula_sum "Si O2"
_cell_formula_units_Z 96
_cell_length_a 25.199749
_cell_length_b 24.665613
_cell_length_c 9.170153
_cell_angle_alpha 90.000000
_cell_angle_beta 90.000000
_cell_angle_gamma 90.000000
_cell_volume 5699.866842
_symmetry_space_group_name_H-M "C M C M"
_symmetry_group_IT_number 63
_symmetry_cell_setting 'orthorhombic'
loop_
_space_group_symop_operation_xyz
x,y,z
-x,-y,1/2+z
x,-y,-z
-x,y,1/2-z
-x,-y,-z
x,y,1/2-z
-x,y,z
x,-y,1/2+z
1/2+x,1/2+y,z
1/2-x,1/2-y,1/2+z
1/2+x,1/2-y,-z
1/2-x,1/2+y,1/2-z
1/2-x,1/2-y,-z
1/2+x,1/2+y,1/2-z
1/2-x,1/2+y,z
1/2+x,1/2-y,1/2+z
loop_
_atom_site_type_symbol
_atom_site_label
_atom_site_fract_x
_atom_site_fract_y
_atom_site_fract_z
Si Si1 0.768628 0.051454 0.586843
Si Si2 0.108069 0.048770 0.590881
Si Si3 0.733519 0.664946 0.422472
Si Si4 0.673292 0.755336 0.917588
Si Si5 0.943093 0.753616 0.084993
Si Si6 0.441144 0.638387 0.086312
O O1 0.743222 0.056335 0.750000
O O2 0.830061 0.038701 0.606986
O O3 0.760849 0.106677 0.497110
O O4 0.742921 0.000000 0.500000
O O5 0.081032 0.050214 0.750000
O O6 0.099725 0.105334 0.510845
O O7 0.081419 0.000000 0.500000
O O8 0.724675 0.657467 0.250000
O O9 0.685157 0.701215 0.487030
O O10 0.788216 0.695737 0.460927
O O11 0.682491 0.738400 0.750000
O O12 0.612648 0.777715 0.943169
O O13 0.941633 0.776717 0.250000
O O14 0.000000 0.720899 0.064369
O O15 0.943767 0.801155 0.969862
O O16 0.418918 0.638463 0.250000
O O17 0.500000 0.612351 0.079281
#
# Coordination Sequence:
#
# PCOD8256763 Si02
#       6
#    16  16  16  16  16  16
#     4  10  20  33  48  66  88 114 146 182 220 265
#     4  10  20  32  45  59  76 102 137 177 218 258
#     4  10  19  30  46  68  94 123 152 184 224 268
#     4   9  18  31  46  67  94 122 153 187 223 266
#     4   9  17  30  47  64  84 113 147 181 216 255
#     4  10  20  31  42  58  80 106 138 177 219 260
#
# _framework density 16.842499
#
# number of rings (size 3 to 8) (size 9 to 14) (size 15 to 20)
#    0.000    2.333    0.000    3.000    0.000    8.667 
#    0.000    0.000    0.000    0.000    0.000    0.000 
#    0.000    0.667    0.000    1.167    0.000    1.667 
#
# Total GULP energy -594706.465669 kJ/mol
# GULP energy per Si atom -12389.718035 kJ/mol
# Density = 1.680416 g / cm^3
# Si number density = 16.842499 Si / 1000 Ang^3
#
#
#
# Elastic Constant Matrix: (Units=GPa)
#
#
# Indices 1 2 3 4 5 6 
#
# 1 80.6990 14.0943 15.6128 0.0000 0.0000 0.0000
# 2 14.0943 67.4511 35.2491 0.0000 0.0000 0.0000
# 3 15.6128 35.2491 116.1287 0.0000 0.0000 0.0000
# 4 0.0000 0.0000 0.0000 24.0398 0.0000 0.0000
# 5 0.0000 0.0000 0.0000 0.0000 15.4969 0.0000
# 6 0.0000 0.0000 0.0000 0.0000 0.0000 17.1860
#
#
#
# Elastic Compliance Matrix: (Units=1/GPa)
#
#
# Indices 1 2 3 4 5 6 
#
# 1 0.012977 -0.002139 -0.001095 0.000000 0.000000 0.000000
# 2 -0.002139 0.017973 -0.005168 0.000000 0.000000 0.000000
# 3 -0.001095 -0.005168 0.010327 0.000000 0.000000 0.000000
# 4 0.000000 0.000000 0.000000 0.041598 0.000000 0.000000
# 5 0.000000 0.000000 0.000000 0.000000 0.064529 0.000000
# 6 0.000000 0.000000 0.000000 0.000000 0.000000 0.058187
#
#
# Mechanical properties :
#
#
# Convention : Reuss Voigt Hill
#
# Bulk Modulus (GPa) = 40.86218 43.79903 42.33061
# Shear Modulus (GPa) = 21.68693 24.63271 23.15982
#
# Velocity S-wave (km/s) = 3.59225 3.82846 3.71223
# Velocity P-wave (km/s) = 6.44358 6.75310 6.60015
#
# Compressibility (1/GPa) = 0.02447251
#
# Stress axis : x y z
#
# Youngs Moduli (GPa) = 77.05773 55.63825 96.83317
#
# Poissons Ratio (x) = 0.11902 0.10607
# Poissons Ratio (y) = 0.16485 0.50042
# Poissons Ratio (z) = 0.08441 0.28753
#
# Static dielectric constant tensor:
#      x y z
#    x 3.370830 0.000000 0.000000 
#    y 0.000000 2.848520 0.000000 
#    z 0.000000 0.000000 3.485560 
# 
# 
# High freq. dielectric constant tensor:
#      x y z
#    x 1.630690 0.000000 0.000000 
#    y 0.000000 1.607190 0.000000 
#    z 0.000000 0.000000 1.670410 
# 
# From -- ./inp_files/12314.got.cif
#   From: 2010.03.12/outbox.cif.g09.slc.cpg/sg63_7_cif.got.tgz:12314.got - 2010.04.10 19:34:48.
