data_PCOD8256274
_publ_section_title
;
Structure prediction by ZEFSAII (Michael W. Deem and Ramdas Pophale) SiO2 
 PCOD8256274
Probable space group: C M C M
;
_chemical_formula_sum "Si O2"
_cell_formula_units_Z 128
_cell_length_a 23.790875
_cell_length_b 12.100092
_cell_length_c 24.188378
_cell_angle_alpha 90.000000
_cell_angle_beta 90.000000
_cell_angle_gamma 90.000000
_cell_volume 6963.151340
_symmetry_space_group_name_H-M "C M C M"
_symmetry_group_IT_number 63
_symmetry_cell_setting 'orthorhombic'
loop_
_space_group_symop_operation_xyz
x,y,z
-x,-y,1/2+z
x,-y,-z
-x,y,1/2-z
-x,-y,-z
x,y,1/2-z
-x,y,z
x,-y,1/2+z
1/2+x,1/2+y,z
1/2-x,1/2-y,1/2+z
1/2+x,1/2-y,-z
1/2-x,1/2+y,1/2-z
1/2-x,1/2-y,-z
1/2+x,1/2+y,1/2-z
1/2-x,1/2+y,z
1/2+x,1/2-y,1/2+z
loop_
_atom_site_type_symbol
_atom_site_label
_atom_site_fract_x
_atom_site_fract_y
_atom_site_fract_z
Si Si1 0.436805 0.551689 0.186976
Si Si2 0.674506 0.290347 0.557489
Si Si3 0.240549 0.902456 0.034139
Si Si4 0.663141 0.140289 0.314693
Si Si5 0.935777 0.524244 0.686875
Si Si6 0.564303 0.235586 0.612998
Si Si7 0.726870 0.542907 0.363308
Si Si8 0.349647 0.614324 0.687744
O O1 0.417116 0.572791 0.250000
O O2 0.500000 0.510248 0.184190
O O3 0.428252 0.665325 0.155473
O O4 0.401555 0.451284 0.159330
O O5 0.712725 0.185095 0.548235
O O6 0.686700 0.363592 0.502869
O O7 0.608962 0.254207 0.562995
O O8 0.693182 0.349529 0.614988
O O9 0.217805 0.948315 0.091147
O O10 0.271561 0.000000 0.000000
O O11 0.679948 0.139024 0.250000
O O12 0.603711 0.080778 0.325617
O O13 0.709589 0.074505 0.349636
O O14 0.661684 0.265376 0.339556
O O15 0.926870 0.565412 0.750000
O O16 0.920471 0.623648 0.645604
O O17 0.000000 0.485680 0.677825
O O18 0.500000 0.231495 0.589881
O O19 0.700664 0.476748 0.311524
O O20 0.365955 0.644591 0.750000
#
# Coordination Sequence:
#
# PCOD8256274 Si02
#       8
#    16  16  16  16  16  16  16  16
#     4   9  17  30  49  75 106 142 181 216 253 305
#     4  10  19  34  53  79 101 132 170 221 275 322
#     4   9  20  34  54  75  99 129 176 222 269 323
#     4  10  21  33  48  74 108 144 181 217 261 314
#     4   9  18  32  49  72 104 142 182 220 258 311
#     4  10  18  31  54  81 107 136 174 220 271 322
#     4  11  19  34  52  73 103 138 175 220 262 315
#     4  10  20  33  49  75 109 144 176 212 258 311
#
# _framework density 18.382482
#
# number of rings (size 3 to 8) (size 9 to 14) (size 15 to 20)
#    0.000    2.250    1.250    2.250    0.000    2.000 
#    0.000    3.750    0.000    4.500    0.000   10.500 
#    0.000    0.000    0.000    0.000    0.000    0.000 
#
# Total GULP energy -792942.165541 kJ/mol
# GULP energy per Si atom -12389.721337 kJ/mol
# Density = 1.834064 g / cm^3
# Si number density = 18.382482 Si / 1000 Ang^3
#
#
#
# Elastic Constant Matrix: (Units=GPa)
#
#
# Indices 1 2 3 4 5 6 
#
# 1 120.6483 58.6421 33.6538 0.0000 0.0000 0.0000
# 2 58.6421 125.8258 28.2213 0.0000 0.0000 0.0000
# 3 33.6538 28.2213 42.8057 0.0000 0.0000 0.0000
# 4 0.0000 0.0000 0.0000 21.8091 0.0000 0.0000
# 5 0.0000 0.0000 0.0000 0.0000 34.4813 0.0000
# 6 0.0000 0.0000 0.0000 0.0000 0.0000 29.4721
#
#
#
# Elastic Compliance Matrix: (Units=1/GPa)
#
#
# Indices 1 2 3 4 5 6 
#
# 1 0.012226 -0.004157 -0.006871 0.000000 0.000000 0.000000
# 2 -0.004157 0.010740 -0.003813 0.000000 0.000000 0.000000
# 3 -0.006871 -0.003813 0.031277 0.000000 0.000000 0.000000
# 4 0.000000 0.000000 0.000000 0.045852 0.000000 0.000000
# 5 0.000000 0.000000 0.000000 0.000000 0.029001 0.000000
# 6 0.000000 0.000000 0.000000 0.000000 0.000000 0.033930
#
#
# Mechanical properties :
#
#
# Convention : Reuss Voigt Hill
#
# Bulk Modulus (GPa) = 40.71432 58.92380 49.81906
# Shear Modulus (GPa) = 24.88856 28.40334 26.64595
#
# Velocity S-wave (km/s) = 3.68357 3.93508 3.81140
# Velocity P-wave (km/s) = 6.34729 7.26432 6.82123
#
# Compressibility (1/GPa) = 0.02456138
#
# Stress axis : x y z
#
# Youngs Moduli (GPa) = 81.79518 93.11066 31.97205
#
# Poissons Ratio (x) = 0.38703 0.21969
# Poissons Ratio (y) = 0.34000 0.12190
# Poissons Ratio (z) = 0.56204 0.35500
#
# Static dielectric constant tensor:
#      x y z
#    x 3.377570 0.000000 0.000000 
#    y 0.000000 3.631810 0.000000 
#    z 0.000000 0.000000 3.303210 
# 
# 
# High freq. dielectric constant tensor:
#      x y z
#    x 1.705990 0.000000 0.000000 
#    y 0.000000 1.727980 0.000000 
#    z 0.000000 0.000000 1.685800 
# 
# From -- ./inp_files/65198.got.cif
#   From: 2010.03.12/outbox.cif.g09.slc.cpg/sg63_33_cif.got.tgz:65198.got - 2010.04.10 19:34:48.
