data_PCOD8256926
_publ_section_title
;
Structure prediction by ZEFSAII (Michael W. Deem and Ramdas Pophale) SiO2 
 PCOD8256926
Probable space group: C M C M
;
_chemical_formula_sum "Si O2"
_cell_formula_units_Z 80
_cell_length_a 8.915543
_cell_length_b 19.306781
_cell_length_c 25.938663
_cell_angle_alpha 90.000000
_cell_angle_beta 90.000000
_cell_angle_gamma 90.000000
_cell_volume 4464.833377
_symmetry_space_group_name_H-M "C M C M"
_symmetry_group_IT_number 63
_symmetry_cell_setting 'orthorhombic'
loop_
_space_group_symop_operation_xyz
x,y,z
-x,-y,1/2+z
x,-y,-z
-x,y,1/2-z
-x,-y,-z
x,y,1/2-z
-x,y,z
x,-y,1/2+z
1/2+x,1/2+y,z
1/2-x,1/2-y,1/2+z
1/2+x,1/2-y,-z
1/2-x,1/2+y,1/2-z
1/2-x,1/2-y,-z
1/2+x,1/2+y,1/2-z
1/2-x,1/2+y,z
1/2+x,1/2-y,1/2+z
loop_
_atom_site_type_symbol
_atom_site_label
_atom_site_fract_x
_atom_site_fract_y
_atom_site_fract_z
Si Si1 0.324510 0.610594 0.967916
Si Si2 0.826937 0.478876 0.116156
Si Si3 0.178486 0.120381 0.808459
Si Si4 0.173966 0.625571 0.423482
Si Si5 0.174799 0.227854 0.609803
O O1 0.500000 0.593998 0.966602
O O2 0.242033 0.550287 0.936609
O O3 0.289095 0.684754 0.941894
O O4 0.267716 0.610708 0.025690
O O5 0.743838 0.449547 0.166542
O O6 0.807031 0.561957 0.116013
O O7 0.000000 0.457334 0.118588
O O8 0.235246 0.127217 0.750000
O O9 0.240763 0.186767 0.840585
O O10 0.000000 0.115400 0.811804
O O11 0.240905 0.694709 0.396128
O O12 0.000000 0.635935 0.439066
O O13 0.000000 0.234693 0.619326
#
# Coordination Sequence:
#
# PCOD8256926 Si02
#       5
#    16  16  16  16  16
#     4  10  19  31  49  71  97 132 168 197 228 274
#     4  10  20  32  48  72 100 129 160 194 235 283
#     4   9  18  35  57  74  90 119 159 201 242 285
#     4  10  19  31  47  70 102 132 157 193 238 281
#     4   8  16  31  49  71  96 123 159 197 235 281
#
# _framework density 17.917802999999999
#
# number of rings (size 3 to 8) (size 9 to 14) (size 15 to 20)
#    0.000    2.600    0.000    3.600    0.000    4.400 
#    0.000    5.000    0.000    3.600    0.000    0.000 
#    0.000    0.000    0.000    0.000    0.000    0.000 
#
# Total GULP energy -495905.432197 kJ/mol
# GULP energy per Si atom -12397.635805 kJ/mol
# Density = 1.787702 g / cm^3
# Si number density = 17.917803 Si / 1000 Ang^3
#
#
#
# Elastic Constant Matrix: (Units=GPa)
#
#
# Indices 1 2 3 4 5 6 
#
# 1 41.2484 27.3890 27.4722 0.0000 0.0000 0.0000
# 2 27.3890 115.9601 39.0165 0.0000 0.0000 0.0000
# 3 27.4722 39.0165 113.6286 0.0000 0.0000 0.0000
# 4 0.0000 0.0000 0.0000 10.7226 0.0000 0.0000
# 5 0.0000 0.0000 0.0000 0.0000 23.9422 0.0000
# 6 0.0000 0.0000 0.0000 0.0000 0.0000 20.7854
#
#
#
# Elastic Compliance Matrix: (Units=1/GPa)
#
#
# Indices 1 2 3 4 5 6 
#
# 1 0.031784 -0.005564 -0.005774 0.000000 0.000000 0.000000
# 2 -0.005564 0.010724 -0.002337 0.000000 0.000000 0.000000
# 3 -0.005774 -0.002337 0.010999 0.000000 0.000000 0.000000
# 4 0.000000 0.000000 0.000000 0.093261 0.000000 0.000000
# 5 0.000000 0.000000 0.000000 0.000000 0.041767 0.000000
# 6 0.000000 0.000000 0.000000 0.000000 0.000000 0.048111
#
#
# Mechanical properties :
#
#
# Convention : Reuss Voigt Hill
#
# Bulk Modulus (GPa) = 38.23152 50.95472 44.59312
# Shear Modulus (GPa) = 18.33415 22.88733 20.61074
#
# Velocity S-wave (km/s) = 3.20228 3.57788 3.39528
# Velocity P-wave (km/s) = 5.92083 6.75042 6.34919
#
# Compressibility (1/GPa) = 0.02615642
#
# Stress axis : x y z
#
# Youngs Moduli (GPa) = 31.46284 93.24643 90.91734
#
# Poissons Ratio (x) = 0.51886 0.52493
# Poissons Ratio (y) = 0.17507 0.21248
# Poissons Ratio (z) = 0.18166 0.21792
#
# Static dielectric constant tensor:
#      x y z
#    x 3.178590 0.000000 0.000000 
#    y 0.000000 3.669060 0.000000 
#    z 0.000000 0.000000 3.296600 
# 
# 
# High freq. dielectric constant tensor:
#      x y z
#    x 1.678800 0.000000 0.000000 
#    y 0.000000 1.701130 0.000000 
#    z 0.000000 0.000000 1.675480 
# 
# From -- ./inp_files/66550.got.cif
#   From: 2010.03.12/outbox.cif.g09.slc.cpg/sg63_34_cif.got.tgz:66550.got - 2010.04.10 19:34:48.
