data_PCOD8256569
_publ_section_title
;
Structure prediction by ZEFSAII (Michael W. Deem and Ramdas Pophale) SiO2 
 PCOD8256569
Probable space group: C M C M
;
_chemical_formula_sum "Si O2"
_cell_formula_units_Z 96
_cell_length_a 14.481467
_cell_length_b 20.924327
_cell_length_c 16.780592
_cell_angle_alpha 90.000000
_cell_angle_beta 90.000000
_cell_angle_gamma 90.000000
_cell_volume 5084.770262
_symmetry_space_group_name_H-M "C M C M"
_symmetry_group_IT_number 63
_symmetry_cell_setting 'orthorhombic'
loop_
_space_group_symop_operation_xyz
x,y,z
-x,-y,1/2+z
x,-y,-z
-x,y,1/2-z
-x,-y,-z
x,y,1/2-z
-x,y,z
x,-y,1/2+z
1/2+x,1/2+y,z
1/2-x,1/2-y,1/2+z
1/2+x,1/2-y,-z
1/2-x,1/2+y,1/2-z
1/2-x,1/2-y,-z
1/2+x,1/2+y,1/2-z
1/2-x,1/2+y,z
1/2+x,1/2-y,1/2+z
loop_
_atom_site_type_symbol
_atom_site_label
_atom_site_fract_x
_atom_site_fract_y
_atom_site_fract_z
Si Si1 0.252935 0.746969 0.338504
Si Si2 0.259231 0.942271 0.053353
Si Si3 0.106751 0.660031 0.596529
Si Si4 0.599185 0.257740 0.464296
Si Si5 0.340763 0.362733 0.924216
Si Si6 0.104247 0.010302 0.157014
O O1 0.211154 0.748285 0.250000
O O2 0.341920 0.793114 0.341537
O O3 0.177160 0.773497 0.400096
O O4 0.278104 0.673974 0.359364
O O5 0.344625 0.909884 0.100092
O O6 0.178077 0.965270 0.113007
O O7 0.220936 0.889333 0.994770
O O8 0.298255 0.000000 0.000000
O O9 0.116606 0.689856 0.507641
O O10 0.000000 0.652457 0.622039
O O11 0.500000 0.256520 0.420510
O O12 0.593069 0.311050 0.533868
O O13 0.395768 0.418442 0.879250
O O14 0.129869 0.012794 0.250000
O O15 0.000000 0.983201 0.144468
#
# Coordination Sequence:
#
# PCOD8256569 Si02
#       6
#    16  16  16  16  16  16
#     4  11  21  35  57  86 118 146 179 230 289 335
#     4  10  20  35  59  81 108 147 192 226 271 328
#     4  10  20  38  58  80 110 144 189 235 272 328
#     4  10  19  34  60  85 110 145 185 226 280 340
#     4  10  18  37  58  81 111 145 188 226 272 335
#     4  10  22  37  55  84 117 146 182 231 284 334
#
# _framework density 18.879909000000001
#
# number of rings (size 3 to 8) (size 9 to 14) (size 15 to 20)
#    0.000    1.833    3.333    2.000    0.000    6.000 
#    0.000    0.000    0.000    0.000    0.000    0.000 
#    0.000    0.000    0.000    0.000    0.000    0.000 
#
# Total GULP energy -594966.010882 kJ/mol
# GULP energy per Si atom -12395.125227 kJ/mol
# Density = 1.883694 g / cm^3
# Si number density = 18.879909 Si / 1000 Ang^3
#
#
#
# Elastic Constant Matrix: (Units=GPa)
#
#
# Indices 1 2 3 4 5 6 
#
# 1 116.9743 50.0115 43.3514 0.0000 0.0000 0.0000
# 2 50.0115 96.4257 30.9244 0.0000 0.0000 0.0000
# 3 43.3514 30.9244 98.3629 0.0000 0.0000 0.0000
# 4 0.0000 0.0000 0.0000 19.2101 0.0000 0.0000
# 5 0.0000 0.0000 0.0000 0.0000 15.9549 0.0000
# 6 0.0000 0.0000 0.0000 0.0000 0.0000 27.0650
#
#
#
# Elastic Compliance Matrix: (Units=1/GPa)
#
#
# Indices 1 2 3 4 5 6 
#
# 1 0.012106 -0.005080 -0.003738 0.000000 0.000000 0.000000
# 2 -0.005080 0.013665 -0.002057 0.000000 0.000000 0.000000
# 3 -0.003738 -0.002057 0.012461 0.000000 0.000000 0.000000
# 4 0.000000 0.000000 0.000000 0.052056 0.000000 0.000000
# 5 0.000000 0.000000 0.000000 0.000000 0.062677 0.000000
# 6 0.000000 0.000000 0.000000 0.000000 0.000000 0.036948
#
#
# Mechanical properties :
#
#
# Convention : Reuss Voigt Hill
#
# Bulk Modulus (GPa) = 60.67669 62.25973 61.46821
# Shear Modulus (GPa) = 23.02465 24.94436 23.98451
#
# Velocity S-wave (km/s) = 3.49597 3.63879 3.56809
# Velocity P-wave (km/s) = 6.96446 7.12058 7.04295
#
# Compressibility (1/GPa) = 0.01648079
#
# Stress axis : x y z
#
# Youngs Moduli (GPa) = 82.60146 73.17839 80.25101
#
# Poissons Ratio (x) = 0.37175 0.30002
# Poissons Ratio (y) = 0.41962 0.16510
# Poissons Ratio (z) = 0.30881 0.15055
#
# Static dielectric constant tensor:
#      x y z
#    x 3.359520 0.000000 0.000000 
#    y 0.000000 3.624540 0.000000 
#    z 0.000000 0.000000 3.292910 
# 
# 
# High freq. dielectric constant tensor:
#      x y z
#    x 1.726990 0.000000 0.000000 
#    y 0.000000 1.733130 0.000000 
#    z 0.000000 0.000000 1.717940 
# 
# From -- ./inp_files/31939.got.cif
#   From: 2010.03.12/outbox.cif.g09.slc.cpg/sg63_16_cif.got.tgz:31939.got - 2010.04.10 19:34:48.
