data_PCOD8256520
_publ_section_title
;
Structure prediction by ZEFSAII (Michael W. Deem and Ramdas Pophale) SiO2 
 PCOD8256520
Probable space group: C M C M
;
_chemical_formula_sum "Si O2"
_cell_formula_units_Z 88
_cell_length_a 12.311898
_cell_length_b 19.945746
_cell_length_c 18.434247
_cell_angle_alpha 90.000000
_cell_angle_beta 90.000000
_cell_angle_gamma 90.000000
_cell_volume 4526.897857
_symmetry_space_group_name_H-M "C M C M"
_symmetry_group_IT_number 63
_symmetry_cell_setting 'orthorhombic'
loop_
_space_group_symop_operation_xyz
x,y,z
-x,-y,1/2+z
x,-y,-z
-x,y,1/2-z
-x,-y,-z
x,y,1/2-z
-x,y,z
x,-y,1/2+z
1/2+x,1/2+y,z
1/2-x,1/2-y,1/2+z
1/2+x,1/2-y,-z
1/2-x,1/2+y,1/2-z
1/2-x,1/2-y,-z
1/2+x,1/2+y,1/2-z
1/2-x,1/2+y,z
1/2+x,1/2-y,1/2+z
loop_
_atom_site_type_symbol
_atom_site_label
_atom_site_fract_x
_atom_site_fract_y
_atom_site_fract_z
Si Si1 0.275832 0.429759 0.408262
Si Si2 0.500000 0.262783 0.670613
Si Si3 0.000000 0.091558 0.365805
Si Si4 0.765995 0.919420 0.576349
Si Si5 0.500000 0.444374 0.168002
Si Si6 0.126650 0.312725 0.835470
Si Si7 0.213314 0.300447 0.335418
O O1 0.252390 0.410557 0.490949
O O2 0.236084 0.505791 0.395532
O O3 0.399030 0.421256 0.380558
O O4 0.207696 0.376645 0.362201
O O5 0.500000 0.229641 0.750000
O O6 0.500000 0.342526 0.683155
O O7 0.608897 0.237829 0.630022
O O8 0.893186 0.094337 0.414767
O O9 0.000000 0.024323 0.318158
O O10 0.687360 0.870755 0.620427
O O11 0.500000 0.412148 0.250000
O O12 0.143491 0.326853 0.750000
O O13 0.178704 0.241083 0.858379
O O14 0.000000 0.311444 0.856459
O O15 0.206794 0.301021 0.250000
#
# Coordination Sequence:
#
# PCOD8256520 Si02
#       7
#    16   8   8  16   8  16  16
#     4  10  22  38  56  87 121 155 196 241 293 351
#     4  10  19  35  57  83 113 144 183 243 298 347
#     4  10  18  34  59  87 114 144 193 242 287 352
#     4  10  21  40  60  84 118 159 196 244 294 347
#     4  10  20  33  60  91 119 156 194 240 297 352
#     4  10  22  40  61  86 115 152 200 250 296 353
#     4  10  21  38  59  84 117 150 190 243 299 353
#
# _framework density 19.439361000000002
#
# number of rings (size 3 to 8) (size 9 to 14) (size 15 to 20)
#    0.000    2.000    1.818    1.364    1.273    6.545 
#    3.273    0.909    0.000    0.000    0.000    0.000 
#    0.000    0.000    0.000    0.000    0.000    0.000 
#
# Total GULP energy -545236.438777 kJ/mol
# GULP energy per Si atom -12391.737245 kJ/mol
# Density = 1.939512 g / cm^3
# Si number density = 19.439361 Si / 1000 Ang^3
#
#
#
# Elastic Constant Matrix: (Units=GPa)
#
#
# Indices 1 2 3 4 5 6 
#
# 1 121.0202 59.0374 36.8534 0.0000 0.0000 0.0000
# 2 59.0374 123.1361 37.0080 0.0000 0.0000 0.0000
# 3 36.8534 37.0080 43.5659 0.0000 0.0000 0.0000
# 4 0.0000 0.0000 0.0000 30.0196 0.0000 0.0000
# 5 0.0000 0.0000 0.0000 0.0000 6.3415 0.0000
# 6 0.0000 0.0000 0.0000 0.0000 0.0000 23.8880
#
#
#
# Elastic Compliance Matrix: (Units=1/GPa)
#
#
# Indices 1 2 3 4 5 6 
#
# 1 0.012276 -0.003713 -0.007231 0.000000 0.000000 0.000000
# 2 -0.003713 0.012028 -0.007077 0.000000 0.000000 0.000000
# 3 -0.007231 -0.007077 0.035082 0.000000 0.000000 0.000000
# 4 0.000000 0.000000 0.000000 0.033312 0.000000 0.000000
# 5 0.000000 0.000000 0.000000 0.000000 0.157691 0.000000
# 6 0.000000 0.000000 0.000000 0.000000 0.000000 0.041862
#
#
# Mechanical properties :
#
#
# Convention : Reuss Voigt Hill
#
# Bulk Modulus (GPa) = 42.83479 61.50219 52.16849
# Shear Modulus (GPa) = 14.87767 22.37136 18.62451
#
# Velocity S-wave (km/s) = 2.76947 3.39607 3.09865
# Velocity P-wave (km/s) = 5.68415 6.86180 6.30055
#
# Compressibility (1/GPa) = 0.02334551
#
# Stress axis : x y z
#
# Youngs Moduli (GPa) = 81.45852 83.13926 28.50444
#
# Poissons Ratio (x) = 0.30866 0.20612
# Poissons Ratio (y) = 0.30242 0.20172
# Poissons Ratio (z) = 0.58903 0.58837
#
# Static dielectric constant tensor:
#      x y z
#    x 3.659430 0.000000 0.000000 
#    y 0.000000 3.674560 0.000000 
#    z 0.000000 0.000000 3.331470 
# 
# 
# High freq. dielectric constant tensor:
#      x y z
#    x 1.752840 0.000000 0.000000 
#    y 0.000000 1.764190 0.000000 
#    z 0.000000 0.000000 1.741990 
# 
# From -- ./inp_files/42331.got.cif
#   From: 2010.03.12/outbox.cif.g09.slc.cpg/sg63_22_cif.got.tgz:42331.got - 2010.04.10 19:34:48.
