data_PCOD8256810
_publ_section_title
;
Structure prediction by ZEFSAII (Michael W. Deem and Ramdas Pophale) SiO2 
 PCOD8256810
Probable space group: C M C M
;
_chemical_formula_sum "Si O2"
_cell_formula_units_Z 80
_cell_length_a 27.567355
_cell_length_b 17.590916
_cell_length_c 9.040839
_cell_angle_alpha 90.000000
_cell_angle_beta 90.000000
_cell_angle_gamma 90.000000
_cell_volume 4384.219497
_symmetry_space_group_name_H-M "C M C M"
_symmetry_group_IT_number 63
_symmetry_cell_setting 'orthorhombic'
loop_
_space_group_symop_operation_xyz
x,y,z
-x,-y,1/2+z
x,-y,-z
-x,y,1/2-z
-x,-y,-z
x,y,1/2-z
-x,y,z
x,-y,1/2+z
1/2+x,1/2+y,z
1/2-x,1/2-y,1/2+z
1/2+x,1/2-y,-z
1/2-x,1/2+y,1/2-z
1/2-x,1/2-y,-z
1/2+x,1/2+y,1/2-z
1/2-x,1/2+y,z
1/2+x,1/2-y,1/2+z
loop_
_atom_site_type_symbol
_atom_site_label
_atom_site_fract_x
_atom_site_fract_y
_atom_site_fract_z
Si Si1 0.555605 0.267291 0.078385
Si Si2 0.398378 0.574943 0.577510
Si Si3 0.811865 0.853848 0.919928
Si Si4 0.791328 0.580136 0.077100
Si Si5 0.142220 0.305038 0.422693
O O1 0.567694 0.252980 0.250000
O O2 0.500000 0.249653 0.041177
O O3 0.566696 0.354800 0.037331
O O4 0.587990 0.211121 0.980215
O O5 0.419970 0.500000 0.500000
O O6 0.395856 0.559294 0.750000
O O7 0.344035 0.590814 0.520452
O O8 0.824828 0.871535 0.750000
O O9 0.755813 0.868593 0.954615
O O10 0.823261 0.766488 0.958798
O O11 0.800294 0.567719 0.250000
O O12 0.783781 0.500000 0.000000
O O13 0.837598 0.621985 0.007935
O O14 0.140160 0.323561 0.250000
#
# Coordination Sequence:
#
# PCOD8256810 Si02
#       5
#    16  16  16  16  16
#     4   9  19  36  55  74  98 132 173 214 258 307
#     4  10  19  30  47  72 104 140 175 212 253 297
#     4   9  19  34  52  75 104 139 176 210 246 294
#     4  11  22  35  52  76 106 139 173 209 252 300
#     4  10  20  35  55  79 105 133 169 212 256 303
#
# _framework density 18.247263
#
# number of rings (size 3 to 8) (size 9 to 14) (size 15 to 20)
#    0.000    2.200    0.000    3.000    0.000    5.600 
#    0.000    0.000    0.000    0.600    0.000    0.000 
#    0.000    0.000    0.000    0.000    0.000    0.000 
#
# Total GULP energy -496174.094602 kJ/mol
# GULP energy per Si atom -12404.352365 kJ/mol
# Density = 1.820573 g / cm^3
# Si number density = 18.247263 Si / 1000 Ang^3
#
#
#
# Elastic Constant Matrix: (Units=GPa)
#
#
# Indices 1 2 3 4 5 6 
#
# 1 98.0060 32.9358 48.4169 0.0000 0.0000 0.0000
# 2 32.9358 51.3816 36.1828 0.0000 0.0000 0.0000
# 3 48.4169 36.1828 90.1633 0.0000 0.0000 0.0000
# 4 0.0000 0.0000 0.0000 34.3591 0.0000 0.0000
# 5 0.0000 0.0000 0.0000 0.0000 29.0533 0.0000
# 6 0.0000 0.0000 0.0000 0.0000 0.0000 15.1439
#
#
#
# Elastic Compliance Matrix: (Units=1/GPa)
#
#
# Indices 1 2 3 4 5 6 
#
# 1 0.014912 -0.005464 -0.005815 0.000000 0.000000 0.000000
# 2 -0.005464 0.029131 -0.008756 0.000000 0.000000 0.000000
# 3 -0.005815 -0.008756 0.017728 0.000000 0.000000 0.000000
# 4 0.000000 0.000000 0.000000 0.029104 0.000000 0.000000
# 5 0.000000 0.000000 0.000000 0.000000 0.034419 0.000000
# 6 0.000000 0.000000 0.000000 0.000000 0.000000 0.066033
#
#
# Mechanical properties :
#
#
# Convention : Reuss Voigt Hill
#
# Bulk Modulus (GPa) = 46.08252 52.73577 49.40915
# Shear Modulus (GPa) = 20.95281 23.84563 22.39922
#
# Velocity S-wave (km/s) = 3.39229 3.61890 3.50743
# Velocity P-wave (km/s) = 6.37596 6.81361 6.59841
#
# Compressibility (1/GPa) = 0.02170020
#
# Stress axis : x y z
#
# Youngs Moduli (GPa) = 67.05799 34.32816 56.40934
#
# Poissons Ratio (x) = 0.18757 0.32803
# Poissons Ratio (y) = 0.36640 0.49393
# Poissons Ratio (z) = 0.38996 0.30058
#
# Static dielectric constant tensor:
#      x y z
#    x 3.215620 0.000000 0.000000 
#    y 0.000000 3.250810 0.000000 
#    z 0.000000 0.000000 3.422080 
# 
# 
# High freq. dielectric constant tensor:
#      x y z
#    x 1.694120 0.000000 0.000000 
#    y 0.000000 1.694780 0.000000 
#    z 0.000000 0.000000 1.717120 
# 
# From -- ./inp_files/11965.got.cif
#   From: 2010.03.12/outbox.cif.g09.slc.cpg/sg63_6_cif.got.tgz:11965.got - 2010.04.10 19:34:48.
