data_PCOD8256273
_publ_section_title
;
Structure prediction by ZEFSAII (Michael W. Deem and Ramdas Pophale) SiO2 
 PCOD8256273
Probable space group: C M C M
;
_chemical_formula_sum "Si O2"
_cell_formula_units_Z 64
_cell_length_a 15.456214
_cell_length_b 23.968688
_cell_length_c 9.381275
_cell_angle_alpha 90.000000
_cell_angle_beta 90.000000
_cell_angle_gamma 90.000000
_cell_volume 3475.435647
_symmetry_space_group_name_H-M "C M C M"
_symmetry_group_IT_number 63
_symmetry_cell_setting 'orthorhombic'
loop_
_space_group_symop_operation_xyz
x,y,z
-x,-y,1/2+z
x,-y,-z
-x,y,1/2-z
-x,-y,-z
x,y,1/2-z
-x,y,z
x,-y,1/2+z
1/2+x,1/2+y,z
1/2-x,1/2-y,1/2+z
1/2+x,1/2-y,-z
1/2-x,1/2+y,1/2-z
1/2-x,1/2-y,-z
1/2+x,1/2+y,1/2-z
1/2-x,1/2+y,z
1/2+x,1/2-y,1/2+z
loop_
_atom_site_type_symbol
_atom_site_label
_atom_site_fract_x
_atom_site_fract_y
_atom_site_fract_z
Si Si1 0.152271 0.135711 0.915700
Si Si2 0.601881 0.755612 0.914324
Si Si3 0.346037 0.137837 0.915399
Si Si4 0.500000 0.942266 0.081893
Si Si5 0.500000 0.442212 0.420158
O O1 0.131464 0.141925 0.750000
O O2 0.136906 0.197418 0.980393
O O3 0.249684 0.114207 0.944694
O O4 0.084592 0.090920 0.976460
O O5 0.628797 0.762772 0.750000
O O6 0.500000 0.758069 0.934663
O O7 0.645452 0.804954 0.001015
O O8 0.360863 0.151424 0.750000
O O9 0.415191 0.092002 0.966786
O O10 0.500000 0.954102 0.250000
O O11 0.500000 0.000000 0.000000
O O12 0.500000 0.500000 0.500000
O O13 0.500000 0.451456 0.250000
#
# Coordination Sequence:
#
# PCOD8256273 Si02
#       5
#    16  16  16   8   8
#     4   9  18  34  56  77 104 140 173 206 255 315
#     4  10  18  31  54  81 106 137 171 204 251 313
#     4  10  20  35  54  78 106 137 170 211 261 306
#     4  10  22  37  52  72 100 135 175 214 255 300
#     4  10  20  37  56  76 102 137 179 220 257 302
#
# _framework density 18.414957000000001
#
# number of rings (size 3 to 8) (size 9 to 14) (size 15 to 20)
#    0.000    2.250    2.500    0.750    0.000    2.000 
#    0.000    2.500    0.000    0.000    0.000    0.000 
#    0.000    0.000    0.000    0.000    0.000    0.000 
#
# Total GULP energy -396784.992408 kJ/mol
# GULP energy per Si atom -12399.531013 kJ/mol
# Density = 1.837304 g / cm^3
# Si number density = 18.414957 Si / 1000 Ang^3
#
#
#
# Elastic Constant Matrix: (Units=GPa)
#
#
# Indices 1 2 3 4 5 6 
#
# 1 146.8673 82.3051 34.8255 0.0000 0.0000 0.0000
# 2 82.3051 163.3651 43.8096 0.0000 0.0000 0.0000
# 3 34.8255 43.8096 35.1853 0.0000 0.0000 0.0000
# 4 0.0000 0.0000 0.0000 34.7989 0.0000 0.0000
# 5 0.0000 0.0000 0.0000 0.0000 13.2718 0.0000
# 6 0.0000 0.0000 0.0000 0.0000 0.0000 17.6068
#
#
#
# Elastic Compliance Matrix: (Units=1/GPa)
#
#
# Indices 1 2 3 4 5 6 
#
# 1 0.010156 -0.003635 -0.005527 0.000000 0.000000 0.000000
# 2 -0.003635 0.010491 -0.009464 0.000000 0.000000 0.000000
# 3 -0.005527 -0.009464 0.045675 0.000000 0.000000 0.000000
# 4 0.000000 0.000000 0.000000 0.028737 0.000000 0.000000
# 5 0.000000 0.000000 0.000000 0.000000 0.075348 0.000000
# 6 0.000000 0.000000 0.000000 0.000000 0.000000 0.056796
#
#
# Mechanical properties :
#
#
# Convention : Reuss Voigt Hill
#
# Bulk Modulus (GPa) = 34.39915 74.14424 54.27169
# Shear Modulus (GPa) = 18.23858 25.43402 21.83630
#
# Velocity S-wave (km/s) = 3.15051 3.72043 3.44727
# Velocity P-wave (km/s) = 5.65286 7.66850 6.73650
#
# Compressibility (1/GPa) = 0.02907049
#
# Stress axis : x y z
#
# Youngs Moduli (GPa) = 98.46086 95.32432 21.89366
#
# Poissons Ratio (x) = 0.34648 0.12100
# Poissons Ratio (y) = 0.35788 0.20721
# Poissons Ratio (z) = 0.54418 0.90217
#
# Static dielectric constant tensor:
#      x y z
#    x 3.666010 0.000000 0.000000 
#    y 0.000000 3.366520 0.000000 
#    z 0.000000 0.000000 3.103640 
# 
# 
# High freq. dielectric constant tensor:
#      x y z
#    x 1.733920 0.000000 0.000000 
#    y 0.000000 1.712110 0.000000 
#    z 0.000000 0.000000 1.679570 
# 
# From -- ./inp_files/4292.got.cif
#   From: 2010.03.12/outbox.cif.g09.slc.cpg/sg63_3_cif.got.tgz:4292.got - 2010.04.10 19:34:48.
