data_PCOD8256855
_publ_section_title
;
Structure prediction by ZEFSAII (Michael W. Deem and Ramdas Pophale) SiO2 
 PCOD8256855
Probable space group: C M C M
;
_chemical_formula_sum "Si O2"
_cell_formula_units_Z 88
_cell_length_a 24.127698
_cell_length_b 24.713906
_cell_length_c 9.369151
_cell_angle_alpha 90.000000
_cell_angle_beta 90.000000
_cell_angle_gamma 90.000000
_cell_volume 5586.727868
_symmetry_space_group_name_H-M "C M C M"
_symmetry_group_IT_number 63
_symmetry_cell_setting 'orthorhombic'
loop_
_space_group_symop_operation_xyz
x,y,z
-x,-y,1/2+z
x,-y,-z
-x,y,1/2-z
-x,-y,-z
x,y,1/2-z
-x,y,z
x,-y,1/2+z
1/2+x,1/2+y,z
1/2-x,1/2-y,1/2+z
1/2+x,1/2-y,-z
1/2-x,1/2+y,1/2-z
1/2-x,1/2-y,-z
1/2+x,1/2+y,1/2-z
1/2-x,1/2+y,z
1/2+x,1/2-y,1/2+z
loop_
_atom_site_type_symbol
_atom_site_label
_atom_site_fract_x
_atom_site_fract_y
_atom_site_fract_z
Si Si1 0.500000 0.554379 0.084259
Si Si2 0.242803 0.830400 0.414934
Si Si3 0.907543 0.101029 0.907431
Si Si4 0.336376 0.252677 0.584533
Si Si5 0.935973 0.777131 0.409670
Si Si6 0.287245 0.553631 0.912795
O O1 0.500000 0.543458 0.250000
O O2 0.500000 0.500000 0.000000
O O3 0.445960 0.586646 0.039484
O O4 0.222668 0.825854 0.250000
O O5 0.302352 0.802737 0.436857
O O6 0.196680 0.802025 0.512372
O O7 0.249631 0.893919 0.456751
O O8 0.929459 0.082045 0.750000
O O9 0.905219 0.165362 0.907348
O O10 0.849794 0.072596 0.939848
O O11 0.344261 0.267250 0.750000
O O12 0.397081 0.241973 0.514726
O O13 0.935312 0.752403 0.250000
O O14 0.000000 0.780354 0.464256
O O15 0.276890 0.537667 0.750000
O O16 0.271534 0.500000 0.000000
#
# Coordination Sequence:
#
# PCOD8256855 Si02
#       6
#     8  16  16  16  16  16
#     4  12  24  34  44  58  80 112 156 206 241 274
#     4   9  18  34  50  67  94 128 156 188 240 291
#     4  10  19  34  49  61  83 120 158 192 232 277
#     4  10  19  30  50  74  94 118 157 201 235 277
#     4  10  19  33  51  67  92 128 158 188 237 289
#     4  10  20  33  49  66  90 121 155 193 231 275
#
# _framework density 15.751618000000001
#
# number of rings (size 3 to 8) (size 9 to 14) (size 15 to 20)
#    0.000    2.000    2.727    1.909    0.000    4.727 
#    0.000    0.000    0.000    0.000    0.000    0.000 
#    0.000    0.727    0.000    1.636    0.000    2.909 
#
# Total GULP energy -545288.736612 kJ/mol
# GULP energy per Si atom -12392.925832 kJ/mol
# Density = 1.571577 g / cm^3
# Si number density = 15.751618 Si / 1000 Ang^3
#
#
#
# Elastic Constant Matrix: (Units=GPa)
#
#
# Indices 1 2 3 4 5 6 
#
# 1 71.3437 44.9670 47.9556 0.0000 0.0000 0.0000
# 2 44.9670 95.3432 47.5010 0.0000 0.0000 0.0000
# 3 47.9556 47.5010 100.0207 0.0000 0.0000 0.0000
# 4 0.0000 0.0000 0.0000 23.8071 0.0000 0.0000
# 5 0.0000 0.0000 0.0000 0.0000 22.5435 0.0000
# 6 0.0000 0.0000 0.0000 0.0000 0.0000 19.9551
#
#
#
# Elastic Compliance Matrix: (Units=1/GPa)
#
#
# Indices 1 2 3 4 5 6 
#
# 1 0.024047 -0.007332 -0.008048 0.000000 0.000000 0.000000
# 2 -0.007332 0.015975 -0.004071 0.000000 0.000000 0.000000
# 3 -0.008048 -0.004071 0.015790 0.000000 0.000000 0.000000
# 4 0.000000 0.000000 0.000000 0.042004 0.000000 0.000000
# 5 0.000000 0.000000 0.000000 0.000000 0.044359 0.000000
# 6 0.000000 0.000000 0.000000 0.000000 0.000000 0.050112
#
#
# Mechanical properties :
#
#
# Convention : Reuss Voigt Hill
#
# Bulk Modulus (GPa) = 59.13571 60.83943 59.98757
# Shear Modulus (GPa) = 21.11256 21.68009 21.39632
#
# Velocity S-wave (km/s) = 3.66504 3.71397 3.68959
# Velocity P-wave (km/s) = 7.45212 7.55643 7.50446
#
# Compressibility (1/GPa) = 0.01691026
#
# Stress axis : x y z
#
# Youngs Moduli (GPa) = 41.58452 62.59854 63.33194
#
# Poissons Ratio (x) = 0.45898 0.50967
# Poissons Ratio (y) = 0.30491 0.25783
# Poissons Ratio (z) = 0.33465 0.25485
#
# Static dielectric constant tensor:
#      x y z
#    x 2.936270 0.000000 0.000000 
#    y 0.000000 2.953530 0.000000 
#    z 0.000000 0.000000 2.771090 
# 
# 
# High freq. dielectric constant tensor:
#      x y z
#    x 1.586150 0.000000 0.000000 
#    y 0.000000 1.579210 0.000000 
#    z 0.000000 0.000000 1.611120 
# 
# From -- ./inp_files/9003.got.cif
#   From: 2010.03.12/outbox.cif.g09.slc.cpg/sg63_5_cif.got.tgz:9003.got - 2010.04.10 19:34:48.
