data_PCOD8256336
_publ_section_title
;
Structure prediction by ZEFSAII (Michael W. Deem and Ramdas Pophale) SiO2 
 PCOD8256336
Probable space group: C M C M
;
_chemical_formula_sum "Si O2"
_cell_formula_units_Z 80
_cell_length_a 27.694507
_cell_length_b 8.850587
_cell_length_c 17.252845
_cell_angle_alpha 90.000000
_cell_angle_beta 90.000000
_cell_angle_gamma 90.000000
_cell_volume 4228.890448
_symmetry_space_group_name_H-M "C M C M"
_symmetry_group_IT_number 63
_symmetry_cell_setting 'orthorhombic'
loop_
_space_group_symop_operation_xyz
x,y,z
-x,-y,1/2+z
x,-y,-z
-x,y,1/2-z
-x,-y,-z
x,y,1/2-z
-x,y,z
x,-y,1/2+z
1/2+x,1/2+y,z
1/2-x,1/2-y,1/2+z
1/2+x,1/2-y,-z
1/2-x,1/2+y,1/2-z
1/2-x,1/2-y,-z
1/2+x,1/2+y,1/2-z
1/2-x,1/2+y,z
1/2+x,1/2-y,1/2+z
loop_
_atom_site_type_symbol
_atom_site_label
_atom_site_fract_x
_atom_site_fract_y
_atom_site_fract_z
Si Si1 0.277344 0.243329 0.339518
Si Si2 0.947894 0.936946 0.586108
Si Si3 0.141025 0.890353 0.430820
Si Si4 0.899377 0.648294 0.960005
Si Si5 0.184729 0.583287 0.659246
O O1 0.285505 0.271871 0.250000
O O2 0.313025 0.363915 0.378045
O O3 0.221995 0.281912 0.361315
O O4 0.288619 0.072439 0.363162
O O5 0.938453 0.756417 0.581945
O O6 0.000000 0.962811 0.628729
O O7 0.951711 0.000000 0.500000
O O8 0.902373 0.030742 0.621396
O O9 0.125181 0.732214 0.467732
O O10 0.156730 0.000000 0.500000
O O11 0.861750 0.601172 0.893822
O O12 0.923328 0.500000 0.000000
O O13 0.169560 0.585467 0.750000
#
# Coordination Sequence:
#
# PCOD8256336 Si02
#       5
#    16  16  16  16  16
#     4  10  21  36  51  71 102 142 177 206 252 306
#     4   8  17  33  53  77 104 130 164 212 257 304
#     4   9  19  33  52  77 102 132 168 214 255 299
#     4  10  18  32  52  77 104 127 169 211 257 297
#     4  10  22  35  50  73 104 140 175 208 251 309
#
# _framework density 18.917491999999999
#
# number of rings (size 3 to 8) (size 9 to 14) (size 15 to 20)
#    0.000    3.000    2.000    0.000    5.600    2.000 
#    0.000    0.000    0.000    2.400    0.000    2.800 
#    0.000    0.000    0.000    0.000    0.000    0.000 
#
# Total GULP energy -495540.116986 kJ/mol
# GULP energy per Si atom -12388.502925 kJ/mol
# Density = 1.887443 g / cm^3
# Si number density = 18.917492 Si / 1000 Ang^3
#
#
#
# Elastic Constant Matrix: (Units=GPa)
#
#
# Indices 1 2 3 4 5 6 
#
# 1 67.3416 18.5283 25.9956 0.0000 0.0000 0.0000
# 2 18.5283 102.1506 25.2786 0.0000 0.0000 0.0000
# 3 25.9956 25.2786 25.0623 0.0000 0.0000 0.0000
# 4 0.0000 0.0000 0.0000 20.0624 0.0000 0.0000
# 5 0.0000 0.0000 0.0000 0.0000 2.0372 0.0000
# 6 0.0000 0.0000 0.0000 0.0000 0.0000 -10.8567
#
#
#
# Elastic Compliance Matrix: (Units=1/GPa)
#
#
# Indices 1 2 3 4 5 6 
#
# 1 0.025249 0.002533 -0.028744 0.000000 0.000000 0.000000
# 2 0.002533 0.013300 -0.016043 0.000000 0.000000 0.000000
# 3 -0.028744 -0.016043 0.085896 0.000000 0.000000 0.000000
# 4 0.000000 0.000000 0.000000 0.049844 0.000000 0.000000
# 5 0.000000 0.000000 0.000000 0.000000 0.490868 0.000000
# 6 0.000000 0.000000 0.000000 0.000000 0.000000 -0.092109
#
#
# Mechanical properties :
#
#
# Convention : Reuss Voigt Hill
#
# Bulk Modulus (GPa) = 25.03871 37.12883 31.08377
# Shear Modulus (GPa) = 7.45304 10.56537 9.00921
#
# Velocity S-wave (km/s) = 1.98704 2.36582 2.18465
# Velocity P-wave (km/s) = 4.30452 5.20885 4.77813
#
# Compressibility (1/GPa) = 0.03993817
#
# Stress axis : x y z
#
# Youngs Moduli (GPa) = 39.60629 75.18859 11.64200
#
# Poissons Ratio (x) = -0.19049 0.33464
# Poissons Ratio (y) = -0.10034 0.18677
# Poissons Ratio (z) = 1.13844 1.20621
#
# Static dielectric constant tensor:
#      x y z
#    x 4.020650 0.000000 0.000000 
#    y 0.000000 3.842660 0.000000 
#    z 0.000000 0.000000 3.090640 
# 
# 
# High freq. dielectric constant tensor:
#      x y z
#    x 1.724970 0.000000 0.000000 
#    y 0.000000 1.752370 0.000000 
#    z 0.000000 0.000000 1.694960 
# 
# From -- ./inp_files/49398.got.cif
#   From: 2010.03.12/outbox.cif.g09.slc.cpg/sg63_25_cif.got.tgz:49398.got - 2010.04.10 19:34:48.
