data_PCOD8256108
_publ_section_title
;
Structure prediction by ZEFSAII (Michael W. Deem and Ramdas Pophale) SiO2 
 PCOD8256108
Probable space group: C M C M
;
_chemical_formula_sum "Si O2"
_cell_formula_units_Z 96
_cell_length_a 8.829011
_cell_length_b 20.845829
_cell_length_c 28.090424
_cell_angle_alpha 90.000000
_cell_angle_beta 90.000000
_cell_angle_gamma 90.000000
_cell_volume 5169.987860
_symmetry_space_group_name_H-M "C M C M"
_symmetry_group_IT_number 63
_symmetry_cell_setting 'orthorhombic'
loop_
_space_group_symop_operation_xyz
x,y,z
-x,-y,1/2+z
x,-y,-z
-x,y,1/2-z
-x,-y,-z
x,y,1/2-z
-x,y,z
x,-y,1/2+z
1/2+x,1/2+y,z
1/2-x,1/2-y,1/2+z
1/2+x,1/2-y,-z
1/2-x,1/2+y,1/2-z
1/2-x,1/2-y,-z
1/2+x,1/2+y,1/2-z
1/2-x,1/2+y,z
1/2+x,1/2-y,1/2+z
loop_
_atom_site_type_symbol
_atom_site_label
_atom_site_fract_x
_atom_site_fract_y
_atom_site_fract_z
Si Si1 0.822092 0.119289 0.848206
Si Si2 0.678105 0.125270 0.357621
Si Si3 0.827653 0.498329 0.805041
Si Si4 0.178650 0.063710 0.552337
Si Si5 0.177895 0.573522 0.456541
Si Si6 0.180765 0.250475 0.695665
O O1 0.762490 0.062757 0.815191
O O2 0.777374 0.108994 0.903409
O O3 0.754190 0.186548 0.829597
O O4 0.000000 0.120088 0.841928
O O5 0.500000 0.124800 0.347780
O O6 0.713533 0.123627 0.414105
O O7 0.747872 0.189025 0.333728
O O8 0.746807 0.061394 0.333314
O O9 0.817245 0.480853 0.750000
O O10 0.000000 0.509405 0.821592
O O11 0.236783 0.097882 0.504013
O O12 0.000000 0.051293 0.549172
O O13 0.262810 0.996244 0.558877
O O14 0.000000 0.568738 0.466718
O O15 0.238968 0.253706 0.750000
O O16 0.000000 0.250728 0.694186
#
# Coordination Sequence:
#
# PCOD8256108 Si02
#       6
#    16  16  16  16  16  16
#     4  10  20  33  51  75 102 134 169 207 250 298
#     4   9  17  30  49  75 101 128 166 211 253 292
#     4  10  19  31  50  75 101 128 164 212 258 297
#     4  10  19  31  48  73 104 134 164 202 252 304
#     4  10  18  30  51  76 100 128 165 209 253 298
#     4   9  17  31  51  73 100 134 171 208 246 295
#
# _framework density 18.568708000000001
#
# number of rings (size 3 to 8) (size 9 to 14) (size 15 to 20)
#    0.000    2.333    1.667    3.000    0.000    3.667 
#    0.000    0.833    0.000    3.000    0.000    0.000 
#    0.000    0.000    0.000    0.000    0.000    0.000 
#
# Total GULP energy -595111.579516 kJ/mol
# GULP energy per Si atom -12398.157907 kJ/mol
# Density = 1.852645 g / cm^3
# Si number density = 18.568708 Si / 1000 Ang^3
#
#
#
# Elastic Constant Matrix: (Units=GPa)
#
#
# Indices 1 2 3 4 5 6 
#
# 1 24.4248 7.6095 21.9559 0.0000 0.0000 0.0000
# 2 7.6095 117.4456 57.1502 0.0000 0.0000 0.0000
# 3 21.9559 57.1502 127.1155 0.0000 0.0000 0.0000
# 4 0.0000 0.0000 0.0000 37.1897 0.0000 0.0000
# 5 0.0000 0.0000 0.0000 0.0000 19.6132 0.0000
# 6 0.0000 0.0000 0.0000 0.0000 0.0000 15.7287
#
#
#
# Elastic Compliance Matrix: (Units=1/GPa)
#
#
# Indices 1 2 3 4 5 6 
#
# 1 0.048599 0.001198 -0.008933 0.000000 0.000000 0.000000
# 2 0.001198 0.010929 -0.005120 0.000000 0.000000 0.000000
# 3 -0.008933 -0.005120 0.011712 0.000000 0.000000 0.000000
# 4 0.000000 0.000000 0.000000 0.026889 0.000000 0.000000
# 5 0.000000 0.000000 0.000000 0.000000 0.050986 0.000000
# 6 0.000000 0.000000 0.000000 0.000000 0.000000 0.063578
#
#
# Mechanical properties :
#
#
# Convention : Reuss Voigt Hill
#
# Bulk Modulus (GPa) = 21.96408 49.15742 35.56075
# Shear Modulus (GPa) = 19.71775 26.65768 23.18772
#
# Velocity S-wave (km/s) = 3.26219 3.79307 3.53760
# Velocity P-wave (km/s) = 5.10327 6.76121 5.98988
#
# Compressibility (1/GPa) = 0.04552887
#
# Stress axis : x y z
#
# Youngs Moduli (GPa) = 20.57669 91.50335 85.38378
#
# Poissons Ratio (x) = -0.10962 0.76271
# Poissons Ratio (y) = -0.02465 0.43719
# Poissons Ratio (z) = 0.18381 0.46853
#
# Static dielectric constant tensor:
#      x y z
#    x 3.118500 0.000000 0.000000 
#    y 0.000000 3.473600 0.000000 
#    z 0.000000 0.000000 3.689350 
# 
# 
# High freq. dielectric constant tensor:
#      x y z
#    x 1.685850 0.000000 0.000000 
#    y 0.000000 1.704190 0.000000 
#    z 0.000000 0.000000 1.740060 
# 
# From -- ./inp_files/66860.got.cif
#   From: 2010.03.12/outbox.cif.g09.slc.cpg/sg63_34_cif.got.tgz:66860.got - 2010.04.10 19:34:48.
