data_PCOD8256750
_publ_section_title
;
Structure prediction by ZEFSAII (Michael W. Deem and Ramdas Pophale) SiO2 
 PCOD8256750
Probable space group: C M C M
;
_chemical_formula_sum "Si O2"
_cell_formula_units_Z 80
_cell_length_a 9.425559
_cell_length_b 29.387664
_cell_length_c 15.750428
_cell_angle_alpha 90.000000
_cell_angle_beta 90.000000
_cell_angle_gamma 90.000000
_cell_volume 4362.792338
_symmetry_space_group_name_H-M "C M C M"
_symmetry_group_IT_number 63
_symmetry_cell_setting 'orthorhombic'
loop_
_space_group_symop_operation_xyz
x,y,z
-x,-y,1/2+z
x,-y,-z
-x,y,1/2-z
-x,-y,-z
x,y,1/2-z
-x,y,z
x,-y,1/2+z
1/2+x,1/2+y,z
1/2-x,1/2-y,1/2+z
1/2+x,1/2-y,-z
1/2-x,1/2+y,1/2-z
1/2-x,1/2-y,-z
1/2+x,1/2+y,1/2-z
1/2-x,1/2+y,z
1/2+x,1/2-y,1/2+z
loop_
_atom_site_type_symbol
_atom_site_label
_atom_site_fract_x
_atom_site_fract_y
_atom_site_fract_z
Si Si1 0.168718 0.450356 0.250000
Si Si2 0.668614 0.795579 0.655529
Si Si3 0.832885 0.389867 0.907968
Si Si4 0.330244 0.052650 0.250000
Si Si5 0.838203 0.195957 0.850838
Si Si6 0.667032 0.889236 0.095746
O O1 0.230164 0.501330 0.250000
O O2 0.225112 0.424522 0.165942
O O3 0.000000 0.451492 0.250000
O O4 0.729690 0.802888 0.750000
O O5 0.500000 0.794973 0.659781
O O6 0.725701 0.837956 0.599706
O O7 0.716258 0.746193 0.619645
O O8 0.769743 0.422398 0.834443
O O9 0.000000 0.388541 0.894022
O O10 0.795546 0.408691 0.001857
O O11 0.500000 0.052058 0.250000
O O12 0.825205 0.192004 0.750000
O O13 0.738094 0.159614 0.895082
O O14 0.000000 0.187195 0.879493
O O15 0.500000 0.881867 0.106534
#
# Coordination Sequence:
#
# PCOD8256750 Si02
#       6
#     8  16  16   8  16  16
#     4   9  18  30  42  61  95 127 147 183 236 277
#     4   8  13  24  42  64  90 118 154 196 224 250
#     4   9  16  26  44  68  92 121 155 189 228 272
#     4   9  16  28  45  65  91 121 155 193 230 269
#     4   9  17  29  47  68  90 122 160 190 218 262
#     4  10  19  30  45  69 100 125 146 182 234 279
#
# _framework density 18.336879
#
# number of rings (size 3 to 8) (size 9 to 14) (size 15 to 20)
#    0.000    3.000    2.000    1.200    0.000    1.600 
#    0.000    4.000    0.000    0.000    0.000    4.900 
#    0.000    0.000    0.000    0.000    0.000    0.000 
#
# Total GULP energy -495652.380397 kJ/mol
# GULP energy per Si atom -12391.309510 kJ/mol
# Density = 1.829514 g / cm^3
# Si number density = 18.336879 Si / 1000 Ang^3
#
#
#
# Elastic Constant Matrix: (Units=GPa)
#
#
# Indices 1 2 3 4 5 6 
#
# 1 15.2837 16.8810 17.8606 0.0000 0.0000 0.0000
# 2 16.8810 156.5472 84.0716 0.0000 0.0000 0.0000
# 3 17.8606 84.0716 138.1231 0.0000 0.0000 0.0000
# 4 0.0000 0.0000 0.0000 15.3754 0.0000 0.0000
# 5 0.0000 0.0000 0.0000 0.0000 8.9841 0.0000
# 6 0.0000 0.0000 0.0000 0.0000 0.0000 17.1242
#
#
#
# Elastic Compliance Matrix: (Units=1/GPa)
#
#
# Indices 1 2 3 4 5 6 
#
# 1 0.079168 -0.004515 -0.007489 0.000000 0.000000 0.000000
# 2 -0.004515 0.009747 -0.005349 0.000000 0.000000 0.000000
# 3 -0.007489 -0.005349 0.011464 0.000000 0.000000 0.000000
# 4 0.000000 0.000000 0.000000 0.065039 0.000000 0.000000
# 5 0.000000 0.000000 0.000000 0.000000 0.111308 0.000000
# 6 0.000000 0.000000 0.000000 0.000000 0.000000 0.058397
#
#
# Mechanical properties :
#
#
# Convention : Reuss Voigt Hill
#
# Bulk Modulus (GPa) = 15.22698 60.84229 38.03463
# Shear Modulus (GPa) = 12.76423 21.03948 16.90186
#
# Velocity S-wave (km/s) = 2.64123 3.39098 3.03931
# Velocity P-wave (km/s) = 4.19803 6.97022 5.75359
#
# Compressibility (1/GPa) = 0.06567290
#
# Stress axis : x y z
#
# Youngs Moduli (GPa) = 12.63143 102.59148 87.22841
#
# Poissons Ratio (x) = 0.46321 0.65325
# Poissons Ratio (y) = 0.05703 0.46659
# Poissons Ratio (z) = 0.09460 0.54877
#
# Static dielectric constant tensor:
#      x y z
#    x 2.712360 0.000000 0.000000 
#    y 0.000000 3.677590 0.000000 
#    z 0.000000 0.000000 3.499870 
# 
# 
# High freq. dielectric constant tensor:
#      x y z
#    x 1.631960 0.000000 0.000000 
#    y 0.000000 1.717340 0.000000 
#    z 0.000000 0.000000 1.714810 
# 
# From -- ./inp_files/30041.got.cif
#   From: 2010.03.12/outbox.cif.g09.slc.cpg/sg63_16_cif.got.tgz:30041.got - 2010.04.10 19:34:48.
