data_PCOD8256827
_publ_section_title
;
Structure prediction by ZEFSAII (Michael W. Deem and Ramdas Pophale) SiO2 
 PCOD8256827
Probable space group: C M C M
;
_chemical_formula_sum "Si O2"
_cell_formula_units_Z 128
_cell_length_a 17.935941
_cell_length_b 21.699941
_cell_length_c 19.061703
_cell_angle_alpha 90.000000
_cell_angle_beta 90.000000
_cell_angle_gamma 90.000000
_cell_volume 7418.983722
_symmetry_space_group_name_H-M "C M C M"
_symmetry_group_IT_number 63
_symmetry_cell_setting 'orthorhombic'
loop_
_space_group_symop_operation_xyz
x,y,z
-x,-y,1/2+z
x,-y,-z
-x,y,1/2-z
-x,-y,-z
x,y,1/2-z
-x,y,z
x,-y,1/2+z
1/2+x,1/2+y,z
1/2-x,1/2-y,1/2+z
1/2+x,1/2-y,-z
1/2-x,1/2+y,1/2-z
1/2-x,1/2-y,-z
1/2+x,1/2+y,1/2-z
1/2-x,1/2+y,z
1/2+x,1/2-y,1/2+z
loop_
_atom_site_type_symbol
_atom_site_label
_atom_site_fract_x
_atom_site_fract_y
_atom_site_fract_z
Si Si1 0.786443 0.659171 0.829997
Si Si2 0.915269 0.698545 0.576266
Si Si3 0.276122 0.792597 0.831849
Si Si4 0.417603 0.793188 0.585306
Si Si5 0.653630 0.427228 0.169540
Si Si6 0.083502 0.947363 0.828763
Si Si7 0.636482 0.334137 0.587934
Si Si8 0.582084 0.345562 0.442082
O O1 0.814621 0.661138 0.750000
O O2 0.858983 0.656165 0.879307
O O3 0.736169 0.719664 0.846141
O O4 0.737242 0.598069 0.844632
O O5 0.896227 0.689006 0.494413
O O6 0.906574 0.769731 0.598995
O O7 0.000000 0.678241 0.592305
O O8 0.268818 0.808625 0.750000
O O9 0.356033 0.816857 0.859705
O O10 0.216995 0.831625 0.876323
O O11 0.500000 0.819734 0.604137
O O12 0.417786 0.720265 0.594443
O O13 0.630771 0.412826 0.250000
O O14 0.645340 0.500103 0.154071
O O15 0.596536 0.394619 0.117980
O O16 0.096114 0.923405 0.750000
O O17 0.090243 0.889198 0.878718
O O18 0.000000 0.975062 0.837512
O O19 0.642966 0.348430 0.504742
O O20 0.500000 0.358140 0.474725
#
# Coordination Sequence:
#
# PCOD8256827 Si02
#       8
#    16  16  16  16  16  16  16  16
#     4   9  18  30  46  69  96 125 161 202 245 289
#     4   9  18  31  49  72 100 128 158 199 248 295
#     4  10  19  31  48  71  96 127 164 201 244 291
#     4   9  18  30  46  71  98 126 159 196 246 301
#     4  10  20  33  47  67  95 129 170 208 242 285
#     4  10  20  34  50  67  95 136 171 201 240 283
#     4  10  20  32  49  70 100 129 166 202 235 288
#     4  10  19  30  48  71  96 129 163 202 246 285
#
# _framework density 17.253036000000002
#
# number of rings (size 3 to 8) (size 9 to 14) (size 15 to 20)
#    0.000    2.375    1.250    2.625    1.750    3.750 
#    0.000    2.500    0.000    0.000    0.000    0.875 
#    0.000    5.000    0.000    0.000    0.000    0.000 
#
# Total GULP energy -793344.414845 kJ/mol
# GULP energy per Si atom -12396.006482 kJ/mol
# Density = 1.721377 g / cm^3
# Si number density = 17.253036 Si / 1000 Ang^3
#
#
#
# Elastic Constant Matrix: (Units=GPa)
#
#
# Indices 1 2 3 4 5 6 
#
# 1 109.8888 20.3255 54.0777 0.0000 0.0000 0.0000
# 2 20.3255 45.8218 21.0760 0.0000 0.0000 0.0000
# 3 54.0777 21.0760 77.7394 0.0000 0.0000 0.0000
# 4 0.0000 0.0000 0.0000 18.8599 0.0000 0.0000
# 5 0.0000 0.0000 0.0000 0.0000 33.5745 0.0000
# 6 0.0000 0.0000 0.0000 0.0000 0.0000 21.0705
#
#
#
# Elastic Compliance Matrix: (Units=1/GPa)
#
#
# Indices 1 2 3 4 5 6 
#
# 1 0.013992 -0.001976 -0.009197 0.000000 0.000000 0.000000
# 2 -0.001976 0.025212 -0.005461 0.000000 0.000000 0.000000
# 3 -0.009197 -0.005461 0.020742 0.000000 0.000000 0.000000
# 4 0.000000 0.000000 0.000000 0.053022 0.000000 0.000000
# 5 0.000000 0.000000 0.000000 0.000000 0.029785 0.000000
# 6 0.000000 0.000000 0.000000 0.000000 0.000000 0.047460
#
#
# Mechanical properties :
#
#
# Convention : Reuss Voigt Hill
#
# Bulk Modulus (GPa) = 37.48483 47.15649 42.32066
# Shear Modulus (GPa) = 21.51717 23.89903 22.70810
#
# Velocity S-wave (km/s) = 3.53534 3.72587 3.63186
# Velocity P-wave (km/s) = 6.19988 6.77504 6.49383
#
# Compressibility (1/GPa) = 0.02667746
#
# Stress axis : x y z
#
# Youngs Moduli (GPa) = 71.47093 39.66389 48.21187
#
# Poissons Ratio (x) = 0.07838 0.44342
# Poissons Ratio (y) = 0.14123 0.26327
# Poissons Ratio (z) = 0.65734 0.21659
#
# Static dielectric constant tensor:
#      x y z
#    x 3.269080 0.000000 0.000000 
#    y 0.000000 2.841790 0.000000 
#    z 0.000000 0.000000 3.235550 
# 
# 
# High freq. dielectric constant tensor:
#      x y z
#    x 1.662650 0.000000 0.000000 
#    y 0.000000 1.617530 0.000000 
#    z 0.000000 0.000000 1.673850 
# 
# From -- ./inp_files/56066.got.cif
#   From: 2010.03.12/outbox.cif.g09.slc.cpg/sg63_29_cif.got.tgz:56066.got - 2010.04.10 19:34:48.
