data_PCOD8256216
_publ_section_title
;
Structure prediction by ZEFSAII (Michael W. Deem and Ramdas Pophale) SiO2 
 PCOD8256216
Probable space group: C M C M
;
_chemical_formula_sum "Si O2"
_cell_formula_units_Z 128
_cell_length_a 22.918484
_cell_length_b 13.514092
_cell_length_c 23.064939
_cell_angle_alpha 90.000000
_cell_angle_beta 90.000000
_cell_angle_gamma 90.000000
_cell_volume 7143.730599
_symmetry_space_group_name_H-M "C M C M"
_symmetry_group_IT_number 63
_symmetry_cell_setting 'orthorhombic'
loop_
_space_group_symop_operation_xyz
x,y,z
-x,-y,1/2+z
x,-y,-z
-x,y,1/2-z
-x,-y,-z
x,y,1/2-z
-x,y,z
x,-y,1/2+z
1/2+x,1/2+y,z
1/2-x,1/2-y,1/2+z
1/2+x,1/2-y,-z
1/2-x,1/2+y,1/2-z
1/2-x,1/2-y,-z
1/2+x,1/2+y,1/2-z
1/2-x,1/2+y,z
1/2+x,1/2-y,1/2+z
loop_
_atom_site_type_symbol
_atom_site_label
_atom_site_fract_x
_atom_site_fract_y
_atom_site_fract_z
Si Si1 0.667375 0.242638 0.314448
Si Si2 0.562602 0.892325 0.972941
Si Si3 0.257072 0.629437 0.388279
Si Si4 0.771599 0.935162 0.316574
Si Si5 0.324081 0.183107 0.873173
Si Si6 0.435599 0.113585 0.337533
Si Si7 0.932664 0.396118 0.185459
Si Si8 0.685853 0.114451 0.501908
O O1 0.692841 0.229717 0.250000
O O2 0.700078 0.166275 0.355542
O O3 0.675757 0.358170 0.331827
O O4 0.600358 0.209706 0.317326
O O5 0.500000 0.838645 0.988918
O O6 0.566461 0.905149 0.904987
O O7 0.622069 0.832999 0.990549
O O8 0.561072 0.000000 0.000000
O O9 0.274601 0.521951 0.364203
O O10 0.312336 0.699302 0.374292
O O11 0.238591 0.634806 0.456483
O O12 0.775778 0.974634 0.250000
O O13 0.711704 0.872708 0.322722
O O14 0.392467 0.163168 0.860962
O O15 0.296463 0.143975 0.933462
O O16 0.500000 0.135957 0.314337
O O17 0.412552 0.010600 0.310328
O O18 0.926173 0.349839 0.250000
O O19 0.000000 0.388356 0.163887
O O20 0.671665 0.000000 0.500000
#
# Coordination Sequence:
#
# PCOD8256216 Si02
#       8
#    16  16  16  16  16  16  16  16
#     4  10  20  33  51  76 103 131 170 215 258 312
#     4   9  17  28  45  71 103 137 170 202 247 310
#     4  11  21  36  52  74 103 140 180 215 258 314
#     4  10  21  36  53  73 101 136 173 218 262 303
#     4  11  22  34  54  78 105 138 176 216 262 314
#     4  10  18  31  51  76 106 137 166 208 263 313
#     4  10  20  33  51  79 112 140 169 211 264 322
#     4  11  19  33  52  73 108 143 172 219 266 309
#
# _framework density 17.917808999999998
#
# number of rings (size 3 to 8) (size 9 to 14) (size 15 to 20)
#    0.000    1.750    2.500    3.750    0.000    3.750 
#    0.000    0.000    0.000    0.750    0.000    0.000 
#    0.000    2.500    0.000    0.000    0.000    0.000 
#
# Total GULP energy -792915.852937 kJ/mol
# GULP energy per Si atom -12389.310202 kJ/mol
# Density = 1.787703 g / cm^3
# Si number density = 17.917809 Si / 1000 Ang^3
#
#
#
# Elastic Constant Matrix: (Units=GPa)
#
#
# Indices 1 2 3 4 5 6 
#
# 1 96.3309 49.3433 22.7787 0.0000 0.0000 0.0000
# 2 49.3433 84.6785 30.5616 0.0000 0.0000 0.0000
# 3 22.7787 30.5616 86.1480 0.0000 0.0000 0.0000
# 4 0.0000 0.0000 0.0000 16.0932 0.0000 0.0000
# 5 0.0000 0.0000 0.0000 0.0000 2.1254 0.0000
# 6 0.0000 0.0000 0.0000 0.0000 0.0000 28.4922
#
#
#
# Elastic Compliance Matrix: (Units=1/GPa)
#
#
# Indices 1 2 3 4 5 6 
#
# 1 0.014870 -0.008310 -0.000984 0.000000 0.000000 0.000000
# 2 -0.008310 0.018187 -0.004255 0.000000 0.000000 0.000000
# 3 -0.000984 -0.004255 0.013377 0.000000 0.000000 0.000000
# 4 0.000000 0.000000 0.000000 0.062138 0.000000 0.000000
# 5 0.000000 0.000000 0.000000 0.000000 0.470504 0.000000
# 6 0.000000 0.000000 0.000000 0.000000 0.000000 0.035097
#
#
# Mechanical properties :
#
#
# Convention : Reuss Voigt Hill
#
# Bulk Modulus (GPa) = 51.71243 52.50275 52.10759
# Shear Modulus (GPa) = 7.71942 20.30708 14.01325
#
# Velocity S-wave (km/s) = 2.07788 3.37017 2.79961
# Velocity P-wave (km/s) = 5.88900 6.67156 6.29246
#
# Compressibility (1/GPa) = 0.01933771
#
# Stress axis : x y z
#
# Youngs Moduli (GPa) = 67.24908 54.98345 74.75242
#
# Poissons Ratio (x) = 0.45691 0.07355
# Poissons Ratio (y) = 0.55883 0.31806
# Poissons Ratio (z) = 0.06616 0.23394
#
# Static dielectric constant tensor:
#      x y z
#    x 3.561060 0.000000 0.000000 
#    y 0.000000 3.052460 0.000000 
#    z 0.000000 0.000000 3.527250 
# 
# 
# High freq. dielectric constant tensor:
#      x y z
#    x 1.683850 0.000000 0.000000 
#    y 0.000000 1.649260 0.000000 
#    z 0.000000 0.000000 1.712500 
# 
# From -- ./inp_files/65581.got.cif
#   From: 2010.03.12/outbox.cif.g09.slc.cpg/sg63_33_cif.got.tgz:65581.got - 2010.04.10 19:34:48.
