data_PCOD8256696
_publ_section_title
;
Structure prediction by ZEFSAII (Michael W. Deem and Ramdas Pophale) SiO2 
 PCOD8256696
Probable space group: C M C M
;
_chemical_formula_sum "Si O2"
_cell_formula_units_Z 96
_cell_length_a 20.470883
_cell_length_b 28.717131
_cell_length_c 9.366098
_cell_angle_alpha 90.000000
_cell_angle_beta 90.000000
_cell_angle_gamma 90.000000
_cell_volume 5506.001470
_symmetry_space_group_name_H-M "C M C M"
_symmetry_group_IT_number 63
_symmetry_cell_setting 'orthorhombic'
loop_
_space_group_symop_operation_xyz
x,y,z
-x,-y,1/2+z
x,-y,-z
-x,y,1/2-z
-x,-y,-z
x,y,1/2-z
-x,y,z
x,-y,1/2+z
1/2+x,1/2+y,z
1/2-x,1/2-y,1/2+z
1/2+x,1/2-y,-z
1/2-x,1/2+y,1/2-z
1/2-x,1/2-y,-z
1/2+x,1/2+y,1/2-z
1/2-x,1/2+y,z
1/2+x,1/2-y,1/2+z
loop_
_atom_site_type_symbol
_atom_site_label
_atom_site_fract_x
_atom_site_fract_y
_atom_site_fract_z
Si Si1 0.667680 0.209622 0.586693
Si Si2 0.825582 0.450764 0.080426
Si Si3 0.926905 0.371996 0.081801
Si Si4 0.069942 0.045603 0.588426
Si Si5 0.692277 0.601100 0.917906
Si Si6 0.204950 0.809344 0.912555
O O1 0.688781 0.195851 0.750000
O O2 0.606106 0.177695 0.540325
O O3 0.723974 0.201561 0.473410
O O4 0.654765 0.265269 0.579520
O O5 0.827397 0.459961 0.250000
O O6 0.883795 0.416172 0.029620
O O7 0.758340 0.425286 0.035047
O O8 0.832555 0.500000 0.000000
O O9 0.932761 0.375155 0.250000
O O10 0.000000 0.374316 0.013871
O O11 0.086521 0.031792 0.750000
O O12 0.130224 0.073356 0.524526
O O13 0.000000 0.072977 0.579842
O O14 0.062139 0.000000 0.500000
O O15 0.692478 0.609772 0.750000
O O16 0.677726 0.649574 0.992820
O O17 0.213550 0.825623 0.750000
#
# Coordination Sequence:
#
# PCOD8256696 Si02
#       6
#    16  16  16  16  16  16
#     4   9  17  33  52  73 100 129 163 201 246 297
#     4  10  20  33  50  73  99 130 169 211 254 295
#     4   9  17  32  54  74  97 134 174 206 245 302
#     4   9  18  32  50  71  96 131 170 204 247 300
#     4  10  19  33  51  72 102 136 165 202 249 302
#     4  10  19  29  50  79 102 125 161 206 248 290
#
# _framework density 17.435518999999999
#
# number of rings (size 3 to 8) (size 9 to 14) (size 15 to 20)
#    0.000    2.500    1.667    1.000    0.000    2.333 
#    0.000    0.833    0.000    2.500    0.000    0.000 
#    0.000    0.000    0.000    0.000    0.000    0.000 
#
# Total GULP energy -594667.629654 kJ/mol
# GULP energy per Si atom -12388.908951 kJ/mol
# Density = 1.739584 g / cm^3
# Si number density = 17.435519 Si / 1000 Ang^3
#
#
#
# Elastic Constant Matrix: (Units=GPa)
#
#
# Indices 1 2 3 4 5 6 
#
# 1 136.5024 73.7969 22.0182 0.0000 0.0000 0.0000
# 2 73.7969 128.1500 33.1206 0.0000 0.0000 0.0000
# 3 22.0182 33.1206 29.8630 0.0000 0.0000 0.0000
# 4 0.0000 0.0000 0.0000 33.0197 0.0000 0.0000
# 5 0.0000 0.0000 0.0000 0.0000 14.7077 0.0000
# 6 0.0000 0.0000 0.0000 0.0000 0.0000 30.0211
#
#
#
# Elastic Compliance Matrix: (Units=1/GPa)
#
#
# Indices 1 2 3 4 5 6 
#
# 1 0.010684 -0.005771 -0.001477 0.000000 0.000000 0.000000
# 2 -0.005771 0.014056 -0.011334 0.000000 0.000000 0.000000
# 3 -0.001477 -0.011334 0.047146 0.000000 0.000000 0.000000
# 4 0.000000 0.000000 0.000000 0.030285 0.000000 0.000000
# 5 0.000000 0.000000 0.000000 0.000000 0.067992 0.000000
# 6 0.000000 0.000000 0.000000 0.000000 0.000000 0.033310
#
#
# Mechanical properties :
#
#
# Convention : Reuss Voigt Hill
#
# Bulk Modulus (GPa) = 28.80055 61.37632 45.08843
# Shear Modulus (GPa) = 19.82465 26.58831 23.20648
#
# Velocity S-wave (km/s) = 3.37564 3.90930 3.65223
# Velocity P-wave (km/s) = 5.63449 7.46024 6.61069
#
# Compressibility (1/GPa) = 0.03472156
#
# Stress axis : x y z
#
# Youngs Moduli (GPa) = 93.59822 71.14444 21.21060
#
# Poissons Ratio (x) = 0.41056 0.03133
# Poissons Ratio (y) = 0.54013 0.24041
# Poissons Ratio (z) = 0.13826 0.80638
#
# Static dielectric constant tensor:
#      x y z
#    x 3.775130 0.000000 0.000000 
#    y 0.000000 3.526580 0.000000 
#    z 0.000000 0.000000 3.086250 
# 
# 
# High freq. dielectric constant tensor:
#      x y z
#    x 1.665830 0.000000 0.000000 
#    y 0.000000 1.676620 0.000000 
#    z 0.000000 0.000000 1.656700 
# 
# From -- ./inp_files/8584.got.cif
#   From: 2010.03.12/outbox.cif.g09.slc.cpg/sg63_5_cif.got.tgz:8584.got - 2010.04.10 19:34:48.
