data_PCOD8256198
_publ_section_title
;
Structure prediction by ZEFSAII (Michael W. Deem and Ramdas Pophale) SiO2 
 PCOD8256198
Probable space group: C M C M
;
_chemical_formula_sum "Si O2"
_cell_formula_units_Z 96
_cell_length_a 20.679579
_cell_length_b 18.748440
_cell_length_c 14.255683
_cell_angle_alpha 90.000000
_cell_angle_beta 90.000000
_cell_angle_gamma 90.000000
_cell_volume 5527.068662
_symmetry_space_group_name_H-M "C M C M"
_symmetry_group_IT_number 63
_symmetry_cell_setting 'orthorhombic'
loop_
_space_group_symop_operation_xyz
x,y,z
-x,-y,1/2+z
x,-y,-z
-x,y,1/2-z
-x,-y,-z
x,y,1/2-z
-x,y,z
x,-y,1/2+z
1/2+x,1/2+y,z
1/2-x,1/2-y,1/2+z
1/2+x,1/2-y,-z
1/2-x,1/2+y,1/2-z
1/2-x,1/2-y,-z
1/2+x,1/2+y,1/2-z
1/2-x,1/2+y,z
1/2+x,1/2-y,1/2+z
loop_
_atom_site_type_symbol
_atom_site_label
_atom_site_fract_x
_atom_site_fract_y
_atom_site_fract_z
Si Si1 0.569945 0.544520 0.358906
Si Si2 0.747575 0.915405 0.498461
Si Si3 0.831966 0.162640 0.142471
Si Si4 0.574409 0.734677 0.642414
Si Si5 0.677670 0.217514 0.991761
Si Si6 0.641536 0.590048 0.856649
O O1 0.563236 0.524645 0.250000
O O2 0.500000 0.546733 0.407552
O O3 0.601295 0.621202 0.372587
O O4 0.612913 0.481694 0.403799
O O5 0.775273 0.885924 0.597132
O O6 0.682957 0.868457 0.477233
O O7 0.796495 0.890738 0.417561
O O8 0.732158 0.000000 0.500000
O O9 0.812285 0.172889 0.250000
O O10 0.848306 0.240023 0.098704
O O11 0.584233 0.760420 0.750000
O O12 0.500000 0.750096 0.610472
O O13 0.628573 0.773059 0.578950
O O14 0.586712 0.650126 0.635840
O O15 0.750000 0.250000 0.000000
O O16 0.665075 0.578975 0.750000
#
# Coordination Sequence:
#
# PCOD8256198 Si02
#       6
#    16  16  16  16  16  16
#     4   9  17  29  46  71 105 143 176 206 252 318
#     4  11  21  36  53  77 106 142 189 231 277 330
#     4  10  20  34  49  71 104 144 183 222 267 322
#     4  10  20  35  57  84 113 145 184 234 286 333
#     4  10  21  36  52  79 108 142 184 231 281 333
#     4  10  18  31  50  78 112 143 178 220 267 325
#
# _framework density 17.369063000000001
#
# number of rings (size 3 to 8) (size 9 to 14) (size 15 to 20)
#    0.000    2.000    5.000    0.500    0.000    6.000 
#    0.000    0.833    0.000    0.500    0.000    0.000 
#    0.000    2.667    0.000    0.000    0.000    0.000 
#
# Total GULP energy -594725.569845 kJ/mol
# GULP energy per Si atom -12390.116038 kJ/mol
# Density = 1.732953 g / cm^3
# Si number density = 17.369063 Si / 1000 Ang^3
#
#
#
# Elastic Constant Matrix: (Units=GPa)
#
#
# Indices 1 2 3 4 5 6 
#
# 1 94.6346 48.4312 48.1442 0.0000 0.0000 0.0000
# 2 48.4312 112.0745 51.8987 0.0000 0.0000 0.0000
# 3 48.1442 51.8987 90.8895 0.0000 0.0000 0.0000
# 4 0.0000 0.0000 0.0000 21.4570 0.0000 0.0000
# 5 0.0000 0.0000 0.0000 0.0000 21.9004 0.0000
# 6 0.0000 0.0000 0.0000 0.0000 0.0000 15.6325
#
#
#
# Elastic Compliance Matrix: (Units=1/GPa)
#
#
# Indices 1 2 3 4 5 6 
#
# 1 0.015671 -0.003980 -0.006028 0.000000 0.000000 0.000000
# 2 -0.003980 0.013141 -0.005395 0.000000 0.000000 0.000000
# 3 -0.006028 -0.005395 0.017276 0.000000 0.000000 0.000000
# 4 0.000000 0.000000 0.000000 0.046605 0.000000 0.000000
# 5 0.000000 0.000000 0.000000 0.000000 0.045661 0.000000
# 6 0.000000 0.000000 0.000000 0.000000 0.000000 0.063969
#
#
# Mechanical properties :
#
#
# Convention : Reuss Voigt Hill
#
# Bulk Modulus (GPa) = 65.44211 66.06076 65.75144
# Shear Modulus (GPa) = 20.98867 21.73962 21.36414
#
# Velocity S-wave (km/s) = 3.47997 3.54167 3.51096
# Velocity P-wave (km/s) = 7.34208 7.40545 7.37383
#
# Compressibility (1/GPa) = 0.01528068
#
# Stress axis : x y z
#
# Youngs Moduli (GPa) = 63.81352 76.09693 57.88349
#
# Poissons Ratio (x) = 0.30290 0.34891
# Poissons Ratio (y) = 0.25401 0.31230
# Poissons Ratio (z) = 0.38466 0.41056
#
# Static dielectric constant tensor:
#      x y z
#    x 3.217260 0.000000 0.000000 
#    y 0.000000 3.513940 0.000000 
#    z 0.000000 0.000000 3.324410 
# 
# 
# High freq. dielectric constant tensor:
#      x y z
#    x 1.643570 0.000000 0.000000 
#    y 0.000000 1.657680 0.000000 
#    z 0.000000 0.000000 1.675290 
# 
# From -- ./inp_files/35749.got.cif
#   From: 2010.03.12/outbox.cif.g09.slc.cpg/sg63_18_cif.got.tgz:35749.got - 2010.04.10 19:34:48.
