data_PCOD8256047
_publ_section_title
;
Structure prediction by ZEFSAII (Michael W. Deem and Ramdas Pophale) SiO2 
 PCOD8256047
Probable space group: C M C M
;
_chemical_formula_sum "Si O2"
_cell_formula_units_Z 96
_cell_length_a 8.977471
_cell_length_b 25.230837
_cell_length_c 23.901382
_cell_angle_alpha 90.000000
_cell_angle_beta 90.000000
_cell_angle_gamma 90.000000
_cell_volume 5413.880704
_symmetry_space_group_name_H-M "C M C M"
_symmetry_group_IT_number 63
_symmetry_cell_setting 'orthorhombic'
loop_
_space_group_symop_operation_xyz
x,y,z
-x,-y,1/2+z
x,-y,-z
-x,y,1/2-z
-x,-y,-z
x,y,1/2-z
-x,y,z
x,-y,1/2+z
1/2+x,1/2+y,z
1/2-x,1/2-y,1/2+z
1/2+x,1/2-y,-z
1/2-x,1/2+y,1/2-z
1/2-x,1/2-y,-z
1/2+x,1/2+y,1/2-z
1/2-x,1/2+y,z
1/2+x,1/2-y,1/2+z
loop_
_atom_site_type_symbol
_atom_site_label
_atom_site_fract_x
_atom_site_fract_y
_atom_site_fract_z
Si Si1 0.823067 0.595736 0.631932
Si Si2 0.674684 0.309744 0.561430
Si Si3 0.677716 0.059910 0.750000
Si Si4 0.674515 0.188507 0.946307
Si Si5 0.676643 0.060048 0.250000
Si Si6 0.323434 0.104400 0.367766
Si Si7 0.322752 0.996609 0.562609
O O1 0.762846 0.591353 0.695454
O O2 0.769940 0.650651 0.603937
O O3 0.758458 0.546369 0.596903
O O4 0.000000 0.592731 0.632165
O O5 0.500000 0.319783 0.560272
O O6 0.714431 0.248174 0.571271
O O7 0.742342 0.329074 0.502687
O O8 0.746424 0.341466 0.612774
O O9 0.500000 0.057720 0.750000
O O10 0.740742 0.999819 0.750000
O O11 0.500000 0.181331 0.958184
O O12 0.500000 0.055973 0.250000
O O13 0.731398 0.091399 0.195064
O O14 0.500000 0.111642 0.370241
O O15 0.268779 0.057413 0.408459
O O16 0.500000 0.998618 0.562041
O O17 0.258056 0.000000 0.500000
#
# Coordination Sequence:
#
# PCOD8256047 Si02
#       7
#    16  16   8  16   8  16  16
#     4   9  15  25  44  71  99 121 150 198 250 289
#     4  10  20  33  49  71  99 130 164 200 241 292
#     4   9  14  24  43  73 103 121 147 200 255 284
#     4   9  18  33  52  73  96 126 163 201 245 293
#     4   9  16  28  46  73 101 127 161 200 239 282
#     4  10  18  30  49  72  99 128 162 200 239 287
#     4   9  15  22  39  69  97 118 147 193 244 288
#
# _framework density 17.732198
#
# number of rings (size 3 to 8) (size 9 to 14) (size 15 to 20)
#    0.000    2.667    1.667    1.500    0.000    3.333 
#    0.000    1.250    0.000    6.500    0.000    0.583 
#    0.000    0.000    0.000    0.000    0.000    0.000 
#
# Total GULP energy -595123.016254 kJ/mol
# GULP energy per Si atom -12398.396172 kJ/mol
# Density = 1.769184 g / cm^3
# Si number density = 17.732198 Si / 1000 Ang^3
#
#
#
# Elastic Constant Matrix: (Units=GPa)
#
#
# Indices 1 2 3 4 5 6 
#
# 1 23.9925 24.4847 24.6501 0.0000 0.0000 0.0000
# 2 24.4847 113.6317 81.7398 0.0000 0.0000 0.0000
# 3 24.6501 81.7398 175.1752 0.0000 0.0000 0.0000
# 4 0.0000 0.0000 0.0000 34.3593 0.0000 0.0000
# 5 0.0000 0.0000 0.0000 0.0000 13.7372 0.0000
# 6 0.0000 0.0000 0.0000 0.0000 0.0000 18.5639
#
#
#
# Elastic Compliance Matrix: (Units=1/GPa)
#
#
# Indices 1 2 3 4 5 6 
#
# 1 0.054671 -0.009402 -0.003306 0.000000 0.000000 0.000000
# 2 -0.009402 0.014864 -0.005613 0.000000 0.000000 0.000000
# 3 -0.003306 -0.005613 0.008793 0.000000 0.000000 0.000000
# 4 0.000000 0.000000 0.000000 0.029104 0.000000 0.000000
# 5 0.000000 0.000000 0.000000 0.000000 0.072795 0.000000
# 6 0.000000 0.000000 0.000000 0.000000 0.000000 0.053868
#
#
# Mechanical properties :
#
#
# Convention : Reuss Voigt Hill
#
# Bulk Modulus (GPa) = 23.98873 63.83873 43.91373
# Shear Modulus (GPa) = 17.56656 25.46040 21.51348
#
# Velocity S-wave (km/s) = 3.15089 3.79334 3.48694
# Velocity P-wave (km/s) = 5.17641 7.43409 6.40550
#
# Compressibility (1/GPa) = 0.04168624
#
# Stress axis : x y z
#
# Youngs Moduli (GPa) = 18.29113 67.27818 113.73058
#
# Poissons Ratio (x) = 0.63256 0.37599
# Poissons Ratio (y) = 0.17198 0.63832
# Poissons Ratio (z) = 0.06047 0.37761
#
# Static dielectric constant tensor:
#      x y z
#    x 2.745070 0.000000 0.000000 
#    y 0.000000 3.366820 0.000000 
#    z 0.000000 0.000000 3.560790 
# 
# 
# High freq. dielectric constant tensor:
#      x y z
#    x 1.628550 0.000000 0.000000 
#    y 0.000000 1.688740 0.000000 
#    z 0.000000 0.000000 1.693060 
# 
# From -- ./inp_files/59986.got.cif
#   From: 2010.03.12/outbox.cif.g09.slc.cpg/sg63_30_cif.got.tgz:59986.got - 2010.04.10 19:34:48.
