data_PCOD8256445
_publ_section_title
;
Structure prediction by ZEFSAII (Michael W. Deem and Ramdas Pophale) SiO2 
 PCOD8256445
Probable space group: C M C M
;
_chemical_formula_sum "Si O2"
_cell_formula_units_Z 80
_cell_length_a 8.888606
_cell_length_b 20.177301
_cell_length_c 24.423453
_cell_angle_alpha 90.000000
_cell_angle_beta 90.000000
_cell_angle_gamma 90.000000
_cell_volume 4380.299372
_symmetry_space_group_name_H-M "C M C M"
_symmetry_group_IT_number 63
_symmetry_cell_setting 'orthorhombic'
loop_
_space_group_symop_operation_xyz
x,y,z
-x,-y,1/2+z
x,-y,-z
-x,y,1/2-z
-x,-y,-z
x,y,1/2-z
-x,y,z
x,-y,1/2+z
1/2+x,1/2+y,z
1/2-x,1/2-y,1/2+z
1/2+x,1/2-y,-z
1/2-x,1/2+y,1/2-z
1/2-x,1/2-y,-z
1/2+x,1/2+y,1/2-z
1/2-x,1/2+y,z
1/2+x,1/2-y,1/2+z
loop_
_atom_site_type_symbol
_atom_site_label
_atom_site_fract_x
_atom_site_fract_y
_atom_site_fract_z
Si Si1 0.671604 0.358793 0.750000
Si Si2 0.667326 0.483591 0.250000
Si Si3 0.178584 0.360042 0.638281
Si Si4 0.327272 0.068570 0.971681
Si Si5 0.327877 0.988878 0.356591
Si Si6 0.677874 0.687829 0.470340
O O1 0.500000 0.332886 0.750000
O O2 0.677614 0.437637 0.750000
O O3 0.757412 0.332786 0.804033
O O4 0.500000 0.456129 0.250000
O O5 0.743789 0.456486 0.305047
O O6 0.227602 0.436714 0.629026
O O7 0.252967 0.317412 0.590204
O O8 0.000000 0.350784 0.636822
O O9 0.500000 0.088201 0.985430
O O10 0.301965 0.060501 0.906969
O O11 0.214937 0.123526 0.993680
O O12 0.285619 0.000000 0.000000
O O13 0.500000 0.994286 0.339514
O O14 0.500000 0.696835 0.465765
O O15 0.750000 0.750000 0.500000
#
# Coordination Sequence:
#
# PCOD8256445 Si02
#       6
#     8   8  16  16  16  16
#     4   9  17  29  47  78 111 142 179 226 275 321
#     4   9  17  27  43  72 111 142 175 224 269 313
#     4  10  18  33  54  79 109 145 184 226 274 328
#     4  10  19  36  58  82 110 143 181 225 274 330
#     4   9  17  30  52  77 107 143 179 219 271 329
#     4  12  25  39  56  80 112 150 188 232 281 336
#
# _framework density 18.263593
#
# number of rings (size 3 to 8) (size 9 to 14) (size 15 to 20)
#    0.000    2.000    2.000    3.000    0.000    4.400 
#    0.000    0.000    0.000    1.200    0.000    4.200 
#    0.000    0.000    0.000    0.000    0.000    0.000 
#
# Total GULP energy -496043.958879 kJ/mol
# GULP energy per Si atom -12401.098972 kJ/mol
# Density = 1.822202 g / cm^3
# Si number density = 18.263593 Si / 1000 Ang^3
#
#
#
# Elastic Constant Matrix: (Units=GPa)
#
#
# Indices 1 2 3 4 5 6 
#
# 1 120.1455 35.6372 73.6623 0.0000 0.0000 0.0000
# 2 35.6372 51.1985 49.8260 0.0000 0.0000 0.0000
# 3 73.6623 49.8260 147.0837 0.0000 0.0000 0.0000
# 4 0.0000 0.0000 0.0000 18.2397 0.0000 0.0000
# 5 0.0000 0.0000 0.0000 0.0000 37.5795 0.0000
# 6 0.0000 0.0000 0.0000 0.0000 0.0000 23.4015
#
#
#
# Elastic Compliance Matrix: (Units=1/GPa)
#
#
# Indices 1 2 3 4 5 6 
#
# 1 0.012511 -0.003895 -0.004946 0.000000 0.000000 0.000000
# 2 -0.003895 0.030350 -0.008331 0.000000 0.000000 0.000000
# 3 -0.004946 -0.008331 0.012098 0.000000 0.000000 0.000000
# 4 0.000000 0.000000 0.000000 0.054825 0.000000 0.000000
# 5 0.000000 0.000000 0.000000 0.000000 0.026610 0.000000
# 6 0.000000 0.000000 0.000000 0.000000 0.000000 0.042732
#
#
# Mechanical properties :
#
#
# Convention : Reuss Voigt Hill
#
# Bulk Modulus (GPa) = 48.50674 70.74207 59.62440
# Shear Modulus (GPa) = 22.69180 26.46428 24.57804
#
# Velocity S-wave (km/s) = 3.52868 3.81073 3.67241
# Velocity P-wave (km/s) = 6.57412 7.62760 7.12037
#
# Compressibility (1/GPa) = 0.02061569
#
# Stress axis : x y z
#
# Youngs Moduli (GPa) = 79.92844 32.94856 82.65595
#
# Poissons Ratio (x) = 0.12832 0.40886
# Poissons Ratio (y) = 0.31129 0.68860
# Poissons Ratio (z) = 0.39537 0.27449
#
# Static dielectric constant tensor:
#      x y z
#    x 3.413240 0.000000 0.000000 
#    y 0.000000 2.691420 0.000000 
#    z 0.000000 0.000000 3.579040 
# 
# 
# High freq. dielectric constant tensor:
#      x y z
#    x 1.713190 0.000000 0.000000 
#    y 0.000000 1.654270 0.000000 
#    z 0.000000 0.000000 1.729470 
# 
# From -- ./inp_files/66707.got.cif
#   From: 2010.03.12/outbox.cif.g09.slc.cpg/sg63_34_cif.got.tgz:66707.got - 2010.04.10 19:34:48.
