data_PCOD8256555
_publ_section_title
;
Structure prediction by ZEFSAII (Michael W. Deem and Ramdas Pophale) SiO2 
 PCOD8256555
Probable space group: C M C M
;
_chemical_formula_sum "Si O2"
_cell_formula_units_Z 112
_cell_length_a 13.469702
_cell_length_b 13.053802
_cell_length_c 31.358663
_cell_angle_alpha 90.000000
_cell_angle_beta 90.000000
_cell_angle_gamma 90.000000
_cell_volume 5513.819521
_symmetry_space_group_name_H-M "C M C M"
_symmetry_group_IT_number 63
_symmetry_cell_setting 'orthorhombic'
loop_
_space_group_symop_operation_xyz
x,y,z
-x,-y,1/2+z
x,-y,-z
-x,y,1/2-z
-x,-y,-z
x,y,1/2-z
-x,y,z
x,-y,1/2+z
1/2+x,1/2+y,z
1/2-x,1/2-y,1/2+z
1/2+x,1/2-y,-z
1/2-x,1/2+y,1/2-z
1/2-x,1/2-y,-z
1/2+x,1/2+y,1/2-z
1/2-x,1/2+y,z
1/2+x,1/2-y,1/2+z
loop_
_atom_site_type_symbol
_atom_site_label
_atom_site_fract_x
_atom_site_fract_y
_atom_site_fract_z
Si Si1 0.728645 0.262560 0.049094
Si Si2 0.208090 0.040780 0.593758
Si Si3 0.818631 0.892101 0.795840
Si Si4 0.390989 0.830031 0.686767
Si Si5 0.109353 0.400683 0.592476
Si Si6 0.614608 0.667440 0.111174
Si Si7 0.386817 0.396694 0.324161
O O1 0.693080 0.380310 0.054827
O O2 0.642181 0.180675 0.057010
O O3 0.820610 0.244189 0.082092
O O4 0.750000 0.250000 0.000000
O O5 0.188733 0.105130 0.636359
O O6 0.320238 0.999124 0.594269
O O7 0.131190 0.946140 0.591899
O O8 0.853810 0.843173 0.750000
O O9 0.698186 0.896918 0.794252
O O10 0.854696 0.830920 0.838222
O O11 0.858918 0.007793 0.794437
O O12 0.500000 0.867233 0.703553
O O13 0.388329 0.837238 0.635974
O O14 0.374744 0.711144 0.700288
O O15 0.000000 0.441718 0.581376
O O16 0.500000 0.698916 0.107292
O O17 0.500000 0.410034 0.340285
#
# Coordination Sequence:
#
# PCOD8256555 Si02
#       7
#    16  16  16  16  16  16  16
#     4  11  23  39  60  86 118 155 198 246 298 359
#     4  10  18  36  58  82 113 150 189 234 291 344
#     4  11  21  36  58  87 120 153 191 243 298 352
#     4  10  19  36  60  87 115 152 195 240 291 345
#     4  10  20  35  58  85 112 147 196 239 290 351
#     4  10  22  40  58  85 118 153 197 245 297 355
#     4  10  19  34  59  86 111 146 193 238 282 341
#
# _framework density 20.312598000000001
#
# number of rings (size 3 to 8) (size 9 to 14) (size 15 to 20)
#    0.000    1.714    5.714    1.714    0.000    6.000 
#    0.000    2.857    0.000    0.857    0.000    4.000 
#    0.000    0.000    0.000    0.000    0.000    0.000 
#
# Total GULP energy -693863.257335 kJ/mol
# GULP energy per Si atom -12390.415310 kJ/mol
# Density = 2.026637 g / cm^3
# Si number density = 20.312598 Si / 1000 Ang^3
#
#
#
# Elastic Constant Matrix: (Units=GPa)
#
#
# Indices 1 2 3 4 5 6 
#
# 1 124.0654 28.4576 24.5119 0.0000 0.0000 0.0000
# 2 28.4576 69.1178 25.0193 0.0000 0.0000 0.0000
# 3 24.5119 25.0193 132.2603 0.0000 0.0000 0.0000
# 4 0.0000 0.0000 0.0000 16.7228 0.0000 0.0000
# 5 0.0000 0.0000 0.0000 0.0000 -76.1980 0.0000
# 6 0.0000 0.0000 0.0000 0.0000 0.0000 26.4277
#
#
#
# Elastic Compliance Matrix: (Units=1/GPa)
#
#
# Indices 1 2 3 4 5 6 
#
# 1 0.009033 -0.003342 -0.001042 0.000000 0.000000 0.000000
# 2 -0.003342 0.016768 -0.002553 0.000000 0.000000 0.000000
# 3 -0.001042 -0.002553 0.008237 0.000000 0.000000 0.000000
# 4 0.000000 0.000000 0.000000 0.059799 0.000000 0.000000
# 5 0.000000 0.000000 0.000000 0.000000 -0.013124 0.000000
# 6 0.000000 0.000000 0.000000 0.000000 0.000000 0.037839
#
#
# Mechanical properties :
#
#
# Convention : Reuss Voigt Hill
#
# Bulk Modulus (GPa) = 49.59137 53.49125 51.54131
# Shear Modulus (GPa) = 35.93362 9.88749 22.91055
#
# Velocity S-wave (km/s) = 4.21055 2.20867 3.36206
# Velocity P-wave (km/s) = 6.93580 5.73546 6.36400
#
# Compressibility (1/GPa) = 0.02016480
#
# Stress axis : x y z
#
# Youngs Moduli (GPa) = 110.70947 59.63754 121.40631
#
# Poissons Ratio (x) = 0.19930 0.12649
# Poissons Ratio (y) = 0.36997 0.30990
# Poissons Ratio (z) = 0.11534 0.15223
#
# Static dielectric constant tensor:
#      x y z
#    x 3.927870 0.000000 0.000000 
#    y 0.000000 3.585280 0.000000 
#    z 0.000000 0.000000 3.604880 
# 
# 
# High freq. dielectric constant tensor:
#      x y z
#    x 1.796820 0.000000 0.000000 
#    y 0.000000 1.778010 0.000000 
#    z 0.000000 0.000000 1.779360 
# 
# From -- ./inp_files/73553.got.cif
#   From: 2010.03.12/outbox.cif.g09.slc.cpg/sg63_37_cif.got.tgz:73553.got - 2010.04.10 19:34:48.
