data_PCOD8256379
_publ_section_title
;
Structure prediction by ZEFSAII (Michael W. Deem and Ramdas Pophale) SiO2 
 PCOD8256379
Probable space group: C M C M
;
_chemical_formula_sum "Si O2"
_cell_formula_units_Z 88
_cell_length_a 28.986796
_cell_length_b 19.997305
_cell_length_c 8.909470
_cell_angle_alpha 90.000000
_cell_angle_beta 90.000000
_cell_angle_gamma 90.000000
_cell_volume 5164.443785
_symmetry_space_group_name_H-M "C M C M"
_symmetry_group_IT_number 63
_symmetry_cell_setting 'orthorhombic'
loop_
_space_group_symop_operation_xyz
x,y,z
-x,-y,1/2+z
x,-y,-z
-x,y,1/2-z
-x,-y,-z
x,y,1/2-z
-x,y,z
x,-y,1/2+z
1/2+x,1/2+y,z
1/2-x,1/2-y,1/2+z
1/2+x,1/2-y,-z
1/2-x,1/2+y,1/2-z
1/2-x,1/2-y,-z
1/2+x,1/2+y,1/2-z
1/2-x,1/2+y,z
1/2+x,1/2-y,1/2+z
loop_
_atom_site_type_symbol
_atom_site_label
_atom_site_fract_x
_atom_site_fract_y
_atom_site_fract_z
Si Si1 0.500000 0.926534 0.929815
Si Si2 0.394372 0.566259 0.081246
Si Si3 0.050698 0.315156 0.079840
Si Si4 0.717075 0.302490 0.425115
Si Si5 0.110375 0.202783 0.926503
Si Si6 0.784689 0.935557 0.582046
O O1 0.500000 0.930325 0.750000
O O2 0.545457 0.885978 0.989917
O O3 0.500000 0.000000 0.000000
O O4 0.414257 0.569094 0.250000
O O5 0.339604 0.561185 0.084275
O O6 0.414666 0.500000 0.000000
O O7 0.409468 0.633734 0.995114
O O8 0.068151 0.328708 0.250000
O O9 0.000000 0.280513 0.083652
O O10 0.085570 0.266718 0.995576
O O11 0.725307 0.301599 0.250000
O O12 0.750000 0.250000 0.500000
O O13 0.664050 0.288317 0.466554
O O14 0.733219 0.373347 0.487819
O O15 0.101542 0.200146 0.750000
O O16 0.764848 0.931490 0.750000
O O17 0.763908 0.000000 0.500000
#
# Coordination Sequence:
#
# PCOD8256379 Si02
#       6
#     8  16  16  16  16  16
#     4  10  18  32  54  80 107 132 163 204 246 294
#     4   9  16  26  42  65  93 124 161 203 242 283
#     4   9  19  33  51  77 103 130 164 201 246 297
#     4  10  20  32  47  70  98 130 168 206 247 297
#     4  10  19  31  49  72  99 131 166 206 251 298
#     4   9  16  27  44  65  89 119 156 200 244 284
#
# _framework density 17.039588999999999
#
# number of rings (size 3 to 8) (size 9 to 14) (size 15 to 20)
#    0.545    2.000    0.000    3.273    0.000    6.545 
#    0.000    0.000    0.000    1.636    0.000    0.000 
#    0.000    0.000    0.000    0.000    0.000    0.000 
#
# Total GULP energy -545364.497940 kJ/mol
# GULP energy per Si atom -12394.647680 kJ/mol
# Density = 1.700081 g / cm^3
# Si number density = 17.039589 Si / 1000 Ang^3
#
#
#
# Elastic Constant Matrix: (Units=GPa)
#
#
# Indices 1 2 3 4 5 6 
#
# 1 33.1037 48.4052 41.8697 0.0000 0.0000 0.0000
# 2 48.4052 174.3873 85.5958 0.0000 0.0000 0.0000
# 3 41.8697 85.5958 139.9342 0.0000 0.0000 0.0000
# 4 0.0000 0.0000 0.0000 40.6439 0.0000 0.0000
# 5 0.0000 0.0000 0.0000 0.0000 21.9068 0.0000
# 6 0.0000 0.0000 0.0000 0.0000 0.0000 17.4998
#
#
#
# Elastic Compliance Matrix: (Units=1/GPa)
#
#
# Indices 1 2 3 4 5 6 
#
# 1 0.061281 -0.011447 -0.011334 0.000000 0.000000 0.000000
# 2 -0.011447 0.010333 -0.002895 0.000000 0.000000 0.000000
# 3 -0.011334 -0.002895 0.012309 0.000000 0.000000 0.000000
# 4 0.000000 0.000000 0.000000 0.024604 0.000000 0.000000
# 5 0.000000 0.000000 0.000000 0.000000 0.045648 0.000000
# 6 0.000000 0.000000 0.000000 0.000000 0.000000 0.057144
#
#
# Mechanical properties :
#
#
# Convention : Reuss Voigt Hill
#
# Bulk Modulus (GPa) = 30.70304 77.68517 54.19410
# Shear Modulus (GPa) = 18.27966 27.44706 22.86336
#
# Velocity S-wave (km/s) = 3.27888 4.01781 3.66700
# Velocity P-wave (km/s) = 5.69144 8.19840 7.05713
#
# Compressibility (1/GPa) = 0.03257007
#
# Stress axis : x y z
#
# Youngs Moduli (GPa) = 16.31814 96.77819 81.24375
#
# Poissons Ratio (x) = 1.10780 0.92083
# Poissons Ratio (y) = 0.18679 0.23524
# Poissons Ratio (z) = 0.18495 0.28022
#
# Static dielectric constant tensor:
#      x y z
#    x 2.721460 0.000000 0.000000 
#    y 0.000000 3.432410 0.000000 
#    z 0.000000 0.000000 3.403990 
# 
# 
# High freq. dielectric constant tensor:
#      x y z
#    x 1.598390 0.000000 0.000000 
#    y 0.000000 1.664280 0.000000 
#    z 0.000000 0.000000 1.681870 
# 
# From -- ./inp_files/14395.got.cif
#   From: 2010.03.12/outbox.cif.g09.slc.cpg/sg63_8_cif.got.tgz:14395.got - 2010.04.10 19:34:48.
