data_PCOD8256564
_publ_section_title
;
Structure prediction by ZEFSAII (Michael W. Deem and Ramdas Pophale) SiO2 
 PCOD8256564
Probable space group: C M C M
;
_chemical_formula_sum "Si O2"
_cell_formula_units_Z 112
_cell_length_a 15.451040
_cell_length_b 23.246970
_cell_length_c 14.251330
_cell_angle_alpha 90.000000
_cell_angle_beta 90.000000
_cell_angle_gamma 90.000000
_cell_volume 5118.933275
_symmetry_space_group_name_H-M "C M C M"
_symmetry_group_IT_number 63
_symmetry_cell_setting 'orthorhombic'
loop_
_space_group_symop_operation_xyz
x,y,z
-x,-y,1/2+z
x,-y,-z
-x,y,1/2-z
-x,-y,-z
x,y,1/2-z
-x,y,z
x,-y,1/2+z
1/2+x,1/2+y,z
1/2-x,1/2-y,1/2+z
1/2+x,1/2-y,-z
1/2-x,1/2+y,1/2-z
1/2-x,1/2-y,-z
1/2+x,1/2+y,1/2-z
1/2-x,1/2+y,z
1/2+x,1/2-y,1/2+z
loop_
_atom_site_type_symbol
_atom_site_label
_atom_site_fract_x
_atom_site_fract_y
_atom_site_fract_z
Si Si1 0.403250 0.816349 0.501710
Si Si2 0.598047 0.308637 0.543267
Si Si3 0.265122 0.144991 0.358883
Si Si4 0.271988 0.015647 0.392234
Si Si5 0.142399 0.861706 0.355882
Si Si6 0.337917 0.898194 0.352697
Si Si7 0.590808 0.486284 0.108795
O O1 0.500000 0.815807 0.545052
O O2 0.387771 0.759315 0.438237
O O3 0.333027 0.815778 0.585104
O O4 0.398019 0.871765 0.433189
O O5 0.500000 0.327191 0.572381
O O6 0.667602 0.346602 0.601122
O O7 0.611028 0.315044 0.431121
O O8 0.265862 0.162337 0.250000
O O9 0.302184 0.080341 0.373605
O O10 0.261248 0.000000 0.500000
O O11 0.338275 0.968334 0.351133
O O12 0.176896 0.011688 0.342381
O O13 0.127757 0.838422 0.250000
O O14 0.242343 0.875699 0.375111
O O15 0.086978 0.918357 0.374125
O O16 0.369903 0.877820 0.250000
O O17 0.500000 0.511216 0.150901
O O18 0.593418 0.500000 0.000000
#
# Coordination Sequence:
#
# PCOD8256564 Si02
#       7
#    16  16  16  16  16  16  16
#     4  11  25  46  69  93 126 172 224 278 334 384
#     4  11  24  43  66  96 135 174 218 265 321 394
#     4  12  25  43  67  96 134 174 217 271 336 394
#     4  10  18  36  62  89 128 172 214 265 328 394
#     4  10  20  35  60  91 125 167 213 260 318 388
#     4  10  20  38  65  95 126 163 215 270 325 385
#     4   9  17  29  49  81 122 164 206 253 307 376
#
# _framework density 21.879557999999999
#
# number of rings (size 3 to 8) (size 9 to 14) (size 15 to 20)
#    0.000    1.571    2.857    3.000    0.000    5.429 
#    0.000    4.286    0.000    1.714    0.000    0.000 
#    0.000    0.000    0.000    0.000    0.000    0.000 
#
# Total GULP energy -693976.092128 kJ/mol
# GULP energy per Si atom -12392.430217 kJ/mol
# Density = 2.182976 g / cm^3
# Si number density = 21.879558 Si / 1000 Ang^3
#
#
#
# Elastic Constant Matrix: (Units=GPa)
#
#
# Indices 1 2 3 4 5 6 
#
# 1 83.1360 16.9213 35.5152 0.0000 0.0000 0.0000
# 2 16.9213 79.9399 18.3859 0.0000 0.0000 0.0000
# 3 35.5152 18.3859 120.0327 0.0000 0.0000 0.0000
# 4 0.0000 0.0000 0.0000 16.1757 0.0000 0.0000
# 5 0.0000 0.0000 0.0000 0.0000 36.5910 0.0000
# 6 0.0000 0.0000 0.0000 0.0000 0.0000 25.9911
#
#
#
# Elastic Compliance Matrix: (Units=1/GPa)
#
#
# Indices 1 2 3 4 5 6 
#
# 1 0.014101 -0.002099 -0.003851 0.000000 0.000000 0.000000
# 2 -0.002099 0.013279 -0.001413 0.000000 0.000000 0.000000
# 3 -0.003851 -0.001413 0.009687 0.000000 0.000000 0.000000
# 4 0.000000 0.000000 0.000000 0.061821 0.000000 0.000000
# 5 0.000000 0.000000 0.000000 0.000000 0.027329 0.000000
# 6 0.000000 0.000000 0.000000 0.000000 0.000000 0.038475
#
#
# Mechanical properties :
#
#
# Convention : Reuss Voigt Hill
#
# Bulk Modulus (GPa) = 44.76072 47.19480 45.97776
# Shear Modulus (GPa) = 26.75753 29.90396 28.33075
#
# Velocity S-wave (km/s) = 3.50086 3.70097 3.60231
# Velocity P-wave (km/s) = 6.06989 6.31506 6.19369
#
# Compressibility (1/GPa) = 0.02234102
#
# Stress axis : x y z
#
# Youngs Moduli (GPa) = 70.91855 75.30860 103.23354
#
# Poissons Ratio (x) = 0.15808 0.39751
# Poissons Ratio (y) = 0.14887 0.14585
# Poissons Ratio (z) = 0.27308 0.10640
#
# Static dielectric constant tensor:
#      x y z
#    x 3.990600 0.000000 0.000000 
#    y 0.000000 3.884550 0.000000 
#    z 0.000000 0.000000 3.842750 
# 
# 
# High freq. dielectric constant tensor:
#      x y z
#    x 1.847800 0.000000 0.000000 
#    y 0.000000 1.849490 0.000000 
#    z 0.000000 0.000000 1.851560 
# 
# From -- ./inp_files/32283.got.cif
#   From: 2010.03.12/outbox.cif.g09.slc.cpg/sg63_17_cif.got.tgz:32283.got - 2010.04.10 19:34:48.
