data_PCOD8256943
_publ_section_title
;
Structure prediction by ZEFSAII (Michael W. Deem and Ramdas Pophale) SiO2 
 PCOD8256943
Probable space group: C M C M
;
_chemical_formula_sum "Si O2"
_cell_formula_units_Z 96
_cell_length_a 25.032462
_cell_length_b 25.308015
_cell_length_c 9.088958
_cell_angle_alpha 90.000000
_cell_angle_beta 90.000000
_cell_angle_gamma 90.000000
_cell_volume 5758.054157
_symmetry_space_group_name_H-M "C M C M"
_symmetry_group_IT_number 63
_symmetry_cell_setting 'orthorhombic'
loop_
_space_group_symop_operation_xyz
x,y,z
-x,-y,1/2+z
x,-y,-z
-x,y,1/2-z
-x,-y,-z
x,y,1/2-z
-x,y,z
x,-y,1/2+z
1/2+x,1/2+y,z
1/2-x,1/2-y,1/2+z
1/2+x,1/2-y,-z
1/2-x,1/2+y,1/2-z
1/2-x,1/2-y,-z
1/2+x,1/2+y,1/2-z
1/2-x,1/2+y,z
1/2+x,1/2-y,1/2+z
loop_
_atom_site_type_symbol
_atom_site_label
_atom_site_fract_x
_atom_site_fract_y
_atom_site_fract_z
Si Si1 0.860899 0.943922 0.922427
Si Si2 0.936509 0.252238 0.584093
Si Si3 0.254932 0.054017 0.081740
Si Si4 0.370654 0.943169 0.923504
Si Si5 0.438281 0.647420 0.077675
Si Si6 0.936555 0.644227 0.581911
O O1 0.868665 0.953638 0.750000
O O2 0.801825 0.918102 0.957558
O O3 0.904732 0.902600 0.980446
O O4 0.869582 0.000000 0.000000
O O5 0.913945 0.254733 0.750000
O O6 0.916436 0.198819 0.506674
O O7 0.914672 0.302330 0.493483
O O8 0.000000 0.253159 0.583979
O O9 0.254107 0.038101 0.250000
O O10 0.311341 0.083307 0.047384
O O11 0.256275 0.000000 0.000000
O O12 0.382142 0.949287 0.750000
O O13 0.414405 0.905593 0.994222
O O14 0.375292 0.000000 0.000000
O O15 0.429487 0.657508 0.250000
O O16 0.500000 0.636102 0.040991
O O17 0.916592 0.643171 0.750000
O O18 0.000000 0.641374 0.573354
#
# Coordination Sequence:
#
# PCOD8256943 Si02
#       6
#    16  16  16  16  16  16
#     4   9  17  29  45  66  93 123 154 188 226 268
#     4   9  17  30  48  68  89 116 152 190 224 262
#     4   8  15  28  45  64  86 116 153 189 223 260
#     4  10  19  31  48  69  93 120 151 187 225 266
#     4   9  17  29  45  66  93 124 154 185 225 271
#     4  10  20  33  49  69  93 120 148 180 222 271
#
# _framework density 16.672298000000001
#
# number of rings (size 3 to 8) (size 9 to 14) (size 15 to 20)
#    0.000    2.833    0.000    1.500    0.000    5.000 
#    0.000    0.000    0.000    1.000    0.000    0.000 
#    0.000    0.000    0.000    0.000    0.000    0.000 
#
# Total GULP energy -594713.363903 kJ/mol
# GULP energy per Si atom -12389.861748 kJ/mol
# Density = 1.663435 g / cm^3
# Si number density = 16.672298 Si / 1000 Ang^3
#
#
#
# Elastic Constant Matrix: (Units=GPa)
#
#
# Indices 1 2 3 4 5 6 
#
# 1 50.7630 41.8673 34.2775 0.0000 0.0000 0.0000
# 2 41.8673 110.0082 52.9542 0.0000 0.0000 0.0000
# 3 34.2775 52.9542 88.3010 0.0000 0.0000 0.0000
# 4 0.0000 0.0000 0.0000 30.0350 0.0000 0.0000
# 5 0.0000 0.0000 0.0000 0.0000 16.5909 0.0000
# 6 0.0000 0.0000 0.0000 0.0000 0.0000 3.2290
#
#
#
# Elastic Compliance Matrix: (Units=1/GPa)
#
#
# Indices 1 2 3 4 5 6 
#
# 1 0.031593 -0.008604 -0.007104 0.000000 0.000000 0.000000
# 2 -0.008604 0.015123 -0.005729 0.000000 0.000000 0.000000
# 3 -0.007104 -0.005729 0.017518 0.000000 0.000000 0.000000
# 4 0.000000 0.000000 0.000000 0.033294 0.000000 0.000000
# 5 0.000000 0.000000 0.000000 0.000000 0.060274 0.000000
# 6 0.000000 0.000000 0.000000 0.000000 0.000000 0.309696
#
#
# Mechanical properties :
#
#
# Convention : Reuss Voigt Hill
#
# Bulk Modulus (GPa) = 46.81805 56.36336 51.59070
# Shear Modulus (GPa) = 9.66199 17.96919 13.81559
#
# Velocity S-wave (km/s) = 2.40994 3.28653 2.88176
# Velocity P-wave (km/s) = 5.99050 6.94850 6.48721
#
# Compressibility (1/GPa) = 0.02135929
#
# Stress axis : x y z
#
# Youngs Moduli (GPa) = 31.65297 66.12660 57.08308
#
# Poissons Ratio (x) = 0.56895 0.40552
# Poissons Ratio (y) = 0.27234 0.32703
# Poissons Ratio (z) = 0.22487 0.37884
#
# Static dielectric constant tensor:
#      x y z
#    x 3.575720 0.000000 0.000000 
#    y 0.000000 2.994750 0.000000 
#    z 0.000000 0.000000 3.276710 
# 
# 
# High freq. dielectric constant tensor:
#      x y z
#    x 1.630450 0.000000 0.000000 
#    y 0.000000 1.621290 0.000000 
#    z 0.000000 0.000000 1.653480 
# 
# From -- ./inp_files/10406.got.cif
#   From: 2010.03.12/outbox.cif.g09.slc.cpg/sg63_6_cif.got.tgz:10406.got - 2010.04.10 19:34:48.
