data_PCOD8256861
_publ_section_title
;
Structure prediction by ZEFSAII (Michael W. Deem and Ramdas Pophale) SiO2 
 PCOD8256861
Probable space group: C M C M
;
_chemical_formula_sum "Si O2"
_cell_formula_units_Z 88
_cell_length_a 21.035533
_cell_length_b 8.176559
_cell_length_c 28.814023
_cell_angle_alpha 90.000000
_cell_angle_beta 90.000000
_cell_angle_gamma 90.000000
_cell_volume 4955.962300
_symmetry_space_group_name_H-M "C M C M"
_symmetry_group_IT_number 63
_symmetry_cell_setting 'orthorhombic'
loop_
_space_group_symop_operation_xyz
x,y,z
-x,-y,1/2+z
x,-y,-z
-x,y,1/2-z
-x,-y,-z
x,y,1/2-z
-x,y,z
x,-y,1/2+z
1/2+x,1/2+y,z
1/2-x,1/2-y,1/2+z
1/2+x,1/2-y,-z
1/2-x,1/2+y,1/2-z
1/2-x,1/2-y,-z
1/2+x,1/2+y,1/2-z
1/2-x,1/2+y,z
1/2+x,1/2-y,1/2+z
loop_
_atom_site_type_symbol
_atom_site_label
_atom_site_fract_x
_atom_site_fract_y
_atom_site_fract_z
Si Si1 0.176624 0.506864 0.398698
Si Si2 0.224459 0.199690 0.845394
Si Si3 0.926475 0.257124 0.124116
Si Si4 0.141307 0.500000 0.000000
Si Si5 0.927100 0.164972 0.478090
Si Si6 0.663777 0.399367 0.803068
O O1 0.178407 0.681624 0.373993
O O2 0.236974 0.402363 0.383246
O O3 0.109539 0.428712 0.383422
O O4 0.184123 0.518631 0.454179
O O5 0.273084 0.293494 0.811873
O O6 0.179394 0.087619 0.813926
O O7 0.918514 0.150883 0.077380
O O8 0.000000 0.294224 0.135318
O O9 0.895680 0.157717 0.166242
O O10 0.100826 0.666272 0.997578
O O11 0.000000 0.170807 0.493014
O O12 0.895561 0.000000 0.500000
O O13 0.642960 0.380300 0.750000
#
# Coordination Sequence:
#
# PCOD8256861 Si02
#       6
#    16  16  16   8  16  16
#     4   9  19  34  52  76 105 144 175 220 266 314
#     4   9  19  35  52  75 106 132 179 220 260 314
#     4   9  19  35  52  77 107 134 172 218 266 317
#     4  10  19  30  50  78 108 144 181 222 272 324
#     4   9  18  32  50  74 105 145 187 219 255 316
#     4  10  19  33  56  77  99 134 172 217 266 315
#
# _framework density 17.756388999999999
#
# number of rings (size 3 to 8) (size 9 to 14) (size 15 to 20)
#    0.000    2.727    0.000    0.818    2.545    1.818 
#    0.000    1.818    0.000    0.000    0.000    0.000 
#    0.000    0.000    0.000    0.000    0.000    0.000 
#
# Total GULP energy -545534.189857 kJ/mol
# GULP energy per Si atom -12398.504315 kJ/mol
# Density = 1.771597 g / cm^3
# Si number density = 17.756389 Si / 1000 Ang^3
#
#
#
# Elastic Constant Matrix: (Units=GPa)
#
#
# Indices 1 2 3 4 5 6 
#
# 1 73.8394 32.2879 43.1991 0.0000 0.0000 0.0000
# 2 32.2879 118.9159 57.6133 0.0000 0.0000 0.0000
# 3 43.1991 57.6133 135.1800 0.0000 0.0000 0.0000
# 4 0.0000 0.0000 0.0000 22.9854 0.0000 0.0000
# 5 0.0000 0.0000 0.0000 0.0000 21.3824 0.0000
# 6 0.0000 0.0000 0.0000 0.0000 0.0000 19.7322
#
#
#
# Elastic Compliance Matrix: (Units=1/GPa)
#
#
# Indices 1 2 3 4 5 6 
#
# 1 0.017243 -0.002536 -0.004430 0.000000 0.000000 0.000000
# 2 -0.002536 0.010970 -0.003865 0.000000 0.000000 0.000000
# 3 -0.004430 -0.003865 0.010460 0.000000 0.000000 0.000000
# 4 0.000000 0.000000 0.000000 0.043506 0.000000 0.000000
# 5 0.000000 0.000000 0.000000 0.000000 0.046767 0.000000
# 6 0.000000 0.000000 0.000000 0.000000 0.000000 0.050679
#
#
# Mechanical properties :
#
#
# Convention : Reuss Voigt Hill
#
# Bulk Modulus (GPa) = 58.77891 66.01510 62.39700
# Shear Modulus (GPa) = 24.15946 25.80900 24.98423
#
# Velocity S-wave (km/s) = 3.69264 3.81662 3.75514
# Velocity P-wave (km/s) = 7.16628 7.52868 7.34972
#
# Compressibility (1/GPa) = 0.01701291
#
# Stress axis : x y z
#
# Youngs Moduli (GPa) = 57.99371 91.15383 95.59802
#
# Poissons Ratio (x) = 0.23114 0.42347
# Poissons Ratio (y) = 0.14706 0.36951
# Poissons Ratio (z) = 0.25689 0.35233
#
# Static dielectric constant tensor:
#      x y z
#    x 3.119750 0.000000 0.000000 
#    y 0.000000 3.489260 0.000000 
#    z 0.000000 0.000000 3.278540 
# 
# 
# High freq. dielectric constant tensor:
#      x y z
#    x 1.668200 0.000000 0.000000 
#    y 0.000000 1.693650 0.000000 
#    z 0.000000 0.000000 1.688710 
# 
# From -- ./inp_files/70325.got.cif
#   From: 2010.03.12/outbox.cif.g09.slc.cpg/sg63_36_cif.got.tgz:70325.got - 2010.04.10 19:34:48.
