data_PCOD8256903
_publ_section_title
;
Structure prediction by ZEFSAII (Michael W. Deem and Ramdas Pophale) SiO2 
 PCOD8256903
Probable space group: C M C M
;
_chemical_formula_sum "Si O2"
_cell_formula_units_Z 96
_cell_length_a 24.723340
_cell_length_b 24.846587
_cell_length_c 8.908018
_cell_angle_alpha 90.000000
_cell_angle_beta 90.000000
_cell_angle_gamma 90.000000
_cell_volume 5472.111885
_symmetry_space_group_name_H-M "C M C M"
_symmetry_group_IT_number 63
_symmetry_cell_setting 'orthorhombic'
loop_
_space_group_symop_operation_xyz
x,y,z
-x,-y,1/2+z
x,-y,-z
-x,y,1/2-z
-x,-y,-z
x,y,1/2-z
-x,y,z
x,-y,1/2+z
1/2+x,1/2+y,z
1/2-x,1/2-y,1/2+z
1/2+x,1/2-y,-z
1/2-x,1/2+y,1/2-z
1/2-x,1/2-y,-z
1/2+x,1/2+y,1/2-z
1/2-x,1/2+y,z
1/2+x,1/2-y,1/2+z
loop_
_atom_site_type_symbol
_atom_site_label
_atom_site_fract_x
_atom_site_fract_y
_atom_site_fract_z
Si Si1 0.267986 0.447929 0.416760
Si Si2 0.607290 0.548890 0.587152
Si Si3 0.668104 0.238501 0.074199
Si Si4 0.439759 0.235662 0.925493
Si Si5 0.439729 0.345618 0.418896
Si Si6 0.270789 0.667386 0.427197
O O1 0.240478 0.500000 0.500000
O O2 0.241880 0.440934 0.250000
O O3 0.329977 0.463097 0.396596
O O4 0.263626 0.392666 0.509546
O O5 0.578956 0.500000 0.500000
O O6 0.579320 0.551736 0.750000
O O7 0.597515 0.606988 0.511651
O O8 0.663106 0.247153 0.250000
O O9 0.715069 0.197194 0.031797
O O10 0.612069 0.211178 0.012898
O O11 0.680495 0.297737 0.002284
O O12 0.432293 0.225301 0.750000
O O13 0.500000 0.213901 0.976398
O O14 0.436332 0.298385 0.961830
O O15 0.420913 0.326878 0.250000
O O16 0.500000 0.368435 0.409757
O O17 0.281338 0.664554 0.250000
#
# Coordination Sequence:
#
# PCOD8256903 Si02
#       6
#    16  16  16  16  16  16
#     4  10  19  31  47  66  91 123 158 195 236 282
#     4   9  18  29  40  56  77 105 143 184 225 268
#     4  10  20  33  50  72  98 129 161 195 241 293
#     4  10  20  32  47  68  92 119 153 192 232 276
#     4   9  17  29  43  58  79 109 145 185 229 275
#     4  10  20  33  50  73  99 126 160 201 242 287
#
# _framework density 17.543500999999999
#
# number of rings (size 3 to 8) (size 9 to 14) (size 15 to 20)
#    0.000    2.333    0.000    3.000    0.000    6.000 
#    0.000    0.000    0.000    0.000    0.000    0.000 
#    0.000    0.667    0.000    2.167    0.000    3.167 
#
# Total GULP energy -594631.097740 kJ/mol
# GULP energy per Si atom -12388.147870 kJ/mol
# Density = 1.750357 g / cm^3
# Si number density = 17.543501 Si / 1000 Ang^3
#
#
#
# Elastic Constant Matrix: (Units=GPa)
#
#
# Indices 1 2 3 4 5 6 
#
# 1 68.5793 2.7546 23.7625 0.0000 0.0000 0.0000
# 2 2.7546 60.1365 22.6710 0.0000 0.0000 0.0000
# 3 23.7625 22.6710 81.6189 0.0000 0.0000 0.0000
# 4 0.0000 0.0000 0.0000 26.2233 0.0000 0.0000
# 5 0.0000 0.0000 0.0000 0.0000 22.3001 0.0000
# 6 0.0000 0.0000 0.0000 0.0000 0.0000 18.1390
#
#
#
# Elastic Compliance Matrix: (Units=1/GPa)
#
#
# Indices 1 2 3 4 5 6 
#
# 1 0.016290 0.001164 -0.005066 0.000000 0.000000 0.000000
# 2 0.001164 0.018657 -0.005521 0.000000 0.000000 0.000000
# 3 -0.005066 -0.005521 0.015261 0.000000 0.000000 0.000000
# 4 0.000000 0.000000 0.000000 0.038134 0.000000 0.000000
# 5 0.000000 0.000000 0.000000 0.000000 0.044843 0.000000
# 6 0.000000 0.000000 0.000000 0.000000 0.000000 0.055130
#
#
# Mechanical properties :
#
#
# Convention : Reuss Voigt Hill
#
# Bulk Modulus (GPa) = 31.88679 34.30123 33.09401
# Shear Modulus (GPa) = 22.97638 24.07558 23.52598
#
# Velocity S-wave (km/s) = 3.62288 3.70852 3.66595
# Velocity P-wave (km/s) = 5.97625 6.15890 6.06827
#
# Compressibility (1/GPa) = 0.03136095
#
# Stress axis : x y z
#
# Youngs Moduli (GPa) = 61.38641 53.59939 65.52854
#
# Poissons Ratio (x) = -0.06237 0.33197
# Poissons Ratio (y) = -0.07143 0.36179
# Poissons Ratio (z) = 0.31098 0.29592
#
# Static dielectric constant tensor:
#      x y z
#    x 3.452760 0.000000 0.000000 
#    y 0.000000 3.037190 0.000000 
#    z 0.000000 0.000000 3.501420 
# 
# 
# High freq. dielectric constant tensor:
#      x y z
#    x 1.660710 0.000000 0.000000 
#    y 0.000000 1.646440 0.000000 
#    z 0.000000 0.000000 1.686970 
# 
# From -- ./inp_files/10496.got.cif
#   From: 2010.03.12/outbox.cif.g09.slc.cpg/sg63_6_cif.got.tgz:10496.got - 2010.04.10 19:34:48.
