data_PCOD8256964
_publ_section_title
;
Structure prediction by ZEFSAII (Michael W. Deem and Ramdas Pophale) SiO2 
 PCOD8256964
Probable space group: C M C M
;
_chemical_formula_sum "Si O2"
_cell_formula_units_Z 104
_cell_length_a 26.249546
_cell_length_b 21.984223
_cell_length_c 8.902718
_cell_angle_alpha 90.000000
_cell_angle_beta 90.000000
_cell_angle_gamma 90.000000
_cell_volume 5137.543761
_symmetry_space_group_name_H-M "C M C M"
_symmetry_group_IT_number 63
_symmetry_cell_setting 'orthorhombic'
loop_
_space_group_symop_operation_xyz
x,y,z
-x,-y,1/2+z
x,-y,-z
-x,y,1/2-z
-x,-y,-z
x,y,1/2-z
-x,y,z
x,-y,1/2+z
1/2+x,1/2+y,z
1/2-x,1/2-y,1/2+z
1/2+x,1/2-y,-z
1/2-x,1/2+y,1/2-z
1/2-x,1/2-y,-z
1/2+x,1/2+y,1/2-z
1/2-x,1/2+y,z
1/2+x,1/2-y,1/2+z
loop_
_atom_site_type_symbol
_atom_site_label
_atom_site_fract_x
_atom_site_fract_y
_atom_site_fract_z
Si Si1 0.893465 0.878653 0.426692
Si Si2 0.128531 0.563470 0.078001
Si Si3 0.292169 0.561870 0.575028
Si Si4 0.856831 0.748950 0.070623
Si Si5 0.000000 0.933408 0.429700
Si Si6 0.206722 0.652770 0.573224
Si Si7 0.054846 0.335430 0.578653
O O1 0.898490 0.870349 0.250000
O O2 0.851698 0.929844 0.468508
O O3 0.870601 0.815693 0.492121
O O4 0.949430 0.897481 0.488421
O O5 0.147525 0.557483 0.250000
O O6 0.073238 0.594970 0.070633
O O7 0.122357 0.500000 0.000000
O O8 0.167565 0.602841 0.983586
O O9 0.271035 0.500000 0.500000
O O10 0.284748 0.551477 0.750000
O O11 0.261839 0.623831 0.529144
O O12 0.850762 0.747498 0.250000
O O13 0.903264 0.708521 0.006054
O O14 0.804767 0.718655 0.004258
O O15 0.000000 0.939505 0.250000
O O16 0.000000 0.000000 0.500000
O O17 0.202171 0.662373 0.750000
O O18 0.048793 0.314470 0.750000
O O19 0.000000 0.329249 0.496595
#
# Coordination Sequence:
#
# PCOD8256964 Si02
#       7
#    16  16  16  16   8  16  16
#     4   9  19  35  56  84 111 140 179 223 270 320
#     4  10  19  31  48  71  99 133 173 220 267 318
#     4  10  21  36  54  78 109 142 180 222 265 317
#     4   9  18  33  54  78 105 136 174 219 264 317
#     4  10  20  36  60  86 114 148 183 224 273 324
#     4  10  20  34  52  74 104 141 177 219 266 316
#     4   8  15  27  45  69  95 125 164 210 257 308
#
# _framework density 20.243136
#
# number of rings (size 3 to 8) (size 9 to 14) (size 15 to 20)
#    0.000    2.615    0.000    2.769    1.077    3.385 
#    0.000    1.538    0.000   11.077    0.000    0.000 
#    0.000    0.000    0.000    0.000    0.000    0.000 
#
# Total GULP energy -644253.382508 kJ/mol
# GULP energy per Si atom -12389.488125 kJ/mol
# Density = 2.019706 g / cm^3
# Si number density = 20.243136 Si / 1000 Ang^3
#
#
#
# Elastic Constant Matrix: (Units=GPa)
#
#
# Indices 1 2 3 4 5 6 
#
# 1 125.1634 43.4998 29.1385 0.0000 0.0000 0.0000
# 2 43.4998 130.6179 27.5763 0.0000 0.0000 0.0000
# 3 29.1385 27.5763 31.6141 0.0000 0.0000 0.0000
# 4 0.0000 0.0000 0.0000 26.6277 0.0000 0.0000
# 5 0.0000 0.0000 0.0000 0.0000 18.1635 0.0000
# 6 0.0000 0.0000 0.0000 0.0000 0.0000 23.8537
#
#
#
# Elastic Compliance Matrix: (Units=1/GPa)
#
#
# Indices 1 2 3 4 5 6 
#
# 1 0.010500 -0.001782 -0.008124 0.000000 0.000000 0.000000
# 2 -0.001782 0.009686 -0.006807 0.000000 0.000000 0.000000
# 3 -0.008124 -0.006807 0.045057 0.000000 0.000000 0.000000
# 4 0.000000 0.000000 0.000000 0.037555 0.000000 0.000000
# 5 0.000000 0.000000 0.000000 0.000000 0.055056 0.000000
# 6 0.000000 0.000000 0.000000 0.000000 0.000000 0.041922
#
#
# Mechanical properties :
#
#
# Convention : Reuss Voigt Hill
#
# Bulk Modulus (GPa) = 31.42852 54.20273 42.81563
# Shear Modulus (GPa) = 20.50807 26.20768 23.35787
#
# Velocity S-wave (km/s) = 3.18636 3.60202 3.40055
# Velocity P-wave (km/s) = 5.39411 6.64330 6.05102
#
# Compressibility (1/GPa) = 0.03181823
#
# Stress axis : x y z
#
# Youngs Moduli (GPa) = 95.23803 103.23740 22.19432
#
# Poissons Ratio (x) = 0.18394 0.18030
# Poissons Ratio (y) = 0.16969 0.15108
# Poissons Ratio (z) = 0.77368 0.70274
#
# Static dielectric constant tensor:
#      x y z
#    x 4.077440 0.000000 0.000000 
#    y 0.000000 3.812480 0.000000 
#    z 0.000000 0.000000 3.315540 
# 
# 
# High freq. dielectric constant tensor:
#      x y z
#    x 1.799340 0.000000 0.000000 
#    y 0.000000 1.797490 0.000000 
#    z 0.000000 0.000000 1.747270 
# 
# From -- ./inp_files/12491.got.cif
#   From: 2010.03.12/outbox.cif.g09.slc.cpg/sg63_7_cif.got.tgz:12491.got - 2010.04.10 19:34:48.
