data_PCOD8256074
_publ_section_title
;
Structure prediction by ZEFSAII (Michael W. Deem and Ramdas Pophale) SiO2 
 PCOD8256074
Probable space group: C M C M
;
_chemical_formula_sum "Si O2"
_cell_formula_units_Z 96
_cell_length_a 9.027809
_cell_length_b 28.268673
_cell_length_c 20.097238
_cell_angle_alpha 90.000000
_cell_angle_beta 90.000000
_cell_angle_gamma 90.000000
_cell_volume 5128.899155
_symmetry_space_group_name_H-M "C M C M"
_symmetry_group_IT_number 63
_symmetry_cell_setting 'orthorhombic'
loop_
_space_group_symop_operation_xyz
x,y,z
-x,-y,1/2+z
x,-y,-z
-x,y,1/2-z
-x,-y,-z
x,y,1/2-z
-x,y,z
x,-y,1/2+z
1/2+x,1/2+y,z
1/2-x,1/2-y,1/2+z
1/2+x,1/2-y,-z
1/2-x,1/2+y,1/2-z
1/2-x,1/2-y,-z
1/2+x,1/2+y,1/2-z
1/2-x,1/2+y,z
1/2+x,1/2-y,1/2+z
loop_
_atom_site_type_symbol
_atom_site_label
_atom_site_fract_x
_atom_site_fract_y
_atom_site_fract_z
Si Si1 0.831746 0.565781 0.117568
Si Si2 0.673718 0.758892 0.672092
Si Si3 0.332527 0.107370 0.971195
Si Si4 0.333934 0.478965 0.073566
Si Si5 0.837711 0.148728 0.326355
Si Si6 0.176042 0.285569 0.052190
O O1 0.765587 0.512990 0.119330
O O2 0.737273 0.597768 0.167171
O O3 0.000000 0.562951 0.142473
O O4 0.819114 0.589991 0.046201
O O5 0.707297 0.749040 0.750000
O O6 0.500000 0.756301 0.657304
O O7 0.729950 0.810208 0.646575
O O8 0.760623 0.721232 0.626820
O O9 0.500000 0.102660 0.945109
O O10 0.231559 0.074024 0.924739
O O11 0.278494 0.161307 0.968151
O O12 0.500000 0.477218 0.102128
O O13 0.331944 0.500000 0.000000
O O14 0.863636 0.159240 0.250000
O O15 0.000000 0.149971 0.362143
O O16 0.000000 0.277988 0.051631
O O17 0.250000 0.250000 0.000000
#
# Coordination Sequence:
#
# PCOD8256074 Si02
#       6
#    16  16  16  16  16  16
#     4  10  18  30  50  73 101 133 163 200 249 305
#     4  10  21  37  55  75 103 140 180 218 261 317
#     4   9  19  33  48  71 101 132 165 204 252 302
#     4   9  17  29  47  71  97 127 162 199 243 298
#     4  10  20  33  50  73 100 130 167 210 254 302
#     4  11  22  35  54  80 110 140 175 221 268 313
#
# _framework density 18.717466999999999
#
# number of rings (size 3 to 8) (size 9 to 14) (size 15 to 20)
#    0.000    2.167    0.000    3.500    0.000    7.333 
#    0.000    0.000    0.000    1.000    0.000    4.667 
#    0.000    0.000    0.000    0.000    0.000    0.000 
#
# Total GULP energy -595144.496836 kJ/mol
# GULP energy per Si atom -12398.843684 kJ/mol
# Density = 1.867487 g / cm^3
# Si number density = 18.717467 Si / 1000 Ang^3
#
#
#
# Elastic Constant Matrix: (Units=GPa)
#
#
# Indices 1 2 3 4 5 6 
#
# 1 136.9247 65.3166 28.3133 0.0000 0.0000 0.0000
# 2 65.3166 139.6903 25.1380 0.0000 0.0000 0.0000
# 3 28.3133 25.1380 37.3891 0.0000 0.0000 0.0000
# 4 0.0000 0.0000 0.0000 26.8415 0.0000 0.0000
# 5 0.0000 0.0000 0.0000 0.0000 25.9832 0.0000
# 6 0.0000 0.0000 0.0000 0.0000 0.0000 35.8423
#
#
#
# Elastic Compliance Matrix: (Units=1/GPa)
#
#
# Indices 1 2 3 4 5 6 
#
# 1 0.010200 -0.003844 -0.005139 0.000000 0.000000 0.000000
# 2 -0.003844 0.009593 -0.003538 0.000000 0.000000 0.000000
# 3 -0.005139 -0.003538 0.033016 0.000000 0.000000 0.000000
# 4 0.000000 0.000000 0.000000 0.037256 0.000000 0.000000
# 5 0.000000 0.000000 0.000000 0.000000 0.038486 0.000000
# 6 0.000000 0.000000 0.000000 0.000000 0.000000 0.027900
#
#
# Mechanical properties :
#
#
# Convention : Reuss Voigt Hill
#
# Bulk Modulus (GPa) = 36.01639 61.28223 48.64931
# Shear Modulus (GPa) = 26.21220 30.74915 28.48067
#
# Velocity S-wave (km/s) = 3.74627 4.05755 3.90501
# Velocity P-wave (km/s) = 6.16414 7.40023 6.81029
#
# Compressibility (1/GPa) = 0.02776513
#
# Stress axis : x y z
#
# Youngs Moduli (GPa) = 98.04049 104.24205 30.28790
#
# Poissons Ratio (x) = 0.40075 0.15566
# Poissons Ratio (y) = 0.37691 0.10717
# Poissons Ratio (z) = 0.50385 0.36886
#
# Static dielectric constant tensor:
#      x y z
#    x 3.725340 0.000000 0.000000 
#    y 0.000000 3.526670 0.000000 
#    z 0.000000 0.000000 3.125970 
# 
# 
# High freq. dielectric constant tensor:
#      x y z
#    x 1.745320 0.000000 0.000000 
#    y 0.000000 1.726180 0.000000 
#    z 0.000000 0.000000 1.686700 
# 
# From -- ./inp_files/51304.got.cif
#   From: 2010.03.12/outbox.cif.g09.slc.cpg/sg63_26_cif.got.tgz:51304.got - 2010.04.10 19:34:48.
