data_PCOD8256670
_publ_section_title
;
Structure prediction by ZEFSAII (Michael W. Deem and Ramdas Pophale) SiO2 
 PCOD8256670
Probable space group: C M C M
;
_chemical_formula_sum "Si O2"
_cell_formula_units_Z 88
_cell_length_a 16.357701
_cell_length_b 21.134395
_cell_length_c 15.718993
_cell_angle_alpha 90.000000
_cell_angle_beta 90.000000
_cell_angle_gamma 90.000000
_cell_volume 5434.214866
_symmetry_space_group_name_H-M "C M C M"
_symmetry_group_IT_number 63
_symmetry_cell_setting 'orthorhombic'
loop_
_space_group_symop_operation_xyz
x,y,z
-x,-y,1/2+z
x,-y,-z
-x,y,1/2-z
-x,-y,-z
x,y,1/2-z
-x,y,z
x,-y,1/2+z
1/2+x,1/2+y,z
1/2-x,1/2-y,1/2+z
1/2+x,1/2-y,-z
1/2-x,1/2+y,1/2-z
1/2-x,1/2-y,-z
1/2+x,1/2+y,1/2-z
1/2-x,1/2+y,z
1/2+x,1/2-y,1/2+z
loop_
_atom_site_type_symbol
_atom_site_label
_atom_site_fract_x
_atom_site_fract_y
_atom_site_fract_z
Si Si1 0.094358 0.942921 0.154390
Si Si2 0.232485 0.629335 0.462918
Si Si3 0.407681 0.786830 0.015345
Si Si4 0.301325 0.500000 0.500000
Si Si5 0.295274 0.727938 0.156742
Si Si6 0.345070 0.312240 0.104554
O O1 0.119216 0.966393 0.250000
O O2 0.106930 0.867070 0.153841
O O3 0.000000 0.958347 0.137076
O O4 0.144640 0.977840 0.080315
O O5 0.140761 0.649334 0.489422
O O6 0.241306 0.553831 0.463181
O O7 0.258458 0.660449 0.373301
O O8 0.296306 0.657638 0.527806
O O9 0.500000 0.805986 0.037902
O O10 0.366800 0.754049 0.096921
O O11 0.407692 0.738516 0.935701
O O12 0.333344 0.718392 0.250000
O O13 0.220327 0.777338 0.164280
#
# Coordination Sequence:
#
# PCOD8256670 Si02
#       6
#    16  16  16   8  16  16
#     4  10  19  29  45  69  90 113 149 187 227 276
#     4   8  17  30  45  62  83 121 160 180 209 264
#     4   9  16  28  46  68  93 117 144 184 232 273
#     4  10  19  34  47  58  90 130 160 190 221 252
#     4   9  16  27  45  69  92 113 142 182 230 281
#     4   8  15  29  46  64  88 117 144 175 221 276
#
# _framework density 16.193691999999999
#
# number of rings (size 3 to 8) (size 9 to 14) (size 15 to 20)
#    0.000    3.091    0.000    3.545    0.000    1.091 
#    0.000    1.364    0.000    4.909    0.000    0.000 
#    0.000    1.455    0.000    0.000    0.000    0.000 
#
# Total GULP energy -545186.385136 kJ/mol
# GULP energy per Si atom -12390.599662 kJ/mol
# Density = 1.615683 g / cm^3
# Si number density = 16.193692 Si / 1000 Ang^3
#
#
#
# Elastic Constant Matrix: (Units=GPa)
#
#
# Indices 1 2 3 4 5 6 
#
# 1 100.2210 43.9078 40.2072 0.0000 0.0000 0.0000
# 2 43.9078 109.9217 36.7682 0.0000 0.0000 0.0000
# 3 40.2072 36.7682 96.6339 0.0000 0.0000 0.0000
# 4 0.0000 0.0000 0.0000 13.0021 0.0000 0.0000
# 5 0.0000 0.0000 0.0000 0.0000 10.1572 0.0000
# 6 0.0000 0.0000 0.0000 0.0000 0.0000 17.1124
#
#
#
# Elastic Compliance Matrix: (Units=1/GPa)
#
#
# Indices 1 2 3 4 5 6 
#
# 1 0.013341 -0.003978 -0.004037 0.000000 0.000000 0.000000
# 2 -0.003978 0.011611 -0.002762 0.000000 0.000000 0.000000
# 3 -0.004037 -0.002762 0.013079 0.000000 0.000000 0.000000
# 4 0.000000 0.000000 0.000000 0.076911 0.000000 0.000000
# 5 0.000000 0.000000 0.000000 0.000000 0.098452 0.000000
# 6 0.000000 0.000000 0.000000 0.000000 0.000000 0.058437
#
#
# Mechanical properties :
#
#
# Convention : Reuss Voigt Hill
#
# Bulk Modulus (GPa) = 60.69937 60.94923 60.82430
# Shear Modulus (GPa) = 16.72927 20.44723 18.58825
#
# Velocity S-wave (km/s) = 3.21763 3.55726 3.39170
# Velocity P-wave (km/s) = 7.16721 7.38860 7.27875
#
# Compressibility (1/GPa) = 0.01647463
#
# Stress axis : x y z
#
# Youngs Moduli (GPa) = 74.95964 86.12842 76.45823
#
# Poissons Ratio (x) = 0.34266 0.30865
# Poissons Ratio (y) = 0.29823 0.21120
# Poissons Ratio (z) = 0.30261 0.23792
#
# Static dielectric constant tensor:
#      x y z
#    x 2.903870 0.000000 0.000000 
#    y 0.000000 3.480580 0.000000 
#    z 0.000000 0.000000 3.027170 
# 
# 
# High freq. dielectric constant tensor:
#      x y z
#    x 1.605260 0.000000 0.000000 
#    y 0.000000 1.608450 0.000000 
#    z 0.000000 0.000000 1.622780 
# 
# From -- ./inp_files/31750.got.cif
#   From: 2010.03.12/outbox.cif.g09.slc.cpg/sg63_16_cif.got.tgz:31750.got - 2010.04.10 19:34:48.
