data_PCOD8256260
_publ_section_title
;
Structure prediction by ZEFSAII (Michael W. Deem and Ramdas Pophale) SiO2 
 PCOD8256260
Probable space group: C M C M
;
_chemical_formula_sum "Si O2"
_cell_formula_units_Z 96
_cell_length_a 12.165822
_cell_length_b 23.234830
_cell_length_c 17.769750
_cell_angle_alpha 90.000000
_cell_angle_beta 90.000000
_cell_angle_gamma 90.000000
_cell_volume 5022.989555
_symmetry_space_group_name_H-M "C M C M"
_symmetry_group_IT_number 63
_symmetry_cell_setting 'orthorhombic'
loop_
_space_group_symop_operation_xyz
x,y,z
-x,-y,1/2+z
x,-y,-z
-x,y,1/2-z
-x,-y,-z
x,y,1/2-z
-x,y,z
x,-y,1/2+z
1/2+x,1/2+y,z
1/2-x,1/2-y,1/2+z
1/2+x,1/2-y,-z
1/2-x,1/2+y,1/2-z
1/2-x,1/2-y,-z
1/2+x,1/2+y,1/2-z
1/2-x,1/2+y,z
1/2+x,1/2-y,1/2+z
loop_
_atom_site_type_symbol
_atom_site_label
_atom_site_fract_x
_atom_site_fract_y
_atom_site_fract_z
Si Si1 0.000000 0.239745 0.164427
Si Si2 0.876442 0.221084 0.660755
Si Si3 0.767023 0.384186 0.334497
Si Si4 0.718983 0.710884 0.428255
Si Si5 0.500000 0.126199 0.832407
Si Si6 0.876177 0.976137 0.113029
Si Si7 0.125367 0.908134 0.541364
O O1 0.893554 0.224690 0.115001
O O2 0.000000 0.306408 0.177549
O O3 0.000000 0.211263 0.250000
O O4 0.879175 0.222613 0.750000
O O5 0.809845 0.165401 0.628672
O O6 0.818762 0.279043 0.630356
O O7 0.000000 0.216790 0.628237
O O8 0.792713 0.362958 0.250000
O O9 0.706546 0.445750 0.329394
O O10 0.886336 0.390950 0.375943
O O11 0.750000 0.750000 0.500000
O O12 0.711807 0.643961 0.452281
O O13 0.500000 0.095868 0.750000
O O14 0.000000 0.969095 0.142858
O O15 0.848422 0.043642 0.104864
O O16 0.859633 0.940567 0.036674
O O17 0.000000 0.885814 0.551101
#
# Coordination Sequence:
#
# PCOD8256260 Si02
#       7
#     8  16  16  16   8  16  16
#     4  11  22  40  58  82 123 163 191 232 303 361
#     4  10  21  36  54  78 113 151 184 232 301 352
#     4  10  18  31  53  80 106 138 186 235 276 336
#     4  12  23  34  59  88 116 144 195 245 281 348
#     4   9  18  32  52  78 107 144 186 221 272 341
#     4   9  18  34  56  75 106 141 175 226 289 338
#     4   9  19  36  54  78 107 144 180 223 286 342
#
# _framework density 19.112124999999999
#
# number of rings (size 3 to 8) (size 9 to 14) (size 15 to 20)
#    0.000    2.000    2.500    3.000    1.167    2.333 
#    0.000    1.667    1.833    1.000    0.000    0.000 
#    0.000    0.000    0.000    0.000    0.000    0.000 
#
# Total GULP energy -594638.368375 kJ/mol
# GULP energy per Si atom -12388.299341 kJ/mol
# Density = 1.906862 g / cm^3
# Si number density = 19.112125 Si / 1000 Ang^3
#
#
#
# Elastic Constant Matrix: (Units=GPa)
#
#
# Indices 1 2 3 4 5 6 
#
# 1 167.0471 63.7226 31.9082 0.0000 0.0000 0.0000
# 2 63.7226 117.8681 17.7360 0.0000 0.0000 0.0000
# 3 31.9082 17.7360 42.5199 0.0000 0.0000 0.0000
# 4 0.0000 0.0000 0.0000 23.7445 0.0000 0.0000
# 5 0.0000 0.0000 0.0000 0.0000 28.8504 0.0000
# 6 0.0000 0.0000 0.0000 0.0000 0.0000 22.2262
#
#
#
# Elastic Compliance Matrix: (Units=1/GPa)
#
#
# Indices 1 2 3 4 5 6 
#
# 1 0.008327 -0.003800 -0.004664 0.000000 0.000000 0.000000
# 2 -0.003800 0.010786 -0.001648 0.000000 0.000000 0.000000
# 3 -0.004664 -0.001648 0.027705 0.000000 0.000000 0.000000
# 4 0.000000 0.000000 0.000000 0.042115 0.000000 0.000000
# 5 0.000000 0.000000 0.000000 0.000000 0.034662 0.000000
# 6 0.000000 0.000000 0.000000 0.000000 0.000000 0.044992
#
#
# Mechanical properties :
#
#
# Convention : Reuss Voigt Hill
#
# Bulk Modulus (GPa) = 37.59946 61.57431 49.58688
# Shear Modulus (GPa) = 25.29412 29.23544 27.26478
#
# Velocity S-wave (km/s) = 3.64188 3.91536 3.78109
# Velocity P-wave (km/s) = 6.11557 7.26136 6.71296
#
# Compressibility (1/GPa) = 0.02659613
#
# Stress axis : x y z
#
# Youngs Moduli (GPa) = 120.09623 92.71023 36.09405
#
# Poissons Ratio (x) = 0.35229 0.16833
# Poissons Ratio (y) = 0.45635 0.05947
# Poissons Ratio (z) = 0.56008 0.15276
#
# Static dielectric constant tensor:
#      x y z
#    x 3.986490 0.000000 0.000000 
#    y 0.000000 3.672370 0.000000 
#    z 0.000000 0.000000 3.659110 
# 
# 
# High freq. dielectric constant tensor:
#      x y z
#    x 1.746850 0.000000 0.000000 
#    y 0.000000 1.723850 0.000000 
#    z 0.000000 0.000000 1.724640 
# 
# From -- ./inp_files/42549.got.cif
#   From: 2010.03.12/outbox.cif.g09.slc.cpg/sg63_22_cif.got.tgz:42549.got - 2010.04.10 19:34:48.
