data_PCOD8256714
_publ_section_title
;
Structure prediction by ZEFSAII (Michael W. Deem and Ramdas Pophale) SiO2 
 PCOD8256714
Probable space group: C M C M
;
_chemical_formula_sum "Si O2"
_cell_formula_units_Z 128
_cell_length_a 28.466634
_cell_length_b 10.570540
_cell_length_c 24.553213
_cell_angle_alpha 90.000000
_cell_angle_beta 90.000000
_cell_angle_gamma 90.000000
_cell_volume 7388.250688
_symmetry_space_group_name_H-M "C M C M"
_symmetry_group_IT_number 63
_symmetry_cell_setting 'orthorhombic'
loop_
_space_group_symop_operation_xyz
x,y,z
-x,-y,1/2+z
x,-y,-z
-x,y,1/2-z
-x,-y,-z
x,y,1/2-z
-x,y,z
x,-y,1/2+z
1/2+x,1/2+y,z
1/2-x,1/2-y,1/2+z
1/2+x,1/2-y,-z
1/2-x,1/2+y,1/2-z
1/2-x,1/2-y,-z
1/2+x,1/2+y,1/2-z
1/2-x,1/2+y,z
1/2+x,1/2-y,1/2+z
loop_
_atom_site_type_symbol
_atom_site_label
_atom_site_fract_x
_atom_site_fract_y
_atom_site_fract_z
Si Si1 0.412204 0.366034 0.814530
Si Si2 0.816027 0.764607 0.810738
Si Si3 0.355268 0.007707 0.843436
Si Si4 0.551801 0.100252 0.814247
Si Si5 0.787197 0.479658 0.937372
Si Si6 0.051834 0.129488 0.814616
Si Si7 0.650066 0.264494 0.188351
Si Si8 0.267442 0.287792 0.111115
O O1 0.411802 0.373322 0.750000
O O2 0.357556 0.355931 0.833679
O O3 0.442245 0.245336 0.833392
O O4 0.436673 0.490446 0.838854
O O5 0.800562 0.804954 0.750000
O O6 0.837319 0.623996 0.807582
O O7 0.771193 0.769753 0.848608
O O8 0.411867 0.012154 0.846902
O O9 0.334439 0.011098 0.904219
O O10 0.338490 0.883658 0.811766
O O11 0.560959 0.085868 0.750000
O O12 0.500000 0.053152 0.829799
O O13 0.747514 0.582245 0.919033
O O14 0.774692 0.330803 0.929758
O O15 0.798630 0.500000 0.000000
O O16 0.048787 0.125175 0.750000
O O17 0.095944 0.217118 0.831857
O O18 0.000000 0.173503 0.836937
O O19 0.657100 0.318472 0.250000
O O20 0.686392 0.328189 0.145932
#
# Coordination Sequence:
#
# PCOD8256714 Si02
#       8
#    16  16  16  16  16  16  16  16
#     4   8  14  24  39  60  90 126 162 192 221 263
#     4   9  16  28  46  70 100 130 155 190 237 292
#     4   9  18  31  46  67  94 129 163 197 237 289
#     4   9  15  24  43  69  96 125 156 192 231 279
#     4  10  21  38  55  70  92 123 162 213 257 293
#     4   9  17  27  39  58  91 135 170 192 219 263
#     4  10  19  30  43  66 102 134 159 191 231 291
#     4  10  21  33  52  76  96 124 162 200 249 305
#
# _framework density 17.324805000000001
#
# number of rings (size 3 to 8) (size 9 to 14) (size 15 to 20)
#    0.000    2.750    0.000    3.000    1.750    2.000 
#    0.000    2.500    0.000    0.375    0.000    0.000 
#    0.000    0.500    0.000    0.250    0.000    0.000 
#
# Total GULP energy -792950.748638 kJ/mol
# GULP energy per Si atom -12389.855447 kJ/mol
# Density = 1.728537 g / cm^3
# Si number density = 17.324805 Si / 1000 Ang^3
#
#
#
# Elastic Constant Matrix: (Units=GPa)
#
#
# Indices 1 2 3 4 5 6 
#
# 1 117.1323 15.2126 36.4699 0.0000 0.0000 0.0000
# 2 15.2126 52.3930 14.9837 0.0000 0.0000 0.0000
# 3 36.4699 14.9837 62.3865 0.0000 0.0000 0.0000
# 4 0.0000 0.0000 0.0000 16.2155 0.0000 0.0000
# 5 0.0000 0.0000 0.0000 0.0000 11.0495 0.0000
# 6 0.0000 0.0000 0.0000 0.0000 0.0000 23.6841
#
#
#
# Elastic Compliance Matrix: (Units=1/GPa)
#
#
# Indices 1 2 3 4 5 6 
#
# 1 0.010531 -0.001393 -0.005822 0.000000 0.000000 0.000000
# 2 -0.001393 0.020678 -0.004152 0.000000 0.000000 0.000000
# 3 -0.005822 -0.004152 0.020430 0.000000 0.000000 0.000000
# 4 0.000000 0.000000 0.000000 0.061669 0.000000 0.000000
# 5 0.000000 0.000000 0.000000 0.000000 0.090502 0.000000
# 6 0.000000 0.000000 0.000000 0.000000 0.000000 0.042222
#
#
# Mechanical properties :
#
#
# Convention : Reuss Voigt Hill
#
# Bulk Modulus (GPa) = 34.59545 40.58269 37.58907
# Shear Modulus (GPa) = 17.95973 21.20620 19.58297
#
# Velocity S-wave (km/s) = 3.22320 3.50242 3.36570
# Velocity P-wave (km/s) = 5.81928 6.31121 6.07023
#
# Compressibility (1/GPa) = 0.02890554
#
# Stress axis : x y z
#
# Youngs Moduli (GPa) = 94.95928 48.35965 48.94868
#
# Poissons Ratio (x) = 0.06735 0.28496
# Poissons Ratio (y) = 0.13226 0.20325
# Poissons Ratio (z) = 0.55281 0.20080
#
# Static dielectric constant tensor:
#      x y z
#    x 3.563580 0.000000 0.000000 
#    y 0.000000 3.347910 0.000000 
#    z 0.000000 0.000000 2.707410 
# 
# 
# High freq. dielectric constant tensor:
#      x y z
#    x 1.679810 0.000000 0.000000 
#    y 0.000000 1.675580 0.000000 
#    z 0.000000 0.000000 1.599780 
# 
# From -- ./inp_files/65569.got.cif
#   From: 2010.03.12/outbox.cif.g09.slc.cpg/sg63_33_cif.got.tgz:65569.got - 2010.04.10 19:34:48.
