data_PCOD8256034
_publ_section_title
;
Structure prediction by ZEFSAII (Michael W. Deem and Ramdas Pophale) SiO2 
 PCOD8256034
Probable space group: C M C M
;
_chemical_formula_sum "Si O2"
_cell_formula_units_Z 80
_cell_length_a 7.707679
_cell_length_b 28.800970
_cell_length_c 20.073061
_cell_angle_alpha 90.000000
_cell_angle_beta 90.000000
_cell_angle_gamma 90.000000
_cell_volume 4455.991344
_symmetry_space_group_name_H-M "C M C M"
_symmetry_group_IT_number 63
_symmetry_cell_setting 'orthorhombic'
loop_
_space_group_symop_operation_xyz
x,y,z
-x,-y,1/2+z
x,-y,-z
-x,y,1/2-z
-x,-y,-z
x,y,1/2-z
-x,y,z
x,-y,1/2+z
1/2+x,1/2+y,z
1/2-x,1/2-y,1/2+z
1/2+x,1/2-y,-z
1/2-x,1/2+y,1/2-z
1/2-x,1/2-y,-z
1/2+x,1/2+y,1/2-z
1/2-x,1/2+y,z
1/2+x,1/2-y,1/2+z
loop_
_atom_site_type_symbol
_atom_site_label
_atom_site_fract_x
_atom_site_fract_y
_atom_site_fract_z
Si Si1 0.000000 0.059649 0.066814
Si Si2 0.798794 0.373567 0.949004
Si Si3 0.204323 0.803232 0.325984
Si Si4 0.000000 0.042592 0.910585
Si Si5 0.807245 0.606901 0.601768
Si Si6 0.296879 0.770837 0.570621
O O1 0.824878 0.087973 0.084897
O O2 0.000000 0.011841 0.108815
O O3 0.000000 0.047927 0.989394
O O4 0.730757 0.323717 0.922777
O O5 0.000000 0.383788 0.930417
O O6 0.771461 0.372960 0.028397
O O7 0.250970 0.791730 0.250000
O O8 0.293474 0.851250 0.346216
O O9 0.281643 0.761252 0.370765
O O10 0.000000 0.808923 0.337420
O O11 0.828758 0.066522 0.879855
O O12 0.000000 0.585264 0.606248
O O13 0.500000 0.772359 0.578334
O O14 0.250000 0.750000 0.500000
#
# Coordination Sequence:
#
# PCOD8256034 Si02
#       6
#     8  16  16   8  16  16
#     4   9  18  30  50  70 102 136 164 215 263 307
#     4   9  18  30  46  74 102 131 174 215 256 309
#     4  10  20  33  49  72 105 141 174 216 263 316
#     4   9  18  32  47  72 100 134 171 205 264 316
#     4  10  18  30  49  71  99 133 171 211 260 314
#     4  10  19  29  48  73 100 137 179 216 260 317
#
# _framework density 17.953354999999998
#
# number of rings (size 3 to 8) (size 9 to 14) (size 15 to 20)
#    0.000    2.400    3.000    0.000    1.400    1.200 
#    0.000    4.000    0.000    0.000    0.000    2.800 
#    0.000    3.200    0.000    0.000    0.000    0.000 
#
# Total GULP energy -495897.969405 kJ/mol
# GULP energy per Si atom -12397.449235 kJ/mol
# Density = 1.791249 g / cm^3
# Si number density = 17.953355 Si / 1000 Ang^3
#
#
#
# Elastic Constant Matrix: (Units=GPa)
#
#
# Indices 1 2 3 4 5 6 
#
# 1 96.3072 66.7756 24.0607 0.0000 0.0000 0.0000
# 2 66.7756 166.6175 42.2351 0.0000 0.0000 0.0000
# 3 24.0607 42.2351 63.7101 0.0000 0.0000 0.0000
# 4 0.0000 0.0000 0.0000 16.3005 0.0000 0.0000
# 5 0.0000 0.0000 0.0000 0.0000 11.9233 0.0000
# 6 0.0000 0.0000 0.0000 0.0000 0.0000 23.3705
#
#
#
# Elastic Compliance Matrix: (Units=1/GPa)
#
#
# Indices 1 2 3 4 5 6 
#
# 1 0.014580 -0.005346 -0.001962 0.000000 0.000000 0.000000
# 2 -0.005346 0.009174 -0.004063 0.000000 0.000000 0.000000
# 3 -0.001962 -0.004063 0.019131 0.000000 0.000000 0.000000
# 4 0.000000 0.000000 0.000000 0.061348 0.000000 0.000000
# 5 0.000000 0.000000 0.000000 0.000000 0.083869 0.000000
# 6 0.000000 0.000000 0.000000 0.000000 0.000000 0.042789
#
#
# Mechanical properties :
#
#
# Convention : Reuss Voigt Hill
#
# Bulk Modulus (GPa) = 49.64587 65.86418 57.75502
# Shear Modulus (GPa) = 19.20507 23.22309 21.21408
#
# Velocity S-wave (km/s) = 3.27421 3.60046 3.44120
# Velocity P-wave (km/s) = 6.48125 7.35189 6.93026
#
# Compressibility (1/GPa) = 0.02014266
#
# Stress axis : x y z
#
# Youngs Moduli (GPa) = 68.58528 109.00199 52.27228
#
# Poissons Ratio (x) = 0.58272 0.10258
# Poissons Ratio (y) = 0.36665 0.21237
# Poissons Ratio (z) = 0.13460 0.44286
#
# Static dielectric constant tensor:
#      x y z
#    x 3.442930 0.000000 0.000000 
#    y 0.000000 3.595510 0.000000 
#    z 0.000000 0.000000 3.018930 
# 
# 
# High freq. dielectric constant tensor:
#      x y z
#    x 1.703200 0.000000 0.000000 
#    y 0.000000 1.693320 0.000000 
#    z 0.000000 0.000000 1.641170 
# 
# From -- ./inp_files/51216.got.cif
#   From: 2010.03.12/outbox.cif.g09.slc.cpg/sg63_26_cif.got.tgz:51216.got - 2010.04.10 19:34:48.
