data_PCOD8256264
_publ_section_title
;
Structure prediction by ZEFSAII (Michael W. Deem and Ramdas Pophale) SiO2 
 PCOD8256264
Probable space group: C M C M
;
_chemical_formula_sum "Si O2"
_cell_formula_units_Z 104
_cell_length_a 19.531963
_cell_length_b 18.568281
_cell_length_c 16.311329
_cell_angle_alpha 90.000000
_cell_angle_beta 90.000000
_cell_angle_gamma 90.000000
_cell_volume 5915.710878
_symmetry_space_group_name_H-M "C M C M"
_symmetry_group_IT_number 63
_symmetry_cell_setting 'orthorhombic'
loop_
_space_group_symop_operation_xyz
x,y,z
-x,-y,1/2+z
x,-y,-z
-x,y,1/2-z
-x,-y,-z
x,y,1/2-z
-x,y,z
x,-y,1/2+z
1/2+x,1/2+y,z
1/2-x,1/2-y,1/2+z
1/2+x,1/2-y,-z
1/2-x,1/2+y,1/2-z
1/2-x,1/2-y,-z
1/2+x,1/2+y,1/2-z
1/2-x,1/2+y,z
1/2+x,1/2-y,1/2+z
loop_
_atom_site_type_symbol
_atom_site_label
_atom_site_fract_x
_atom_site_fract_y
_atom_site_fract_z
Si Si1 0.811452 0.349990 0.035870
Si Si2 0.663865 0.289503 0.447398
Si Si3 0.155435 0.014025 0.345659
Si Si4 0.426173 0.626565 0.655231
Si Si5 0.579736 0.652068 0.096951
Si Si6 0.423762 0.808478 0.156962
Si Si7 0.754968 0.500000 0.500000
O O1 0.740200 0.317803 0.068539
O O2 0.867299 0.352632 0.107374
O O3 0.803575 0.430432 0.003510
O O4 0.837836 0.295768 0.964825
O O5 0.620894 0.304527 0.365760
O O6 0.625829 0.337646 0.516144
O O7 0.181959 0.007687 0.250000
O O8 0.110678 0.086121 0.351991
O O9 0.214553 0.010457 0.414424
O O10 0.107994 0.947881 0.371471
O O11 0.438294 0.627695 0.750000
O O12 0.500000 0.632596 0.610697
O O13 0.500000 0.637650 0.075529
O O14 0.588328 0.722947 0.152068
O O15 0.416429 0.833414 0.250000
O O16 0.500000 0.826962 0.123445
#
# Coordination Sequence:
#
# PCOD8256264 Si02
#       7
#    16  16  16  16  16  16   8
#     4  10  21  35  57  75 104 138 177 225 270 320
#     4  10  19  35  52  78 105 141 185 221 261 315
#     4  11  21  33  51  80 118 154 185 216 257 320
#     4  10  20  33  51  78 113 149 181 212 252 314
#     4  10  18  31  53  80 113 147 177 218 267 316
#     4   9  19  35  56  82 105 131 175 230 285 331
#     4  12  22  40  54  78 112 146 186 228 274 324
#
# _framework density 17.580304999999999
#
# number of rings (size 3 to 8) (size 9 to 14) (size 15 to 20)
#    0.000    1.846    3.077    1.385    0.000    3.385 
#    0.000    3.462    0.000    0.000    0.000    2.154 
#    0.000    0.000    0.000    0.000    0.000    0.000 
#
# Total GULP energy -644496.354106 kJ/mol
# GULP energy per Si atom -12394.160656 kJ/mol
# Density = 1.754029 g / cm^3
# Si number density = 17.580305 Si / 1000 Ang^3
#
#
#
# Elastic Constant Matrix: (Units=GPa)
#
#
# Indices 1 2 3 4 5 6 
#
# 1 118.3605 59.3047 52.2841 0.0000 0.0000 0.0000
# 2 59.3047 118.0380 37.6456 0.0000 0.0000 0.0000
# 3 52.2841 37.6456 54.9282 0.0000 0.0000 0.0000
# 4 0.0000 0.0000 0.0000 23.9278 0.0000 0.0000
# 5 0.0000 0.0000 0.0000 0.0000 29.0980 0.0000
# 6 0.0000 0.0000 0.0000 0.0000 0.0000 30.7439
#
#
#
# Elastic Compliance Matrix: (Units=1/GPa)
#
#
# Indices 1 2 3 4 5 6 
#
# 1 0.015969 -0.004064 -0.012415 0.000000 0.000000 0.000000
# 2 -0.004064 0.011876 -0.004271 0.000000 0.000000 0.000000
# 3 -0.012415 -0.004271 0.032951 0.000000 0.000000 0.000000
# 4 0.000000 0.000000 0.000000 0.041792 0.000000 0.000000
# 5 0.000000 0.000000 0.000000 0.000000 0.034367 0.000000
# 6 0.000000 0.000000 0.000000 0.000000 0.000000 0.032527
#
#
# Mechanical properties :
#
#
# Convention : Reuss Voigt Hill
#
# Bulk Modulus (GPa) = 51.82643 65.53283 58.67963
# Shear Modulus (GPa) = 22.99767 26.22675 24.61221
#
# Velocity S-wave (km/s) = 3.62076 3.86661 3.74570
# Velocity P-wave (km/s) = 6.85738 7.56911 7.22202
#
# Compressibility (1/GPa) = 0.01929518
#
# Stress axis : x y z
#
# Youngs Moduli (GPa) = 62.62064 84.20582 30.34845
#
# Poissons Ratio (x) = 0.34218 0.37679
# Poissons Ratio (y) = 0.25447 0.12962
# Poissons Ratio (z) = 0.77746 0.35965
#
# Static dielectric constant tensor:
#      x y z
#    x 3.708400 0.000000 0.000000 
#    y 0.000000 3.272790 0.000000 
#    z 0.000000 0.000000 3.290720 
# 
# 
# High freq. dielectric constant tensor:
#      x y z
#    x 1.681260 0.000000 0.000000 
#    y 0.000000 1.667430 0.000000 
#    z 0.000000 0.000000 1.673510 
# 
# From -- ./inp_files/35637.got.cif
#   From: 2010.03.12/outbox.cif.g09.slc.cpg/sg63_18_cif.got.tgz:35637.got - 2010.04.10 19:34:48.
