data_PCOD8256131
_publ_section_title
;
Structure prediction by ZEFSAII (Michael W. Deem and Ramdas Pophale) SiO2 
 PCOD8256131
Probable space group: C M C M
;
_chemical_formula_sum "Si O2"
_cell_formula_units_Z 96
_cell_length_a 9.318252
_cell_length_b 30.347814
_cell_length_c 19.140238
_cell_angle_alpha 90.000000
_cell_angle_beta 90.000000
_cell_angle_gamma 90.000000
_cell_volume 5412.640696
_symmetry_space_group_name_H-M "C M C M"
_symmetry_group_IT_number 63
_symmetry_cell_setting 'orthorhombic'
loop_
_space_group_symop_operation_xyz
x,y,z
-x,-y,1/2+z
x,-y,-z
-x,y,1/2-z
-x,-y,-z
x,y,1/2-z
-x,y,z
x,-y,1/2+z
1/2+x,1/2+y,z
1/2-x,1/2-y,1/2+z
1/2+x,1/2-y,-z
1/2-x,1/2+y,1/2-z
1/2-x,1/2-y,-z
1/2+x,1/2+y,1/2-z
1/2-x,1/2+y,z
1/2+x,1/2-y,1/2+z
loop_
_atom_site_type_symbol
_atom_site_label
_atom_site_fract_x
_atom_site_fract_y
_atom_site_fract_z
Si Si1 0.671332 0.936321 0.671587
Si Si2 0.670169 0.014229 0.924953
Si Si3 0.333158 0.683382 0.830505
Si Si4 0.332452 0.238198 0.430415
Si Si5 0.829821 0.386145 0.418852
Si Si6 0.331066 0.860488 0.571838
O O1 0.733876 0.934726 0.750000
O O2 0.500000 0.935239 0.673367
O O3 0.733042 0.894404 0.628663
O O4 0.726865 0.980967 0.634516
O O5 0.500000 0.011606 0.929579
O O6 0.718461 0.063556 0.905965
O O7 0.734653 0.000000 0.000000
O O8 0.294545 0.690319 0.750000
O O9 0.500000 0.672891 0.841792
O O10 0.288603 0.728409 0.869300
O O11 0.242916 0.642649 0.859102
O O12 0.500000 0.240430 0.448054
O O13 0.250000 0.250000 0.500000
O O14 0.289317 0.189035 0.405711
O O15 0.771073 0.370776 0.494479
O O16 0.000000 0.380214 0.413189
O O17 0.500000 0.867763 0.569259
#
# Coordination Sequence:
#
# PCOD8256131 Si02
#       6
#    16  16  16  16  16  16
#     4   9  16  25  39  65 100 130 156 195 249 298
#     4   9  15  25  43  69 101 131 158 197 248 295
#     4  10  22  37  50  70 103 136 164 202 251 294
#     4  10  19  32  52  74  97 126 164 203 243 290
#     4  10  18  30  52  76  99 129 167 205 244 289
#     4   9  16  27  45  70  95 123 160 202 243 287
#
# _framework density 17.736260999999999
#
# number of rings (size 3 to 8) (size 9 to 14) (size 15 to 20)
#    0.000    2.500    3.333    0.000    0.000    1.667 
#    0.000    5.000    0.000    0.500    0.000    0.000 
#    0.000    2.000    0.000    0.000    0.000    0.000 
#
# Total GULP energy -595118.924147 kJ/mol
# GULP energy per Si atom -12398.310920 kJ/mol
# Density = 1.769589 g / cm^3
# Si number density = 17.736261 Si / 1000 Ang^3
#
#
#
# Elastic Constant Matrix: (Units=GPa)
#
#
# Indices 1 2 3 4 5 6 
#
# 1 18.1644 33.2945 29.6493 0.0000 0.0000 0.0000
# 2 33.2945 184.5436 92.9169 0.0000 0.0000 0.0000
# 3 29.6493 92.9169 157.4436 0.0000 0.0000 0.0000
# 4 0.0000 0.0000 0.0000 36.0634 0.0000 0.0000
# 5 0.0000 0.0000 0.0000 0.0000 17.1447 0.0000
# 6 0.0000 0.0000 0.0000 0.0000 0.0000 17.9342
#
#
#
# Elastic Compliance Matrix: (Units=1/GPa)
#
#
# Indices 1 2 3 4 5 6 
#
# 1 0.093834 -0.011428 -0.010926 0.000000 0.000000 0.000000
# 2 -0.011428 0.009101 -0.003219 0.000000 0.000000 0.000000
# 3 -0.010926 -0.003219 0.010309 0.000000 0.000000 0.000000
# 4 0.000000 0.000000 0.000000 0.027729 0.000000 0.000000
# 5 0.000000 0.000000 0.000000 0.000000 0.058327 0.000000
# 6 0.000000 0.000000 0.000000 0.000000 0.000000 0.055759
#
#
# Mechanical properties :
#
#
# Convention : Reuss Voigt Hill
#
# Bulk Modulus (GPa) = 16.10368 74.65255 45.37812
# Shear Modulus (GPa) = 15.29497 27.84787 21.57142
#
# Velocity S-wave (km/s) = 2.93978 3.96676 3.49124
# Velocity P-wave (km/s) = 4.54118 7.94745 6.47241
#
# Compressibility (1/GPa) = 0.06209759
#
# Stress axis : x y z
#
# Youngs Moduli (GPa) = 10.65715 109.87348 97.00310
#
# Poissons Ratio (x) = 1.25560 1.05988
# Poissons Ratio (y) = 0.12179 0.31228
# Poissons Ratio (z) = 0.11644 0.35371
#
# Static dielectric constant tensor:
#      x y z
#    x 2.730370 0.000000 0.000000 
#    y 0.000000 3.630370 0.000000 
#    z 0.000000 0.000000 3.473710 
# 
# 
# High freq. dielectric constant tensor:
#      x y z
#    x 1.621070 0.000000 0.000000 
#    y 0.000000 1.706290 0.000000 
#    z 0.000000 0.000000 1.688410 
# 
# From -- ./inp_files/42699.got.cif
#   From: 2010.03.12/outbox.cif.g09.slc.cpg/sg63_22_cif.got.tgz:42699.got - 2010.04.10 19:34:48.
