data_PCOD8256122
_publ_section_title
;
Structure prediction by ZEFSAII (Michael W. Deem and Ramdas Pophale) SiO2 
 PCOD8256122
Probable space group: C M C M
;
_chemical_formula_sum "Si O2"
_cell_formula_units_Z 80
_cell_length_a 7.630475
_cell_length_b 28.480646
_cell_length_c 18.558390
_cell_angle_alpha 90.000000
_cell_angle_beta 90.000000
_cell_angle_gamma 90.000000
_cell_volume 4033.125225
_symmetry_space_group_name_H-M "C M C M"
_symmetry_group_IT_number 63
_symmetry_cell_setting 'orthorhombic'
loop_
_space_group_symop_operation_xyz
x,y,z
-x,-y,1/2+z
x,-y,-z
-x,y,1/2-z
-x,-y,-z
x,y,1/2-z
-x,y,z
x,-y,1/2+z
1/2+x,1/2+y,z
1/2-x,1/2-y,1/2+z
1/2+x,1/2-y,-z
1/2-x,1/2+y,1/2-z
1/2-x,1/2-y,-z
1/2+x,1/2+y,1/2-z
1/2-x,1/2+y,z
1/2+x,1/2-y,1/2+z
loop_
_atom_site_type_symbol
_atom_site_label
_atom_site_fract_x
_atom_site_fract_y
_atom_site_fract_z
Si Si1 0.794681 0.773932 0.425616
Si Si2 0.291706 0.192030 0.329947
Si Si3 0.801250 0.402632 0.594297
Si Si4 0.500000 0.570140 0.667391
Si Si5 0.000000 0.959145 0.833081
Si Si6 0.805828 0.876336 0.055952
O O1 0.750000 0.750000 0.500000
O O2 0.714519 0.740199 0.363720
O O3 0.713955 0.826643 0.422760
O O4 0.000000 0.777577 0.412726
O O5 0.213659 0.186273 0.250000
O O6 0.500000 0.194167 0.328386
O O7 0.232740 0.147762 0.377810
O O8 0.675026 0.442041 0.626879
O O9 0.800325 0.402716 0.507022
O O10 0.000000 0.413233 0.620069
O O11 0.500000 0.587228 0.750000
O O12 0.500000 0.514757 0.661472
O O13 0.674170 0.590755 0.627155
O O14 0.000000 0.942386 0.750000
O O15 0.000000 0.865842 0.023823
#
# Coordination Sequence:
#
# PCOD8256122 Si02
#       6
#    16  16  16   8   8  16
#     4  10  18  30  51  78 108 150 192 235 288 350
#     4   9  18  31  49  78 115 150 193 246 294 355
#     4  11  21  36  60  90 121 155 198 248 308 371
#     4   9  21  41  63  85 115 157 209 257 303 363
#     4  11  23  41  63  85 121 163 199 257 314 358
#     4   9  19  35  58  83 114 155 197 247 302 351
#
# _framework density 19.835733999999999
#
# number of rings (size 3 to 8) (size 9 to 14) (size 15 to 20)
#    0.600    1.600    3.000    0.600    0.000    3.600 
#    0.000    2.000    0.000    1.800    0.000    2.800 
#    0.000    0.000    0.000    0.000    0.000    0.000 
#
# Total GULP energy -495723.141758 kJ/mol
# GULP energy per Si atom -12393.078544 kJ/mol
# Density = 1.979059 g / cm^3
# Si number density = 19.835734 Si / 1000 Ang^3
#
#
#
# Elastic Constant Matrix: (Units=GPa)
#
#
# Indices 1 2 3 4 5 6 
#
# 1 53.6722 24.8561 18.9386 0.0000 0.0000 0.0000
# 2 24.8561 116.1010 64.8737 0.0000 0.0000 0.0000
# 3 18.9386 64.8737 159.1943 0.0000 0.0000 0.0000
# 4 0.0000 0.0000 0.0000 38.5395 0.0000 0.0000
# 5 0.0000 0.0000 0.0000 0.0000 19.8052 0.0000
# 6 0.0000 0.0000 0.0000 0.0000 0.0000 12.2899
#
#
#
# Elastic Compliance Matrix: (Units=1/GPa)
#
#
# Indices 1 2 3 4 5 6 
#
# 1 0.020771 -0.003970 -0.000853 0.000000 0.000000 0.000000
# 2 -0.003970 0.011912 -0.004382 0.000000 0.000000 0.000000
# 3 -0.000853 -0.004382 0.008169 0.000000 0.000000 0.000000
# 4 0.000000 0.000000 0.000000 0.025947 0.000000 0.000000
# 5 0.000000 0.000000 0.000000 0.000000 0.050492 0.000000
# 6 0.000000 0.000000 0.000000 0.000000 0.000000 0.081367
#
#
# Mechanical properties :
#
#
# Convention : Reuss Voigt Hill
#
# Bulk Modulus (GPa) = 44.56065 60.70047 52.63056
# Shear Modulus (GPa) = 22.26683 28.81353 25.54018
#
# Velocity S-wave (km/s) = 3.35410 3.81544 3.59219
# Velocity P-wave (km/s) = 6.12483 7.07659 6.61784
#
# Compressibility (1/GPa) = 0.02244132
#
# Stress axis : x y z
#
# Youngs Moduli (GPa) = 48.14331 83.95182 122.41748
#
# Poissons Ratio (x) = 0.33331 0.10444
# Poissons Ratio (y) = 0.19114 0.53641
# Poissons Ratio (z) = 0.04107 0.36786
#
# Static dielectric constant tensor:
#      x y z
#    x 3.279600 0.000000 0.000000 
#    y 0.000000 3.613090 0.000000 
#    z 0.000000 0.000000 3.719120 
# 
# 
# High freq. dielectric constant tensor:
#      x y z
#    x 1.742020 0.000000 0.000000 
#    y 0.000000 1.769690 0.000000 
#    z 0.000000 0.000000 1.772960 
# 
# From -- ./inp_files/50952.got.cif
#   From: 2010.03.12/outbox.cif.g09.slc.cpg/sg63_26_cif.got.tgz:50952.got - 2010.04.10 19:34:48.
