data_PCOD8256192
_publ_section_title
;
Structure prediction by ZEFSAII (Michael W. Deem and Ramdas Pophale) SiO2 
 PCOD8256192
Probable space group: C M C M
;
_chemical_formula_sum "Si O2"
_cell_formula_units_Z 112
_cell_length_a 13.067819
_cell_length_b 21.542761
_cell_length_c 24.307370
_cell_angle_alpha 90.000000
_cell_angle_beta 90.000000
_cell_angle_gamma 90.000000
_cell_volume 6842.935486
_symmetry_space_group_name_H-M "C M C M"
_symmetry_group_IT_number 63
_symmetry_cell_setting 'orthorhombic'
loop_
_space_group_symop_operation_xyz
x,y,z
-x,-y,1/2+z
x,-y,-z
-x,y,1/2-z
-x,-y,-z
x,y,1/2-z
-x,y,z
x,-y,1/2+z
1/2+x,1/2+y,z
1/2-x,1/2-y,1/2+z
1/2+x,1/2-y,-z
1/2-x,1/2+y,1/2-z
1/2-x,1/2-y,-z
1/2+x,1/2+y,1/2-z
1/2-x,1/2+y,z
1/2+x,1/2-y,1/2+z
loop_
_atom_site_type_symbol
_atom_site_label
_atom_site_fract_x
_atom_site_fract_y
_atom_site_fract_z
Si Si1 0.790354 0.798753 0.687418
Si Si2 0.382118 0.756747 0.611965
Si Si3 0.617780 0.832733 0.312196
Si Si4 0.382389 0.379336 0.596802
Si Si5 0.740492 0.632860 0.908219
Si Si6 0.222995 0.317783 0.981212
Si Si7 0.617443 0.514612 0.938867
O O1 0.779265 0.819973 0.750000
O O2 0.678255 0.780745 0.665385
O O3 0.865984 0.740567 0.679871
O O4 0.839429 0.855726 0.654735
O O5 0.500000 0.751449 0.627674
O O6 0.340722 0.688952 0.595188
O O7 0.367660 0.808403 0.563386
O O8 0.649603 0.852082 0.250000
O O9 0.500000 0.848552 0.323361
O O10 0.685420 0.870690 0.355690
O O11 0.500000 0.360088 0.588670
O O12 0.322197 0.349062 0.546123
O O13 0.369635 0.453366 0.597958
O O14 0.682084 0.568020 0.909818
O O15 0.807118 0.642280 0.964592
O O16 0.250000 0.250000 0.000000
O O17 0.500000 0.536692 0.942362
O O18 0.658723 0.500000 0.000000
#
# Coordination Sequence:
#
# PCOD8256192 Si02
#       7
#    16  16  16  16  16  16  16
#     4   9  18  32  50  73  98 125 161 205 249 291
#     4   9  18  30  46  71 102 130 158 198 246 298
#     4   9  18  33  53  75  97 125 163 205 249 293
#     4  10  19  31  48  72 100 128 160 197 241 292
#     4  10  18  31  50  73 101 131 164 200 241 287
#     4   9  18  28  42  69  98 125 156 196 240 287
#     4  10  19  31  50  74 101 135 166 193 235 294
#
# _framework density 16.367243999999999
#
# number of rings (size 3 to 8) (size 9 to 14) (size 15 to 20)
#    0.000    2.571    1.429    1.714    0.000    4.000 
#    0.000    0.714    0.000    6.000    0.000    0.000 
#    0.000    0.000    0.000    0.000    0.000    0.000 
#
# Total GULP energy -694195.035423 kJ/mol
# GULP energy per Si atom -12396.339918 kJ/mol
# Density = 1.632999 g / cm^3
# Si number density = 16.367244 Si / 1000 Ang^3
#
#
#
# Elastic Constant Matrix: (Units=GPa)
#
#
# Indices 1 2 3 4 5 6 
#
# 1 97.2337 43.7913 53.2981 0.0000 0.0000 0.0000
# 2 43.7913 79.0280 48.4579 0.0000 0.0000 0.0000
# 3 53.2981 48.4579 130.1894 0.0000 0.0000 0.0000
# 4 0.0000 0.0000 0.0000 20.1281 0.0000 0.0000
# 5 0.0000 0.0000 0.0000 0.0000 19.6609 0.0000
# 6 0.0000 0.0000 0.0000 0.0000 0.0000 24.7861
#
#
#
# Elastic Compliance Matrix: (Units=1/GPa)
#
#
# Indices 1 2 3 4 5 6 
#
# 1 0.015150 -0.005950 -0.003988 0.000000 0.000000 0.000000
# 2 -0.005950 0.018732 -0.004537 0.000000 0.000000 0.000000
# 3 -0.003988 -0.004537 0.011002 0.000000 0.000000 0.000000
# 4 0.000000 0.000000 0.000000 0.049682 0.000000 0.000000
# 5 0.000000 0.000000 0.000000 0.000000 0.050862 0.000000
# 6 0.000000 0.000000 0.000000 0.000000 0.000000 0.040345
#
#
# Mechanical properties :
#
#
# Convention : Reuss Voigt Hill
#
# Bulk Modulus (GPa) = 62.74945 66.39397 64.57171
# Shear Modulus (GPa) = 22.72374 23.64193 23.18284
#
# Velocity S-wave (km/s) = 3.73012 3.80474 3.76761
# Velocity P-wave (km/s) = 7.54807 7.74303 7.64618
#
# Compressibility (1/GPa) = 0.01593639
#
# Stress axis : x y z
#
# Youngs Moduli (GPa) = 66.00687 53.38333 90.89107
#
# Poissons Ratio (x) = 0.31762 0.36244
# Poissons Ratio (y) = 0.39273 0.41234
# Poissons Ratio (z) = 0.26321 0.24218
#
# Static dielectric constant tensor:
#      x y z
#    x 2.930910 0.000000 0.000000 
#    y 0.000000 2.950730 0.000000 
#    z 0.000000 0.000000 3.298530 
# 
# 
# High freq. dielectric constant tensor:
#      x y z
#    x 1.614010 0.000000 0.000000 
#    y 0.000000 1.611540 0.000000 
#    z 0.000000 0.000000 1.636690 
# 
# From -- ./inp_files/61749.got.cif
#   From: 2010.03.12/outbox.cif.g09.slc.cpg/sg63_31_cif.got.tgz:61749.got - 2010.04.10 19:34:48.
