data_PCOD8256229
_publ_section_title
;
Structure prediction by ZEFSAII (Michael W. Deem and Ramdas Pophale) SiO2 
 PCOD8256229
Probable space group: C M C M
;
_chemical_formula_sum "Si O2"
_cell_formula_units_Z 96
_cell_length_a 11.715405
_cell_length_b 25.020424
_cell_length_c 18.813833
_cell_angle_alpha 90.000000
_cell_angle_beta 90.000000
_cell_angle_gamma 90.000000
_cell_volume 5514.793518
_symmetry_space_group_name_H-M "C M C M"
_symmetry_group_IT_number 63
_symmetry_cell_setting 'orthorhombic'
loop_
_space_group_symop_operation_xyz
x,y,z
-x,-y,1/2+z
x,-y,-z
-x,y,1/2-z
-x,-y,-z
x,y,1/2-z
-x,y,z
x,-y,1/2+z
1/2+x,1/2+y,z
1/2-x,1/2-y,1/2+z
1/2+x,1/2-y,-z
1/2-x,1/2+y,1/2-z
1/2-x,1/2-y,-z
1/2+x,1/2+y,1/2-z
1/2-x,1/2+y,z
1/2+x,1/2-y,1/2+z
loop_
_atom_site_type_symbol
_atom_site_label
_atom_site_fract_x
_atom_site_fract_y
_atom_site_fract_z
Si Si1 0.131554 0.795475 0.831913
Si Si2 0.500000 0.008054 0.669132
Si Si3 0.772772 0.317041 0.333320
Si Si4 0.500000 0.866237 0.329785
Si Si5 0.225367 0.501408 0.416442
Si Si6 0.368803 0.602656 0.914388
Si Si7 0.869153 0.104114 0.420792
O O1 0.140394 0.812037 0.750000
O O2 0.215932 0.746008 0.848619
O O3 0.177670 0.844735 0.878226
O O4 0.000000 0.780297 0.850840
O O5 0.500000 0.985793 0.750000
O O6 0.500000 0.071072 0.669534
O O7 0.611098 0.988313 0.627684
O O8 0.760494 0.329124 0.250000
O O9 0.664602 0.343637 0.371824
O O10 0.885573 0.344915 0.367049
O O11 0.500000 0.842102 0.250000
O O12 0.196627 0.500000 0.500000
O O13 0.290283 0.447560 0.391797
O O14 0.304740 0.551079 0.396918
O O15 0.500000 0.588238 0.897456
O O16 0.351854 0.615950 0.996617
O O17 0.000000 0.094231 0.400995
#
# Coordination Sequence:
#
# PCOD8256229 Si02
#       7
#    16   8  16   8  16  16  16
#     4   9  17  31  53  76  97 127 169 213 253 295
#     4  11  21  33  53  79 103 129 165 211 257 301
#     4  10  18  31  52  76 100 128 165 210 258 301
#     4   9  16  29  49  75  99 121 158 209 261 297
#     4  10  20  35  54  75 103 137 170 206 253 307
#     4  10  20  33  51  75 105 137 167 206 255 303
#     4   9  19  35  53  75 102 134 173 210 248 297
#
# _framework density 17.407724000000002
#
# number of rings (size 3 to 8) (size 9 to 14) (size 15 to 20)
#    0.000    2.333    2.500    0.750    0.000    3.667 
#    0.000    0.000    1.833    3.000    0.000    0.000 
#    0.000    0.000    0.000    0.000    0.000    0.000 
#
# Total GULP energy -595159.713351 kJ/mol
# GULP energy per Si atom -12399.160695 kJ/mol
# Density = 1.736810 g / cm^3
# Si number density = 17.407724 Si / 1000 Ang^3
#
#
#
# Elastic Constant Matrix: (Units=GPa)
#
#
# Indices 1 2 3 4 5 6 
#
# 1 88.3277 49.4338 46.5026 0.0000 0.0000 0.0000
# 2 49.4338 113.7367 53.6377 0.0000 0.0000 0.0000
# 3 46.5026 53.6377 60.8154 0.0000 0.0000 0.0000
# 4 0.0000 0.0000 0.0000 30.8200 0.0000 0.0000
# 5 0.0000 0.0000 0.0000 0.0000 24.1329 0.0000
# 6 0.0000 0.0000 0.0000 0.0000 0.0000 25.1854
#
#
#
# Elastic Compliance Matrix: (Units=1/GPa)
#
#
# Indices 1 2 3 4 5 6 
#
# 1 0.019342 -0.002451 -0.012627 0.000000 0.000000 0.000000
# 2 -0.002451 0.015364 -0.011676 0.000000 0.000000 0.000000
# 3 -0.012627 -0.011676 0.036397 0.000000 0.000000 0.000000
# 4 0.000000 0.000000 0.000000 0.032446 0.000000 0.000000
# 5 0.000000 0.000000 0.000000 0.000000 0.041437 0.000000
# 6 0.000000 0.000000 0.000000 0.000000 0.000000 0.039706
#
#
# Mechanical properties :
#
#
# Convention : Reuss Voigt Hill
#
# Bulk Modulus (GPa) = 56.84293 62.44755 59.64524
# Shear Modulus (GPa) = 20.48622 23.58139 22.03380
#
# Velocity S-wave (km/s) = 3.43424 3.68455 3.56160
# Velocity P-wave (km/s) = 6.96061 7.35205 7.15900
#
# Compressibility (1/GPa) = 0.01759234
#
# Stress axis : x y z
#
# Youngs Moduli (GPa) = 51.70223 65.08618 27.47474
#
# Poissons Ratio (x) = 0.15955 0.34694
# Poissons Ratio (y) = 0.12675 0.32081
# Poissons Ratio (z) = 0.65287 0.75997
#
# Static dielectric constant tensor:
#      x y z
#    x 3.196810 0.000000 0.000000 
#    y 0.000000 3.233520 0.000000 
#    z 0.000000 0.000000 3.148020 
# 
# 
# High freq. dielectric constant tensor:
#      x y z
#    x 1.663240 0.000000 0.000000 
#    y 0.000000 1.673590 0.000000 
#    z 0.000000 0.000000 1.657690 
# 
# From -- ./inp_files/42749.got.cif
#   From: 2010.03.12/outbox.cif.g09.slc.cpg/sg63_22_cif.got.tgz:42749.got - 2010.04.10 19:34:48.
