data_PCOD8256799
_publ_section_title
;
Structure prediction by ZEFSAII (Michael W. Deem and Ramdas Pophale) SiO2 
 PCOD8256799
Probable space group: C M C M
;
_chemical_formula_sum "Si O2"
_cell_formula_units_Z 96
_cell_length_a 9.312495
_cell_length_b 22.771618
_cell_length_c 26.709970
_cell_angle_alpha 90.000000
_cell_angle_beta 90.000000
_cell_angle_gamma 90.000000
_cell_volume 5664.131697
_symmetry_space_group_name_H-M "C M C M"
_symmetry_group_IT_number 63
_symmetry_cell_setting 'orthorhombic'
loop_
_space_group_symop_operation_xyz
x,y,z
-x,-y,1/2+z
x,-y,-z
-x,y,1/2-z
-x,-y,-z
x,y,1/2-z
-x,y,z
x,-y,1/2+z
1/2+x,1/2+y,z
1/2-x,1/2-y,1/2+z
1/2+x,1/2-y,-z
1/2-x,1/2+y,1/2-z
1/2-x,1/2-y,-z
1/2+x,1/2+y,1/2-z
1/2-x,1/2+y,z
1/2+x,1/2-y,1/2+z
loop_
_atom_site_type_symbol
_atom_site_label
_atom_site_fract_x
_atom_site_fract_y
_atom_site_fract_z
Si Si1 0.657991 0.653550 0.750000
Si Si2 0.165826 0.986012 0.250000
Si Si3 0.341336 0.848384 0.160668
Si Si4 0.167085 0.160847 0.478224
Si Si5 0.170771 0.517769 0.648840
Si Si6 0.169164 0.032360 0.447826
Si Si7 0.339643 0.784341 0.439591
O O1 0.500000 0.679452 0.750000
O O2 0.664357 0.583699 0.750000
O O3 0.734856 0.678142 0.798753
O O4 0.250898 0.006653 0.199571
O O5 0.000000 0.009760 0.250000
O O6 0.500000 0.852151 0.184231
O O7 0.297747 0.913157 0.142443
O O8 0.334280 0.800471 0.117826
O O9 0.214562 0.100534 0.452364
O O10 0.242305 0.168795 0.531641
O O11 0.212916 0.216795 0.444329
O O12 0.000000 0.158124 0.489481
O O13 0.239053 0.490129 0.599033
O O14 0.000000 0.503977 0.651770
O O15 0.000000 0.024032 0.436450
O O16 0.209887 0.000000 0.500000
O O17 0.500000 0.789754 0.461585
#
# Coordination Sequence:
#
# PCOD8256799 Si02
#       7
#     8   8  16  16  16  16  16
#     4   9  17  27  43  68  93 116 145 182 222 267
#     4   9  17  31  49  68  93 124 155 188 230 277
#     4   9  17  29  45  66  92 119 146 181 226 270
#     4   9  18  31  46  66  91 119 153 189 224 267
#     4  10  19  30  47  71  96 122 154 192 232 275
#     4  10  20  32  46  67  97 129 158 191 233 280
#     4   9  17  30  48  67  88 117 152 187 224 269
#
# _framework density 16.948758999999999
#
# number of rings (size 3 to 8) (size 9 to 14) (size 15 to 20)
#    0.000    2.667    0.000    2.000    0.000    4.333 
#    0.000    0.000    0.000    1.000    0.000    3.500 
#    0.000    0.000    0.000    0.000    0.000    0.000 
#
# Total GULP energy -594920.534807 kJ/mol
# GULP energy per Si atom -12394.177808 kJ/mol
# Density = 1.691018 g / cm^3
# Si number density = 16.948759 Si / 1000 Ang^3
#
#
#
# Elastic Constant Matrix: (Units=GPa)
#
#
# Indices 1 2 3 4 5 6 
#
# 1 87.0500 36.6311 64.5239 0.0000 0.0000 0.0000
# 2 36.6311 63.5109 41.7284 0.0000 0.0000 0.0000
# 3 64.5239 41.7284 119.0981 0.0000 0.0000 0.0000
# 4 0.0000 0.0000 0.0000 16.5122 0.0000 0.0000
# 5 0.0000 0.0000 0.0000 0.0000 36.7087 0.0000
# 6 0.0000 0.0000 0.0000 0.0000 0.0000 16.8933
#
#
#
# Elastic Compliance Matrix: (Units=1/GPa)
#
#
# Indices 1 2 3 4 5 6 
#
# 1 0.020803 -0.005967 -0.009180 0.000000 0.000000 0.000000
# 2 -0.005967 0.022165 -0.004533 0.000000 0.000000 0.000000
# 3 -0.009180 -0.004533 0.014958 0.000000 0.000000 0.000000
# 4 0.000000 0.000000 0.000000 0.060561 0.000000 0.000000
# 5 0.000000 0.000000 0.000000 0.000000 0.027241 0.000000
# 6 0.000000 0.000000 0.000000 0.000000 0.000000 0.059195
#
#
# Mechanical properties :
#
#
# Convention : Reuss Voigt Hill
#
# Bulk Modulus (GPa) = 53.86139 61.71398 57.78768
# Shear Modulus (GPa) = 19.96221 22.47455 21.21838
#
# Velocity S-wave (km/s) = 3.43563 3.64542 3.54208
# Velocity P-wave (km/s) = 6.89826 7.36274 7.13428
#
# Compressibility (1/GPa) = 0.01856618
#
# Stress axis : x y z
#
# Youngs Moduli (GPa) = 48.07018 45.11516 66.85358
#
# Poissons Ratio (x) = 0.26921 0.61370
# Poissons Ratio (y) = 0.28684 0.30307
# Poissons Ratio (z) = 0.44127 0.20452
#
# Static dielectric constant tensor:
#      x y z
#    x 3.388810 0.000000 0.000000 
#    y 0.000000 3.066380 0.000000 
#    z 0.000000 0.000000 3.151520 
# 
# 
# High freq. dielectric constant tensor:
#      x y z
#    x 1.661730 0.000000 0.000000 
#    y 0.000000 1.625910 0.000000 
#    z 0.000000 0.000000 1.652930 
# 
# From -- ./inp_files/67265.got.cif
#   From: 2010.03.12/outbox.cif.g09.slc.cpg/sg63_34_cif.got.tgz:67265.got - 2010.04.10 19:34:48.
