data_PCOD8256736
_publ_section_title
;
Structure prediction by ZEFSAII (Michael W. Deem and Ramdas Pophale) SiO2 
 PCOD8256736
Probable space group: C M C M
;
_chemical_formula_sum "Si O2"
_cell_formula_units_Z 104
_cell_length_a 26.024843
_cell_length_b 23.372230
_cell_length_c 9.321529
_cell_angle_alpha 90.000000
_cell_angle_beta 90.000000
_cell_angle_gamma 90.000000
_cell_volume 5669.900331
_symmetry_space_group_name_H-M "C M C M"
_symmetry_group_IT_number 63
_symmetry_cell_setting 'orthorhombic'
loop_
_space_group_symop_operation_xyz
x,y,z
-x,-y,1/2+z
x,-y,-z
-x,y,1/2-z
-x,-y,-z
x,y,1/2-z
-x,y,z
x,-y,1/2+z
1/2+x,1/2+y,z
1/2-x,1/2-y,1/2+z
1/2+x,1/2-y,-z
1/2-x,1/2+y,1/2-z
1/2-x,1/2-y,-z
1/2+x,1/2+y,1/2-z
1/2-x,1/2+y,z
1/2+x,1/2-y,1/2+z
loop_
_atom_site_type_symbol
_atom_site_label
_atom_site_fract_x
_atom_site_fract_y
_atom_site_fract_z
Si Si1 0.638253 0.157362 0.917184
Si Si2 0.656103 0.281014 0.582875
Si Si3 0.500000 0.442945 0.587204
Si Si4 0.691196 0.450135 0.412447
Si Si5 0.253733 0.330551 0.085418
Si Si6 0.440478 0.059286 0.919768
Si Si7 0.107010 0.103218 0.083886
O O1 0.639956 0.143912 0.750000
O O2 0.622723 0.223427 0.950503
O O3 0.696787 0.157112 0.978222
O O4 0.597738 0.110156 0.979777
O O5 0.669785 0.283310 0.750000
O O6 0.711792 0.284374 0.503051
O O7 0.620798 0.332990 0.532749
O O8 0.500000 0.500000 0.500000
O O9 0.500000 0.463304 0.750000
O O10 0.452457 0.402819 0.550621
O O11 0.721173 0.500000 0.500000
O O12 0.683349 0.469838 0.250000
O O13 0.720878 0.391840 0.426203
O O14 0.636134 0.443494 0.488855
O O15 0.250554 0.308967 0.250000
O O16 0.433027 0.049741 0.750000
O O17 0.500000 0.076410 0.952703
O O18 0.426265 0.000000 0.000000
O O19 0.121236 0.093397 0.250000
#
# Coordination Sequence:
#
# PCOD8256736 Si02
#       7
#    16  16   8  16  16  16  16
#     4   9  17  31  51  75  99 126 160 196 237 286
#     4   9  17  31  50  71  97 127 158 195 238 284
#     4  10  20  32  46  66  90 118 155 194 232 272
#     4  10  19  30  45  65  90 123 158 194 236 281
#     4   9  18  31  47  68  98 130 159 195 238 285
#     4   9  18  34  54  75 100 130 164 203 247 295
#     4   9  18  32  47  66  92 121 154 195 237 278
#
# _framework density 18.342473999999999
#
# number of rings (size 3 to 8) (size 9 to 14) (size 15 to 20)
#    0.000    2.769    0.000    1.385    0.000    3.077 
#    1.385    1.538    0.000    0.000    0.000    0.000 
#    0.000    0.000    0.000    0.000    0.000    0.000 
#
# Total GULP energy -644182.882151 kJ/mol
# GULP energy per Si atom -12388.132349 kJ/mol
# Density = 1.830073 g / cm^3
# Si number density = 18.342474 Si / 1000 Ang^3
#
#
#
# Elastic Constant Matrix: (Units=GPa)
#
#
# Indices 1 2 3 4 5 6 
#
# 1 106.4952 55.7541 24.2691 0.0000 0.0000 0.0000
# 2 55.7541 111.8150 29.2131 0.0000 0.0000 0.0000
# 3 24.2691 29.2131 47.8737 0.0000 0.0000 0.0000
# 4 0.0000 0.0000 0.0000 20.5756 0.0000 0.0000
# 5 0.0000 0.0000 0.0000 0.0000 16.0945 0.0000
# 6 0.0000 0.0000 0.0000 0.0000 0.0000 18.1139
#
#
#
# Elastic Compliance Matrix: (Units=1/GPa)
#
#
# Indices 1 2 3 4 5 6 
#
# 1 0.013097 -0.005705 -0.003158 0.000000 0.000000 0.000000
# 2 -0.005705 0.013125 -0.005117 0.000000 0.000000 0.000000
# 3 -0.003158 -0.005117 0.025611 0.000000 0.000000 0.000000
# 4 0.000000 0.000000 0.000000 0.048601 0.000000 0.000000
# 5 0.000000 0.000000 0.000000 0.000000 0.062133 0.000000
# 6 0.000000 0.000000 0.000000 0.000000 0.000000 0.055206
#
#
# Mechanical properties :
#
#
# Convention : Reuss Voigt Hill
#
# Bulk Modulus (GPa) = 41.88771 53.85071 47.86921
# Shear Modulus (GPa) = 19.70899 21.41996 20.56447
#
# Velocity S-wave (km/s) = 3.28151 3.42099 3.35197
# Velocity P-wave (km/s) = 6.10277 6.71017 6.41367
#
# Compressibility (1/GPa) = 0.02387335
#
# Stress axis : x y z
#
# Youngs Moduli (GPa) = 76.35531 76.19033 39.04509
#
# Poissons Ratio (x) = 0.43469 0.12329
# Poissons Ratio (y) = 0.43563 0.19978
# Poissons Ratio (z) = 0.24111 0.38985
#
# Static dielectric constant tensor:
#      x y z
#    x 3.508450 0.000000 0.000000 
#    y 0.000000 1.098260 0.000000 
#    z 0.000000 0.000000 3.377590 
# 
# 
# High freq. dielectric constant tensor:
#      x y z
#    x 1.701490 0.000000 0.000000 
#    y 0.000000 1.727520 0.000000 
#    z 0.000000 0.000000 1.688170 
# 
# From -- ./inp_files/12856.got.cif
#   From: 2010.03.12/outbox.cif.g09.slc.cpg/sg63_7_cif.got.tgz:12856.got - 2010.04.10 19:34:48.
