data_PCOD8256597
_publ_section_title
;
Structure prediction by ZEFSAII (Michael W. Deem and Ramdas Pophale) SiO2 
 PCOD8256597
Probable space group: C M C M
;
_chemical_formula_sum "Si O2"
_cell_formula_units_Z 80
_cell_length_a 24.945085
_cell_length_b 13.897588
_cell_length_c 13.920187
_cell_angle_alpha 90.000000
_cell_angle_beta 90.000000
_cell_angle_gamma 90.000000
_cell_volume 4825.801903
_symmetry_space_group_name_H-M "C M C M"
_symmetry_group_IT_number 63
_symmetry_cell_setting 'orthorhombic'
loop_
_space_group_symop_operation_xyz
x,y,z
-x,-y,1/2+z
x,-y,-z
-x,y,1/2-z
-x,-y,-z
x,y,1/2-z
-x,y,z
x,-y,1/2+z
1/2+x,1/2+y,z
1/2-x,1/2-y,1/2+z
1/2+x,1/2-y,-z
1/2-x,1/2+y,1/2-z
1/2-x,1/2-y,-z
1/2+x,1/2+y,1/2-z
1/2-x,1/2+y,z
1/2+x,1/2-y,1/2+z
loop_
_atom_site_type_symbol
_atom_site_label
_atom_site_fract_x
_atom_site_fract_y
_atom_site_fract_z
Si Si1 0.579290 0.023020 0.357126
Si Si2 0.753808 0.335322 0.861937
Si Si3 0.057741 0.659075 0.974932
Si Si4 0.197179 0.469867 0.356715
Si Si5 0.325316 0.217311 0.973165
O O1 0.558087 0.041152 0.250000
O O2 0.553865 0.102756 0.424817
O O3 0.562470 0.915843 0.387689
O O4 0.643203 0.032985 0.364406
O O5 0.759082 0.307359 0.750000
O O6 0.756510 0.451254 0.875798
O O7 0.696501 0.302210 0.904890
O O8 0.800509 0.276895 0.919700
O O9 0.109931 0.727999 0.973714
O O10 0.000000 0.714336 0.963786
O O11 0.202570 0.424412 0.250000
O O12 0.196338 0.385425 0.433919
#
# Coordination Sequence:
#
# PCOD8256597 Si02
#       5
#    16  16  16  16  16
#     4   9  16  27  41  59  86 119 152 181 209 250
#     4  10  19  30  46  64  85 118 154 187 225 267
#     4  10  19  28  40  61  88 120 153 179 213 263
#     4   9  16  28  46  65  89 118 147 181 222 265
#     4  10  19  31  45  64  92 120 147 186 227 261
#
# _framework density 16.577556999999999
#
# number of rings (size 3 to 8) (size 9 to 14) (size 15 to 20)
#    0.000    2.400    2.000    2.400    0.000    2.400 
#    0.000    0.000    0.000    0.000    0.000    0.000 
#    0.000   12.800    0.000   15.200    0.000    2.600 
#
# Total GULP energy -495686.156948 kJ/mol
# GULP energy per Si atom -12392.153924 kJ/mol
# Density = 1.653983 g / cm^3
# Si number density = 16.577557 Si / 1000 Ang^3
#
#
#
# Elastic Constant Matrix: (Units=GPa)
#
#
# Indices 1 2 3 4 5 6 
#
# 1 129.6930 31.3532 29.7670 0.0000 0.0000 0.0000
# 2 31.3532 30.3419 13.9700 0.0000 0.0000 0.0000
# 3 29.7670 13.9700 107.6878 0.0000 0.0000 0.0000
# 4 0.0000 0.0000 0.0000 16.1163 0.0000 0.0000
# 5 0.0000 0.0000 0.0000 0.0000 8.1895 0.0000
# 6 0.0000 0.0000 0.0000 0.0000 0.0000 16.7056
#
#
#
# Elastic Compliance Matrix: (Units=1/GPa)
#
#
# Indices 1 2 3 4 5 6 
#
# 1 0.010529 -0.010146 -0.001594 0.000000 0.000000 0.000000
# 2 -0.010146 0.044828 -0.003011 0.000000 0.000000 0.000000
# 3 -0.001594 -0.003011 0.010117 0.000000 0.000000 0.000000
# 4 0.000000 0.000000 0.000000 0.062049 0.000000 0.000000
# 5 0.000000 0.000000 0.000000 0.000000 0.122107 0.000000
# 6 0.000000 0.000000 0.000000 0.000000 0.000000 0.059860
#
#
# Mechanical properties :
#
#
# Convention : Reuss Voigt Hill
#
# Bulk Modulus (GPa) = 27.79904 46.43368 37.11636
# Shear Modulus (GPa) = 14.24565 21.04447 17.64506
#
# Velocity S-wave (km/s) = 2.93462 3.56681 3.26605
# Velocity P-wave (km/s) = 5.31866 6.71071 6.05482
#
# Compressibility (1/GPa) = 0.03597246
#
# Stress axis : x y z
#
# Youngs Moduli (GPa) = 94.97340 22.30728 98.83988
#
# Poissons Ratio (x) = 0.22633 0.15758
# Poissons Ratio (y) = 0.96362 0.29759
# Poissons Ratio (z) = 0.15141 0.06716
#
# Static dielectric constant tensor:
#      x y z
#    x 3.272590 0.000000 0.000000 
#    y 0.000000 2.677780 0.000000 
#    z 0.000000 0.000000 3.358520 
# 
# 
# High freq. dielectric constant tensor:
#      x y z
#    x 1.629460 0.000000 0.000000 
#    y 0.000000 1.570860 0.000000 
#    z 0.000000 0.000000 1.661500 
# 
# From -- ./inp_files/36669.got.cif
#   From: 2010.03.12/outbox.cif.g09.slc.cpg/sg63_19_cif.got.tgz:36669.got - 2010.04.10 19:34:48.
