data_PCOD8256508
_publ_section_title
;
Structure prediction by ZEFSAII (Michael W. Deem and Ramdas Pophale) SiO2 
 PCOD8256508
Probable space group: C M C M
;
_chemical_formula_sum "Si O2"
_cell_formula_units_Z 104
_cell_length_a 26.347018
_cell_length_b 23.754960
_cell_length_c 8.731173
_cell_angle_alpha 90.000000
_cell_angle_beta 90.000000
_cell_angle_gamma 90.000000
_cell_volume 5464.599840
_symmetry_space_group_name_H-M "C M C M"
_symmetry_group_IT_number 63
_symmetry_cell_setting 'orthorhombic'
loop_
_space_group_symop_operation_xyz
x,y,z
-x,-y,1/2+z
x,-y,-z
-x,y,1/2-z
-x,-y,-z
x,y,1/2-z
-x,y,z
x,-y,1/2+z
1/2+x,1/2+y,z
1/2-x,1/2-y,1/2+z
1/2+x,1/2-y,-z
1/2-x,1/2+y,1/2-z
1/2-x,1/2-y,-z
1/2+x,1/2+y,1/2-z
1/2-x,1/2+y,z
1/2+x,1/2-y,1/2+z
loop_
_atom_site_type_symbol
_atom_site_label
_atom_site_fract_x
_atom_site_fract_y
_atom_site_fract_z
Si Si1 0.500000 0.562370 0.431919
Si Si2 0.287594 0.141395 0.073169
Si Si3 0.634496 0.938558 0.070044
Si Si4 0.671339 0.648640 0.071570
Si Si5 0.363290 0.759850 0.925885
Si Si6 0.058183 0.352438 0.929463
Si Si7 0.398932 0.438928 0.069999
O O1 0.500000 0.500000 0.500000
O O2 0.500000 0.562392 0.250000
O O3 0.551176 0.591266 0.495984
O O4 0.292287 0.124165 0.250000
O O5 0.229979 0.151830 0.022880
O O6 0.316199 0.199447 0.040371
O O7 0.312747 0.090909 0.977921
O O8 0.633002 0.944205 0.250000
O O9 0.585907 0.902811 0.016690
O O10 0.631115 0.000000 0.000000
O O11 0.664591 0.634948 0.250000
O O12 0.642222 0.706366 0.034972
O O13 0.649162 0.598633 0.969992
O O14 0.363559 0.739498 0.750000
O O15 0.415306 0.792618 0.966924
O O16 0.063191 0.365291 0.750000
O O17 0.000000 0.349126 0.983600
O O18 0.406512 0.444578 0.250000
O O19 0.389499 0.500000 0.000000
#
# Coordination Sequence:
#
# PCOD8256508 Si02
#       7
#     8  16  16  16  16  16  16
#     4  10  18  34  58  80 104 136 174 214 261 318
#     4   9  20  38  58  79 110 149 188 231 282 334
#     4  11  22  36  57  84 115 150 190 235 283 340
#     4  11  22  36  56  84 114 147 187 232 278 331
#     4   9  18  35  57  82 111 146 186 230 281 336
#     4   9  19  38  61  83 113 152 190 234 286 336
#     4  11  22  38  58  81 110 145 182 225 275 330
#
# _framework density 19.031585
#
# number of rings (size 3 to 8) (size 9 to 14) (size 15 to 20)
#    0.000    2.000    0.000    6.231    0.000    4.923 
#    1.385    0.000    0.000    0.000    0.000    0.000 
#    0.000    0.000    0.000    0.000    0.000    0.000 
#
# Total GULP energy -644892.867392 kJ/mol
# GULP energy per Si atom -12401.785911 kJ/mol
# Density = 1.898827 g / cm^3
# Si number density = 19.031585 Si / 1000 Ang^3
#
#
#
# Elastic Constant Matrix: (Units=GPa)
#
#
# Indices 1 2 3 4 5 6 
#
# 1 98.8506 63.6362 45.4376 0.0000 0.0000 0.0000
# 2 63.6362 106.6587 52.3206 0.0000 0.0000 0.0000
# 3 45.4376 52.3206 121.3128 0.0000 0.0000 0.0000
# 4 0.0000 0.0000 0.0000 35.7028 0.0000 0.0000
# 5 0.0000 0.0000 0.0000 0.0000 30.7544 0.0000
# 6 0.0000 0.0000 0.0000 0.0000 0.0000 17.3195
#
#
#
# Elastic Compliance Matrix: (Units=1/GPa)
#
#
# Indices 1 2 3 4 5 6 
#
# 1 0.017016 -0.008911 -0.002530 0.000000 0.000000 0.000000
# 2 -0.008911 0.016558 -0.003804 0.000000 0.000000 0.000000
# 3 -0.002530 -0.003804 0.010831 0.000000 0.000000 0.000000
# 4 0.000000 0.000000 0.000000 0.028009 0.000000 0.000000
# 5 0.000000 0.000000 0.000000 0.000000 0.032516 0.000000
# 6 0.000000 0.000000 0.000000 0.000000 0.000000 0.057738
#
#
# Mechanical properties :
#
#
# Convention : Reuss Voigt Hill
#
# Bulk Modulus (GPa) = 71.86154 72.17900 72.02027
# Shear Modulus (GPa) = 25.27847 27.78385 26.53116
#
# Velocity S-wave (km/s) = 3.64845 3.82498 3.73776
# Velocity P-wave (km/s) = 7.45583 7.58390 7.52014
#
# Compressibility (1/GPa) = 0.01391565
#
# Stress axis : x y z
#
# Youngs Moduli (GPa) = 58.76857 60.39272 92.32548
#
# Poissons Ratio (x) = 0.53817 0.23359
# Poissons Ratio (y) = 0.52370 0.35118
# Poissons Ratio (z) = 0.14869 0.22971
#
# Static dielectric constant tensor:
#      x y z
#    x 4.049090 0.000000 0.000000 
#    y 0.000000 3.326220 0.000000 
#    z 0.000000 0.000000 3.544590 
# 
# 
# High freq. dielectric constant tensor:
#      x y z
#    x 1.749040 0.000000 0.000000 
#    y 0.000000 1.729600 0.000000 
#    z 0.000000 0.000000 1.743400 
# 
# From -- ./inp_files/12546.got.cif
#   From: 2010.03.12/outbox.cif.g09.slc.cpg/sg63_7_cif.got.tgz:12546.got - 2010.04.10 19:34:48.
