data_PCOD8256704
_publ_section_title
;
Structure prediction by ZEFSAII (Michael W. Deem and Ramdas Pophale) SiO2 
 PCOD8256704
Probable space group: C M C M
;
_chemical_formula_sum "Si O2"
_cell_formula_units_Z 104
_cell_length_a 22.574009
_cell_length_b 30.104745
_cell_length_c 9.473907
_cell_angle_alpha 90.000000
_cell_angle_beta 90.000000
_cell_angle_gamma 90.000000
_cell_volume 6438.323048
_symmetry_space_group_name_H-M "C M C M"
_symmetry_group_IT_number 63
_symmetry_cell_setting 'orthorhombic'
loop_
_space_group_symop_operation_xyz
x,y,z
-x,-y,1/2+z
x,-y,-z
-x,y,1/2-z
-x,-y,-z
x,y,1/2-z
-x,y,z
x,-y,1/2+z
1/2+x,1/2+y,z
1/2-x,1/2-y,1/2+z
1/2+x,1/2-y,-z
1/2-x,1/2+y,1/2-z
1/2-x,1/2-y,-z
1/2+x,1/2+y,1/2-z
1/2-x,1/2+y,z
1/2+x,1/2-y,1/2+z
loop_
_atom_site_type_symbol
_atom_site_label
_atom_site_fract_x
_atom_site_fract_y
_atom_site_fract_z
Si Si1 0.390091 0.606458 0.086248
Si Si2 0.933457 0.378341 0.918733
Si Si3 0.929864 0.283074 0.595770
Si Si4 0.000000 0.045338 0.084928
Si Si5 0.650652 0.956486 0.584620
Si Si6 0.431811 0.312916 0.082192
Si Si7 0.286089 0.457698 0.912051
O O1 0.396293 0.619281 0.250000
O O2 0.442247 0.573151 0.041149
O O3 0.327205 0.584035 0.051594
O O4 0.391388 0.651056 0.994749
O O5 0.932149 0.375167 0.750000
O O6 0.912916 0.329773 0.981550
O O7 0.888781 0.415891 0.973496
O O8 0.000000 0.390162 0.970081
O O9 0.899805 0.283249 0.750000
O O10 0.911943 0.236147 0.522743
O O11 0.000000 0.282623 0.614742
O O12 0.000000 0.033803 0.250000
O O13 0.000000 0.000000 0.000000
O O14 0.639851 0.965064 0.750000
O O15 0.718725 0.944455 0.551756
O O16 0.630718 0.000000 0.500000
O O17 0.422556 0.315503 0.250000
O O18 0.500000 0.322385 0.042739
O O19 0.293106 0.471565 0.750000
O O20 0.307482 0.500000 0.000000
#
# Coordination Sequence:
#
# PCOD8256704 Si02
#       7
#    16  16  16   8  16  16  16
#     4  10  19  30  42  58  82 110 139 173 214 257
#     4   8  13  23  42  67  91 113 138 169 206 245
#     4   7  11  21  38  61  86 108 134 171 206 239
#     4  10  20  30  40  56  78 104 134 170 213 254
#     4   9  17  29  45  65  87 113 143 172 205 245
#     4   9  16  26  42  64  85 105 135 175 215 251
#     4   9  18  31  45  60  80 109 145 178 206 244
#
# _framework density 16.153275000000001
#
# number of rings (size 3 to 8) (size 9 to 14) (size 15 to 20)
#    0.000    3.231    0.769    2.308    0.000    1.538 
#    0.000    0.000    0.000    1.846    0.000    2.154 
#    0.000    0.000    0.000    0.000    0.000    0.000 
#
# Total GULP energy -644320.428472 kJ/mol
# GULP energy per Si atom -12390.777471 kJ/mol
# Density = 1.611651 g / cm^3
# Si number density = 16.153275 Si / 1000 Ang^3
#
#
#
# Elastic Constant Matrix: (Units=GPa)
#
#
# Indices 1 2 3 4 5 6 
#
# 1 67.0443 68.8587 24.1788 0.0000 0.0000 0.0000
# 2 68.8587 175.0192 47.8286 0.0000 0.0000 0.0000
# 3 24.1788 47.8286 29.9950 0.0000 0.0000 0.0000
# 4 0.0000 0.0000 0.0000 18.8747 0.0000 0.0000
# 5 0.0000 0.0000 0.0000 0.0000 9.6547 0.0000
# 6 0.0000 0.0000 0.0000 0.0000 0.0000 21.5469
#
#
#
# Elastic Compliance Matrix: (Units=1/GPa)
#
#
# Indices 1 2 3 4 5 6 
#
# 1 0.026141 -0.008022 -0.008281 0.000000 0.000000 0.000000
# 2 -0.008022 0.012588 -0.013606 0.000000 0.000000 0.000000
# 3 -0.008281 -0.013606 0.061709 0.000000 0.000000 0.000000
# 4 0.000000 0.000000 0.000000 0.052981 0.000000 0.000000
# 5 0.000000 0.000000 0.000000 0.000000 0.103576 0.000000
# 6 0.000000 0.000000 0.000000 0.000000 0.000000 0.046410
#
#
# Mechanical properties :
#
#
# Convention : Reuss Voigt Hill
#
# Bulk Modulus (GPa) = 24.61781 61.53230 43.07506
# Shear Modulus (GPa) = 13.27100 18.76141 16.01621
#
# Velocity S-wave (km/s) = 2.86941 3.41172 3.15225
# Velocity P-wave (km/s) = 5.12360 7.32770 6.32244
#
# Compressibility (1/GPa) = 0.04062099
#
# Stress axis : x y z
#
# Youngs Moduli (GPa) = 38.25451 79.44219 16.20519
#
# Poissons Ratio (x) = 0.63727 0.13419
# Poissons Ratio (y) = 0.30687 0.22048
# Poissons Ratio (z) = 0.31678 1.08085
#
# Static dielectric constant tensor:
#      x y z
#    x 2.937180 0.000000 0.000000 
#    y 0.000000 3.381660 0.000000 
#    z 0.000000 0.000000 2.731880 
# 
# 
# High freq. dielectric constant tensor:
#      x y z
#    x 1.594970 0.000000 0.000000 
#    y 0.000000 1.634180 0.000000 
#    z 0.000000 0.000000 1.584760 
# 
# From -- ./inp_files/11085.got.cif
#   From: 2010.03.12/outbox.cif.g09.slc.cpg/sg63_6_cif.got.tgz:11085.got - 2010.04.10 19:34:48.
