data_PCOD8256289
_publ_section_title
;
Structure prediction by ZEFSAII (Michael W. Deem and Ramdas Pophale) SiO2 
 PCOD8256289
Probable space group: C M C M
;
_chemical_formula_sum "Si O2"
_cell_formula_units_Z 80
_cell_length_a 17.185200
_cell_length_b 15.539553
_cell_length_c 13.784404
_cell_angle_alpha 90.000000
_cell_angle_beta 90.000000
_cell_angle_gamma 90.000000
_cell_volume 3681.129585
_symmetry_space_group_name_H-M "C M C M"
_symmetry_group_IT_number 63
_symmetry_cell_setting 'orthorhombic'
loop_
_space_group_symop_operation_xyz
x,y,z
-x,-y,1/2+z
x,-y,-z
-x,y,1/2-z
-x,-y,-z
x,y,1/2-z
-x,y,z
x,-y,1/2+z
1/2+x,1/2+y,z
1/2-x,1/2-y,1/2+z
1/2+x,1/2-y,-z
1/2-x,1/2+y,1/2-z
1/2-x,1/2-y,-z
1/2+x,1/2+y,1/2-z
1/2-x,1/2+y,z
1/2+x,1/2-y,1/2+z
loop_
_atom_site_type_symbol
_atom_site_label
_atom_site_fract_x
_atom_site_fract_y
_atom_site_fract_z
Si Si1 0.221168 0.204249 0.639404
Si Si2 0.298593 0.612340 0.143254
Si Si3 0.143709 0.466170 0.858589
Si Si4 0.632099 0.864410 0.455603
Si Si5 0.912414 0.183443 0.000824
O O1 0.227315 0.169391 0.750000
O O2 0.243829 0.303829 0.633813
O O3 0.276317 0.152640 0.564589
O O4 0.133051 0.194123 0.600779
O O5 0.336831 0.608442 0.250000
O O6 0.238597 0.532379 0.129573
O O7 0.369467 0.612020 0.067185
O O8 0.119127 0.437769 0.750000
O O9 0.108264 0.560954 0.879470
O O10 0.111773 0.398179 0.936643
O O11 0.586135 0.775009 0.440717
O O12 0.000000 0.152557 0.980248
#
# Coordination Sequence:
#
# PCOD8256289 Si02
#       5
#    16  16  16  16  16
#     4  10  18  33  54  77 102 138 189 231 261 307
#     4   9  17  33  56  76  98 135 186 231 262 307
#     4  10  18  31  56  81 102 132 181 234 267 304
#     4  10  19  34  54  80 107 139 183 224 270 317
#     4  11  21  34  51  79 115 146 174 214 273 333
#
# _framework density 21.732458000000001
#
# number of rings (size 3 to 8) (size 9 to 14) (size 15 to 20)
#    0.000    2.000    4.000    1.800    0.000    1.600 
#    0.000    2.000    0.000    3.600    0.000    2.800 
#    0.000    0.000    0.000    0.000    0.000    0.000 
#
# Total GULP energy -495634.234974 kJ/mol
# GULP energy per Si atom -12390.855874 kJ/mol
# Density = 2.168299 g / cm^3
# Si number density = 21.732458 Si / 1000 Ang^3
#
#
#
# Elastic Constant Matrix: (Units=GPa)
#
#
# Indices 1 2 3 4 5 6 
#
# 1 72.5465 -27.8597 14.9945 0.0000 0.0000 0.0000
# 2 -27.8597 27.1077 4.1074 0.0000 0.0000 0.0000
# 3 14.9945 4.1074 119.2436 0.0000 0.0000 0.0000
# 4 0.0000 0.0000 0.0000 20.2664 0.0000 0.0000
# 5 0.0000 0.0000 0.0000 0.0000 15.7748 0.0000
# 6 0.0000 0.0000 0.0000 0.0000 0.0000 12.2039
#
#
#
# Elastic Compliance Matrix: (Units=1/GPa)
#
#
# Indices 1 2 3 4 5 6 
#
# 1 0.024509 0.025791 -0.003970 0.000000 0.000000 0.000000
# 2 0.025791 0.064222 -0.005455 0.000000 0.000000 0.000000
# 3 -0.003970 -0.005455 0.009073 0.000000 0.000000 0.000000
# 4 0.000000 0.000000 0.000000 0.049343 0.000000 0.000000
# 5 0.000000 0.000000 0.000000 0.000000 0.063392 0.000000
# 6 0.000000 0.000000 0.000000 0.000000 0.000000 0.081941
#
#
# Mechanical properties :
#
#
# Convention : Reuss Voigt Hill
#
# Bulk Modulus (GPa) = 7.66078 22.37581 15.01830
# Shear Modulus (GPa) = 16.48734 24.82605 20.65670
#
# Velocity S-wave (km/s) = 2.75735 3.38353 3.08636
# Velocity P-wave (km/s) = 3.69730 5.05794 4.43017
#
# Compressibility (1/GPa) = 0.13053494
#
# Stress axis : x y z
#
# Youngs Moduli (GPa) = 40.80116 15.57087 110.21279
#
# Poissons Ratio (x) = -0.40158 0.43758
# Poissons Ratio (y) = -1.05229 0.60124
# Poissons Ratio (z) = 0.16199 0.08494
#
# Static dielectric constant tensor:
#      x y z
#    x 3.368190 0.000000 0.000000 
#    y 0.000000 3.856350 0.000000 
#    z 0.000000 0.000000 4.043840 
# 
# 
# High freq. dielectric constant tensor:
#      x y z
#    x 1.799070 0.000000 0.000000 
#    y 0.000000 1.834660 0.000000 
#    z 0.000000 0.000000 1.862100 
# 
# From -- ./inp_files/33852.got.cif
#   From: 2010.03.12/outbox.cif.g09.slc.cpg/sg63_17_cif.got.tgz:33852.got - 2010.04.10 19:34:48.
