data_PCOD8256369
_publ_section_title
;
Structure prediction by ZEFSAII (Michael W. Deem and Ramdas Pophale) SiO2 
 PCOD8256369
Probable space group: C M C M
;
_chemical_formula_sum "Si O2"
_cell_formula_units_Z 80
_cell_length_a 16.187986
_cell_length_b 15.959227
_cell_length_c 15.400752
_cell_angle_alpha 90.000000
_cell_angle_beta 90.000000
_cell_angle_gamma 90.000000
_cell_volume 3978.749524
_symmetry_space_group_name_H-M "C M C M"
_symmetry_group_IT_number 63
_symmetry_cell_setting 'orthorhombic'
loop_
_space_group_symop_operation_xyz
x,y,z
-x,-y,1/2+z
x,-y,-z
-x,y,1/2-z
-x,-y,-z
x,y,1/2-z
-x,y,z
x,-y,1/2+z
1/2+x,1/2+y,z
1/2-x,1/2-y,1/2+z
1/2+x,1/2-y,-z
1/2-x,1/2+y,1/2-z
1/2-x,1/2-y,-z
1/2+x,1/2+y,1/2-z
1/2-x,1/2+y,z
1/2+x,1/2-y,1/2+z
loop_
_atom_site_type_symbol
_atom_site_label
_atom_site_fract_x
_atom_site_fract_y
_atom_site_fract_z
Si Si1 0.191385 0.671175 0.004923
Si Si2 0.403444 0.247608 0.345225
Si Si3 0.402525 0.234618 0.849585
Si Si4 0.342426 0.594034 0.423965
Si Si5 0.907157 0.925469 0.104498
O O1 0.129018 0.682271 0.084753
O O2 0.251312 0.593744 0.029526
O O3 0.250000 0.750000 0.000000
O O4 0.139794 0.665869 0.914330
O O5 0.381167 0.212327 0.250000
O O6 0.500000 0.256212 0.360550
O O7 0.366215 0.341942 0.353735
O O8 0.385954 0.207699 0.750000
O O9 0.500000 0.239255 0.869031
O O10 0.360501 0.325519 0.864277
O O11 0.352729 0.507515 0.369607
O O12 0.409765 0.590361 0.500803
O O13 0.000000 0.939571 0.139025
#
# Coordination Sequence:
#
# PCOD8256369 Si02
#       5
#    16  16  16  16  16
#     4  10  19  32  48  75 107 139 172 216 260 312
#     4  10  20  34  54  78 106 142 178 212 257 312
#     4  10  19  31  49  72 100 137 178 218 260 304
#     4  10  19  31  48  76 105 139 166 208 262 311
#     4  10  18  32  54  76 107 140 169 206 254 314
#
# _framework density 20.106819999999999
#
# number of rings (size 3 to 8) (size 9 to 14) (size 15 to 20)
#    0.000    2.000    4.000    3.000    0.000    4.000 
#    0.000    2.000    0.000    0.000    0.000   11.200 
#    0.000   12.800    0.000    0.000    0.000    0.000 
#
# Total GULP energy -495584.093205 kJ/mol
# GULP energy per Si atom -12389.602330 kJ/mol
# Density = 2.006106 g / cm^3
# Si number density = 20.106820 Si / 1000 Ang^3
#
#
#
# Elastic Constant Matrix: (Units=GPa)
#
#
# Indices 1 2 3 4 5 6 
#
# 1 81.5670 30.3676 48.0173 0.0000 0.0000 0.0000
# 2 30.3676 46.5443 15.0736 0.0000 0.0000 0.0000
# 3 48.0173 15.0736 115.9635 0.0000 0.0000 0.0000
# 4 0.0000 0.0000 0.0000 15.5526 0.0000 0.0000
# 5 0.0000 0.0000 0.0000 0.0000 21.8091 0.0000
# 6 0.0000 0.0000 0.0000 0.0000 0.0000 27.4624
#
#
#
# Elastic Compliance Matrix: (Units=1/GPa)
#
#
# Indices 1 2 3 4 5 6 
#
# 1 0.020564 -0.011128 -0.007068 0.000000 0.000000 0.000000
# 2 -0.011128 0.028451 0.000909 0.000000 0.000000 0.000000
# 3 -0.007068 0.000909 0.011432 0.000000 0.000000 0.000000
# 4 0.000000 0.000000 0.000000 0.064298 0.000000 0.000000
# 5 0.000000 0.000000 0.000000 0.000000 0.045852 0.000000
# 6 0.000000 0.000000 0.000000 0.000000 0.000000 0.036413
#
#
# Mechanical properties :
#
#
# Convention : Reuss Voigt Hill
#
# Bulk Modulus (GPa) = 38.65008 47.88798 43.26903
# Shear Modulus (GPa) = 19.98340 23.00591 21.49466
#
# Velocity S-wave (km/s) = 3.15598 3.38625 3.27314
# Velocity P-wave (km/s) = 5.70477 6.25759 5.98756
#
# Compressibility (1/GPa) = 0.02587317
#
# Stress axis : x y z
#
# Youngs Moduli (GPa) = 48.62908 35.14873 87.47334
#
# Poissons Ratio (x) = 0.39112 0.61830
# Poissons Ratio (y) = 0.54113 -0.07956
# Poissons Ratio (z) = 0.34373 -0.03197
#
# Static dielectric constant tensor:
#      x y z
#    x 4.038060 0.000000 0.000000 
#    y 0.000000 3.694130 0.000000 
#    z 0.000000 0.000000 3.707620 
# 
# 
# High freq. dielectric constant tensor:
#      x y z
#    x 1.779440 0.000000 0.000000 
#    y 0.000000 1.738040 0.000000 
#    z 0.000000 0.000000 1.780360 
# 
# From -- ./inp_files/33868.got.cif
#   From: 2010.03.12/outbox.cif.g09.slc.cpg/sg63_17_cif.got.tgz:33868.got - 2010.04.10 19:34:48.
