data_PCOD8256301
_publ_section_title
;
Structure prediction by ZEFSAII (Michael W. Deem and Ramdas Pophale) SiO2 
 PCOD8256301
Probable space group: C M C M
;
_chemical_formula_sum "Si O2"
_cell_formula_units_Z 80
_cell_length_a 22.304587
_cell_length_b 23.203278
_cell_length_c 10.040220
_cell_angle_alpha 90.000000
_cell_angle_beta 90.000000
_cell_angle_gamma 90.000000
_cell_volume 5196.210768
_symmetry_space_group_name_H-M "C M C M"
_symmetry_group_IT_number 63
_symmetry_cell_setting 'orthorhombic'
loop_
_space_group_symop_operation_xyz
x,y,z
-x,-y,1/2+z
x,-y,-z
-x,y,1/2-z
-x,-y,-z
x,y,1/2-z
-x,y,z
x,-y,1/2+z
1/2+x,1/2+y,z
1/2-x,1/2-y,1/2+z
1/2+x,1/2-y,-z
1/2-x,1/2+y,1/2-z
1/2-x,1/2-y,-z
1/2+x,1/2+y,1/2-z
1/2-x,1/2+y,z
1/2+x,1/2-y,1/2+z
loop_
_atom_site_type_symbol
_atom_site_label
_atom_site_fract_x
_atom_site_fract_y
_atom_site_fract_z
Si Si1 0.779619 0.500000 0.500000
Si Si2 0.697545 0.730431 0.596058
Si Si3 0.627544 0.169791 0.496708
Si Si4 0.364063 0.006913 0.750000
Si Si5 0.069134 0.371830 0.250000
Si Si6 0.749571 0.384593 0.404021
Si Si7 0.430079 0.893702 0.750000
O O1 0.823172 0.494692 0.624070
O O2 0.736466 0.444069 0.482911
O O3 0.712800 0.746154 0.750000
O O4 0.750000 0.750000 0.500000
O O5 0.636997 0.763422 0.550337
O O6 0.693864 0.660409 0.582107
O O7 0.583279 0.167651 0.622153
O O8 0.691304 0.143106 0.533495
O O9 0.599075 0.133392 0.379662
O O10 0.419146 0.962172 0.750000
O O11 0.390938 0.070784 0.750000
O O12 0.000000 0.389705 0.250000
O O13 0.762348 0.399397 0.250000
O O14 0.500000 0.880754 0.750000
#
# Coordination Sequence:
#
# PCOD8256301 Si02
#       7
#     8  16  16   8   8  16   8
#     4  12  18  30  49  66  92 128 157 198 230 274
#     4   9  19  31  50  70  89 117 152 196 246 295
#     4  11  19  35  48  66  91 118 161 208 244 282
#     4  12  21  34  44  60  96 128 168 206 239 264
#     4  12  23  36  50  63  89 137 175 202 243 280
#     4  10  18  32  49  68  91 123 156 187 239 295
#     4  12  23  32  46  67  89 121 169 216 243 264
#
# _framework density 15.395834000000001
#
# number of rings (size 3 to 8) (size 9 to 14) (size 15 to 20)
#    0.000    1.200    7.000    0.900    1.400    0.000 
#    0.000    3.000    0.000    0.000    0.000    0.000 
#    0.000    0.000    0.000    5.400    0.000    0.000 
#
# Total GULP energy -495704.532592 kJ/mol
# GULP energy per Si atom -12392.613315 kJ/mol
# Density = 1.536079 g / cm^3
# Si number density = 15.395834 Si / 1000 Ang^3
#
#
#
# Elastic Constant Matrix: (Units=GPa)
#
#
# Indices 1 2 3 4 5 6 
#
# 1 33.2220 42.1984 24.6259 0.0000 0.0000 0.0000
# 2 42.1984 125.2334 47.9276 0.0000 0.0000 0.0000
# 3 24.6259 47.9276 119.4417 0.0000 0.0000 0.0000
# 4 0.0000 0.0000 0.0000 25.2961 0.0000 0.0000
# 5 0.0000 0.0000 0.0000 0.0000 24.1176 0.0000
# 6 0.0000 0.0000 0.0000 0.0000 0.0000 16.9165
#
#
#
# Elastic Compliance Matrix: (Units=1/GPa)
#
#
# Indices 1 2 3 4 5 6 
#
# 1 0.054668 -0.016667 -0.004583 0.000000 0.000000 0.000000
# 2 -0.016667 0.014515 -0.002388 0.000000 0.000000 0.000000
# 3 -0.004583 -0.002388 0.010276 0.000000 0.000000 0.000000
# 4 0.000000 0.000000 0.000000 0.039532 0.000000 0.000000
# 5 0.000000 0.000000 0.000000 0.000000 0.041464 0.000000
# 6 0.000000 0.000000 0.000000 0.000000 0.000000 0.059114
#
#
# Mechanical properties :
#
#
# Convention : Reuss Voigt Hill
#
# Bulk Modulus (GPa) = 31.07321 56.37788 43.72554
# Shear Modulus (GPa) = 18.01338 24.14238 21.07788
#
# Velocity S-wave (km/s) = 3.42426 3.96423 3.70410
# Velocity P-wave (km/s) = 5.98839 7.59289 6.83786
#
# Compressibility (1/GPa) = 0.03218206
#
# Stress axis : x y z
#
# Youngs Moduli (GPa) = 18.29225 68.89424 97.31858
#
# Poissons Ratio (x) = 1.14824 0.44605
# Poissons Ratio (y) = 0.30487 0.23241
# Poissons Ratio (z) = 0.08384 0.16453
#
# Static dielectric constant tensor:
#      x y z
#    x 2.793150 0.000000 0.000000 
#    y 0.000000 3.603330 0.000000 
#    z 0.000000 0.000000 3.249080 
# 
# 
# High freq. dielectric constant tensor:
#      x y z
#    x 1.532810 0.000000 0.000000 
#    y 0.000000 1.593570 0.000000 
#    z 0.000000 0.000000 1.616350 
# 
# From -- ./inp_files/8498.got.cif
#   From: 2010.03.12/outbox.cif.g09.slc.cpg/sg63_5_cif.got.tgz:8498.got - 2010.04.10 19:34:48.
