data_PCOD8256649
_publ_section_title
;
Structure prediction by ZEFSAII (Michael W. Deem and Ramdas Pophale) SiO2 
 PCOD8256649
Probable space group: C M C M
;
_chemical_formula_sum "Si O2"
_cell_formula_units_Z 96
_cell_length_a 22.763939
_cell_length_b 26.085654
_cell_length_c 8.950666
_cell_angle_alpha 90.000000
_cell_angle_beta 90.000000
_cell_angle_gamma 90.000000
_cell_volume 5315.014995
_symmetry_space_group_name_H-M "C M C M"
_symmetry_group_IT_number 63
_symmetry_cell_setting 'orthorhombic'
loop_
_space_group_symop_operation_xyz
x,y,z
-x,-y,1/2+z
x,-y,-z
-x,y,1/2-z
-x,-y,-z
x,y,1/2-z
-x,y,z
x,-y,1/2+z
1/2+x,1/2+y,z
1/2-x,1/2-y,1/2+z
1/2+x,1/2-y,-z
1/2-x,1/2+y,1/2-z
1/2-x,1/2-y,-z
1/2+x,1/2+y,1/2-z
1/2-x,1/2+y,z
1/2+x,1/2-y,1/2+z
loop_
_atom_site_type_symbol
_atom_site_label
_atom_site_fract_x
_atom_site_fract_y
_atom_site_fract_z
Si Si1 0.932118 0.553969 0.924407
Si Si2 0.069363 0.947514 0.920352
Si Si3 0.648111 0.369460 0.084653
Si Si4 0.833184 0.609013 0.074633
Si Si5 0.256608 0.454604 0.087416
Si Si6 0.740465 0.304481 0.927079
O O1 0.918189 0.549602 0.750000
O O2 0.000000 0.566613 0.955205
O O3 0.914533 0.500000 0.000000
O O4 0.896126 0.602517 0.993357
O O5 0.092040 0.949949 0.750000
O O6 0.000000 0.941732 0.928251
O O7 0.094559 0.896583 0.999040
O O8 0.089675 0.000000 0.000000
O O9 0.627476 0.349967 0.250000
O O10 0.698781 0.409632 0.109727
O O11 0.677337 0.324224 0.987765
O O12 0.843253 0.607607 0.250000
O O13 0.796370 0.659889 0.027929
O O14 0.797107 0.559787 0.019907
O O15 0.232937 0.471750 0.250000
O O16 0.290096 0.500000 0.000000
O O17 0.735409 0.300066 0.750000
O O18 0.750000 0.250000 0.000000
#
# Coordination Sequence:
#
# PCOD8256649 Si02
#       6
#    16  16  16  16  16  16
#     4  10  20  33  50  73 103 139 174 206 242 287
#     4  10  20  33  50  74 106 143 179 213 251 298
#     4  10  20  33  51  74 100 132 169 209 254 304
#     4  10  20  33  50  72  98 129 164 203 248 297
#     4  10  19  29  43  66  97 130 162 199 243 293
#     4  10  21  37  57  79 102 129 164 210 263 314
#
# _framework density 18.062038999999999
#
# number of rings (size 3 to 8) (size 9 to 14) (size 15 to 20)
#    0.000    2.000    0.000    4.000    0.000    7.333 
#    0.000    0.000    0.000    1.000    0.000    4.667 
#    0.000    0.000    0.000    0.000    0.000    0.000 
#
# Total GULP energy -594930.876485 kJ/mol
# GULP energy per Si atom -12394.393260 kJ/mol
# Density = 1.802093 g / cm^3
# Si number density = 18.062039 Si / 1000 Ang^3
#
#
#
# Elastic Constant Matrix: (Units=GPa)
#
#
# Indices 1 2 3 4 5 6 
#
# 1 63.9414 28.1844 42.4369 0.0000 0.0000 0.0000
# 2 28.1844 89.3678 58.5221 0.0000 0.0000 0.0000
# 3 42.4369 58.5221 130.6547 0.0000 0.0000 0.0000
# 4 0.0000 0.0000 0.0000 31.0784 0.0000 0.0000
# 5 0.0000 0.0000 0.0000 0.0000 32.7590 0.0000
# 6 0.0000 0.0000 0.0000 0.0000 0.0000 31.8482
#
#
#
# Elastic Compliance Matrix: (Units=1/GPa)
#
#
# Indices 1 2 3 4 5 6 
#
# 1 0.020482 -0.002976 -0.005319 0.000000 0.000000 0.000000
# 2 -0.002976 0.016266 -0.006319 0.000000 0.000000 0.000000
# 3 -0.005319 -0.006319 0.012212 0.000000 0.000000 0.000000
# 4 0.000000 0.000000 0.000000 0.032177 0.000000 0.000000
# 5 0.000000 0.000000 0.000000 0.000000 0.030526 0.000000
# 6 0.000000 0.000000 0.000000 0.000000 0.000000 0.031399
#
#
# Mechanical properties :
#
#
# Convention : Reuss Voigt Hill
#
# Bulk Modulus (GPa) = 50.68299 60.25006 55.46653
# Shear Modulus (GPa) = 27.95357 29.45851 28.70604
#
# Velocity S-wave (km/s) = 3.93828 4.04290 3.99093
# Velocity P-wave (km/s) = 6.98580 7.43122 7.21195
#
# Compressibility (1/GPa) = 0.01973048
#
# Stress axis : x y z
#
# Youngs Moduli (GPa) = 48.82447 61.47616 81.88612
#
# Poissons Ratio (x) = 0.18295 0.43559
# Poissons Ratio (y) = 0.14530 0.51747
# Poissons Ratio (z) = 0.25972 0.38849
#
# Static dielectric constant tensor:
#      x y z
#    x 3.368960 0.000000 0.000000 
#    y 0.000000 2.855590 0.000000 
#    z 0.000000 0.000000 3.847030 
# 
# 
# High freq. dielectric constant tensor:
#      x y z
#    x 1.692230 0.000000 0.000000 
#    y 0.000000 1.667460 0.000000 
#    z 0.000000 0.000000 1.723920 
# 
# From -- ./inp_files/10503.got.cif
#   From: 2010.03.12/outbox.cif.g09.slc.cpg/sg63_6_cif.got.tgz:10503.got - 2010.04.10 19:34:48.
