data_PCOD8256310
_publ_section_title
;
Structure prediction by ZEFSAII (Michael W. Deem and Ramdas Pophale) SiO2 
 PCOD8256310
Probable space group: C M C M
;
_chemical_formula_sum "Si O2"
_cell_formula_units_Z 96
_cell_length_a 21.861861
_cell_length_b 12.686388
_cell_length_c 13.669235
_cell_angle_alpha 90.000000
_cell_angle_beta 90.000000
_cell_angle_gamma 90.000000
_cell_volume 3791.135687
_symmetry_space_group_name_H-M "C M C M"
_symmetry_group_IT_number 63
_symmetry_cell_setting 'orthorhombic'
loop_
_space_group_symop_operation_xyz
x,y,z
-x,-y,1/2+z
x,-y,-z
-x,y,1/2-z
-x,-y,-z
x,y,1/2-z
-x,y,z
x,-y,1/2+z
1/2+x,1/2+y,z
1/2-x,1/2-y,1/2+z
1/2+x,1/2-y,-z
1/2-x,1/2+y,1/2-z
1/2-x,1/2-y,-z
1/2+x,1/2+y,1/2-z
1/2-x,1/2+y,z
1/2+x,1/2-y,1/2+z
loop_
_atom_site_type_symbol
_atom_site_label
_atom_site_fract_x
_atom_site_fract_y
_atom_site_fract_z
Si Si1 0.366628 0.848662 0.634131
Si Si2 0.430304 0.241913 0.867501
Si Si3 0.700244 0.639865 0.866865
Si Si4 0.619574 0.542357 0.144133
Si Si5 0.500000 0.208961 0.134993
Si Si6 0.832935 0.575348 0.866584
Si Si7 0.000000 0.941073 0.398919
O O1 0.360027 0.847891 0.750000
O O2 0.330453 0.747072 0.591360
O O3 0.438250 0.851591 0.603858
O O4 0.336579 0.955882 0.590752
O O5 0.430992 0.248238 0.750000
O O6 0.500000 0.229533 0.906226
O O7 0.398498 0.348718 0.910927
O O8 0.390074 0.143989 0.906964
O O9 0.692639 0.637052 0.750000
O O10 0.667288 0.534756 0.911679
O O11 0.770843 0.633703 0.899147
O O12 0.647636 0.572930 0.250000
O O13 0.559087 0.473427 0.162598
O O14 0.500000 0.232709 0.250000
O O15 0.500000 0.318188 0.078050
O O16 0.837383 0.570019 0.750000
O O17 0.000000 0.000000 0.500000
#
# Coordination Sequence:
#
# PCOD8256310 Si02
#       7
#    16  16  16  16   8  16   8
#     4   9  17  27  43  66  98 135 165 202 249 295
#     4   9  17  27  43  66  98 135 165 202 249 295
#     4   9  17  27  43  66  98 135 165 202 249 295
#     4  10  18  32  51  72 101 134 167 203 250 304
#     4  10  18  32  51  72 101 134 167 203 250 304
#     4   9  18  27  39  69 106 134 169 207 244 293
#     4  12  22  32  49  78 106 128 163 213 256 290
#
# _framework density 25.322227000000002
#
# number of rings (size 3 to 8) (size 9 to 14) (size 15 to 20)
#    0.000    2.500    2.500    0.750    3.500    0.000 
#    0.000    0.000    0.000    0.000    0.000    7.000 
#    0.000    0.000    0.000    0.000    0.000    0.000 
#
# Total GULP energy -594930.859035 kJ/mol
# GULP energy per Si atom -12394.392897 kJ/mol
# Density = 2.526459 g / cm^3
# Si number density = 25.322227 Si / 1000 Ang^3
#
#
#
# Elastic Constant Matrix: (Units=GPa)
#
#
# Indices 1 2 3 4 5 6 
#
# 1 194.2169 117.1987 9.8684 0.0000 0.0000 0.0000
# 2 117.1987 204.0412 8.1830 0.0000 0.0000 0.0000
# 3 9.8684 8.1830 17.5020 0.0000 0.0000 0.0000
# 4 0.0000 0.0000 0.0000 15.3398 0.0000 0.0000
# 5 0.0000 0.0000 0.0000 0.0000 3.0294 0.0000
# 6 0.0000 0.0000 0.0000 0.0000 0.0000 45.1626
#
#
#
# Elastic Compliance Matrix: (Units=1/GPa)
#
#
# Indices 1 2 3 4 5 6 
#
# 1 0.007978 -0.004486 -0.002401 0.000000 0.000000 0.000000
# 2 -0.004486 0.007517 -0.000985 0.000000 0.000000 0.000000
# 3 -0.002401 -0.000985 0.058951 0.000000 0.000000 0.000000
# 4 0.000000 0.000000 0.000000 0.065190 0.000000 0.000000
# 5 0.000000 0.000000 0.000000 0.000000 0.330096 0.000000
# 6 0.000000 0.000000 0.000000 0.000000 0.000000 0.022142
#
#
# Mechanical properties :
#
#
# Convention : Reuss Voigt Hill
#
# Bulk Modulus (GPa) = 17.03537 76.25114 46.64325
# Shear Modulus (GPa) = 9.48432 31.40704 20.44568
#
# Velocity S-wave (km/s) = 1.93742 3.52560 2.84460
# Velocity P-wave (km/s) = 3.42736 6.83746 5.40822
#
# Compressibility (1/GPa) = 0.05870141
#
# Stress axis : x y z
#
# Youngs Moduli (GPa) = 125.34422 133.02660 16.96338
#
# Poissons Ratio (x) = 0.59678 0.04073
# Poissons Ratio (y) = 0.56232 0.01671
# Poissons Ratio (z) = 0.30093 0.13105
#
# Static dielectric constant tensor:
#      x y z
#    x 4.684690 0.000000 0.000000 
#    y 0.000000 4.756650 0.000000 
#    z 0.000000 0.000000 3.923650 
# 
# 
# High freq. dielectric constant tensor:
#      x y z
#    x 2.003860 0.000000 0.000000 
#    y 0.000000 2.010020 0.000000 
#    z 0.000000 0.000000 1.991190 
# 
# From -- ./inp_files/48084.got.cif
#   From: 2010.03.12/outbox.cif.g09.slc.cpg/sg63_25_cif.got.tgz:48084.got - 2010.04.10 19:34:48.
