data_PCOD8256298
_publ_section_title
;
Structure prediction by ZEFSAII (Michael W. Deem and Ramdas Pophale) SiO2 
 PCOD8256298
Probable space group: C M C M
;
_chemical_formula_sum "Si O2"
_cell_formula_units_Z 104
_cell_length_a 12.239497
_cell_length_b 22.495321
_cell_length_c 22.059938
_cell_angle_alpha 90.000000
_cell_angle_beta 90.000000
_cell_angle_gamma 90.000000
_cell_volume 6073.793920
_symmetry_space_group_name_H-M "C M C M"
_symmetry_group_IT_number 63
_symmetry_cell_setting 'orthorhombic'
loop_
_space_group_symop_operation_xyz
x,y,z
-x,-y,1/2+z
x,-y,-z
-x,y,1/2-z
-x,-y,-z
x,y,1/2-z
-x,y,z
x,-y,1/2+z
1/2+x,1/2+y,z
1/2-x,1/2-y,1/2+z
1/2+x,1/2-y,-z
1/2-x,1/2+y,1/2-z
1/2-x,1/2-y,-z
1/2+x,1/2+y,1/2-z
1/2-x,1/2+y,z
1/2+x,1/2-y,1/2+z
loop_
_atom_site_type_symbol
_atom_site_label
_atom_site_fract_x
_atom_site_fract_y
_atom_site_fract_z
Si Si1 0.245741 0.979610 0.680902
Si Si2 0.870354 0.311136 0.454913
Si Si3 0.626300 0.860381 0.818802
Si Si4 0.785150 0.500000 0.000000
Si Si5 0.876653 0.072261 0.424313
Si Si6 0.238804 0.190535 0.077837
Si Si7 0.875909 0.432070 0.391144
O O1 0.205141 0.983642 0.750000
O O2 0.335195 0.928037 0.670822
O O3 0.142761 0.963881 0.638344
O O4 0.298261 0.043129 0.662288
O O5 0.819329 0.253900 0.422825
O O6 0.815494 0.321046 0.520015
O O7 0.841877 0.365623 0.410241
O O8 0.000000 0.304466 0.464404
O O9 0.649220 0.840234 0.750000
O O10 0.500000 0.858579 0.835254
O O11 0.687275 0.813889 0.862133
O O12 0.706926 0.551745 0.024222
O O13 0.864369 0.475177 0.051303
O O14 0.857736 0.142384 0.416750
O O15 0.000000 0.060672 0.445435
O O16 0.000000 0.433436 0.367958
#
# Coordination Sequence:
#
# PCOD8256298 Si02
#       7
#    16  16  16   8  16  16  16
#     4   9  19  33  50  74 102 130 165 207 252 303
#     4  10  20  33  50  73 102 135 169 204 250 303
#     4   9  17  31  52  76  99 127 164 206 253 300
#     4  10  18  32  46  74 100 128 158 202 246 300
#     4  10  19  31  50  72  98 133 169 208 249 291
#     4  10  19  33  50  72 103 133 170 209 250 292
#     4  10  19  31  50  74 101 129 160 201 252 303
#
# _framework density 17.122741999999999
#
# number of rings (size 3 to 8) (size 9 to 14) (size 15 to 20)
#    0.000    2.308    1.538    1.846    0.000    1.231 
#    0.000    0.769    0.000    2.308    0.000    0.000 
#    0.000    0.000    0.000    0.000    0.000    0.000 
#
# Total GULP energy -644789.924678 kJ/mol
# GULP energy per Si atom -12399.806244 kJ/mol
# Density = 1.708377 g / cm^3
# Si number density = 17.122742 Si / 1000 Ang^3
#
#
#
# Elastic Constant Matrix: (Units=GPa)
#
#
# Indices 1 2 3 4 5 6 
#
# 1 65.5652 32.3793 10.5220 0.0000 0.0000 0.0000
# 2 32.3793 88.5046 22.0212 0.0000 0.0000 0.0000
# 3 10.5220 22.0212 61.3322 0.0000 0.0000 0.0000
# 4 0.0000 0.0000 0.0000 24.3931 0.0000 0.0000
# 5 0.0000 0.0000 0.0000 0.0000 7.0829 0.0000
# 6 0.0000 0.0000 0.0000 0.0000 0.0000 20.5780
#
#
#
# Elastic Compliance Matrix: (Units=1/GPa)
#
#
# Indices 1 2 3 4 5 6 
#
# 1 0.018653 -0.006619 -0.000823 0.000000 0.000000 0.000000
# 2 -0.006619 0.014756 -0.004163 0.000000 0.000000 0.000000
# 3 -0.000823 -0.004163 0.017940 0.000000 0.000000 0.000000
# 4 0.000000 0.000000 0.000000 0.040995 0.000000 0.000000
# 5 0.000000 0.000000 0.000000 0.000000 0.141185 0.000000
# 6 0.000000 0.000000 0.000000 0.000000 0.000000 0.048596
#
#
# Mechanical properties :
#
#
# Convention : Reuss Voigt Hill
#
# Bulk Modulus (GPa) = 35.53772 38.36077 36.94925
# Shear Modulus (GPa) = 15.88736 20.44277 18.16506
#
# Velocity S-wave (km/s) = 3.04937 3.45903 3.26064
# Velocity P-wave (km/s) = 5.76177 6.19719 5.98344
#
# Compressibility (1/GPa) = 0.02813911
#
# Stress axis : x y z
#
# Youngs Moduli (GPa) = 53.61039 67.76790 55.73988
#
# Poissons Ratio (x) = 0.44858 0.04590
# Poissons Ratio (y) = 0.35487 0.23202
# Poissons Ratio (z) = 0.04414 0.28209
#
# Static dielectric constant tensor:
#      x y z
#    x 3.055720 0.000000 0.000000 
#    y 0.000000 3.167530 0.000000 
#    z 0.000000 0.000000 3.197550 
# 
# 
# High freq. dielectric constant tensor:
#      x y z
#    x 1.656350 0.000000 0.000000 
#    y 0.000000 1.654260 0.000000 
#    z 0.000000 0.000000 1.655240 
# 
# From -- ./inp_files/61787.got.cif
#   From: 2010.03.12/outbox.cif.g09.slc.cpg/sg63_31_cif.got.tgz:61787.got - 2010.04.10 19:34:48.
