data_PCOD8256934
_publ_section_title
;
Structure prediction by ZEFSAII (Michael W. Deem and Ramdas Pophale) SiO2 
 PCOD8256934
Probable space group: C M C M
;
_chemical_formula_sum "Si O2"
_cell_formula_units_Z 80
_cell_length_a 35.411174
_cell_length_b 14.028094
_cell_length_c 9.721226
_cell_angle_alpha 90.000000
_cell_angle_beta 90.000000
_cell_angle_gamma 90.000000
_cell_volume 4829.031435
_symmetry_space_group_name_H-M "C M C M"
_symmetry_group_IT_number 63
_symmetry_cell_setting 'orthorhombic'
loop_
_space_group_symop_operation_xyz
x,y,z
-x,-y,1/2+z
x,-y,-z
-x,y,1/2-z
-x,-y,-z
x,y,1/2-z
-x,y,z
x,-y,1/2+z
1/2+x,1/2+y,z
1/2-x,1/2-y,1/2+z
1/2+x,1/2-y,-z
1/2-x,1/2+y,1/2-z
1/2-x,1/2-y,-z
1/2+x,1/2+y,1/2-z
1/2-x,1/2+y,z
1/2+x,1/2-y,1/2+z
loop_
_atom_site_type_symbol
_atom_site_label
_atom_site_fract_x
_atom_site_fract_y
_atom_site_fract_z
Si Si1 0.772186 0.586030 0.595088
Si Si2 0.315189 0.593311 0.586243
Si Si3 0.591688 0.112851 0.996082
Si Si4 0.457102 0.879752 0.750000
Si Si5 0.958632 0.605689 0.750000
Si Si6 0.836901 0.268822 0.088142
O O1 0.786193 0.500000 0.500000
O O2 0.777506 0.548697 0.750000
O O3 0.729057 0.613777 0.566141
O O4 0.796783 0.679734 0.568449
O O5 0.326774 0.500000 0.500000
O O6 0.325477 0.585316 0.750000
O O7 0.337890 0.677109 0.510219
O O8 0.563547 0.144593 0.878468
O O9 0.631648 0.161278 0.972020
O O10 0.568915 0.153678 0.124992
O O11 0.599061 0.000000 0.000000
O O12 0.500000 0.835676 0.750000
O O13 0.461766 0.992452 0.750000
O O14 0.000000 0.651634 0.750000
O O15 0.843524 0.243558 0.250000
#
# Coordination Sequence:
#
# PCOD8256934 Si02
#       6
#    16  16  16   8   8  16
#     4   9  19  34  51  73 101 134 170 205 248 297
#     4  10  21  37  55  72  93 128 172 216 256 299
#     4  10  19  31  47  72 106 138 170 203 243 288
#     4   9  18  30  48  70  98 137 175 205 234 282
#     4   9  16  30  48  68  98 139 173 197 232 288
#     4  11  21  33  49  73 105 134 166 209 254 296
#
# _framework density 16.566469000000001
#
# number of rings (size 3 to 8) (size 9 to 14) (size 15 to 20)
#    0.000    2.200    1.000    2.400    1.400    4.000 
#    0.000    0.000    0.000    0.000    0.000    0.000 
#    0.000    4.800    0.000    0.000    0.000    0.000 
#
# Total GULP energy -495743.830629 kJ/mol
# GULP energy per Si atom -12393.595766 kJ/mol
# Density = 1.652876 g / cm^3
# Si number density = 16.566469 Si / 1000 Ang^3
#
#
#
# Elastic Constant Matrix: (Units=GPa)
#
#
# Indices 1 2 3 4 5 6 
#
# 1 73.0544 34.2377 41.7080 0.0000 0.0000 0.0000
# 2 34.2377 72.5615 50.5906 0.0000 0.0000 0.0000
# 3 41.7080 50.5906 140.3182 0.0000 0.0000 0.0000
# 4 0.0000 0.0000 0.0000 30.5672 0.0000 0.0000
# 5 0.0000 0.0000 0.0000 0.0000 65.8238 0.0000
# 6 0.0000 0.0000 0.0000 0.0000 0.0000 11.3470
#
#
#
# Elastic Compliance Matrix: (Units=1/GPa)
#
#
# Indices 1 2 3 4 5 6 
#
# 1 0.018563 -0.006561 -0.003152 0.000000 0.000000 0.000000
# 2 -0.006561 0.020728 -0.005523 0.000000 0.000000 0.000000
# 3 -0.003152 -0.005523 0.010055 0.000000 0.000000 0.000000
# 4 0.000000 0.000000 0.000000 0.032715 0.000000 0.000000
# 5 0.000000 0.000000 0.000000 0.000000 0.015192 0.000000
# 6 0.000000 0.000000 0.000000 0.000000 0.000000 0.088129
#
#
# Mechanical properties :
#
#
# Convention : Reuss Voigt Hill
#
# Bulk Modulus (GPa) = 52.98512 59.88963 56.43738
# Shear Modulus (GPa) = 22.50781 32.17413 27.34097
#
# Velocity S-wave (km/s) = 3.68997 4.41173 4.06689
# Velocity P-wave (km/s) = 7.08571 7.88548 7.49627
#
# Compressibility (1/GPa) = 0.01887322
#
# Stress axis : x y z
#
# Youngs Moduli (GPa) = 53.87070 48.24382 99.45420
#
# Poissons Ratio (x) = 0.31654 0.31348
# Poissons Ratio (y) = 0.35346 0.54929
# Poissons Ratio (z) = 0.16980 0.26646
#
# Static dielectric constant tensor:
#      x y z
#    x 3.109990 0.000000 0.000000 
#    y 0.000000 2.758260 0.000000 
#    z 0.000000 0.000000 3.414480 
# 
# 
# High freq. dielectric constant tensor:
#      x y z
#    x 1.631690 0.000000 0.000000 
#    y 0.000000 1.595850 0.000000 
#    z 0.000000 0.000000 1.659990 
# 
# From -- ./inp_files/25676.got.cif
#   From: 2010.03.12/outbox.cif.g09.slc.cpg/sg63_13_cif.got.tgz:25676.got - 2010.04.10 19:34:48.
