data_PCOD8256014
_publ_section_title
;
Structure prediction by ZEFSAII (Michael W. Deem and Ramdas Pophale) SiO2 
 PCOD8256014
Probable space group: C M C M
;
_chemical_formula_sum "Si O2"
_cell_formula_units_Z 96
_cell_length_a 9.149946
_cell_length_b 29.899337
_cell_length_c 20.400266
_cell_angle_alpha 90.000000
_cell_angle_beta 90.000000
_cell_angle_gamma 90.000000
_cell_volume 5581.050079
_symmetry_space_group_name_H-M "C M C M"
_symmetry_group_IT_number 63
_symmetry_cell_setting 'orthorhombic'
loop_
_space_group_symop_operation_xyz
x,y,z
-x,-y,1/2+z
x,-y,-z
-x,y,1/2-z
-x,-y,-z
x,y,1/2-z
-x,y,z
x,-y,1/2+z
1/2+x,1/2+y,z
1/2-x,1/2-y,1/2+z
1/2+x,1/2-y,-z
1/2-x,1/2+y,1/2-z
1/2-x,1/2-y,-z
1/2+x,1/2+y,1/2-z
1/2-x,1/2+y,z
1/2+x,1/2-y,1/2+z
loop_
_atom_site_type_symbol
_atom_site_label
_atom_site_fract_x
_atom_site_fract_y
_atom_site_fract_z
Si Si1 0.328388 0.032616 0.442266
Si Si2 0.166411 0.815820 0.321160
Si Si3 0.334973 0.903757 0.154659
Si Si4 0.170440 0.210589 0.537231
Si Si5 0.332836 0.491991 0.177253
Si Si6 0.163861 0.622185 0.991006
O O1 0.500000 0.024243 0.433471
O O2 0.292867 0.084784 0.455846
O O3 0.269047 0.000000 0.500000
O O4 0.250954 0.023006 0.373803
O O5 0.182255 0.790573 0.250000
O O6 0.273673 0.857509 0.318064
O O7 0.206007 0.785266 0.384465
O O8 0.000000 0.832792 0.330527
O O9 0.500000 0.909578 0.180429
O O10 0.236343 0.943090 0.181750
O O11 0.330763 0.904830 0.076522
O O12 0.250000 0.250000 0.500000
O O13 0.224362 0.163319 0.508179
O O14 0.000000 0.214586 0.522873
O O15 0.321840 0.513566 0.250000
O O16 0.500000 0.487384 0.154642
O O17 0.000000 0.640935 0.003377
#
# Coordination Sequence:
#
# PCOD8256014 Si02
#       6
#    16  16  16  16  16  16
#     4  10  19  35  55  76 101 133 175 218 257 302
#     4   9  18  32  49  72 103 134 164 202 250 307
#     4  10  18  30  48  72 102 135 169 206 251 304
#     4  10  20  34  54  78 104 134 169 209 256 305
#     4  11  23  34  45  68 104 142 178 217 258 303
#     4   9  18  33  53  76 103 131 165 212 258 304
#
# _framework density 17.201065
#
# number of rings (size 3 to 8) (size 9 to 14) (size 15 to 20)
#    0.000    2.167    1.667    2.000    0.000    6.000 
#    0.000    0.000    0.000    1.000    0.000    2.333 
#    0.000    0.000    0.000    0.000    0.000    0.000 
#
# Total GULP energy -595006.257153 kJ/mol
# GULP energy per Si atom -12395.963691 kJ/mol
# Density = 1.716191 g / cm^3
# Si number density = 17.201065 Si / 1000 Ang^3
#
#
#
# Elastic Constant Matrix: (Units=GPa)
#
#
# Indices 1 2 3 4 5 6 
#
# 1 91.2305 48.9610 56.0651 0.0000 0.0000 0.0000
# 2 48.9610 76.3834 60.1179 0.0000 0.0000 0.0000
# 3 56.0651 60.1179 121.8353 0.0000 0.0000 0.0000
# 4 0.0000 0.0000 0.0000 16.9980 0.0000 0.0000
# 5 0.0000 0.0000 0.0000 0.0000 23.7440 0.0000
# 6 0.0000 0.0000 0.0000 0.0000 0.0000 29.6661
#
#
#
# Elastic Compliance Matrix: (Units=1/GPa)
#
#
# Indices 1 2 3 4 5 6 
#
# 1 0.017946 -0.008180 -0.004222 0.000000 0.000000 0.000000
# 2 -0.008180 0.025134 -0.008637 0.000000 0.000000 0.000000
# 3 -0.004222 -0.008637 0.014412 0.000000 0.000000 0.000000
# 4 0.000000 0.000000 0.000000 0.058830 0.000000 0.000000
# 5 0.000000 0.000000 0.000000 0.000000 0.042116 0.000000
# 6 0.000000 0.000000 0.000000 0.000000 0.000000 0.033708
#
#
# Mechanical properties :
#
#
# Convention : Reuss Voigt Hill
#
# Bulk Modulus (GPa) = 64.88066 68.85970 66.87018
# Shear Modulus (GPa) = 20.88875 22.36863 21.62869
#
# Velocity S-wave (km/s) = 3.48859 3.61005 3.54984
# Velocity P-wave (km/s) = 7.35036 7.58259 7.46738
#
# Compressibility (1/GPa) = 0.01541291
#
# Stress axis : x y z
#
# Youngs Moduli (GPa) = 55.72312 39.78751 69.38441
#
# Poissons Ratio (x) = 0.32548 0.29292
# Poissons Ratio (y) = 0.45584 0.59930
# Poissons Ratio (z) = 0.23524 0.34366
#
# Static dielectric constant tensor:
#      x y z
#    x 3.310790 0.000000 0.000000 
#    y 0.000000 2.900510 0.000000 
#    z 0.000000 0.000000 3.436610 
# 
# 
# High freq. dielectric constant tensor:
#      x y z
#    x 1.673480 0.000000 0.000000 
#    y 0.000000 1.627410 0.000000 
#    z 0.000000 0.000000 1.668150 
# 
# From -- ./inp_files/51363.got.cif
#   From: 2010.03.12/outbox.cif.g09.slc.cpg/sg63_26_cif.got.tgz:51363.got - 2010.04.10 19:34:48.
