data_PCOD8256296
_publ_section_title
;
Structure prediction by ZEFSAII (Michael W. Deem and Ramdas Pophale) SiO2 
 PCOD8256296
Probable space group: C M C M
;
_chemical_formula_sum "Si O2"
_cell_formula_units_Z 80
_cell_length_a 19.177577
_cell_length_b 32.807905
_cell_length_c 8.997033
_cell_angle_alpha 90.000000
_cell_angle_beta 90.000000
_cell_angle_gamma 90.000000
_cell_volume 5660.718354
_symmetry_space_group_name_H-M "C M C M"
_symmetry_group_IT_number 63
_symmetry_cell_setting 'orthorhombic'
loop_
_space_group_symop_operation_xyz
x,y,z
-x,-y,1/2+z
x,-y,-z
-x,y,1/2-z
-x,-y,-z
x,y,1/2-z
-x,y,z
x,-y,1/2+z
1/2+x,1/2+y,z
1/2-x,1/2-y,1/2+z
1/2+x,1/2-y,-z
1/2-x,1/2+y,1/2-z
1/2-x,1/2-y,-z
1/2+x,1/2+y,1/2-z
1/2-x,1/2+y,z
1/2+x,1/2-y,1/2+z
loop_
_atom_site_type_symbol
_atom_site_label
_atom_site_fract_x
_atom_site_fract_y
_atom_site_fract_z
Si Si1 0.651911 0.769906 0.921521
Si Si2 0.580932 0.457437 0.576614
Si Si3 0.500000 0.749158 0.578228
Si Si4 0.770051 0.189566 0.922682
Si Si5 0.000000 0.165345 0.074306
Si Si6 0.627182 0.620516 0.925346
O O1 0.669030 0.774342 0.750000
O O2 0.569397 0.775706 0.952267
O O3 0.677301 0.725278 0.979054
O O4 0.694454 0.805872 0.001907
O O5 0.598377 0.500000 0.500000
O O6 0.598764 0.460382 0.750000
O O7 0.500000 0.445419 0.551405
O O8 0.630394 0.424085 0.498842
O O9 0.500000 0.732979 0.750000
O O10 0.500000 0.712777 0.461713
O O11 0.758047 0.194604 0.750000
O O12 0.801420 0.145007 0.958984
O O13 0.000000 0.157455 0.250000
O O14 0.067011 0.145746 0.001899
O O15 0.612907 0.616789 0.750000
#
# Coordination Sequence:
#
# PCOD8256296 Si02
#       6
#    16  16   8  16   8  16
#     4   9  17  29  44  60  81 109 140 177 214 253
#     4  10  20  32  45  64  86 110 141 176 214 252
#     4  10  18  32  46  59  81 112 145 177 220 260
#     4   9  18  30  43  60  82 110 140 173 215 255
#     4  12  22  28  39  63  84 106 144 185 216 250
#     4  11  20  32  47  60  82 114 143 178 218 255
#
# _framework density 14.132482
#
# number of rings (size 3 to 8) (size 9 to 14) (size 15 to 20)
#    0.000    2.000    3.000    2.100    0.000    3.200 
#    0.000    0.000    0.000    0.000    0.000    0.000 
#    0.000    0.000    0.000    0.900    0.000   11.600 
#
# Total GULP energy -495918.502772 kJ/mol
# GULP energy per Si atom -12397.962569 kJ/mol
# Density = 1.410032 g / cm^3
# Si number density = 14.132482 Si / 1000 Ang^3
#
#
#
# Elastic Constant Matrix: (Units=GPa)
#
#
# Indices 1 2 3 4 5 6 
#
# 1 93.0727 48.6767 40.7447 0.0000 0.0000 0.0000
# 2 48.6767 88.1339 52.0022 0.0000 0.0000 0.0000
# 3 40.7447 52.0022 76.4722 0.0000 0.0000 0.0000
# 4 0.0000 0.0000 0.0000 25.0947 0.0000 0.0000
# 5 0.0000 0.0000 0.0000 0.0000 734.7468 0.0000
# 6 0.0000 0.0000 0.0000 0.0000 0.0000 24.9114
#
#
#
# Elastic Compliance Matrix: (Units=1/GPa)
#
#
# Indices 1 2 3 4 5 6 
#
# 1 0.015865 -0.006304 -0.004166 0.000000 0.000000 0.000000
# 2 -0.006304 0.021455 -0.011231 0.000000 0.000000 0.000000
# 3 -0.004166 -0.011231 0.022933 0.000000 0.000000 0.000000
# 4 0.000000 0.000000 0.000000 0.039849 0.000000 0.000000
# 5 0.000000 0.000000 0.000000 0.000000 0.001361 0.000000
# 6 0.000000 0.000000 0.000000 0.000000 0.000000 0.040142
#
#
# Mechanical properties :
#
#
# Convention : Reuss Voigt Hill
#
# Bulk Modulus (GPa) = 59.34225 60.05844 59.70034
# Shear Modulus (GPa) = 26.22958 164.70090 95.46524
#
# Velocity S-wave (km/s) = 4.31278 10.80711 8.22781
# Velocity P-wave (km/s) = 8.17809 14.08240 11.51510
#
# Compressibility (1/GPa) = 0.01685140
#
# Stress axis : x y z
#
# Youngs Moduli (GPa) = 63.03105 46.60987 43.60481
#
# Poissons Ratio (x) = 0.29384 0.18166
# Poissons Ratio (y) = 0.39737 0.48970
# Poissons Ratio (z) = 0.26259 0.52345
#
# Static dielectric constant tensor:
#      x y z
#    x 2.625330 0.000000 0.000000 
#    y 0.000000 2.704970 0.000000 
#    z 0.000000 0.000000 2.915610 
# 
# 
# High freq. dielectric constant tensor:
#      x y z
#    x 1.512940 0.000000 0.000000 
#    y 0.000000 1.513020 0.000000 
#    z 0.000000 0.000000 1.551490 
# 
# From -- ./inp_files/8933.got.cif
#   From: 2010.03.12/outbox.cif.g09.slc.cpg/sg63_5_cif.got.tgz:8933.got - 2010.04.10 19:34:48.
