data_PCOD8256029
_publ_section_title
;
Structure prediction by ZEFSAII (Michael W. Deem and Ramdas Pophale) SiO2 
 PCOD8256029
Probable space group: C M C M
;
_chemical_formula_sum "Si O2"
_cell_formula_units_Z 96
_cell_length_a 9.253201
_cell_length_b 19.321981
_cell_length_c 30.893294
_cell_angle_alpha 90.000000
_cell_angle_beta 90.000000
_cell_angle_gamma 90.000000
_cell_volume 5523.417407
_symmetry_space_group_name_H-M "C M C M"
_symmetry_group_IT_number 63
_symmetry_cell_setting 'orthorhombic'
loop_
_space_group_symop_operation_xyz
x,y,z
-x,-y,1/2+z
x,-y,-z
-x,y,1/2-z
-x,-y,-z
x,y,1/2-z
-x,y,z
x,-y,1/2+z
1/2+x,1/2+y,z
1/2-x,1/2-y,1/2+z
1/2+x,1/2-y,-z
1/2-x,1/2+y,1/2-z
1/2-x,1/2-y,-z
1/2+x,1/2+y,1/2-z
1/2-x,1/2+y,z
1/2+x,1/2-y,1/2+z
loop_
_atom_site_type_symbol
_atom_site_label
_atom_site_fract_x
_atom_site_fract_y
_atom_site_fract_z
Si Si1 0.831969 0.126236 0.432067
Si Si2 0.833057 0.465070 0.633464
Si Si3 0.331786 0.258012 0.863771
Si Si4 0.831179 0.387965 0.393275
Si Si5 0.668456 0.147923 0.201009
Si Si6 0.329856 0.078808 0.988966
O O1 0.765593 0.063629 0.404659
O O2 0.804729 0.198090 0.407232
O O3 0.752522 0.130020 0.478180
O O4 0.000000 0.111375 0.439087
O O5 0.798655 0.546793 0.638284
O O6 0.799081 0.426042 0.678366
O O7 0.000000 0.454454 0.619386
O O8 0.500000 0.256366 0.851468
O O9 0.265163 0.181655 0.872356
O O10 0.249874 0.290239 0.822981
O O11 0.770393 0.403304 0.441190
O O12 0.000000 0.374703 0.398177
O O13 0.725421 0.142604 0.250000
O O14 0.500000 0.165317 0.199400
O O15 0.500000 0.091758 0.993396
O O16 0.289670 0.000000 0.000000
#
# Coordination Sequence:
#
# PCOD8256029 Si02
#       6
#    16  16  16  16  16  16
#     4  10  19  30  45  69 100 130 163 201 237 280
#     4   9  16  31  53  71  92 125 162 198 238 282
#     4   9  19  34  50  71 100 132 160 194 242 291
#     4   9  17  31  50  71  96 126 164 204 236 277
#     4   9  18  33  54  77  97 120 155 198 240 289
#     4  10  18  30  49  70  93 129 172 206 238 277
#
# _framework density 17.380545000000001
#
# number of rings (size 3 to 8) (size 9 to 14) (size 15 to 20)
#    0.000    2.667    1.667    0.500    0.000    2.000 
#    0.000    2.500    0.000    3.000    0.000    0.000 
#    0.000    0.000    0.000    0.000    0.000    0.000 
#
# Total GULP energy -595113.665448 kJ/mol
# GULP energy per Si atom -12398.201363 kJ/mol
# Density = 1.734099 g / cm^3
# Si number density = 17.380545 Si / 1000 Ang^3
#
#
#
# Elastic Constant Matrix: (Units=GPa)
#
#
# Indices 1 2 3 4 5 6 
#
# 1 42.0692 37.4021 40.0200 0.0000 0.0000 0.0000
# 2 37.4021 143.8822 74.0716 0.0000 0.0000 0.0000
# 3 40.0200 74.0716 138.5728 0.0000 0.0000 0.0000
# 4 0.0000 0.0000 0.0000 20.6539 0.0000 0.0000
# 5 0.0000 0.0000 0.0000 0.0000 24.1766 0.0000
# 6 0.0000 0.0000 0.0000 0.0000 0.0000 19.5799
#
#
#
# Elastic Compliance Matrix: (Units=1/GPa)
#
#
# Indices 1 2 3 4 5 6 
#
# 1 0.035646 -0.005472 -0.007370 0.000000 0.000000 0.000000
# 2 -0.005472 0.010429 -0.003994 0.000000 0.000000 0.000000
# 3 -0.007370 -0.003994 0.011480 0.000000 0.000000 0.000000
# 4 0.000000 0.000000 0.000000 0.048417 0.000000 0.000000
# 5 0.000000 0.000000 0.000000 0.000000 0.041362 0.000000
# 6 0.000000 0.000000 0.000000 0.000000 0.000000 0.051073
#
#
# Mechanical properties :
#
#
# Convention : Reuss Voigt Hill
#
# Bulk Modulus (GPa) = 41.87114 69.72353 55.79734
# Shear Modulus (GPa) = 20.82985 24.41742 22.62363
#
# Velocity S-wave (km/s) = 3.46563 3.75223 3.61177
# Velocity P-wave (km/s) = 6.33697 7.67953 7.04033
#
# Compressibility (1/GPa) = 0.02388280
#
# Stress axis : x y z
#
# Youngs Moduli (GPa) = 28.05348 95.88755 87.10979
#
# Poissons Ratio (x) = 0.52473 0.64196
# Poissons Ratio (y) = 0.15352 0.34793
# Poissons Ratio (z) = 0.20674 0.38299
#
# Static dielectric constant tensor:
#      x y z
#    x 3.083230 0.000000 0.000000 
#    y 0.000000 3.353270 0.000000 
#    z 0.000000 0.000000 3.258610 
# 
# 
# High freq. dielectric constant tensor:
#      x y z
#    x 1.651350 0.000000 0.000000 
#    y 0.000000 1.670110 0.000000 
#    z 0.000000 0.000000 1.661260 
# 
# From -- ./inp_files/66996.got.cif
#   From: 2010.03.12/outbox.cif.g09.slc.cpg/sg63_34_cif.got.tgz:66996.got - 2010.04.10 19:34:48.
