data_PCOD8256018
_publ_section_title
;
Structure prediction by ZEFSAII (Michael W. Deem and Ramdas Pophale) SiO2 
 PCOD8256018
Probable space group: C M C M
;
_chemical_formula_sum "Si O2"
_cell_formula_units_Z 88
_cell_length_a 20.071364
_cell_length_b 24.779841
_cell_length_c 8.704463
_cell_angle_alpha 90.000000
_cell_angle_beta 90.000000
_cell_angle_gamma 90.000000
_cell_volume 4329.297056
_symmetry_space_group_name_H-M "C M C M"
_symmetry_group_IT_number 63
_symmetry_cell_setting 'orthorhombic'
loop_
_space_group_symop_operation_xyz
x,y,z
-x,-y,1/2+z
x,-y,-z
-x,y,1/2-z
-x,-y,-z
x,y,1/2-z
-x,y,z
x,-y,1/2+z
1/2+x,1/2+y,z
1/2-x,1/2-y,1/2+z
1/2+x,1/2-y,-z
1/2-x,1/2+y,1/2-z
1/2-x,1/2-y,-z
1/2+x,1/2+y,1/2-z
1/2-x,1/2+y,z
1/2+x,1/2-y,1/2+z
loop_
_atom_site_type_symbol
_atom_site_label
_atom_site_fract_x
_atom_site_fract_y
_atom_site_fract_z
Si Si1 0.500000 0.939189 0.434303
Si Si2 0.881836 0.055011 0.430322
Si Si3 0.072866 0.168750 0.432340
Si Si4 0.740144 0.051839 0.925836
Si Si5 0.823854 0.256401 0.066140
Si Si6 0.877494 0.368527 0.075163
O O1 0.500000 0.944604 0.250000
O O2 0.563711 0.905020 0.498700
O O3 0.500000 0.000000 0.500000
O O4 0.889901 0.051035 0.250000
O O5 0.919508 0.107702 0.495178
O O6 0.805127 0.062508 0.474031
O O7 0.912425 0.000000 0.500000
O O8 0.078406 0.168479 0.250000
O O9 0.131485 0.206837 0.496246
O O10 0.000000 0.190270 0.484128
O O11 0.760214 0.040217 0.750000
O O12 0.692823 0.102415 0.940345
O O13 0.702985 0.000000 0.000000
O O14 0.818432 0.258755 0.250000
O O15 0.862937 0.309644 0.002385
O O16 0.750000 0.250000 0.000000
O O17 0.899372 0.360137 0.250000
#
# Coordination Sequence:
#
# PCOD8256018 Si02
#       6
#     8  16  16  16  16  16
#     4  10  20  36  54  78 110 144 183 226 270 326
#     4  10  19  32  51  76 103 133 170 212 258 309
#     4   9  19  34  54  79 105 134 174 218 258 307
#     4  10  18  30  48  73 103 134 171 213 257 307
#     4  10  20  36  58  82 107 139 178 224 272 319
#     4   9  19  32  52  78 104 136 177 220 265 317
#
# _framework density 20.326623999999999
#
# number of rings (size 3 to 8) (size 9 to 14) (size 15 to 20)
#    0.000    2.364    0.000    3.818    1.273    0.364 
#    0.000    3.636    0.000    4.364    0.000    0.000 
#    0.000    0.000    0.000    0.000    0.000    0.000 
#
# Total GULP energy -545249.244880 kJ/mol
# GULP energy per Si atom -12392.028293 kJ/mol
# Density = 2.028036 g / cm^3
# Si number density = 20.326624 Si / 1000 Ang^3
#
#
#
# Elastic Constant Matrix: (Units=GPa)
#
#
# Indices 1 2 3 4 5 6 
#
# 1 121.3507 81.5513 11.7232 0.0000 0.0000 0.0000
# 2 81.5513 176.6495 30.1540 0.0000 0.0000 0.0000
# 3 11.7232 30.1540 34.2920 0.0000 0.0000 0.0000
# 4 0.0000 0.0000 0.0000 23.1398 0.0000 0.0000
# 5 0.0000 0.0000 0.0000 0.0000 20.4301 0.0000
# 6 0.0000 0.0000 0.0000 0.0000 0.0000 27.0340
#
#
#
# Elastic Compliance Matrix: (Units=1/GPa)
#
#
# Indices 1 2 3 4 5 6 
#
# 1 0.011971 -0.005680 0.000903 0.000000 0.000000 0.000000
# 2 -0.005680 0.009356 -0.006285 0.000000 0.000000 0.000000
# 3 0.000903 -0.006285 0.034380 0.000000 0.000000 0.000000
# 4 0.000000 0.000000 0.000000 0.043216 0.000000 0.000000
# 5 0.000000 0.000000 0.000000 0.000000 0.048947 0.000000
# 6 0.000000 0.000000 0.000000 0.000000 0.000000 0.036990
#
#
# Mechanical properties :
#
#
# Convention : Reuss Voigt Hill
#
# Bulk Modulus (GPa) = 29.77927 64.34989 47.06458
# Shear Modulus (GPa) = 22.91689 28.04505 25.48097
#
# Velocity S-wave (km/s) = 3.36137 3.71849 3.54443
# Velocity P-wave (km/s) = 5.45410 7.08257 6.32100
#
# Compressibility (1/GPa) = 0.03358041
#
# Stress axis : x y z
#
# Youngs Moduli (GPa) = 83.53640 106.88048 29.08702
#
# Poissons Ratio (x) = 0.60713 -0.02625
# Poissons Ratio (y) = 0.47453 0.18282
# Poissons Ratio (z) = -0.07540 0.67177
#
# Static dielectric constant tensor:
#      x y z
#    x 3.699520 0.000000 0.000000 
#    y 0.000000 4.275380 0.000000 
#    z 0.000000 0.000000 3.331830 
# 
# 
# High freq. dielectric constant tensor:
#      x y z
#    x 1.797190 0.000000 0.000000 
#    y 0.000000 1.814250 0.000000 
#    z 0.000000 0.000000 1.748960 
# 
# From -- ./inp_files/8223.got.cif
#   From: 2010.03.12/outbox.cif.g09.slc.cpg/sg63_5_cif.got.tgz:8223.got - 2010.04.10 19:34:48.
