data_PCOD8256922
_publ_section_title
;
Structure prediction by ZEFSAII (Michael W. Deem and Ramdas Pophale) SiO2 
 PCOD8256922
Probable space group: C M C M
;
_chemical_formula_sum "Si O2"
_cell_formula_units_Z 96
_cell_length_a 9.319459
_cell_length_b 23.267144
_cell_length_c 25.762105
_cell_angle_alpha 90.000000
_cell_angle_beta 90.000000
_cell_angle_gamma 90.000000
_cell_volume 5586.182574
_symmetry_space_group_name_H-M "C M C M"
_symmetry_group_IT_number 63
_symmetry_cell_setting 'orthorhombic'
loop_
_space_group_symop_operation_xyz
x,y,z
-x,-y,1/2+z
x,-y,-z
-x,y,1/2-z
-x,-y,-z
x,y,1/2-z
-x,y,z
x,-y,1/2+z
1/2+x,1/2+y,z
1/2-x,1/2-y,1/2+z
1/2+x,1/2-y,-z
1/2-x,1/2+y,1/2-z
1/2-x,1/2-y,-z
1/2+x,1/2+y,1/2-z
1/2-x,1/2+y,z
1/2+x,1/2-y,1/2+z
loop_
_atom_site_type_symbol
_atom_site_label
_atom_site_fract_x
_atom_site_fract_y
_atom_site_fract_z
Si Si1 0.831382 0.240318 0.375818
Si Si2 0.664935 0.529159 0.445145
Si Si3 0.665488 0.143813 0.424502
Si Si4 0.163826 0.913696 0.396850
Si Si5 0.332500 0.328603 0.190637
Si Si6 0.660920 0.831112 0.039091
O O1 0.754973 0.178342 0.380920
O O2 0.761242 0.274431 0.327882
O O3 0.797841 0.274183 0.429101
O O4 0.000000 0.231691 0.365493
O O5 0.704328 0.500000 0.500000
O O6 0.500000 0.550830 0.445861
O O7 0.770652 0.580648 0.431765
O O8 0.689412 0.482123 0.399202
O O9 0.500000 0.138469 0.407046
O O10 0.679246 0.179601 0.478006
O O11 0.211597 0.885791 0.341905
O O12 0.243251 0.884908 0.445096
O O13 0.000000 0.898978 0.407407
O O14 0.294777 0.342073 0.250000
O O15 0.500000 0.313473 0.183365
O O16 0.500000 0.849168 0.053237
#
# Coordination Sequence:
#
# PCOD8256922 Si02
#       6
#    16  16  16  16  16  16
#     4  10  20  33  49  71  99 129 164 205 249 297
#     4  10  19  31  47  69  99 137 174 206 243 291
#     4  11  21  31  46  69 100 137 172 203 244 294
#     4   9  17  30  49  72  98 129 165 203 246 296
#     4   9  18  34  56  78  98 122 156 203 256 304
#     4   9  18  30  45  68  98 131 165 203 243 289
#
# _framework density 17.185261000000001
#
# number of rings (size 3 to 8) (size 9 to 14) (size 15 to 20)
#    0.000    2.333    1.667    1.500    0.000    2.667 
#    0.000    0.000    0.000    1.000    0.000    2.333 
#    0.000    0.000    0.000    0.000    0.000    0.000 
#
# Total GULP energy -595078.171769 kJ/mol
# GULP energy per Si atom -12397.461912 kJ/mol
# Density = 1.714615 g / cm^3
# Si number density = 17.185261 Si / 1000 Ang^3
#
#
#
# Elastic Constant Matrix: (Units=GPa)
#
#
# Indices 1 2 3 4 5 6 
#
# 1 80.0924 47.7462 34.6039 0.0000 0.0000 0.0000
# 2 47.7462 86.4213 36.5517 0.0000 0.0000 0.0000
# 3 34.6039 36.5517 71.7576 0.0000 0.0000 0.0000
# 4 0.0000 0.0000 0.0000 17.5077 0.0000 0.0000
# 5 0.0000 0.0000 0.0000 0.0000 20.7272 0.0000
# 6 0.0000 0.0000 0.0000 0.0000 0.0000 30.7528
#
#
#
# Elastic Compliance Matrix: (Units=1/GPa)
#
#
# Indices 1 2 3 4 5 6 
#
# 1 0.019990 -0.008880 -0.005116 0.000000 0.000000 0.000000
# 2 -0.008880 0.018693 -0.005240 0.000000 0.000000 0.000000
# 3 -0.005116 -0.005240 0.019072 0.000000 0.000000 0.000000
# 4 0.000000 0.000000 0.000000 0.057118 0.000000 0.000000
# 5 0.000000 0.000000 0.000000 0.000000 0.048246 0.000000
# 6 0.000000 0.000000 0.000000 0.000000 0.000000 0.032517
#
#
# Mechanical properties :
#
#
# Convention : Reuss Voigt Hill
#
# Bulk Modulus (GPa) = 51.85944 52.89721 52.37832
# Shear Modulus (GPa) = 20.78686 21.75551 21.27119
#
# Velocity S-wave (km/s) = 3.48167 3.56187 3.52199
# Velocity P-wave (km/s) = 6.81211 6.91109 6.86178
#
# Compressibility (1/GPa) = 0.01928289
#
# Stress axis : x y z
#
# Youngs Moduli (GPa) = 50.02521 53.49474 52.43249
#
# Poissons Ratio (x) = 0.47504 0.26827
# Poissons Ratio (y) = 0.44423 0.27473
# Poissons Ratio (z) = 0.25595 0.28030
#
# Static dielectric constant tensor:
#      x y z
#    x 3.249350 0.000000 0.000000 
#    y 0.000000 3.127880 0.000000 
#    z 0.000000 0.000000 3.056600 
# 
# 
# High freq. dielectric constant tensor:
#      x y z
#    x 1.670870 0.000000 0.000000 
#    y 0.000000 1.656540 0.000000 
#    z 0.000000 0.000000 1.629800 
# 
# From -- ./inp_files/59953.got.cif
#   From: 2010.03.12/outbox.cif.g09.slc.cpg/sg63_30_cif.got.tgz:59953.got - 2010.04.10 19:34:48.
