data_PCOD8256238
_publ_section_title
;
Structure prediction by ZEFSAII (Michael W. Deem and Ramdas Pophale) SiO2 
 PCOD8256238
Probable space group: C M C M
;
_chemical_formula_sum "Si O2"
_cell_formula_units_Z 64
_cell_length_a 8.791629
_cell_length_b 38.219781
_cell_length_c 10.281292
_cell_angle_alpha 90.000000
_cell_angle_beta 90.000000
_cell_angle_gamma 90.000000
_cell_volume 3454.659438
_symmetry_space_group_name_H-M "C M C M"
_symmetry_group_IT_number 63
_symmetry_cell_setting 'orthorhombic'
loop_
_space_group_symop_operation_xyz
x,y,z
-x,-y,1/2+z
x,-y,-z
-x,y,1/2-z
-x,-y,-z
x,y,1/2-z
-x,y,z
x,-y,1/2+z
1/2+x,1/2+y,z
1/2-x,1/2-y,1/2+z
1/2+x,1/2-y,-z
1/2-x,1/2+y,1/2-z
1/2-x,1/2-y,-z
1/2+x,1/2+y,1/2-z
1/2-x,1/2+y,z
1/2+x,1/2-y,1/2+z
loop_
_atom_site_type_symbol
_atom_site_label
_atom_site_fract_x
_atom_site_fract_y
_atom_site_fract_z
Si Si1 0.679597 0.276787 0.601405
Si Si2 0.680598 0.418830 0.506092
Si Si3 0.323131 0.850254 0.899732
Si Si4 0.180699 0.036583 0.250000
Si Si5 0.680562 0.458217 0.250000
O O1 0.730705 0.267944 0.750000
O O2 0.500000 0.275511 0.588805
O O3 0.750000 0.250000 0.500000
O O4 0.736352 0.315073 0.561323
O O5 0.500000 0.413776 0.510309
O O6 0.758601 0.381090 0.511152
O O7 0.739288 0.442988 0.623615
O O8 0.737969 0.437482 0.375736
O O9 0.291247 0.859973 0.750000
O O10 0.500000 0.844647 0.927935
O O11 0.000000 0.034619 0.250000
O O12 0.249220 0.997409 0.250000
O O13 0.500000 0.460723 0.250000
#
# Coordination Sequence:
#
# PCOD8256238 Si02
#       5
#    16  16  16   8   8
#     4  10  21  38  61  88 116 145 182 224 270 324
#     4  10  18  31  52  77 104 136 178 222 269 322
#     4  10  20  35  56  79 106 142 184 225 266 315
#     4   9  16  28  51  77 102 135 176 221 269 325
#     4   9  18  30  47  77 110 135 168 223 279 321
#
# _framework density 18.525704999999999
#
# number of rings (size 3 to 8) (size 9 to 14) (size 15 to 20)
#    0.000    2.250    1.250    2.250    0.000    5.500 
#    2.250    0.625    0.000    4.500    0.000    0.000 
#    0.000    0.000    0.000    0.000    0.000    0.000 
#
# Total GULP energy -396865.559170 kJ/mol
# GULP energy per Si atom -12402.048724 kJ/mol
# Density = 1.848354 g / cm^3
# Si number density = 18.525705 Si / 1000 Ang^3
#
#
#
# Elastic Constant Matrix: (Units=GPa)
#
#
# Indices 1 2 3 4 5 6 
#
# 1 49.8248 43.3685 32.3072 0.0000 0.0000 0.0000
# 2 43.3685 172.3227 93.2795 0.0000 0.0000 0.0000
# 3 32.3072 93.2795 142.3072 0.0000 0.0000 0.0000
# 4 0.0000 0.0000 0.0000 35.3311 0.0000 0.0000
# 5 0.0000 0.0000 0.0000 0.0000 18.0448 0.0000
# 6 0.0000 0.0000 0.0000 0.0000 0.0000 26.8508
#
#
#
# Elastic Compliance Matrix: (Units=1/GPa)
#
#
# Indices 1 2 3 4 5 6 
#
# 1 0.026274 -0.005244 -0.002527 0.000000 0.000000 0.000000
# 2 -0.005244 0.010041 -0.005391 0.000000 0.000000 0.000000
# 3 -0.002527 -0.005391 0.011135 0.000000 0.000000 0.000000
# 4 0.000000 0.000000 0.000000 0.028304 0.000000 0.000000
# 5 0.000000 0.000000 0.000000 0.000000 0.055418 0.000000
# 6 0.000000 0.000000 0.000000 0.000000 0.000000 0.037243
#
#
# Mechanical properties :
#
#
# Convention : Reuss Voigt Hill
#
# Bulk Modulus (GPa) = 47.33936 78.04058 62.68997
# Shear Modulus (GPa) = 24.77936 29.07864 26.92900
#
# Velocity S-wave (km/s) = 3.66124 3.96616 3.81675
# Velocity P-wave (km/s) = 6.59407 7.94927 7.30317
#
# Compressibility (1/GPa) = 0.02112407
#
# Stress axis : x y z
#
# Youngs Moduli (GPa) = 38.06074 99.58956 89.80980
#
# Poissons Ratio (x) = 0.52228 0.22697
# Poissons Ratio (y) = 0.19960 0.48419
# Poissons Ratio (z) = 0.09619 0.53691
#
# Static dielectric constant tensor:
#      x y z
#    x 3.140040 0.000000 0.000000 
#    y 0.000000 4.079300 0.000000 
#    z 0.000000 0.000000 3.467230 
# 
# 
# High freq. dielectric constant tensor:
#      x y z
#    x 1.695230 0.000000 0.000000 
#    y 0.000000 1.731890 0.000000 
#    z 0.000000 0.000000 1.714100 
# 
# From -- ./inp_files/16276.got.cif
#   From: 2010.03.12/outbox.cif.g09.slc.cpg/sg63_9_cif.got.tgz:16276.got - 2010.04.10 19:34:48.
