data_PCOD8256790
_publ_section_title
;
Structure prediction by ZEFSAII (Michael W. Deem and Ramdas Pophale) SiO2 
 PCOD8256790
Probable space group: C M C M
;
_chemical_formula_sum "Si O2"
_cell_formula_units_Z 96
_cell_length_a 9.256711
_cell_length_b 25.156598
_cell_length_c 24.917404
_cell_angle_alpha 90.000000
_cell_angle_beta 90.000000
_cell_angle_gamma 90.000000
_cell_volume 5802.450023
_symmetry_space_group_name_H-M "C M C M"
_symmetry_group_IT_number 63
_symmetry_cell_setting 'orthorhombic'
loop_
_space_group_symop_operation_xyz
x,y,z
-x,-y,1/2+z
x,-y,-z
-x,y,1/2-z
-x,-y,-z
x,y,1/2-z
-x,y,z
x,-y,1/2+z
1/2+x,1/2+y,z
1/2-x,1/2-y,1/2+z
1/2+x,1/2-y,-z
1/2-x,1/2+y,1/2-z
1/2-x,1/2-y,-z
1/2+x,1/2+y,1/2-z
1/2-x,1/2+y,z
1/2+x,1/2-y,1/2+z
loop_
_atom_site_type_symbol
_atom_site_label
_atom_site_fract_x
_atom_site_fract_y
_atom_site_fract_z
Si Si1 0.667574 0.137852 0.187093
Si Si2 0.170534 0.552978 0.893328
Si Si3 0.658905 0.437102 0.005089
Si Si4 0.659830 0.743938 0.686257
Si Si5 0.329137 0.557705 0.112619
Si Si6 0.831431 0.356355 0.189094
O O1 0.694118 0.130200 0.250000
O O2 0.500000 0.126769 0.173084
O O3 0.711916 0.197410 0.168183
O O4 0.771627 0.097374 0.157247
O O5 0.225194 0.578629 0.949537
O O6 0.249773 0.498352 0.879818
O O7 0.213175 0.593199 0.846074
O O8 0.000000 0.543182 0.897234
O O9 0.500000 0.414792 0.020934
O O10 0.649729 0.500000 0.000000
O O11 0.705630 0.416551 0.945972
O O12 0.657391 0.743390 0.750000
O O13 0.500000 0.733080 0.663515
O O14 0.761914 0.697184 0.664385
O O15 0.500000 0.548471 0.119477
O O16 0.778544 0.367152 0.250000
O O17 0.000000 0.346340 0.187104
#
# Coordination Sequence:
#
# PCOD8256790 Si02
#       6
#    16  16  16  16  16  16
#     4   9  18  32  49  70  96 123 151 187 230 273
#     4  10  19  30  47  70  94 123 157 190 228 275
#     4   8  16  31  47  64  89 119 153 194 233 268
#     4   8  15  29  48  68  89 117 154 189 222 266
#     4  10  20  32  47  69  95 123 155 190 230 275
#     4   9  18  31  46  67  95 123 150 184 227 271
#
# _framework density 16.544734999999999
#
# number of rings (size 3 to 8) (size 9 to 14) (size 15 to 20)
#    0.000    3.000    0.000    3.000    0.000    6.667 
#    0.000    3.333    0.000    1.000    0.000    0.000 
#    0.000    0.000    0.000    0.000    0.000    0.000 
#
# Total GULP energy -594912.018342 kJ/mol
# GULP energy per Si atom -12394.000382 kJ/mol
# Density = 1.650708 g / cm^3
# Si number density = 16.544735 Si / 1000 Ang^3
#
#
#
# Elastic Constant Matrix: (Units=GPa)
#
#
# Indices 1 2 3 4 5 6 
#
# 1 81.7637 61.7555 51.6706 0.0000 0.0000 0.0000
# 2 61.7555 101.2776 54.2242 0.0000 0.0000 0.0000
# 3 51.6706 54.2242 79.6973 0.0000 0.0000 0.0000
# 4 0.0000 0.0000 0.0000 0.2239 0.0000 0.0000
# 5 0.0000 0.0000 0.0000 0.0000 27.0695 0.0000
# 6 0.0000 0.0000 0.0000 0.0000 0.0000 29.5003
#
#
#
# Elastic Compliance Matrix: (Units=1/GPa)
#
#
# Indices 1 2 3 4 5 6 
#
# 1 0.026828 -0.011084 -0.009852 0.000000 0.000000 0.000000
# 2 -0.011084 0.020111 -0.006497 0.000000 0.000000 0.000000
# 3 -0.009852 -0.006497 0.023356 0.000000 0.000000 0.000000
# 4 0.000000 0.000000 0.000000 4.466016 0.000000 0.000000
# 5 0.000000 0.000000 0.000000 0.000000 0.036942 0.000000
# 6 0.000000 0.000000 0.000000 0.000000 0.000000 0.033898
#
#
# Mechanical properties :
#
#
# Convention : Reuss Voigt Hill
#
# Bulk Modulus (GPa) = 64.81674 66.44879 65.63277
# Shear Modulus (GPa) = 1.07132 17.69796 9.38464
#
# Velocity S-wave (km/s) = 0.80556 3.27418 2.38424
# Velocity P-wave (km/s) = 6.33458 7.38539 6.88008
#
# Compressibility (1/GPa) = 0.01542811
#
# Stress axis : x y z
#
# Youngs Moduli (GPa) = 37.27420 49.72439 42.81643
#
# Poissons Ratio (x) = 0.55114 0.42185
# Poissons Ratio (y) = 0.41314 0.27817
# Poissons Ratio (z) = 0.36724 0.32305
#
# Static dielectric constant tensor:
#      x y z
#    x 3.200610 0.000000 0.000000 
#    y 0.000000 3.062990 0.000000 
#    z 0.000000 0.000000 3.294090 
# 
# 
# High freq. dielectric constant tensor:
#      x y z
#    x 1.642160 0.000000 0.000000 
#    y 0.000000 1.620240 0.000000 
#    z 0.000000 0.000000 1.621890 
# 
# From -- ./inp_files/59925.got.cif
#   From: 2010.03.12/outbox.cif.g09.slc.cpg/sg63_30_cif.got.tgz:59925.got - 2010.04.10 19:34:48.
