data_PCOD8256893
_publ_section_title
;
Structure prediction by ZEFSAII (Michael W. Deem and Ramdas Pophale) SiO2 
 PCOD8256893
Probable space group: C M C M
;
_chemical_formula_sum "Si O2"
_cell_formula_units_Z 96
_cell_length_a 13.311291
_cell_length_b 20.132154
_cell_length_c 21.484857
_cell_angle_alpha 90.000000
_cell_angle_beta 90.000000
_cell_angle_gamma 90.000000
_cell_volume 5757.618551
_symmetry_space_group_name_H-M "C M C M"
_symmetry_group_IT_number 63
_symmetry_cell_setting 'orthorhombic'
loop_
_space_group_symop_operation_xyz
x,y,z
-x,-y,1/2+z
x,-y,-z
-x,y,1/2-z
-x,-y,-z
x,y,1/2-z
-x,y,z
x,-y,1/2+z
1/2+x,1/2+y,z
1/2-x,1/2-y,1/2+z
1/2+x,1/2-y,-z
1/2-x,1/2+y,1/2-z
1/2-x,1/2-y,-z
1/2+x,1/2+y,1/2-z
1/2-x,1/2+y,z
1/2+x,1/2-y,1/2+z
loop_
_atom_site_type_symbol
_atom_site_label
_atom_site_fract_x
_atom_site_fract_y
_atom_site_fract_z
Si Si1 0.240743 0.537278 0.937752
Si Si2 0.888344 0.203746 0.500612
Si Si3 0.886616 0.866944 0.126372
Si Si4 0.619570 0.853793 0.750000
Si Si5 0.680036 0.847426 0.985171
Si Si6 0.879943 0.203442 0.750000
Si Si7 0.114622 0.573942 0.372789
O O1 0.330410 0.566794 0.896431
O O2 0.179291 0.489190 0.892832
O O3 0.282058 0.500000 0.000000
O O4 0.168382 0.596808 0.961247
O O5 0.881523 0.190729 0.574512
O O6 0.799453 0.161431 0.468064
O O7 0.868924 0.281047 0.487657
O O8 0.000000 0.184038 0.475407
O O9 0.839564 0.835767 0.189228
O O10 0.000000 0.889811 0.139030
O O11 0.500000 0.849505 0.750000
O O12 0.663391 0.778708 0.750000
O O13 0.658490 0.894565 0.690316
O O14 0.619917 0.868478 0.924272
O O15 0.000000 0.206415 0.750000
O O16 0.000000 0.550873 0.364273
#
# Coordination Sequence:
#
# PCOD8256893 Si02
#       7
#    16  16  16   8  16   8  16
#     4   9  19  31  43  65  92 119 152 181 212 266
#     4   9  16  27  44  66  93 120 147 186 230 267
#     4   9  17  29  45  66  92 118 146 185 226 261
#     4   9  18  31  48  68  87 112 146 184 229 271
#     4   9  17  28  44  67  91 117 152 185 222 268
#     4   9  16  27  46  70  89 108 142 184 225 265
#     4  10  19  31  46  64  89 118 148 184 222 263
#
# _framework density 16.673559999999998
#
# number of rings (size 3 to 8) (size 9 to 14) (size 15 to 20)
#    0.000    2.833    0.000    1.500    0.000    7.333 
#    0.000    2.500    0.000    0.000    0.000    1.750 
#    0.000    1.333    0.000    0.000    0.000    0.000 
#
# Total GULP energy -594962.452643 kJ/mol
# GULP energy per Si atom -12395.051097 kJ/mol
# Density = 1.663561 g / cm^3
# Si number density = 16.673560 Si / 1000 Ang^3
#
#
#
# Elastic Constant Matrix: (Units=GPa)
#
#
# Indices 1 2 3 4 5 6 
#
# 1 61.2975 30.0337 24.9024 0.0000 0.0000 0.0000
# 2 30.0337 111.9775 49.6138 0.0000 0.0000 0.0000
# 3 24.9024 49.6138 91.8052 0.0000 0.0000 0.0000
# 4 0.0000 0.0000 0.0000 23.6722 0.0000 0.0000
# 5 0.0000 0.0000 0.0000 0.0000 18.1528 0.0000
# 6 0.0000 0.0000 0.0000 0.0000 0.0000 20.7484
#
#
#
# Elastic Compliance Matrix: (Units=1/GPa)
#
#
# Indices 1 2 3 4 5 6 
#
# 1 0.019487 -0.003793 -0.003236 0.000000 0.000000 0.000000
# 2 -0.003793 0.012480 -0.005716 0.000000 0.000000 0.000000
# 3 -0.003236 -0.005716 0.014859 0.000000 0.000000 0.000000
# 4 0.000000 0.000000 0.000000 0.042244 0.000000 0.000000
# 5 0.000000 0.000000 0.000000 0.000000 0.055088 0.000000
# 6 0.000000 0.000000 0.000000 0.000000 0.000000 0.048196
#
#
# Mechanical properties :
#
#
# Convention : Reuss Voigt Hill
#
# Bulk Modulus (GPa) = 46.86690 52.68665 49.77678
# Shear Modulus (GPa) = 22.22654 23.21670 22.72162
#
# Velocity S-wave (km/s) = 3.65504 3.73557 3.69553
# Velocity P-wave (km/s) = 6.78100 7.09038 6.93742
#
# Compressibility (1/GPa) = 0.02133702
#
# Stress axis : x y z
#
# Youngs Moduli (GPa) = 51.31645 80.12751 67.29755
#
# Poissons Ratio (x) = 0.30391 0.21779
# Poissons Ratio (y) = 0.19463 0.38466
# Poissons Ratio (z) = 0.16607 0.45799
#
# Static dielectric constant tensor:
#      x y z
#    x 3.010220 0.000000 0.000000 
#    y 0.000000 3.185380 0.000000 
#    z 0.000000 0.000000 3.107250 
# 
# 
# High freq. dielectric constant tensor:
#      x y z
#    x 1.617370 0.000000 0.000000 
#    y 0.000000 1.650390 0.000000 
#    z 0.000000 0.000000 1.624980 
# 
# From -- ./inp_files/61712.got.cif
#   From: 2010.03.12/outbox.cif.g09.slc.cpg/sg63_31_cif.got.tgz:61712.got - 2010.04.10 19:34:48.
