data_PCOD8256307
_publ_section_title
;
Structure prediction by ZEFSAII (Michael W. Deem and Ramdas Pophale) SiO2 
 PCOD8256307
Probable space group: C M C M
;
_chemical_formula_sum "Si O2"
_cell_formula_units_Z 64
_cell_length_a 18.503641
_cell_length_b 20.159337
_cell_length_c 10.122244
_cell_angle_alpha 90.000000
_cell_angle_beta 90.000000
_cell_angle_gamma 90.000000
_cell_volume 3775.810942
_symmetry_space_group_name_H-M "C M C M"
_symmetry_group_IT_number 63
_symmetry_cell_setting 'orthorhombic'
loop_
_space_group_symop_operation_xyz
x,y,z
-x,-y,1/2+z
x,-y,-z
-x,y,1/2-z
-x,-y,-z
x,y,1/2-z
-x,y,z
x,-y,1/2+z
1/2+x,1/2+y,z
1/2-x,1/2-y,1/2+z
1/2+x,1/2-y,-z
1/2-x,1/2+y,1/2-z
1/2-x,1/2-y,-z
1/2+x,1/2+y,1/2-z
1/2-x,1/2+y,z
1/2+x,1/2-y,1/2+z
loop_
_atom_site_type_symbol
_atom_site_label
_atom_site_fract_x
_atom_site_fract_y
_atom_site_fract_z
Si Si1 0.920487 0.364070 0.495474
Si Si2 0.282157 0.507281 0.250000
Si Si3 0.000000 0.247920 0.593487
Si Si4 0.656765 0.914375 0.250000
Si Si5 0.619799 0.500000 0.000000
Si Si6 0.866591 0.560097 0.250000
Si Si7 0.000000 0.903244 0.407433
O O1 0.928446 0.286471 0.538776
O O2 0.862228 0.371143 0.379011
O O3 0.896871 0.406655 0.620013
O O4 0.000000 0.389547 0.448989
O O5 0.242239 0.434492 0.250000
O O6 0.330517 0.518034 0.377470
O O7 0.220929 0.564509 0.250000
O O8 0.000000 0.251011 0.750000
O O9 0.000000 0.172600 0.544216
O O10 0.610028 0.982453 0.250000
O O11 0.571223 0.436441 0.032920
O O12 0.000000 0.910922 0.250000
#
# Coordination Sequence:
#
# PCOD8256307 Si02
#       7
#    16   8   8   8   8   8   8
#     4  10  18  32  50  79 111 152 194 229 262 313
#     4  10  22  35  53  82 122 146 172 230 278 332
#     4   9  19  36  55  82 112 150 177 241 280 319
#     4  10  21  30  49  79 119 151 187 226 270 313
#     4  11  20  40  62  90 103 136 176 236 291 338
#     4  10  19  32  49  79 109 159 193 218 264 327
#     4  10  21  38  68  89 104 131 181 239 297 343
#
# _framework density 16.950001
#
# number of rings (size 3 to 8) (size 9 to 14) (size 15 to 20)
#    1.500    0.500    2.500    3.000    0.000    3.000 
#    0.000    2.500    0.000    9.000    0.000    0.000 
#    0.000    0.000    0.000    0.000    0.000    0.000 
#
# Total GULP energy -396522.026989 kJ/mol
# GULP energy per Si atom -12391.313343 kJ/mol
# Density = 1.691142 g / cm^3
# Si number density = 16.950001 Si / 1000 Ang^3
#
#
#
# Elastic Constant Matrix: (Units=GPa)
#
#
# Indices 1 2 3 4 5 6 
#
# 1 85.2803 30.4724 30.0577 0.0000 0.0000 0.0000
# 2 30.4724 118.0589 34.1184 0.0000 0.0000 0.0000
# 3 30.0577 34.1184 108.0235 0.0000 0.0000 0.0000
# 4 0.0000 0.0000 0.0000 23.3153 0.0000 0.0000
# 5 0.0000 0.0000 0.0000 0.0000 59.0487 0.0000
# 6 0.0000 0.0000 0.0000 0.0000 0.0000 -94.8913
#
#
#
# Elastic Compliance Matrix: (Units=1/GPa)
#
#
# Indices 1 2 3 4 5 6 
#
# 1 0.013734 -0.002686 -0.002973 0.000000 0.000000 0.000000
# 2 -0.002686 0.009846 -0.002363 0.000000 0.000000 0.000000
# 3 -0.002973 -0.002363 0.010831 0.000000 0.000000 0.000000
# 4 0.000000 0.000000 0.000000 0.042890 0.000000 0.000000
# 5 0.000000 0.000000 0.000000 0.000000 0.016935 0.000000
# 6 0.000000 0.000000 0.000000 0.000000 0.000000 -0.010538
#
#
# Mechanical properties :
#
#
# Convention : Reuss Voigt Hill
#
# Bulk Modulus (GPa) = 54.44278 55.62887 55.03583
# Shear Modulus (GPa) = 47.23087 11.94216 29.58652
#
# Velocity S-wave (km/s) = 5.28444 2.65722 4.18247
# Velocity P-wave (km/s) = 8.33205 6.50423 7.47423
#
# Compressibility (1/GPa) = 0.01836791
#
# Stress axis : x y z
#
# Youngs Moduli (GPa) = 72.81435 101.56093 92.32975
#
# Poissons Ratio (x) = 0.27275 0.27451
# Poissons Ratio (y) = 0.19555 0.21814
# Poissons Ratio (z) = 0.21649 0.23995
#
# Static dielectric constant tensor:
#      x y z
#    x 3.151180 0.000000 0.000000 
#    y 0.000000 3.041490 0.000000 
#    z 0.000000 0.000000 3.867900 
# 
# 
# High freq. dielectric constant tensor:
#      x y z
#    x 1.644160 0.000000 0.000000 
#    y 0.000000 1.629760 0.000000 
#    z 0.000000 0.000000 1.666530 
# 
# From -- ./inp_files/7989.got.cif
#   From: 2010.03.12/outbox.cif.g09.slc.cpg/sg63_4_cif.got.tgz:7989.got - 2010.04.10 19:34:48.
