data_PCOD8256491
_publ_section_title
;
Structure prediction by ZEFSAII (Michael W. Deem and Ramdas Pophale) SiO2 
 PCOD8256491
Probable space group: C M C M
;
_chemical_formula_sum "Si O2"
_cell_formula_units_Z 72
_cell_length_a 14.628721
_cell_length_b 26.752277
_cell_length_c 9.858317
_cell_angle_alpha 90.000000
_cell_angle_beta 90.000000
_cell_angle_gamma 90.000000
_cell_volume 3858.068095
_symmetry_space_group_name_H-M "C M C M"
_symmetry_group_IT_number 63
_symmetry_cell_setting 'orthorhombic'
loop_
_space_group_symop_operation_xyz
x,y,z
-x,-y,1/2+z
x,-y,-z
-x,y,1/2-z
-x,-y,-z
x,y,1/2-z
-x,y,z
x,-y,1/2+z
1/2+x,1/2+y,z
1/2-x,1/2-y,1/2+z
1/2+x,1/2-y,-z
1/2-x,1/2+y,1/2-z
1/2-x,1/2-y,-z
1/2+x,1/2+y,1/2-z
1/2-x,1/2+y,z
1/2+x,1/2-y,1/2+z
loop_
_atom_site_type_symbol
_atom_site_label
_atom_site_fract_x
_atom_site_fract_y
_atom_site_fract_z
Si Si1 0.712659 0.100988 0.750000
Si Si2 0.602867 0.121583 0.250000
Si Si3 0.397802 0.323599 0.479661
Si Si4 0.395971 0.055657 0.511862
Si Si5 0.714441 0.713001 0.750000
Si Si6 0.404476 0.594924 0.750000
Si Si7 0.712136 0.318020 0.750000
O O1 0.657139 0.088786 0.617969
O O2 0.733100 0.160060 0.750000
O O3 0.806930 0.067083 0.750000
O O4 0.500000 0.146094 0.250000
O O5 0.614597 0.084450 0.126520
O O6 0.682605 0.163021 0.250000
O O7 0.500000 0.304797 0.518265
O O8 0.346793 0.281934 0.387140
O O9 0.404951 0.372586 0.387042
O O10 0.341568 0.336372 0.616281
O O11 0.500000 0.051040 0.561540
O O12 0.353834 0.000000 0.500000
O O13 0.787188 0.757726 0.750000
O O14 0.500000 0.562647 0.750000
#
# Coordination Sequence:
#
# PCOD8256491 Si02
#       7
#     8   8  16  16   8   8   8
#     4  10  18  34  55  75  99 135 178 214 256 313
#     4  10  21  34  50  77 111 143 172 215 271 315
#     4   9  18  33  51  70  96 133 177 213 247 296
#     4  10  20  35  55  79 106 137 176 219 265 318
#     4  10  21  35  50  73 107 144 174 210 260 317
#     4   8  16  32  53  74  97 131 171 209 249 301
#     4  12  21  33  51  79 110 135 172 222 263 308
#
# _framework density 18.662191
#
# number of rings (size 3 to 8) (size 9 to 14) (size 15 to 20)
#    0.000    2.444    0.000    5.667    0.000    2.667 
#    0.000    4.444    0.000    0.667    0.000    6.222 
#    0.000    0.000    0.000    0.000    0.000    0.000 
#
# Total GULP energy -446008.377554 kJ/mol
# GULP energy per Si atom -12389.121599 kJ/mol
# Density = 1.861971 g / cm^3
# Si number density = 18.662191 Si / 1000 Ang^3
#
#
#
# Elastic Constant Matrix: (Units=GPa)
#
#
# Indices 1 2 3 4 5 6 
#
# 1 123.3778 42.7919 70.0172 0.0000 0.0000 0.0000
# 2 42.7919 68.9310 24.7549 0.0000 0.0000 0.0000
# 3 70.0172 24.7549 142.4360 0.0000 0.0000 0.0000
# 4 0.0000 0.0000 0.0000 -2.9480 0.0000 0.0000
# 5 0.0000 0.0000 0.0000 0.0000 30.7650 0.0000
# 6 0.0000 0.0000 0.0000 0.0000 0.0000 18.1509
#
#
#
# Elastic Compliance Matrix: (Units=1/GPa)
#
#
# Indices 1 2 3 4 5 6 
#
# 1 0.013432 -0.006364 -0.005497 0.000000 0.000000 0.000000
# 2 -0.006364 0.018489 -0.000085 0.000000 0.000000 0.000000
# 3 -0.005497 -0.000085 0.009737 0.000000 0.000000 0.000000
# 4 0.000000 0.000000 0.000000 -0.339209 0.000000 0.000000
# 5 0.000000 0.000000 0.000000 0.000000 0.032504 0.000000
# 6 0.000000 0.000000 0.000000 0.000000 0.000000 0.055094
#
#
# Mechanical properties :
#
#
# Convention : Reuss Voigt Hill
#
# Bulk Modulus (GPa) = 56.28582 67.76365 62.02474
# Shear Modulus (GPa) = -27.75627 22.33896 -2.70865
#
# Velocity S-wave (km/s) = -3.86074 3.46355 -1.20605
# Velocity P-wave (km/s) = 3.21747 7.23770 5.60074
#
# Compressibility (1/GPa) = 0.01776646
#
# Stress axis : x y z
#
# Youngs Moduli (GPa) = 74.44927 54.08705 102.69699
#
# Poissons Ratio (x) = 0.34424 0.56449
# Poissons Ratio (y) = 0.47383 0.00870
# Poissons Ratio (z) = 0.40922 0.00458
#
# Static dielectric constant tensor:
#      x y z
#    x 4.016660 0.000000 0.000000 
#    y 0.000000 2.997540 0.000000 
#    z 0.000000 0.000000 3.610710 
# 
# 
# High freq. dielectric constant tensor:
#      x y z
#    x 1.740440 0.000000 0.000000 
#    y 0.000000 1.675350 0.000000 
#    z 0.000000 0.000000 1.741310 
# 
# From -- ./inp_files/4782.got.cif
#   From: 2010.03.12/outbox.cif.g09.slc.cpg/sg63_3_cif.got.tgz:4782.got - 2010.04.10 19:34:48.
