data_PCOD8256292
_publ_section_title
;
Structure prediction by ZEFSAII (Michael W. Deem and Ramdas Pophale) SiO2 
 PCOD8256292
Probable space group: C M C M
;
_chemical_formula_sum "Si O2"
_cell_formula_units_Z 72
_cell_length_a 14.363216
_cell_length_b 29.693053
_cell_length_c 8.668696
_cell_angle_alpha 90.000000
_cell_angle_beta 90.000000
_cell_angle_gamma 90.000000
_cell_volume 3697.092513
_symmetry_space_group_name_H-M "C M C M"
_symmetry_group_IT_number 63
_symmetry_cell_setting 'orthorhombic'
loop_
_space_group_symop_operation_xyz
x,y,z
-x,-y,1/2+z
x,-y,-z
-x,y,1/2-z
-x,-y,-z
x,y,1/2-z
-x,y,z
x,-y,1/2+z
1/2+x,1/2+y,z
1/2-x,1/2-y,1/2+z
1/2+x,1/2-y,-z
1/2-x,1/2+y,1/2-z
1/2-x,1/2-y,-z
1/2+x,1/2+y,1/2-z
1/2-x,1/2+y,z
1/2+x,1/2-y,1/2+z
loop_
_atom_site_type_symbol
_atom_site_label
_atom_site_fract_x
_atom_site_fract_y
_atom_site_fract_z
Si Si1 0.500000 0.159579 0.066966
Si Si2 0.191537 0.368200 0.428468
Si Si3 0.000000 0.049873 0.067737
Si Si4 0.000000 0.763942 0.432349
Si Si5 0.308845 0.709550 0.068027
Si Si6 0.186206 0.048051 0.927355
O O1 0.500000 0.154846 0.250000
O O2 0.500000 0.211788 0.016273
O O3 0.411158 0.134701 0.997297
O O4 0.191390 0.353262 0.250000
O O5 0.261069 0.337001 0.523826
O O6 0.225521 0.419448 0.448410
O O7 0.000000 0.051143 0.250000
O O8 0.904308 0.072038 0.005874
O O9 0.000000 0.000000 0.000000
O O10 0.088219 0.789693 0.499789
O O11 0.000000 0.768217 0.250000
O O12 0.312666 0.714708 0.250000
O O13 0.250000 0.750000 0.000000
O O14 0.161487 0.039988 0.750000
O O15 0.212158 0.000000 0.000000
#
# Coordination Sequence:
#
# PCOD8256292 Si02
#       6
#     8  16   8   8  16  16
#     4  11  23  39  63  89 116 157 204 249 299 359
#     4  11  24  41  63  89 121 159 201 249 302 359
#     4  10  18  31  56  85 116 155 192 235 290 352
#     4  11  23  40  62  90 122 160 202 248 301 354
#     4  12  24  39  61  89 120 157 198 245 297 353
#     4  10  21  38  61  89 121 159 199 246 299 353
#
# _framework density 19.474762999999999
#
# number of rings (size 3 to 8) (size 9 to 14) (size 15 to 20)
#    0.000    1.111    2.222    6.333    0.000    5.333 
#    0.000    1.667    0.000    0.000    0.000    0.000 
#    0.000    0.000    0.000    0.000    0.000    0.000 
#
# Total GULP energy -446523.130441 kJ/mol
# GULP energy per Si atom -12403.420290 kJ/mol
# Density = 1.943044 g / cm^3
# Si number density = 19.474763 Si / 1000 Ang^3
#
#
#
# Elastic Constant Matrix: (Units=GPa)
#
#
# Indices 1 2 3 4 5 6 
#
# 1 173.7692 54.5375 63.9001 0.0000 0.0000 0.0000
# 2 54.5375 82.3832 44.6391 0.0000 0.0000 0.0000
# 3 63.9001 44.6391 148.0955 0.0000 0.0000 0.0000
# 4 0.0000 0.0000 0.0000 29.8084 0.0000 0.0000
# 5 0.0000 0.0000 0.0000 0.0000 37.1977 0.0000
# 6 0.0000 0.0000 0.0000 0.0000 0.0000 33.6806
#
#
#
# Elastic Compliance Matrix: (Units=1/GPa)
#
#
# Indices 1 2 3 4 5 6 
#
# 1 0.007804 -0.003994 -0.002163 0.000000 0.000000 0.000000
# 2 -0.003994 0.016552 -0.003266 0.000000 0.000000 0.000000
# 3 -0.002163 -0.003266 0.008670 0.000000 0.000000 0.000000
# 4 0.000000 0.000000 0.000000 0.033548 0.000000 0.000000
# 5 0.000000 0.000000 0.000000 0.000000 0.026883 0.000000
# 6 0.000000 0.000000 0.000000 0.000000 0.000000 0.029691
#
#
# Mechanical properties :
#
#
# Convention : Reuss Voigt Hill
#
# Bulk Modulus (GPa) = 70.52262 81.15569 75.83916
# Shear Modulus (GPa) = 34.07850 36.21545 35.14698
#
# Velocity S-wave (km/s) = 4.18770 4.31700 4.25284
# Velocity P-wave (km/s) = 7.72485 8.16158 7.94621
#
# Compressibility (1/GPa) = 0.01417985
#
# Stress axis : x y z
#
# Youngs Moduli (GPa) = 128.14346 60.41603 115.33742
#
# Poissons Ratio (x) = 0.24129 0.24951
# Poissons Ratio (y) = 0.51179 0.37667
# Poissons Ratio (z) = 0.27722 0.19731
#
# Static dielectric constant tensor:
#      x y z
#    x 3.921190 0.000000 0.000000 
#    y 0.000000 3.442610 0.000000 
#    z 0.000000 0.000000 3.859530 
# 
# 
# High freq. dielectric constant tensor:
#      x y z
#    x 1.770000 0.000000 0.000000 
#    y 0.000000 1.742020 0.000000 
#    z 0.000000 0.000000 1.780630 
# 
# From -- ./inp_files/4987.got.cif
#   From: 2010.03.12/outbox.cif.g09.slc.cpg/sg63_3_cif.got.tgz:4987.got - 2010.04.10 19:34:48.
