data_PCOD8256755
_publ_section_title
;
Structure prediction by ZEFSAII (Michael W. Deem and Ramdas Pophale) SiO2 
 PCOD8256755
Probable space group: C M C M
;
_chemical_formula_sum "Si O2"
_cell_formula_units_Z 112
_cell_length_a 12.602928
_cell_length_b 27.309507
_cell_length_c 20.729546
_cell_angle_alpha 90.000000
_cell_angle_beta 90.000000
_cell_angle_gamma 90.000000
_cell_volume 7134.689969
_symmetry_space_group_name_H-M "C M C M"
_symmetry_group_IT_number 63
_symmetry_cell_setting 'orthorhombic'
loop_
_space_group_symop_operation_xyz
x,y,z
-x,-y,1/2+z
x,-y,-z
-x,y,1/2-z
-x,-y,-z
x,y,1/2-z
-x,y,z
x,-y,1/2+z
1/2+x,1/2+y,z
1/2-x,1/2-y,1/2+z
1/2+x,1/2-y,-z
1/2-x,1/2+y,1/2-z
1/2-x,1/2-y,-z
1/2+x,1/2+y,1/2-z
1/2-x,1/2+y,z
1/2+x,1/2-y,1/2+z
loop_
_atom_site_type_symbol
_atom_site_label
_atom_site_fract_x
_atom_site_fract_y
_atom_site_fract_z
Si Si1 0.748604 0.178808 0.555675
Si Si2 0.874498 0.421516 0.462734
Si Si3 0.376073 0.277225 0.941750
Si Si4 0.749462 0.806424 0.676403
Si Si5 0.376356 0.020225 0.088621
Si Si6 0.882173 0.602634 0.174485
Si Si7 0.124220 0.790851 0.176898
O O1 0.690283 0.127259 0.551182
O O2 0.661892 0.221544 0.551183
O O3 0.827733 0.186909 0.495861
O O4 0.811100 0.178214 0.623958
O O5 0.831887 0.464672 0.414081
O O6 0.841444 0.442590 0.532273
O O7 0.000000 0.410083 0.456305
O O8 0.500000 0.278621 0.951431
O O9 0.348188 0.295452 0.869770
O O10 0.791068 0.811163 0.750000
O O11 0.697324 0.856107 0.649335
O O12 0.658266 0.765623 0.670966
O O13 0.500000 0.011522 0.080534
O O14 0.343045 0.048184 0.154173
O O15 0.888022 0.605316 0.250000
O O16 0.000000 0.611654 0.144811
O O17 0.148681 0.809872 0.250000
O O18 0.000000 0.794463 0.161550
#
# Coordination Sequence:
#
# PCOD8256755 Si02
#       7
#    16  16  16  16  16  16  16
#     4  10  19  30  46  66  87 114 146 176 213 258
#     4   9  16  28  45  63  87 115 141 172 210 257
#     4  10  20  31  43  64  92 116 142 179 214 248
#     4   9  17  28  44  66  90 119 148 169 205 259
#     4   8  15  26  41  63  87 112 140 170 212 261
#     4   9  15  24  41  66  93 114 136 173 216 255
#     4   9  17  30  46  64  88 115 145 181 213 246
#
# _framework density 15.697948999999999
#
# number of rings (size 3 to 8) (size 9 to 14) (size 15 to 20)
#    0.000    2.857    0.000    3.000    0.000    2.000 
#    0.000    5.000    0.000    2.143    0.000   19.000 
#    0.000    0.000    0.000    0.000    0.000    0.000 
#
# Total GULP energy -693876.093435 kJ/mol
# GULP energy per Si atom -12390.644526 kJ/mol
# Density = 1.566222 g / cm^3
# Si number density = 15.697949 Si / 1000 Ang^3
#
#
#
# Elastic Constant Matrix: (Units=GPa)
#
#
# Indices 1 2 3 4 5 6 
#
# 1 85.3261 48.7055 40.7366 0.0000 0.0000 0.0000
# 2 48.7055 110.0429 39.8629 0.0000 0.0000 0.0000
# 3 40.7366 39.8629 65.2469 0.0000 0.0000 0.0000
# 4 0.0000 0.0000 0.0000 25.0020 0.0000 0.0000
# 5 0.0000 0.0000 0.0000 0.0000 18.1047 0.0000
# 6 0.0000 0.0000 0.0000 0.0000 0.0000 23.1261
#
#
#
# Elastic Compliance Matrix: (Units=1/GPa)
#
#
# Indices 1 2 3 4 5 6 
#
# 1 0.018771 -0.005218 -0.008532 0.000000 0.000000 0.000000
# 2 -0.005218 0.013120 -0.004758 0.000000 0.000000 0.000000
# 3 -0.008532 -0.004758 0.023561 0.000000 0.000000 0.000000
# 4 0.000000 0.000000 0.000000 0.039997 0.000000 0.000000
# 5 0.000000 0.000000 0.000000 0.000000 0.055234 0.000000
# 6 0.000000 0.000000 0.000000 0.000000 0.000000 0.043241
#
#
# Mechanical properties :
#
#
# Convention : Reuss Voigt Hill
#
# Bulk Modulus (GPa) = 54.24125 57.69178 55.96651
# Shear Modulus (GPa) = 21.08936 22.00063 21.54500
#
# Velocity S-wave (km/s) = 3.66928 3.74772 3.70871
# Velocity P-wave (km/s) = 7.25118 7.45373 7.35315
#
# Compressibility (1/GPa) = 0.01843615
#
# Stress axis : x y z
#
# Youngs Moduli (GPa) = 53.27235 76.21707 42.44375
#
# Poissons Ratio (x) = 0.39767 0.36214
# Poissons Ratio (y) = 0.27795 0.20197
# Poissons Ratio (z) = 0.45453 0.36267
#
# Static dielectric constant tensor:
#      x y z
#    x 2.724760 0.000000 0.000000 
#    y 0.000000 3.047090 0.000000 
#    z 0.000000 0.000000 3.164220 
# 
# 
# High freq. dielectric constant tensor:
#      x y z
#    x 1.570340 0.000000 0.000000 
#    y 0.000000 1.596340 0.000000 
#    z 0.000000 0.000000 1.609030 
# 
# From -- ./inp_files/53334.got.cif
#   From: 2010.03.12/outbox.cif.g09.slc.cpg/sg63_27_cif.got.tgz:53334.got - 2010.04.10 19:34:48.
