data_PCOD8256542
_publ_section_title
;
Structure prediction by ZEFSAII (Michael W. Deem and Ramdas Pophale) SiO2 
 PCOD8256542
Probable space group: C M C M
;
_chemical_formula_sum "Si O2"
_cell_formula_units_Z 80
_cell_length_a 26.325970
_cell_length_b 10.420204
_cell_length_c 15.112182
_cell_angle_alpha 90.000000
_cell_angle_beta 90.000000
_cell_angle_gamma 90.000000
_cell_volume 4145.603657
_symmetry_space_group_name_H-M "C M C M"
_symmetry_group_IT_number 63
_symmetry_cell_setting 'orthorhombic'
loop_
_space_group_symop_operation_xyz
x,y,z
-x,-y,1/2+z
x,-y,-z
-x,y,1/2-z
-x,-y,-z
x,y,1/2-z
-x,y,z
x,-y,1/2+z
1/2+x,1/2+y,z
1/2-x,1/2-y,1/2+z
1/2+x,1/2-y,-z
1/2-x,1/2+y,1/2-z
1/2-x,1/2-y,-z
1/2+x,1/2+y,1/2-z
1/2-x,1/2+y,z
1/2+x,1/2-y,1/2+z
loop_
_atom_site_type_symbol
_atom_site_label
_atom_site_fract_x
_atom_site_fract_y
_atom_site_fract_z
Si Si1 0.348899 0.520117 0.394191
Si Si2 0.799609 0.732087 0.850832
Si Si3 0.314621 0.744405 0.651697
Si Si4 0.624321 0.856187 0.002279
Si Si5 0.055798 0.871149 0.556517
O O1 0.344912 0.500000 0.500000
O O2 0.304863 0.613915 0.360599
O O3 0.346817 0.386412 0.344186
O O4 0.402623 0.590771 0.369177
O O5 0.809037 0.687814 0.750000
O O6 0.741765 0.704837 0.880399
O O7 0.839090 0.657948 0.912987
O O8 0.313370 0.806191 0.750000
O O9 0.341207 0.842065 0.585102
O O10 0.578629 0.751781 0.002712
O O11 0.601250 0.000000 0.000000
O O12 0.000000 0.833274 0.594537
O O13 0.049493 0.000000 0.500000
#
# Coordination Sequence:
#
# PCOD8256542 Si02
#       5
#    16  16  16  16  16
#     4  10  18  35  58  84 109 146 190 240 281 329
#     4  10  22  35  54  79 114 157 196 232 278 340
#     4  11  22  35  53  81 116 157 193 230 281 340
#     4  11  23  37  57  84 117 151 188 239 289 337
#     4   9  17  36  64  85 107 143 191 235 287 339
#
# _framework density 19.297550999999999
#
# number of rings (size 3 to 8) (size 9 to 14) (size 15 to 20)
#    0.000    1.800    6.000    1.200    2.800    1.200 
#    0.000    0.000    0.000   16.800    0.000    5.600 
#    0.000    0.000    0.000    0.000    0.000    0.000 
#
# Total GULP energy -495583.999273 kJ/mol
# GULP energy per Si atom -12389.599982 kJ/mol
# Density = 1.925363 g / cm^3
# Si number density = 19.297551 Si / 1000 Ang^3
#
#
#
# Elastic Constant Matrix: (Units=GPa)
#
#
# Indices 1 2 3 4 5 6 
#
# 1 119.9890 38.1008 33.1065 0.0000 0.0000 0.0000
# 2 38.1008 117.7850 16.5249 0.0000 0.0000 0.0000
# 3 33.1065 16.5249 70.4991 0.0000 0.0000 0.0000
# 4 0.0000 0.0000 0.0000 6.6697 0.0000 0.0000
# 5 0.0000 0.0000 0.0000 0.0000 0.5810 0.0000
# 6 0.0000 0.0000 0.0000 0.0000 0.0000 13.5074
#
#
#
# Elastic Compliance Matrix: (Units=1/GPa)
#
#
# Indices 1 2 3 4 5 6 
#
# 1 0.010378 -0.002764 -0.004225 0.000000 0.000000 0.000000
# 2 -0.002764 0.009515 -0.000932 0.000000 0.000000 0.000000
# 3 -0.004225 -0.000932 0.016387 0.000000 0.000000 0.000000
# 4 0.000000 0.000000 0.000000 0.149931 0.000000 0.000000
# 5 0.000000 0.000000 0.000000 0.000000 1.721082 0.000000
# 6 0.000000 0.000000 0.000000 0.000000 0.000000 0.074033
#
#
# Mechanical properties :
#
#
# Convention : Reuss Voigt Hill
#
# Bulk Modulus (GPa) = 48.93246 53.74860 51.34053
# Shear Modulus (GPa) = 2.49503 18.85436 10.67470
#
# Velocity S-wave (km/s) = 1.13830 3.12915 2.35449
# Velocity P-wave (km/s) = 5.20956 6.40066 5.83558
#
# Compressibility (1/GPa) = 0.02043633
#
# Stress axis : x y z
#
# Youngs Moduli (GPa) = 96.36080 105.09756 61.02258
#
# Poissons Ratio (x) = 0.29050 0.25785
# Poissons Ratio (y) = 0.26635 0.05689
# Poissons Ratio (z) = 0.40717 0.09798
#
# Static dielectric constant tensor:
#      x y z
#    x 3.949420 0.000000 0.000000 
#    y 0.000000 3.568670 0.000000 
#    z 0.000000 0.000000 3.354570 
# 
# 
# High freq. dielectric constant tensor:
#      x y z
#    x 1.740740 0.000000 0.000000 
#    y 0.000000 1.750960 0.000000 
#    z 0.000000 0.000000 1.728200 
# 
# From -- ./inp_files/37707.got.cif
#   From: 2010.03.12/outbox.cif.g09.slc.cpg/sg63_19_cif.got.tgz:37707.got - 2010.04.10 19:34:48.
