data_PCOD8256512
_publ_section_title
;
Structure prediction by ZEFSAII (Michael W. Deem and Ramdas Pophale) SiO2 
 PCOD8256512
Probable space group: C M C M
;
_chemical_formula_sum "Si O2"
_cell_formula_units_Z 80
_cell_length_a 11.738173
_cell_length_b 20.014177
_cell_length_c 17.773494
_cell_angle_alpha 90.000000
_cell_angle_beta 90.000000
_cell_angle_gamma 90.000000
_cell_volume 4175.524672
_symmetry_space_group_name_H-M "C M C M"
_symmetry_group_IT_number 63
_symmetry_cell_setting 'orthorhombic'
loop_
_space_group_symop_operation_xyz
x,y,z
-x,-y,1/2+z
x,-y,-z
-x,y,1/2-z
-x,-y,-z
x,y,1/2-z
-x,y,z
x,-y,1/2+z
1/2+x,1/2+y,z
1/2-x,1/2-y,1/2+z
1/2+x,1/2-y,-z
1/2-x,1/2+y,1/2-z
1/2-x,1/2-y,-z
1/2+x,1/2+y,1/2-z
1/2-x,1/2+y,z
1/2+x,1/2-y,1/2+z
loop_
_atom_site_type_symbol
_atom_site_label
_atom_site_fract_x
_atom_site_fract_y
_atom_site_fract_z
Si Si1 0.752566 0.005235 0.410409
Si Si2 0.500000 0.486822 0.087657
Si Si3 0.779480 0.762794 0.336636
Si Si4 0.631083 0.862279 0.582867
Si Si5 0.500000 0.650206 0.664263
Si Si6 0.869511 0.628284 0.905606
O O1 0.674373 0.066806 0.384633
O O2 0.881878 0.016678 0.378733
O O3 0.753873 0.000000 0.500000
O O4 0.701597 0.936286 0.377395
O O5 0.500000 0.408060 0.103306
O O6 0.500000 0.500000 0.000000
O O7 0.765405 0.743641 0.250000
O O8 0.788420 0.694568 0.383097
O O9 0.670866 0.805251 0.363066
O O10 0.891122 0.805432 0.352461
O O11 0.500000 0.852683 0.607729
O O12 0.645428 0.859905 0.493839
O O13 0.500000 0.622639 0.750000
O O14 0.000000 0.614967 0.884581
#
# Coordination Sequence:
#
# PCOD8256512 Si02
#       6
#    16   8  16  16   8  16
#     4   9  18  33  56  84 113 140 179 230 282 326
#     4  10  18  34  58  86 112 142 184 238 278 335
#     4  11  22  38  58  80 112 149 191 236 274 333
#     4  10  20  36  57  84 114 147 186 233 280 339
#     4  10  20  36  60  82 107 146 192 237 277 332
#     4  10  20  36  58  85 112 147 185 231 284 336
#
# _framework density 19.159268999999998
#
# number of rings (size 3 to 8) (size 9 to 14) (size 15 to 20)
#    0.000    2.000    3.000    1.200    0.000    2.800 
#    1.800    2.000    0.000    2.400    0.000    0.000 
#    0.000    0.000    0.000    0.000    0.000    0.000 
#
# Total GULP energy -495967.084264 kJ/mol
# GULP energy per Si atom -12399.177107 kJ/mol
# Density = 1.911566 g / cm^3
# Si number density = 19.159269 Si / 1000 Ang^3
#
#
#
# Elastic Constant Matrix: (Units=GPa)
#
#
# Indices 1 2 3 4 5 6 
#
# 1 112.2307 39.2467 25.7197 0.0000 0.0000 0.0000
# 2 39.2467 120.5013 32.0377 0.0000 0.0000 0.0000
# 3 25.7197 32.0377 35.7969 0.0000 0.0000 0.0000
# 4 0.0000 0.0000 0.0000 14.3155 0.0000 0.0000
# 5 0.0000 0.0000 0.0000 0.0000 34.1837 0.0000
# 6 0.0000 0.0000 0.0000 0.0000 0.0000 26.3372
#
#
#
# Elastic Compliance Matrix: (Units=1/GPa)
#
#
# Indices 1 2 3 4 5 6 
#
# 1 0.011003 -0.001944 -0.006165 0.000000 0.000000 0.000000
# 2 -0.001944 0.011234 -0.008657 0.000000 0.000000 0.000000
# 3 -0.006165 -0.008657 0.040113 0.000000 0.000000 0.000000
# 4 0.000000 0.000000 0.000000 0.069854 0.000000 0.000000
# 5 0.000000 0.000000 0.000000 0.000000 0.029254 0.000000
# 6 0.000000 0.000000 0.000000 0.000000 0.000000 0.037969
#
#
# Mechanical properties :
#
#
# Convention : Reuss Voigt Hill
#
# Bulk Modulus (GPa) = 34.70262 51.39302 43.04782
# Shear Modulus (GPa) = 20.61301 26.40227 23.50764
#
# Velocity S-wave (km/s) = 3.28361 3.71623 3.50660
# Velocity P-wave (km/s) = 5.70335 6.73024 6.23796
#
# Compressibility (1/GPa) = 0.02881627
#
# Stress axis : x y z
#
# Youngs Moduli (GPa) = 90.88352 89.01909 24.92969
#
# Poissons Ratio (x) = 0.17310 0.15370
# Poissons Ratio (y) = 0.17672 0.21581
# Poissons Ratio (z) = 0.56033 0.77062
#
# Static dielectric constant tensor:
#      x y z
#    x 3.822460 0.000000 0.000000 
#    y 0.000000 3.522610 0.000000 
#    z 0.000000 0.000000 3.223040 
# 
# 
# High freq. dielectric constant tensor:
#      x y z
#    x 1.757930 0.000000 0.000000 
#    y 0.000000 1.746740 0.000000 
#    z 0.000000 0.000000 1.710360 
# 
# From -- ./inp_files/52465.got.cif
#   From: 2010.03.12/outbox.cif.g09.slc.cpg/sg63_27_cif.got.tgz:52465.got - 2010.04.10 19:34:48.
