data_PCOD8256010
_publ_section_title
;
Structure prediction by ZEFSAII (Michael W. Deem and Ramdas Pophale) SiO2 
 PCOD8256010
Probable space group: C M C M
;
_chemical_formula_sum "Si O2"
_cell_formula_units_Z 120
_cell_length_a 27.943879
_cell_length_b 27.265068
_cell_length_c 8.916249
_cell_angle_alpha 90.000000
_cell_angle_beta 90.000000
_cell_angle_gamma 90.000000
_cell_volume 6793.216653
_symmetry_space_group_name_H-M "C M C M"
_symmetry_group_IT_number 63
_symmetry_cell_setting 'orthorhombic'
loop_
_space_group_symop_operation_xyz
x,y,z
-x,-y,1/2+z
x,-y,-z
-x,y,1/2-z
-x,-y,-z
x,y,1/2-z
-x,y,z
x,-y,1/2+z
1/2+x,1/2+y,z
1/2-x,1/2-y,1/2+z
1/2+x,1/2-y,-z
1/2-x,1/2+y,1/2-z
1/2-x,1/2-y,-z
1/2+x,1/2+y,1/2-z
1/2-x,1/2+y,z
1/2+x,1/2-y,1/2+z
loop_
_atom_site_type_symbol
_atom_site_label
_atom_site_fract_x
_atom_site_fract_y
_atom_site_fract_z
Si Si1 0.203379 0.183675 0.576745
Si Si2 0.083839 0.899921 0.419458
Si Si3 0.055344 0.790093 0.078671
Si Si4 0.278705 0.049980 0.425246
Si Si5 0.500000 0.448883 0.921783
Si Si6 0.806410 0.646438 0.918250
Si Si7 0.639092 0.239281 0.575063
Si Si8 0.323718 0.587457 0.076040
O O1 0.188313 0.172378 0.750000
O O2 0.260770 0.182605 0.560600
O O3 0.179768 0.234368 0.524976
O O4 0.184223 0.144117 0.459512
O O5 0.071205 0.915845 0.250000
O O6 0.084552 0.841059 0.433453
O O7 0.132457 0.927574 0.468728
O O8 0.045334 0.917442 0.536035
O O9 0.055263 0.771984 0.250000
O O10 0.000000 0.794752 0.022284
O O11 0.085097 0.751494 0.978757
O O12 0.286349 0.045103 0.250000
O O13 0.307298 0.098448 0.476968
O O14 0.222779 0.055937 0.468333
O O15 0.298203 0.000000 0.500000
O O16 0.500000 0.460395 0.750000
O O17 0.500000 0.500000 0.000000
O O18 0.806789 0.625421 0.750000
O O19 0.852459 0.680852 0.949349
O O20 0.644941 0.253146 0.750000
O O21 0.337061 0.581069 0.250000
#
# Coordination Sequence:
#
# PCOD8256010 Si02
#       8
#    16  16  16  16   8  16  16  16
#     4  10  18  30  48  71 102 139 173 206 251 302
#     4  11  21  37  57  75  99 130 168 215 268 322
#     4  10  21  37  55  75 102 137 175 213 262 320
#     4  10  21  36  55  76 102 136 174 215 256 304
#     4  12  26  42  58  74  94 122 164 220 277 324
#     4   9  20  35  50  73 106 140 173 212 255 304
#     4  11  21  32  50  77 107 136 171 214 259 310
#     4  10  20  33  50  75 101 130 171 214 257 304
#
# _framework density 17.664680000000001
#
# number of rings (size 3 to 8) (size 9 to 14) (size 15 to 20)
#    0.000    1.733    2.000    3.000    0.000    4.533 
#    0.000    1.333    0.000    0.000    0.000    0.000 
#    0.000    0.533    0.000    1.733    0.000    2.533 
#
# Total GULP energy -743763.674299 kJ/mol
# GULP energy per Si atom -12396.061238 kJ/mol
# Density = 1.762447 g / cm^3
# Si number density = 17.664680 Si / 1000 Ang^3
#
#
#
# Elastic Constant Matrix: (Units=GPa)
#
#
# Indices 1 2 3 4 5 6 
#
# 1 40.7280 21.4595 24.6710 0.0000 0.0000 0.0000
# 2 21.4595 77.9340 40.7254 0.0000 0.0000 0.0000
# 3 24.6710 40.7254 92.4524 0.0000 0.0000 0.0000
# 4 0.0000 0.0000 0.0000 28.6088 0.0000 0.0000
# 5 0.0000 0.0000 0.0000 0.0000 26.1641 0.0000
# 6 0.0000 0.0000 0.0000 0.0000 0.0000 22.8403
#
#
#
# Elastic Compliance Matrix: (Units=1/GPa)
#
#
# Indices 1 2 3 4 5 6 
#
# 1 0.030984 -0.005470 -0.005859 0.000000 0.000000 0.000000
# 2 -0.005470 0.017634 -0.006308 0.000000 0.000000 0.000000
# 3 -0.005859 -0.006308 0.015158 0.000000 0.000000 0.000000
# 4 0.000000 0.000000 0.000000 0.034954 0.000000 0.000000
# 5 0.000000 0.000000 0.000000 0.000000 0.038220 0.000000
# 6 0.000000 0.000000 0.000000 0.000000 0.000000 0.043782
#
#
# Mechanical properties :
#
#
# Convention : Reuss Voigt Hill
#
# Bulk Modulus (GPa) = 35.08398 42.75846 38.92122
# Shear Modulus (GPa) = 22.17215 23.80653 22.98934
#
# Velocity S-wave (km/s) = 3.54668 3.67507 3.61145
# Velocity P-wave (km/s) = 6.05608 6.50126 6.28262
#
# Compressibility (1/GPa) = 0.02850304
#
# Stress axis : x y z
#
# Youngs Moduli (GPa) = 32.27453 56.70872 65.96982
#
# Poissons Ratio (x) = 0.31021 0.38649
# Poissons Ratio (y) = 0.17655 0.41614
# Poissons Ratio (z) = 0.18908 0.35772
#
# Static dielectric constant tensor:
#      x y z
#    x 3.266630 0.000000 0.000000 
#    y 0.000000 3.101930 0.000000 
#    z 0.000000 0.000000 3.042750 
# 
# 
# High freq. dielectric constant tensor:
#      x y z
#    x 1.655470 0.000000 0.000000 
#    y 0.000000 1.660820 0.000000 
#    z 0.000000 0.000000 1.695420 
# 
# From -- ./inp_files/13138.got.cif
#   From: 2010.03.12/outbox.cif.g09.slc.cpg/sg63_7_cif.got.tgz:13138.got - 2010.04.10 19:34:48.
