data_PCOD8256875
_publ_section_title
;
Structure prediction by ZEFSAII (Michael W. Deem and Ramdas Pophale) SiO2 
 PCOD8256875
Probable space group: C M C M
;
_chemical_formula_sum "Si O2"
_cell_formula_units_Z 80
_cell_length_a 15.792003
_cell_length_b 28.770807
_cell_length_c 9.280257
_cell_angle_alpha 90.000000
_cell_angle_beta 90.000000
_cell_angle_gamma 90.000000
_cell_volume 4216.472429
_symmetry_space_group_name_H-M "C M C M"
_symmetry_group_IT_number 63
_symmetry_cell_setting 'orthorhombic'
loop_
_space_group_symop_operation_xyz
x,y,z
-x,-y,1/2+z
x,-y,-z
-x,y,1/2-z
-x,-y,-z
x,y,1/2-z
-x,y,z
x,-y,1/2+z
1/2+x,1/2+y,z
1/2-x,1/2-y,1/2+z
1/2+x,1/2-y,-z
1/2-x,1/2+y,1/2-z
1/2-x,1/2-y,-z
1/2+x,1/2+y,1/2-z
1/2-x,1/2+y,z
1/2+x,1/2-y,1/2+z
loop_
_atom_site_type_symbol
_atom_site_label
_atom_site_fract_x
_atom_site_fract_y
_atom_site_fract_z
Si Si1 0.406062 0.384659 0.085035
Si Si2 0.841710 0.197948 0.416492
Si Si3 0.092049 0.396492 0.080895
Si Si4 0.829875 0.698632 0.915274
Si Si5 0.244888 0.951558 0.421486
O O1 0.387187 0.371873 0.250000
O O2 0.500000 0.406687 0.066825
O O3 0.335282 0.420596 0.029786
O O4 0.404941 0.336904 0.995789
O O5 0.838999 0.184328 0.250000
O O6 0.873569 0.251102 0.438657
O O7 0.748561 0.192109 0.479831
O O8 0.090651 0.404530 0.250000
O O9 0.104128 0.341905 0.046385
O O10 0.169094 0.427327 0.018963
O O11 0.000000 0.411349 0.015729
O O12 0.797871 0.693676 0.750000
O O13 0.246219 0.958714 0.250000
O O14 0.234798 0.000000 0.500000
#
# Coordination Sequence:
#
# PCOD8256875 Si02
#       5
#    16  16  16  16  16
#     4  10  21  38  58  78 106 146 184 218 267 330
#     4  10  19  30  52  83 113 144 181 225 266 307
#     4   9  17  32  56  81 105 139 180 216 256 316
#     4   9  17  32  53  78 111 150 185 215 257 316
#     4  10  21  38  58  79 104 136 177 223 274 328
#
# _framework density 18.973206000000001
#
# number of rings (size 3 to 8) (size 9 to 14) (size 15 to 20)
#    0.000    2.400    2.000    0.600    0.000    3.600 
#    0.000    2.000    0.000    1.800    0.000    0.000 
#    0.000    0.000    0.000    0.000    0.000    0.000 
#
# Total GULP energy -495832.325002 kJ/mol
# GULP energy per Si atom -12395.808125 kJ/mol
# Density = 1.893002 g / cm^3
# Si number density = 18.973206 Si / 1000 Ang^3
#
#
#
# Elastic Constant Matrix: (Units=GPa)
#
#
# Indices 1 2 3 4 5 6 
#
# 1 135.9406 65.5399 28.7951 0.0000 0.0000 0.0000
# 2 65.5399 126.1544 40.5816 0.0000 0.0000 0.0000
# 3 28.7951 40.5816 50.2997 0.0000 0.0000 0.0000
# 4 0.0000 0.0000 0.0000 32.1722 0.0000 0.0000
# 5 0.0000 0.0000 0.0000 0.0000 14.4448 0.0000
# 6 0.0000 0.0000 0.0000 0.0000 0.0000 15.1101
#
#
#
# Elastic Compliance Matrix: (Units=1/GPa)
#
#
# Indices 1 2 3 4 5 6 
#
# 1 0.009971 -0.004516 -0.002065 0.000000 0.000000 0.000000
# 2 -0.004516 0.012750 -0.007702 0.000000 0.000000 0.000000
# 3 -0.002065 -0.007702 0.027276 0.000000 0.000000 0.000000
# 4 0.000000 0.000000 0.000000 0.031083 0.000000 0.000000
# 5 0.000000 0.000000 0.000000 0.000000 0.069229 0.000000
# 6 0.000000 0.000000 0.000000 0.000000 0.000000 0.066181
#
#
# Mechanical properties :
#
#
# Convention : Reuss Voigt Hill
#
# Bulk Modulus (GPa) = 46.65657 64.69200 55.67428
# Shear Modulus (GPa) = 19.82564 24.17731 22.00147
#
# Velocity S-wave (km/s) = 3.23604 3.57359 3.40900
# Velocity P-wave (km/s) = 6.21343 7.15527 6.70092
#
# Compressibility (1/GPa) = 0.02143321
#
# Stress axis : x y z
#
# Youngs Moduli (GPa) = 100.29437 78.42883 36.66160
#
# Poissons Ratio (x) = 0.35417 0.07569
# Poissons Ratio (y) = 0.45291 0.28236
# Poissons Ratio (z) = 0.20706 0.60404
#
# Static dielectric constant tensor:
#      x y z
#    x 3.638900 0.000000 0.000000 
#    y 0.000000 3.540500 0.000000 
#    z 0.000000 0.000000 3.265460 
# 
# 
# High freq. dielectric constant tensor:
#      x y z
#    x 1.736180 0.000000 0.000000 
#    y 0.000000 1.736710 0.000000 
#    z 0.000000 0.000000 1.710520 
# 
# From -- ./inp_files/6437.got.cif
#   From: 2010.03.12/outbox.cif.g09.slc.cpg/sg63_4_cif.got.tgz:6437.got - 2010.04.10 19:34:48.
