data_PCOD8256202
_publ_section_title
;
Structure prediction by ZEFSAII (Michael W. Deem and Ramdas Pophale) SiO2 
 PCOD8256202
Probable space group: C M C M
;
_chemical_formula_sum "Si O2"
_cell_formula_units_Z 80
_cell_length_a 18.566781
_cell_length_b 16.615264
_cell_length_c 14.613750
_cell_angle_alpha 90.000000
_cell_angle_beta 90.000000
_cell_angle_gamma 90.000000
_cell_volume 4508.224497
_symmetry_space_group_name_H-M "C M C M"
_symmetry_group_IT_number 63
_symmetry_cell_setting 'orthorhombic'
loop_
_space_group_symop_operation_xyz
x,y,z
-x,-y,1/2+z
x,-y,-z
-x,y,1/2-z
-x,-y,-z
x,y,1/2-z
-x,y,z
x,-y,1/2+z
1/2+x,1/2+y,z
1/2-x,1/2-y,1/2+z
1/2+x,1/2-y,-z
1/2-x,1/2+y,1/2-z
1/2-x,1/2-y,-z
1/2+x,1/2+y,1/2-z
1/2-x,1/2+y,z
1/2+x,1/2-y,1/2+z
loop_
_atom_site_type_symbol
_atom_site_label
_atom_site_fract_x
_atom_site_fract_y
_atom_site_fract_z
Si Si1 0.156385 0.023974 0.645673
Si Si2 0.000000 0.194959 0.140161
Si Si3 0.865226 0.708887 0.647993
Si Si4 0.287797 0.914359 0.029477
Si Si5 0.732825 0.641467 0.349391
Si Si6 0.000000 0.985236 0.858286
O O1 0.165737 0.055719 0.750000
O O2 0.209951 0.074065 0.579721
O O3 0.172936 0.928582 0.640954
O O4 0.072970 0.033015 0.611837
O O5 0.068241 0.244410 0.102362
O O6 0.000000 0.104743 0.099113
O O7 0.000000 0.190708 0.250000
O O8 0.885141 0.680505 0.750000
O O9 0.845174 0.628407 0.593926
O O10 0.799059 0.769857 0.649318
O O11 0.284610 0.862221 0.936610
O O12 0.320051 0.000000 0.000000
O O13 0.772125 0.629449 0.250000
O O14 0.000000 0.976433 0.750000
#
# Coordination Sequence:
#
# PCOD8256202 Si02
#       6
#    16   8  16  16  16   8
#     4   9  16  28  46  70 100 130 158 193 240 287
#     4   9  16  28  50  76  95 122 165 206 243 277
#     4  10  18  31  51  72  94 122 160 206 244 280
#     4  10  20  31  44  70 102 129 156 191 243 300
#     4   9  17  30  48  67  91 126 166 204 237 272
#     4   9  14  26  48  71 100 133 164 196 232 282
#
# _framework density 17.745345
#
# number of rings (size 3 to 8) (size 9 to 14) (size 15 to 20)
#    0.000    2.600    2.000    1.200    0.000    0.800 
#    0.000    6.000    0.000    0.000    0.000    0.700 
#    0.000    0.000    0.000    3.200    0.000    0.000 
#
# Total GULP energy -495623.967657 kJ/mol
# GULP energy per Si atom -12390.599191 kJ/mol
# Density = 1.770496 g / cm^3
# Si number density = 17.745345 Si / 1000 Ang^3
#
#
#
# Elastic Constant Matrix: (Units=GPa)
#
#
# Indices 1 2 3 4 5 6 
#
# 1 44.1029 19.1878 17.9984 0.0000 0.0000 0.0000
# 2 19.1878 48.5307 28.8648 0.0000 0.0000 0.0000
# 3 17.9984 28.8648 86.8337 0.0000 0.0000 0.0000
# 4 0.0000 0.0000 0.0000 24.0456 0.0000 0.0000
# 5 0.0000 0.0000 0.0000 0.0000 10.3994 0.0000
# 6 0.0000 0.0000 0.0000 0.0000 0.0000 17.7316
#
#
#
# Elastic Compliance Matrix: (Units=1/GPa)
#
#
# Indices 1 2 3 4 5 6 
#
# 1 0.027860 -0.009449 -0.002634 0.000000 0.000000 0.000000
# 2 -0.009449 0.028888 -0.007644 0.000000 0.000000 0.000000
# 3 -0.002634 -0.007644 0.014603 0.000000 0.000000 0.000000
# 4 0.000000 0.000000 0.000000 0.041588 0.000000 0.000000
# 5 0.000000 0.000000 0.000000 0.000000 0.096160 0.000000
# 6 0.000000 0.000000 0.000000 0.000000 0.000000 0.056397
#
#
# Mechanical properties :
#
#
# Convention : Reuss Voigt Hill
#
# Bulk Modulus (GPa) = 31.35025 34.61881 32.98453
# Shear Modulus (GPa) = 15.84380 17.99640 16.92010
#
# Velocity S-wave (km/s) = 2.99129 3.18802 3.09122
# Velocity P-wave (km/s) = 5.44385 5.75346 5.60080
#
# Compressibility (1/GPa) = 0.03189768
#
# Stress axis : x y z
#
# Youngs Moduli (GPa) = 35.89396 34.61658 68.47780
#
# Poissons Ratio (x) = 0.32708 0.18036
# Poissons Ratio (y) = 0.33915 0.52347
# Poissons Ratio (z) = 0.09454 0.26462
#
# Static dielectric constant tensor:
#      x y z
#    x 3.036590 0.000000 0.000000 
#    y 0.000000 3.061520 0.000000 
#    z 0.000000 0.000000 3.473400 
# 
# 
# High freq. dielectric constant tensor:
#      x y z
#    x 1.645970 0.000000 0.000000 
#    y 0.000000 1.666270 0.000000 
#    z 0.000000 0.000000 1.688650 
# 
# From -- ./inp_files/33912.got.cif
#   From: 2010.03.12/outbox.cif.g09.slc.cpg/sg63_17_cif.got.tgz:33912.got - 2010.04.10 19:34:48.
