data_PCOD8256363
_publ_section_title
;
Structure prediction by ZEFSAII (Michael W. Deem and Ramdas Pophale) SiO2 
 PCOD8256363
Probable space group: C M C M
;
_chemical_formula_sum "Si O2"
_cell_formula_units_Z 96
_cell_length_a 9.315602
_cell_length_b 23.499816
_cell_length_c 22.990642
_cell_angle_alpha 90.000000
_cell_angle_beta 90.000000
_cell_angle_gamma 90.000000
_cell_volume 5032.994851
_symmetry_space_group_name_H-M "C M C M"
_symmetry_group_IT_number 63
_symmetry_cell_setting 'orthorhombic'
loop_
_space_group_symop_operation_xyz
x,y,z
-x,-y,1/2+z
x,-y,-z
-x,y,1/2-z
-x,-y,-z
x,y,1/2-z
-x,y,z
x,-y,1/2+z
1/2+x,1/2+y,z
1/2-x,1/2-y,1/2+z
1/2+x,1/2-y,-z
1/2-x,1/2+y,1/2-z
1/2-x,1/2-y,-z
1/2+x,1/2+y,1/2-z
1/2-x,1/2+y,z
1/2+x,1/2-y,1/2+z
loop_
_atom_site_type_symbol
_atom_site_label
_atom_site_fract_x
_atom_site_fract_y
_atom_site_fract_z
Si Si1 0.167679 0.472928 0.638523
Si Si2 0.841792 0.786244 0.956361
Si Si3 0.658678 0.209628 0.845735
Si Si4 0.170667 0.592571 0.899923
Si Si5 0.171523 0.404671 0.750000
Si Si6 0.329605 0.773933 0.750000
Si Si7 0.167712 0.605400 0.031866
O O1 0.230364 0.537246 0.634756
O O2 0.233916 0.437006 0.692520
O O3 0.198323 0.446562 0.575187
O O4 0.000000 0.475686 0.650781
O O5 0.862772 0.749923 0.899615
O O6 0.757104 0.843197 0.941053
O O7 0.000000 0.800058 0.982337
O O8 0.750000 0.750000 0.000000
O O9 0.500000 0.201414 0.816543
O O10 0.723474 0.148786 0.866129
O O11 0.772859 0.239640 0.804965
O O12 0.000000 0.591133 0.901851
O O13 0.224533 0.591672 0.966932
O O14 0.227014 0.339293 0.750000
O O15 0.000000 0.404036 0.750000
O O16 0.500000 0.772667 0.750000
O O17 0.000000 0.621937 0.031226
#
# Coordination Sequence:
#
# PCOD8256363 Si02
#       7
#    16  16  16  16   8   8  16
#     4   9  17  29  52  79 106 140 181 229 277 324
#     4  11  21  34  54  81 112 147 185 226 276 330
#     4  10  21  37  55  80 112 144 184 226 270 329
#     4   9  17  31  51  79 110 141 180 226 275 326
#     4   9  18  32  47  75 107 133 174 227 278 328
#     4  11  23  38  57  81 111 143 180 227 282 334
#     4  10  18  32  53  81 112 142 181 229 279 329
#
# _framework density 19.074131000000001
#
# number of rings (size 3 to 8) (size 9 to 14) (size 15 to 20)
#    0.000    2.167    1.667    2.250    0.000    5.333 
#    0.000    2.500    0.000    3.000    0.000    4.667 
#    0.000    0.000    0.000    0.000    0.000    0.000 
#
# Total GULP energy -594932.337945 kJ/mol
# GULP energy per Si atom -12394.423707 kJ/mol
# Density = 1.903072 g / cm^3
# Si number density = 19.074131 Si / 1000 Ang^3
#
#
#
# Elastic Constant Matrix: (Units=GPa)
#
#
# Indices 1 2 3 4 5 6 
#
# 1 53.4088 36.4010 26.4607 0.0000 0.0000 0.0000
# 2 36.4010 172.8461 70.3794 0.0000 0.0000 0.0000
# 3 26.4607 70.3794 109.9115 0.0000 0.0000 0.0000
# 4 0.0000 0.0000 0.0000 26.0072 0.0000 0.0000
# 5 0.0000 0.0000 0.0000 0.0000 32.4421 0.0000
# 6 0.0000 0.0000 0.0000 0.0000 0.0000 22.2928
#
#
#
# Elastic Compliance Matrix: (Units=1/GPa)
#
#
# Indices 1 2 3 4 5 6 
#
# 1 0.022688 -0.003455 -0.003250 0.000000 0.000000 0.000000
# 2 -0.003455 0.008352 -0.004516 0.000000 0.000000 0.000000
# 3 -0.003250 -0.004516 0.012773 0.000000 0.000000 0.000000
# 4 0.000000 0.000000 0.000000 0.038451 0.000000 0.000000
# 5 0.000000 0.000000 0.000000 0.000000 0.030824 0.000000
# 6 0.000000 0.000000 0.000000 0.000000 0.000000 0.044857
#
#
# Mechanical properties :
#
#
# Convention : Reuss Voigt Hill
#
# Bulk Modulus (GPa) = 46.79276 66.96092 56.87684
# Shear Modulus (GPa) = 26.66510 29.67677 28.17093
#
# Velocity S-wave (km/s) = 3.74300 3.94872 3.84724
# Velocity P-wave (km/s) = 6.57764 7.48143 7.04404
#
# Compressibility (1/GPa) = 0.02137083
#
# Stress axis : x y z
#
# Youngs Moduli (GPa) = 44.07569 119.73164 78.29300
#
# Poissons Ratio (x) = 0.41365 0.25444
# Poissons Ratio (y) = 0.15227 0.35359
# Poissons Ratio (z) = 0.14324 0.54074
#
# Static dielectric constant tensor:
#      x y z
#    x 3.161740 0.000000 0.000000 
#    y 0.000000 3.937770 0.000000 
#    z 0.000000 0.000000 3.464530 
# 
# 
# High freq. dielectric constant tensor:
#      x y z
#    x 1.691360 0.000000 0.000000 
#    y 0.000000 1.757590 0.000000 
#    z 0.000000 0.000000 1.743150 
# 
# From -- ./inp_files/60021.got.cif
#   From: 2010.03.12/outbox.cif.g09.slc.cpg/sg63_31_cif.got.tgz:60021.got - 2010.04.10 19:34:48.
