data_PCOD8256767
_publ_section_title
;
Structure prediction by ZEFSAII (Michael W. Deem and Ramdas Pophale) SiO2 
 PCOD8256767
Probable space group: C M C M
;
_chemical_formula_sum "Si O2"
_cell_formula_units_Z 80
_cell_length_a 16.471663
_cell_length_b 16.640387
_cell_length_c 14.758704
_cell_angle_alpha 90.000000
_cell_angle_beta 90.000000
_cell_angle_gamma 90.000000
_cell_volume 4045.284713
_symmetry_space_group_name_H-M "C M C M"
_symmetry_group_IT_number 63
_symmetry_cell_setting 'orthorhombic'
loop_
_space_group_symop_operation_xyz
x,y,z
-x,-y,1/2+z
x,-y,-z
-x,y,1/2-z
-x,-y,-z
x,y,1/2-z
-x,y,z
x,-y,1/2+z
1/2+x,1/2+y,z
1/2-x,1/2-y,1/2+z
1/2+x,1/2-y,-z
1/2-x,1/2+y,1/2-z
1/2-x,1/2-y,-z
1/2+x,1/2+y,1/2-z
1/2-x,1/2+y,z
1/2+x,1/2-y,1/2+z
loop_
_atom_site_type_symbol
_atom_site_label
_atom_site_fract_x
_atom_site_fract_y
_atom_site_fract_z
Si Si1 0.316540 0.185369 0.978796
Si Si2 0.803254 0.118508 0.650156
Si Si3 0.904228 0.722485 0.146927
Si Si4 0.595411 0.700361 0.350123
Si Si5 0.908913 0.025170 0.102798
O O1 0.269673 0.114006 0.924720
O O2 0.381504 0.224860 0.911905
O O3 0.250000 0.250000 0.000000
O O4 0.362074 0.161317 0.073473
O O5 0.765461 0.133906 0.750000
O O6 0.868026 0.189078 0.628060
O O7 0.850127 0.034568 0.655787
O O8 0.886142 0.693314 0.250000
O O9 0.000000 0.726225 0.128845
O O10 0.633014 0.712418 0.250000
O O11 0.500000 0.697281 0.345578
O O12 0.627415 0.615169 0.389360
O O13 0.000000 0.020794 0.144423
O O14 0.910818 0.000000 0.000000
#
# Coordination Sequence:
#
# PCOD8256767 Si02
#       5
#    16  16  16  16  16
#     4  10  19  31  46  67  99 134 165 202 248 295
#     4  10  19  30  46  69 100 136 170 205 245 294
#     4   9  17  29  46  67  91 123 163 205 248 293
#     4  10  20  33  50  72 100 135 170 202 240 291
#     4  10  19  31  48  71 101 137 173 206 244 292
#
# _framework density 19.776111
#
# number of rings (size 3 to 8) (size 9 to 14) (size 15 to 20)
#    0.000    2.200    0.000    4.800    0.000    4.400 
#    0.000    0.000    0.000    0.000    0.000    0.000 
#    0.000   56.000    0.000  106.400    0.000    0.000 
#
# Total GULP energy -495659.030314 kJ/mol
# GULP energy per Si atom -12391.475758 kJ/mol
# Density = 1.973110 g / cm^3
# Si number density = 19.776111 Si / 1000 Ang^3
#
#
#
# Elastic Constant Matrix: (Units=GPa)
#
#
# Indices 1 2 3 4 5 6 
#
# 1 76.4658 22.6157 56.0484 0.0000 0.0000 0.0000
# 2 22.6157 38.3265 14.8342 0.0000 0.0000 0.0000
# 3 56.0484 14.8342 136.5214 0.0000 0.0000 0.0000
# 4 0.0000 0.0000 0.0000 18.3726 0.0000 0.0000
# 5 0.0000 0.0000 0.0000 0.0000 -163.5905 0.0000
# 6 0.0000 0.0000 0.0000 0.0000 0.0000 21.4070
#
#
#
# Elastic Compliance Matrix: (Units=1/GPa)
#
#
# Indices 1 2 3 4 5 6 
#
# 1 0.021731 -0.009781 -0.007859 0.000000 0.000000 0.000000
# 2 -0.009781 0.031640 0.000578 0.000000 0.000000 0.000000
# 3 -0.007859 0.000578 0.010488 0.000000 0.000000 0.000000
# 4 0.000000 0.000000 0.000000 0.054429 0.000000 0.000000
# 5 0.000000 0.000000 0.000000 0.000000 -0.006113 0.000000
# 6 0.000000 0.000000 0.000000 0.000000 0.000000 0.046714
#
#
# Mechanical properties :
#
#
# Convention : Reuss Voigt Hill
#
# Bulk Modulus (GPa) = 33.63086 48.70113 41.16600
# Shear Modulus (GPa) = 24.63961 -14.24115 5.19923
#
# Velocity S-wave (km/s) = 3.53360 -2.68641 1.62319
# Velocity P-wave (km/s) = 5.80441 3.88037 4.93702
#
# Compressibility (1/GPa) = 0.02973459
#
# Stress axis : x y z
#
# Youngs Moduli (GPa) = 46.01705 31.60582 95.34275
#
# Poissons Ratio (x) = 0.30915 0.74928
# Poissons Ratio (y) = 0.45011 -0.05509
# Poissons Ratio (z) = 0.36164 -0.01826
#
# Static dielectric constant tensor:
#      x y z
#    x 3.738100 0.000000 0.000000 
#    y 0.000000 2.718310 0.000000 
#    z 0.000000 0.000000 4.311550 
# 
# 
# High freq. dielectric constant tensor:
#      x y z
#    x 1.760400 0.000000 0.000000 
#    y 0.000000 1.708040 0.000000 
#    z 0.000000 0.000000 1.800290 
# 
# From -- ./inp_files/31664.got.cif
#   From: 2010.03.12/outbox.cif.g09.slc.cpg/sg63_16_cif.got.tgz:31664.got - 2010.04.10 19:34:48.
