data_PCOD8256896
_publ_section_title
;
Structure prediction by ZEFSAII (Michael W. Deem and Ramdas Pophale) SiO2 
 PCOD8256896
Probable space group: C M C M
;
_chemical_formula_sum "Si O2"
_cell_formula_units_Z 128
_cell_length_a 20.972348
_cell_length_b 22.622964
_cell_length_c 17.109328
_cell_angle_alpha 90.000000
_cell_angle_beta 90.000000
_cell_angle_gamma 90.000000
_cell_volume 8117.634854
_symmetry_space_group_name_H-M "C M C M"
_symmetry_group_IT_number 63
_symmetry_cell_setting 'orthorhombic'
loop_
_space_group_symop_operation_xyz
x,y,z
-x,-y,1/2+z
x,-y,-z
-x,y,1/2-z
-x,-y,-z
x,y,1/2-z
-x,y,z
x,-y,1/2+z
1/2+x,1/2+y,z
1/2-x,1/2-y,1/2+z
1/2+x,1/2-y,-z
1/2-x,1/2+y,1/2-z
1/2-x,1/2-y,-z
1/2+x,1/2+y,1/2-z
1/2-x,1/2+y,z
1/2+x,1/2-y,1/2+z
loop_
_atom_site_type_symbol
_atom_site_label
_atom_site_fract_x
_atom_site_fract_y
_atom_site_fract_z
Si Si1 0.363431 0.060853 0.159810
Si Si2 0.276513 0.166684 0.337366
Si Si3 0.133699 0.780176 0.335961
Si Si4 0.698297 0.744479 0.431296
Si Si5 0.929280 0.395670 0.980664
Si Si6 0.754128 0.353850 0.158590
Si Si7 0.316649 0.043041 0.570036
Si Si8 0.071237 0.742306 0.017478
O O1 0.382742 0.069952 0.250000
O O2 0.309502 0.107390 0.131158
O O3 0.423857 0.072763 0.104077
O O4 0.336613 0.995614 0.145134
O O5 0.252976 0.155717 0.250000
O O6 0.324877 0.221098 0.343426
O O7 0.214354 0.182933 0.387730
O O8 0.102114 0.783963 0.250000
O O9 0.179898 0.836337 0.349672
O O10 0.078476 0.777580 0.400636
O O11 0.750000 0.750000 0.500000
O O12 0.701694 0.800462 0.373064
O O13 0.625800 0.735905 0.458809
O O14 0.918042 0.326662 0.968016
O O15 0.000000 0.408594 0.013470
O O16 0.878647 0.421594 0.041238
O O17 0.771507 0.365284 0.250000
O O18 0.764488 0.411270 0.103484
O O19 0.290792 0.000000 0.500000
O O20 0.000000 0.755321 0.984706
#
# Coordination Sequence:
#
# PCOD8256896 Si02
#       8
#    16  16  16  16  16  16  16  16
#     4  10  19  31  46  66  92 115 150 204 248 282
#     4   9  17  29  47  70  90 113 151 195 243 288
#     4   9  17  30  48  69  94 123 153 191 241 301
#     4  11  17  29  53  69  92 125 163 193 235 296
#     4  10  20  33  44  58  86 127 168 201 232 276
#     4  10  19  32  50  71  93 122 164 203 242 291
#     4  10  21  31  47  65  91 124 162 203 244 277
#     4  11  20  29  46  72  99 125 159 201 239 277
#
# _framework density 15.768140000000001
#
# number of rings (size 3 to 8) (size 9 to 14) (size 15 to 20)
#    0.000    2.000    5.000    1.500    1.750    2.750 
#    0.000    1.250    0.000    3.375    0.000    0.000 
#    0.000    4.500    0.000    7.125    0.000    0.250 
#
# Total GULP energy -793186.720186 kJ/mol
# GULP energy per Si atom -12393.542503 kJ/mol
# Density = 1.573225 g / cm^3
# Si number density = 15.768140 Si / 1000 Ang^3
#
#
#
# Elastic Constant Matrix: (Units=GPa)
#
#
# Indices 1 2 3 4 5 6 
#
# 1 70.7403 29.7788 27.4925 0.0000 0.0000 0.0000
# 2 29.7788 63.2268 28.8462 0.0000 0.0000 0.0000
# 3 27.4925 28.8462 65.4669 0.0000 0.0000 0.0000
# 4 0.0000 0.0000 0.0000 27.5626 0.0000 0.0000
# 5 0.0000 0.0000 0.0000 0.0000 21.2745 0.0000
# 6 0.0000 0.0000 0.0000 0.0000 0.0000 16.2437
#
#
#
# Elastic Compliance Matrix: (Units=1/GPa)
#
#
# Indices 1 2 3 4 5 6 
#
# 1 0.018862 -0.006596 -0.005015 0.000000 0.000000 0.000000
# 2 -0.006596 0.022102 -0.006969 0.000000 0.000000 0.000000
# 3 -0.005015 -0.006969 0.020451 0.000000 0.000000 0.000000
# 4 0.000000 0.000000 0.000000 0.036281 0.000000 0.000000
# 5 0.000000 0.000000 0.000000 0.000000 0.047005 0.000000
# 6 0.000000 0.000000 0.000000 0.000000 0.000000 0.061562
#
#
# Mechanical properties :
#
#
# Convention : Reuss Voigt Hill
#
# Bulk Modulus (GPa) = 41.22569 41.29655 41.26112
# Shear Modulus (GPa) = 19.88018 20.57059 20.22538
#
# Velocity S-wave (km/s) = 3.55460 3.61580 3.58533
# Velocity P-wave (km/s) = 6.56114 6.60899 6.58511
#
# Compressibility (1/GPa) = 0.02425672
#
# Stress axis : x y z
#
# Youngs Moduli (GPa) = 53.01784 45.24490 48.89642
#
# Poissons Ratio (x) = 0.29842 0.24520
# Poissons Ratio (y) = 0.34969 0.34075
# Poissons Ratio (z) = 0.26586 0.31530
#
# Static dielectric constant tensor:
#      x y z
#    x 2.820760 0.000000 0.000000 
#    y 0.000000 3.032800 0.000000 
#    z 0.000000 0.000000 3.255780 
# 
# 
# High freq. dielectric constant tensor:
#      x y z
#    x 1.568820 0.000000 0.000000 
#    y 0.000000 1.592070 0.000000 
#    z 0.000000 0.000000 1.615040 
# 
# From -- ./inp_files/47562.got.cif
#   From: 2010.03.12/outbox.cif.g09.slc.cpg/sg63_24_cif.got.tgz:47562.got - 2010.04.10 19:34:48.
