data_PCOD8256683
_publ_section_title
;
Structure prediction by ZEFSAII (Michael W. Deem and Ramdas Pophale) SiO2 
 PCOD8256683
Probable space group: C M C M
;
_chemical_formula_sum "Si O2"
_cell_formula_units_Z 128
_cell_length_a 23.200103
_cell_length_b 28.339222
_cell_length_c 11.492312
_cell_angle_alpha 90.000000
_cell_angle_beta 90.000000
_cell_angle_gamma 90.000000
_cell_volume 7555.883346
_symmetry_space_group_name_H-M "C M C M"
_symmetry_group_IT_number 63
_symmetry_cell_setting 'orthorhombic'
loop_
_space_group_symop_operation_xyz
x,y,z
-x,-y,1/2+z
x,-y,-z
-x,y,1/2-z
-x,-y,-z
x,y,1/2-z
-x,y,z
x,-y,1/2+z
1/2+x,1/2+y,z
1/2-x,1/2-y,1/2+z
1/2+x,1/2-y,-z
1/2-x,1/2+y,1/2-z
1/2-x,1/2-y,-z
1/2+x,1/2+y,1/2-z
1/2-x,1/2+y,z
1/2+x,1/2-y,1/2+z
loop_
_atom_site_type_symbol
_atom_site_label
_atom_site_fract_x
_atom_site_fract_y
_atom_site_fract_z
Si Si1 0.326100 0.883782 0.006411
Si Si2 0.434783 0.147466 0.385735
Si Si3 0.286722 0.385591 0.622786
Si Si4 0.798440 0.524411 0.619130
Si Si5 0.787297 0.290186 0.120944
Si Si6 0.327988 0.703686 0.997422
Si Si7 0.329521 0.489424 0.622718
Si Si8 0.564172 0.256203 0.114212
O O1 0.390848 0.886101 0.955662
O O2 0.279241 0.897821 0.909049
O O3 0.317973 0.920737 0.112013
O O4 0.313506 0.829996 0.039030
O O5 0.428144 0.136759 0.250000
O O6 0.500000 0.136042 0.426568
O O7 0.419747 0.201971 0.411500
O O8 0.286633 0.362171 0.750000
O O9 0.318588 0.350084 0.535744
O O10 0.321189 0.433829 0.623892
O O11 0.824845 0.500000 0.500000
O O12 0.818971 0.506283 0.750000
O O13 0.729521 0.519393 0.614398
O O14 0.798488 0.307464 0.250000
O O15 0.718978 0.283006 0.100745
O O16 0.819482 0.240494 0.102531
O O17 0.392227 0.708329 0.948560
O O18 0.364152 0.500000 0.500000
O O19 0.358776 0.502853 0.750000
O O20 0.566911 0.266332 0.250000
O O21 0.500000 0.267016 0.066997
#
# Coordination Sequence:
#
# PCOD8256683 Si02
#       8
#    16  16  16  16  16  16  16  16
#     4  11  18  30  49  71  94 127 164 203 253 303
#     4   9  18  31  49  72  95 124 169 220 258 295
#     4  10  19  29  46  71  97 129 163 198 240 300
#     4  10  19  31  49  72  98 127 166 210 253 307
#     4  10  20  30  42  65 100 130 154 189 238 298
#     4  10  19  31  45  68  97 131 161 194 241 294
#     4   9  16  30  45  66  94 126 164 200 240 291
#     4   9  17  32  52  70  93 129 173 215 247 284
#
# _framework density 16.940442000000001
#
# number of rings (size 3 to 8) (size 9 to 14) (size 15 to 20)
#    0.000    2.250    3.750    2.250    0.000    0.500 
#    0.000    0.625    0.000    4.125    0.000    0.000 
#    0.000    0.500    0.000    0.500    0.000    0.500 
#
# Total GULP energy -792861.242063 kJ/mol
# GULP energy per Si atom -12388.456907 kJ/mol
# Density = 1.690188 g / cm^3
# Si number density = 16.940442 Si / 1000 Ang^3
#
#
#
# Elastic Constant Matrix: (Units=GPa)
#
#
# Indices 1 2 3 4 5 6 
#
# 1 61.0048 13.1592 21.1319 0.0000 0.0000 0.0000
# 2 13.1592 48.3283 15.1937 0.0000 0.0000 0.0000
# 3 21.1319 15.1937 105.8303 0.0000 0.0000 0.0000
# 4 0.0000 0.0000 0.0000 23.7587 0.0000 0.0000
# 5 0.0000 0.0000 0.0000 0.0000 11.3139 0.0000
# 6 0.0000 0.0000 0.0000 0.0000 0.0000 12.2356
#
#
#
# Elastic Compliance Matrix: (Units=1/GPa)
#
#
# Indices 1 2 3 4 5 6 
#
# 1 0.018327 -0.004021 -0.003082 0.000000 0.000000 0.000000
# 2 -0.004021 0.022552 -0.002435 0.000000 0.000000 0.000000
# 3 -0.003082 -0.002435 0.010414 0.000000 0.000000 0.000000
# 4 0.000000 0.000000 0.000000 0.042090 0.000000 0.000000
# 5 0.000000 0.000000 0.000000 0.000000 0.088387 0.000000
# 6 0.000000 0.000000 0.000000 0.000000 0.000000 0.081729
#
#
# Mechanical properties :
#
#
# Convention : Reuss Voigt Hill
#
# Bulk Modulus (GPa) = 31.03952 34.90367 32.97160
# Shear Modulus (GPa) = 17.04655 20.50688 18.77671
#
# Velocity S-wave (km/s) = 3.17561 3.48304 3.33287
# Velocity P-wave (km/s) = 5.63990 6.06827 5.85800
#
# Compressibility (1/GPa) = 0.03221699
#
# Stress axis : x y z
#
# Youngs Moduli (GPa) = 54.56351 44.34152 96.02378
#
# Poissons Ratio (x) = 0.17831 0.29597
# Poissons Ratio (y) = 0.21942 0.23380
# Poissons Ratio (z) = 0.16818 0.10796
#
# Static dielectric constant tensor:
#      x y z
#    x 2.826010 0.000000 0.000000 
#    y 0.000000 3.051330 0.000000 
#    z 0.000000 0.000000 3.439370 
# 
# 
# High freq. dielectric constant tensor:
#      x y z
#    x 1.600200 0.000000 0.000000 
#    y 0.000000 1.647230 0.000000 
#    z 0.000000 0.000000 1.659050 
# 
# From -- ./inp_files/24334.got.cif
#   From: 2010.03.12/outbox.cif.g09.slc.cpg/sg63_13_cif.got.tgz:24334.got - 2010.04.10 19:34:48.
