data_PCOD8256174
_publ_section_title
;
Structure prediction by ZEFSAII (Michael W. Deem and Ramdas Pophale) SiO2 
 PCOD8256174
Probable space group: C M C M
;
_chemical_formula_sum "Si O2"
_cell_formula_units_Z 128
_cell_length_a 9.176139
_cell_length_b 26.232028
_cell_length_c 28.502342
_cell_angle_alpha 90.000000
_cell_angle_beta 90.000000
_cell_angle_gamma 90.000000
_cell_volume 6860.762692
_symmetry_space_group_name_H-M "C M C M"
_symmetry_group_IT_number 63
_symmetry_cell_setting 'orthorhombic'
loop_
_space_group_symop_operation_xyz
x,y,z
-x,-y,1/2+z
x,-y,-z
-x,y,1/2-z
-x,-y,-z
x,y,1/2-z
-x,y,z
x,-y,1/2+z
1/2+x,1/2+y,z
1/2-x,1/2-y,1/2+z
1/2+x,1/2-y,-z
1/2-x,1/2+y,1/2-z
1/2-x,1/2-y,-z
1/2+x,1/2+y,1/2-z
1/2-x,1/2+y,z
1/2+x,1/2-y,1/2+z
loop_
_atom_site_type_symbol
_atom_site_label
_atom_site_fract_x
_atom_site_fract_y
_atom_site_fract_z
Si Si1 0.673720 0.477607 0.047983
Si Si2 0.673109 0.513050 0.352843
Si Si3 0.827539 0.186720 0.640329
Si Si4 0.673516 0.385253 0.803388
Si Si5 0.173007 0.211385 0.362976
Si Si6 0.831713 0.208563 0.469636
Si Si7 0.326810 0.411880 0.197450
Si Si8 0.831258 0.134567 0.548480
O O1 0.500000 0.474714 0.044242
O O2 0.720303 0.512163 0.092398
O O3 0.741003 0.420948 0.053964
O O4 0.739871 0.500000 0.000000
O O5 0.500000 0.513332 0.348452
O O6 0.736736 0.563690 0.328076
O O7 0.735951 0.462178 0.328156
O O8 0.746372 0.237645 0.657555
O O9 0.774940 0.139683 0.672249
O O10 0.771771 0.174349 0.587337
O O11 0.000000 0.196102 0.643823
O O12 0.731705 0.382443 0.750000
O O13 0.500000 0.386840 0.803974
O O14 0.729356 0.336108 0.832098
O O15 0.226208 0.203002 0.416658
O O16 0.000000 0.216623 0.359740
O O17 0.750000 0.250000 0.500000
O O18 0.806519 0.154576 0.495697
O O19 0.000000 0.224172 0.469542
O O20 0.264865 0.411276 0.250000
O O21 0.500000 0.414241 0.196862
O O22 0.000000 0.128181 0.560796
#
# Coordination Sequence:
#
# PCOD8256174 Si02
#       8
#    16  16  16  16  16  16  16  16
#     4   9  16  23  36  61  93 124 149 181 235 294
#     4   9  15  25  41  63  91 122 154 189 237 292
#     4  10  18  31  49  69  95 127 159 194 241 289
#     4   9  18  31  45  62  91 131 165 197 241 288
#     4  10  21  33  47  70  98 128 166 203 234 278
#     4  10  19  30  46  67  92 123 158 192 228 274
#     4   9  16  26  43  68  93 116 150 198 244 286
#     4   9  16  27  41  60  91 125 150 183 234 284
#
# _framework density 18.656818999999999
#
# number of rings (size 3 to 8) (size 9 to 14) (size 15 to 20)
#    0.000    2.625    2.500    0.375    1.750    2.000 
#    0.000    0.000    0.000    0.000    0.000    0.875 
#    0.000    4.000    0.000    0.000    0.000    0.000 
#
# Total GULP energy -793297.562133 kJ/mol
# GULP energy per Si atom -12395.274408 kJ/mol
# Density = 1.861436 g / cm^3
# Si number density = 18.656819 Si / 1000 Ang^3
#
#
#
# Elastic Constant Matrix: (Units=GPa)
#
#
# Indices 1 2 3 4 5 6 
#
# 1 9.9383 19.5945 14.6111 0.0000 0.0000 0.0000
# 2 19.5945 172.3660 87.7152 0.0000 0.0000 0.0000
# 3 14.6111 87.7152 160.8074 0.0000 0.0000 0.0000
# 4 0.0000 0.0000 0.0000 33.2158 0.0000 0.0000
# 5 0.0000 0.0000 0.0000 0.0000 9.9011 0.0000
# 6 0.0000 0.0000 0.0000 0.0000 0.0000 18.2959
#
#
#
# Elastic Compliance Matrix: (Units=1/GPa)
#
#
# Indices 1 2 3 4 5 6 
#
# 1 0.132881 -0.012405 -0.005307 0.000000 0.000000 0.000000
# 2 -0.012405 0.009189 -0.003885 0.000000 0.000000 0.000000
# 3 -0.005307 -0.003885 0.008820 0.000000 0.000000 0.000000
# 4 0.000000 0.000000 0.000000 0.030106 0.000000 0.000000
# 5 0.000000 0.000000 0.000000 0.000000 0.100999 0.000000
# 6 0.000000 0.000000 0.000000 0.000000 0.000000 0.054657
#
#
# Mechanical properties :
#
#
# Convention : Reuss Voigt Hill
#
# Bulk Modulus (GPa) = 9.28546 65.21704 37.25125
# Shear Modulus (GPa) = 12.02661 27.02863 19.52762
#
# Velocity S-wave (km/s) = 2.54170 3.81034 3.23874
# Velocity P-wave (km/s) = 3.68801 7.37498 5.83060
#
# Compressibility (1/GPa) = 0.10769526
#
# Stress axis : x y z
#
# Youngs Moduli (GPa) = 7.52553 108.82694 113.37832
#
# Poissons Ratio (x) = 1.35001 0.60171
# Poissons Ratio (y) = 0.09335 0.44049
# Poissons Ratio (z) = 0.03994 0.42280
#
# Static dielectric constant tensor:
#      x y z
#    x 2.675950 0.000000 0.000000 
#    y 0.000000 3.681540 0.000000 
#    z 0.000000 0.000000 3.715410 
# 
# 
# High freq. dielectric constant tensor:
#      x y z
#    x 1.637920 0.000000 0.000000 
#    y 0.000000 1.736960 0.000000 
#    z 0.000000 0.000000 1.737610 
# 
# From -- ./inp_files/68812.got.cif
#   From: 2010.03.12/outbox.cif.g09.slc.cpg/sg63_35_cif.got.tgz:68812.got - 2010.04.10 19:34:48.
