data_PCOD8256707
_publ_section_title
;
Structure prediction by ZEFSAII (Michael W. Deem and Ramdas Pophale) SiO2 
 PCOD8256707
Probable space group: C M C M
;
_chemical_formula_sum "Si O2"
_cell_formula_units_Z 96
_cell_length_a 24.326014
_cell_length_b 24.759257
_cell_length_c 9.522973
_cell_angle_alpha 90.000000
_cell_angle_beta 90.000000
_cell_angle_gamma 90.000000
_cell_volume 5735.629809
_symmetry_space_group_name_H-M "C M C M"
_symmetry_group_IT_number 63
_symmetry_cell_setting 'orthorhombic'
loop_
_space_group_symop_operation_xyz
x,y,z
-x,-y,1/2+z
x,-y,-z
-x,y,1/2-z
-x,-y,-z
x,y,1/2-z
-x,y,z
x,-y,1/2+z
1/2+x,1/2+y,z
1/2-x,1/2-y,1/2+z
1/2+x,1/2-y,-z
1/2-x,1/2+y,1/2-z
1/2-x,1/2-y,-z
1/2+x,1/2+y,1/2-z
1/2-x,1/2+y,z
1/2+x,1/2-y,1/2+z
loop_
_atom_site_type_symbol
_atom_site_label
_atom_site_fract_x
_atom_site_fract_y
_atom_site_fract_z
Si Si1 0.938197 0.369875 0.595813
Si Si2 0.895404 0.454250 0.096660
Si Si3 0.768573 0.546830 0.596739
Si Si4 0.243908 0.669787 0.914380
Si Si5 0.833264 0.766587 0.585367
Si Si6 0.938438 0.757146 0.090168
O O1 0.915084 0.385787 0.750000
O O2 0.901062 0.396070 0.475684
O O3 0.937512 0.306588 0.577136
O O4 0.000000 0.391808 0.579545
O O5 0.923801 0.453327 0.250000
O O6 0.831941 0.467908 0.114854
O O7 0.923993 0.500000 0.000000
O O8 0.740943 0.500000 0.500000
O O9 0.739948 0.543905 0.750000
O O10 0.763917 0.607769 0.536665
O O11 0.260105 0.673747 0.750000
O O12 0.188225 0.705023 0.939946
O O13 0.291828 0.692439 0.011425
O O14 0.836608 0.779958 0.750000
O O15 0.892865 0.778652 0.517749
O O16 0.924261 0.774873 0.250000
O O17 0.000000 0.778195 0.050252
#
# Coordination Sequence:
#
# PCOD8256707 Si02
#       6
#    16  16  16  16  16  16
#     4   9  18  31  44  58  77 104 141 182 222 264
#     4  10  19  30  43  59  79 105 140 181 224 266
#     4   9  18  31  46  64  87 115 147 183 222 267
#     4   9  18  32  47  66  95 126 153 186 232 280
#     4  10  19  30  47  71  95 121 156 194 229 269
#     4   9  18  32  48  65  88 119 150 181 224 276
#
# _framework density 16.737480999999999
#
# number of rings (size 3 to 8) (size 9 to 14) (size 15 to 20)
#    0.000    2.667    0.000    3.000    0.000    5.000 
#    0.000    1.667    0.000    0.000    0.000    0.000 
#    0.000    0.667    0.000    2.167    0.000    2.667 
#
# Total GULP energy -594813.740334 kJ/mol
# GULP energy per Si atom -12391.952924 kJ/mol
# Density = 1.669939 g / cm^3
# Si number density = 16.737481 Si / 1000 Ang^3
#
#
#
# Elastic Constant Matrix: (Units=GPa)
#
#
# Indices 1 2 3 4 5 6 
#
# 1 67.3330 8.8143 37.3612 0.0000 0.0000 0.0000
# 2 8.8143 65.2144 27.8949 0.0000 0.0000 0.0000
# 3 37.3612 27.8949 99.5470 0.0000 0.0000 0.0000
# 4 0.0000 0.0000 0.0000 25.7186 0.0000 0.0000
# 5 0.0000 0.0000 0.0000 0.0000 23.6807 0.0000
# 6 0.0000 0.0000 0.0000 0.0000 0.0000 17.4632
#
#
#
# Elastic Compliance Matrix: (Units=1/GPa)
#
#
# Indices 1 2 3 4 5 6 
#
# 1 0.018775 0.000541 -0.007198 0.000000 0.000000 0.000000
# 2 0.000541 0.017438 -0.005090 0.000000 0.000000 0.000000
# 3 -0.007198 -0.005090 0.014173 0.000000 0.000000 0.000000
# 4 0.000000 0.000000 0.000000 0.038882 0.000000 0.000000
# 5 0.000000 0.000000 0.000000 0.000000 0.042228 0.000000
# 6 0.000000 0.000000 0.000000 0.000000 0.000000 0.057263
#
#
# Mechanical properties :
#
#
# Convention : Reuss Voigt Hill
#
# Bulk Modulus (GPa) = 37.18414 42.24836 39.71625
# Shear Modulus (GPa) = 22.60225 23.90743 23.25484
#
# Velocity S-wave (km/s) = 3.67876 3.78349 3.73149
# Velocity P-wave (km/s) = 6.34891 6.66205 6.50737
#
# Compressibility (1/GPa) = 0.02689318
#
# Stress axis : x y z
#
# Youngs Moduli (GPa) = 53.26316 57.34636 70.55560
#
# Poissons Ratio (x) = -0.03104 0.50786
# Poissons Ratio (y) = -0.02883 0.35910
# Poissons Ratio (z) = 0.38339 0.29187
#
# Static dielectric constant tensor:
#      x y z
#    x 3.044320 0.000000 0.000000 
#    y 0.000000 2.911880 0.000000 
#    z 0.000000 0.000000 3.499420 
# 
# 
# High freq. dielectric constant tensor:
#      x y z
#    x 1.610390 0.000000 0.000000 
#    y 0.000000 1.616760 0.000000 
#    z 0.000000 0.000000 1.657260 
# 
# From -- ./inp_files/8507.got.cif
#   From: 2010.03.12/outbox.cif.g09.slc.cpg/sg63_5_cif.got.tgz:8507.got - 2010.04.10 19:34:48.
