data_PCOD8256297
_publ_section_title
;
Structure prediction by ZEFSAII (Michael W. Deem and Ramdas Pophale) SiO2 
 PCOD8256297
Probable space group: C M C M
;
_chemical_formula_sum "Si O2"
_cell_formula_units_Z 80
_cell_length_a 12.296302
_cell_length_b 20.796980
_cell_length_c 18.801350
_cell_angle_alpha 90.000000
_cell_angle_beta 90.000000
_cell_angle_gamma 90.000000
_cell_volume 4807.993029
_symmetry_space_group_name_H-M "C M C M"
_symmetry_group_IT_number 63
_symmetry_cell_setting 'orthorhombic'
loop_
_space_group_symop_operation_xyz
x,y,z
-x,-y,1/2+z
x,-y,-z
-x,y,1/2-z
-x,-y,-z
x,y,1/2-z
-x,y,z
x,-y,1/2+z
1/2+x,1/2+y,z
1/2-x,1/2-y,1/2+z
1/2+x,1/2-y,-z
1/2-x,1/2+y,1/2-z
1/2-x,1/2-y,-z
1/2+x,1/2+y,1/2-z
1/2-x,1/2+y,z
1/2+x,1/2-y,1/2+z
loop_
_atom_site_type_symbol
_atom_site_label
_atom_site_fract_x
_atom_site_fract_y
_atom_site_fract_z
Si Si1 0.500000 0.645710 0.834233
Si Si2 0.500000 0.207642 0.334300
Si Si3 0.306852 0.119775 0.167911
Si Si4 0.324425 0.435751 0.088499
Si Si5 0.123088 0.524599 0.831215
Si Si6 0.623689 0.419680 0.570910
O O1 0.500000 0.640493 0.750000
O O2 0.500000 0.719272 0.860416
O O3 0.392151 0.612712 0.863486
O O4 0.500000 0.200764 0.250000
O O5 0.609288 0.172808 0.362359
O O6 0.277142 0.132096 0.250000
O O7 0.194775 0.124133 0.123712
O O8 0.363227 0.051131 0.156634
O O9 0.200744 0.435360 0.116404
O O10 0.376093 0.506441 0.096361
O O11 0.325320 0.412890 0.007295
O O12 0.151915 0.542317 0.750000
O O13 0.000000 0.544130 0.849706
O O14 0.500000 0.394270 0.571278
#
# Coordination Sequence:
#
# PCOD8256297 Si02
#       6
#     8   8  16  16  16  16
#     4  11  20  31  53  73  95 132 167 197 231 289
#     4   9  18  34  51  70  96 125 163 210 242 272
#     4   9  17  31  50  72  95 123 166 204 242 287
#     4  10  18  32  46  72 104 132 160 189 243 303
#     4   9  16  28  48  72 100 126 155 206 247 281
#     4  10  18  32  50  70 104 134 151 202 254 281
#
# _framework density 16.638957999999999
#
# number of rings (size 3 to 8) (size 9 to 14) (size 15 to 20)
#    0.000    2.400    3.000    1.200    0.000    1.200 
#    1.800    3.000    0.000    1.200    0.000    2.800 
#    0.000    0.000    0.000    0.000    0.000    0.000 
#
# Total GULP energy -496014.657294 kJ/mol
# GULP energy per Si atom -12400.366432 kJ/mol
# Density = 1.660109 g / cm^3
# Si number density = 16.638958 Si / 1000 Ang^3
#
#
#
# Elastic Constant Matrix: (Units=GPa)
#
#
# Indices 1 2 3 4 5 6 
#
# 1 153.8807 52.4166 74.6605 0.0000 0.0000 0.0000
# 2 52.4166 72.4588 44.5893 0.0000 0.0000 0.0000
# 3 74.6605 44.5893 89.4826 0.0000 0.0000 0.0000
# 4 0.0000 0.0000 0.0000 14.4223 0.0000 0.0000
# 5 0.0000 0.0000 0.0000 0.0000 30.1983 0.0000
# 6 0.0000 0.0000 0.0000 0.0000 0.0000 19.2659
#
#
#
# Elastic Compliance Matrix: (Units=1/GPa)
#
#
# Indices 1 2 3 4 5 6 
#
# 1 0.011497 -0.003481 -0.007858 0.000000 0.000000 0.000000
# 2 -0.003481 0.020959 -0.007539 0.000000 0.000000 0.000000
# 3 -0.007858 -0.007539 0.021488 0.000000 0.000000 0.000000
# 4 0.000000 0.000000 0.000000 0.069337 0.000000 0.000000
# 5 0.000000 0.000000 0.000000 0.000000 0.033114 0.000000
# 6 0.000000 0.000000 0.000000 0.000000 0.000000 0.051905
#
#
# Mechanical properties :
#
#
# Convention : Reuss Voigt Hill
#
# Bulk Modulus (GPa) = 61.77598 73.23943 67.50771
# Shear Modulus (GPa) = 19.88448 22.38767 21.13608
#
# Velocity S-wave (km/s) = 3.46071 3.67208 3.56796
# Velocity P-wave (km/s) = 7.29223 7.87980 7.59170
#
# Compressibility (1/GPa) = 0.01618752
#
# Stress axis : x y z
#
# Youngs Moduli (GPa) = 86.98040 47.71287 46.53716
#
# Poissons Ratio (x) = 0.16611 0.36568
# Poissons Ratio (y) = 0.30281 0.35085
# Poissons Ratio (z) = 0.68347 0.35971
#
# Static dielectric constant tensor:
#      x y z
#    x 3.310810 0.000000 0.000000 
#    y 0.000000 2.864730 0.000000 
#    z 0.000000 0.000000 3.105510 
# 
# 
# High freq. dielectric constant tensor:
#      x y z
#    x 1.649030 0.000000 0.000000 
#    y 0.000000 1.599720 0.000000 
#    z 0.000000 0.000000 1.636260 
# 
# From -- ./inp_files/42156.got.cif
#   From: 2010.03.12/outbox.cif.g09.slc.cpg/sg63_22_cif.got.tgz:42156.got - 2010.04.10 19:34:48.
