data_PCOD8256550
_publ_section_title
;
Structure prediction by ZEFSAII (Michael W. Deem and Ramdas Pophale) SiO2 
 PCOD8256550
Probable space group: C M C M
;
_chemical_formula_sum "Si O2"
_cell_formula_units_Z 80
_cell_length_a 16.892306
_cell_length_b 14.671274
_cell_length_c 18.614934
_cell_angle_alpha 90.000000
_cell_angle_beta 90.000000
_cell_angle_gamma 90.000000
_cell_volume 4613.369804
_symmetry_space_group_name_H-M "C M C M"
_symmetry_group_IT_number 63
_symmetry_cell_setting 'orthorhombic'
loop_
_space_group_symop_operation_xyz
x,y,z
-x,-y,1/2+z
x,-y,-z
-x,y,1/2-z
-x,-y,-z
x,y,1/2-z
-x,y,z
x,-y,1/2+z
1/2+x,1/2+y,z
1/2-x,1/2-y,1/2+z
1/2+x,1/2-y,-z
1/2-x,1/2+y,1/2-z
1/2-x,1/2-y,-z
1/2+x,1/2+y,1/2-z
1/2-x,1/2+y,z
1/2+x,1/2-y,1/2+z
loop_
_atom_site_type_symbol
_atom_site_label
_atom_site_fract_x
_atom_site_fract_y
_atom_site_fract_z
Si Si1 0.912412 0.693461 0.330921
Si Si2 0.750730 0.391057 0.832553
Si Si3 0.762490 0.054000 0.932359
Si Si4 0.189493 0.738332 0.564889
Si Si5 0.589290 0.328436 0.040740
O O1 0.905605 0.733086 0.250000
O O2 0.845781 0.616695 0.342619
O O3 0.897137 0.775979 0.384743
O O4 0.000000 0.650550 0.343956
O O5 0.724715 0.389759 0.750000
O O6 0.724612 0.487198 0.865401
O O7 0.706747 0.306404 0.869858
O O8 0.700591 0.133825 0.909169
O O9 0.848543 0.089126 0.958298
O O10 0.725113 0.000000 0.000000
O O11 0.250000 0.750000 0.500000
O O12 0.104679 0.762352 0.528680
O O13 0.500000 0.366094 0.034952
#
# Coordination Sequence:
#
# PCOD8256550 Si02
#       5
#    16  16  16  16  16
#     4   9  17  31  51  76 106 136 171 221 274 318
#     4  11  21  34  54  81 109 142 182 223 272 324
#     4  11  19  33  55  79 105 139 179 224 265 317
#     4  10  18  36  54  75 107 144 177 220 265 324
#     4  10  19  33  56  80 106 142 181 222 268 315
#
# _framework density 17.340903000000001
#
# number of rings (size 3 to 8) (size 9 to 14) (size 15 to 20)
#    0.000    1.800    8.000    0.000    0.000    2.000 
#    0.000    1.000    0.000    5.400    0.000    0.000 
#    0.000    0.000    0.000    0.000    0.000    0.000 
#
# Total GULP energy -495750.639773 kJ/mol
# GULP energy per Si atom -12393.765994 kJ/mol
# Density = 1.730143 g / cm^3
# Si number density = 17.340903 Si / 1000 Ang^3
#
#
#
# Elastic Constant Matrix: (Units=GPa)
#
#
# Indices 1 2 3 4 5 6 
#
# 1 65.3555 30.7848 29.3666 0.0000 0.0000 0.0000
# 2 30.7848 119.0924 52.2127 0.0000 0.0000 0.0000
# 3 29.3666 52.2127 111.1827 0.0000 0.0000 0.0000
# 4 0.0000 0.0000 0.0000 28.9502 0.0000 0.0000
# 5 0.0000 0.0000 0.0000 0.0000 21.6440 0.0000
# 6 0.0000 0.0000 0.0000 0.0000 0.0000 15.3290
#
#
#
# Elastic Compliance Matrix: (Units=1/GPa)
#
#
# Indices 1 2 3 4 5 6 
#
# 1 0.018333 -0.003294 -0.003295 0.000000 0.000000 0.000000
# 2 -0.003294 0.011166 -0.004373 0.000000 0.000000 0.000000
# 3 -0.003295 -0.004373 0.011918 0.000000 0.000000 0.000000
# 4 0.000000 0.000000 0.000000 0.034542 0.000000 0.000000
# 5 0.000000 0.000000 0.000000 0.000000 0.046202 0.000000
# 6 0.000000 0.000000 0.000000 0.000000 0.000000 0.065236
#
#
# Mechanical properties :
#
#
# Convention : Reuss Voigt Hill
#
# Bulk Modulus (GPa) = 51.30478 57.81767 54.56122
# Shear Modulus (GPa) = 23.16735 25.40242 24.28489
#
# Velocity S-wave (km/s) = 3.65909 3.83153 3.74630
# Velocity P-wave (km/s) = 6.89218 7.27931 7.08839
#
# Compressibility (1/GPa) = 0.01949136
#
# Stress axis : x y z
#
# Youngs Moduli (GPa) = 54.54525 89.55883 83.90371
#
# Poissons Ratio (x) = 0.29504 0.27649
# Poissons Ratio (y) = 0.17969 0.36695
# Poissons Ratio (z) = 0.17974 0.39168
#
# Static dielectric constant tensor:
#      x y z
#    x 3.402500 0.000000 0.000000 
#    y 0.000000 3.373460 0.000000 
#    z 0.000000 0.000000 3.357220 
# 
# 
# High freq. dielectric constant tensor:
#      x y z
#    x 1.651390 0.000000 0.000000 
#    y 0.000000 1.655910 0.000000 
#    z 0.000000 0.000000 1.672600 
# 
# From -- ./inp_files/45391.got.cif
#   From: 2010.03.12/outbox.cif.g09.slc.cpg/sg63_23_cif.got.tgz:45391.got - 2010.04.10 19:34:48.
