data_PCOD8256655
_publ_section_title
;
Structure prediction by ZEFSAII (Michael W. Deem and Ramdas Pophale) SiO2 
 PCOD8256655
Probable space group: C M C M
;
_chemical_formula_sum "Si O2"
_cell_formula_units_Z 128
_cell_length_a 25.694083
_cell_length_b 17.449434
_cell_length_c 17.612779
_cell_angle_alpha 90.000000
_cell_angle_beta 90.000000
_cell_angle_gamma 90.000000
_cell_volume 7896.640246
_symmetry_space_group_name_H-M "C M C M"
_symmetry_group_IT_number 63
_symmetry_cell_setting 'orthorhombic'
loop_
_space_group_symop_operation_xyz
x,y,z
-x,-y,1/2+z
x,-y,-z
-x,y,1/2-z
-x,-y,-z
x,y,1/2-z
-x,y,z
x,-y,1/2+z
1/2+x,1/2+y,z
1/2-x,1/2-y,1/2+z
1/2+x,1/2-y,-z
1/2-x,1/2+y,1/2-z
1/2-x,1/2-y,-z
1/2+x,1/2+y,1/2-z
1/2-x,1/2+y,z
1/2+x,1/2-y,1/2+z
loop_
_atom_site_type_symbol
_atom_site_label
_atom_site_fract_x
_atom_site_fract_y
_atom_site_fract_z
Si Si1 0.297008 0.087030 0.478002
Si Si2 0.352349 0.789382 0.060912
Si Si3 0.196300 0.830303 0.450446
Si Si4 0.846358 0.018007 0.913040
Si Si5 0.940741 0.942863 0.662813
Si Si6 0.439623 0.735314 0.336435
Si Si7 0.234585 0.256065 0.334302
Si Si8 0.260016 0.582869 0.166128
O O1 0.347007 0.137049 0.504996
O O2 0.244543 0.124540 0.512022
O O3 0.291126 0.084365 0.386833
O O4 0.305639 0.000000 0.500000
O O5 0.409283 0.782713 0.098388
O O6 0.313597 0.803302 0.131686
O O7 0.336541 0.712267 0.015503
O O8 0.160252 0.890337 0.404721
O O9 0.215964 0.767326 0.389879
O O10 0.904392 0.995030 0.889558
O O11 0.804450 0.974359 0.862125
O O12 0.835300 0.000000 0.000000
O O13 0.931198 0.965374 0.750000
O O14 0.927774 0.853950 0.650338
O O15 0.000000 0.960178 0.639183
O O16 0.423011 0.757607 0.250000
O O17 0.500000 0.753722 0.348150
O O18 0.247810 0.286936 0.250000
O O19 0.216594 0.168108 0.331018
O O20 0.242380 0.556444 0.250000
#
# Coordination Sequence:
#
# PCOD8256655 Si02
#       8
#    16  16  16  16  16  16  16  16
#     4  11  19  35  48  69 101 130 159 201 241 291
#     4  11  19  32  51  70  96 132 162 199 251 289
#     4  11  19  31  46  66 101 130 165 202 236 282
#     4  12  20  30  47  68  95 131 169 201 242 283
#     4   9  19  34  49  69  98 130 167 209 249 288
#     4   9  18  33  53  77 101 124 157 204 254 300
#     4  10  19  29  44  67  94 127 166 198 234 285
#     4  11  19  31  47  65  94 131 163 193 238 292
#
# _framework density 16.209426000000001
#
# number of rings (size 3 to 8) (size 9 to 14) (size 15 to 20)
#    0.000    1.500    5.000    3.750    0.000    3.250 
#    0.000    1.250    0.000    0.375    0.000    0.000 
#    0.000    1.500    0.000    0.250    0.000    0.000 
#
# Total GULP energy -793321.584297 kJ/mol
# GULP energy per Si atom -12395.649755 kJ/mol
# Density = 1.617253 g / cm^3
# Si number density = 16.209426 Si / 1000 Ang^3
#
#
#
# Elastic Constant Matrix: (Units=GPa)
#
#
# Indices 1 2 3 4 5 6 
#
# 1 74.8840 36.4617 50.6147 0.0000 0.0000 0.0000
# 2 36.4617 83.7919 38.9147 0.0000 0.0000 0.0000
# 3 50.6147 38.9147 118.2456 0.0000 0.0000 0.0000
# 4 0.0000 0.0000 0.0000 21.7665 0.0000 0.0000
# 5 0.0000 0.0000 0.0000 0.0000 28.8144 0.0000
# 6 0.0000 0.0000 0.0000 0.0000 0.0000 24.1222
#
#
#
# Elastic Compliance Matrix: (Units=1/GPa)
#
#
# Indices 1 2 3 4 5 6 
#
# 1 0.020967 -0.005850 -0.007050 0.000000 0.000000 0.000000
# 2 -0.005850 0.015720 -0.002669 0.000000 0.000000 0.000000
# 3 -0.007050 -0.002669 0.012353 0.000000 0.000000 0.000000
# 4 0.000000 0.000000 0.000000 0.045942 0.000000 0.000000
# 5 0.000000 0.000000 0.000000 0.000000 0.034705 0.000000
# 6 0.000000 0.000000 0.000000 0.000000 0.000000 0.041456
#
#
# Mechanical properties :
#
#
# Convention : Reuss Voigt Hill
#
# Bulk Modulus (GPa) = 55.85937 58.76708 57.31323
# Shear Modulus (GPa) = 24.00985 25.00265 24.50625
#
# Velocity S-wave (km/s) = 3.85285 3.93170 3.89247
# Velocity P-wave (km/s) = 7.37078 7.54616 7.45899
#
# Compressibility (1/GPa) = 0.01790210
#
# Stress axis : x y z
#
# Youngs Moduli (GPa) = 47.69313 63.61516 80.95111
#
# Poissons Ratio (x) = 0.37213 0.57070
# Poissons Ratio (y) = 0.27899 0.21608
# Poissons Ratio (z) = 0.33623 0.16981
#
# Static dielectric constant tensor:
#      x y z
#    x 2.822290 0.000000 0.000000 
#    y 0.000000 3.155320 0.000000 
#    z 0.000000 0.000000 3.320370 
# 
# 
# High freq. dielectric constant tensor:
#      x y z
#    x 1.583110 0.000000 0.000000 
#    y 0.000000 1.610640 0.000000 
#    z 0.000000 0.000000 1.634020 
# 
# From -- ./inp_files/48438.got.cif
#   From: 2010.03.12/outbox.cif.g09.slc.cpg/sg63_25_cif.got.tgz:48438.got - 2010.04.10 19:34:48.
