data_PCOD8256931
_publ_section_title
;
Structure prediction by ZEFSAII (Michael W. Deem and Ramdas Pophale) SiO2 
 PCOD8256931
Probable space group: C M C M
;
_chemical_formula_sum "Si O2"
_cell_formula_units_Z 104
_cell_length_a 28.066417
_cell_length_b 24.109360
_cell_length_c 9.123729
_cell_angle_alpha 90.000000
_cell_angle_beta 90.000000
_cell_angle_gamma 90.000000
_cell_volume 6173.693042
_symmetry_space_group_name_H-M "C M C M"
_symmetry_group_IT_number 63
_symmetry_cell_setting 'orthorhombic'
loop_
_space_group_symop_operation_xyz
x,y,z
-x,-y,1/2+z
x,-y,-z
-x,y,1/2-z
-x,-y,-z
x,y,1/2-z
-x,y,z
x,-y,1/2+z
1/2+x,1/2+y,z
1/2-x,1/2-y,1/2+z
1/2+x,1/2-y,-z
1/2-x,1/2+y,1/2-z
1/2-x,1/2-y,-z
1/2+x,1/2+y,1/2-z
1/2-x,1/2+y,z
1/2+x,1/2-y,1/2+z
loop_
_atom_site_type_symbol
_atom_site_label
_atom_site_fract_x
_atom_site_fract_y
_atom_site_fract_z
Si Si1 0.593301 0.624481 0.420927
Si Si2 0.380708 0.059357 0.577686
Si Si3 0.000000 0.058406 0.422492
Si Si4 0.945063 0.757135 0.582341
Si Si5 0.326035 0.559406 0.577705
Si Si6 0.777525 0.556261 0.916864
Si Si7 0.943871 0.352404 0.918185
O O1 0.603099 0.614051 0.250000
O O2 0.546414 0.591968 0.472907
O O3 0.586714 0.689438 0.454374
O O4 0.637749 0.604000 0.514401
O O5 0.390729 0.051706 0.750000
O O6 0.327800 0.087259 0.549550
O O7 0.419617 0.099645 0.510957
O O8 0.385037 0.000000 0.500000
O O9 0.000000 0.049150 0.250000
O O10 0.000000 0.000000 0.500000
O O11 0.937847 0.738311 0.750000
O O12 0.927843 0.707404 0.478696
O O13 0.000000 0.772946 0.553957
O O14 0.332827 0.500000 0.500000
O O15 0.335478 0.551079 0.750000
O O16 0.273002 0.585934 0.546395
O O17 0.776841 0.538342 0.750000
O O18 0.778778 0.500000 0.000000
O O19 0.927919 0.356734 0.750000
O O20 0.000000 0.360086 0.937499
#
# Coordination Sequence:
#
# PCOD8256931 Si02
#       7
#    16  16   8  16  16  16  16
#     4  10  19  32  49  69  95 127 165 207 249 294
#     4  10  19  33  54  78 103 132 163 196 238 288
#     4  10  20  32  44  64  96 130 161 200 247 294
#     4   9  17  33  54  71  91 126 169 208 245 289
#     4  10  19  31  47  70  99 129 162 203 249 295
#     4   8  16  30  48  70  96 126 161 199 239 286
#     4  10  21  35  51  75 105 132 160 198 239 286
#
# _framework density 16.845669999999998
#
# number of rings (size 3 to 8) (size 9 to 14) (size 15 to 20)
#    0.000    2.462    0.769    1.846    0.000    4.923 
#    0.000    0.000    0.000    0.923    0.000    0.000 
#    0.000    0.000    0.000    0.000    0.000    0.000 
#
# Total GULP energy -644414.371426 kJ/mol
# GULP energy per Si atom -12392.584066 kJ/mol
# Density = 1.680733 g / cm^3
# Si number density = 16.845670 Si / 1000 Ang^3
#
#
#
# Elastic Constant Matrix: (Units=GPa)
#
#
# Indices 1 2 3 4 5 6 
#
# 1 85.7995 55.0521 50.9652 0.0000 0.0000 0.0000
# 2 55.0521 92.2287 52.4824 0.0000 0.0000 0.0000
# 3 50.9652 52.4824 86.4799 0.0000 0.0000 0.0000
# 4 0.0000 0.0000 0.0000 29.5301 0.0000 0.0000
# 5 0.0000 0.0000 0.0000 0.0000 25.4105 0.0000
# 6 0.0000 0.0000 0.0000 0.0000 0.0000 7.5467
#
#
#
# Elastic Compliance Matrix: (Units=1/GPa)
#
#
# Indices 1 2 3 4 5 6 
#
# 1 0.021679 -0.008661 -0.007520 0.000000 0.000000 0.000000
# 2 -0.008661 0.020023 -0.007047 0.000000 0.000000 0.000000
# 3 -0.007520 -0.007047 0.020272 0.000000 0.000000 0.000000
# 4 0.000000 0.000000 0.000000 0.033864 0.000000 0.000000
# 5 0.000000 0.000000 0.000000 0.000000 0.039354 0.000000
# 6 0.000000 0.000000 0.000000 0.000000 0.000000 0.132508
#
#
# Mechanical properties :
#
#
# Convention : Reuss Voigt Hill
#
# Bulk Modulus (GPa) = 64.44386 64.61194 64.52790
# Shear Modulus (GPa) = 15.65786 19.56469 17.61128
#
# Velocity S-wave (km/s) = 3.05206 3.41164 3.23685
# Velocity P-wave (km/s) = 7.12451 7.34558 7.23589
#
# Compressibility (1/GPa) = 0.01551738
#
# Stress axis : x y z
#
# Youngs Moduli (GPa) = 46.12668 49.94348 49.33006
#
# Poissons Ratio (x) = 0.43258 0.37096
# Poissons Ratio (y) = 0.39952 0.34762
# Poissons Ratio (z) = 0.34687 0.35194
#
# Static dielectric constant tensor:
#      x y z
#    x 3.711150 0.000000 0.000000 
#    y 0.000000 2.903620 0.000000 
#    z 0.000000 0.000000 3.262270 
# 
# 
# High freq. dielectric constant tensor:
#      x y z
#    x 1.654210 0.000000 0.000000 
#    y 0.000000 1.622880 0.000000 
#    z 0.000000 0.000000 1.659320 
# 
# From -- ./inp_files/12844.got.cif
#   From: 2010.03.12/outbox.cif.g09.slc.cpg/sg63_7_cif.got.tgz:12844.got - 2010.04.10 19:34:48.
