data_PCOD8256499
_publ_section_title
;
Structure prediction by ZEFSAII (Michael W. Deem and Ramdas Pophale) SiO2 
 PCOD8256499
Probable space group: C M C M
;
_chemical_formula_sum "Si O2"
_cell_formula_units_Z 104
_cell_length_a 12.249611
_cell_length_b 18.521554
_cell_length_c 24.211523
_cell_angle_alpha 90.000000
_cell_angle_beta 90.000000
_cell_angle_gamma 90.000000
_cell_volume 5493.154684
_symmetry_space_group_name_H-M "C M C M"
_symmetry_group_IT_number 63
_symmetry_cell_setting 'orthorhombic'
loop_
_space_group_symop_operation_xyz
x,y,z
-x,-y,1/2+z
x,-y,-z
-x,y,1/2-z
-x,-y,-z
x,y,1/2-z
-x,y,z
x,-y,1/2+z
1/2+x,1/2+y,z
1/2-x,1/2-y,1/2+z
1/2+x,1/2-y,-z
1/2-x,1/2+y,1/2-z
1/2-x,1/2-y,-z
1/2+x,1/2+y,1/2-z
1/2-x,1/2+y,z
1/2+x,1/2-y,1/2+z
loop_
_atom_site_type_symbol
_atom_site_label
_atom_site_fract_x
_atom_site_fract_y
_atom_site_fract_z
Si Si1 0.204147 0.937993 0.070034
Si Si2 0.736772 0.663151 0.135580
Si Si3 0.881440 0.854445 0.250000
Si Si4 0.121165 0.086396 0.455509
Si Si5 0.131848 0.130126 0.250000
Si Si6 0.729721 0.988201 0.250000
Si Si7 0.377252 0.299083 0.132474
Si Si8 0.872843 0.519746 0.363561
O O1 0.159371 0.876111 0.109356
O O2 0.322271 0.964970 0.091054
O O3 0.124823 0.007768 0.073720
O O4 0.207140 0.910118 0.006533
O O5 0.645178 0.647594 0.089561
O O6 0.679096 0.669985 0.195504
O O7 0.794238 0.736381 0.115440
O O8 0.826183 0.600236 0.132339
O O9 0.785932 0.911439 0.250000
O O10 0.872827 0.801482 0.198305
O O11 0.000000 0.893929 0.250000
O O12 0.000000 0.099720 0.479052
O O13 0.000000 0.131428 0.250000
O O14 0.175152 0.048208 0.250000
O O15 0.651590 0.991278 0.197457
O O16 0.500000 0.281548 0.111691
O O17 0.000000 0.522261 0.375207
#
# Coordination Sequence:
#
# PCOD8256499 Si02
#       8
#    16  16   8  16   8   8  16  16
#     4  10  20  36  59  83 111 141 192 237 280 333
#     4  10  22  36  56  82 116 147 191 223 274 347
#     4  10  20  32  54  86 115 141 177 231 282 322
#     4  10  20  38  60  85 111 145 187 241 292 328
#     4  10  20  36  58  84 114 149 184 232 282 332
#     4  10  18  34  56  86 111 140 187 237 274 336
#     4  11  21  36  57  82 114 148 183 230 280 332
#     4  10  20  36  56  81 113 150 186 228 281 333
#
# _framework density 18.932653999999999
#
# number of rings (size 3 to 8) (size 9 to 14) (size 15 to 20)
#    0.000    1.846    1.538    3.692    0.000    0.615 
#    0.000   10.769    0.000    0.000    0.000    0.000 
#    0.000    0.000    0.000    0.000    0.000    0.000 
#
# Total GULP energy -644688.008983 kJ/mol
# GULP energy per Si atom -12397.846327 kJ/mol
# Density = 1.888956 g / cm^3
# Si number density = 18.932654 Si / 1000 Ang^3
#
#
#
# Elastic Constant Matrix: (Units=GPa)
#
#
# Indices 1 2 3 4 5 6 
#
# 1 126.3317 34.1245 41.4221 0.0000 0.0000 0.0000
# 2 34.1245 73.6766 32.5339 0.0000 0.0000 0.0000
# 3 41.4221 32.5339 108.7404 0.0000 0.0000 0.0000
# 4 0.0000 0.0000 0.0000 40.7630 0.0000 0.0000
# 5 0.0000 0.0000 0.0000 0.0000 34.2012 0.0000
# 6 0.0000 0.0000 0.0000 0.0000 0.0000 20.9849
#
#
#
# Elastic Compliance Matrix: (Units=1/GPa)
#
#
# Indices 1 2 3 4 5 6 
#
# 1 0.009693 -0.003294 -0.002707 0.000000 0.000000 0.000000
# 2 -0.003294 0.016759 -0.003759 0.000000 0.000000 0.000000
# 3 -0.002707 -0.003759 0.011352 0.000000 0.000000 0.000000
# 4 0.000000 0.000000 0.000000 0.024532 0.000000 0.000000
# 5 0.000000 0.000000 0.000000 0.000000 0.029239 0.000000
# 6 0.000000 0.000000 0.000000 0.000000 0.000000 0.047653
#
#
# Mechanical properties :
#
#
# Convention : Reuss Voigt Hill
#
# Bulk Modulus (GPa) = 54.69451 58.32329 56.50890
# Shear Modulus (GPa) = 30.33203 32.56769 31.44986
#
# Velocity S-wave (km/s) = 4.00697 4.15201 4.08013
# Velocity P-wave (km/s) = 7.09644 7.33881 7.21864
#
# Compressibility (1/GPa) = 0.01828337
#
# Stress axis : x y z
#
# Youngs Moduli (GPa) = 103.16729 59.67101 88.09048
#
# Poissons Ratio (x) = 0.19657 0.23844
# Poissons Ratio (y) = 0.33986 0.33114
# Poissons Ratio (z) = 0.27924 0.22431
#
# Static dielectric constant tensor:
#      x y z
#    x 3.387890 0.000000 0.000000 
#    y 0.000000 3.225680 0.000000 
#    z 0.000000 0.000000 3.763990 
# 
# 
# High freq. dielectric constant tensor:
#      x y z
#    x 1.726560 0.000000 0.000000 
#    y 0.000000 1.718900 0.000000 
#    z 0.000000 0.000000 1.745240 
# 
# From -- ./inp_files/68465.got.cif
#   From: 2010.03.12/outbox.cif.g09.slc.cpg/sg63_35_cif.got.tgz:68465.got - 2010.04.10 19:34:48.
