data_PCOD8256460
_publ_section_title
;
Structure prediction by ZEFSAII (Michael W. Deem and Ramdas Pophale) SiO2 
 PCOD8256460
Probable space group: C M C M
;
_chemical_formula_sum "Si O2"
_cell_formula_units_Z 96
_cell_length_a 8.824678
_cell_length_b 25.511357
_cell_length_c 23.435010
_cell_angle_alpha 90.000000
_cell_angle_beta 90.000000
_cell_angle_gamma 90.000000
_cell_volume 5275.912338
_symmetry_space_group_name_H-M "C M C M"
_symmetry_group_IT_number 63
_symmetry_cell_setting 'orthorhombic'
loop_
_space_group_symop_operation_xyz
x,y,z
-x,-y,1/2+z
x,-y,-z
-x,y,1/2-z
-x,-y,-z
x,y,1/2-z
-x,y,z
x,-y,1/2+z
1/2+x,1/2+y,z
1/2-x,1/2-y,1/2+z
1/2+x,1/2-y,-z
1/2-x,1/2+y,1/2-z
1/2-x,1/2-y,-z
1/2+x,1/2+y,1/2-z
1/2-x,1/2+y,z
1/2+x,1/2-y,1/2+z
loop_
_atom_site_type_symbol
_atom_site_label
_atom_site_fract_x
_atom_site_fract_y
_atom_site_fract_z
Si Si1 0.179791 0.404814 0.385890
Si Si2 0.324633 0.308427 0.816699
Si Si3 0.820333 0.441427 0.993950
Si Si4 0.178734 0.594847 0.371442
Si Si5 0.319932 0.808895 0.313369
Si Si6 0.676057 0.497663 0.184227
O O1 0.233491 0.406892 0.451789
O O2 0.246322 0.351825 0.357401
O O3 0.237605 0.455784 0.353723
O O4 0.000000 0.405645 0.381345
O O5 0.298071 0.319175 0.750000
O O6 0.500000 0.317290 0.832435
O O7 0.221144 0.346350 0.854179
O O8 0.271429 0.249429 0.832411
O O9 0.000000 0.444820 0.992883
O O10 0.752554 0.500000 0.000000
O O11 0.761454 0.414998 0.935838
O O12 0.260520 0.555288 0.328464
O O13 0.000000 0.586435 0.366843
O O14 0.256116 0.821361 0.250000
O O15 0.500000 0.811331 0.311340
O O16 0.705962 0.484324 0.250000
O O17 0.500000 0.496286 0.169074
#
# Coordination Sequence:
#
# PCOD8256460 Si02
#       6
#    16  16  16  16  16  16
#     4  10  18  33  57  78  99 132 177 214 244 298
#     4   9  18  34  53  74 104 135 164 208 262 304
#     4   9  17  32  51  74 103 134 166 210 261 293
#     4  11  21  34  53  75 100 133 176 212 245 302
#     4   8  15  29  52  79 101 128 169 211 251 299
#     4  11  23  35  48  73 108 136 160 205 267 311
#
# _framework density 18.195905
#
# number of rings (size 3 to 8) (size 9 to 14) (size 15 to 20)
#    0.000    2.333    1.667    3.000    0.000    4.333 
#    0.000    4.167    0.000    1.000    0.000    0.000 
#    0.000    0.000    0.000    0.000    0.000    0.000 
#
# Total GULP energy -595150.336473 kJ/mol
# GULP energy per Si atom -12398.965343 kJ/mol
# Density = 1.815449 g / cm^3
# Si number density = 18.195905 Si / 1000 Ang^3
#
#
#
# Elastic Constant Matrix: (Units=GPa)
#
#
# Indices 1 2 3 4 5 6 
#
# 1 8.1600 6.8629 22.6421 0.0000 0.0000 0.0000
# 2 6.8629 114.9970 51.6384 0.0000 0.0000 0.0000
# 3 22.6421 51.6384 98.2868 0.0000 0.0000 0.0000
# 4 0.0000 0.0000 0.0000 22.6414 0.0000 0.0000
# 5 0.0000 0.0000 0.0000 0.0000 16.8989 0.0000
# 6 0.0000 0.0000 0.0000 0.0000 0.0000 23.5096
#
#
#
# Elastic Compliance Matrix: (Units=1/GPa)
#
#
# Indices 1 2 3 4 5 6 
#
# 1 0.376540 0.021568 -0.098074 0.000000 0.000000 0.000000
# 2 0.021568 0.012616 -0.011597 0.000000 0.000000 0.000000
# 3 -0.098074 -0.011597 0.038860 0.000000 0.000000 0.000000
# 4 0.000000 0.000000 0.000000 0.044167 0.000000 0.000000
# 5 0.000000 0.000000 0.000000 0.000000 0.059175 0.000000
# 6 0.000000 0.000000 0.000000 0.000000 0.000000 0.042536
#
#
# Mechanical properties :
#
#
# Convention : Reuss Voigt Hill
#
# Bulk Modulus (GPa) = 3.97124 42.63673 23.30398
# Shear Modulus (GPa) = 5.99493 21.96335 13.97914
#
# Velocity S-wave (km/s) = 1.81709 3.47803 2.77475
# Velocity P-wave (km/s) = 2.56703 6.29379 4.80632
#
# Compressibility (1/GPa) = 0.25181041
#
# Stress axis : x y z
#
# Youngs Moduli (GPa) = 2.65576 79.26310 25.73326
#
# Poissons Ratio (x) = -1.70953 2.52377
# Poissons Ratio (y) = -0.05728 0.29843
# Poissons Ratio (z) = 0.26046 0.91920
#
# Static dielectric constant tensor:
#      x y z
#    x 3.004480 0.000000 0.000000 
#    y 0.000000 3.515670 0.000000 
#    z 0.000000 0.000000 3.667830 
# 
# 
# High freq. dielectric constant tensor:
#      x y z
#    x 1.672030 0.000000 0.000000 
#    y 0.000000 1.708930 0.000000 
#    z 0.000000 0.000000 1.707730 
# 
# From -- ./inp_files/51261.got.cif
#   From: 2010.03.12/outbox.cif.g09.slc.cpg/sg63_26_cif.got.tgz:51261.got - 2010.04.10 19:34:48.
