data_PCOD8256836
_publ_section_title
;
Structure prediction by ZEFSAII (Michael W. Deem and Ramdas Pophale) SiO2 
 PCOD8256836
Probable space group: C M C M
;
_chemical_formula_sum "Si O2"
_cell_formula_units_Z 96
_cell_length_a 30.001004
_cell_length_b 20.402184
_cell_length_c 8.791630
_cell_angle_alpha 90.000000
_cell_angle_beta 90.000000
_cell_angle_gamma 90.000000
_cell_volume 5381.233674
_symmetry_space_group_name_H-M "C M C M"
_symmetry_group_IT_number 63
_symmetry_cell_setting 'orthorhombic'
loop_
_space_group_symop_operation_xyz
x,y,z
-x,-y,1/2+z
x,-y,-z
-x,y,1/2-z
-x,-y,-z
x,y,1/2-z
-x,y,z
x,-y,1/2+z
1/2+x,1/2+y,z
1/2-x,1/2-y,1/2+z
1/2+x,1/2-y,-z
1/2-x,1/2+y,1/2-z
1/2-x,1/2-y,-z
1/2+x,1/2+y,1/2-z
1/2-x,1/2+y,z
1/2+x,1/2-y,1/2+z
loop_
_atom_site_type_symbol
_atom_site_label
_atom_site_fract_x
_atom_site_fract_y
_atom_site_fract_z
Si Si1 0.136971 0.729523 0.576248
Si Si2 0.548796 0.614318 0.578838
Si Si3 0.951247 0.270026 0.578880
Si Si4 0.275489 0.811044 0.570552
Si Si5 0.637213 0.615380 0.423948
Si Si6 0.275210 0.431584 0.429847
O O1 0.146141 0.710395 0.750000
O O2 0.087824 0.703595 0.530354
O O3 0.172424 0.693252 0.469494
O O4 0.140991 0.807069 0.550825
O O5 0.557543 0.589182 0.750000
O O6 0.500000 0.589265 0.521541
O O7 0.548841 0.692177 0.576902
O O8 0.588206 0.588529 0.469952
O O9 0.942380 0.295160 0.750000
O O10 0.000000 0.295148 0.522164
O O11 0.268140 0.810432 0.750000
O O12 0.250000 0.750000 0.500000
O O13 0.256110 0.877144 0.502568
O O14 0.646496 0.596109 0.250000
O O15 0.673194 0.580657 0.530199
O O16 0.259262 0.500000 0.500000
O O17 0.269196 0.431881 0.250000
#
# Coordination Sequence:
#
# PCOD8256836 Si02
#       6
#    16  16  16  16  16  16
#     4  10  19  30  48  75 106 138 176 219 263 311
#     4   8  14  25  42  65  94 129 170 214 262 312
#     4   8  14  25  41  64  98 137 173 211 259 311
#     4  12  23  37  57  81 108 140 179 222 269 318
#     4  10  19  31  49  73 102 134 174 218 263 315
#     4  12  25  41  59  78 105 139 176 221 269 322
#
# _framework density 17.839773999999998
#
# number of rings (size 3 to 8) (size 9 to 14) (size 15 to 20)
#    0.000    2.000    1.667    5.000    0.000    2.000 
#    0.000    3.333    0.000    0.500    0.000    0.000 
#    0.000    0.667    0.000    2.500    0.000    3.833 
#
# Total GULP energy -595115.856796 kJ/mol
# GULP energy per Si atom -12398.247017 kJ/mol
# Density = 1.779917 g / cm^3
# Si number density = 17.839774 Si / 1000 Ang^3
#
#
#
# Elastic Constant Matrix: (Units=GPa)
#
#
# Indices 1 2 3 4 5 6 
#
# 1 115.3483 39.4747 53.1783 0.0000 0.0000 0.0000
# 2 39.4747 65.7973 44.0914 0.0000 0.0000 0.0000
# 3 53.1783 44.0914 134.7272 0.0000 0.0000 0.0000
# 4 0.0000 0.0000 0.0000 20.2479 0.0000 0.0000
# 5 0.0000 0.0000 0.0000 0.0000 35.1218 0.0000
# 6 0.0000 0.0000 0.0000 0.0000 0.0000 9.1213
#
#
#
# Elastic Compliance Matrix: (Units=1/GPa)
#
#
# Indices 1 2 3 4 5 6 
#
# 1 0.011782 -0.005062 -0.002994 0.000000 0.000000 0.000000
# 2 -0.005062 0.021643 -0.005085 0.000000 0.000000 0.000000
# 3 -0.002994 -0.005085 0.010268 0.000000 0.000000 0.000000
# 4 0.000000 0.000000 0.000000 0.049388 0.000000 0.000000
# 5 0.000000 0.000000 0.000000 0.000000 0.028472 0.000000
# 6 0.000000 0.000000 0.000000 0.000000 0.000000 0.109633
#
#
# Mechanical properties :
#
#
# Convention : Reuss Voigt Hill
#
# Bulk Modulus (GPa) = 57.43463 65.48462 61.45963
# Shear Modulus (GPa) = 18.99181 24.84011 21.91596
#
# Velocity S-wave (km/s) = 3.26632 3.73554 3.50878
# Velocity P-wave (km/s) = 6.81834 7.44261 7.13730
#
# Compressibility (1/GPa) = 0.01741110
#
# Stress axis : x y z
#
# Youngs Moduli (GPa) = 84.87478 46.20508 97.38898
#
# Poissons Ratio (x) = 0.23391 0.29156
# Poissons Ratio (y) = 0.42967 0.49519
# Poissons Ratio (z) = 0.25409 0.23494
#
# Static dielectric constant tensor:
#      x y z
#    x 3.779140 0.000000 0.000000 
#    y 0.000000 2.896880 0.000000 
#    z 0.000000 0.000000 3.425840 
# 
# 
# High freq. dielectric constant tensor:
#      x y z
#    x 1.705120 0.000000 0.000000 
#    y 0.000000 1.628660 0.000000 
#    z 0.000000 0.000000 1.699770 
# 
# From -- ./inp_files/12306.got.cif
#   From: 2010.03.12/outbox.cif.g09.slc.cpg/sg63_7_cif.got.tgz:12306.got - 2010.04.10 19:34:48.
