data_PCOD8256885
_publ_section_title
;
Structure prediction by ZEFSAII (Michael W. Deem and Ramdas Pophale) SiO2 
 PCOD8256885
Probable space group: C M C M
;
_chemical_formula_sum "Si O2"
_cell_formula_units_Z 80
_cell_length_a 19.508901
_cell_length_b 25.153163
_cell_length_c 9.147925
_cell_angle_alpha 90.000000
_cell_angle_beta 90.000000
_cell_angle_gamma 90.000000
_cell_volume 4488.983462
_symmetry_space_group_name_H-M "C M C M"
_symmetry_group_IT_number 63
_symmetry_cell_setting 'orthorhombic'
loop_
_space_group_symop_operation_xyz
x,y,z
-x,-y,1/2+z
x,-y,-z
-x,y,1/2-z
-x,-y,-z
x,y,1/2-z
-x,y,z
x,-y,1/2+z
1/2+x,1/2+y,z
1/2-x,1/2-y,1/2+z
1/2+x,1/2-y,-z
1/2-x,1/2+y,1/2-z
1/2-x,1/2-y,-z
1/2+x,1/2+y,1/2-z
1/2-x,1/2+y,z
1/2+x,1/2-y,1/2+z
loop_
_atom_site_type_symbol
_atom_site_label
_atom_site_fract_x
_atom_site_fract_y
_atom_site_fract_z
Si Si1 0.500000 0.261693 0.912288
Si Si2 0.641443 0.251483 0.078448
Si Si3 0.756088 0.449403 0.412024
Si Si4 0.500000 0.384742 0.590016
Si Si5 0.739539 0.829398 0.422558
Si Si6 0.905236 0.950438 0.087154
O O1 0.500000 0.234335 0.750000
O O2 0.500000 0.323268 0.886312
O O3 0.568273 0.246998 0.000616
O O4 0.629480 0.243680 0.250000
O O5 0.683178 0.306725 0.048371
O O6 0.686128 0.203152 0.017626
O O7 0.787368 0.500000 0.500000
O O8 0.787453 0.453567 0.250000
O O9 0.770079 0.390552 0.476917
O O10 0.675300 0.454294 0.407315
O O11 0.500000 0.412485 0.750000
O O12 0.568406 0.398869 0.499010
O O13 0.723414 0.824334 0.250000
O O14 0.935481 0.949181 0.250000
O O15 0.936879 0.000000 0.000000
#
# Coordination Sequence:
#
# PCOD8256885 Si02
#       6
#     8  16  16   8  16  16
#     4  11  23  36  50  71 100 131 164 206 255 302
#     4  10  20  34  54  77 101 132 171 211 251 301
#     4   9  18  31  48  70  96 126 160 200 244 291
#     4  11  22  32  43  61  86 121 163 202 241 286
#     4   9  18  34  53  75 104 135 167 206 255 302
#     4  10  19  31  45  62  88 123 162 202 242 282
#
# _framework density 17.821408000000002
#
# number of rings (size 3 to 8) (size 9 to 14) (size 15 to 20)
#    0.000    2.200    0.000    3.300    0.000    5.600 
#    0.000    0.000    0.000    0.000    0.000    0.700 
#    0.000    0.000    0.000    0.000    0.000    0.000 
#
# Total GULP energy -495591.469643 kJ/mol
# GULP energy per Si atom -12389.786741 kJ/mol
# Density = 1.778085 g / cm^3
# Si number density = 17.821408 Si / 1000 Ang^3
#
#
#
# Elastic Constant Matrix: (Units=GPa)
#
#
# Indices 1 2 3 4 5 6 
#
# 1 80.0317 25.0867 47.4702 0.0000 0.0000 0.0000
# 2 25.0867 112.8861 51.0547 0.0000 0.0000 0.0000
# 3 47.4702 51.0547 127.8191 0.0000 0.0000 0.0000
# 4 0.0000 0.0000 0.0000 27.8314 0.0000 0.0000
# 5 0.0000 0.0000 0.0000 0.0000 28.3712 0.0000
# 6 0.0000 0.0000 0.0000 0.0000 0.0000 20.4314
#
#
#
# Elastic Compliance Matrix: (Units=1/GPa)
#
#
# Indices 1 2 3 4 5 6 
#
# 1 0.016130 -0.001068 -0.005564 0.000000 0.000000 0.000000
# 2 -0.001068 0.010882 -0.003950 0.000000 0.000000 0.000000
# 3 -0.005564 -0.003950 0.011468 0.000000 0.000000 0.000000
# 4 0.000000 0.000000 0.000000 0.035931 0.000000 0.000000
# 5 0.000000 0.000000 0.000000 0.000000 0.035247 0.000000
# 6 0.000000 0.000000 0.000000 0.000000 0.000000 0.048944
#
#
# Mechanical properties :
#
#
# Convention : Reuss Voigt Hill
#
# Bulk Modulus (GPa) = 57.75032 63.10669 60.42850
# Shear Modulus (GPa) = 26.94866 28.46848 27.70857
#
# Velocity S-wave (km/s) = 3.89286 4.00112 3.94736
# Velocity P-wave (km/s) = 7.25818 7.53875 7.39980
#
# Compressibility (1/GPa) = 0.01731592
#
# Stress axis : x y z
#
# Youngs Moduli (GPa) = 61.99622 91.89202 87.20219
#
# Poissons Ratio (x) = 0.09816 0.48517
# Poissons Ratio (y) = 0.06623 0.34445
# Poissons Ratio (z) = 0.34493 0.36297
#
# Static dielectric constant tensor:
#      x y z
#    x 2.991910 0.000000 0.000000 
#    y 0.000000 3.380360 0.000000 
#    z 0.000000 0.000000 3.713590 
# 
# 
# High freq. dielectric constant tensor:
#      x y z
#    x 1.655110 0.000000 0.000000 
#    y 0.000000 1.682320 0.000000 
#    z 0.000000 0.000000 1.702930 
# 
# From -- ./inp_files/6475.got.cif
#   From: 2010.03.12/outbox.cif.g09.slc.cpg/sg63_4_cif.got.tgz:6475.got - 2010.04.10 19:34:48.
