data_PCOD8256027
_publ_section_title
;
Structure prediction by ZEFSAII (Michael W. Deem and Ramdas Pophale) SiO2 
 PCOD8256027
Probable space group: C M C M
;
_chemical_formula_sum "Si O2"
_cell_formula_units_Z 96
_cell_length_a 8.730039
_cell_length_b 23.746439
_cell_length_c 25.848520
_cell_angle_alpha 90.000000
_cell_angle_beta 90.000000
_cell_angle_gamma 90.000000
_cell_volume 5358.587887
_symmetry_space_group_name_H-M "C M C M"
_symmetry_group_IT_number 63
_symmetry_cell_setting 'orthorhombic'
loop_
_space_group_symop_operation_xyz
x,y,z
-x,-y,1/2+z
x,-y,-z
-x,y,1/2-z
-x,-y,-z
x,y,1/2-z
-x,y,z
x,-y,1/2+z
1/2+x,1/2+y,z
1/2-x,1/2-y,1/2+z
1/2+x,1/2-y,-z
1/2-x,1/2+y,1/2-z
1/2-x,1/2-y,-z
1/2+x,1/2+y,1/2-z
1/2-x,1/2+y,z
1/2+x,1/2-y,1/2+z
loop_
_atom_site_type_symbol
_atom_site_label
_atom_site_fract_x
_atom_site_fract_y
_atom_site_fract_z
Si Si1 0.822545 0.663274 0.393439
Si Si2 0.324595 0.396539 0.424996
Si Si3 0.323237 0.726058 0.948312
Si Si4 0.321520 0.997461 0.121277
Si Si5 0.324883 0.426532 0.540582
Si Si6 0.319030 0.410389 0.809061
O O1 0.801769 0.730301 0.400737
O O2 0.728978 0.634708 0.440173
O O3 0.757070 0.642592 0.338513
O O4 0.000000 0.645568 0.397264
O O5 0.500000 0.392777 0.406787
O O6 0.252092 0.333882 0.430454
O O7 0.232453 0.432355 0.382060
O O8 0.310614 0.429649 0.479162
O O9 0.500000 0.715714 0.961670
O O10 0.250000 0.750000 0.000000
O O11 0.500000 0.999658 0.132915
O O12 0.282944 0.026946 0.066704
O O13 0.234611 0.030222 0.167036
O O14 0.500000 0.437113 0.558190
O O15 0.264557 0.407717 0.750000
O O16 0.500000 0.405494 0.814261
#
# Coordination Sequence:
#
# PCOD8256027 Si02
#       6
#    16  16  16  16  16  16
#     4  10  19  31  51  79 108 135 170 217 260 300
#     4  10  20  33  48  69 103 145 181 209 245 301
#     4  10  20  33  50  74 106 145 182 214 250 298
#     4  11  22  33  49  75 104 132 167 216 264 307
#     4  10  18  30  49  70 100 142 177 209 249 298
#     4  10  21  38  60  80  99 129 168 212 265 321
#
# _framework density 17.915167
#
# number of rings (size 3 to 8) (size 9 to 14) (size 15 to 20)
#    0.000    1.833    1.667    5.500    0.000    6.000 
#    0.000    0.000    0.000    1.000    0.000    2.333 
#    0.000    0.000    0.000    0.000    0.000    0.000 
#
# Total GULP energy -595120.626293 kJ/mol
# GULP energy per Si atom -12398.346381 kJ/mol
# Density = 1.787439 g / cm^3
# Si number density = 17.915167 Si / 1000 Ang^3
#
#
#
# Elastic Constant Matrix: (Units=GPa)
#
#
# Indices 1 2 3 4 5 6 
#
# 1 62.6295 21.9261 27.8113 0.0000 0.0000 0.0000
# 2 21.9261 108.3680 38.9217 0.0000 0.0000 0.0000
# 3 27.8113 38.9217 85.4397 0.0000 0.0000 0.0000
# 4 0.0000 0.0000 0.0000 15.3192 0.0000 0.0000
# 5 0.0000 0.0000 0.0000 0.0000 20.0293 0.0000
# 6 0.0000 0.0000 0.0000 0.0000 0.0000 27.6342
#
#
#
# Elastic Compliance Matrix: (Units=1/GPa)
#
#
# Indices 1 2 3 4 5 6 
#
# 1 0.019000 -0.001940 -0.005301 0.000000 0.000000 0.000000
# 2 -0.001940 0.011231 -0.004485 0.000000 0.000000 0.000000
# 3 -0.005301 -0.004485 0.015473 0.000000 0.000000 0.000000
# 4 0.000000 0.000000 0.000000 0.065277 0.000000 0.000000
# 5 0.000000 0.000000 0.000000 0.000000 0.049927 0.000000
# 6 0.000000 0.000000 0.000000 0.000000 0.000000 0.036187
#
#
# Mechanical properties :
#
#
# Convention : Reuss Voigt Hill
#
# Bulk Modulus (GPa) = 44.93956 48.19505 46.56730
# Shear Modulus (GPa) = 21.93326 23.78175 22.85751
#
# Velocity S-wave (km/s) = 3.50277 3.64739 3.57581
# Velocity P-wave (km/s) = 6.44192 6.68567 6.56493
#
# Compressibility (1/GPa) = 0.02225211
#
# Stress axis : x y z
#
# Youngs Moduli (GPa) = 52.63123 89.03803 64.63058
#
# Poissons Ratio (x) = 0.17278 0.34259
# Poissons Ratio (y) = 0.10213 0.28985
# Poissons Ratio (z) = 0.27898 0.39931
#
# Static dielectric constant tensor:
#      x y z
#    x 3.371220 0.000000 0.000000 
#    y 0.000000 3.561590 0.000000 
#    z 0.000000 0.000000 3.071070 
# 
# 
# High freq. dielectric constant tensor:
#      x y z
#    x 1.699020 0.000000 0.000000 
#    y 0.000000 1.699310 0.000000 
#    z 0.000000 0.000000 1.655260 
# 
# From -- ./inp_files/67184.got.cif
#   From: 2010.03.12/outbox.cif.g09.slc.cpg/sg63_34_cif.got.tgz:67184.got - 2010.04.10 19:34:48.
