data_PCOD8256588
_publ_section_title
;
Structure prediction by ZEFSAII (Michael W. Deem and Ramdas Pophale) SiO2 
 PCOD8256588
Probable space group: C M C M
;
_chemical_formula_sum "Si O2"
_cell_formula_units_Z 96
_cell_length_a 31.318849
_cell_length_b 27.009475
_cell_length_c 9.057375
_cell_angle_alpha 90.000000
_cell_angle_beta 90.000000
_cell_angle_gamma 90.000000
_cell_volume 7661.684860
_symmetry_space_group_name_H-M "C M C M"
_symmetry_group_IT_number 63
_symmetry_cell_setting 'orthorhombic'
loop_
_space_group_symop_operation_xyz
x,y,z
-x,-y,1/2+z
x,-y,-z
-x,y,1/2-z
-x,-y,-z
x,y,1/2-z
-x,y,z
x,-y,1/2+z
1/2+x,1/2+y,z
1/2-x,1/2-y,1/2+z
1/2+x,1/2-y,-z
1/2-x,1/2+y,1/2-z
1/2-x,1/2-y,-z
1/2+x,1/2+y,1/2-z
1/2-x,1/2+y,z
1/2+x,1/2-y,1/2+z
loop_
_atom_site_type_symbol
_atom_site_label
_atom_site_fract_x
_atom_site_fract_y
_atom_site_fract_z
Si Si1 0.615117 0.884605 0.919198
Si Si2 0.785756 0.782369 0.576719
Si Si3 0.699735 0.052175 0.421668
Si Si4 0.450394 0.050330 0.921242
Si Si5 0.660022 0.194877 0.586197
Si Si6 0.252935 0.133723 0.582521
O O1 0.601281 0.882365 0.750000
O O2 0.655008 0.920373 0.946225
O O3 0.575226 0.903584 0.013250
O O4 0.626839 0.828889 0.971117
O O5 0.775353 0.787811 0.750000
O O6 0.750000 0.750000 0.500000
O O7 0.830841 0.753204 0.552512
O O8 0.785461 0.836541 0.500077
O O9 0.710149 0.045215 0.250000
O O10 0.738267 0.082704 0.496286
O O11 0.695889 0.000000 0.500000
O O12 0.439593 0.044321 0.750000
O O13 0.500000 0.060915 0.949781
O O14 0.435577 0.000000 0.000000
O O15 0.640568 0.188880 0.750000
O O16 0.704920 0.166824 0.577882
O O17 0.238960 0.121964 0.750000
#
# Coordination Sequence:
#
# PCOD8256588 Si02
#       6
#    16  16  16  16  16  16
#     4  10  19  28  40  55  69  85 105 133 167 203
#     4   9  15  23  35  50  67  86 106 129 157 190
#     4  10  19  28  37  50  67  87 111 138 169 203
#     4  10  20  32  44  55  67  84 106 133 166 205
#     4   8  15  25  36  50  68  87 105 127 157 194
#     4   9  16  25  36  49  65  86 109 133 161 193
#
# _framework density 12.52988
#
# number of rings (size 3 to 8) (size 9 to 14) (size 15 to 20)
#    0.000    2.667    0.000    4.000    0.000    9.000 
#    0.000    0.000    0.000    0.000    0.000    0.000 
#    0.000    0.000    0.000    0.000    0.000    0.000 
#
# Total GULP energy -594973.669145 kJ/mol
# GULP energy per Si atom -12395.284774 kJ/mol
# Density = 1.250136 g / cm^3
# Si number density = 12.529880 Si / 1000 Ang^3
#
#
#
# Elastic Constant Matrix: (Units=GPa)
#
#
# Indices 1 2 3 4 5 6 
#
# 1 30.7709 24.5127 31.6524 0.0000 0.0000 0.0000
# 2 24.5127 37.7750 40.8094 0.0000 0.0000 0.0000
# 3 31.6524 40.8094 103.0559 0.0000 0.0000 0.0000
# 4 0.0000 0.0000 0.0000 23.8199 0.0000 0.0000
# 5 0.0000 0.0000 0.0000 0.0000 15.9020 0.0000
# 6 0.0000 0.0000 0.0000 0.0000 0.0000 17.8839
#
#
#
# Elastic Compliance Matrix: (Units=1/GPa)
#
#
# Indices 1 2 3 4 5 6 
#
# 1 0.069392 -0.038456 -0.006085 0.000000 0.000000 0.000000
# 2 -0.038456 0.067577 -0.014948 0.000000 0.000000 0.000000
# 3 -0.006085 -0.014948 0.017492 0.000000 0.000000 0.000000
# 4 0.000000 0.000000 0.000000 0.041982 0.000000 0.000000
# 5 0.000000 0.000000 0.000000 0.000000 0.062885 0.000000
# 6 0.000000 0.000000 0.000000 0.000000 0.000000 0.055916
#
#
# Mechanical properties :
#
#
# Convention : Reuss Voigt Hill
#
# Bulk Modulus (GPa) = 28.18331 40.61675 34.40003
# Shear Modulus (GPa) = 11.20950 16.49629 13.85289
#
# Velocity S-wave (km/s) = 2.99427 3.63237 3.32865
# Velocity P-wave (km/s) = 5.87332 7.07661 6.50286
#
# Compressibility (1/GPa) = 0.03548199
#
# Stress axis : x y z
#
# Youngs Moduli (GPa) = 14.41080 14.79802 57.16970
#
# Poissons Ratio (x) = 0.56908 0.34786
# Poissons Ratio (y) = 0.55419 0.85460
# Poissons Ratio (z) = 0.08768 0.22121
#
# Static dielectric constant tensor:
#      x y z
#    x 2.300820 0.000000 0.000000 
#    y 0.000000 3.695100 0.000000 
#    z 0.000000 0.000000 2.764480 
# 
# 
# High freq. dielectric constant tensor:
#      x y z
#    x 1.418260 0.000000 0.000000 
#    y 0.000000 1.461560 0.000000 
#    z 0.000000 0.000000 1.498010 
# 
# From -- ./inp_files/10707.got.cif
#   From: 2010.03.12/outbox.cif.g09.slc.cpg/sg63_6_cif.got.tgz:10707.got - 2010.04.10 19:34:48.
