data_PCOD8256287
_publ_section_title
;
Structure prediction by ZEFSAII (Michael W. Deem and Ramdas Pophale) SiO2 
 PCOD8256287
Probable space group: C M C M
;
_chemical_formula_sum "Si O2"
_cell_formula_units_Z 112
_cell_length_a 14.427699
_cell_length_b 14.075863
_cell_length_c 28.079808
_cell_angle_alpha 90.000000
_cell_angle_beta 90.000000
_cell_angle_gamma 90.000000
_cell_volume 5702.512400
_symmetry_space_group_name_H-M "C M C M"
_symmetry_group_IT_number 63
_symmetry_cell_setting 'orthorhombic'
loop_
_space_group_symop_operation_xyz
x,y,z
-x,-y,1/2+z
x,-y,-z
-x,y,1/2-z
-x,-y,-z
x,y,1/2-z
-x,y,z
x,-y,1/2+z
1/2+x,1/2+y,z
1/2-x,1/2-y,1/2+z
1/2+x,1/2-y,-z
1/2-x,1/2+y,1/2-z
1/2-x,1/2-y,-z
1/2+x,1/2+y,1/2-z
1/2-x,1/2+y,z
1/2+x,1/2-y,1/2+z
loop_
_atom_site_type_symbol
_atom_site_label
_atom_site_fract_x
_atom_site_fract_y
_atom_site_fract_z
Si Si1 0.741054 0.388052 0.196621
Si Si2 0.262405 0.294498 0.398786
Si Si3 0.738739 0.500353 0.056193
Si Si4 0.392470 0.348572 0.601054
Si Si5 0.604615 0.557747 0.197345
Si Si6 0.391495 0.873854 0.899589
Si Si7 0.894834 0.465465 0.802435
O O1 0.728555 0.346862 0.250000
O O2 0.731858 0.304899 0.158362
O O3 0.665289 0.467248 0.184654
O O4 0.840119 0.437326 0.189453
O O5 0.271053 0.393174 0.425755
O O6 0.164956 0.245192 0.413419
O O7 0.348111 0.227347 0.414372
O O8 0.651177 0.559824 0.075323
O O9 0.837353 0.542539 0.073049
O O10 0.735577 0.500000 0.000000
O O11 0.500000 0.337395 0.586005
O O12 0.380773 0.360647 0.658128
O O13 0.630110 0.598511 0.250000
O O14 0.500000 0.520379 0.196027
O O15 0.500000 0.877068 0.913230
O O16 0.373864 0.887711 0.842955
O O17 0.870990 0.421805 0.750000
O O18 0.000000 0.498612 0.805598
#
# Coordination Sequence:
#
# PCOD8256287 Si02
#       7
#    16  16  16  16  16  16  16
#     4  10  18  31  55  85 117 156 197 231 274 335
#     4  11  22  38  58  90 117 148 194 242 285 342
#     4  11  24  44  64  83 114 152 195 249 305 354
#     4  10  22  39  61  89 119 152 192 238 294 352
#     4   9  17  32  55  82 116 155 190 227 276 339
#     4  10  22  39  61  89 119 152 192 238 294 352
#     4   9  17  32  55  82 116 155 190 227 276 339
#
# _framework density 19.640464999999999
#
# number of rings (size 3 to 8) (size 9 to 14) (size 15 to 20)
#    0.000    2.000    2.857    0.857    0.000    6.286 
#    0.000    1.429    0.000    0.000    0.000    0.000 
#    0.000    0.000    0.000    0.000    0.000    0.000 
#
# Total GULP energy -694234.916311 kJ/mol
# GULP energy per Si atom -12397.052077 kJ/mol
# Density = 1.959576 g / cm^3
# Si number density = 19.640465 Si / 1000 Ang^3
#
#
#
# Elastic Constant Matrix: (Units=GPa)
#
#
# Indices 1 2 3 4 5 6 
#
# 1 61.9296 -16.1601 7.4944 0.0000 0.0000 0.0000
# 2 -16.1601 46.2642 13.3415 0.0000 0.0000 0.0000
# 3 7.4944 13.3415 93.0957 0.0000 0.0000 0.0000
# 4 0.0000 0.0000 0.0000 11.8419 0.0000 0.0000
# 5 0.0000 0.0000 0.0000 0.0000 14.9026 0.0000
# 6 0.0000 0.0000 0.0000 0.0000 0.0000 22.3085
#
#
#
# Elastic Compliance Matrix: (Units=1/GPa)
#
#
# Indices 1 2 3 4 5 6 
#
# 1 0.018305 0.007113 -0.002493 0.000000 0.000000 0.000000
# 2 0.007113 0.025311 -0.004200 0.000000 0.000000 0.000000
# 3 -0.002493 -0.004200 0.011544 0.000000 0.000000 0.000000
# 4 0.000000 0.000000 0.000000 0.084446 0.000000 0.000000
# 5 0.000000 0.000000 0.000000 0.000000 0.067102 0.000000
# 6 0.000000 0.000000 0.000000 0.000000 0.000000 0.044826
#
#
# Mechanical properties :
#
#
# Convention : Reuss Voigt Hill
#
# Bulk Modulus (GPa) = 17.85708 23.40454 20.63081
# Shear Modulus (GPa) = 18.56244 22.91817 20.74030
#
# Velocity S-wave (km/s) = 3.07760 3.41968 3.25314
# Velocity P-wave (km/s) = 4.66268 5.24734 4.96363
#
# Compressibility (1/GPa) = 0.05600021
#
# Stress axis : x y z
#
# Youngs Moduli (GPa) = 54.62953 39.50901 86.62359
#
# Poissons Ratio (x) = -0.28102 0.21595
# Poissons Ratio (y) = -0.38857 0.36381
# Poissons Ratio (z) = 0.13619 0.16593
#
# Static dielectric constant tensor:
#      x y z
#    x 3.674920 0.000000 0.000000 
#    y 0.000000 3.282980 0.000000 
#    z 0.000000 0.000000 3.697430 
# 
# 
# High freq. dielectric constant tensor:
#      x y z
#    x 1.776910 0.000000 0.000000 
#    y 0.000000 1.742580 0.000000 
#    z 0.000000 0.000000 1.762480 
# 
# From -- ./inp_files/69403.got.cif
#   From: 2010.03.12/outbox.cif.g09.slc.cpg/sg63_35_cif.got.tgz:69403.got - 2010.04.10 19:34:48.
