data_PCOD8256697
_publ_section_title
;
Structure prediction by ZEFSAII (Michael W. Deem and Ramdas Pophale) SiO2 
 PCOD8256697
Probable space group: C M C M
;
_chemical_formula_sum "Si O2"
_cell_formula_units_Z 128
_cell_length_a 22.599944
_cell_length_b 12.941711
_cell_length_c 22.939089
_cell_angle_alpha 90.000000
_cell_angle_beta 90.000000
_cell_angle_gamma 90.000000
_cell_volume 6709.269341
_symmetry_space_group_name_H-M "C M C M"
_symmetry_group_IT_number 63
_symmetry_cell_setting 'orthorhombic'
loop_
_space_group_symop_operation_xyz
x,y,z
-x,-y,1/2+z
x,-y,-z
-x,y,1/2-z
-x,-y,-z
x,y,1/2-z
-x,y,z
x,-y,1/2+z
1/2+x,1/2+y,z
1/2-x,1/2-y,1/2+z
1/2+x,1/2-y,-z
1/2-x,1/2+y,1/2-z
1/2-x,1/2-y,-z
1/2+x,1/2+y,1/2-z
1/2-x,1/2+y,z
1/2+x,1/2-y,1/2+z
loop_
_atom_site_type_symbol
_atom_site_label
_atom_site_fract_x
_atom_site_fract_y
_atom_site_fract_z
Si Si1 0.348425 0.844683 0.816262
Si Si2 0.777755 0.739010 0.817549
Si Si3 0.676415 0.036072 0.622838
Si Si4 0.145475 0.849658 0.901222
Si Si5 0.067166 0.969389 0.066476
Si Si6 0.629702 0.833034 0.026433
Si Si7 0.241776 0.597726 0.463471
Si Si8 0.568825 0.766524 0.584131
O O1 0.366037 0.820267 0.750000
O O2 0.285521 0.789927 0.830304
O O3 0.397630 0.797007 0.857710
O O4 0.351541 0.970437 0.823884
O O5 0.787216 0.714552 0.750000
O O6 0.785317 0.633108 0.854460
O O7 0.830347 0.817216 0.837506
O O8 0.630101 0.068608 0.571079
O O9 0.716557 0.945060 0.597097
O O10 0.106621 0.760797 0.932358
O O11 0.199380 0.842482 0.947025
O O12 0.110185 0.957099 0.895297
O O13 0.087451 0.851514 0.071609
O O14 0.000000 0.984844 0.088801
O O15 0.073649 0.000000 0.000000
O O16 0.696080 0.829010 0.998487
O O17 0.585349 0.838972 0.971451
O O18 0.262503 0.500000 0.500000
O O19 0.500000 0.778757 0.596180
#
# Coordination Sequence:
#
# PCOD8256697 Si02
#       8
#    16  16  16  16  16  16  16  16
#     4  11  23  40  60  80 115 157 192 236 283 332
#     4  10  22  37  56  86 115 148 190 233 280 339
#     4  10  20  36  56  82 119 145 183 230 284 344
#     4  11  19  33  56  82 115 154 183 223 283 343
#     4  10  21  36  56  86 118 147 185 228 279 340
#     4  10  20  33  54  83 119 144 179 232 288 337
#     4  10  19  29  50  82 115 144 176 222 281 342
#     4  11  23  39  59  84 115 148 193 241 282 340
#
# _framework density 19.078082999999999
#
# number of rings (size 3 to 8) (size 9 to 14) (size 15 to 20)
#    0.000    1.625    3.750    1.125    1.750    1.250 
#    0.000    1.875    0.000    1.875    0.000    0.000 
#    0.000    0.000    0.000    0.000    0.000    0.000 
#
# Total GULP energy -792884.979445 kJ/mol
# GULP energy per Si atom -12388.827804 kJ/mol
# Density = 1.903466 g / cm^3
# Si number density = 19.078083 Si / 1000 Ang^3
#
#
#
# Elastic Constant Matrix: (Units=GPa)
#
#
# Indices 1 2 3 4 5 6 
#
# 1 69.4982 41.2182 41.2981 0.0000 0.0000 0.0000
# 2 41.2182 101.2640 49.5827 0.0000 0.0000 0.0000
# 3 41.2981 49.5827 114.4911 0.0000 0.0000 0.0000
# 4 0.0000 0.0000 0.0000 29.0650 0.0000 0.0000
# 5 0.0000 0.0000 0.0000 0.0000 21.0909 0.0000
# 6 0.0000 0.0000 0.0000 0.0000 0.0000 27.8888
#
#
#
# Elastic Compliance Matrix: (Units=1/GPa)
#
#
# Indices 1 2 3 4 5 6 
#
# 1 0.020930 -0.006121 -0.004899 0.000000 0.000000 0.000000
# 2 -0.006121 0.014323 -0.003995 0.000000 0.000000 0.000000
# 3 -0.004899 -0.003995 0.012232 0.000000 0.000000 0.000000
# 4 0.000000 0.000000 0.000000 0.034406 0.000000 0.000000
# 5 0.000000 0.000000 0.000000 0.000000 0.047414 0.000000
# 6 0.000000 0.000000 0.000000 0.000000 0.000000 0.035857
#
#
# Mechanical properties :
#
#
# Convention : Reuss Voigt Hill
#
# Bulk Modulus (GPa) = 57.28998 61.05014 59.17006
# Shear Modulus (GPa) = 24.87468 25.81922 25.34695
#
# Velocity S-wave (km/s) = 3.61478 3.68277 3.64894
# Velocity P-wave (km/s) = 6.89323 7.08191 6.98820
#
# Compressibility (1/GPa) = 0.01745506
#
# Stress axis : x y z
#
# Youngs Moduli (GPa) = 47.77823 69.82004 81.75594
#
# Poissons Ratio (x) = 0.42734 0.40053
# Poissons Ratio (y) = 0.29243 0.32661
# Poissons Ratio (z) = 0.23407 0.27893
#
# Static dielectric constant tensor:
#      x y z
#    x 3.232850 0.000000 0.000000 
#    y 0.000000 3.682510 0.000000 
#    z 0.000000 0.000000 3.625960 
# 
# 
# High freq. dielectric constant tensor:
#      x y z
#    x 1.706460 0.000000 0.000000 
#    y 0.000000 1.754840 0.000000 
#    z 0.000000 0.000000 1.737870 
# 
# From -- ./inp_files/65193.got.cif
#   From: 2010.03.12/outbox.cif.g09.slc.cpg/sg63_33_cif.got.tgz:65193.got - 2010.04.10 19:34:48.
