data_PCOD8256314
_publ_section_title
;
Structure prediction by ZEFSAII (Michael W. Deem and Ramdas Pophale) SiO2 
 PCOD8256314
Probable space group: C M C M
;
_chemical_formula_sum "Si O2"
_cell_formula_units_Z 72
_cell_length_a 14.416496
_cell_length_b 30.554169
_cell_length_c 9.461376
_cell_angle_alpha 90.000000
_cell_angle_beta 90.000000
_cell_angle_gamma 90.000000
_cell_volume 4167.585268
_symmetry_space_group_name_H-M "C M C M"
_symmetry_group_IT_number 63
_symmetry_cell_setting 'orthorhombic'
loop_
_space_group_symop_operation_xyz
x,y,z
-x,-y,1/2+z
x,-y,-z
-x,y,1/2-z
-x,-y,-z
x,y,1/2-z
-x,y,z
x,-y,1/2+z
1/2+x,1/2+y,z
1/2-x,1/2-y,1/2+z
1/2+x,1/2-y,-z
1/2-x,1/2+y,1/2-z
1/2-x,1/2-y,-z
1/2+x,1/2+y,1/2-z
1/2-x,1/2+y,z
1/2+x,1/2-y,1/2+z
loop_
_atom_site_type_symbol
_atom_site_label
_atom_site_fract_x
_atom_site_fract_y
_atom_site_fract_z
Si Si1 0.000000 0.665466 0.582240
Si Si2 0.198902 0.787232 0.085713
Si Si3 0.000000 0.245722 0.588661
Si Si4 0.305705 0.128435 0.582701
Si Si5 0.000000 0.042140 0.908621
Si Si6 0.201798 0.044918 0.915101
O O1 0.000000 0.712991 0.513667
O O2 0.089938 0.638446 0.530990
O O3 0.000000 0.672503 0.750000
O O4 0.224029 0.780907 0.250000
O O5 0.236067 0.833757 0.028893
O O6 0.088915 0.784669 0.059016
O O7 0.250000 0.750000 0.000000
O O8 0.000000 0.262965 0.750000
O O9 0.300876 0.126463 0.750000
O O10 0.273052 0.081211 0.524054
O O11 0.901868 0.066548 0.937321
O O12 0.000000 0.024857 0.750000
O O13 0.000000 0.000000 0.000000
O O14 0.219714 0.034911 0.750000
O O15 0.215960 0.000000 0.000000
#
# Coordination Sequence:
#
# PCOD8256314 Si02
#       6
#     8  16   8  16   8  16
#     4  10  18  32  52  70  92 131 172 199 235 298
#     4  10  19  32  49  72  99 129 162 201 244 290
#     4  10  20  31  48  75 104 127 160 211 253 283
#     4   9  18  31  50  72  95 127 167 201 238 292
#     4   8  14  25  45  67  89 118 149 186 235 287
#     4   9  17  31  49  71  96 124 159 199 242 288
#
# _framework density 17.276191000000001
#
# number of rings (size 3 to 8) (size 9 to 14) (size 15 to 20)
#    0.000    2.667    2.222    0.000    0.000    0.889 
#    0.000    7.222    0.000    0.000    0.000    4.667 
#    0.000    0.000    0.000    0.000    0.000    0.000 
#
# Total GULP energy -446069.166532 kJ/mol
# GULP energy per Si atom -12390.810181 kJ/mol
# Density = 1.723687 g / cm^3
# Si number density = 17.276191 Si / 1000 Ang^3
#
#
#
# Elastic Constant Matrix: (Units=GPa)
#
#
# Indices 1 2 3 4 5 6 
#
# 1 158.3049 82.2890 32.7383 0.0000 0.0000 0.0000
# 2 82.2890 131.3568 30.7409 0.0000 0.0000 0.0000
# 3 32.7383 30.7409 32.8145 0.0000 0.0000 0.0000
# 4 0.0000 0.0000 0.0000 22.3706 0.0000 0.0000
# 5 0.0000 0.0000 0.0000 0.0000 17.2194 0.0000
# 6 0.0000 0.0000 0.0000 0.0000 0.0000 25.4302
#
#
#
# Elastic Compliance Matrix: (Units=1/GPa)
#
#
# Indices 1 2 3 4 5 6 
#
# 1 0.010034 -0.005050 -0.005280 0.000000 0.000000 0.000000
# 2 -0.005050 0.012292 -0.006477 0.000000 0.000000 0.000000
# 3 -0.005280 -0.006477 0.041809 0.000000 0.000000 0.000000
# 4 0.000000 0.000000 0.000000 0.044701 0.000000 0.000000
# 5 0.000000 0.000000 0.000000 0.000000 0.058074 0.000000
# 6 0.000000 0.000000 0.000000 0.000000 0.000000 0.039323
#
#
# Mechanical properties :
#
#
# Convention : Reuss Voigt Hill
#
# Bulk Modulus (GPa) = 32.76330 68.22363 50.49346
# Shear Modulus (GPa) = 19.99822 24.78458 22.39140
#
# Velocity S-wave (km/s) = 3.40598 3.79173 3.60402
# Velocity P-wave (km/s) = 5.87139 7.66455 6.82710
#
# Compressibility (1/GPa) = 0.03052196
#
# Stress axis : x y z
#
# Youngs Moduli (GPa) = 99.66161 81.35093 23.91808
#
# Poissons Ratio (x) = 0.41084 0.12628
# Poissons Ratio (y) = 0.50332 0.15492
# Poissons Ratio (z) = 0.52617 0.52692
#
# Static dielectric constant tensor:
#      x y z
#    x 4.693250 0.000000 0.000000 
#    y 0.000000 3.132780 0.000000 
#    z 0.000000 0.000000 3.036800 
# 
# 
# High freq. dielectric constant tensor:
#      x y z
#    x 1.683460 0.000000 0.000000 
#    y 0.000000 1.649700 0.000000 
#    z 0.000000 0.000000 1.641640 
# 
# From -- ./inp_files/4981.got.cif
#   From: 2010.03.12/outbox.cif.g09.slc.cpg/sg63_3_cif.got.tgz:4981.got - 2010.04.10 19:34:48.
