data_PCOD8256035
_publ_section_title
;
Structure prediction by ZEFSAII (Michael W. Deem and Ramdas Pophale) SiO2 
 PCOD8256035
Probable space group: C M C M
;
_chemical_formula_sum "Si O2"
_cell_formula_units_Z 128
_cell_length_a 17.734730
_cell_length_b 17.717080
_cell_length_c 23.598414
_cell_angle_alpha 90.000000
_cell_angle_beta 90.000000
_cell_angle_gamma 90.000000
_cell_volume 7414.801739
_symmetry_space_group_name_H-M "C M C M"
_symmetry_group_IT_number 63
_symmetry_cell_setting 'orthorhombic'
loop_
_space_group_symop_operation_xyz
x,y,z
-x,-y,1/2+z
x,-y,-z
-x,y,1/2-z
-x,-y,-z
x,y,1/2-z
-x,y,z
x,-y,1/2+z
1/2+x,1/2+y,z
1/2-x,1/2-y,1/2+z
1/2+x,1/2-y,-z
1/2-x,1/2+y,1/2-z
1/2-x,1/2-y,-z
1/2+x,1/2+y,1/2-z
1/2-x,1/2+y,z
1/2+x,1/2-y,1/2+z
loop_
_atom_site_type_symbol
_atom_site_label
_atom_site_fract_x
_atom_site_fract_y
_atom_site_fract_z
Si Si1 0.416844 0.354956 0.086707
Si Si2 0.683073 0.635935 0.813079
Si Si3 0.917101 0.979138 0.939449
Si Si4 0.227849 0.168702 0.519434
Si Si5 0.723458 0.010223 0.184676
Si Si6 0.914249 0.404018 0.315784
Si Si7 0.188856 0.296690 0.372551
Si Si8 0.291580 0.377673 0.599306
O O1 0.500000 0.318248 0.077145
O O2 0.381090 0.329508 0.146232
O O3 0.424682 0.444139 0.095118
O O4 0.361600 0.333397 0.034722
O O5 0.651005 0.641336 0.750000
O O6 0.710300 0.550478 0.827172
O O7 0.755838 0.689856 0.819351
O O8 0.870429 0.921418 0.901543
O O9 0.000000 0.943207 0.950909
O O10 0.878608 0.000000 0.000000
O O11 0.250000 0.250000 0.500000
O O12 0.278469 0.151653 0.574902
O O13 0.243763 0.115908 0.464511
O O14 0.726146 0.037173 0.250000
O O15 0.735507 0.083244 0.144324
O O16 0.641670 0.973943 0.170782
O O17 0.907044 0.381194 0.250000
O O18 0.892012 0.331034 0.354396
O O19 0.000000 0.427416 0.330876
O O20 0.187156 0.208140 0.385479
#
# Coordination Sequence:
#
# PCOD8256035 Si02
#       8
#    16  16  16  16  16  16  16  16
#     4  10  18  30  49  72 100 130 165 201 239 293
#     4   9  17  32  49  69  99 132 168 205 243 296
#     4  10  19  29  44  72 103 130 160 194 238 296
#     4   9  19  33  48  72 101 133 167 203 249 301
#     4   9  18  31  50  74  96 127 170 212 252 298
#     4   9  18  35  56  75  99 135 175 213 258 309
#     4   9  19  32  50  75 101 129 169 213 254 299
#     4  11  19  31  52  74 101 134 165 205 254 297
#
# _framework density 17.262768000000001
#
# number of rings (size 3 to 8) (size 9 to 14) (size 15 to 20)
#    0.000    2.500    2.500    1.125    0.000    1.750 
#    0.000    1.875    0.000    8.625    0.000    5.250 
#    0.000    0.000    0.000    0.000    0.000    0.000 
#
# Total GULP energy -792870.742660 kJ/mol
# GULP energy per Si atom -12388.605354 kJ/mol
# Density = 1.722348 g / cm^3
# Si number density = 17.262768 Si / 1000 Ang^3
#
#
#
# Elastic Constant Matrix: (Units=GPa)
#
#
# Indices 1 2 3 4 5 6 
#
# 1 105.3068 38.5884 47.5244 0.0000 0.0000 0.0000
# 2 38.5884 68.5125 35.4351 0.0000 0.0000 0.0000
# 3 47.5244 35.4351 92.4930 0.0000 0.0000 0.0000
# 4 0.0000 0.0000 0.0000 25.7247 0.0000 0.0000
# 5 0.0000 0.0000 0.0000 0.0000 20.2829 0.0000
# 6 0.0000 0.0000 0.0000 0.0000 0.0000 16.4869
#
#
#
# Elastic Compliance Matrix: (Units=1/GPa)
#
#
# Indices 1 2 3 4 5 6 
#
# 1 0.013638 -0.005059 -0.005069 0.000000 0.000000 0.000000
# 2 -0.005059 0.020080 -0.005093 0.000000 0.000000 0.000000
# 3 -0.005069 -0.005093 0.015367 0.000000 0.000000 0.000000
# 4 0.000000 0.000000 0.000000 0.038873 0.000000 0.000000
# 5 0.000000 0.000000 0.000000 0.000000 0.049303 0.000000
# 6 0.000000 0.000000 0.000000 0.000000 0.000000 0.060654
#
#
# Mechanical properties :
#
#
# Convention : Reuss Voigt Hill
#
# Bulk Modulus (GPa) = 53.64317 56.60091 55.12204
# Shear Modulus (GPa) = 21.31545 22.14984 21.73265
#
# Velocity S-wave (km/s) = 3.51773 3.58592 3.55199
# Velocity P-wave (km/s) = 6.90226 7.07136 6.98732
#
# Compressibility (1/GPa) = 0.01864170
#
# Stress axis : x y z
#
# Youngs Moduli (GPa) = 73.32657 49.80146 65.07300
#
# Poissons Ratio (x) = 0.25197 0.32985
# Poissons Ratio (y) = 0.37099 0.33143
# Poissons Ratio (z) = 0.37168 0.25365
#
# Static dielectric constant tensor:
#      x y z
#    x 3.430330 0.000000 0.000000 
#    y 0.000000 3.053970 0.000000 
#    z 0.000000 0.000000 3.615490 
# 
# 
# High freq. dielectric constant tensor:
#      x y z
#    x 1.651630 0.000000 0.000000 
#    y 0.000000 1.638700 0.000000 
#    z 0.000000 0.000000 1.673650 
# 
# From -- ./inp_files/64064.got.cif
#   From: 2010.03.12/outbox.cif.g09.slc.cpg/sg63_33_cif.got.tgz:64064.got - 2010.04.10 19:34:48.
