data_PCOD8256741
_publ_section_title
;
Structure prediction by ZEFSAII (Michael W. Deem and Ramdas Pophale) SiO2 
 PCOD8256741
Probable space group: C M C M
;
_chemical_formula_sum "Si O2"
_cell_formula_units_Z 112
_cell_length_a 17.637759
_cell_length_b 21.402161
_cell_length_c 17.960742
_cell_angle_alpha 90.000000
_cell_angle_beta 90.000000
_cell_angle_gamma 90.000000
_cell_volume 6779.931489
_symmetry_space_group_name_H-M "C M C M"
_symmetry_group_IT_number 63
_symmetry_cell_setting 'orthorhombic'
loop_
_space_group_symop_operation_xyz
x,y,z
-x,-y,1/2+z
x,-y,-z
-x,y,1/2-z
-x,-y,-z
x,y,1/2-z
-x,y,z
x,-y,1/2+z
1/2+x,1/2+y,z
1/2-x,1/2-y,1/2+z
1/2+x,1/2-y,-z
1/2-x,1/2+y,1/2-z
1/2-x,1/2-y,-z
1/2+x,1/2+y,1/2-z
1/2-x,1/2+y,z
1/2+x,1/2-y,1/2+z
loop_
_atom_site_type_symbol
_atom_site_label
_atom_site_fract_x
_atom_site_fract_y
_atom_site_fract_z
Si Si1 0.795834 0.984841 0.918238
Si Si2 0.161614 0.403278 0.578739
Si Si3 0.820681 0.835048 0.337656
Si Si4 0.911948 0.288535 0.837850
Si Si5 0.911014 0.486187 0.166842
Si Si6 0.916606 0.954104 0.337286
Si Si7 0.688106 0.899105 0.091224
O O1 0.751481 0.918855 0.909095
O O2 0.868337 0.985822 0.864001
O O3 0.737308 0.038783 0.898073
O O4 0.827108 0.000000 0.000000
O O5 0.133875 0.343866 0.623841
O O6 0.112391 0.462278 0.605325
O O7 0.153618 0.389244 0.490894
O O8 0.803741 0.837034 0.250000
O O9 0.866328 0.773341 0.360829
O O10 0.875054 0.891179 0.363339
O O11 0.739692 0.840422 0.381113
O O12 0.910056 0.299405 0.750000
O O13 0.000000 0.284954 0.864643
O O14 0.881267 0.504375 0.250000
O O15 0.882093 0.416166 0.145297
O O16 0.000000 0.482842 0.167388
O O17 0.923752 0.956697 0.250000
O O18 0.000000 0.955800 0.373600
#
# Coordination Sequence:
#
# PCOD8256741 Si02
#       7
#    16  16  16  16  16  16  16
#     4   8  16  29  42  61  87 115 146 177 215 263
#     4  10  19  30  45  66  95 125 151 183 225 276
#     4   9  17  31  49  66  88 117 149 188 229 268
#     4  10  20  32  47  69  94 120 151 186 229 281
#     4  10  19  30  46  69  96 124 154 189 228 271
#     4   9  16  26  43  66  87 109 141 182 224 262
#     4   9  18  31  47  66  89 119 155 190 224 267
#
# _framework density 16.51934
#
# number of rings (size 3 to 8) (size 9 to 14) (size 15 to 20)
#    0.000    2.714    0.000    3.000    0.000    9.429 
#    0.000    0.000    0.000    0.000    0.000    1.000 
#    0.000    3.429    0.000    0.000    0.000    0.143 
#
# Total GULP energy -693829.990061 kJ/mol
# GULP energy per Si atom -12389.821251 kJ/mol
# Density = 1.648174 g / cm^3
# Si number density = 16.519340 Si / 1000 Ang^3
#
#
#
# Elastic Constant Matrix: (Units=GPa)
#
#
# Indices 1 2 3 4 5 6 
#
# 1 80.0993 50.6964 47.3899 0.0000 0.0000 0.0000
# 2 50.6964 75.5731 34.2474 0.0000 0.0000 0.0000
# 3 47.3899 34.2474 51.9689 0.0000 0.0000 0.0000
# 4 0.0000 0.0000 0.0000 13.9144 0.0000 0.0000
# 5 0.0000 0.0000 0.0000 0.0000 20.0855 0.0000
# 6 0.0000 0.0000 0.0000 0.0000 0.0000 24.9398
#
#
#
# Elastic Compliance Matrix: (Units=1/GPa)
#
#
# Indices 1 2 3 4 5 6 
#
# 1 0.033630 -0.012351 -0.022527 0.000000 0.000000 0.000000
# 2 -0.012351 0.023403 -0.004160 0.000000 0.000000 0.000000
# 3 -0.022527 -0.004160 0.042526 0.000000 0.000000 0.000000
# 4 0.000000 0.000000 0.000000 0.071868 0.000000 0.000000
# 5 0.000000 0.000000 0.000000 0.000000 0.049787 0.000000
# 6 0.000000 0.000000 0.000000 0.000000 0.000000 0.040097
#
#
# Mechanical properties :
#
#
# Convention : Reuss Voigt Hill
#
# Bulk Modulus (GPa) = 46.54957 52.47874 49.51415
# Shear Modulus (GPa) = 14.42809 16.80846 15.61828
#
# Velocity S-wave (km/s) = 2.95855 3.19329 3.07816
# Velocity P-wave (km/s) = 6.31749 6.74041 6.53238
#
# Compressibility (1/GPa) = 0.02148248
#
# Stress axis : x y z
#
# Youngs Moduli (GPa) = 29.73560 42.73037 23.51510
#
# Poissons Ratio (x) = 0.52776 0.52973
# Poissons Ratio (y) = 0.36726 0.09781
# Poissons Ratio (z) = 0.66986 0.17774
#
# Static dielectric constant tensor:
#      x y z
#    x 3.415910 0.000000 0.000000 
#    y 0.000000 3.007410 0.000000 
#    z 0.000000 0.000000 3.270370 
# 
# 
# High freq. dielectric constant tensor:
#      x y z
#    x 1.639800 0.000000 0.000000 
#    y 0.000000 1.601350 0.000000 
#    z 0.000000 0.000000 1.633390 
# 
# From -- ./inp_files/46123.got.cif
#   From: 2010.03.12/outbox.cif.g09.slc.cpg/sg63_24_cif.got.tgz:46123.got - 2010.04.10 19:34:48.
