data_PCOD8256772
_publ_section_title
;
Structure prediction by ZEFSAII (Michael W. Deem and Ramdas Pophale) SiO2 
 PCOD8256772
Probable space group: C M C M
;
_chemical_formula_sum "Si O2"
_cell_formula_units_Z 80
_cell_length_a 8.997900
_cell_length_b 25.912648
_cell_length_c 18.369373
_cell_angle_alpha 90.000000
_cell_angle_beta 90.000000
_cell_angle_gamma 90.000000
_cell_volume 4282.992271
_symmetry_space_group_name_H-M "C M C M"
_symmetry_group_IT_number 63
_symmetry_cell_setting 'orthorhombic'
loop_
_space_group_symop_operation_xyz
x,y,z
-x,-y,1/2+z
x,-y,-z
-x,y,1/2-z
-x,-y,-z
x,y,1/2-z
-x,y,z
x,-y,1/2+z
1/2+x,1/2+y,z
1/2-x,1/2-y,1/2+z
1/2+x,1/2-y,-z
1/2-x,1/2+y,1/2-z
1/2-x,1/2-y,-z
1/2+x,1/2+y,1/2-z
1/2-x,1/2+y,z
1/2+x,1/2-y,1/2+z
loop_
_atom_site_type_symbol
_atom_site_label
_atom_site_fract_x
_atom_site_fract_y
_atom_site_fract_z
Si Si1 0.823038 0.342253 0.576102
Si Si2 0.676545 0.050934 0.831445
Si Si3 0.323177 0.062951 0.331963
Si Si4 0.323275 0.849076 0.412221
Si Si5 0.673144 0.256131 0.165720
O O1 0.757035 0.393645 0.614314
O O2 0.762884 0.339573 0.493683
O O3 0.765902 0.292207 0.619375
O O4 0.000000 0.344437 0.577402
O O5 0.736770 0.062018 0.750000
O O6 0.500000 0.051763 0.830034
O O7 0.735890 0.094935 0.885914
O O8 0.730622 0.994092 0.857591
O O9 0.266668 0.073934 0.250000
O O10 0.500000 0.065392 0.333121
O O11 0.500000 0.846449 0.409709
O O12 0.261095 0.806647 0.357661
O O13 0.704188 0.244341 0.250000
O O14 0.500000 0.265368 0.150695
#
# Coordination Sequence:
#
# PCOD8256772 Si02
#       5
#    16  16  16  16  16
#     4   9  17  28  43  65  91 118 149 185 225 265
#     4   8  14  24  39  62  91 119 146 178 218 264
#     4   8  13  23  40  62  90 121 149 181 222 263
#     4  10  19  30  46  69  96 120 143 180 228 272
#     4  10  20  33  48  65  87 118 156 191 219 257
#
# _framework density 18.678531
#
# number of rings (size 3 to 8) (size 9 to 14) (size 15 to 20)
#    0.000    3.000    0.000    3.000    0.000    4.400 
#    0.000    4.000    0.000    0.000    0.000    4.200 
#    0.000    3.200    0.000    0.000    0.000    0.000 
#
# Total GULP energy -495825.617149 kJ/mol
# GULP energy per Si atom -12395.640429 kJ/mol
# Density = 1.863602 g / cm^3
# Si number density = 18.678531 Si / 1000 Ang^3
#
#
#
# Elastic Constant Matrix: (Units=GPa)
#
#
# Indices 1 2 3 4 5 6 
#
# 1 8.7550 15.3818 13.5238 0.0000 0.0000 0.0000
# 2 15.3818 133.1594 46.2728 0.0000 0.0000 0.0000
# 3 13.5238 46.2728 89.6837 0.0000 0.0000 0.0000
# 4 0.0000 0.0000 0.0000 35.1740 0.0000 0.0000
# 5 0.0000 0.0000 0.0000 0.0000 14.5902 0.0000
# 6 0.0000 0.0000 0.0000 0.0000 0.0000 17.1641
#
#
#
# Elastic Compliance Matrix: (Units=1/GPa)
#
#
# Indices 1 2 3 4 5 6 
#
# 1 0.164760 -0.012670 -0.018308 0.000000 0.000000 0.000000
# 2 -0.012670 0.010125 -0.003313 0.000000 0.000000 0.000000
# 3 -0.018308 -0.003313 0.015621 0.000000 0.000000 0.000000
# 4 0.000000 0.000000 0.000000 0.028430 0.000000 0.000000
# 5 0.000000 0.000000 0.000000 0.000000 0.068539 0.000000
# 6 0.000000 0.000000 0.000000 0.000000 0.000000 0.058261
#
#
# Mechanical properties :
#
#
# Convention : Reuss Voigt Hill
#
# Bulk Modulus (GPa) = 8.20189 42.43945 25.32067
# Shear Modulus (GPa) = 10.98998 23.81363 17.40181
#
# Velocity S-wave (km/s) = 2.42828 3.57448 3.05560
# Velocity P-wave (km/s) = 3.50181 6.30921 5.10239
#
# Compressibility (1/GPa) = 0.12192311
#
# Stress axis : x y z
#
# Youngs Moduli (GPa) = 6.06942 98.76759 64.01841
#
# Poissons Ratio (x) = 1.25142 1.17202
# Poissons Ratio (y) = 0.07690 0.21211
# Poissons Ratio (z) = 0.11112 0.32725
#
# Static dielectric constant tensor:
#      x y z
#    x 2.716680 0.000000 0.000000 
#    y 0.000000 3.815130 0.000000 
#    z 0.000000 0.000000 3.649130 
# 
# 
# High freq. dielectric constant tensor:
#      x y z
#    x 1.646850 0.000000 0.000000 
#    y 0.000000 1.745060 0.000000 
#    z 0.000000 0.000000 1.731550 
# 
# From -- ./inp_files/29717.got.cif
#   From: 2010.03.12/outbox.cif.g09.slc.cpg/sg63_15_cif.got.tgz:29717.got - 2010.04.10 19:34:48.
