data_PCOD8256914
_publ_section_title
;
Structure prediction by ZEFSAII (Michael W. Deem and Ramdas Pophale) SiO2 
 PCOD8256914
Probable space group: C M C M
;
_chemical_formula_sum "Si O2"
_cell_formula_units_Z 112
_cell_length_a 21.716764
_cell_length_b 28.307339
_cell_length_c 10.486177
_cell_angle_alpha 90.000000
_cell_angle_beta 90.000000
_cell_angle_gamma 90.000000
_cell_volume 6446.312302
_symmetry_space_group_name_H-M "C M C M"
_symmetry_group_IT_number 63
_symmetry_cell_setting 'orthorhombic'
loop_
_space_group_symop_operation_xyz
x,y,z
-x,-y,1/2+z
x,-y,-z
-x,y,1/2-z
-x,-y,-z
x,y,1/2-z
-x,y,z
x,-y,1/2+z
1/2+x,1/2+y,z
1/2-x,1/2-y,1/2+z
1/2+x,1/2-y,-z
1/2-x,1/2+y,1/2-z
1/2-x,1/2-y,-z
1/2+x,1/2+y,1/2-z
1/2-x,1/2+y,z
1/2+x,1/2-y,1/2+z
loop_
_atom_site_type_symbol
_atom_site_label
_atom_site_fract_x
_atom_site_fract_y
_atom_site_fract_z
Si Si1 0.431103 0.640093 0.399762
Si Si2 0.683954 0.862215 0.894939
Si Si3 0.352619 0.274035 0.994972
Si Si4 0.376153 0.460465 0.602781
Si Si5 0.932447 0.305551 0.602849
Si Si6 0.732815 0.036534 0.393189
Si Si7 0.733837 0.201222 0.613402
O O1 0.432058 0.646318 0.250000
O O2 0.500000 0.649260 0.455063
O O3 0.380773 0.676401 0.451853
O O4 0.411470 0.587040 0.436242
O O5 0.703304 0.848088 0.750000
O O6 0.612658 0.849799 0.921670
O O7 0.691604 0.917534 0.916134
O O8 0.725644 0.833795 0.994402
O O9 0.409413 0.241240 0.033060
O O10 0.305058 0.282105 0.111428
O O11 0.311791 0.246459 0.889241
O O12 0.397007 0.500000 0.500000
O O13 0.391517 0.475658 0.750000
O O14 0.303920 0.450041 0.588512
O O15 0.936179 0.292796 0.750000
O O16 0.000000 0.319016 0.549253
O O17 0.721949 0.016218 0.250000
O O18 0.710595 0.000000 0.500000
O O19 0.722736 0.175768 0.750000
#
# Coordination Sequence:
#
# PCOD8256914 Si02
#       7
#    16  16  16  16  16  16  16
#     4  10  20  33  50  70  93 127 167 201 236 282
#     4   9  18  32  50  72  99 129 161 197 239 288
#     4  10  19  31  47  68 100 128 160 201 243 284
#     4   9  18  33  51  70  93 121 155 196 240 286
#     4   9  17  30  48  68  93 129 168 200 231 276
#     4   9  17  30  49  73  97 122 153 194 244 290
#     4  10  20  31  48  73  99 129 162 199 244 290
#
# _framework density 17.374275000000001
#
# number of rings (size 3 to 8) (size 9 to 14) (size 15 to 20)
#    0.000    2.571    0.000    2.143    0.000    6.000 
#    0.000    4.286    0.000    6.000    0.000    0.000 
#    0.000    0.000    0.000    0.000    0.000    0.000 
#
# Total GULP energy -694010.764567 kJ/mol
# GULP energy per Si atom -12393.049367 kJ/mol
# Density = 1.733473 g / cm^3
# Si number density = 17.374275 Si / 1000 Ang^3
#
#
#
# Elastic Constant Matrix: (Units=GPa)
#
#
# Indices 1 2 3 4 5 6 
#
# 1 94.3040 48.2071 37.6594 0.0000 0.0000 0.0000
# 2 48.2071 103.3595 58.2273 0.0000 0.0000 0.0000
# 3 37.6594 58.2273 99.8781 0.0000 0.0000 0.0000
# 4 0.0000 0.0000 0.0000 22.4938 0.0000 0.0000
# 5 0.0000 0.0000 0.0000 0.0000 7.2517 0.0000
# 6 0.0000 0.0000 0.0000 0.0000 0.0000 21.3625
#
#
#
# Elastic Compliance Matrix: (Units=1/GPa)
#
#
# Indices 1 2 3 4 5 6 
#
# 1 0.014250 -0.005389 -0.002231 0.000000 0.000000 0.000000
# 2 -0.005389 0.016445 -0.007555 0.000000 0.000000 0.000000
# 3 -0.002231 -0.007555 0.015258 0.000000 0.000000 0.000000
# 4 0.000000 0.000000 0.000000 0.044457 0.000000 0.000000
# 5 0.000000 0.000000 0.000000 0.000000 0.137899 0.000000
# 6 0.000000 0.000000 0.000000 0.000000 0.000000 0.046811
#
#
# Mechanical properties :
#
#
# Convention : Reuss Voigt Hill
#
# Bulk Modulus (GPa) = 64.09533 65.08100 64.58816
# Shear Modulus (GPa) = 16.09428 20.45147 18.27287
#
# Velocity S-wave (km/s) = 3.04687 3.43463 3.24654
# Velocity P-wave (km/s) = 7.02488 7.29853 7.16301
#
# Compressibility (1/GPa) = 0.01560176
#
# Stress axis : x y z
#
# Youngs Moduli (GPa) = 70.17581 60.81043 65.54021
#
# Poissons Ratio (x) = 0.32773 0.14623
# Poissons Ratio (y) = 0.37820 0.49515
# Poissons Ratio (z) = 0.15657 0.45941
#
# Static dielectric constant tensor:
#      x y z
#    x 3.398150 0.000000 0.000000 
#    y 0.000000 3.113430 0.000000 
#    z 0.000000 0.000000 3.241320 
# 
# 
# High freq. dielectric constant tensor:
#      x y z
#    x 1.668670 0.000000 0.000000 
#    y 0.000000 1.657440 0.000000 
#    z 0.000000 0.000000 1.663920 
# 
# From -- ./inp_files/22981.got.cif
#   From: 2010.03.12/outbox.cif.g09.slc.cpg/sg63_12_cif.got.tgz:22981.got - 2010.04.10 19:34:48.
