data_PCOD8256425
_publ_section_title
;
Structure prediction by ZEFSAII (Michael W. Deem and Ramdas Pophale) SiO2 
 PCOD8256425
Probable space group: C M C M
;
_chemical_formula_sum "Si O2"
_cell_formula_units_Z 72
_cell_length_a 15.054027
_cell_length_b 28.264796
_cell_length_c 9.176718
_cell_angle_alpha 90.000000
_cell_angle_beta 90.000000
_cell_angle_gamma 90.000000
_cell_volume 3904.684352
_symmetry_space_group_name_H-M "C M C M"
_symmetry_group_IT_number 63
_symmetry_cell_setting 'orthorhombic'
loop_
_space_group_symop_operation_xyz
x,y,z
-x,-y,1/2+z
x,-y,-z
-x,y,1/2-z
-x,-y,-z
x,y,1/2-z
-x,y,z
x,-y,1/2+z
1/2+x,1/2+y,z
1/2-x,1/2-y,1/2+z
1/2+x,1/2-y,-z
1/2-x,1/2+y,1/2-z
1/2-x,1/2-y,-z
1/2+x,1/2+y,1/2-z
1/2-x,1/2+y,z
1/2+x,1/2-y,1/2+z
loop_
_atom_site_type_symbol
_atom_site_label
_atom_site_fract_x
_atom_site_fract_y
_atom_site_fract_z
Si Si1 0.500000 0.551493 0.425815
Si Si2 0.599659 0.866253 0.084676
Si Si3 0.902821 0.871774 0.415583
Si Si4 0.743428 0.701364 0.916810
Si Si5 0.106040 0.544302 0.412830
O O1 0.500000 0.500000 0.500000
O O2 0.500000 0.547565 0.250000
O O3 0.412467 0.580834 0.483188
O O4 0.600433 0.885005 0.250000
O O5 0.500000 0.852580 0.035730
O O6 0.659167 0.820347 0.065514
O O7 0.640493 0.907792 0.986539
O O8 0.874963 0.886585 0.250000
O O9 0.830850 0.834835 0.480846
O O10 0.000000 0.846469 0.412910
O O11 0.719119 0.712005 0.750000
O O12 0.750000 0.750000 0.000000
O O13 0.145876 0.500000 0.500000
O O14 0.143315 0.542157 0.250000
O O15 0.000000 0.543107 0.416882
#
# Coordination Sequence:
#
# PCOD8256425 Si02
#       5
#     8  16  16  16  16
#     4  10  18  32  58  88 114 142 176 222 279 340
#     4   9  18  33  51  73 104 138 173 215 258 304
#     4   8  17  35  55  76 107 142 177 221 272 324
#     4  10  21  36  54  76 105 141 180 224 272 319
#     4   9  16  27  46  71  98 130 166 202 244 295
#
# _framework density 18.439391000000001
#
# number of rings (size 3 to 8) (size 9 to 14) (size 15 to 20)
#    0.667    2.222    0.000    1.333    0.000    5.333 
#    0.000    1.111    0.000    0.000    0.000    0.000 
#    0.000    0.000    0.000    0.000    0.000    0.000 
#
# Total GULP energy -446100.240996 kJ/mol
# GULP energy per Si atom -12391.673361 kJ/mol
# Density = 1.839742 g / cm^3
# Si number density = 18.439391 Si / 1000 Ang^3
#
#
#
# Elastic Constant Matrix: (Units=GPa)
#
#
# Indices 1 2 3 4 5 6 
#
# 1 65.8998 48.5737 27.0224 0.0000 0.0000 0.0000
# 2 48.5737 148.5279 78.7631 0.0000 0.0000 0.0000
# 3 27.0224 78.7631 114.4654 0.0000 0.0000 0.0000
# 4 0.0000 0.0000 0.0000 40.8043 0.0000 0.0000
# 5 0.0000 0.0000 0.0000 0.0000 16.0249 0.0000
# 6 0.0000 0.0000 0.0000 0.0000 0.0000 25.4922
#
#
#
# Elastic Compliance Matrix: (Units=1/GPa)
#
#
# Indices 1 2 3 4 5 6 
#
# 1 0.020003 -0.006357 -0.000348 0.000000 0.000000 0.000000
# 2 -0.006357 0.012621 -0.007184 0.000000 0.000000 0.000000
# 3 -0.000348 -0.007184 0.013762 0.000000 0.000000 0.000000
# 4 0.000000 0.000000 0.000000 0.024507 0.000000 0.000000
# 5 0.000000 0.000000 0.000000 0.000000 0.062403 0.000000
# 6 0.000000 0.000000 0.000000 0.000000 0.000000 0.039228
#
#
# Mechanical properties :
#
#
# Convention : Reuss Voigt Hill
#
# Bulk Modulus (GPa) = 53.74029 70.84571 62.29300
# Shear Modulus (GPa) = 24.21258 28.09986 26.15622
#
# Velocity S-wave (km/s) = 3.62759 3.90796 3.77038
# Velocity P-wave (km/s) = 6.83765 7.67249 7.26707
#
# Compressibility (1/GPa) = 0.01860801
#
# Stress axis : x y z
#
# Youngs Moduli (GPa) = 49.99253 79.23104 72.66604
#
# Poissons Ratio (x) = 0.50369 0.02528
# Poissons Ratio (y) = 0.31781 0.52202
# Poissons Ratio (z) = 0.01739 0.56919
#
# Static dielectric constant tensor:
#      x y z
#    x 3.470750 0.000000 0.000000 
#    y 0.000000 3.232600 0.000000 
#    z 0.000000 0.000000 3.437140 
# 
# 
# High freq. dielectric constant tensor:
#      x y z
#    x 1.691540 0.000000 0.000000 
#    y 0.000000 1.705470 0.000000 
#    z 0.000000 0.000000 1.711600 
# 
# From -- ./inp_files/6078.got.cif
#   From: 2010.03.12/outbox.cif.g09.slc.cpg/sg63_4_cif.got.tgz:6078.got - 2010.04.10 19:34:48.
