data_PCOD8256408
_publ_section_title
;
Structure prediction by ZEFSAII (Michael W. Deem and Ramdas Pophale) SiO2 
 PCOD8256408
Probable space group: C M C M
;
_chemical_formula_sum "Si O2"
_cell_formula_units_Z 104
_cell_length_a 26.085992
_cell_length_b 23.805181
_cell_length_c 8.803830
_cell_angle_alpha 90.000000
_cell_angle_beta 90.000000
_cell_angle_gamma 90.000000
_cell_volume 5467.017858
_symmetry_space_group_name_H-M "C M C M"
_symmetry_group_IT_number 63
_symmetry_cell_setting 'orthorhombic'
loop_
_space_group_symop_operation_xyz
x,y,z
-x,-y,1/2+z
x,-y,-z
-x,y,1/2-z
-x,-y,-z
x,y,1/2-z
-x,y,z
x,-y,1/2+z
1/2+x,1/2+y,z
1/2-x,1/2-y,1/2+z
1/2+x,1/2-y,-z
1/2-x,1/2+y,1/2-z
1/2-x,1/2-y,-z
1/2+x,1/2+y,1/2-z
1/2-x,1/2+y,z
1/2+x,1/2-y,1/2+z
loop_
_atom_site_type_symbol
_atom_site_label
_atom_site_fract_x
_atom_site_fract_y
_atom_site_fract_z
Si Si1 0.286374 0.153852 0.073397
Si Si2 0.860343 0.262172 0.072121
Si Si3 0.000000 0.062087 0.070284
Si Si4 0.632735 0.939578 0.573142
Si Si5 0.558634 0.853843 0.428726
Si Si6 0.099611 0.058801 0.576820
Si Si7 0.178499 0.844741 0.423101
O O1 0.291719 0.169715 0.250000
O O2 0.316013 0.095958 0.037246
O O3 0.309604 0.203501 0.972229
O O4 0.227385 0.148396 0.030284
O O5 0.859807 0.249470 0.250000
O O6 0.910768 0.297451 0.023500
O O7 0.859564 0.203895 0.981571
O O8 0.000000 0.063056 0.250000
O O9 0.947896 0.090422 0.007749
O O10 0.000000 0.000000 0.000000
O O11 0.623777 0.947652 0.750000
O O12 0.582832 0.908267 0.507868
O O13 0.639845 0.000000 0.500000
O O14 0.562905 0.863514 0.250000
O O15 0.500000 0.846969 0.482086
O O16 0.083502 0.047517 0.750000
O O17 0.149328 0.096824 0.564893
O O18 0.113770 0.000000 0.500000
O O19 0.194976 0.832144 0.250000
#
# Coordination Sequence:
#
# PCOD8256408 Si02
#       7
#    16  16   8  16  16  16  16
#     4  10  21  37  57  79 108 144 184 227 273 326
#     4  10  20  36  58  81 109 143 182 227 274 327
#     4  10  18  32  56  78 100 134 172 210 255 310
#     4  10  21  36  56  83 113 148 188 228 274 330
#     4   9  19  37  59  82 111 146 184 230 279 326
#     4  10  21  37  56  78 108 141 177 220 267 321
#     4  11  23  37  55  81 111 143 181 224 273 328
#
# _framework density 19.023168999999999
#
# number of rings (size 3 to 8) (size 9 to 14) (size 15 to 20)
#    0.000    2.000    0.000    4.385    0.000    6.154 
#    1.385    3.077    0.000    0.000    0.000    0.000 
#    0.000    0.000    0.000    0.000    0.000    0.000 
#
# Total GULP energy -644896.088276 kJ/mol
# GULP energy per Si atom -12401.847851 kJ/mol
# Density = 1.897987 g / cm^3
# Si number density = 19.023169 Si / 1000 Ang^3
#
#
#
# Elastic Constant Matrix: (Units=GPa)
#
#
# Indices 1 2 3 4 5 6 
#
# 1 83.3316 34.3804 25.0234 0.0000 0.0000 0.0000
# 2 34.3804 100.6117 39.6186 0.0000 0.0000 0.0000
# 3 25.0234 39.6186 86.4078 0.0000 0.0000 0.0000
# 4 0.0000 0.0000 0.0000 32.2329 0.0000 0.0000
# 5 0.0000 0.0000 0.0000 0.0000 29.1577 0.0000
# 6 0.0000 0.0000 0.0000 0.0000 0.0000 16.4917
#
#
#
# Elastic Compliance Matrix: (Units=1/GPa)
#
#
# Indices 1 2 3 4 5 6 
#
# 1 0.014343 -0.003985 -0.002326 0.000000 0.000000 0.000000
# 2 -0.003985 0.013236 -0.004915 0.000000 0.000000 0.000000
# 3 -0.002326 -0.004915 0.014500 0.000000 0.000000 0.000000
# 4 0.000000 0.000000 0.000000 0.031024 0.000000 0.000000
# 5 0.000000 0.000000 0.000000 0.000000 0.034296 0.000000
# 6 0.000000 0.000000 0.000000 0.000000 0.000000 0.060636
#
#
# Mechanical properties :
#
#
# Convention : Reuss Voigt Hill
#
# Bulk Modulus (GPa) = 50.95101 52.04398 51.49749
# Shear Modulus (GPa) = 25.37663 26.99839 26.18751
#
# Velocity S-wave (km/s) = 3.65634 3.77136 3.71430
# Velocity P-wave (km/s) = 6.68333 6.81042 6.74717
#
# Compressibility (1/GPa) = 0.01962670
#
# Stress axis : x y z
#
# Youngs Moduli (GPa) = 69.72046 75.54965 68.96412
#
# Poissons Ratio (x) = 0.30107 0.16044
# Poissons Ratio (y) = 0.27784 0.33895
# Poissons Ratio (z) = 0.16220 0.37132
#
# Static dielectric constant tensor:
#      x y z
#    x 3.654270 0.000000 0.000000 
#    y 0.000000 3.420580 0.000000 
#    z 0.000000 0.000000 3.612510 
# 
# 
# High freq. dielectric constant tensor:
#      x y z
#    x 1.742110 0.000000 0.000000 
#    y 0.000000 1.729970 0.000000 
#    z 0.000000 0.000000 1.753780 
# 
# From -- ./inp_files/12851.got.cif
#   From: 2010.03.12/outbox.cif.g09.slc.cpg/sg63_7_cif.got.tgz:12851.got - 2010.04.10 19:34:48.
