data_PCOD8256768
_publ_section_title
;
Structure prediction by ZEFSAII (Michael W. Deem and Ramdas Pophale) SiO2 
 PCOD8256768
Probable space group: C M C M
;
_chemical_formula_sum "Si O2"
_cell_formula_units_Z 96
_cell_length_a 9.248404
_cell_length_b 23.645295
_cell_length_c 25.322219
_cell_angle_alpha 90.000000
_cell_angle_beta 90.000000
_cell_angle_gamma 90.000000
_cell_volume 5537.494272
_symmetry_space_group_name_H-M "C M C M"
_symmetry_group_IT_number 63
_symmetry_cell_setting 'orthorhombic'
loop_
_space_group_symop_operation_xyz
x,y,z
-x,-y,1/2+z
x,-y,-z
-x,y,1/2-z
-x,-y,-z
x,y,1/2-z
-x,y,z
x,-y,1/2+z
1/2+x,1/2+y,z
1/2-x,1/2-y,1/2+z
1/2+x,1/2-y,-z
1/2-x,1/2+y,1/2-z
1/2-x,1/2-y,-z
1/2+x,1/2+y,1/2-z
1/2-x,1/2+y,z
1/2+x,1/2-y,1/2+z
loop_
_atom_site_type_symbol
_atom_site_label
_atom_site_fract_x
_atom_site_fract_y
_atom_site_fract_z
Si Si1 0.329537 0.482892 0.059666
Si Si2 0.832584 0.248565 0.628976
Si Si3 0.838440 0.325377 0.532258
Si Si4 0.665857 0.079148 0.386441
Si Si5 0.332506 0.644427 0.933420
Si Si6 0.833644 0.162892 0.188186
O O1 0.500000 0.490093 0.069047
O O2 0.246343 0.520287 0.102799
O O3 0.274190 0.419278 0.072120
O O4 0.287804 0.500000 0.000000
O O5 0.789741 0.278565 0.574224
O O6 0.804456 0.181289 0.620095
O O7 0.733222 0.275171 0.674711
O O8 0.000000 0.260983 0.643102
O O9 0.826886 0.386674 0.559087
O O10 0.736304 0.322414 0.482137
O O11 0.000000 0.313528 0.512402
O O12 0.500000 0.068477 0.369186
O O13 0.745625 0.113041 0.339998
O O14 0.500000 0.641871 0.946974
O O15 0.820173 0.152721 0.250000
O O16 0.000000 0.161496 0.169529
#
# Coordination Sequence:
#
# PCOD8256768 Si02
#       6
#    16  16  16  16  16  16
#     4  10  19  31  48  72 105 145 181 213 248 291
#     4   9  19  33  48  72 102 132 167 207 251 302
#     4   9  17  28  43  67  99 133 170 208 246 290
#     4  10  20  33  51  76 104 135 172 213 254 301
#     4  10  19  30  46  69 102 141 177 206 241 292
#     4  10  21  37  58  80  99 123 160 211 267 316
#
# _framework density 17.336361
#
# number of rings (size 3 to 8) (size 9 to 14) (size 15 to 20)
#    0.000    2.333    1.667    2.500    0.000    5.667 
#    0.000    0.000    0.000    1.000    0.000    2.333 
#    0.000    0.000    0.000    0.000    0.000    0.000 
#
# Total GULP energy -595083.179124 kJ/mol
# GULP energy per Si atom -12397.566232 kJ/mol
# Density = 1.729690 g / cm^3
# Si number density = 17.336361 Si / 1000 Ang^3
#
#
#
# Elastic Constant Matrix: (Units=GPa)
#
#
# Indices 1 2 3 4 5 6 
#
# 1 80.6362 39.1873 40.1943 0.0000 0.0000 0.0000
# 2 39.1873 101.2650 27.8791 0.0000 0.0000 0.0000
# 3 40.1943 27.8791 56.8887 0.0000 0.0000 0.0000
# 4 0.0000 0.0000 0.0000 16.2382 0.0000 0.0000
# 5 0.0000 0.0000 0.0000 0.0000 25.0199 0.0000
# 6 0.0000 0.0000 0.0000 0.0000 0.0000 25.4961
#
#
#
# Elastic Compliance Matrix: (Units=1/GPa)
#
#
# Indices 1 2 3 4 5 6 
#
# 1 0.020876 -0.004644 -0.012474 0.000000 0.000000 0.000000
# 2 -0.004644 0.012448 -0.002819 0.000000 0.000000 0.000000
# 3 -0.012474 -0.002819 0.027773 0.000000 0.000000 0.000000
# 4 0.000000 0.000000 0.000000 0.061583 0.000000 0.000000
# 5 0.000000 0.000000 0.000000 0.000000 0.039968 0.000000
# 6 0.000000 0.000000 0.000000 0.000000 0.000000 0.039222
#
#
# Mechanical properties :
#
#
# Convention : Reuss Voigt Hill
#
# Bulk Modulus (GPa) = 47.11872 50.36793 48.74332
# Shear Modulus (GPa) = 20.09484 22.11945 21.10715
#
# Velocity S-wave (km/s) = 3.40827 3.57585 3.49307
# Velocity P-wave (km/s) = 6.53656 6.79451 6.66678
#
# Compressibility (1/GPa) = 0.02122299
#
# Stress axis : x y z
#
# Youngs Moduli (GPa) = 47.90120 80.33103 36.00615
#
# Poissons Ratio (x) = 0.37310 0.44914
# Poissons Ratio (y) = 0.22248 0.10150
# Poissons Ratio (z) = 0.59752 0.22645
#
# Static dielectric constant tensor:
#      x y z
#    x 3.269240 0.000000 0.000000 
#    y 0.000000 3.441480 0.000000 
#    z 0.000000 0.000000 2.863830 
# 
# 
# High freq. dielectric constant tensor:
#      x y z
#    x 1.674040 0.000000 0.000000 
#    y 0.000000 1.673870 0.000000 
#    z 0.000000 0.000000 1.629240 
# 
# From -- ./inp_files/59856.got.cif
#   From: 2010.03.12/outbox.cif.g09.slc.cpg/sg63_30_cif.got.tgz:59856.got - 2010.04.10 19:34:48.
