data_PCOD8256735
_publ_section_title
;
Structure prediction by ZEFSAII (Michael W. Deem and Ramdas Pophale) SiO2 
 PCOD8256735
Probable space group: C M C M
;
_chemical_formula_sum "Si O2"
_cell_formula_units_Z 96
_cell_length_a 9.050445
_cell_length_b 31.567987
_cell_length_c 18.302317
_cell_angle_alpha 90.000000
_cell_angle_beta 90.000000
_cell_angle_gamma 90.000000
_cell_volume 5229.051218
_symmetry_space_group_name_H-M "C M C M"
_symmetry_group_IT_number 63
_symmetry_cell_setting 'orthorhombic'
loop_
_space_group_symop_operation_xyz
x,y,z
-x,-y,1/2+z
x,-y,-z
-x,y,1/2-z
-x,-y,-z
x,y,1/2-z
-x,y,z
x,-y,1/2+z
1/2+x,1/2+y,z
1/2-x,1/2-y,1/2+z
1/2+x,1/2-y,-z
1/2-x,1/2+y,1/2-z
1/2-x,1/2-y,-z
1/2+x,1/2+y,1/2-z
1/2-x,1/2+y,z
1/2+x,1/2-y,1/2+z
loop_
_atom_site_type_symbol
_atom_site_label
_atom_site_fract_x
_atom_site_fract_y
_atom_site_fract_z
Si Si1 0.324221 0.325375 0.924012
Si Si2 0.661893 0.505225 0.163224
Si Si3 0.823435 0.914614 0.168042
Si Si4 0.677107 0.403875 0.667691
Si Si5 0.824545 0.168585 0.588825
Si Si6 0.828125 0.255292 0.165471
O O1 0.500000 0.326972 0.921204
O O2 0.260128 0.367558 0.885494
O O3 0.266157 0.284110 0.881426
O O4 0.265967 0.323468 0.006920
O O5 0.644917 0.504914 0.250000
O O6 0.500000 0.505472 0.126541
O O7 0.741415 0.460652 0.140781
O O8 0.741192 0.549839 0.141456
O O9 0.767237 0.904252 0.250000
O O10 0.768359 0.877693 0.114234
O O11 0.000000 0.917688 0.168192
O O12 0.729933 0.393412 0.750000
O O13 0.500000 0.405720 0.665717
O O14 0.759263 0.202960 0.643439
O O15 0.000000 0.171559 0.593004
O O16 0.799354 0.245029 0.250000
O O17 0.000000 0.262861 0.149476
#
# Coordination Sequence:
#
# PCOD8256735 Si02
#       6
#    16  16  16  16  16  16
#     4   9  17  28  41  60  86 113 141 175 216 257
#     4   7  10  17  31  52  78 109 142 172 203 242
#     4   8  13  22  36  55  81 112 142 170 204 247
#     4   8  12  20  36  56  80 113 148 176 206 250
#     4  10  19  30  45  65  90 117 141 170 213 261
#     4  10  20  33  48  64  83 110 145 183 217 249
#
# _framework density 18.358971
#
# number of rings (size 3 to 8) (size 9 to 14) (size 15 to 20)
#    0.000    3.333    0.000    3.500    0.000    3.000 
#    0.000    0.833    0.000    5.000    0.000    0.000 
#    0.000    4.000    0.000   10.667    0.000    8.333 
#
# Total GULP energy -594635.272452 kJ/mol
# GULP energy per Si atom -12388.234843 kJ/mol
# Density = 1.831719 g / cm^3
# Si number density = 18.358971 Si / 1000 Ang^3
#
#
#
# Elastic Constant Matrix: (Units=GPa)
#
#
# Indices 1 2 3 4 5 6 
#
# 1 7.9392 15.1279 11.2772 0.0000 0.0000 0.0000
# 2 15.1279 150.3389 37.4077 0.0000 0.0000 0.0000
# 3 11.2772 37.4077 70.7001 0.0000 0.0000 0.0000
# 4 0.0000 0.0000 0.0000 19.3552 0.0000 0.0000
# 5 0.0000 0.0000 0.0000 0.0000 11.9637 0.0000
# 6 0.0000 0.0000 0.0000 0.0000 0.0000 12.8369
#
#
#
# Elastic Compliance Matrix: (Units=1/GPa)
#
#
# Indices 1 2 3 4 5 6 
#
# 1 0.181901 -0.012765 -0.022260 0.000000 0.000000 0.000000
# 2 -0.012765 0.008556 -0.002491 0.000000 0.000000 0.000000
# 3 -0.022260 -0.002491 0.019013 0.000000 0.000000 0.000000
# 4 0.000000 0.000000 0.000000 0.051666 0.000000 0.000000
# 5 0.000000 0.000000 0.000000 0.000000 0.083586 0.000000
# 6 0.000000 0.000000 0.000000 0.000000 0.000000 0.077900
#
#
# Mechanical properties :
#
#
# Convention : Reuss Voigt Hill
#
# Bulk Modulus (GPa) = 7.43841 39.62265 23.53053
# Shear Modulus (GPa) = 9.21714 19.84218 14.52966
#
# Velocity S-wave (km/s) = 2.24308 3.29110 2.81627
# Velocity P-wave (km/s) = 3.28161 6.00590 4.83941
#
# Compressibility (1/GPa) = 0.13443729
#
# Stress axis : x y z
#
# Youngs Moduli (GPa) = 5.49749 116.87831 52.59595
#
# Poissons Ratio (x) = 1.49195 1.17081
# Poissons Ratio (y) = 0.07018 0.13101
# Poissons Ratio (z) = 0.12238 0.29113
#
# Static dielectric constant tensor:
#      x y z
#    x 2.601360 0.000000 0.000000 
#    y 0.000000 3.979180 0.000000 
#    z 0.000000 0.000000 3.335870 
# 
# 
# High freq. dielectric constant tensor:
#      x y z
#    x 1.622020 0.000000 0.000000 
#    y 0.000000 1.742500 0.000000 
#    z 0.000000 0.000000 1.696290 
# 
# From -- ./inp_files/53289.got.cif
#   From: 2010.03.12/outbox.cif.g09.slc.cpg/sg63_27_cif.got.tgz:53289.got - 2010.04.10 19:34:48.
