data_PCOD8256732
_publ_section_title
;
Structure prediction by ZEFSAII (Michael W. Deem and Ramdas Pophale) SiO2 
 PCOD8256732
Probable space group: C M C M
;
_chemical_formula_sum "Si O2"
_cell_formula_units_Z 96
_cell_length_a 13.230830
_cell_length_b 22.104917
_cell_length_c 20.208363
_cell_angle_alpha 90.000000
_cell_angle_beta 90.000000
_cell_angle_gamma 90.000000
_cell_volume 5910.267156
_symmetry_space_group_name_H-M "C M C M"
_symmetry_group_IT_number 63
_symmetry_cell_setting 'orthorhombic'
loop_
_space_group_symop_operation_xyz
x,y,z
-x,-y,1/2+z
x,-y,-z
-x,y,1/2-z
-x,-y,-z
x,y,1/2-z
-x,y,z
x,-y,1/2+z
1/2+x,1/2+y,z
1/2-x,1/2-y,1/2+z
1/2+x,1/2-y,-z
1/2-x,1/2+y,1/2-z
1/2-x,1/2-y,-z
1/2+x,1/2+y,1/2-z
1/2-x,1/2+y,z
1/2+x,1/2-y,1/2+z
loop_
_atom_site_type_symbol
_atom_site_label
_atom_site_fract_x
_atom_site_fract_y
_atom_site_fract_z
Si Si1 0.883328 0.045383 0.674753
Si Si2 0.113405 0.749330 0.439699
Si Si3 0.804028 0.826313 0.325863
Si Si4 0.807221 0.174589 0.440791
Si Si5 0.382692 0.543662 0.439474
Si Si6 0.613850 0.751278 0.325188
O O1 0.862969 0.025096 0.750000
O O2 0.816461 0.103522 0.655172
O O3 0.000000 0.063529 0.663575
O O4 0.852702 0.989765 0.628383
O O5 0.125081 0.784529 0.370626
O O6 0.132248 0.795936 0.498968
O O7 0.189402 0.692771 0.444375
O O8 0.000000 0.723661 0.444529
O O9 0.837130 0.815554 0.250000
O O10 0.686908 0.808548 0.338348
O O11 0.813576 0.102620 0.445822
O O12 0.856684 0.195561 0.371893
O O13 0.357353 0.500000 0.500000
O O14 0.500000 0.562966 0.439832
O O15 0.625015 0.727766 0.250000
O O16 0.500000 0.773242 0.339920
#
# Coordination Sequence:
#
# PCOD8256732 Si02
#       6
#    16  16  16  16  16  16
#     4   9  17  28  43  64  89 117 148 182 220 261
#     4  10  19  31  49  70  91 117 147 182 226 269
#     4   9  17  29  46  69  94 119 149 185 223 263
#     4  10  20  32  47  68  93 118 147 184 223 267
#     4  10  19  30  45  64  87 116 148 181 219 263
#     4   9  17  29  46  68  93 120 149 183 224 267
#
# _framework density 16.242920000000002
#
# number of rings (size 3 to 8) (size 9 to 14) (size 15 to 20)
#    0.000    2.500    0.000    3.000    0.000    3.000 
#    0.000    1.667    0.000    1.500    0.000    0.000 
#    0.000    0.000    0.000    0.000    0.000    0.000 
#
# Total GULP energy -595256.425457 kJ/mol
# GULP energy per Si atom -12401.175530 kJ/mol
# Density = 1.620595 g / cm^3
# Si number density = 16.242920 Si / 1000 Ang^3
#
#
#
# Elastic Constant Matrix: (Units=GPa)
#
#
# Indices 1 2 3 4 5 6 
#
# 1 106.7612 55.6090 42.6739 0.0000 0.0000 0.0000
# 2 55.6090 127.3305 55.1590 0.0000 0.0000 0.0000
# 3 42.6739 55.1590 89.4040 0.0000 0.0000 0.0000
# 4 0.0000 0.0000 0.0000 22.3394 0.0000 0.0000
# 5 0.0000 0.0000 0.0000 0.0000 16.7621 0.0000
# 6 0.0000 0.0000 0.0000 0.0000 0.0000 20.5808
#
#
#
# Elastic Compliance Matrix: (Units=1/GPa)
#
#
# Indices 1 2 3 4 5 6 
#
# 1 0.012953 -0.004065 -0.003675 0.000000 0.000000 0.000000
# 2 -0.004065 0.011994 -0.005460 0.000000 0.000000 0.000000
# 3 -0.003675 -0.005460 0.016307 0.000000 0.000000 0.000000
# 4 0.000000 0.000000 0.000000 0.044764 0.000000 0.000000
# 5 0.000000 0.000000 0.000000 0.000000 0.059658 0.000000
# 6 0.000000 0.000000 0.000000 0.000000 0.000000 0.048589
#
#
# Mechanical properties :
#
#
# Convention : Reuss Voigt Hill
#
# Bulk Modulus (GPa) = 67.31334 70.04216 68.67775
# Shear Modulus (GPa) = 22.16154 23.27336 22.71745
#
# Velocity S-wave (km/s) = 3.69776 3.78938 3.74385
# Velocity P-wave (km/s) = 7.73064 7.89691 7.81422
#
# Compressibility (1/GPa) = 0.01485590
#
# Stress axis : x y z
#
# Youngs Moduli (GPa) = 77.20289 83.37529 61.32168
#
# Poissons Ratio (x) = 0.33893 0.22533
# Poissons Ratio (y) = 0.31384 0.33479
# Poissons Ratio (z) = 0.28369 0.45519
#
# Static dielectric constant tensor:
#      x y z
#    x 3.029080 0.000000 0.000000 
#    y 0.000000 2.834660 0.000000 
#    z 0.000000 0.000000 3.346650 
# 
# 
# High freq. dielectric constant tensor:
#      x y z
#    x 1.608330 0.000000 0.000000 
#    y 0.000000 1.601860 0.000000 
#    z 0.000000 0.000000 1.647700 
# 
# From -- ./inp_files/52864.got.cif
#   From: 2010.03.12/outbox.cif.g09.slc.cpg/sg63_27_cif.got.tgz:52864.got - 2010.04.10 19:34:48.
