data_PCOD8256472
_publ_section_title
;
Structure prediction by ZEFSAII (Michael W. Deem and Ramdas Pophale) SiO2 
 PCOD8256472
Probable space group: C M C M
;
_chemical_formula_sum "Si O2"
_cell_formula_units_Z 88
_cell_length_a 20.521025
_cell_length_b 10.649168
_cell_length_c 20.434458
_cell_angle_alpha 90.000000
_cell_angle_beta 90.000000
_cell_angle_gamma 90.000000
_cell_volume 4465.579762
_symmetry_space_group_name_H-M "C M C M"
_symmetry_group_IT_number 63
_symmetry_cell_setting 'orthorhombic'
loop_
_space_group_symop_operation_xyz
x,y,z
-x,-y,1/2+z
x,-y,-z
-x,y,1/2-z
-x,-y,-z
x,y,1/2-z
-x,y,z
x,-y,1/2+z
1/2+x,1/2+y,z
1/2-x,1/2-y,1/2+z
1/2+x,1/2-y,-z
1/2-x,1/2+y,1/2-z
1/2-x,1/2-y,-z
1/2+x,1/2+y,1/2-z
1/2-x,1/2+y,z
1/2+x,1/2-y,1/2+z
loop_
_atom_site_type_symbol
_atom_site_label
_atom_site_fract_x
_atom_site_fract_y
_atom_site_fract_z
Si Si1 0.106886 0.500000 0.000000
Si Si2 0.329353 0.418086 0.565452
Si Si3 0.810869 0.353593 0.593349
Si Si4 0.072941 0.286756 0.410008
Si Si5 0.827353 0.595923 0.678781
Si Si6 0.180304 0.876996 0.175024
O O1 0.149996 0.384692 0.972346
O O2 0.064741 0.580044 0.948410
O O3 0.320250 0.500000 0.500000
O O4 0.264888 0.331216 0.574210
O O5 0.392362 0.330130 0.553013
O O6 0.336835 0.499897 0.632317
O O7 0.819666 0.475767 0.635580
O O8 0.845996 0.240408 0.632510
O O9 0.118568 0.307434 0.346975
O O10 0.000000 0.244883 0.390108
O O11 0.850625 0.553417 0.750000
O O12 0.756368 0.658495 0.681357
O O13 0.151622 0.888265 0.250000
#
# Coordination Sequence:
#
# PCOD8256472 Si02
#       6
#     8  16  16  16  16  16
#     4  10  21  36  60  86 109 142 192 244 296 336
#     4  11  22  35  56  85 117 151 191 235 293 354
#     4  10  18  33  58  84 113 142 179 241 297 350
#     4  11  23  38  55  78 112 153 192 231 277 340
#     4   9  19  33  52  80 108 141 184 229 282 337
#     4  10  20  34  56  86 118 148 183 238 298 352
#
# _framework density 19.706287
#
# number of rings (size 3 to 8) (size 9 to 14) (size 15 to 20)
#    0.000    1.818    2.727    1.909    0.000    3.636 
#    0.000    0.000    0.000    1.091    0.000    0.000 
#    0.000    0.000    0.000    0.000    0.000    0.000 
#
# Total GULP energy -545079.336964 kJ/mol
# GULP energy per Si atom -12388.166749 kJ/mol
# Density = 1.966143 g / cm^3
# Si number density = 19.706287 Si / 1000 Ang^3
#
#
#
# Elastic Constant Matrix: (Units=GPa)
#
#
# Indices 1 2 3 4 5 6 
#
# 1 80.7805 25.6162 20.1575 0.0000 0.0000 0.0000
# 2 25.6162 56.2447 5.6616 0.0000 0.0000 0.0000
# 3 20.1575 5.6616 76.1670 0.0000 0.0000 0.0000
# 4 0.0000 0.0000 0.0000 13.0204 0.0000 0.0000
# 5 0.0000 0.0000 0.0000 0.0000 11.8205 0.0000
# 6 0.0000 0.0000 0.0000 0.0000 0.0000 22.2162
#
#
#
# Elastic Compliance Matrix: (Units=1/GPa)
#
#
# Indices 1 2 3 4 5 6 
#
# 1 0.015378 -0.006644 -0.003576 0.000000 0.000000 0.000000
# 2 -0.006644 0.020784 0.000213 0.000000 0.000000 0.000000
# 3 -0.003576 0.000213 0.014060 0.000000 0.000000 0.000000
# 4 0.000000 0.000000 0.000000 0.076803 0.000000 0.000000
# 5 0.000000 0.000000 0.000000 0.000000 0.084599 0.000000
# 6 0.000000 0.000000 0.000000 0.000000 0.000000 0.045012
#
#
# Mechanical properties :
#
#
# Convention : Reuss Voigt Hill
#
# Bulk Modulus (GPa) = 33.10301 35.11807 34.11054
# Shear Modulus (GPa) = 17.43873 20.19523 18.81698
#
# Velocity S-wave (km/s) = 2.97801 3.20474 3.09345
# Velocity P-wave (km/s) = 5.35345 5.61723 5.48692
#
# Compressibility (1/GPa) = 0.03020873
#
# Stress axis : x y z
#
# Youngs Moduli (GPa) = 65.02616 48.11410 71.12596
#
# Poissons Ratio (x) = 0.31967 0.25435
# Poissons Ratio (y) = 0.43203 -0.01518
# Poissons Ratio (z) = 0.23253 -0.01027
#
# Static dielectric constant tensor:
#      x y z
#    x 3.378580 0.000000 0.000000 
#    y 0.000000 3.452860 0.000000 
#    z 0.000000 0.000000 3.226000 
# 
# 
# High freq. dielectric constant tensor:
#      x y z
#    x 1.722390 0.000000 0.000000 
#    y 0.000000 1.769830 0.000000 
#    z 0.000000 0.000000 1.778160 
# 
# From -- ./inp_files/55424.got.cif
#   From: 2010.03.12/outbox.cif.g09.slc.cpg/sg63_28_cif.got.tgz:55424.got - 2010.04.10 19:34:48.
