data_PCOD8256726
_publ_section_title
;
Structure prediction by ZEFSAII (Michael W. Deem and Ramdas Pophale) SiO2 
 PCOD8256726
Probable space group: C M C M
;
_chemical_formula_sum "Si O2"
_cell_formula_units_Z 112
_cell_length_a 13.794221
_cell_length_b 28.770185
_cell_length_c 15.177375
_cell_angle_alpha 90.000000
_cell_angle_beta 90.000000
_cell_angle_gamma 90.000000
_cell_volume 6023.327800
_symmetry_space_group_name_H-M "C M C M"
_symmetry_group_IT_number 63
_symmetry_cell_setting 'orthorhombic'
loop_
_space_group_symop_operation_xyz
x,y,z
-x,-y,1/2+z
x,-y,-z
-x,y,1/2-z
-x,-y,-z
x,y,1/2-z
-x,y,z
x,-y,1/2+z
1/2+x,1/2+y,z
1/2-x,1/2-y,1/2+z
1/2+x,1/2-y,-z
1/2-x,1/2+y,1/2-z
1/2-x,1/2-y,-z
1/2+x,1/2+y,1/2-z
1/2-x,1/2+y,z
1/2+x,1/2-y,1/2+z
loop_
_atom_site_type_symbol
_atom_site_label
_atom_site_fract_x
_atom_site_fract_y
_atom_site_fract_z
Si Si1 0.610637 0.988651 0.350982
Si Si2 0.614075 0.793500 0.348677
Si Si3 0.388000 0.252085 0.151604
Si Si4 0.391119 0.891558 0.098214
Si Si5 0.885948 0.791533 0.531767
Si Si6 0.255657 0.835364 0.653186
Si Si7 0.890215 0.412846 0.899868
O O1 0.623044 0.002299 0.250000
O O2 0.500000 0.980376 0.379748
O O3 0.648217 0.033555 0.405402
O O4 0.663946 0.939248 0.371274
O O5 0.643112 0.777549 0.250000
O O6 0.500000 0.797720 0.360953
O O7 0.661123 0.844430 0.367421
O O8 0.652365 0.755041 0.417404
O O9 0.364755 0.272797 0.250000
O O10 0.500000 0.238874 0.143688
O O11 0.333125 0.204596 0.133977
O O12 0.361592 0.288310 0.072902
O O13 0.500000 0.891971 0.137812
O O14 0.392317 0.888868 0.993961
O O15 0.827626 0.834031 0.577438
O O16 0.000000 0.799610 0.547383
O O17 0.207676 0.829111 0.750000
O O18 0.313284 0.883922 0.656511
O O19 0.000000 0.412284 0.859063
#
# Coordination Sequence:
#
# PCOD8256726 Si02
#       7
#    16  16  16  16  16  16  16
#     4   9  16  26  41  62  89 120 154 191 231 279
#     4   9  16  26  41  61  86 117 152 188 228 275
#     4   9  18  32  49  68  89 116 154 197 238 282
#     4   9  16  26  41  61  86 117 152 189 229 275
#     4  10  20  34  50  68  93 125 161 202 243 280
#     4  11  21  31  46  67  93 128 165 199 235 276
#     4  10  19  30  44  64  93 129 165 197 232 278
#
# _framework density 18.594372
#
# number of rings (size 3 to 8) (size 9 to 14) (size 15 to 20)
#    0.000    2.429    0.000    3.429    0.000    8.000 
#    0.000    0.000    0.000    0.857    0.000    0.000 
#    0.000    2.286    0.000    0.857    0.000   23.857 
#
# Total GULP energy -693868.240123 kJ/mol
# GULP energy per Si atom -12390.504288 kJ/mol
# Density = 1.855205 g / cm^3
# Si number density = 18.594372 Si / 1000 Ang^3
#
#
#
# Elastic Constant Matrix: (Units=GPa)
#
#
# Indices 1 2 3 4 5 6 
#
# 1 42.3819 30.9346 17.5509 0.0000 0.0000 0.0000
# 2 30.9346 79.5960 24.6102 0.0000 0.0000 0.0000
# 3 17.5509 24.6102 100.9428 0.0000 0.0000 0.0000
# 4 0.0000 0.0000 0.0000 19.3983 0.0000 0.0000
# 5 0.0000 0.0000 0.0000 0.0000 12.7615 0.0000
# 6 0.0000 0.0000 0.0000 0.0000 0.0000 14.6473
#
#
#
# Elastic Compliance Matrix: (Units=1/GPa)
#
#
# Indices 1 2 3 4 5 6 
#
# 1 0.033697 -0.012205 -0.002883 0.000000 0.000000 0.000000
# 2 -0.012205 0.018008 -0.002268 0.000000 0.000000 0.000000
# 3 -0.002883 -0.002268 0.010961 0.000000 0.000000 0.000000
# 4 0.000000 0.000000 0.000000 0.051551 0.000000 0.000000
# 5 0.000000 0.000000 0.000000 0.000000 0.078361 0.000000
# 6 0.000000 0.000000 0.000000 0.000000 0.000000 0.068272
#
#
# Mechanical properties :
#
#
# Convention : Reuss Voigt Hill
#
# Bulk Modulus (GPa) = 35.77397 41.01246 38.39321
# Shear Modulus (GPa) = 16.39984 19.34975 17.87479
#
# Velocity S-wave (km/s) = 2.97303 3.22937 3.10385
# Velocity P-wave (km/s) = 5.57370 6.00078 5.79118
#
# Compressibility (1/GPa) = 0.02795329
#
# Stress axis : x y z
#
# Youngs Moduli (GPa) = 29.67600 55.53054 91.23276
#
# Poissons Ratio (x) = 0.67774 0.26306
# Poissons Ratio (y) = 0.36219 0.20695
# Poissons Ratio (z) = 0.08557 0.12597
#
# Static dielectric constant tensor:
#      x y z
#    x 3.032910 0.000000 0.000000 
#    y 0.000000 3.478990 0.000000 
#    z 0.000000 0.000000 3.586660 
# 
# 
# High freq. dielectric constant tensor:
#      x y z
#    x 1.658810 0.000000 0.000000 
#    y 0.000000 1.705450 0.000000 
#    z 0.000000 0.000000 1.740190 
# 
# From -- ./inp_files/32592.got.cif
#   From: 2010.03.12/outbox.cif.g09.slc.cpg/sg63_17_cif.got.tgz:32592.got - 2010.04.10 19:34:48.
