data_PCOD8256166
_publ_section_title
;
Structure prediction by ZEFSAII (Michael W. Deem and Ramdas Pophale) SiO2 
 PCOD8256166
Probable space group: C M C M
;
_chemical_formula_sum "Si O2"
_cell_formula_units_Z 128
_cell_length_a 23.717243
_cell_length_b 21.402258
_cell_length_c 16.141633
_cell_angle_alpha 90.000000
_cell_angle_beta 90.000000
_cell_angle_gamma 90.000000
_cell_volume 8193.534132
_symmetry_space_group_name_H-M "C M C M"
_symmetry_group_IT_number 63
_symmetry_cell_setting 'orthorhombic'
loop_
_space_group_symop_operation_xyz
x,y,z
-x,-y,1/2+z
x,-y,-z
-x,y,1/2-z
-x,-y,-z
x,y,1/2-z
-x,y,z
x,-y,1/2+z
1/2+x,1/2+y,z
1/2-x,1/2-y,1/2+z
1/2+x,1/2-y,-z
1/2-x,1/2+y,1/2-z
1/2-x,1/2-y,-z
1/2+x,1/2+y,1/2-z
1/2-x,1/2+y,z
1/2+x,1/2-y,1/2+z
loop_
_atom_site_type_symbol
_atom_site_label
_atom_site_fract_x
_atom_site_fract_y
_atom_site_fract_z
Si Si1 0.145106 0.349864 0.838545
Si Si2 0.243104 0.080350 0.343535
Si Si3 0.564370 0.151103 0.566828
Si Si4 0.936251 0.564809 0.090154
Si Si5 0.162855 0.723993 0.494613
Si Si6 0.250569 0.564296 0.654966
Si Si7 0.277059 0.349132 0.491634
Si Si8 0.378632 0.948355 0.343745
O O1 0.152282 0.317676 0.750000
O O2 0.190527 0.405307 0.852590
O O3 0.084951 0.384123 0.843758
O O4 0.150551 0.292615 0.900095
O O5 0.222825 0.101549 0.250000
O O6 0.214168 0.116607 0.419819
O O7 0.230673 0.007399 0.354442
O O8 0.500000 0.176234 0.572840
O O9 0.571316 0.097082 0.498418
O O10 0.607436 0.208272 0.549602
O O11 0.583536 0.114736 0.649619
O O12 0.900463 0.501532 0.093941
O O13 0.000000 0.546635 0.110124
O O14 0.216967 0.684239 0.523650
O O15 0.173705 0.797715 0.495631
O O16 0.262040 0.587160 0.750000
O O17 0.285426 0.604765 0.587245
O O18 0.184872 0.569954 0.632402
O O19 0.382143 0.973724 0.250000
#
# Coordination Sequence:
#
# PCOD8256166 Si02
#       8
#    16  16  16  16  16  16  16  16
#     4   9  16  27  41  57  82 113 144 183 221 255
#     4   9  17  29  45  66  87 111 143 177 224 275
#     4  10  20  33  45  59  84 117 154 193 225 257
#     4  10  19  28  41  60  82 114 156 193 221 253
#     4   9  19  31  44  63  82 113 157 184 219 266
#     4  10  19  29  45  69  93 117 147 182 223 271
#     4  10  18  31  48  62  87 119 147 187 224 266
#     4  11  20  29  41  61  88 117 152 188 220 257
#
# _framework density 15.622075000000001
#
# number of rings (size 3 to 8) (size 9 to 14) (size 15 to 20)
#    0.000    2.250    2.500    1.500    0.000    4.250 
#    0.000    2.500    0.000    0.000    0.000    0.000 
#    0.000    2.000    0.000    2.750    0.000    0.000 
#
# Total GULP energy -793047.855452 kJ/mol
# GULP energy per Si atom -12391.372741 kJ/mol
# Density = 1.558652 g / cm^3
# Si number density = 15.622075 Si / 1000 Ang^3
#
#
#
# Elastic Constant Matrix: (Units=GPa)
#
#
# Indices 1 2 3 4 5 6 
#
# 1 49.4575 35.1672 17.5003 0.0000 0.0000 0.0000
# 2 35.1672 84.1671 44.9040 0.0000 0.0000 0.0000
# 3 17.5003 44.9040 71.7701 0.0000 0.0000 0.0000
# 4 0.0000 0.0000 0.0000 14.7824 0.0000 0.0000
# 5 0.0000 0.0000 0.0000 0.0000 10.4706 0.0000
# 6 0.0000 0.0000 0.0000 0.0000 0.0000 19.0304
#
#
#
# Elastic Compliance Matrix: (Units=1/GPa)
#
#
# Indices 1 2 3 4 5 6 
#
# 1 0.028793 -0.012436 0.000760 0.000000 0.000000 0.000000
# 2 -0.012436 0.023205 -0.011486 0.000000 0.000000 0.000000
# 3 0.000760 -0.011486 0.020935 0.000000 0.000000 0.000000
# 4 0.000000 0.000000 0.000000 0.067648 0.000000 0.000000
# 5 0.000000 0.000000 0.000000 0.000000 0.095506 0.000000
# 6 0.000000 0.000000 0.000000 0.000000 0.000000 0.052548
#
#
# Mechanical properties :
#
#
# Convention : Reuss Voigt Hill
#
# Bulk Modulus (GPa) = 37.58230 44.50421 41.04325
# Shear Modulus (GPa) = 14.54212 16.04488 15.29350
#
# Velocity S-wave (km/s) = 3.05433 3.20826 3.13224
# Velocity P-wave (km/s) = 6.04549 6.50183 6.27781
#
# Compressibility (1/GPa) = 0.02660827
#
# Stress axis : x y z
#
# Youngs Moduli (GPa) = 34.73037 43.09363 47.76753
#
# Poissons Ratio (x) = 0.53591 -0.03629
# Poissons Ratio (y) = 0.43191 0.54868
# Poissons Ratio (z) = -0.02639 0.49499
#
# Static dielectric constant tensor:
#      x y z
#    x 2.720520 0.000000 0.000000 
#    y 0.000000 2.779190 0.000000 
#    z 0.000000 0.000000 3.092770 
# 
# 
# High freq. dielectric constant tensor:
#      x y z
#    x 1.553960 0.000000 0.000000 
#    y 0.000000 1.576120 0.000000 
#    z 0.000000 0.000000 1.611380 
# 
# From -- ./inp_files/48402.got.cif
#   From: 2010.03.12/outbox.cif.g09.slc.cpg/sg63_25_cif.got.tgz:48402.got - 2010.04.10 19:34:48.
