data_PCOD8256204
_publ_section_title
;
Structure prediction by ZEFSAII (Michael W. Deem and Ramdas Pophale) SiO2 
 PCOD8256204
Probable space group: C M C M
;
_chemical_formula_sum "Si O2"
_cell_formula_units_Z 72
_cell_length_a 16.234174
_cell_length_b 28.329005
_cell_length_c 8.650753
_cell_angle_alpha 90.000000
_cell_angle_beta 90.000000
_cell_angle_gamma 90.000000
_cell_volume 3978.463972
_symmetry_space_group_name_H-M "C M C M"
_symmetry_group_IT_number 63
_symmetry_cell_setting 'orthorhombic'
loop_
_space_group_symop_operation_xyz
x,y,z
-x,-y,1/2+z
x,-y,-z
-x,y,1/2-z
-x,-y,-z
x,y,1/2-z
-x,y,z
x,-y,1/2+z
1/2+x,1/2+y,z
1/2-x,1/2-y,1/2+z
1/2+x,1/2-y,-z
1/2-x,1/2+y,1/2-z
1/2-x,1/2-y,-z
1/2+x,1/2+y,1/2-z
1/2-x,1/2+y,z
1/2+x,1/2-y,1/2+z
loop_
_atom_site_type_symbol
_atom_site_label
_atom_site_fract_x
_atom_site_fract_y
_atom_site_fract_z
Si Si1 0.678881 0.947708 0.932918
Si Si2 0.907213 0.806276 0.571530
Si Si3 0.500000 0.949440 0.570401
Si Si4 0.256030 0.360131 0.432335
Si Si5 0.671615 0.776688 0.566624
O O1 0.693248 0.949204 0.750000
O O2 0.587554 0.925759 0.976232
O O3 0.746331 0.913867 0.011055
O O4 0.690553 0.000000 0.000000
O O5 0.880565 0.804255 0.750000
O O6 0.845488 0.841482 0.484150
O O7 0.905188 0.752881 0.501342
O O8 0.000000 0.825523 0.551711
O O9 0.500000 0.957395 0.750000
O O10 0.500000 0.000000 0.500000
O O11 0.250141 0.356745 0.250000
O O12 0.180046 0.330270 0.506617
O O13 0.667971 0.776233 0.750000
O O14 0.750000 0.750000 0.500000
#
# Coordination Sequence:
#
# PCOD8256204 Si02
#       5
#    16  16   8  16  16
#     4  10  19  34  54  78 106 138 176 217 262 311
#     4  10  20  35  55  78 105 137 174 217 264 314
#     4   8  16  30  50  72  98 130 164 206 252 300
#     4  11  21  34  53  77 106 141 178 216 260 309
#     4  10  18  31  51  73 100 133 168 210 256 305
#
# _framework density 18.097436999999999
#
# number of rings (size 3 to 8) (size 9 to 14) (size 15 to 20)
#    0.000    2.000    0.000    8.000    0.000    2.667 
#    2.000    0.000    0.000    0.667    0.000    0.000 
#    0.000    0.000    0.000    0.000    0.000    0.000 
#
# Total GULP energy -446037.648659 kJ/mol
# GULP energy per Si atom -12389.934685 kJ/mol
# Density = 1.805625 g / cm^3
# Si number density = 18.097437 Si / 1000 Ang^3
#
#
#
# Elastic Constant Matrix: (Units=GPa)
#
#
# Indices 1 2 3 4 5 6 
#
# 1 77.0062 44.1714 37.4892 0.0000 0.0000 0.0000
# 2 44.1714 102.6823 47.3297 0.0000 0.0000 0.0000
# 3 37.4892 47.3297 139.6017 0.0000 0.0000 0.0000
# 4 0.0000 0.0000 0.0000 31.7532 0.0000 0.0000
# 5 0.0000 0.0000 0.0000 0.0000 23.5481 0.0000
# 6 0.0000 0.0000 0.0000 0.0000 0.0000 20.2187
#
#
#
# Elastic Compliance Matrix: (Units=1/GPa)
#
#
# Indices 1 2 3 4 5 6 
#
# 1 0.018014 -0.006542 -0.002620 0.000000 0.000000 0.000000
# 2 -0.006542 0.013918 -0.002962 0.000000 0.000000 0.000000
# 3 -0.002620 -0.002962 0.008871 0.000000 0.000000 0.000000
# 4 0.000000 0.000000 0.000000 0.031493 0.000000 0.000000
# 5 0.000000 0.000000 0.000000 0.000000 0.042466 0.000000
# 6 0.000000 0.000000 0.000000 0.000000 0.000000 0.049459
#
#
# Mechanical properties :
#
#
# Convention : Reuss Voigt Hill
#
# Bulk Modulus (GPa) = 60.40017 64.14121 62.27069
# Shear Modulus (GPa) = 25.77506 27.79066 26.78286
#
# Velocity S-wave (km/s) = 3.77800 3.92294 3.85115
# Velocity P-wave (km/s) = 7.24420 7.48588 7.36603
#
# Compressibility (1/GPa) = 0.01655625
#
# Stress axis : x y z
#
# Youngs Moduli (GPa) = 55.51370 71.84912 112.72756
#
# Poissons Ratio (x) = 0.47000 0.29531
# Poissons Ratio (y) = 0.36314 0.33390
# Poissons Ratio (z) = 0.14543 0.21282
#
# Static dielectric constant tensor:
#      x y z
#    x 3.388690 0.000000 0.000000 
#    y 0.000000 3.481370 0.000000 
#    z 0.000000 0.000000 3.449420 
# 
# 
# High freq. dielectric constant tensor:
#      x y z
#    x 1.684240 0.000000 0.000000 
#    y 0.000000 1.683700 0.000000 
#    z 0.000000 0.000000 1.721750 
# 
# From -- ./inp_files/6129.got.cif
#   From: 2010.03.12/outbox.cif.g09.slc.cpg/sg63_4_cif.got.tgz:6129.got - 2010.04.10 19:34:48.
