data_PCOD8256948
_publ_section_title
;
Structure prediction by ZEFSAII (Michael W. Deem and Ramdas Pophale) SiO2 
 PCOD8256948
Probable space group: C M C M
;
_chemical_formula_sum "Si O2"
_cell_formula_units_Z 80
_cell_length_a 8.959834
_cell_length_b 19.367807
_cell_length_c 25.913702
_cell_angle_alpha 90.000000
_cell_angle_beta 90.000000
_cell_angle_gamma 90.000000
_cell_volume 4496.865234
_symmetry_space_group_name_H-M "C M C M"
_symmetry_group_IT_number 63
_symmetry_cell_setting 'orthorhombic'
loop_
_space_group_symop_operation_xyz
x,y,z
-x,-y,1/2+z
x,-y,-z
-x,y,1/2-z
-x,-y,-z
x,y,1/2-z
-x,y,z
x,-y,1/2+z
1/2+x,1/2+y,z
1/2-x,1/2-y,1/2+z
1/2+x,1/2-y,-z
1/2-x,1/2+y,1/2-z
1/2-x,1/2-y,-z
1/2+x,1/2+y,1/2-z
1/2-x,1/2+y,z
1/2+x,1/2-y,1/2+z
loop_
_atom_site_type_symbol
_atom_site_label
_atom_site_fract_x
_atom_site_fract_y
_atom_site_fract_z
Si Si1 0.175554 0.119616 0.035829
Si Si2 0.324241 0.877610 0.806891
Si Si3 0.825155 0.725847 0.107455
Si Si4 0.676448 0.984855 0.609238
Si Si5 0.673448 0.620747 0.916328
O O1 0.236406 0.189534 0.061295
O O2 0.250576 0.051511 0.059617
O O3 0.000000 0.114839 0.044692
O O4 0.218274 0.122397 0.976047
O O5 0.248526 0.877272 0.750000
O O6 0.500000 0.879928 0.800249
O O7 0.278205 0.808426 0.838006
O O8 0.271459 0.944675 0.839058
O O9 0.784318 0.806302 0.109546
O O10 0.000000 0.714401 0.096144
O O11 0.500000 0.981936 0.602531
O O12 0.731706 0.063212 0.613608
O O13 0.500000 0.603627 0.909294
#
# Coordination Sequence:
#
# PCOD8256948 Si02
#       5
#    16  16  16  16  16
#     4  10  19  31  48  69  98 134 162 190 233 280
#     4   8  15  31  53  71  88 117 158 200 241 283
#     4   9  18  32  50  72  96 124 160 197 232 280
#     4  10  20  32  49  72  95 125 165 200 231 278
#     4  10  20  32  46  70 104 132 155 192 239 281
#
# _framework density 17.790171000000001
#
# number of rings (size 3 to 8) (size 9 to 14) (size 15 to 20)
#    0.000    2.600    0.000    3.600    0.000    4.800 
#    0.000    1.000    0.000   16.200    0.000    0.000 
#    0.000    0.000    0.000    0.000    0.000    0.000 
#
# Total GULP energy -495986.807642 kJ/mol
# GULP energy per Si atom -12399.670191 kJ/mol
# Density = 1.774968 g / cm^3
# Si number density = 17.790171 Si / 1000 Ang^3
#
#
#
# Elastic Constant Matrix: (Units=GPa)
#
#
# Indices 1 2 3 4 5 6 
#
# 1 49.0645 43.5124 35.1065 0.0000 0.0000 0.0000
# 2 43.5124 159.7422 77.5465 0.0000 0.0000 0.0000
# 3 35.1065 77.5465 129.7317 0.0000 0.0000 0.0000
# 4 0.0000 0.0000 0.0000 11.8124 0.0000 0.0000
# 5 0.0000 0.0000 0.0000 0.0000 14.6687 0.0000
# 6 0.0000 0.0000 0.0000 0.0000 0.0000 32.3524
#
#
#
# Elastic Compliance Matrix: (Units=1/GPa)
#
#
# Indices 1 2 3 4 5 6 
#
# 1 0.028499 -0.005662 -0.004328 0.000000 0.000000 0.000000
# 2 -0.005662 0.009944 -0.004412 0.000000 0.000000 0.000000
# 3 -0.004328 -0.004412 0.011516 0.000000 0.000000 0.000000
# 4 0.000000 0.000000 0.000000 0.084657 0.000000 0.000000
# 5 0.000000 0.000000 0.000000 0.000000 0.068173 0.000000
# 6 0.000000 0.000000 0.000000 0.000000 0.000000 0.030910
#
#
# Mechanical properties :
#
#
# Convention : Reuss Voigt Hill
#
# Bulk Modulus (GPa) = 47.26645 72.31879 59.79262
# Shear Modulus (GPa) = 18.54915 23.92488 21.23702
#
# Velocity S-wave (km/s) = 3.23253 3.67118 3.45882
# Velocity P-wave (km/s) = 6.36859 7.66220 7.04515
#
# Compressibility (1/GPa) = 0.02115666
#
# Stress axis : x y z
#
# Youngs Moduli (GPa) = 35.08868 100.56197 86.83219
#
# Poissons Ratio (x) = 0.56939 0.37578
# Poissons Ratio (y) = 0.19868 0.38309
# Poissons Ratio (z) = 0.15185 0.44366
#
# Static dielectric constant tensor:
#      x y z
#    x 3.129600 0.000000 0.000000 
#    y 0.000000 3.421270 0.000000 
#    z 0.000000 0.000000 3.441700 
# 
# 
# High freq. dielectric constant tensor:
#      x y z
#    x 1.672800 0.000000 0.000000 
#    y 0.000000 1.695590 0.000000 
#    z 0.000000 0.000000 1.674020 
# 
# From -- ./inp_files/66598.got.cif
#   From: 2010.03.12/outbox.cif.g09.slc.cpg/sg63_34_cif.got.tgz:66598.got - 2010.04.10 19:34:48.
