data_PCOD8256389
_publ_section_title
;
Structure prediction by ZEFSAII (Michael W. Deem and Ramdas Pophale) SiO2 
 PCOD8256389
Probable space group: C M C M
;
_chemical_formula_sum "Si O2"
_cell_formula_units_Z 112
_cell_length_a 24.885424
_cell_length_b 9.348632
_cell_length_c 23.736504
_cell_angle_alpha 90.000000
_cell_angle_beta 90.000000
_cell_angle_gamma 90.000000
_cell_volume 5522.171167
_symmetry_space_group_name_H-M "C M C M"
_symmetry_group_IT_number 63
_symmetry_cell_setting 'orthorhombic'
loop_
_space_group_symop_operation_xyz
x,y,z
-x,-y,1/2+z
x,-y,-z
-x,y,1/2-z
-x,-y,-z
x,y,1/2-z
-x,y,z
x,-y,1/2+z
1/2+x,1/2+y,z
1/2-x,1/2-y,1/2+z
1/2+x,1/2-y,-z
1/2-x,1/2+y,1/2-z
1/2-x,1/2-y,-z
1/2+x,1/2+y,1/2-z
1/2-x,1/2+y,z
1/2+x,1/2-y,1/2+z
loop_
_atom_site_type_symbol
_atom_site_label
_atom_site_fract_x
_atom_site_fract_y
_atom_site_fract_z
Si Si1 0.367580 0.155004 0.186787
Si Si2 0.940483 0.731525 0.409360
Si Si3 0.220018 0.707094 0.943965
Si Si4 0.387092 0.658439 0.018335
Si Si5 0.342174 0.512666 0.687776
Si Si6 0.234433 0.441832 0.626261
Si Si7 0.057932 0.942336 0.622551
O O1 0.386003 0.105480 0.250000
O O2 0.412423 0.129929 0.137966
O O3 0.356944 0.322379 0.188477
O O4 0.314709 0.064339 0.170227
O O5 0.905437 0.740567 0.466666
O O6 0.000000 0.668433 0.421766
O O7 0.945964 0.889367 0.385844
O O8 0.159516 0.761767 0.948134
O O9 0.219949 0.539274 0.928401
O O10 0.252741 0.782219 0.893724
O O11 0.250000 0.750000 0.000000
O O12 0.435586 0.636863 0.062446
O O13 0.366540 0.500000 0.000000
O O14 0.332965 0.451745 0.750000
O O15 0.287450 0.502851 0.654328
O O16 0.390523 0.415119 0.662188
O O17 0.000000 0.891158 0.648162
#
# Coordination Sequence:
#
# PCOD8256389 Si02
#       7
#    16  16  16  16  16  16  16
#     4  10  21  37  58  83 114 153 198 247 295 349
#     4   9  18  32  55  85 115 150 196 248 296 348
#     4  12  24  35  58  85 119 158 191 237 294 358
#     4  10  18  32  54  83 122 158 197 240 301 361
#     4  10  20  35  55  81 115 152 194 246 296 348
#     4  12  22  40  56  85 120 153 197 238 294 358
#     4   9  17  30  52  82 115 152 193 242 299 353
#
# _framework density 20.281877999999999
#
# number of rings (size 3 to 8) (size 9 to 14) (size 15 to 20)
#    0.000    1.714    2.857    3.000    2.000    2.286 
#    0.000    2.857    0.000    2.571    0.000    0.000 
#    0.000    0.000    0.000    0.000    0.000    0.000 
#
# Total GULP energy -694026.599262 kJ/mol
# GULP energy per Si atom -12393.332130 kJ/mol
# Density = 2.023572 g / cm^3
# Si number density = 20.281878 Si / 1000 Ang^3
#
#
#
# Elastic Constant Matrix: (Units=GPa)
#
#
# Indices 1 2 3 4 5 6 
#
# 1 138.9752 23.1313 50.6457 0.0000 0.0000 0.0000
# 2 23.1313 26.5406 17.4359 0.0000 0.0000 0.0000
# 3 50.6457 17.4359 113.6985 0.0000 0.0000 0.0000
# 4 0.0000 0.0000 0.0000 20.4029 0.0000 0.0000
# 5 0.0000 0.0000 0.0000 0.0000 26.5073 0.0000
# 6 0.0000 0.0000 0.0000 0.0000 0.0000 9.3426
#
#
#
# Elastic Compliance Matrix: (Units=1/GPa)
#
#
# Indices 1 2 3 4 5 6 
#
# 1 0.009388 -0.006043 -0.003255 0.000000 0.000000 0.000000
# 2 -0.006043 0.045790 -0.004330 0.000000 0.000000 0.000000
# 3 -0.003255 -0.004330 0.010909 0.000000 0.000000 0.000000
# 4 0.000000 0.000000 0.000000 0.049013 0.000000 0.000000
# 5 0.000000 0.000000 0.000000 0.000000 0.037725 0.000000
# 6 0.000000 0.000000 0.000000 0.000000 0.000000 0.107036
#
#
# Mechanical properties :
#
#
# Convention : Reuss Voigt Hill
#
# Bulk Modulus (GPa) = 25.75327 51.29333 38.52330
# Shear Modulus (GPa) = 16.66330 23.78399 20.22365
#
# Velocity S-wave (km/s) = 2.86944 3.42814 3.16116
# Velocity P-wave (km/s) = 4.86862 6.40427 5.68851
#
# Compressibility (1/GPa) = 0.03883002
#
# Stress axis : x y z
#
# Youngs Moduli (GPa) = 106.52436 21.83887 91.66728
#
# Poissons Ratio (x) = 0.13198 0.29836
# Poissons Ratio (y) = 0.64377 0.39692
# Poissons Ratio (z) = 0.34671 0.09456
#
# Static dielectric constant tensor:
#      x y z
#    x 4.029690 0.000000 0.000000 
#    y 0.000000 3.289640 0.000000 
#    z 0.000000 0.000000 3.742070 
# 
# 
# High freq. dielectric constant tensor:
#      x y z
#    x 1.800560 0.000000 0.000000 
#    y 0.000000 1.742170 0.000000 
#    z 0.000000 0.000000 1.794980 
# 
# From -- ./inp_files/65119.got.cif
#   From: 2010.03.12/outbox.cif.g09.slc.cpg/sg63_33_cif.got.tgz:65119.got - 2010.04.10 19:34:48.
