data_PCOD8256940
_publ_section_title
;
Structure prediction by ZEFSAII (Michael W. Deem and Ramdas Pophale) SiO2 
 PCOD8256940
Probable space group: C M C M
;
_chemical_formula_sum "Si O2"
_cell_formula_units_Z 80
_cell_length_a 9.091893
_cell_length_b 20.482946
_cell_length_c 27.248208
_cell_angle_alpha 90.000000
_cell_angle_beta 90.000000
_cell_angle_gamma 90.000000
_cell_volume 5074.399807
_symmetry_space_group_name_H-M "C M C M"
_symmetry_group_IT_number 63
_symmetry_cell_setting 'orthorhombic'
loop_
_space_group_symop_operation_xyz
x,y,z
-x,-y,1/2+z
x,-y,-z
-x,y,1/2-z
-x,-y,-z
x,y,1/2-z
-x,y,z
x,-y,1/2+z
1/2+x,1/2+y,z
1/2-x,1/2-y,1/2+z
1/2+x,1/2-y,-z
1/2-x,1/2+y,1/2-z
1/2-x,1/2-y,-z
1/2+x,1/2+y,1/2-z
1/2-x,1/2+y,z
1/2+x,1/2-y,1/2+z
loop_
_atom_site_type_symbol
_atom_site_label
_atom_site_fract_x
_atom_site_fract_y
_atom_site_fract_z
Si Si1 0.833336 0.421474 0.889719
Si Si2 0.833161 0.490184 0.305105
Si Si3 0.670515 0.675791 0.548161
Si Si4 0.828775 0.194665 0.064360
Si Si5 0.673347 0.547094 0.605626
O O1 0.830627 0.438047 0.831141
O O2 0.749590 0.354047 0.898053
O O3 0.750569 0.482098 0.917152
O O4 0.000000 0.416103 0.909552
O O5 0.769560 0.495221 0.250000
O O6 0.732201 0.441835 0.338331
O O7 0.000000 0.463171 0.304510
O O8 0.500000 0.691180 0.557738
O O9 0.764515 0.733310 0.572590
O O10 0.704428 0.670031 0.490560
O O11 0.719878 0.608403 0.572821
O O12 0.000000 0.196121 0.076457
O O13 0.500000 0.536170 0.605912
#
# Coordination Sequence:
#
# PCOD8256940 Si02
#       5
#    16  16  16  16  16
#     4   9  18  31  47  69  95 123 154 192 235 274
#     4   8  16  31  49  69  93 121 151 188 236 279
#     4   9  19  33  47  66  96 129 156 189 233 277
#     4  10  19  31  48  68  93 127 162 192 226 273
#     4   9  17  30  48  71  94 120 156 193 229 272
#
# _framework density 15.765412
#
# number of rings (size 3 to 8) (size 9 to 14) (size 15 to 20)
#    1.200    1.800    0.000    1.200    0.000    3.600 
#    0.000    4.000    0.000    1.200    0.000    2.800 
#    0.000    0.000    0.000    0.000    0.000    0.000 
#
# Total GULP energy -495629.896990 kJ/mol
# GULP energy per Si atom -12390.747425 kJ/mol
# Density = 1.572953 g / cm^3
# Si number density = 15.765412 Si / 1000 Ang^3
#
#
#
# Elastic Constant Matrix: (Units=GPa)
#
#
# Indices 1 2 3 4 5 6 
#
# 1 74.8224 31.1832 12.6883 0.0000 0.0000 0.0000
# 2 31.1832 55.4440 5.4615 0.0000 0.0000 0.0000
# 3 12.6883 5.4615 31.7321 0.0000 0.0000 0.0000
# 4 0.0000 0.0000 0.0000 11.6481 0.0000 0.0000
# 5 0.0000 0.0000 0.0000 0.0000 22.1309 0.0000
# 6 0.0000 0.0000 0.0000 0.0000 0.0000 31.6842
#
#
#
# Elastic Compliance Matrix: (Units=1/GPa)
#
#
# Indices 1 2 3 4 5 6 
#
# 1 0.018410 -0.009795 -0.005675 0.000000 0.000000 0.000000
# 2 -0.009795 0.023559 -0.000138 0.000000 0.000000 0.000000
# 3 -0.005675 -0.000138 0.033807 0.000000 0.000000 0.000000
# 4 0.000000 0.000000 0.000000 0.085851 0.000000 0.000000
# 5 0.000000 0.000000 0.000000 0.000000 0.045186 0.000000
# 6 0.000000 0.000000 0.000000 0.000000 0.000000 0.031561
#
#
# Mechanical properties :
#
#
# Convention : Reuss Voigt Hill
#
# Bulk Modulus (GPa) = 22.44252 28.96271 25.70262
# Shear Modulus (GPa) = 17.57822 20.60368 19.09095
#
# Velocity S-wave (km/s) = 3.34276 3.61902 3.48363
# Velocity P-wave (km/s) = 5.40046 5.98949 5.70258
#
# Compressibility (1/GPa) = 0.04455827
#
# Stress axis : x y z
#
# Youngs Moduli (GPa) = 54.31950 42.44698 29.57971
#
# Poissons Ratio (x) = 0.41577 0.16788
# Poissons Ratio (y) = 0.53206 0.00409
# Poissons Ratio (z) = 0.30828 0.00587
#
# Static dielectric constant tensor:
#      x y z
#    x 3.039320 0.000000 0.000000 
#    y 0.000000 2.833500 0.000000 
#    z 0.000000 0.000000 2.827250 
# 
# 
# High freq. dielectric constant tensor:
#      x y z
#    x 1.618650 0.000000 0.000000 
#    y 0.000000 1.589490 0.000000 
#    z 0.000000 0.000000 1.578280 
# 
# From -- ./inp_files/71605.got.cif
#   From: 2010.03.12/outbox.cif.g09.slc.cpg/sg63_36_cif.got.tgz:71605.got - 2010.04.10 19:34:48.
