data_PCOD8256682
_publ_section_title
;
Structure prediction by ZEFSAII (Michael W. Deem and Ramdas Pophale) SiO2 
 PCOD8256682
Probable space group: C M C M
;
_chemical_formula_sum "Si O2"
_cell_formula_units_Z 96
_cell_length_a 23.122440
_cell_length_b 13.932242
_cell_length_c 17.887525
_cell_angle_alpha 90.000000
_cell_angle_beta 90.000000
_cell_angle_gamma 90.000000
_cell_volume 5762.420203
_symmetry_space_group_name_H-M "C M C M"
_symmetry_group_IT_number 63
_symmetry_cell_setting 'orthorhombic'
loop_
_space_group_symop_operation_xyz
x,y,z
-x,-y,1/2+z
x,-y,-z
-x,y,1/2-z
-x,-y,-z
x,y,1/2-z
-x,y,z
x,-y,1/2+z
1/2+x,1/2+y,z
1/2-x,1/2-y,1/2+z
1/2+x,1/2-y,-z
1/2-x,1/2+y,1/2-z
1/2-x,1/2-y,-z
1/2+x,1/2+y,1/2-z
1/2-x,1/2+y,z
1/2+x,1/2-y,1/2+z
loop_
_atom_site_type_symbol
_atom_site_label
_atom_site_fract_x
_atom_site_fract_y
_atom_site_fract_z
Si Si1 0.561953 0.487275 0.837820
Si Si2 0.225752 0.515624 0.086592
Si Si3 0.329462 0.381136 0.835942
Si Si4 0.708669 0.804087 0.096108
Si Si5 0.670662 0.207803 0.070176
Si Si6 0.067413 0.206769 0.836954
O O1 0.555830 0.474313 0.750000
O O2 0.500000 0.463551 0.875650
O O3 0.608684 0.412701 0.869687
O O4 0.579645 0.596173 0.855086
O O5 0.284203 0.553240 0.121823
O O6 0.204692 0.414927 0.122948
O O7 0.177985 0.598049 0.098387
O O8 0.239613 0.500000 0.000000
O O9 0.324452 0.408719 0.750000
O O10 0.321675 0.266961 0.845272
O O11 0.776509 0.776596 0.094257
O O12 0.672618 0.790008 0.019667
O O13 0.609648 0.237640 0.106084
O O14 0.082366 0.230291 0.750000
O O15 0.000000 0.233132 0.852565
#
# Coordination Sequence:
#
# PCOD8256682 Si02
#       6
#    16  16  16  16  16  16
#     4   8  15  28  44  63  90 121 148 179 226 280
#     4   9  18  32  49  67  92 127 159 192 237 285
#     4  10  19  29  46  71  94 120 156 197 241 287
#     4   9  18  31  46  67  96 126 156 191 235 289
#     4   9  17  30  49  69  93 126 157 192 240 289
#     4   9  17  30  50  74  97 122 156 202 250 289
#
# _framework density 16.659666000000001
#
# number of rings (size 3 to 8) (size 9 to 14) (size 15 to 20)
#    0.000    3.000    0.000    3.000    0.000    3.333 
#    0.000    0.833    0.000    8.000    0.000    2.333 
#    0.000    0.000    0.000    0.000    0.000    0.000 
#
# Total GULP energy -594697.196525 kJ/mol
# GULP energy per Si atom -12389.524928 kJ/mol
# Density = 1.662175 g / cm^3
# Si number density = 16.659666 Si / 1000 Ang^3
#
#
#
# Elastic Constant Matrix: (Units=GPa)
#
#
# Indices 1 2 3 4 5 6 
#
# 1 111.0258 58.2303 36.9022 0.0000 0.0000 0.0000
# 2 58.2303 116.6969 20.1759 0.0000 0.0000 0.0000
# 3 36.9022 20.1759 26.8865 0.0000 0.0000 0.0000
# 4 0.0000 0.0000 0.0000 24.5353 0.0000 0.0000
# 5 0.0000 0.0000 0.0000 0.0000 23.2279 0.0000
# 6 0.0000 0.0000 0.0000 0.0000 0.0000 -3.2566
#
#
#
# Elastic Compliance Matrix: (Units=1/GPa)
#
#
# Indices 1 2 3 4 5 6 
#
# 1 0.019534 -0.005874 -0.022402 0.000000 0.000000 0.000000
# 2 -0.005874 0.011613 -0.000653 0.000000 0.000000 0.000000
# 3 -0.022402 -0.000653 0.068431 0.000000 0.000000 0.000000
# 4 0.000000 0.000000 0.000000 0.040758 0.000000 0.000000
# 5 0.000000 0.000000 0.000000 0.000000 0.043052 0.000000
# 6 0.000000 0.000000 0.000000 0.000000 0.000000 -0.307070
#
#
# Mechanical properties :
#
#
# Convention : Reuss Voigt Hill
#
# Bulk Modulus (GPa) = 23.96954 53.91400 38.94177
# Shear Modulus (GPa) = -96.30269 18.18803 -39.05733
#
# Velocity S-wave (km/s) = -7.61127 3.30773 -4.84718
# Velocity P-wave (km/s) = 7.92609 6.85714 2.81091
#
# Compressibility (1/GPa) = 0.04171962
#
# Stress axis : x y z
#
# Youngs Moduli (GPa) = 51.19393 86.11034 14.61335
#
# Poissons Ratio (x) = 0.50580 0.32737
# Poissons Ratio (y) = 0.30070 0.00954
# Poissons Ratio (z) = 1.14686 0.05620
#
# Static dielectric constant tensor:
#      x y z
#    x 4.200030 0.000000 0.000000 
#    y 0.000000 3.369160 0.000000 
#    z 0.000000 0.000000 2.946090 
# 
# 
# High freq. dielectric constant tensor:
#      x y z
#    x 1.628640 0.000000 0.000000 
#    y 0.000000 1.643440 0.000000 
#    z 0.000000 0.000000 1.621980 
# 
# From -- ./inp_files/56573.got.cif
#   From: 2010.03.12/outbox.cif.g09.slc.cpg/sg63_29_cif.got.tgz:56573.got - 2010.04.10 19:34:48.
