data_PCOD8256925
_publ_section_title
;
Structure prediction by ZEFSAII (Michael W. Deem and Ramdas Pophale) SiO2 
 PCOD8256925
Probable space group: C M C M
;
_chemical_formula_sum "Si O2"
_cell_formula_units_Z 96
_cell_length_a 17.022724
_cell_length_b 32.603238
_cell_length_c 9.882699
_cell_angle_alpha 90.000000
_cell_angle_beta 90.000000
_cell_angle_gamma 90.000000
_cell_volume 5484.857643
_symmetry_space_group_name_H-M "C M C M"
_symmetry_group_IT_number 63
_symmetry_cell_setting 'orthorhombic'
loop_
_space_group_symop_operation_xyz
x,y,z
-x,-y,1/2+z
x,-y,-z
-x,y,1/2-z
-x,-y,-z
x,y,1/2-z
-x,y,z
x,-y,1/2+z
1/2+x,1/2+y,z
1/2-x,1/2-y,1/2+z
1/2+x,1/2-y,-z
1/2-x,1/2+y,1/2-z
1/2-x,1/2-y,-z
1/2+x,1/2+y,1/2-z
1/2-x,1/2+y,z
1/2+x,1/2-y,1/2+z
loop_
_atom_site_type_symbol
_atom_site_label
_atom_site_fract_x
_atom_site_fract_y
_atom_site_fract_z
Si Si1 0.739498 0.380334 0.907967
Si Si2 0.500000 0.874774 0.097333
Si Si3 0.848519 0.332614 0.095376
Si Si4 0.500000 0.046165 0.041016
Si Si5 0.413556 0.662743 0.092094
Si Si6 0.672224 0.038240 0.399165
Si Si7 0.177123 0.757953 0.595825
O O1 0.759296 0.372810 0.750000
O O2 0.645523 0.375709 0.934987
O O3 0.772043 0.424914 0.953364
O O4 0.776337 0.343956 0.997771
O O5 0.500000 0.859593 0.250000
O O6 0.422021 0.856676 0.029505
O O7 0.500000 0.924067 0.088714
O O8 0.829612 0.346920 0.250000
O O9 0.870581 0.284694 0.093799
O O10 0.418102 0.053990 0.119083
O O11 0.500000 0.000000 0.000000
O O12 0.425570 0.668727 0.250000
O O13 0.500000 0.654569 0.025701
O O14 0.376734 0.705429 0.036505
O O15 0.700957 0.024474 0.250000
O O16 0.680199 0.000000 0.500000
O O17 0.204718 0.768180 0.750000
O O18 0.250000 0.750000 0.500000
#
# Coordination Sequence:
#
# PCOD8256925 Si02
#       7
#    16   8  16   8  16  16  16
#     4  10  19  34  54  75  99 131 171 213 255 304
#     4  10  20  33  48  70 104 140 174 210 251 299
#     4  10  20  32  48  73 101 136 175 211 249 297
#     4  10  19  31  47  70 100 134 166 206 248 301
#     4   9  18  32  52  77 103 134 172 215 256 299
#     4  10  21  34  51  75 102 133 168 207 253 308
#     4  10  19  31  51  74 101 133 170 209 251 296
#
# _framework density 17.502734
#
# number of rings (size 3 to 8) (size 9 to 14) (size 15 to 20)
#    0.000    2.167    3.333    0.250    1.167    3.333 
#    0.000    0.417    0.000    2.500    0.000    0.000 
#    0.000    0.000    0.000    0.000    0.000    0.000 
#
# Total GULP energy -594652.083172 kJ/mol
# GULP energy per Si atom -12388.585066 kJ/mol
# Density = 1.746290 g / cm^3
# Si number density = 17.502734 Si / 1000 Ang^3
#
#
#
# Elastic Constant Matrix: (Units=GPa)
#
#
# Indices 1 2 3 4 5 6 
#
# 1 132.8495 59.3286 25.8591 0.0000 0.0000 0.0000
# 2 59.3286 110.2907 23.6050 0.0000 0.0000 0.0000
# 3 25.8591 23.6050 48.4210 0.0000 0.0000 0.0000
# 4 0.0000 0.0000 0.0000 23.2347 0.0000 0.0000
# 5 0.0000 0.0000 0.0000 0.0000 17.4688 0.0000
# 6 0.0000 0.0000 0.0000 0.0000 0.0000 28.4162
#
#
#
# Elastic Compliance Matrix: (Units=1/GPa)
#
#
# Indices 1 2 3 4 5 6 
#
# 1 0.010316 -0.004879 -0.003130 0.000000 0.000000 0.000000
# 2 -0.004879 0.012431 -0.003454 0.000000 0.000000 0.000000
# 3 -0.003130 -0.003454 0.024008 0.000000 0.000000 0.000000
# 4 0.000000 0.000000 0.000000 0.043039 0.000000 0.000000
# 5 0.000000 0.000000 0.000000 0.000000 0.057245 0.000000
# 6 0.000000 0.000000 0.000000 0.000000 0.000000 0.035191
#
#
# Mechanical properties :
#
#
# Convention : Reuss Voigt Hill
#
# Bulk Modulus (GPa) = 41.96979 56.57185 49.27082
# Shear Modulus (GPa) = 23.46324 26.00853 24.73588
#
# Velocity S-wave (km/s) = 3.66532 3.85901 3.76341
# Velocity P-wave (km/s) = 6.47640 7.22827 6.86264
#
# Compressibility (1/GPa) = 0.02382666
#
# Stress axis : x y z
#
# Youngs Moduli (GPa) = 96.94088 80.44509 41.65283
#
# Poissons Ratio (x) = 0.39249 0.13039
# Poissons Ratio (y) = 0.47298 0.14388
# Poissons Ratio (z) = 0.30347 0.27788
#
# Static dielectric constant tensor:
#      x y z
#    x 3.613580 0.000000 0.000000 
#    y 0.000000 3.321430 0.000000 
#    z 0.000000 0.000000 3.078820 
# 
# 
# High freq. dielectric constant tensor:
#      x y z
#    x 1.666180 0.000000 0.000000 
#    y 0.000000 1.675780 0.000000 
#    z 0.000000 0.000000 1.651930 
# 
# From -- ./inp_files/19987.got.cif
#   From: 2010.03.12/outbox.cif.g09.slc.cpg/sg63_10_cif.got.tgz:19987.got - 2010.04.10 19:34:48.
