data_PCOD8256962
_publ_section_title
;
Structure prediction by ZEFSAII (Michael W. Deem and Ramdas Pophale) SiO2 
 PCOD8256962
Probable space group: C M C M
;
_chemical_formula_sum "Si O2"
_cell_formula_units_Z 72
_cell_length_a 19.641062
_cell_length_b 14.034728
_cell_length_c 13.982094
_cell_angle_alpha 90.000000
_cell_angle_beta 90.000000
_cell_angle_gamma 90.000000
_cell_volume 3854.261566
_symmetry_space_group_name_H-M "C M C M"
_symmetry_group_IT_number 63
_symmetry_cell_setting 'orthorhombic'
loop_
_space_group_symop_operation_xyz
x,y,z
-x,-y,1/2+z
x,-y,-z
-x,y,1/2-z
-x,-y,-z
x,y,1/2-z
-x,y,z
x,-y,1/2+z
1/2+x,1/2+y,z
1/2-x,1/2-y,1/2+z
1/2+x,1/2-y,-z
1/2-x,1/2+y,1/2-z
1/2-x,1/2-y,-z
1/2+x,1/2+y,1/2-z
1/2-x,1/2+y,z
1/2+x,1/2-y,1/2+z
loop_
_atom_site_type_symbol
_atom_site_label
_atom_site_fract_x
_atom_site_fract_y
_atom_site_fract_z
Si Si1 0.650900 0.799893 0.037009
Si Si2 0.208535 0.209015 0.859914
Si Si3 0.801733 0.013173 0.358470
Si Si4 0.812823 0.500000 0.500000
Si Si5 0.924035 0.854134 0.861565
O O1 0.715469 0.771919 0.102355
O O2 0.640246 0.914626 0.040207
O O3 0.587098 0.745810 0.083270
O O4 0.657334 0.768263 0.926447
O O5 0.202736 0.243075 0.750000
O O6 0.187401 0.099078 0.870192
O O7 0.785738 0.041597 0.250000
O O8 0.869598 0.066454 0.395960
O O9 0.736630 0.046857 0.419766
O O10 0.916054 0.833565 0.750000
O O11 0.000000 0.891329 0.885397
#
# Coordination Sequence:
#
# PCOD8256962 Si02
#       5
#    16  16  16   8  16
#     4  10  19  31  48  71  98 129 167 202 240 284
#     4   9  17  30  50  74 101 129 157 199 249 294
#     4   9  17  30  48  73 101 125 155 196 246 296
#     4  10  20  32  48  74 100 126 160 204 248 282
#     4  10  20  34  52  73  98 129 163 198 238 290
#
# _framework density 18.680620999999999
#
# number of rings (size 3 to 8) (size 9 to 14) (size 15 to 20)
#    0.000    2.444    0.000    4.667    0.000    3.556 
#    0.000    5.556    0.000    2.000    0.000    0.000 
#    0.000    0.000    0.000    0.000    0.000    0.000 
#
# Total GULP energy -446336.847445 kJ/mol
# GULP energy per Si atom -12398.245762 kJ/mol
# Density = 1.863810 g / cm^3
# Si number density = 18.680621 Si / 1000 Ang^3
#
#
#
# Elastic Constant Matrix: (Units=GPa)
#
#
# Indices 1 2 3 4 5 6 
#
# 1 49.1563 33.0361 22.4007 0.0000 0.0000 0.0000
# 2 33.0361 62.4973 23.2301 0.0000 0.0000 0.0000
# 3 22.4007 23.2301 91.2211 0.0000 0.0000 0.0000
# 4 0.0000 0.0000 0.0000 28.8331 0.0000 0.0000
# 5 0.0000 0.0000 0.0000 0.0000 17.8133 0.0000
# 6 0.0000 0.0000 0.0000 0.0000 0.0000 21.4938
#
#
#
# Elastic Compliance Matrix: (Units=1/GPa)
#
#
# Indices 1 2 3 4 5 6 
#
# 1 0.032837 -0.015862 -0.004024 0.000000 0.000000 0.000000
# 2 -0.015862 0.025336 -0.002557 0.000000 0.000000 0.000000
# 3 -0.004024 -0.002557 0.012602 0.000000 0.000000 0.000000
# 4 0.000000 0.000000 0.000000 0.034682 0.000000 0.000000
# 5 0.000000 0.000000 0.000000 0.000000 0.056138 0.000000
# 6 0.000000 0.000000 0.000000 0.000000 0.000000 0.046525
#
#
# Mechanical properties :
#
#
# Convention : Reuss Voigt Hill
#
# Bulk Modulus (GPa) = 38.62709 40.02319 39.32514
# Shear Modulus (GPa) = 19.11053 21.90857 20.50955
#
# Velocity S-wave (km/s) = 3.20193 3.42833 3.31706
# Velocity P-wave (km/s) = 5.86450 6.09448 5.98059
#
# Compressibility (1/GPa) = 0.02588857
#
# Stress axis : x y z
#
# Youngs Moduli (GPa) = 30.45301 39.46998 79.35435
#
# Poissons Ratio (x) = 0.62608 0.31935
# Poissons Ratio (y) = 0.48305 0.20289
# Poissons Ratio (z) = 0.12255 0.10092
#
# Static dielectric constant tensor:
#      x y z
#    x 3.074340 0.000000 0.000000 
#    y 0.000000 3.445490 0.000000 
#    z 0.000000 0.000000 3.646110 
# 
# 
# High freq. dielectric constant tensor:
#      x y z
#    x 1.668300 0.000000 0.000000 
#    y 0.000000 1.732510 0.000000 
#    z 0.000000 0.000000 1.737290 
# 
# From -- ./inp_files/33660.got.cif
#   From: 2010.03.12/outbox.cif.g09.slc.cpg/sg63_17_cif.got.tgz:33660.got - 2010.04.10 19:34:48.
