data_PCOD8256326
_publ_section_title
;
Structure prediction by ZEFSAII (Michael W. Deem and Ramdas Pophale) SiO2 
 PCOD8256326
Probable space group: C M C M
;
_chemical_formula_sum "Si O2"
_cell_formula_units_Z 72
_cell_length_a 21.475232
_cell_length_b 19.794619
_cell_length_c 8.873407
_cell_angle_alpha 90.000000
_cell_angle_beta 90.000000
_cell_angle_gamma 90.000000
_cell_volume 3772.032389
_symmetry_space_group_name_H-M "C M C M"
_symmetry_group_IT_number 63
_symmetry_cell_setting 'orthorhombic'
loop_
_space_group_symop_operation_xyz
x,y,z
-x,-y,1/2+z
x,-y,-z
-x,y,1/2-z
-x,-y,-z
x,y,1/2-z
-x,y,z
x,-y,1/2+z
1/2+x,1/2+y,z
1/2-x,1/2-y,1/2+z
1/2+x,1/2-y,-z
1/2-x,1/2+y,1/2-z
1/2-x,1/2-y,-z
1/2+x,1/2+y,1/2-z
1/2-x,1/2+y,z
1/2+x,1/2-y,1/2+z
loop_
_atom_site_type_symbol
_atom_site_label
_atom_site_fract_x
_atom_site_fract_y
_atom_site_fract_z
Si Si1 0.339054 0.806931 0.079686
Si Si2 0.620414 0.571311 0.425428
Si Si3 0.000000 0.074592 0.570975
Si Si4 0.692667 0.324147 0.081776
Si Si5 0.571485 0.071241 0.572801
O O1 0.360722 0.788139 0.250000
O O2 0.266554 0.823513 0.081049
O O3 0.381873 0.868842 0.018242
O O4 0.344331 0.743284 0.968594
O O5 0.634033 0.500000 0.500000
O O6 0.608325 0.561526 0.250000
O O7 0.561837 0.609490 0.505200
O O8 0.678950 0.618033 0.459828
O O9 0.000000 0.073126 0.750000
O O10 0.000000 0.000000 0.500000
O O11 0.668865 0.341505 0.250000
O O12 0.578040 0.061746 0.750000
O O13 0.500000 0.089401 0.527493
O O14 0.591895 0.000000 0.500000
#
# Coordination Sequence:
#
# PCOD8256326 Si02
#       5
#    16  16   8  16  16
#     4   9  19  36  55  76 106 143 181 222 274 330
#     4  11  21  35  54  77 106 141 180 222 268 318
#     4  10  18  32  52  74 102 134 169 210 259 308
#     4  10  20  35  54  77 106 142 182 227 273 323
#     4   9  18  34  56  81 109 140 175 221 273 330
#
# _framework density 19.087852000000002
#
# number of rings (size 3 to 8) (size 9 to 14) (size 15 to 20)
#    0.000    2.222    0.000    5.000    0.000    2.667 
#    2.000    2.222    0.000    0.000    0.000    0.000 
#    0.000    0.000    0.000    0.000    0.000    0.000 
#
# Total GULP energy -446131.402835 kJ/mol
# GULP energy per Si atom -12392.538968 kJ/mol
# Density = 1.904441 g / cm^3
# Si number density = 19.087852 Si / 1000 Ang^3
#
#
#
# Elastic Constant Matrix: (Units=GPa)
#
#
# Indices 1 2 3 4 5 6 
#
# 1 55.7810 59.0609 32.1974 0.0000 0.0000 0.0000
# 2 59.0609 111.3603 44.7175 0.0000 0.0000 0.0000
# 3 32.1974 44.7175 123.5901 0.0000 0.0000 0.0000
# 4 0.0000 0.0000 0.0000 34.1816 0.0000 0.0000
# 5 0.0000 0.0000 0.0000 0.0000 28.0884 0.0000
# 6 0.0000 0.0000 0.0000 0.0000 0.0000 36.7745
#
#
#
# Elastic Compliance Matrix: (Units=1/GPa)
#
#
# Indices 1 2 3 4 5 6 
#
# 1 0.042058 -0.020950 -0.003377 0.000000 0.000000 0.000000
# 2 -0.020950 0.020942 -0.002119 0.000000 0.000000 0.000000
# 3 -0.003377 -0.002119 0.009738 0.000000 0.000000 0.000000
# 4 0.000000 0.000000 0.000000 0.029256 0.000000 0.000000
# 5 0.000000 0.000000 0.000000 0.000000 0.035602 0.000000
# 6 0.000000 0.000000 0.000000 0.000000 0.000000 0.027193
#
#
# Mechanical properties :
#
#
# Convention : Reuss Voigt Hill
#
# Bulk Modulus (GPa) = 50.38878 62.52033 56.45456
# Shear Modulus (GPa) = 22.29199 30.12592 26.20896
#
# Velocity S-wave (km/s) = 3.42111 3.97706 3.70952
# Velocity P-wave (km/s) = 6.48544 7.34265 6.92732
#
# Compressibility (1/GPa) = 0.01984569
#
# Stress axis : x y z
#
# Youngs Moduli (GPa) = 23.77653 47.75105 102.69250
#
# Poissons Ratio (x) = 1.00039 0.34677
# Poissons Ratio (y) = 0.49812 0.21764
# Poissons Ratio (z) = 0.08029 0.10120
#
# Static dielectric constant tensor:
#      x y z
#    x 3.945750 0.000000 0.000000 
#    y 0.000000 3.370920 0.000000 
#    z 0.000000 0.000000 3.629150 
# 
# 
# High freq. dielectric constant tensor:
#      x y z
#    x 1.742120 0.000000 0.000000 
#    y 0.000000 1.727700 0.000000 
#    z 0.000000 0.000000 1.749110 
# 
# From -- ./inp_files/7815.got.cif
#   From: 2010.03.12/outbox.cif.g09.slc.cpg/sg63_4_cif.got.tgz:7815.got - 2010.04.10 19:34:48.
