data_PCOD8256939
_publ_section_title
;
Structure prediction by ZEFSAII (Michael W. Deem and Ramdas Pophale) SiO2 
 PCOD8256939
Probable space group: C M C M
;
_chemical_formula_sum "Si O2"
_cell_formula_units_Z 88
_cell_length_a 22.025796
_cell_length_b 24.728397
_cell_length_c 9.403356
_cell_angle_alpha 90.000000
_cell_angle_beta 90.000000
_cell_angle_gamma 90.000000
_cell_volume 5121.656588
_symmetry_space_group_name_H-M "C M C M"
_symmetry_group_IT_number 63
_symmetry_cell_setting 'orthorhombic'
loop_
_space_group_symop_operation_xyz
x,y,z
-x,-y,1/2+z
x,-y,-z
-x,y,1/2-z
-x,-y,-z
x,y,1/2-z
-x,y,z
x,-y,1/2+z
1/2+x,1/2+y,z
1/2-x,1/2-y,1/2+z
1/2+x,1/2-y,-z
1/2-x,1/2+y,1/2-z
1/2-x,1/2-y,-z
1/2+x,1/2+y,1/2-z
1/2-x,1/2+y,z
1/2+x,1/2-y,1/2+z
loop_
_atom_site_type_symbol
_atom_site_label
_atom_site_fract_x
_atom_site_fract_y
_atom_site_fract_z
Si Si1 0.311497 0.748137 0.587469
Si Si2 0.153263 0.846249 0.913540
Si Si3 0.429817 0.553635 0.415766
Si Si4 0.294867 0.866784 0.593102
Si Si5 0.630411 0.055273 0.914583
Si Si6 0.000000 0.552869 0.910084
O O1 0.300378 0.728786 0.750000
O O2 0.250000 0.750000 0.500000
O O3 0.359041 0.707227 0.510523
O O4 0.332799 0.810519 0.585899
O O5 0.138330 0.831903 0.750000
O O6 0.110842 0.895544 0.966359
O O7 0.223341 0.861210 0.934018
O O8 0.409252 0.500000 0.500000
O O9 0.419062 0.541917 0.250000
O O10 0.500000 0.567566 0.448242
O O11 0.305126 0.892159 0.750000
O O12 0.318453 0.905041 0.470145
O O13 0.643390 0.043431 0.750000
O O14 0.563734 0.083970 0.938438
O O15 0.634295 0.000000 0.000000
O O16 0.000000 0.531616 0.750000
O O17 0.000000 0.500000 0.000000
#
# Coordination Sequence:
#
# PCOD8256939 Si02
#       6
#    16  16  16  16  16   8
#     4   9  17  30  49  71  95 124 158 194 234 284
#     4   9  18  32  50  72  98 127 159 199 242 288
#     4   9  18  33  52  73  98 130 168 206 247 294
#     4   9  18  31  46  69  99 125 155 195 238 284
#     4  10  19  31  48  68  92 122 156 193 234 279
#     4   8  16  30  46  64  84 112 152 188 219 264
#
# _framework density 17.181940999999998
#
# number of rings (size 3 to 8) (size 9 to 14) (size 15 to 20)
#    0.000    2.909    0.000    2.182    0.000    5.818 
#    0.000    1.818    2.000    0.000    0.000    0.000 
#    0.000    0.000    0.000    0.000    0.000    0.000 
#
# Total GULP energy -545094.872937 kJ/mol
# GULP energy per Si atom -12388.519839 kJ/mol
# Density = 1.714283 g / cm^3
# Si number density = 17.181941 Si / 1000 Ang^3
#
#
#
# Elastic Constant Matrix: (Units=GPa)
#
#
# Indices 1 2 3 4 5 6 
#
# 1 57.3113 47.6637 33.3814 0.0000 0.0000 0.0000
# 2 47.6637 101.9010 54.4490 0.0000 0.0000 0.0000
# 3 33.3814 54.4490 95.8008 0.0000 0.0000 0.0000
# 4 0.0000 0.0000 0.0000 36.3596 0.0000 0.0000
# 5 0.0000 0.0000 0.0000 0.0000 19.5243 0.0000
# 6 0.0000 0.0000 0.0000 0.0000 0.0000 22.2451
#
#
#
# Elastic Compliance Matrix: (Units=1/GPa)
#
#
# Indices 1 2 3 4 5 6 
#
# 1 0.029344 -0.011866 -0.003481 0.000000 0.000000 0.000000
# 2 -0.011866 0.018892 -0.006603 0.000000 0.000000 0.000000
# 3 -0.003481 -0.006603 0.015404 0.000000 0.000000 0.000000
# 4 0.000000 0.000000 0.000000 0.027503 0.000000 0.000000
# 5 0.000000 0.000000 0.000000 0.000000 0.051218 0.000000
# 6 0.000000 0.000000 0.000000 0.000000 0.000000 0.044954
#
#
# Mechanical properties :
#
#
# Convention : Reuss Voigt Hill
#
# Bulk Modulus (GPa) = 50.65528 58.44459 54.54994
# Shear Modulus (GPa) = 21.02662 23.59372 22.31017
#
# Velocity S-wave (km/s) = 3.50203 3.70965 3.60733
# Velocity P-wave (km/s) = 6.77480 7.24138 7.01198
#
# Compressibility (1/GPa) = 0.01974128
#
# Stress axis : x y z
#
# Youngs Moduli (GPa) = 34.07808 52.93376 64.91878
#
# Poissons Ratio (x) = 0.62810 0.22598
# Poissons Ratio (y) = 0.40436 0.42863
# Poissons Ratio (z) = 0.11863 0.34950
#
# Static dielectric constant tensor:
#      x y z
#    x 3.242190 0.000000 0.000000 
#    y 0.000000 3.267090 0.000000 
#    z 0.000000 0.000000 3.391640 
# 
# 
# High freq. dielectric constant tensor:
#      x y z
#    x 1.640550 0.000000 0.000000 
#    y 0.000000 1.649300 0.000000 
#    z 0.000000 0.000000 1.675350 
# 
# From -- ./inp_files/8159.got.cif
#   From: 2010.03.12/outbox.cif.g09.slc.cpg/sg63_5_cif.got.tgz:8159.got - 2010.04.10 19:34:48.
