data_PCOD8256587
_publ_section_title
;
Structure prediction by ZEFSAII (Michael W. Deem and Ramdas Pophale) SiO2 
 PCOD8256587
Probable space group: C M C M
;
_chemical_formula_sum "Si O2"
_cell_formula_units_Z 128
_cell_length_a 24.372823
_cell_length_b 18.204355
_cell_length_c 18.418974
_cell_angle_alpha 90.000000
_cell_angle_beta 90.000000
_cell_angle_gamma 90.000000
_cell_volume 8172.342612
_symmetry_space_group_name_H-M "C M C M"
_symmetry_group_IT_number 63
_symmetry_cell_setting 'orthorhombic'
loop_
_space_group_symop_operation_xyz
x,y,z
-x,-y,1/2+z
x,-y,-z
-x,y,1/2-z
-x,-y,-z
x,y,1/2-z
-x,y,z
x,-y,1/2+z
1/2+x,1/2+y,z
1/2-x,1/2-y,1/2+z
1/2+x,1/2-y,-z
1/2-x,1/2+y,1/2-z
1/2-x,1/2-y,-z
1/2+x,1/2+y,1/2-z
1/2-x,1/2+y,z
1/2+x,1/2-y,1/2+z
loop_
_atom_site_type_symbol
_atom_site_label
_atom_site_fract_x
_atom_site_fract_y
_atom_site_fract_z
Si Si1 0.253859 0.513457 0.666602
Si Si2 0.935696 0.006577 0.419538
Si Si3 0.133788 0.092561 0.832429
Si Si4 0.435198 0.347204 0.835737
Si Si5 0.283547 0.869443 0.064259
Si Si6 0.324483 0.723021 0.589307
Si Si7 0.151267 0.768572 0.571268
Si Si8 0.759549 0.361686 0.595476
O O1 0.241005 0.531196 0.750000
O O2 0.315077 0.540196 0.646259
O O3 0.212430 0.560998 0.617453
O O4 0.245184 0.427293 0.653118
O O5 0.915826 0.077378 0.374165
O O6 0.000000 0.008003 0.426213
O O7 0.909216 0.000000 0.500000
O O8 0.918208 0.933468 0.377952
O O9 0.117665 0.083869 0.750000
O O10 0.143449 0.178624 0.848667
O O11 0.419908 0.349390 0.750000
O O12 0.500000 0.332893 0.845671
O O13 0.401770 0.284172 0.878467
O O14 0.232191 0.817115 0.075341
O O15 0.335764 0.817943 0.081193
O O16 0.277957 0.896819 0.981371
O O17 0.360121 0.721228 0.514982
O O18 0.308467 0.804734 0.617047
O O19 0.201012 0.821338 0.595182
#
# Coordination Sequence:
#
# PCOD8256587 Si02
#       8
#    16  16  16  16  16  16  16  16
#     4  10  19  27  38  61  89 113 138 168 206 253
#     4  10  20  32  45  60  79 108 147 184 211 238
#     4  10  19  29  41  59  85 114 139 169 213 253
#     4  10  20  31  43  63  89 112 139 179 218 250
#     4   8  16  29  43  60  82 109 141 176 207 240
#     4   8  16  29  43  61  82 106 142 179 204 239
#     4   9  16  29  47  61  79 113 147 171 205 251
#     4   9  16  27  44  62  81 110 145 174 204 245
#
# _framework density 15.662584000000001
#
# number of rings (size 3 to 8) (size 9 to 14) (size 15 to 20)
#    0.000    2.750    0.000    3.750    0.000    5.250 
#    0.000    2.500    0.000    0.000    0.000    0.000 
#    0.000    9.000    0.000    2.000    0.000    0.000 
#
# Total GULP energy -793146.427269 kJ/mol
# GULP energy per Si atom -12392.912926 kJ/mol
# Density = 1.562693 g / cm^3
# Si number density = 15.662584 Si / 1000 Ang^3
#
#
#
# Elastic Constant Matrix: (Units=GPa)
#
#
# Indices 1 2 3 4 5 6 
#
# 1 13.2021 1.4481 18.3661 0.0000 0.0000 0.0000
# 2 1.4481 55.3190 25.5329 0.0000 0.0000 0.0000
# 3 18.3661 25.5329 78.1585 0.0000 0.0000 0.0000
# 4 0.0000 0.0000 0.0000 26.2408 0.0000 0.0000
# 5 0.0000 0.0000 0.0000 0.0000 20.2404 0.0000
# 6 0.0000 0.0000 0.0000 0.0000 0.0000 13.7472
#
#
#
# Elastic Compliance Matrix: (Units=1/GPa)
#
#
# Indices 1 2 3 4 5 6 
#
# 1 0.118409 0.011473 -0.031572 0.000000 0.000000 0.000000
# 2 0.011473 0.022398 -0.010013 0.000000 0.000000 0.000000
# 3 -0.031572 -0.010013 0.023485 0.000000 0.000000 0.000000
# 4 0.000000 0.000000 0.000000 0.038109 0.000000 0.000000
# 5 0.000000 0.000000 0.000000 0.000000 0.049406 0.000000
# 6 0.000000 0.000000 0.000000 0.000000 0.000000 0.072742
#
#
# Mechanical properties :
#
#
# Convention : Reuss Voigt Hill
#
# Bulk Modulus (GPa) = 9.60923 26.37489 17.99206
# Shear Modulus (GPa) = 11.92001 18.80119 15.36060
#
# Velocity S-wave (km/s) = 2.76171 3.46842 3.13504
# Velocity P-wave (km/s) = 4.03953 5.73724 4.96154
#
# Compressibility (1/GPa) = 0.10406660
#
# Stress axis : x y z
#
# Youngs Moduli (GPa) = 8.44530 44.64645 42.58107
#
# Poissons Ratio (x) = -0.51222 1.34439
# Poissons Ratio (y) = -0.09689 0.42636
# Poissons Ratio (z) = 0.26664 0.44704
#
# Static dielectric constant tensor:
#      x y z
#    x 2.705590 0.000000 0.000000 
#    y 0.000000 3.094830 0.000000 
#    z 0.000000 0.000000 3.108610 
# 
# 
# High freq. dielectric constant tensor:
#      x y z
#    x 1.556320 0.000000 0.000000 
#    y 0.000000 1.592140 0.000000 
#    z 0.000000 0.000000 1.610020 
# 
# From -- ./inp_files/56947.got.cif
#   From: 2010.03.12/outbox.cif.g09.slc.cpg/sg63_29_cif.got.tgz:56947.got - 2010.04.10 19:34:48.
