data_PCOD8256617
_publ_section_title
;
Structure prediction by ZEFSAII (Michael W. Deem and Ramdas Pophale) SiO2 
 PCOD8256617
Probable space group: C M C M
;
_chemical_formula_sum "Si O2"
_cell_formula_units_Z 96
_cell_length_a 30.419173
_cell_length_b 26.315381
_cell_length_c 9.657377
_cell_angle_alpha 90.000000
_cell_angle_beta 90.000000
_cell_angle_gamma 90.000000
_cell_volume 7730.654258
_symmetry_space_group_name_H-M "C M C M"
_symmetry_group_IT_number 63
_symmetry_cell_setting 'orthorhombic'
loop_
_space_group_symop_operation_xyz
x,y,z
-x,-y,1/2+z
x,-y,-z
-x,y,1/2-z
-x,-y,-z
x,y,1/2-z
-x,y,z
x,-y,1/2+z
1/2+x,1/2+y,z
1/2-x,1/2-y,1/2+z
1/2+x,1/2-y,-z
1/2-x,1/2+y,1/2-z
1/2-x,1/2-y,-z
1/2+x,1/2+y,1/2-z
1/2-x,1/2+y,z
1/2+x,1/2-y,1/2+z
loop_
_atom_site_type_symbol
_atom_site_label
_atom_site_fract_x
_atom_site_fract_y
_atom_site_fract_z
Si Si1 0.888631 0.298878 0.595078
Si Si2 0.187526 0.770187 0.094207
Si Si3 0.550062 0.143390 0.591076
Si Si4 0.887915 0.451737 0.087107
Si Si5 0.247775 0.175232 0.405077
Si Si6 0.675530 0.894118 0.594135
O O1 0.906660 0.289393 0.750000
O O2 0.860464 0.249816 0.544097
O O3 0.929456 0.309705 0.494435
O O4 0.856796 0.346755 0.595386
O O5 0.184084 0.790761 0.250000
O O6 0.221206 0.723903 0.086106
O O7 0.204970 0.816873 0.001155
O O8 0.553480 0.159538 0.750000
O O9 0.500000 0.135149 0.543873
O O10 0.575279 0.090890 0.564280
O O11 0.881267 0.464103 0.250000
O O12 0.904935 0.500000 0.000000
O O13 0.841379 0.434569 0.019252
O O14 0.230191 0.167859 0.250000
O O15 0.275863 0.125468 0.450011
O O16 0.676649 0.917821 0.750000
#
# Coordination Sequence:
#
# PCOD8256617 Si02
#       6
#    16  16  16  16  16  16
#     4   8  14  24  36  49  64  82 102 123 151 187
#     4   8  13  20  30  46  67  85 100 119 141 171
#     4   9  18  30  40  50  63  78 100 133 171 208
#     4  10  19  29  40  51  62  78 101 131 169 210
#     4   8  13  20  31  47  65  84 102 118 140 173
#     4   8  14  25  37  48  64  82 100 124 152 185
#
# _framework density 12.418096
#
# number of rings (size 3 to 8) (size 9 to 14) (size 15 to 20)
#    0.000    3.500    0.000    2.500    0.000    2.667 
#    0.000    6.667    0.000    0.000    0.000    0.000 
#    0.000    0.000    0.000    0.000    0.000    0.000 
#
# Total GULP energy -594711.910160 kJ/mol
# GULP energy per Si atom -12389.831462 kJ/mol
# Density = 1.238983 g / cm^3
# Si number density = 12.418096 Si / 1000 Ang^3
#
#
#
# Elastic Constant Matrix: (Units=GPa)
#
#
# Indices 1 2 3 4 5 6 
#
# 1 67.3166 37.8221 52.1424 0.0000 0.0000 0.0000
# 2 37.8221 22.6676 29.6790 0.0000 0.0000 0.0000
# 3 52.1424 29.6790 79.0621 0.0000 0.0000 0.0000
# 4 0.0000 0.0000 0.0000 18.1792 0.0000 0.0000
# 5 0.0000 0.0000 0.0000 0.0000 19.9929 0.0000
# 6 0.0000 0.0000 0.0000 0.0000 0.0000 12.8235
#
#
#
# Elastic Compliance Matrix: (Units=1/GPa)
#
#
# Indices 1 2 3 4 5 6 
#
# 1 0.247673 -0.392110 -0.016150 0.000000 0.000000 0.000000
# 2 -0.392110 0.707537 -0.007000 0.000000 0.000000 0.000000
# 3 -0.016150 -0.007000 0.025927 0.000000 0.000000 0.000000
# 4 0.000000 0.000000 0.000000 0.055008 0.000000 0.000000
# 5 0.000000 0.000000 0.000000 0.000000 0.050018 0.000000
# 6 0.000000 0.000000 0.000000 0.000000 0.000000 0.077982
#
#
# Mechanical properties :
#
#
# Convention : Reuss Voigt Hill
#
# Bulk Modulus (GPa) = 6.63935 45.37037 26.00486
# Shear Modulus (GPa) = 2.44514 13.49265 7.96890
#
# Velocity S-wave (km/s) = 1.40474 3.29983 2.53596
# Velocity P-wave (km/s) = 2.82651 7.15077 5.43704
#
# Compressibility (1/GPa) = 0.15061726
#
# Stress axis : x y z
#
# Youngs Moduli (GPa) = 4.03758 1.41335 38.57017
#
# Poissons Ratio (x) = 0.55419 0.62289
# Poissons Ratio (y) = 1.58318 0.26999
# Poissons Ratio (z) = 0.06520 0.00989
#
# Static dielectric constant tensor:
#      x y z
#    x 2.565430 0.000000 0.000000 
#    y 0.000000 2.351880 0.000000 
#    z 0.000000 0.000000 2.737940 
# 
# 
# High freq. dielectric constant tensor:
#      x y z
#    x 1.445220 0.000000 0.000000 
#    y 0.000000 1.423120 0.000000 
#    z 0.000000 0.000000 1.481270 
# 
# From -- ./inp_files/25246.got.cif
#   From: 2010.03.12/outbox.cif.g09.slc.cpg/sg63_13_cif.got.tgz:25246.got - 2010.04.10 19:34:48.
