data_PCOD8256900
_publ_section_title
;
Structure prediction by ZEFSAII (Michael W. Deem and Ramdas Pophale) SiO2 
 PCOD8256900
Probable space group: C M C M
;
_chemical_formula_sum "Si O2"
_cell_formula_units_Z 96
_cell_length_a 9.303335
_cell_length_b 18.168613
_cell_length_c 31.224063
_cell_angle_alpha 90.000000
_cell_angle_beta 90.000000
_cell_angle_gamma 90.000000
_cell_volume 5277.762566
_symmetry_space_group_name_H-M "C M C M"
_symmetry_group_IT_number 63
_symmetry_cell_setting 'orthorhombic'
loop_
_space_group_symop_operation_xyz
x,y,z
-x,-y,1/2+z
x,-y,-z
-x,y,1/2-z
-x,-y,-z
x,y,1/2-z
-x,y,z
x,-y,1/2+z
1/2+x,1/2+y,z
1/2-x,1/2-y,1/2+z
1/2+x,1/2-y,-z
1/2-x,1/2+y,1/2-z
1/2-x,1/2-y,-z
1/2+x,1/2+y,1/2-z
1/2-x,1/2+y,z
1/2+x,1/2-y,1/2+z
loop_
_atom_site_type_symbol
_atom_site_label
_atom_site_fract_x
_atom_site_fract_y
_atom_site_fract_z
Si Si1 0.662469 0.716464 0.877430
Si Si2 0.660825 0.541033 0.876410
Si Si3 0.835249 0.458638 0.458104
Si Si4 0.838713 0.457790 0.297191
Si Si5 0.832996 0.714674 0.539230
Si Si6 0.838352 0.717305 0.797469
O O1 0.500000 0.746682 0.882197
O O2 0.662052 0.628779 0.875654
O O3 0.731184 0.748986 0.833641
O O4 0.758847 0.743497 0.917207
O O5 0.500000 0.509772 0.878138
O O6 0.735027 0.509040 0.833519
O O7 0.744861 0.511977 0.917894
O O8 0.776572 0.500000 0.500000
O O9 0.816185 0.372344 0.465043
O O10 0.000000 0.479513 0.449128
O O11 0.785460 0.483319 0.250000
O O12 0.838047 0.370252 0.299549
O O13 0.000000 0.486645 0.305591
O O14 0.750000 0.750000 0.500000
O O15 0.000000 0.738439 0.539207
O O16 0.787593 0.743160 0.750000
O O17 0.000000 0.745808 0.806580
#
# Coordination Sequence:
#
# PCOD8256900 Si02
#       6
#    16  16  16  16  16  16
#     4   9  16  25  37  55  80 109 141 174 211 255
#     4   9  16  24  36  56  81 108 137 173 216 256
#     4   9  18  32  48  64  84 114 149 181 214 255
#     4   8  13  21  33  49  72 105 141 172 204 248
#     4  10  19  31  47  65  87 114 145 181 219 259
#     4   8  13  21  33  50  74 105 139 172 208 251
#
# _framework density 18.189526000000001
#
# number of rings (size 3 to 8) (size 9 to 14) (size 15 to 20)
#    0.000    3.167    0.000    2.500    0.000    5.667 
#    0.000    3.333    0.000    0.000    0.000    0.000 
#    0.000    1.333    0.000    7.667    0.000   10.000 
#
# Total GULP energy -594969.587498 kJ/mol
# GULP energy per Si atom -12395.199740 kJ/mol
# Density = 1.814813 g / cm^3
# Si number density = 18.189526 Si / 1000 Ang^3
#
#
#
# Elastic Constant Matrix: (Units=GPa)
#
#
# Indices 1 2 3 4 5 6 
#
# 1 153.0487 14.1625 114.6774 0.0000 0.0000 0.0000
# 2 14.1625 5.0901 17.1095 0.0000 0.0000 0.0000
# 3 114.6774 17.1095 202.9182 0.0000 0.0000 0.0000
# 4 0.0000 0.0000 0.0000 17.4331 0.0000 0.0000
# 5 0.0000 0.0000 0.0000 0.0000 38.5495 0.0000
# 6 0.0000 0.0000 0.0000 0.0000 0.0000 9.7879
#
#
#
# Elastic Compliance Matrix: (Units=1/GPa)
#
#
# Indices 1 2 3 4 5 6 
#
# 1 0.012091 -0.014895 -0.005577 0.000000 0.000000 0.000000
# 2 -0.014895 0.292511 -0.016246 0.000000 0.000000 0.000000
# 3 -0.005577 -0.016246 0.009450 0.000000 0.000000 0.000000
# 4 0.000000 0.000000 0.000000 0.057362 0.000000 0.000000
# 5 0.000000 0.000000 0.000000 0.000000 0.025941 0.000000
# 6 0.000000 0.000000 0.000000 0.000000 0.000000 0.102167
#
#
# Mechanical properties :
#
#
# Convention : Reuss Voigt Hill
#
# Bulk Modulus (GPa) = 4.15600 72.55065 38.35333
# Shear Modulus (GPa) = 7.65504 27.49460 17.57482
#
# Velocity S-wave (km/s) = 2.05369 3.89210 3.11176
# Velocity P-wave (km/s) = 2.81306 7.75696 5.83454
#
# Compressibility (1/GPa) = 0.24061591
#
# Stress axis : x y z
#
# Youngs Moduli (GPa) = 82.70464 3.41867 105.82117
#
# Poissons Ratio (x) = 0.05092 0.59020
# Poissons Ratio (y) = 1.23188 1.71918
# Poissons Ratio (z) = 0.46127 0.05554
#
# Static dielectric constant tensor:
#      x y z
#    x 3.579250 0.000000 0.000000 
#    y 0.000000 2.627280 0.000000 
#    z 0.000000 0.000000 3.727740 
# 
# 
# High freq. dielectric constant tensor:
#      x y z
#    x 1.711860 0.000000 0.000000 
#    y 0.000000 1.617450 0.000000 
#    z 0.000000 0.000000 1.726070 
# 
# From -- ./inp_files/60197.got.cif
#   From: 2010.03.12/outbox.cif.g09.slc.cpg/sg63_31_cif.got.tgz:60197.got - 2010.04.10 19:34:48.
