data_PCOD8256183
_publ_section_title
;
Structure prediction by ZEFSAII (Michael W. Deem and Ramdas Pophale) SiO2 
 PCOD8256183
Probable space group: C M C M
;
_chemical_formula_sum "Si O2"
_cell_formula_units_Z 96
_cell_length_a 12.391788
_cell_length_b 25.147078
_cell_length_c 17.934680
_cell_angle_alpha 90.000000
_cell_angle_beta 90.000000
_cell_angle_gamma 90.000000
_cell_volume 5588.755830
_symmetry_space_group_name_H-M "C M C M"
_symmetry_group_IT_number 63
_symmetry_cell_setting 'orthorhombic'
loop_
_space_group_symop_operation_xyz
x,y,z
-x,-y,1/2+z
x,-y,-z
-x,y,1/2-z
-x,-y,-z
x,y,1/2-z
-x,y,z
x,-y,1/2+z
1/2+x,1/2+y,z
1/2-x,1/2-y,1/2+z
1/2+x,1/2-y,-z
1/2-x,1/2+y,1/2-z
1/2-x,1/2-y,-z
1/2+x,1/2+y,1/2-z
1/2-x,1/2+y,z
1/2+x,1/2-y,1/2+z
loop_
_atom_site_type_symbol
_atom_site_label
_atom_site_fract_x
_atom_site_fract_y
_atom_site_fract_z
Si Si1 0.119770 0.850843 0.250000
Si Si2 0.623689 0.615515 0.059210
Si Si3 0.618913 0.225710 0.250000
Si Si4 0.283684 0.606077 0.599277
Si Si5 0.372716 0.190721 0.551355
Si Si6 0.737640 0.211824 0.100472
Si Si7 0.119751 0.998299 0.586963
O O1 0.111996 0.788430 0.250000
O O2 0.181841 0.867502 0.175956
O O3 0.000000 0.876175 0.250000
O O4 0.500000 0.619952 0.077988
O O5 0.677775 0.664790 0.098254
O O6 0.667304 0.561264 0.099205
O O7 0.636475 0.618631 0.969373
O O8 0.500000 0.200743 0.250000
O O9 0.678015 0.204796 0.177515
O O10 0.167335 0.630930 0.574702
O O11 0.290478 0.541926 0.612558
O O12 0.500000 0.195190 0.568019
O O13 0.350507 0.205267 0.465223
O O14 0.302256 0.232471 0.599042
O O15 0.000000 0.007454 0.624749
O O16 0.098668 0.000000 0.500000
#
# Coordination Sequence:
#
# PCOD8256183 Si02
#       7
#     8  16   8  16  16  16  16
#     4  11  20  30  47  74 102 132 166 204 253 304
#     4   9  17  31  54  78 102 134 169 209 254 298
#     4  11  22  36  51  72 104 134 166 208 253 304
#     4  10  18  31  49  74 106 133 168 207 257 300
#     4  10  20  34  52  74  99 131 171 210 248 298
#     4  10  20  35  52  74  99 132 169 207 252 299
#     4   8  14  27  49  76 100 126 161 205 254 297
#
# _framework density 17.177347999999999
#
# number of rings (size 3 to 8) (size 9 to 14) (size 15 to 20)
#    0.000    2.333    1.667    3.500    0.000    0.000 
#    0.000    3.750    0.000   15.500    0.000    0.000 
#    0.000    0.000    0.000    0.000    0.000    0.000 
#
# Total GULP energy -594654.237320 kJ/mol
# GULP energy per Si atom -12388.629944 kJ/mol
# Density = 1.713825 g / cm^3
# Si number density = 17.177348 Si / 1000 Ang^3
#
#
#
# Elastic Constant Matrix: (Units=GPa)
#
#
# Indices 1 2 3 4 5 6 
#
# 1 78.9900 30.4943 38.2563 0.0000 0.0000 0.0000
# 2 30.4943 94.2985 25.9446 0.0000 0.0000 0.0000
# 3 38.2563 25.9446 89.6932 0.0000 0.0000 0.0000
# 4 0.0000 0.0000 0.0000 21.1112 0.0000 0.0000
# 5 0.0000 0.0000 0.0000 0.0000 11.8210 0.0000
# 6 0.0000 0.0000 0.0000 0.0000 0.0000 11.5243
#
#
#
# Elastic Compliance Matrix: (Units=1/GPa)
#
#
# Indices 1 2 3 4 5 6 
#
# 1 0.017146 -0.003838 -0.006203 0.000000 0.000000 0.000000
# 2 -0.003838 0.012381 -0.001944 0.000000 0.000000 0.000000
# 3 -0.006203 -0.001944 0.014357 0.000000 0.000000 0.000000
# 4 0.000000 0.000000 0.000000 0.047368 0.000000 0.000000
# 5 0.000000 0.000000 0.000000 0.000000 0.084596 0.000000
# 6 0.000000 0.000000 0.000000 0.000000 0.000000 0.086773
#
#
# Mechanical properties :
#
#
# Convention : Reuss Voigt Hill
#
# Bulk Modulus (GPa) = 50.21754 50.26357 50.24056
# Shear Modulus (GPa) = 17.05158 20.11041 18.58100
#
# Velocity S-wave (km/s) = 3.15410 3.42534 3.29251
# Velocity P-wave (km/s) = 6.52401 6.70589 6.61557
#
# Compressibility (1/GPa) = 0.01991336
#
# Stress axis : x y z
#
# Youngs Moduli (GPa) = 58.32387 80.77117 69.65158
#
# Poissons Ratio (x) = 0.31000 0.43204
# Poissons Ratio (y) = 0.22384 0.13542
# Poissons Ratio (z) = 0.36178 0.15704
#
# Static dielectric constant tensor:
#      x y z
#    x 3.058050 0.000000 0.000000 
#    y 0.000000 3.883130 0.000000 
#    z 0.000000 0.000000 2.939770 
# 
# 
# High freq. dielectric constant tensor:
#      x y z
#    x 1.638500 0.000000 0.000000 
#    y 0.000000 1.671140 0.000000 
#    z 0.000000 0.000000 1.643370 
# 
# From -- ./inp_files/42742.got.cif
#   From: 2010.03.12/outbox.cif.g09.slc.cpg/sg63_22_cif.got.tgz:42742.got - 2010.04.10 19:34:48.
