data_PCOD8256949
_publ_section_title
;
Structure prediction by ZEFSAII (Michael W. Deem and Ramdas Pophale) SiO2 
 PCOD8256949
Probable space group: C M C M
;
_chemical_formula_sum "Si O2"
_cell_formula_units_Z 80
_cell_length_a 18.017617
_cell_length_b 27.703991
_cell_length_c 8.792001
_cell_angle_alpha 90.000000
_cell_angle_beta 90.000000
_cell_angle_gamma 90.000000
_cell_volume 4388.614333
_symmetry_space_group_name_H-M "C M C M"
_symmetry_group_IT_number 63
_symmetry_cell_setting 'orthorhombic'
loop_
_space_group_symop_operation_xyz
x,y,z
-x,-y,1/2+z
x,-y,-z
-x,y,1/2-z
-x,-y,-z
x,y,1/2-z
-x,y,z
x,-y,1/2+z
1/2+x,1/2+y,z
1/2-x,1/2-y,1/2+z
1/2+x,1/2-y,-z
1/2-x,1/2+y,1/2-z
1/2-x,1/2-y,-z
1/2+x,1/2+y,1/2-z
1/2-x,1/2+y,z
1/2+x,1/2-y,1/2+z
loop_
_atom_site_type_symbol
_atom_site_label
_atom_site_fract_x
_atom_site_fract_y
_atom_site_fract_z
Si Si1 0.629556 0.186442 0.928261
Si Si2 0.786490 0.851653 0.428127
Si Si3 0.083397 0.590407 0.425394
Si Si4 0.723900 0.950734 0.070046
Si Si5 0.584225 0.285392 0.073056
O O1 0.616079 0.178663 0.750000
O O2 0.716963 0.182726 0.968760
O O3 0.585172 0.145455 0.017575
O O4 0.598154 0.237609 0.977516
O O5 0.794596 0.857640 0.250000
O O6 0.772652 0.905625 0.493999
O O7 0.861619 0.827351 0.492273
O O8 0.107747 0.588835 0.250000
O O9 0.138441 0.556658 0.521441
O O10 0.000000 0.570605 0.447113
O O11 0.727157 0.954127 0.250000
O O12 0.756184 0.000000 0.000000
O O13 0.601171 0.274620 0.250000
O O14 0.500000 0.303100 0.049435
#
# Coordination Sequence:
#
# PCOD8256949 Si02
#       5
#    16  16  16  16  16
#     4  10  19  31  48  70 100 135 166 197 233 279
#     4   8  17  33  50  70  95 125 162 199 237 283
#     4  10  20  33  49  71 100 132 165 199 234 277
#     4  10  20  35  54  73  94 122 159 202 245 290
#     4  10  19  31  49  72  98 128 162 200 240 284
#
# _framework density 18.228988999999999
#
# number of rings (size 3 to 8) (size 9 to 14) (size 15 to 20)
#    0.000    2.400    0.000    4.200    0.000    4.800 
#    0.000    5.000    0.000    0.600    0.000    0.000 
#    0.000    0.000    0.000    0.000    0.000    0.800 
#
# Total GULP energy -495924.214104 kJ/mol
# GULP energy per Si atom -12398.105353 kJ/mol
# Density = 1.818750 g / cm^3
# Si number density = 18.228989 Si / 1000 Ang^3
#
#
#
# Elastic Constant Matrix: (Units=GPa)
#
#
# Indices 1 2 3 4 5 6 
#
# 1 72.6312 24.7208 12.9110 0.0000 0.0000 0.0000
# 2 24.7208 86.2383 14.6054 0.0000 0.0000 0.0000
# 3 12.9110 14.6054 52.3726 0.0000 0.0000 0.0000
# 4 0.0000 0.0000 0.0000 27.3752 0.0000 0.0000
# 5 0.0000 0.0000 0.0000 0.0000 17.3042 0.0000
# 6 0.0000 0.0000 0.0000 0.0000 0.0000 12.1983
#
#
#
# Elastic Compliance Matrix: (Units=1/GPa)
#
#
# Indices 1 2 3 4 5 6 
#
# 1 0.015620 -0.004015 -0.002731 0.000000 0.000000 0.000000
# 2 -0.004015 0.013203 -0.002692 0.000000 0.000000 0.000000
# 3 -0.002731 -0.002692 0.020518 0.000000 0.000000 0.000000
# 4 0.000000 0.000000 0.000000 0.036529 0.000000 0.000000
# 5 0.000000 0.000000 0.000000 0.000000 0.057790 0.000000
# 6 0.000000 0.000000 0.000000 0.000000 0.000000 0.081979
#
#
# Mechanical properties :
#
#
# Convention : Reuss Voigt Hill
#
# Bulk Modulus (GPa) = 32.82513 35.07960 33.95237
# Shear Modulus (GPa) = 19.63326 21.97585 20.80456
#
# Velocity S-wave (km/s) = 3.28538 3.47586 3.38196
# Velocity P-wave (km/s) = 5.69542 5.94932 5.82376
#
# Compressibility (1/GPa) = 0.03046446
#
# Stress axis : x y z
#
# Youngs Moduli (GPa) = 64.01946 75.74222 48.73779
#
# Poissons Ratio (x) = 0.30412 0.13310
# Poissons Ratio (y) = 0.25705 0.13121
# Poissons Ratio (z) = 0.17484 0.20390
#
# Static dielectric constant tensor:
#      x y z
#    x 3.528610 0.000000 0.000000 
#    y 0.000000 3.566490 0.000000 
#    z 0.000000 0.000000 3.255400 
# 
# 
# High freq. dielectric constant tensor:
#      x y z
#    x 1.692200 0.000000 0.000000 
#    y 0.000000 1.700540 0.000000 
#    z 0.000000 0.000000 1.697330 
# 
# From -- ./inp_files/6353.got.cif
#   From: 2010.03.12/outbox.cif.g09.slc.cpg/sg63_4_cif.got.tgz:6353.got - 2010.04.10 19:34:48.
