data_PCOD8256996
_publ_section_title
;
Structure prediction by ZEFSAII (Michael W. Deem and Ramdas Pophale) SiO2 
 PCOD8256996
Probable space group: C M C M
;
_chemical_formula_sum "Si O2"
_cell_formula_units_Z 80
_cell_length_a 9.305998
_cell_length_b 14.608497
_cell_length_c 33.355458
_cell_angle_alpha 90.000000
_cell_angle_beta 90.000000
_cell_angle_gamma 90.000000
_cell_volume 4534.562570
_symmetry_space_group_name_H-M "C M C M"
_symmetry_group_IT_number 63
_symmetry_cell_setting 'orthorhombic'
loop_
_space_group_symop_operation_xyz
x,y,z
-x,-y,1/2+z
x,-y,-z
-x,y,1/2-z
-x,-y,-z
x,y,1/2-z
-x,y,z
x,-y,1/2+z
1/2+x,1/2+y,z
1/2-x,1/2-y,1/2+z
1/2+x,1/2-y,-z
1/2-x,1/2+y,1/2-z
1/2-x,1/2-y,-z
1/2+x,1/2+y,1/2-z
1/2-x,1/2+y,z
1/2+x,1/2-y,1/2+z
loop_
_atom_site_type_symbol
_atom_site_label
_atom_site_fract_x
_atom_site_fract_y
_atom_site_fract_z
Si Si1 0.329676 0.759134 0.649625
Si Si2 0.168050 0.394818 0.004993
Si Si3 0.167741 0.103518 0.204358
Si Si4 0.167716 0.757791 0.058621
Si Si5 0.829711 0.897395 0.293642
O O1 0.500000 0.768804 0.652778
O O2 0.259876 0.843571 0.672002
O O3 0.278550 0.757476 0.603780
O O4 0.271126 0.667586 0.671282
O O5 0.250213 0.346219 0.041480
O O6 0.000000 0.393656 0.015192
O O7 0.221523 0.500000 0.000000
O O8 0.202515 0.336197 0.965030
O O9 0.199958 0.135414 0.250000
O O10 0.000000 0.115129 0.194748
O O11 0.221116 0.000023 0.198221
O O12 0.000000 0.781278 0.056639
O O13 0.771652 0.864285 0.250000
O O14 0.000000 0.895202 0.292683
#
# Coordination Sequence:
#
# PCOD8256996 Si02
#       5
#    16  16  16  16  16
#     4  10  19  31  49  72  97 123 154 197 242 279
#     4   9  18  34  53  69  92 128 160 189 236 291
#     4   9  18  32  48  67  93 125 160 193 225 271
#     4   9  19  33  48  72  99 120 154 199 235 279
#     4   8  15  29  47  65  89 124 158 184 223 281
#
# _framework density 17.642275000000001
#
# number of rings (size 3 to 8) (size 9 to 14) (size 15 to 20)
#    0.000    3.000    0.000    1.800    0.000    4.000 
#    0.000    1.000    0.000    1.200    0.000    0.000 
#    0.000    0.000    0.000    0.000    0.000    0.000 
#
# Total GULP energy -495846.012560 kJ/mol
# GULP energy per Si atom -12396.150314 kJ/mol
# Density = 1.760212 g / cm^3
# Si number density = 17.642275 Si / 1000 Ang^3
#
#
#
# Elastic Constant Matrix: (Units=GPa)
#
#
# Indices 1 2 3 4 5 6 
#
# 1 27.6302 31.8304 38.4955 0.0000 0.0000 0.0000
# 2 31.8304 132.2746 80.1193 0.0000 0.0000 0.0000
# 3 38.4955 80.1193 160.0617 0.0000 0.0000 0.0000
# 4 0.0000 0.0000 0.0000 41.2424 0.0000 0.0000
# 5 0.0000 0.0000 0.0000 0.0000 16.9312 0.0000
# 6 0.0000 0.0000 0.0000 0.0000 0.0000 26.6286
#
#
#
# Elastic Compliance Matrix: (Units=1/GPa)
#
#
# Indices 1 2 3 4 5 6 
#
# 1 0.060024 -0.008180 -0.010341 0.000000 0.000000 0.000000
# 2 -0.008180 0.011964 -0.004021 0.000000 0.000000 0.000000
# 3 -0.010341 -0.004021 0.010748 0.000000 0.000000 0.000000
# 4 0.000000 0.000000 0.000000 0.024247 0.000000 0.000000
# 5 0.000000 0.000000 0.000000 0.000000 0.059063 0.000000
# 6 0.000000 0.000000 0.000000 0.000000 0.000000 0.037554
#
#
# Mechanical properties :
#
#
# Convention : Reuss Voigt Hill
#
# Bulk Modulus (GPa) = 26.56043 68.98410 47.77226
# Shear Modulus (GPa) = 19.13982 28.26185 23.70084
#
# Velocity S-wave (km/s) = 3.29733 4.00677 3.66923
# Velocity P-wave (km/s) = 5.43914 7.78409 6.71477
#
# Compressibility (1/GPa) = 0.03765000
#
# Stress axis : x y z
#
# Youngs Moduli (GPa) = 16.65994 83.58201 93.04376
#
# Poissons Ratio (x) = 0.68373 0.96220
# Poissons Ratio (y) = 0.13628 0.37416
# Poissons Ratio (z) = 0.17229 0.33611
#
# Static dielectric constant tensor:
#      x y z
#    x 2.984950 0.000000 0.000000 
#    y 0.000000 3.432560 0.000000 
#    z 0.000000 0.000000 3.171910 
# 
# 
# High freq. dielectric constant tensor:
#      x y z
#    x 1.655740 0.000000 0.000000 
#    y 0.000000 1.688150 0.000000 
#    z 0.000000 0.000000 1.685330 
# 
# From -- ./inp_files/72677.got.cif
#   From: 2010.03.12/outbox.cif.g09.slc.cpg/sg63_37_cif.got.tgz:72677.got - 2010.04.10 19:34:48.
