data_PCOD8256838
_publ_section_title
;
Structure prediction by ZEFSAII (Michael W. Deem and Ramdas Pophale) SiO2 
 PCOD8256838
Probable space group: C M C M
;
_chemical_formula_sum "Si O2"
_cell_formula_units_Z 128
_cell_length_a 19.487492
_cell_length_b 19.366615
_cell_length_c 18.715880
_cell_angle_alpha 90.000000
_cell_angle_beta 90.000000
_cell_angle_gamma 90.000000
_cell_volume 7063.499536
_symmetry_space_group_name_H-M "C M C M"
_symmetry_group_IT_number 63
_symmetry_cell_setting 'orthorhombic'
loop_
_space_group_symop_operation_xyz
x,y,z
-x,-y,1/2+z
x,-y,-z
-x,y,1/2-z
-x,-y,-z
x,y,1/2-z
-x,y,z
x,-y,1/2+z
1/2+x,1/2+y,z
1/2-x,1/2-y,1/2+z
1/2+x,1/2-y,-z
1/2-x,1/2+y,1/2-z
1/2-x,1/2-y,-z
1/2+x,1/2+y,1/2-z
1/2-x,1/2+y,z
1/2+x,1/2-y,1/2+z
loop_
_atom_site_type_symbol
_atom_site_label
_atom_site_fract_x
_atom_site_fract_y
_atom_site_fract_z
Si Si1 0.079883 0.695923 0.937159
Si Si2 0.250603 0.467712 0.331993
Si Si3 0.324010 0.927251 0.470423
Si Si4 0.686438 0.744944 0.167828
Si Si5 0.816858 0.167742 0.828378
Si Si6 0.424085 0.574343 0.474546
Si Si7 0.926031 0.798133 0.065243
Si Si8 0.785931 0.893940 0.907318
O O1 0.114320 0.627270 0.969864
O O2 0.116346 0.727163 0.867261
O O3 0.000000 0.681422 0.919830
O O4 0.090171 0.753978 0.996100
O O5 0.222515 0.465230 0.250000
O O6 0.195397 0.439290 0.388086
O O7 0.316088 0.415640 0.339189
O O8 0.269220 0.546060 0.350947
O O9 0.259664 0.901029 0.519945
O O10 0.352167 0.000000 0.500000
O O11 0.670774 0.725924 0.250000
O O12 0.739064 0.807914 0.160048
O O13 0.723714 0.680220 0.129275
O O14 0.843325 0.186496 0.750000
O O15 0.866386 0.211906 0.878209
O O16 0.399265 0.500000 0.500000
O O17 0.500000 0.571863 0.437712
O O18 0.427880 0.621794 0.544281
O O19 0.367169 0.602593 0.421117
O O20 0.000000 0.776639 0.098113
#
# Coordination Sequence:
#
# PCOD8256838 Si02
#       8
#    16  16  16  16  16  16  16  16
#     4  11  23  38  57  81 110 146 186 234 288 339
#     4  10  20  34  53  81 115 145 183 235 281 331
#     4  10  21  36  60  87 108 147 188 235 288 339
#     4  11  23  36  55  82 111 147 186 229 281 339
#     4  10  20  34  54  78 107 144 183 223 274 330
#     4  10  19  30  48  76 108 142 182 222 262 317
#     4  10  20  34  52  78 107 141 183 226 275 326
#     4  11  20  34  57  82 112 145 190 230 281 332
#
# _framework density 18.121328999999999
#
# number of rings (size 3 to 8) (size 9 to 14) (size 15 to 20)
#    0.000    1.625    2.500    3.750    0.000    1.750 
#    0.000    0.000    0.000    1.875    0.000    0.000 
#    0.000    0.000    0.000    0.000    0.000    0.000 
#
# Total GULP energy -793196.578799 kJ/mol
# GULP energy per Si atom -12393.696544 kJ/mol
# Density = 1.808008 g / cm^3
# Si number density = 18.121329 Si / 1000 Ang^3
#
#
#
# Elastic Constant Matrix: (Units=GPa)
#
#
# Indices 1 2 3 4 5 6 
#
# 1 89.7945 33.3289 55.6877 0.0000 0.0000 0.0000
# 2 33.3289 93.8497 35.2243 0.0000 0.0000 0.0000
# 3 55.6877 35.2243 110.6132 0.0000 0.0000 0.0000
# 4 0.0000 0.0000 0.0000 24.4050 0.0000 0.0000
# 5 0.0000 0.0000 0.0000 0.0000 21.8790 0.0000
# 6 0.0000 0.0000 0.0000 0.0000 0.0000 20.7864
#
#
#
# Elastic Compliance Matrix: (Units=1/GPa)
#
#
# Indices 1 2 3 4 5 6 
#
# 1 0.017002 -0.003209 -0.007538 0.000000 0.000000 0.000000
# 2 -0.003209 0.012707 -0.002431 0.000000 0.000000 0.000000
# 3 -0.007538 -0.002431 0.013610 0.000000 0.000000 0.000000
# 4 0.000000 0.000000 0.000000 0.040975 0.000000 0.000000
# 5 0.000000 0.000000 0.000000 0.000000 0.045706 0.000000
# 6 0.000000 0.000000 0.000000 0.000000 0.000000 0.048108
#
#
# Mechanical properties :
#
#
# Convention : Reuss Voigt Hill
#
# Bulk Modulus (GPa) = 58.94996 60.30438 59.62717
# Shear Modulus (GPa) = 23.79602 24.74851 24.27226
#
# Velocity S-wave (km/s) = 3.62767 3.69956 3.66379
# Velocity P-wave (km/s) = 7.08153 7.18327 7.13258
#
# Compressibility (1/GPa) = 0.01696354
#
# Stress axis : x y z
#
# Youngs Moduli (GPa) = 58.81546 78.69447 73.47751
#
# Poissons Ratio (x) = 0.25252 0.55387
# Poissons Ratio (y) = 0.18873 0.17863
# Poissons Ratio (z) = 0.44334 0.19132
#
# Static dielectric constant tensor:
#      x y z
#    x 3.263700 0.000000 0.000000 
#    y 0.000000 3.630660 0.000000 
#    z 0.000000 0.000000 3.335480 
# 
# 
# High freq. dielectric constant tensor:
#      x y z
#    x 1.684530 0.000000 0.000000 
#    y 0.000000 1.718390 0.000000 
#    z 0.000000 0.000000 1.694370 
# 
# From -- ./inp_files/47548.got.cif
#   From: 2010.03.12/outbox.cif.g09.slc.cpg/sg63_24_cif.got.tgz:47548.got - 2010.04.10 19:34:48.
