data_PCOD8256329
_publ_section_title
;
Structure prediction by ZEFSAII (Michael W. Deem and Ramdas Pophale) SiO2 
 PCOD8256329
Probable space group: C M C M
;
_chemical_formula_sum "Si O2"
_cell_formula_units_Z 72
_cell_length_a 15.318893
_cell_length_b 28.807211
_cell_length_c 8.630144
_cell_angle_alpha 90.000000
_cell_angle_beta 90.000000
_cell_angle_gamma 90.000000
_cell_volume 3808.435797
_symmetry_space_group_name_H-M "C M C M"
_symmetry_group_IT_number 63
_symmetry_cell_setting 'orthorhombic'
loop_
_space_group_symop_operation_xyz
x,y,z
-x,-y,1/2+z
x,-y,-z
-x,y,1/2-z
-x,-y,-z
x,y,1/2-z
-x,y,z
x,-y,1/2+z
1/2+x,1/2+y,z
1/2-x,1/2-y,1/2+z
1/2+x,1/2-y,-z
1/2-x,1/2+y,1/2-z
1/2-x,1/2-y,-z
1/2+x,1/2+y,1/2-z
1/2-x,1/2+y,z
1/2+x,1/2-y,1/2+z
loop_
_atom_site_type_symbol
_atom_site_label
_atom_site_fract_x
_atom_site_fract_y
_atom_site_fract_z
Si Si1 0.247289 0.363893 0.931786
Si Si2 0.096469 0.199850 0.065814
Si Si3 0.600519 0.804680 0.071982
Si Si4 0.177454 0.050721 0.932189
Si Si5 0.500000 0.551415 0.066054
O O1 0.257090 0.372411 0.750000
O O2 0.327455 0.333082 0.999427
O O3 0.156391 0.338972 0.966153
O O4 0.246585 0.413652 0.018748
O O5 0.096827 0.199557 0.250000
O O6 0.114544 0.252364 0.009528
O O7 0.000000 0.183336 0.007820
O O8 0.630855 0.808964 0.250000
O O9 0.500000 0.819313 0.054703
O O10 0.168985 0.045611 0.750000
O O11 0.088819 0.074134 0.002327
O O12 0.197614 0.000000 0.000000
O O13 0.500000 0.553136 0.250000
O O14 0.500000 0.500000 0.000000
#
# Coordination Sequence:
#
# PCOD8256329 Si02
#       5
#    16  16  16  16   8
#     4  11  21  32  53  82 109 142 182 225 273 321
#     4   8  16  31  51  77 109 145 181 217 264 320
#     4   9  18  35  56  76 104 143 184 225 272 322
#     4  11  22  37  54  76 107 142 182 223 268 319
#     4  10  18  32  52  74 102 138 176 214 260 312
#
# _framework density 18.9054
#
# number of rings (size 3 to 8) (size 9 to 14) (size 15 to 20)
#    0.000    2.222    0.000    7.000    1.556    0.444 
#    0.000    1.111    0.000    3.333    0.000    0.000 
#    0.000    0.000    0.000    0.000    0.000    0.000 
#
# Total GULP energy -446338.770001 kJ/mol
# GULP energy per Si atom -12398.299167 kJ/mol
# Density = 1.886237 g / cm^3
# Si number density = 18.905400 Si / 1000 Ang^3
#
#
#
# Elastic Constant Matrix: (Units=GPa)
#
#
# Indices 1 2 3 4 5 6 
#
# 1 79.9006 52.6794 27.7719 0.0000 0.0000 0.0000
# 2 52.6794 98.3368 36.4115 0.0000 0.0000 0.0000
# 3 27.7719 36.4115 102.1927 0.0000 0.0000 0.0000
# 4 0.0000 0.0000 0.0000 24.4352 0.0000 0.0000
# 5 0.0000 0.0000 0.0000 0.0000 29.1463 0.0000
# 6 0.0000 0.0000 0.0000 0.0000 0.0000 28.2111
#
#
#
# Elastic Compliance Matrix: (Units=1/GPa)
#
#
# Indices 1 2 3 4 5 6 
#
# 1 0.019643 -0.009845 -0.001830 0.000000 0.000000 0.000000
# 2 -0.009845 0.016649 -0.003257 0.000000 0.000000 0.000000
# 3 -0.001830 -0.003257 0.011443 0.000000 0.000000 0.000000
# 4 0.000000 0.000000 0.000000 0.040925 0.000000 0.000000
# 5 0.000000 0.000000 0.000000 0.000000 0.034310 0.000000
# 6 0.000000 0.000000 0.000000 0.000000 0.000000 0.035447
#
#
# Mechanical properties :
#
#
# Convention : Reuss Voigt Hill
#
# Bulk Modulus (GPa) = 55.95638 57.12843 56.54241
# Shear Modulus (GPa) = 25.74177 27.26298 26.50238
#
# Velocity S-wave (km/s) = 3.69400 3.80158 3.74818
# Velocity P-wave (km/s) = 6.91784 7.03939 6.97888
#
# Compressibility (1/GPa) = 0.01787106
#
# Stress axis : x y z
#
# Youngs Moduli (GPa) = 50.90973 60.06394 87.38837
#
# Poissons Ratio (x) = 0.59132 0.15995
# Poissons Ratio (y) = 0.50120 0.28459
# Poissons Ratio (z) = 0.09318 0.19560
#
# Static dielectric constant tensor:
#      x y z
#    x 3.603280 0.000000 0.000000 
#    y 0.000000 3.447150 0.000000 
#    z 0.000000 0.000000 3.225090 
# 
# 
# High freq. dielectric constant tensor:
#      x y z
#    x 1.719280 0.000000 0.000000 
#    y 0.000000 1.731540 0.000000 
#    z 0.000000 0.000000 1.720960 
# 
# From -- ./inp_files/4608.got.cif
#   From: 2010.03.12/outbox.cif.g09.slc.cpg/sg63_3_cif.got.tgz:4608.got - 2010.04.10 19:34:48.
