data_PCOD8256135
_publ_section_title
;
Structure prediction by ZEFSAII (Michael W. Deem and Ramdas Pophale) SiO2 
 PCOD8256135
Probable space group: C M C M
;
_chemical_formula_sum "Si O2"
_cell_formula_units_Z 96
_cell_length_a 9.088579
_cell_length_b 25.045415
_cell_length_c 23.821278
_cell_angle_alpha 90.000000
_cell_angle_beta 90.000000
_cell_angle_gamma 90.000000
_cell_volume 5422.371593
_symmetry_space_group_name_H-M "C M C M"
_symmetry_group_IT_number 63
_symmetry_cell_setting 'orthorhombic'
loop_
_space_group_symop_operation_xyz
x,y,z
-x,-y,1/2+z
x,-y,-z
-x,y,1/2-z
-x,-y,-z
x,y,1/2-z
-x,y,z
x,-y,1/2+z
1/2+x,1/2+y,z
1/2-x,1/2-y,1/2+z
1/2+x,1/2-y,-z
1/2-x,1/2+y,1/2-z
1/2-x,1/2-y,-z
1/2+x,1/2+y,1/2-z
1/2-x,1/2+y,z
1/2+x,1/2-y,1/2+z
loop_
_atom_site_type_symbol
_atom_site_label
_atom_site_fract_x
_atom_site_fract_y
_atom_site_fract_z
Si Si1 0.325766 0.857697 0.250000
Si Si2 0.325530 0.485932 0.638639
Si Si3 0.174037 0.106012 0.441371
Si Si4 0.824851 0.520138 0.750000
Si Si5 0.172008 0.774533 0.553722
Si Si6 0.172810 0.087254 0.565598
Si Si7 0.828371 0.679508 0.868742
O O1 0.500000 0.857613 0.250000
O O2 0.268155 0.918643 0.250000
O O3 0.266642 0.826955 0.194743
O O4 0.500000 0.485737 0.649945
O O5 0.268695 0.431900 0.608539
O O6 0.238646 0.489799 0.696399
O O7 0.278745 0.534765 0.598788
O O8 0.234665 0.166254 0.433735
O O9 0.224312 0.081676 0.501105
O O10 0.000000 0.106288 0.438487
O O11 0.000000 0.516828 0.750000
O O12 0.250000 0.750000 0.500000
O O13 0.202897 0.739236 0.609226
O O14 0.000000 0.776733 0.539414
O O15 0.248731 0.138961 0.590486
O O16 0.000000 0.096663 0.569638
O O17 0.000000 0.665544 0.870330
#
# Coordination Sequence:
#
# PCOD8256135 Si02
#       7
#     8  16  16   8  16  16  16
#     4   9  18  33  50  69 101 135 165 207 254 299
#     4  10  20  34  53  77 104 136 175 213 252 309
#     4   9  18  33  51  76 108 138 168 209 258 305
#     4  11  21  35  54  73 101 139 171 213 264 305
#     4  10  19  32  53  77 103 134 171 210 254 306
#     4  10  18  30  52  78 105 134 166 210 259 305
#     4  10  19  32  51  76 103 135 171 209 256 306
#
# _framework density 17.704429999999999
#
# number of rings (size 3 to 8) (size 9 to 14) (size 15 to 20)
#    0.000    2.167    3.333    0.750    0.000    2.000 
#    0.000    2.917    0.000    6.000    0.000    0.000 
#    0.000    0.000    0.000    0.000    0.000    0.000 
#
# Total GULP energy -595137.506937 kJ/mol
# GULP energy per Si atom -12398.698061 kJ/mol
# Density = 1.766413 g / cm^3
# Si number density = 17.704430 Si / 1000 Ang^3
#
#
#
# Elastic Constant Matrix: (Units=GPa)
#
#
# Indices 1 2 3 4 5 6 
#
# 1 26.8152 29.3385 32.3416 0.0000 0.0000 0.0000
# 2 29.3385 136.6749 80.4421 0.0000 0.0000 0.0000
# 3 32.3416 80.4421 160.8212 0.0000 0.0000 0.0000
# 4 0.0000 0.0000 0.0000 35.1499 0.0000 0.0000
# 5 0.0000 0.0000 0.0000 0.0000 20.9659 0.0000
# 6 0.0000 0.0000 0.0000 0.0000 0.0000 20.6756
#
#
#
# Elastic Compliance Matrix: (Units=1/GPa)
#
#
# Indices 1 2 3 4 5 6 
#
# 1 0.054010 -0.007371 -0.007175 0.000000 0.000000 0.000000
# 2 -0.007371 0.011375 -0.004208 0.000000 0.000000 0.000000
# 3 -0.007175 -0.004208 0.009766 0.000000 0.000000 0.000000
# 4 0.000000 0.000000 0.000000 0.028450 0.000000 0.000000
# 5 0.000000 0.000000 0.000000 0.000000 0.047697 0.000000
# 6 0.000000 0.000000 0.000000 0.000000 0.000000 0.048366
#
#
# Mechanical properties :
#
#
# Convention : Reuss Voigt Hill
#
# Bulk Modulus (GPa) = 26.56425 67.61732 47.09078
# Shear Modulus (GPa) = 20.02259 27.50423 23.76341
#
# Velocity S-wave (km/s) = 3.36659 3.94575 3.66762
# Velocity P-wave (km/s) = 5.49079 7.68335 6.67767
#
# Compressibility (1/GPa) = 0.03764458
#
# Stress axis : x y z
#
# Youngs Moduli (GPa) = 18.51501 87.90970 102.40099
#
# Poissons Ratio (x) = 0.64799 0.73469
# Poissons Ratio (y) = 0.13647 0.43086
# Poissons Ratio (z) = 0.13284 0.36988
#
# Static dielectric constant tensor:
#      x y z
#    x 3.013040 0.000000 0.000000 
#    y 0.000000 3.610290 0.000000 
#    z 0.000000 0.000000 3.785280 
# 
# 
# High freq. dielectric constant tensor:
#      x y z
#    x 1.654210 0.000000 0.000000 
#    y 0.000000 1.687130 0.000000 
#    z 0.000000 0.000000 1.691260 
# 
# From -- ./inp_files/60082.got.cif
#   From: 2010.03.12/outbox.cif.g09.slc.cpg/sg63_31_cif.got.tgz:60082.got - 2010.04.10 19:34:48.
