data_PCOD8256306
_publ_section_title
;
Structure prediction by ZEFSAII (Michael W. Deem and Ramdas Pophale) SiO2 
 PCOD8256306
Probable space group: C M C M
;
_chemical_formula_sum "Si O2"
_cell_formula_units_Z 96
_cell_length_a 23.377885
_cell_length_b 25.085956
_cell_length_c 9.482303
_cell_angle_alpha 90.000000
_cell_angle_beta 90.000000
_cell_angle_gamma 90.000000
_cell_volume 5560.959125
_symmetry_space_group_name_H-M "C M C M"
_symmetry_group_IT_number 63
_symmetry_cell_setting 'orthorhombic'
loop_
_space_group_symop_operation_xyz
x,y,z
-x,-y,1/2+z
x,-y,-z
-x,y,1/2-z
-x,-y,-z
x,y,1/2-z
-x,y,z
x,-y,1/2+z
1/2+x,1/2+y,z
1/2-x,1/2-y,1/2+z
1/2+x,1/2-y,-z
1/2-x,1/2+y,1/2-z
1/2-x,1/2-y,-z
1/2+x,1/2+y,1/2-z
1/2-x,1/2+y,z
1/2+x,1/2-y,1/2+z
loop_
_atom_site_type_symbol
_atom_site_label
_atom_site_fract_x
_atom_site_fract_y
_atom_site_fract_z
Si Si1 0.320317 0.048791 0.092756
Si Si2 0.936293 0.243811 0.583094
Si Si3 0.188835 0.946450 0.582919
Si Si4 0.643429 0.160829 0.089645
Si Si5 0.140173 0.854275 0.093000
Si Si6 0.740087 0.799748 0.404211
O O1 0.318042 0.026002 0.250000
O O2 0.255569 0.067676 0.052699
O O3 0.367175 0.096953 0.083414
O O4 0.342628 0.000000 0.000000
O O5 0.939100 0.241054 0.750000
O O6 0.908042 0.300718 0.538952
O O7 0.900764 0.192374 0.529118
O O8 0.000000 0.242112 0.517523
O O9 0.176678 0.951991 0.750000
O O10 0.145506 0.902098 0.519131
O O11 0.172896 0.000000 0.500000
O O12 0.661446 0.177103 0.250000
O O13 0.694406 0.164072 0.980433
O O14 0.118627 0.873059 0.250000
O O15 0.202276 0.831179 0.114920
O O16 0.717295 0.782297 0.250000
O O17 0.750000 0.750000 0.500000
#
# Coordination Sequence:
#
# PCOD8256306 Si02
#       6
#    16  16  16  16  16  16
#     4   9  18  29  45  69 101 133 163 197 237 293
#     4   9  18  33  53  74  97 129 170 214 254 294
#     4  10  19  31  48  72 104 136 164 197 242 297
#     4  10  18  32  50  73 101 131 168 207 246 298
#     4  10  19  31  49  73 101 131 165 204 247 299
#     4  11  20  29  45  72 103 133 162 199 248 303
#
# _framework density 17.263207999999999
#
# number of rings (size 3 to 8) (size 9 to 14) (size 15 to 20)
#    0.000    2.167    3.333    1.000    0.000    2.000 
#    0.000    0.000    0.000    3.000    0.000    0.000 
#    0.000    0.000    0.000    0.000    0.000    0.000 
#
# Total GULP energy -594635.474601 kJ/mol
# GULP energy per Si atom -12388.239054 kJ/mol
# Density = 1.722392 g / cm^3
# Si number density = 17.263208 Si / 1000 Ang^3
#
#
#
# Elastic Constant Matrix: (Units=GPa)
#
#
# Indices 1 2 3 4 5 6 
#
# 1 79.3407 49.0156 25.7978 0.0000 0.0000 0.0000
# 2 49.0156 131.6935 55.9699 0.0000 0.0000 0.0000
# 3 25.7978 55.9699 87.6813 0.0000 0.0000 0.0000
# 4 0.0000 0.0000 0.0000 30.2496 0.0000 0.0000
# 5 0.0000 0.0000 0.0000 0.0000 10.8358 0.0000
# 6 0.0000 0.0000 0.0000 0.0000 0.0000 11.2477
#
#
#
# Elastic Compliance Matrix: (Units=1/GPa)
#
#
# Indices 1 2 3 4 5 6 
#
# 1 0.016471 -0.005586 -0.001280 0.000000 0.000000 0.000000
# 2 -0.005586 0.012315 -0.006217 0.000000 0.000000 0.000000
# 3 -0.001280 -0.006217 0.015750 0.000000 0.000000 0.000000
# 4 0.000000 0.000000 0.000000 0.033058 0.000000 0.000000
# 5 0.000000 0.000000 0.000000 0.000000 0.092287 0.000000
# 6 0.000000 0.000000 0.000000 0.000000 0.000000 0.088907
#
#
# Mechanical properties :
#
#
# Convention : Reuss Voigt Hill
#
# Bulk Modulus (GPa) = 54.44078 62.25356 58.34717
# Shear Modulus (GPa) = 17.17741 21.66211 19.41976
#
# Velocity S-wave (km/s) = 3.15783 3.54618 3.35762
# Velocity P-wave (km/s) = 6.70075 7.27371 6.99310
#
# Compressibility (1/GPa) = 0.01836858
#
# Stress axis : x y z
#
# Youngs Moduli (GPa) = 60.71139 81.20136 63.49039
#
# Poissons Ratio (x) = 0.45363 0.08128
# Poissons Ratio (y) = 0.33916 0.39475
# Poissons Ratio (z) = 0.07772 0.50487
#
# Static dielectric constant tensor:
#      x y z
#    x 2.834390 0.000000 0.000000 
#    y 0.000000 3.251020 0.000000 
#    z 0.000000 0.000000 3.228910 
# 
# 
# High freq. dielectric constant tensor:
#      x y z
#    x 1.616110 0.000000 0.000000 
#    y 0.000000 1.672740 0.000000 
#    z 0.000000 0.000000 1.661110 
# 
# From -- ./inp_files/8581.got.cif
#   From: 2010.03.12/outbox.cif.g09.slc.cpg/sg63_5_cif.got.tgz:8581.got - 2010.04.10 19:34:48.
