data_PCOD8256613
_publ_section_title
;
Structure prediction by ZEFSAII (Michael W. Deem and Ramdas Pophale) SiO2 
 PCOD8256613
Probable space group: C M C M
;
_chemical_formula_sum "Si O2"
_cell_formula_units_Z 96
_cell_length_a 9.156602
_cell_length_b 20.240120
_cell_length_c 29.628350
_cell_angle_alpha 90.000000
_cell_angle_beta 90.000000
_cell_angle_gamma 90.000000
_cell_volume 5491.043535
_symmetry_space_group_name_H-M "C M C M"
_symmetry_group_IT_number 63
_symmetry_cell_setting 'orthorhombic'
loop_
_space_group_symop_operation_xyz
x,y,z
-x,-y,1/2+z
x,-y,-z
-x,y,1/2-z
-x,-y,-z
x,y,1/2-z
-x,y,z
x,-y,1/2+z
1/2+x,1/2+y,z
1/2-x,1/2-y,1/2+z
1/2+x,1/2-y,-z
1/2-x,1/2+y,1/2-z
1/2-x,1/2-y,-z
1/2+x,1/2+y,1/2-z
1/2-x,1/2+y,z
1/2+x,1/2-y,1/2+z
loop_
_atom_site_type_symbol
_atom_site_label
_atom_site_fract_x
_atom_site_fract_y
_atom_site_fract_z
Si Si1 0.328605 0.190809 0.025138
Si Si2 0.168981 0.559440 0.969424
Si Si3 0.336564 0.987015 0.299378
Si Si4 0.171767 0.859138 0.612183
Si Si5 0.835592 0.643806 0.200216
Si Si6 0.169862 0.013403 0.885564
O O1 0.500000 0.205365 0.031268
O O2 0.256522 0.181211 0.073960
O O3 0.250000 0.250000 0.000000
O O4 0.300655 0.126997 0.994848
O O5 0.256212 0.559296 0.922885
O O6 0.000000 0.548360 0.958070
O O7 0.229403 0.500000 0.000000
O O8 0.287784 0.960299 0.250000
O O9 0.500000 0.962269 0.310638
O O10 0.333678 0.065438 0.298614
O O11 0.226508 0.960552 0.337242
O O12 0.226516 0.831809 0.660822
O O13 0.209850 0.936570 0.606693
O O14 0.000000 0.845834 0.608078
O O15 0.785633 0.670081 0.250000
O O16 0.000000 0.668706 0.189689
O O17 0.000000 0.025881 0.887545
#
# Coordination Sequence:
#
# PCOD8256613 Si02
#       6
#    16  16  16  16  16  16
#     4  11  23  38  55  74 100 134 171 213 257 304
#     4  10  20  35  54  74  97 131 172 208 246 298
#     4   8  14  25  41  62  93 132 168 202 244 298
#     4  10  19  30  46  71 102 134 167 205 253 301
#     4   8  14  25  42  65  94 129 167 205 247 295
#     4  10  19  28  45  73 102 131 164 210 256 295
#
# _framework density 17.483015000000002
#
# number of rings (size 3 to 8) (size 9 to 14) (size 15 to 20)
#    0.000    2.500    1.667    2.500    0.000    3.667 
#    0.000    3.333    0.000    0.000    0.000    1.167 
#    0.000    1.333    0.000    0.000    0.000    0.000 
#
# Total GULP energy -595063.482508 kJ/mol
# GULP energy per Si atom -12397.155886 kJ/mol
# Density = 1.744322 g / cm^3
# Si number density = 17.483015 Si / 1000 Ang^3
#
#
#
# Elastic Constant Matrix: (Units=GPa)
#
#
# Indices 1 2 3 4 5 6 
#
# 1 99.2026 37.7601 81.3450 0.0000 0.0000 0.0000
# 2 37.7601 44.3604 36.2735 0.0000 0.0000 0.0000
# 3 81.3450 36.2735 165.0772 0.0000 0.0000 0.0000
# 4 0.0000 0.0000 0.0000 14.9344 0.0000 0.0000
# 5 0.0000 0.0000 0.0000 0.0000 29.0811 0.0000
# 6 0.0000 0.0000 0.0000 0.0000 0.0000 19.4103
#
#
#
# Elastic Compliance Matrix: (Units=1/GPa)
#
#
# Indices 1 2 3 4 5 6 
#
# 1 0.020725 -0.011325 -0.007724 0.000000 0.000000 0.000000
# 2 -0.011325 0.033669 -0.001818 0.000000 0.000000 0.000000
# 3 -0.007724 -0.001818 0.010263 0.000000 0.000000 0.000000
# 4 0.000000 0.000000 0.000000 0.066959 0.000000 0.000000
# 5 0.000000 0.000000 0.000000 0.000000 0.034387 0.000000
# 6 0.000000 0.000000 0.000000 0.000000 0.000000 0.051519
#
#
# Mechanical properties :
#
#
# Convention : Reuss Voigt Hill
#
# Bulk Modulus (GPa) = 43.62333 68.82195 56.22264
# Shear Modulus (GPa) = 18.73382 22.90260 20.81821
#
# Velocity S-wave (km/s) = 3.27700 3.62331 3.45449
# Velocity P-wave (km/s) = 6.27091 7.54685 6.93827
#
# Compressibility (1/GPa) = 0.02292351
#
# Stress axis : x y z
#
# Youngs Moduli (GPa) = 48.25148 29.70079 97.43468
#
# Poissons Ratio (x) = 0.33637 0.75258
# Poissons Ratio (y) = 0.54646 0.17710
# Poissons Ratio (z) = 0.37269 0.05398
#
# Static dielectric constant tensor:
#      x y z
#    x 3.295740 0.000000 0.000000 
#    y 0.000000 2.736190 0.000000 
#    z 0.000000 0.000000 3.667780 
# 
# 
# High freq. dielectric constant tensor:
#      x y z
#    x 1.680560 0.000000 0.000000 
#    y 0.000000 1.610330 0.000000 
#    z 0.000000 0.000000 1.695850 
# 
# From -- ./inp_files/67217.got.cif
#   From: 2010.03.12/outbox.cif.g09.slc.cpg/sg63_34_cif.got.tgz:67217.got - 2010.04.10 19:34:48.
