data_PCOD8256346
_publ_section_title
;
Structure prediction by ZEFSAII (Michael W. Deem and Ramdas Pophale) SiO2 
 PCOD8256346
Probable space group: C M C M
;
_chemical_formula_sum "Si O2"
_cell_formula_units_Z 96
_cell_length_a 8.990309
_cell_length_b 25.038668
_cell_length_c 21.616912
_cell_angle_alpha 90.000000
_cell_angle_beta 90.000000
_cell_angle_gamma 90.000000
_cell_volume 4866.082807
_symmetry_space_group_name_H-M "C M C M"
_symmetry_group_IT_number 63
_symmetry_cell_setting 'orthorhombic'
loop_
_space_group_symop_operation_xyz
x,y,z
-x,-y,1/2+z
x,-y,-z
-x,y,1/2-z
-x,-y,-z
x,y,1/2-z
-x,y,z
x,-y,1/2+z
1/2+x,1/2+y,z
1/2-x,1/2-y,1/2+z
1/2+x,1/2-y,-z
1/2-x,1/2+y,1/2-z
1/2-x,1/2-y,-z
1/2+x,1/2+y,1/2-z
1/2-x,1/2+y,z
1/2+x,1/2-y,1/2+z
loop_
_atom_site_type_symbol
_atom_site_label
_atom_site_fract_x
_atom_site_fract_y
_atom_site_fract_z
Si Si1 0.823706 0.686561 0.318361
Si Si2 0.821368 0.240644 0.932416
Si Si3 0.173591 0.430454 0.849846
Si Si4 0.669212 0.376069 0.408720
Si Si5 0.332738 0.557162 0.472349
Si Si6 0.168155 0.962967 0.181434
O O1 0.773207 0.709010 0.250000
O O2 0.762812 0.718953 0.378495
O O3 0.768361 0.625252 0.321344
O O4 0.000000 0.688829 0.322802
O O5 0.762909 0.183190 0.907602
O O6 0.000000 0.242295 0.940162
O O7 0.750000 0.250000 0.000000
O O8 0.210248 0.429502 0.921963
O O9 0.250396 0.480500 0.817527
O O10 0.000000 0.436747 0.839125
O O11 0.500000 0.371965 0.385983
O O12 0.682349 0.396445 0.478130
O O13 0.748155 0.418820 0.362625
O O14 0.292546 0.500000 0.500000
O O15 0.500000 0.556008 0.444556
O O16 0.170228 0.938891 0.250000
O O17 0.000000 0.973408 0.157715
#
# Coordination Sequence:
#
# PCOD8256346 Si02
#       6
#    16  16  16  16  16  16
#     4   9  19  35  54  78 109 146 185 225 271 324
#     4  10  20  36  59  82 108 140 180 228 275 323
#     4  11  21  33  52  78 110 141 176 219 264 320
#     4   9  18  33  53  79 104 132 170 217 268 311
#     4  10  18  32  53  74 107 142 170 212 265 320
#     4  10  20  35  54  76 104 138 177 217 261 316
#
# _framework density 19.728394000000002
#
# number of rings (size 3 to 8) (size 9 to 14) (size 15 to 20)
#    0.000    2.167    1.667    2.000    0.000    2.000 
#    0.000    5.000    0.000    2.500    0.000    0.000 
#    0.000    0.000    0.000    0.000    0.000    0.000 
#
# Total GULP energy -594809.720925 kJ/mol
# GULP energy per Si atom -12391.869186 kJ/mol
# Density = 1.968349 g / cm^3
# Si number density = 19.728394 Si / 1000 Ang^3
#
#
#
# Elastic Constant Matrix: (Units=GPa)
#
#
# Indices 1 2 3 4 5 6 
#
# 1 30.7781 24.9894 19.7627 0.0000 0.0000 0.0000
# 2 24.9894 143.9385 60.3169 0.0000 0.0000 0.0000
# 3 19.7627 60.3169 136.5701 0.0000 0.0000 0.0000
# 4 0.0000 0.0000 0.0000 16.3883 0.0000 0.0000
# 5 0.0000 0.0000 0.0000 0.0000 15.6488 0.0000
# 6 0.0000 0.0000 0.0000 0.0000 0.0000 20.8647
#
#
#
# Elastic Compliance Matrix: (Units=1/GPa)
#
#
# Indices 1 2 3 4 5 6 
#
# 1 0.038965 -0.005402 -0.003253 0.000000 0.000000 0.000000
# 2 -0.005402 0.009274 -0.003314 0.000000 0.000000 0.000000
# 3 -0.003253 -0.003314 0.009257 0.000000 0.000000 0.000000
# 4 0.000000 0.000000 0.000000 0.061019 0.000000 0.000000
# 5 0.000000 0.000000 0.000000 0.000000 0.063903 0.000000
# 6 0.000000 0.000000 0.000000 0.000000 0.000000 0.047928
#
#
# Mechanical properties :
#
#
# Convention : Reuss Voigt Hill
#
# Bulk Modulus (GPa) = 29.79896 57.93607 43.86752
# Shear Modulus (GPa) = 18.83457 24.32819 21.58138
#
# Velocity S-wave (km/s) = 3.09316 3.51544 3.31104
# Velocity P-wave (km/s) = 5.28150 6.77557 6.07465
#
# Compressibility (1/GPa) = 0.03355822
#
# Stress axis : x y z
#
# Youngs Moduli (GPa) = 25.66402 107.82788 108.02963
#
# Poissons Ratio (x) = 0.58245 0.35140
# Poissons Ratio (y) = 0.13863 0.35804
# Poissons Ratio (z) = 0.08348 0.35737
#
# Static dielectric constant tensor:
#      x y z
#    x 3.190130 0.000000 0.000000 
#    y 0.000000 3.850540 0.000000 
#    z 0.000000 0.000000 3.772600 
# 
# 
# High freq. dielectric constant tensor:
#      x y z
#    x 1.716390 0.000000 0.000000 
#    y 0.000000 1.778600 0.000000 
#    z 0.000000 0.000000 1.783920 
# 
# From -- ./inp_files/51338.got.cif
#   From: 2010.03.12/outbox.cif.g09.slc.cpg/sg63_26_cif.got.tgz:51338.got - 2010.04.10 19:34:48.
