data_PCOD8256757
_publ_section_title
;
Structure prediction by ZEFSAII (Michael W. Deem and Ramdas Pophale) SiO2 
 PCOD8256757
Probable space group: C M C M
;
_chemical_formula_sum "Si O2"
_cell_formula_units_Z 104
_cell_length_a 28.274750
_cell_length_b 27.704123
_cell_length_c 9.209003
_cell_angle_alpha 90.000000
_cell_angle_beta 90.000000
_cell_angle_gamma 90.000000
_cell_volume 7213.662091
_symmetry_space_group_name_H-M "C M C M"
_symmetry_group_IT_number 63
_symmetry_cell_setting 'orthorhombic'
loop_
_space_group_symop_operation_xyz
x,y,z
-x,-y,1/2+z
x,-y,-z
-x,y,1/2-z
-x,-y,-z
x,y,1/2-z
-x,y,z
x,-y,1/2+z
1/2+x,1/2+y,z
1/2-x,1/2-y,1/2+z
1/2+x,1/2-y,-z
1/2-x,1/2+y,1/2-z
1/2-x,1/2-y,-z
1/2+x,1/2+y,1/2-z
1/2-x,1/2+y,z
1/2+x,1/2-y,1/2+z
loop_
_atom_site_type_symbol
_atom_site_label
_atom_site_fract_x
_atom_site_fract_y
_atom_site_fract_z
Si Si1 0.182852 0.950018 0.080958
Si Si2 0.786336 0.283109 0.582901
Si Si3 0.211287 0.141488 0.414891
Si Si4 0.000000 0.951307 0.916394
Si Si5 0.359061 0.270989 0.578921
Si Si6 0.420130 0.589827 0.591094
Si Si7 0.445192 0.302372 0.412153
O O1 0.195393 0.955937 0.250000
O O2 0.128713 0.935894 0.055658
O O3 0.212607 0.905666 0.015776
O O4 0.194657 0.000000 0.000000
O O5 0.791307 0.266693 0.750000
O O6 0.750000 0.250000 0.500000
O O7 0.764530 0.336892 0.573567
O O8 0.836376 0.275853 0.501437
O O9 0.200330 0.125550 0.250000
O O10 0.171179 0.180790 0.461795
O O11 0.000000 0.962630 0.750000
O O12 0.953832 0.922055 0.958300
O O13 0.000000 0.000000 0.000000
O O14 0.358375 0.262099 0.750000
O O15 0.413579 0.271988 0.524733
O O16 0.438644 0.571831 0.750000
O O17 0.417678 0.647105 0.594455
O O18 0.444329 0.279590 0.250000
O O19 0.500000 0.306721 0.465362
#
# Coordination Sequence:
#
# PCOD8256757 Si02
#       7
#    16  16  16   8  16  16  16
#     4  11  22  33  47  62  81 109 140 176 218 262
#     4   9  17  29  46  68  89 109 134 169 213 259
#     4   9  18  31  46  65  87 108 136 174 213 257
#     4  12  24  34  46  58  70  94 128 176 226 268
#     4  10  19  30  46  67  89 111 138 175 215 261
#     4  10  20  35  48  60  76 100 136 178 222 264
#     4  10  19  32  48  63  83 111 143 179 221 266
#
# _framework density 14.417087
#
# number of rings (size 3 to 8) (size 9 to 14) (size 15 to 20)
#    0.000    2.000    2.308    3.462    0.000    6.462 
#    0.000    0.000    0.000    0.000    0.000    0.000 
#    0.000    0.000    0.000    0.000    0.000    0.769 
#
# Total GULP energy -644358.745990 kJ/mol
# GULP energy per Si atom -12391.514346 kJ/mol
# Density = 1.438427 g / cm^3
# Si number density = 14.417087 Si / 1000 Ang^3
#
#
#
# Elastic Constant Matrix: (Units=GPa)
#
#
# Indices 1 2 3 4 5 6 
#
# 1 58.0298 35.6424 42.2680 0.0000 0.0000 0.0000
# 2 35.6424 53.4757 42.9814 0.0000 0.0000 0.0000
# 3 42.2680 42.9814 108.7919 0.0000 0.0000 0.0000
# 4 0.0000 0.0000 0.0000 22.9398 0.0000 0.0000
# 5 0.0000 0.0000 0.0000 0.0000 22.9915 0.0000
# 6 0.0000 0.0000 0.0000 0.0000 0.0000 20.7096
#
#
#
# Elastic Compliance Matrix: (Units=1/GPa)
#
#
# Indices 1 2 3 4 5 6 
#
# 1 0.031471 -0.016336 -0.005773 0.000000 0.000000 0.000000
# 2 -0.016336 0.035881 -0.007829 0.000000 0.000000 0.000000
# 3 -0.005773 -0.007829 0.014528 0.000000 0.000000 0.000000
# 4 0.000000 0.000000 0.000000 0.043592 0.000000 0.000000
# 5 0.000000 0.000000 0.000000 0.000000 0.043494 0.000000
# 6 0.000000 0.000000 0.000000 0.000000 0.000000 0.048287
#
#
# Mechanical properties :
#
#
# Convention : Reuss Voigt Hill
#
# Bulk Modulus (GPa) = 45.44653 51.34234 48.39443
# Shear Modulus (GPa) = 17.57692 19.95522 18.76607
#
# Velocity S-wave (km/s) = 3.49545 3.72443 3.61176
# Velocity P-wave (km/s) = 6.91969 7.36102 7.14376
#
# Compressibility (1/GPa) = 0.02200388
#
# Stress axis : x y z
#
# Youngs Moduli (GPa) = 31.77500 27.87024 68.83282
#
# Poissons Ratio (x) = 0.45528 0.39740
# Poissons Ratio (y) = 0.51907 0.53888
# Poissons Ratio (z) = 0.18345 0.21819
#
# Static dielectric constant tensor:
#      x y z
#    x 1.889160 0.000000 0.000000 
#    y 0.000000 2.233220 0.000000 
#    z 0.000000 0.000000 2.824350 
# 
# 
# High freq. dielectric constant tensor:
#      x y z
#    x 1.526250 0.000000 0.000000 
#    y 0.000000 1.511250 0.000000 
#    z 0.000000 0.000000 1.568660 
# 
# From -- ./inp_files/13115.got.cif
#   From: 2010.03.12/outbox.cif.g09.slc.cpg/sg63_7_cif.got.tgz:13115.got - 2010.04.10 19:34:48.
