data_PCOD8256235
_publ_section_title
;
Structure prediction by ZEFSAII (Michael W. Deem and Ramdas Pophale) SiO2 
 PCOD8256235
Probable space group: C M C M
;
_chemical_formula_sum "Si O2"
_cell_formula_units_Z 80
_cell_length_a 20.529605
_cell_length_b 23.026898
_cell_length_c 9.138018
_cell_angle_alpha 90.000000
_cell_angle_beta 90.000000
_cell_angle_gamma 90.000000
_cell_volume 4319.843763
_symmetry_space_group_name_H-M "C M C M"
_symmetry_group_IT_number 63
_symmetry_cell_setting 'orthorhombic'
loop_
_space_group_symop_operation_xyz
x,y,z
-x,-y,1/2+z
x,-y,-z
-x,y,1/2-z
-x,-y,-z
x,y,1/2-z
-x,y,z
x,-y,1/2+z
1/2+x,1/2+y,z
1/2-x,1/2-y,1/2+z
1/2+x,1/2-y,-z
1/2-x,1/2+y,1/2-z
1/2-x,1/2-y,-z
1/2+x,1/2+y,1/2-z
1/2-x,1/2+y,z
1/2+x,1/2-y,1/2+z
loop_
_atom_site_type_symbol
_atom_site_label
_atom_site_fract_x
_atom_site_fract_y
_atom_site_fract_z
Si Si1 0.000000 0.060560 0.423551
Si Si2 0.124171 0.632826 0.078268
Si Si3 0.747900 0.437542 0.576477
Si Si4 0.500000 0.060032 0.079447
Si Si5 0.075586 0.256409 0.423882
Si Si6 0.377406 0.367654 0.923264
O O1 0.936983 0.094196 0.480864
O O2 0.000000 0.053223 0.250000
O O3 0.000000 0.000000 0.500000
O O4 0.124455 0.646388 0.250000
O O5 0.187439 0.596896 0.030103
O O6 0.062843 0.595130 0.029234
O O7 0.119361 0.693158 0.993061
O O8 0.745653 0.500000 0.500000
O O9 0.744587 0.447832 0.750000
O O10 0.688943 0.396996 0.518845
O O11 0.500000 0.047546 0.250000
O O12 0.500000 0.000000 0.000000
O O13 0.077677 0.261507 0.250000
O O14 0.111012 0.197757 0.480057
O O15 0.000000 0.258166 0.477282
O O16 0.376813 0.366458 0.750000
#
# Coordination Sequence:
#
# PCOD8256235 Si02
#       6
#     8  16  16   8  16  16
#     4  10  18  31  52  76 104 137 175 218 261 308
#     4  10  21  36  53  76 108 142 172 217 275 315
#     4  10  21  37  56  78 109 144 177 217 266 317
#     4  10  20  33  50  72 100 133 173 216 259 310
#     4  10  19  34  57  81 104 137 182 223 259 312
#     4   9  18  34  55  78 106 140 176 217 264 311
#
# _framework density 18.519188
#
# number of rings (size 3 to 8) (size 9 to 14) (size 15 to 20)
#    0.000    2.200    2.000    1.200    0.000    2.400 
#    0.000    2.000    0.000    0.000    0.000    0.000 
#    0.000    0.000    0.000    0.000    0.000    0.000 
#
# Total GULP energy -495980.556501 kJ/mol
# GULP energy per Si atom -12399.513913 kJ/mol
# Density = 1.847704 g / cm^3
# Si number density = 18.519188 Si / 1000 Ang^3
#
#
#
# Elastic Constant Matrix: (Units=GPa)
#
#
# Indices 1 2 3 4 5 6 
#
# 1 168.4435 90.4869 27.9689 0.0000 0.0000 0.0000
# 2 90.4869 192.4901 44.1030 0.0000 0.0000 0.0000
# 3 27.9689 44.1030 25.4273 0.0000 0.0000 0.0000
# 4 0.0000 0.0000 0.0000 33.5863 0.0000 0.0000
# 5 0.0000 0.0000 0.0000 0.0000 3.0569 0.0000
# 6 0.0000 0.0000 0.0000 0.0000 0.0000 30.8249
#
#
#
# Elastic Compliance Matrix: (Units=1/GPa)
#
#
# Indices 1 2 3 4 5 6 
#
# 1 0.008164 -0.002954 -0.003856 0.000000 0.000000 0.000000
# 2 -0.002954 0.009690 -0.013558 0.000000 0.000000 0.000000
# 3 -0.003856 -0.013558 0.067084 0.000000 0.000000 0.000000
# 4 0.000000 0.000000 0.000000 0.029774 0.000000 0.000000
# 5 0.000000 0.000000 0.000000 0.000000 0.327127 0.000000
# 6 0.000000 0.000000 0.000000 0.000000 0.000000 0.032441
#
#
# Mechanical properties :
#
#
# Convention : Reuss Voigt Hill
#
# Bulk Modulus (GPa) = 22.62294 79.05320 50.83807
# Shear Modulus (GPa) = 9.43840 28.41377 18.92609
#
# Velocity S-wave (km/s) = 2.26000 3.92125 3.20030
# Velocity P-wave (km/s) = 4.36493 7.95496 6.41615
#
# Compressibility (1/GPa) = 0.04420292
#
# Stress axis : x y z
#
# Youngs Moduli (GPa) = 122.48909 103.19708 14.90658
#
# Poissons Ratio (x) = 0.30488 0.05748
# Poissons Ratio (y) = 0.36188 0.20210
# Poissons Ratio (z) = 0.47229 1.39912
#
# Static dielectric constant tensor:
#      x y z
#    x 3.495700 0.000000 0.000000 
#    y 0.000000 3.514870 0.000000 
#    z 0.000000 0.000000 3.040490 
# 
# 
# High freq. dielectric constant tensor:
#      x y z
#    x 1.730540 0.000000 0.000000 
#    y 0.000000 1.734990 0.000000 
#    z 0.000000 0.000000 1.686330 
# 
# From -- ./inp_files/8114.got.cif
#   From: 2010.03.12/outbox.cif.g09.slc.cpg/sg63_5_cif.got.tgz:8114.got - 2010.04.10 19:34:48.
