data_PCOD8256212
_publ_section_title
;
Structure prediction by ZEFSAII (Michael W. Deem and Ramdas Pophale) SiO2 
 PCOD8256212
Probable space group: C M C M
;
_chemical_formula_sum "Si O2"
_cell_formula_units_Z 112
_cell_length_a 9.117148
_cell_length_b 25.390662
_cell_length_c 25.457577
_cell_angle_alpha 90.000000
_cell_angle_beta 90.000000
_cell_angle_gamma 90.000000
_cell_volume 5893.185275
_symmetry_space_group_name_H-M "C M C M"
_symmetry_group_IT_number 63
_symmetry_cell_setting 'orthorhombic'
loop_
_space_group_symop_operation_xyz
x,y,z
-x,-y,1/2+z
x,-y,-z
-x,y,1/2-z
-x,-y,-z
x,y,1/2-z
-x,y,z
x,-y,1/2+z
1/2+x,1/2+y,z
1/2-x,1/2-y,1/2+z
1/2+x,1/2-y,-z
1/2-x,1/2+y,1/2-z
1/2-x,1/2-y,-z
1/2+x,1/2+y,1/2-z
1/2-x,1/2+y,z
1/2+x,1/2-y,1/2+z
loop_
_atom_site_type_symbol
_atom_site_label
_atom_site_fract_x
_atom_site_fract_y
_atom_site_fract_z
Si Si1 0.825902 0.041786 0.459419
Si Si2 0.328050 0.677477 0.892372
Si Si3 0.674508 0.342985 0.990568
Si Si4 0.674038 0.479862 0.842751
Si Si5 0.325379 0.594569 0.691363
Si Si6 0.831445 0.378685 0.808469
Si Si7 0.172119 0.295667 0.605523
O O1 0.769244 0.099356 0.474383
O O2 0.769570 0.026285 0.402110
O O3 0.000000 0.040104 0.461976
O O4 0.757934 0.000000 0.500000
O O5 0.500000 0.666615 0.894844
O O6 0.258654 0.636597 0.850240
O O7 0.293143 0.736835 0.873843
O O8 0.265156 0.668069 0.950911
O O9 0.500000 0.337074 0.987194
O O10 0.745872 0.302440 0.949759
O O11 0.500000 0.475629 0.838193
O O12 0.731477 0.535927 0.821801
O O13 0.742035 0.432848 0.809121
O O14 0.272381 0.609884 0.750000
O O15 0.500000 0.595244 0.688289
O O16 0.815185 0.354387 0.750000
O O17 0.769129 0.336498 0.850521
O O18 0.000000 0.391201 0.821399
O O19 0.000000 0.302734 0.595562
#
# Coordination Sequence:
#
# PCOD8256212 Si02
#       7
#    16  16  16  16  16  16  16
#     4   9  16  26  45  73 103 132 160 195 242 298
#     4   9  18  31  49  73 100 131 167 205 247 297
#     4  10  18  31  51  75 101 130 165 203 249 299
#     4  10  18  31  52  78 103 127 163 208 253 297
#     4   9  17  29  48  76 104 127 160 210 256 291
#     4  10  21  35  50  70  99 135 170 204 248 301
#     4  10  20  34  51  72 100 133 168 207 247 292
#
# _framework density 19.005002000000001
#
# number of rings (size 3 to 8) (size 9 to 14) (size 15 to 20)
#    0.000    2.429    1.429    1.714    0.000    4.857 
#    0.000    2.857    0.000    5.143    0.000    0.000 
#    0.000    0.000    0.000    0.000    0.000    0.000 
#
# Total GULP energy -694323.936955 kJ/mol
# GULP energy per Si atom -12398.641731 kJ/mol
# Density = 1.896175 g / cm^3
# Si number density = 19.005002 Si / 1000 Ang^3
#
#
#
# Elastic Constant Matrix: (Units=GPa)
#
#
# Indices 1 2 3 4 5 6 
#
# 1 17.9046 22.4411 20.0880 0.0000 0.0000 0.0000
# 2 22.4411 138.1377 75.2960 0.0000 0.0000 0.0000
# 3 20.0880 75.2960 152.0201 0.0000 0.0000 0.0000
# 4 0.0000 0.0000 0.0000 30.0418 0.0000 0.0000
# 5 0.0000 0.0000 0.0000 0.0000 17.4664 0.0000
# 6 0.0000 0.0000 0.0000 0.0000 0.0000 17.7173
#
#
#
# Elastic Compliance Matrix: (Units=1/GPa)
#
#
# Indices 1 2 3 4 5 6 
#
# 1 0.072978 -0.009040 -0.005166 0.000000 0.000000 0.000000
# 2 -0.009040 0.011036 -0.004272 0.000000 0.000000 0.000000
# 3 -0.005166 -0.004272 0.009376 0.000000 0.000000 0.000000
# 4 0.000000 0.000000 0.000000 0.033287 0.000000 0.000000
# 5 0.000000 0.000000 0.000000 0.000000 0.057253 0.000000
# 6 0.000000 0.000000 0.000000 0.000000 0.000000 0.056442
#
#
# Mechanical properties :
#
#
# Convention : Reuss Voigt Hill
#
# Bulk Modulus (GPa) = 17.71930 60.41251 39.06590
# Shear Modulus (GPa) = 16.88399 25.72759 21.30579
#
# Velocity S-wave (km/s) = 2.98383 3.68329 3.35186
# Velocity P-wave (km/s) = 4.60595 7.06722 5.96491
#
# Compressibility (1/GPa) = 0.05643563
#
# Stress axis : x y z
#
# Youngs Moduli (GPa) = 13.70281 90.61158 106.64969
#
# Poissons Ratio (x) = 0.81910 0.55094
# Poissons Ratio (y) = 0.12387 0.45558
# Poissons Ratio (z) = 0.07079 0.38707
#
# Static dielectric constant tensor:
#      x y z
#    x 2.911940 0.000000 0.000000 
#    y 0.000000 3.626150 0.000000 
#    z 0.000000 0.000000 3.725670 
# 
# 
# High freq. dielectric constant tensor:
#      x y z
#    x 1.676250 0.000000 0.000000 
#    y 0.000000 1.748760 0.000000 
#    z 0.000000 0.000000 1.753860 
# 
# From -- ./inp_files/61966.got.cif
#   From: 2010.03.12/outbox.cif.g09.slc.cpg/sg63_31_cif.got.tgz:61966.got - 2010.04.10 19:34:48.
