data_PCOD8256969
_publ_section_title
;
Structure prediction by ZEFSAII (Michael W. Deem and Ramdas Pophale) SiO2 
 PCOD8256969
Probable space group: C M C M
;
_chemical_formula_sum "Si O2"
_cell_formula_units_Z 96
_cell_length_a 23.115262
_cell_length_b 13.066454
_cell_length_c 18.808851
_cell_angle_alpha 90.000000
_cell_angle_beta 90.000000
_cell_angle_gamma 90.000000
_cell_volume 5680.922051
_symmetry_space_group_name_H-M "C M C M"
_symmetry_group_IT_number 63
_symmetry_cell_setting 'orthorhombic'
loop_
_space_group_symop_operation_xyz
x,y,z
-x,-y,1/2+z
x,-y,-z
-x,y,1/2-z
-x,-y,-z
x,y,1/2-z
-x,y,z
x,-y,1/2+z
1/2+x,1/2+y,z
1/2-x,1/2-y,1/2+z
1/2+x,1/2-y,-z
1/2-x,1/2+y,1/2-z
1/2-x,1/2-y,-z
1/2+x,1/2+y,1/2-z
1/2-x,1/2+y,z
1/2+x,1/2-y,1/2+z
loop_
_atom_site_type_symbol
_atom_site_label
_atom_site_fract_x
_atom_site_fract_y
_atom_site_fract_z
Si Si1 0.670544 0.654521 0.670931
Si Si2 0.285770 0.959679 0.332648
Si Si3 0.434508 0.343677 0.955185
Si Si4 0.934988 0.941316 0.106609
Si Si5 0.173867 0.289294 0.429880
Si Si6 0.285732 0.834953 0.918476
O O1 0.678258 0.699664 0.750000
O O2 0.718870 0.568959 0.655850
O O3 0.608519 0.600382 0.665699
O O4 0.675428 0.745635 0.615038
O O5 0.301825 0.973873 0.250000
O O6 0.325287 0.868930 0.364656
O O7 0.297793 0.063356 0.374568
O O8 0.500000 0.300182 0.952443
O O9 0.427878 0.436635 0.899748
O O10 0.391004 0.252993 0.935148
O O11 0.419824 0.386685 0.032674
O O12 0.000000 0.914136 0.130553
O O13 0.217945 0.195129 0.415828
O O14 0.193422 0.350109 0.500684
#
# Coordination Sequence:
#
# PCOD8256969 Si02
#       6
#    16  16  16  16  16  16
#     4  10  19  31  48  72 103 135 164 200 251 302
#     4  10  21  34  49  72 103 135 165 204 255 301
#     4   9  17  31  52  75 100 128 163 208 252 290
#     4   9  17  30  49  74 103 132 161 199 249 301
#     4  10  19  32  53  78  97 129 170 209 244 297
#     4  10  19  32  50  75 102 129 165 209 248 296
#
# _framework density 16.898665999999999
#
# number of rings (size 3 to 8) (size 9 to 14) (size 15 to 20)
#    0.000    2.333    1.667    3.000    0.000    1.000 
#    0.000    0.833    0.000    4.500    0.000    0.000 
#    0.000    0.000    0.000    0.000    0.000    0.000 
#
# Total GULP energy -595242.044464 kJ/mol
# GULP energy per Si atom -12400.875926 kJ/mol
# Density = 1.686020 g / cm^3
# Si number density = 16.898666 Si / 1000 Ang^3
#
#
#
# Elastic Constant Matrix: (Units=GPa)
#
#
# Indices 1 2 3 4 5 6 
#
# 1 98.2289 45.8668 26.1550 0.0000 0.0000 0.0000
# 2 45.8668 74.2576 34.9076 0.0000 0.0000 0.0000
# 3 26.1550 34.9076 68.2969 0.0000 0.0000 0.0000
# 4 0.0000 0.0000 0.0000 23.8254 0.0000 0.0000
# 5 0.0000 0.0000 0.0000 0.0000 20.3839 0.0000
# 6 0.0000 0.0000 0.0000 0.0000 0.0000 23.3213
#
#
#
# Elastic Compliance Matrix: (Units=1/GPa)
#
#
# Indices 1 2 3 4 5 6 
#
# 1 0.014390 -0.008290 -0.001274 0.000000 0.000000 0.000000
# 2 -0.008290 0.022501 -0.008326 0.000000 0.000000 0.000000
# 3 -0.001274 -0.008326 0.019385 0.000000 0.000000 0.000000
# 4 0.000000 0.000000 0.000000 0.041972 0.000000 0.000000
# 5 0.000000 0.000000 0.000000 0.000000 0.049058 0.000000
# 6 0.000000 0.000000 0.000000 0.000000 0.000000 0.042879
#
#
# Mechanical properties :
#
#
# Convention : Reuss Voigt Hill
#
# Bulk Modulus (GPa) = 48.78653 50.51578 49.65115
# Shear Modulus (GPa) = 21.47790 22.42971 21.95380
#
# Velocity S-wave (km/s) = 3.56895 3.64717 3.60827
# Velocity P-wave (km/s) = 6.77613 6.90609 6.84142
#
# Compressibility (1/GPa) = 0.02049746
#
# Stress axis : x y z
#
# Youngs Moduli (GPa) = 69.49158 44.44290 51.58539
#
# Poissons Ratio (x) = 0.36841 0.06572
# Poissons Ratio (y) = 0.57606 0.42950
# Poissons Ratio (z) = 0.08853 0.37003
#
# Static dielectric constant tensor:
#      x y z
#    x 3.051250 0.000000 0.000000 
#    y 0.000000 2.950220 0.000000 
#    z 0.000000 0.000000 3.122090 
# 
# 
# High freq. dielectric constant tensor:
#      x y z
#    x 1.639280 0.000000 0.000000 
#    y 0.000000 1.637280 0.000000 
#    z 0.000000 0.000000 1.650820 
# 
# From -- ./inp_files/47994.got.cif
#   From: 2010.03.12/outbox.cif.g09.slc.cpg/sg63_24_cif.got.tgz:47994.got - 2010.04.10 19:34:48.
