data_PCOD8256680
_publ_section_title
;
Structure prediction by ZEFSAII (Michael W. Deem and Ramdas Pophale) SiO2 
 PCOD8256680
Probable space group: C M C M
;
_chemical_formula_sum "Si O2"
_cell_formula_units_Z 112
_cell_length_a 20.217292
_cell_length_b 14.387532
_cell_length_c 23.769393
_cell_angle_alpha 90.000000
_cell_angle_beta 90.000000
_cell_angle_gamma 90.000000
_cell_volume 6913.968197
_symmetry_space_group_name_H-M "C M C M"
_symmetry_group_IT_number 63
_symmetry_cell_setting 'orthorhombic'
loop_
_space_group_symop_operation_xyz
x,y,z
-x,-y,1/2+z
x,-y,-z
-x,y,1/2-z
-x,-y,-z
x,y,1/2-z
-x,y,z
x,-y,1/2+z
1/2+x,1/2+y,z
1/2-x,1/2-y,1/2+z
1/2+x,1/2-y,-z
1/2-x,1/2+y,1/2-z
1/2-x,1/2-y,-z
1/2+x,1/2+y,1/2-z
1/2-x,1/2+y,z
1/2+x,1/2-y,1/2+z
loop_
_atom_site_type_symbol
_atom_site_label
_atom_site_fract_x
_atom_site_fract_y
_atom_site_fract_z
Si Si1 0.421738 0.875274 0.612057
Si Si2 0.927188 0.750344 0.683510
Si Si3 0.823923 0.732505 0.185161
Si Si4 0.869194 0.419253 0.125516
Si Si5 0.232658 0.928988 0.314587
Si Si6 0.306860 0.368562 0.816002
Si Si7 0.572637 0.892228 0.488655
O O1 0.500000 0.870945 0.620407
O O2 0.388414 0.798640 0.651434
O O3 0.402098 0.848679 0.547589
O O4 0.397019 0.977090 0.629668
O O5 0.926732 0.757387 0.750000
O O6 0.911039 0.644532 0.667488
O O7 0.872260 0.820684 0.657352
O O8 0.000000 0.777797 0.660396
O O9 0.834462 0.704952 0.250000
O O10 0.816869 0.843128 0.177814
O O11 0.759238 0.680456 0.160030
O O12 0.793038 0.417506 0.142878
O O13 0.876050 0.376462 0.062334
O O14 0.258975 0.933749 0.250000
O O15 0.192723 0.022265 0.330415
O O16 0.307831 0.349601 0.750000
O O17 0.500000 0.851807 0.471946
O O18 0.563550 0.000000 0.500000
#
# Coordination Sequence:
#
# PCOD8256680 Si02
#       7
#    16  16  16  16  16  16  16
#     4  10  20  33  49  71  99 127 158 199 241 283
#     4  10  19  29  45  72  99 120 153 201 241 278
#     4  10  19  32  49  70  98 128 158 192 235 287
#     4  11  17  28  50  74  96 124 155 196 240 292
#     4  10  19  31  49  71  97 131 162 190 232 284
#     4   9  17  31  47  65  96 132 157 183 233 288
#     4   8  16  30  45  65  96 130 156 185 238 295
#
# _framework density 16.199090000000002
#
# number of rings (size 3 to 8) (size 9 to 14) (size 15 to 20)
#    0.000    2.286    2.857    2.571    0.000    0.857 
#    0.000    1.429    0.000    2.571    0.000    0.000 
#    0.000    3.429    0.000    0.000    0.000    0.000 
#
# Total GULP energy -694147.657315 kJ/mol
# GULP energy per Si atom -12395.493881 kJ/mol
# Density = 1.616222 g / cm^3
# Si number density = 16.199090 Si / 1000 Ang^3
#
#
#
# Elastic Constant Matrix: (Units=GPa)
#
#
# Indices 1 2 3 4 5 6 
#
# 1 81.1269 29.4253 41.7773 0.0000 0.0000 0.0000
# 2 29.4253 82.7844 23.3577 0.0000 0.0000 0.0000
# 3 41.7773 23.3577 42.6197 0.0000 0.0000 0.0000
# 4 0.0000 0.0000 0.0000 10.2872 0.0000 0.0000
# 5 0.0000 0.0000 0.0000 0.0000 17.4789 0.0000
# 6 0.0000 0.0000 0.0000 0.0000 0.0000 15.9444
#
#
#
# Elastic Compliance Matrix: (Units=1/GPa)
#
#
# Indices 1 2 3 4 5 6 
#
# 1 0.025274 -0.002358 -0.023482 0.000000 0.000000 0.000000
# 2 -0.002358 0.014509 -0.005640 0.000000 0.000000 0.000000
# 3 -0.023482 -0.005640 0.049572 0.000000 0.000000 0.000000
# 4 0.000000 0.000000 0.000000 0.097209 0.000000 0.000000
# 5 0.000000 0.000000 0.000000 0.000000 0.057212 0.000000
# 6 0.000000 0.000000 0.000000 0.000000 0.000000 0.062718
#
#
# Mechanical properties :
#
#
# Convention : Reuss Voigt Hill
#
# Bulk Modulus (GPa) = 37.88639 43.96127 40.92383
# Shear Modulus (GPa) = 13.21867 16.20683 14.71275
#
# Velocity S-wave (km/s) = 2.85969 3.16646 3.01698
# Velocity P-wave (km/s) = 5.86025 6.36912 6.11998
#
# Compressibility (1/GPa) = 0.02639470
#
# Stress axis : x y z
#
# Youngs Moduli (GPa) = 39.56626 68.92213 20.17249
#
# Poissons Ratio (x) = 0.16252 0.47369
# Poissons Ratio (y) = 0.09330 0.11378
# Poissons Ratio (z) = 0.92910 0.38874
#
# Static dielectric constant tensor:
#      x y z
#    x 3.151940 0.000000 0.000000 
#    y 0.000000 3.032460 0.000000 
#    z 0.000000 0.000000 3.210150 
# 
# 
# High freq. dielectric constant tensor:
#      x y z
#    x 1.616330 0.000000 0.000000 
#    y 0.000000 1.608940 0.000000 
#    z 0.000000 0.000000 1.602100 
# 
# From -- ./inp_files/64638.got.cif
#   From: 2010.03.12/outbox.cif.g09.slc.cpg/sg63_33_cif.got.tgz:64638.got - 2010.04.10 19:34:48.
