data_PCOD8256846
_publ_section_title
;
Structure prediction by ZEFSAII (Michael W. Deem and Ramdas Pophale) SiO2 
 PCOD8256846
Probable space group: C M C M
;
_chemical_formula_sum "Si O2"
_cell_formula_units_Z 96
_cell_length_a 9.336095
_cell_length_b 23.353437
_cell_length_c 25.638853
_cell_angle_alpha 90.000000
_cell_angle_beta 90.000000
_cell_angle_gamma 90.000000
_cell_volume 5590.036720
_symmetry_space_group_name_H-M "C M C M"
_symmetry_group_IT_number 63
_symmetry_cell_setting 'orthorhombic'
loop_
_space_group_symop_operation_xyz
x,y,z
-x,-y,1/2+z
x,-y,-z
-x,y,1/2-z
-x,-y,-z
x,y,1/2-z
-x,y,z
x,-y,1/2+z
1/2+x,1/2+y,z
1/2-x,1/2-y,1/2+z
1/2+x,1/2-y,-z
1/2-x,1/2+y,1/2-z
1/2-x,1/2-y,-z
1/2+x,1/2+y,1/2-z
1/2-x,1/2+y,z
1/2+x,1/2-y,1/2+z
loop_
_atom_site_type_symbol
_atom_site_label
_atom_site_fract_x
_atom_site_fract_y
_atom_site_fract_z
Si Si1 0.835951 0.241376 0.373737
Si Si2 0.832013 0.517660 0.441606
Si Si3 0.663313 0.148073 0.423510
Si Si4 0.167334 0.918589 0.397006
Si Si5 0.334800 0.330318 0.190180
Si Si6 0.660319 0.832280 0.039365
O O1 0.761145 0.179660 0.380628
O O2 0.760319 0.276836 0.327872
O O3 0.820012 0.274234 0.428496
O O4 0.000000 0.231793 0.357699
O O5 0.785459 0.500000 0.500000
O O6 0.786767 0.582741 0.430358
O O7 0.748040 0.479224 0.399361
O O8 0.000000 0.508201 0.433814
O O9 0.500000 0.151210 0.403988
O O10 0.681322 0.180942 0.478534
O O11 0.202877 0.887627 0.342168
O O12 0.223854 0.879028 0.443800
O O13 0.000000 0.928908 0.404776
O O14 0.300471 0.344124 0.250000
O O15 0.500000 0.313336 0.181287
O O16 0.500000 0.857924 0.048588
#
# Coordination Sequence:
#
# PCOD8256846 Si02
#       6
#    16  16  16  16  16  16
#     4  10  20  31  48  75 103 127 161 211 257 294
#     4  10  19  33  50  68  99 143 179 204 238 294
#     4  10  19  31  48  67  97 141 177 199 237 296
#     4  10  19  30  49  77 102 126 165 216 257 291
#     4   9  19  37  58  76  97 128 164 204 256 313
#     4   9  17  31  47  66  98 138 170 199 240 296
#
# _framework density 17.173411000000002
#
# number of rings (size 3 to 8) (size 9 to 14) (size 15 to 20)
#    0.000    2.333    1.667    1.500    0.000    3.333 
#    0.000    0.000    0.000    1.000    0.000    4.667 
#    0.000    0.000    0.000    0.000    0.000    0.000 
#
# Total GULP energy -595216.371825 kJ/mol
# GULP energy per Si atom -12400.341080 kJ/mol
# Density = 1.713432 g / cm^3
# Si number density = 17.173411 Si / 1000 Ang^3
#
#
#
# Elastic Constant Matrix: (Units=GPa)
#
#
# Indices 1 2 3 4 5 6 
#
# 1 84.4503 57.0561 45.0372 0.0000 0.0000 0.0000
# 2 57.0561 102.5533 42.6243 0.0000 0.0000 0.0000
# 3 45.0372 42.6243 74.5915 0.0000 0.0000 0.0000
# 4 0.0000 0.0000 0.0000 17.2619 0.0000 0.0000
# 5 0.0000 0.0000 0.0000 0.0000 21.8176 0.0000
# 6 0.0000 0.0000 0.0000 0.0000 0.0000 33.9109
#
#
#
# Elastic Compliance Matrix: (Units=1/GPa)
#
#
# Indices 1 2 3 4 5 6 
#
# 1 0.022365 -0.008958 -0.008385 0.000000 0.000000 0.000000
# 2 -0.008958 0.016376 -0.003949 0.000000 0.000000 0.000000
# 3 -0.008385 -0.003949 0.020726 0.000000 0.000000 0.000000
# 4 0.000000 0.000000 0.000000 0.057931 0.000000 0.000000
# 5 0.000000 0.000000 0.000000 0.000000 0.045835 0.000000
# 6 0.000000 0.000000 0.000000 0.000000 0.000000 0.029489
#
#
# Mechanical properties :
#
#
# Convention : Reuss Voigt Hill
#
# Bulk Modulus (GPa) = 59.23130 61.22558 60.22844
# Shear Modulus (GPa) = 20.75263 22.38992 21.57127
#
# Velocity S-wave (km/s) = 3.48000 3.61467 3.54797
# Velocity P-wave (km/s) = 7.12125 7.29040 7.20632
#
# Compressibility (1/GPa) = 0.01688297
#
# Stress axis : x y z
#
# Youngs Moduli (GPa) = 44.71277 61.06390 48.24919
#
# Poissons Ratio (x) = 0.54701 0.40456
# Poissons Ratio (y) = 0.40053 0.19055
# Poissons Ratio (z) = 0.37490 0.24116
#
# Static dielectric constant tensor:
#      x y z
#    x 3.258580 0.000000 0.000000 
#    y 0.000000 3.142300 0.000000 
#    z 0.000000 0.000000 2.949040 
# 
# 
# High freq. dielectric constant tensor:
#      x y z
#    x 1.668600 0.000000 0.000000 
#    y 0.000000 1.658420 0.000000 
#    z 0.000000 0.000000 1.627800 
# 
# From -- ./inp_files/67010.got.cif
#   From: 2010.03.12/outbox.cif.g09.slc.cpg/sg63_34_cif.got.tgz:67010.got - 2010.04.10 19:34:48.
