data_PCOD8256360
_publ_section_title
;
Structure prediction by ZEFSAII (Michael W. Deem and Ramdas Pophale) SiO2 
 PCOD8256360
Probable space group: C M C M
;
_chemical_formula_sum "Si O2"
_cell_formula_units_Z 80
_cell_length_a 25.560097
_cell_length_b 19.901065
_cell_length_c 8.639486
_cell_angle_alpha 90.000000
_cell_angle_beta 90.000000
_cell_angle_gamma 90.000000
_cell_volume 4394.674574
_symmetry_space_group_name_H-M "C M C M"
_symmetry_group_IT_number 63
_symmetry_cell_setting 'orthorhombic'
loop_
_space_group_symop_operation_xyz
x,y,z
-x,-y,1/2+z
x,-y,-z
-x,y,1/2-z
-x,-y,-z
x,y,1/2-z
-x,y,z
x,-y,1/2+z
1/2+x,1/2+y,z
1/2-x,1/2-y,1/2+z
1/2+x,1/2-y,-z
1/2-x,1/2+y,1/2-z
1/2-x,1/2-y,-z
1/2+x,1/2+y,1/2-z
1/2-x,1/2+y,z
1/2+x,1/2-y,1/2+z
loop_
_atom_site_type_symbol
_atom_site_label
_atom_site_fract_x
_atom_site_fract_y
_atom_site_fract_z
Si Si1 0.500000 0.925478 0.566152
Si Si2 0.812017 0.674659 0.070038
Si Si3 0.000000 0.927362 0.931262
Si Si4 0.106658 0.573969 0.567579
Si Si5 0.612461 0.426418 0.932811
Si Si6 0.808105 0.815912 0.568320
O O1 0.500000 0.924121 0.750000
O O2 0.553595 0.892035 0.502744
O O3 0.500000 0.000000 0.500000
O O4 0.823963 0.663589 0.250000
O O5 0.751183 0.663625 0.029723
O O6 0.844632 0.621127 0.972207
O O7 0.827114 0.750007 0.022024
O O8 0.944563 0.894315 0.982372
O O9 0.000000 0.934938 0.750000
O O10 0.000000 0.000000 0.000000
O O11 0.117007 0.500000 0.500000
O O12 0.100187 0.567672 0.750000
O O13 0.616895 0.432857 0.750000
O O14 0.656445 0.376366 0.995965
O O15 0.622056 0.500000 0.000000
O O16 0.815758 0.802427 0.750000
#
# Coordination Sequence:
#
# PCOD8256360 Si02
#       6
#     8  16   8  16  16  16
#     4  10  18  32  53  78 107 136 168 206 252 304
#     4  10  20  35  53  73  99 134 173 213 259 309
#     4   8  14  26  45  68  95 126 156 192 240 290
#     4  11  21  35  55  79 106 136 171 211 256 306
#     4   9  17  30  49  73  99 127 162 203 247 298
#     4   9  19  35  52  71  99 135 173 213 259 310
#
# _framework density 18.203849999999999
#
# number of rings (size 3 to 8) (size 9 to 14) (size 15 to 20)
#    0.000    2.400    0.000    4.500    0.000    2.400 
#    0.000    3.000    0.000    2.400    0.000    0.000 
#    0.000    0.000    0.000    0.000    0.000    0.000 
#
# Total GULP energy -495731.940468 kJ/mol
# GULP energy per Si atom -12393.298512 kJ/mol
# Density = 1.816242 g / cm^3
# Si number density = 18.203850 Si / 1000 Ang^3
#
#
#
# Elastic Constant Matrix: (Units=GPa)
#
#
# Indices 1 2 3 4 5 6 
#
# 1 133.9330 80.7459 42.0308 0.0000 0.0000 0.0000
# 2 80.7459 94.9734 34.0154 0.0000 0.0000 0.0000
# 3 42.0308 34.0154 87.5725 0.0000 0.0000 0.0000
# 4 0.0000 0.0000 0.0000 28.7641 0.0000 0.0000
# 5 0.0000 0.0000 0.0000 0.0000 25.2208 0.0000
# 6 0.0000 0.0000 0.0000 0.0000 0.0000 5.0608
#
#
#
# Elastic Compliance Matrix: (Units=1/GPa)
#
#
# Indices 1 2 3 4 5 6 
#
# 1 0.015872 -0.012506 -0.002760 0.000000 0.000000 0.000000
# 2 -0.012506 0.022084 -0.002576 0.000000 0.000000 0.000000
# 3 -0.002760 -0.002576 0.013744 0.000000 0.000000 0.000000
# 4 0.000000 0.000000 0.000000 0.034766 0.000000 0.000000
# 5 0.000000 0.000000 0.000000 0.000000 0.039650 0.000000
# 6 0.000000 0.000000 0.000000 0.000000 0.000000 0.197596
#
#
# Mechanical properties :
#
#
# Convention : Reuss Voigt Hill
#
# Bulk Modulus (GPa) = 62.43427 70.00701 66.22064
# Shear Modulus (GPa) = 13.70858 22.45493 18.08176
#
# Velocity S-wave (km/s) = 2.74717 3.51597 3.15507
# Velocity P-wave (km/s) = 6.66591 7.41778 7.05187
#
# Compressibility (1/GPa) = 0.01601684
#
# Stress axis : x y z
#
# Youngs Moduli (GPa) = 63.00300 45.28111 72.75650
#
# Poissons Ratio (x) = 0.56628 0.20083
# Poissons Ratio (y) = 0.78791 0.18741
# Poissons Ratio (z) = 0.17391 0.11664
#
# Static dielectric constant tensor:
#      x y z
#    x 4.145790 0.000000 0.000000 
#    y 0.000000 3.167080 0.000000 
#    z 0.000000 0.000000 3.330840 
# 
# 
# High freq. dielectric constant tensor:
#      x y z
#    x 1.724480 0.000000 0.000000 
#    y 0.000000 1.675150 0.000000 
#    z 0.000000 0.000000 1.710410 
# 
# From -- ./inp_files/10066.got.cif
#   From: 2010.03.12/outbox.cif.g09.slc.cpg/sg63_6_cif.got.tgz:10066.got - 2010.04.10 19:34:48.
