data_PCOD8256562
_publ_section_title
;
Structure prediction by ZEFSAII (Michael W. Deem and Ramdas Pophale) SiO2 
 PCOD8256562
Probable space group: C M C M
;
_chemical_formula_sum "Si O2"
_cell_formula_units_Z 88
_cell_length_a 25.416242
_cell_length_b 5.057982
_cell_length_c 31.038324
_cell_angle_alpha 90.000000
_cell_angle_beta 90.000000
_cell_angle_gamma 90.000000
_cell_volume 3990.128469
_symmetry_space_group_name_H-M "C M C M"
_symmetry_group_IT_number 63
_symmetry_cell_setting 'orthorhombic'
loop_
_space_group_symop_operation_xyz
x,y,z
-x,-y,1/2+z
x,-y,-z
-x,y,1/2-z
-x,-y,-z
x,y,1/2-z
-x,y,z
x,-y,1/2+z
1/2+x,1/2+y,z
1/2-x,1/2-y,1/2+z
1/2+x,1/2-y,-z
1/2-x,1/2+y,1/2-z
1/2-x,1/2-y,-z
1/2+x,1/2+y,1/2-z
1/2-x,1/2+y,z
1/2+x,1/2-y,1/2+z
loop_
_atom_site_type_symbol
_atom_site_label
_atom_site_fract_x
_atom_site_fract_y
_atom_site_fract_z
Si Si1 0.217591 0.526698 0.750000
Si Si2 0.334191 0.947207 0.340268
Si Si3 0.716579 0.891968 0.072293
Si Si4 0.000000 0.785880 0.119988
Si Si5 0.111881 0.164805 0.042240
Si Si6 0.500000 0.784136 0.063617
Si Si7 0.608188 0.454947 0.365185
O O1 0.231907 0.218094 0.750000
O O2 0.185082 0.597332 0.792240
O O3 0.290250 0.871419 0.375770
O O4 0.383465 0.747904 0.346121
O O5 0.348817 0.252352 0.347410
O O6 0.755960 0.661089 0.057493
O O7 0.659331 0.874761 0.049251
O O8 0.948797 0.844979 0.148996
O O9 0.000000 0.484640 0.103666
O O10 0.000000 0.982307 0.079332
O O11 0.055100 0.317544 0.037360
O O12 0.111894 0.965118 0.082888
O O13 0.123728 0.000000 0.000000
#
# Coordination Sequence:
#
# PCOD8256562 Si02
#       7
#     8  16  16   8  16   8  16
#     4  12  24  40  66  95 120 149 194 250 306 368
#     4  11  22  40  62  88 120 155 196 245 306 364
#     4  11  22  38  58  82 117 157 196 240 294 362
#     4  10  18  36  61  87 116 157 204 241 300 363
#     4  10  22  40  61  88 122 163 211 260 310 361
#     4  10  21  38  60  88 118 152 206 270 312 346
#     4  10  21  38  61  87 121 160 199 249 300 360
#
# _framework density 22.054427
#
# number of rings (size 3 to 8) (size 9 to 14) (size 15 to 20)
#    0.000    1.455    0.000    7.909    0.000    2.182 
#    0.000   25.455    0.000    3.273    0.000    0.000 
#    0.000    0.000    0.000    0.000    0.000    0.000 
#
# Total GULP energy -545533.523542 kJ/mol
# GULP energy per Si atom -12398.489171 kJ/mol
# Density = 2.200423 g / cm^3
# Si number density = 22.054427 Si / 1000 Ang^3
#
#
#
# Elastic Constant Matrix: (Units=GPa)
#
#
# Indices 1 2 3 4 5 6 
#
# 1 123.2871 16.8785 19.2326 0.0000 0.0000 0.0000
# 2 16.8785 85.8321 9.8725 0.0000 0.0000 0.0000
# 3 19.2326 9.8725 91.2258 0.0000 0.0000 0.0000
# 4 0.0000 0.0000 0.0000 25.1762 0.0000 0.0000
# 5 0.0000 0.0000 0.0000 0.0000 16.4536 0.0000
# 6 0.0000 0.0000 0.0000 0.0000 0.0000 16.3576
#
#
#
# Elastic Compliance Matrix: (Units=1/GPa)
#
#
# Indices 1 2 3 4 5 6 
#
# 1 0.008573 -0.001497 -0.001645 0.000000 0.000000 0.000000
# 2 -0.001497 0.012059 -0.000989 0.000000 0.000000 0.000000
# 3 -0.001645 -0.000989 0.011416 0.000000 0.000000 0.000000
# 4 0.000000 0.000000 0.000000 0.039720 0.000000 0.000000
# 5 0.000000 0.000000 0.000000 0.000000 0.060777 0.000000
# 6 0.000000 0.000000 0.000000 0.000000 0.000000 0.061134
#
#
# Mechanical properties :
#
#
# Convention : Reuss Voigt Hill
#
# Bulk Modulus (GPa) = 42.04431 43.59022 42.81727
# Shear Modulus (GPa) = 23.82436 28.55489 26.18963
#
# Velocity S-wave (km/s) = 3.29029 3.60216 3.44975
# Velocity P-wave (km/s) = 5.79137 6.09168 5.94342
#
# Compressibility (1/GPa) = 0.02378443
#
# Stress axis : x y z
#
# Youngs Moduli (GPa) = 116.64925 82.92731 87.59811
#
# Poissons Ratio (x) = 0.12410 0.14413
# Poissons Ratio (y) = 0.17457 0.08668
# Poissons Ratio (z) = 0.19193 0.08206
#
# Static dielectric constant tensor:
#      x y z
#    x 4.489120 0.000000 0.000000 
#    y 0.000000 3.983540 0.000000 
#    z 0.000000 0.000000 3.636340 
# 
# 
# High freq. dielectric constant tensor:
#      x y z
#    x 1.880950 0.000000 0.000000 
#    y 0.000000 1.878780 0.000000 
#    z 0.000000 0.000000 1.825380 
# 
# From -- ./inp_files/74251.got.cif
#   From: 2010.03.12/outbox.cif.g09.slc.cpg/sg63_38_cif.got.tgz:74251.got - 2010.04.10 19:34:48.
