data_PCOD8256611
_publ_section_title
;
Structure prediction by ZEFSAII (Michael W. Deem and Ramdas Pophale) SiO2 
 PCOD8256611
Probable space group: C M C M
;
_chemical_formula_sum "Si O2"
_cell_formula_units_Z 112
_cell_length_a 29.269725
_cell_length_b 14.541440
_cell_length_c 14.855242
_cell_angle_alpha 90.000000
_cell_angle_beta 90.000000
_cell_angle_gamma 90.000000
_cell_volume 6322.746777
_symmetry_space_group_name_H-M "C M C M"
_symmetry_group_IT_number 63
_symmetry_cell_setting 'orthorhombic'
loop_
_space_group_symop_operation_xyz
x,y,z
-x,-y,1/2+z
x,-y,-z
-x,y,1/2-z
-x,-y,-z
x,y,1/2-z
-x,y,z
x,-y,1/2+z
1/2+x,1/2+y,z
1/2-x,1/2-y,1/2+z
1/2+x,1/2-y,-z
1/2-x,1/2+y,1/2-z
1/2-x,1/2-y,-z
1/2+x,1/2+y,1/2-z
1/2-x,1/2+y,z
1/2+x,1/2-y,1/2+z
loop_
_atom_site_type_symbol
_atom_site_label
_atom_site_fract_x
_atom_site_fract_y
_atom_site_fract_z
Si Si1 0.450102 0.851477 0.506074
Si Si2 0.805816 0.847484 0.154240
Si Si3 0.070029 0.507240 0.644647
Si Si4 0.762777 0.974363 0.603158
Si Si5 0.165678 0.561353 0.150696
Si Si6 0.353967 0.225434 0.019015
Si Si7 0.724829 0.736546 0.406568
O O1 0.500000 0.802267 0.509426
O O2 0.446667 0.914035 0.595771
O O3 0.408695 0.777956 0.505242
O O4 0.449170 0.907996 0.412447
O O5 0.829750 0.826988 0.250000
O O6 0.839898 0.816456 0.074828
O O7 0.755732 0.797717 0.159258
O O8 0.798652 0.957161 0.148858
O O9 0.053918 0.510042 0.750000
O O10 0.124904 0.511427 0.636501
O O11 0.712642 0.993920 0.643368
O O12 0.777022 0.869599 0.624037
O O13 0.761257 0.000000 0.500000
O O14 0.160791 0.606882 0.250000
O O15 0.164734 0.639281 0.075183
O O16 0.327543 0.228168 0.922395
O O17 0.750000 0.750000 0.500000
#
# Coordination Sequence:
#
# PCOD8256611 Si02
#       7
#    16  16  16  16  16  16  16
#     4  10  21  34  52  75 101 138 184 230 274 326
#     4  11  22  33  51  77 104 137 178 221 261 313
#     4   9  19  32  50  75 107 142 180 224 267 315
#     4  12  20  31  49  72 103 141 181 206 254 314
#     4  10  19  28  44  71 102 138 174 210 249 302
#     4  10  19  35  50  67 101 138 172 212 267 311
#     4  10  19  34  50  70  99 139 173 209 255 311
#
# _framework density 17.713819999999998
#
# number of rings (size 3 to 8) (size 9 to 14) (size 15 to 20)
#    0.000    1.714    5.714    1.714    6.000    2.286 
#    0.000    0.000    0.000    0.000    0.000    2.000 
#    0.000    0.000    0.000    0.000    0.000    0.000 
#
# Total GULP energy -693821.974137 kJ/mol
# GULP energy per Si atom -12389.678110 kJ/mol
# Density = 1.767350 g / cm^3
# Si number density = 17.713820 Si / 1000 Ang^3
#
#
#
# Elastic Constant Matrix: (Units=GPa)
#
#
# Indices 1 2 3 4 5 6 
#
# 1 129.8945 26.1756 16.3069 0.0000 0.0000 0.0000
# 2 26.1756 73.6189 6.2193 0.0000 0.0000 0.0000
# 3 16.3069 6.2193 79.6805 0.0000 0.0000 0.0000
# 4 0.0000 0.0000 0.0000 0.9214 0.0000 0.0000
# 5 0.0000 0.0000 0.0000 0.0000 8.7099 0.0000
# 6 0.0000 0.0000 0.0000 0.0000 0.0000 17.3963
#
#
#
# Elastic Compliance Matrix: (Units=1/GPa)
#
#
# Indices 1 2 3 4 5 6 
#
# 1 0.008469 -0.002884 -0.001508 0.000000 0.000000 0.000000
# 2 -0.002884 0.014656 -0.000554 0.000000 0.000000 0.000000
# 3 -0.001508 -0.000554 0.012902 0.000000 0.000000 0.000000
# 4 0.000000 0.000000 0.000000 1.085269 0.000000 0.000000
# 5 0.000000 0.000000 0.000000 0.000000 0.114812 0.000000
# 6 0.000000 0.000000 0.000000 0.000000 0.000000 0.057483
#
#
# Mechanical properties :
#
#
# Convention : Reuss Voigt Hill
#
# Bulk Modulus (GPa) = 38.26246 42.28861 40.27553
# Shear Modulus (GPa) = 3.81041 21.03835 12.42438
#
# Velocity S-wave (km/s) = 1.46825 3.45001 2.65126
# Velocity P-wave (km/s) = 4.95193 6.30834 5.67084
#
# Compressibility (1/GPa) = 0.02613528
#
# Stress axis : x y z
#
# Youngs Moduli (GPa) = 118.07754 68.23334 77.50749
#
# Poissons Ratio (x) = 0.19677 0.11689
# Poissons Ratio (y) = 0.34051 0.04292
# Poissons Ratio (z) = 0.17808 0.03778
#
# Static dielectric constant tensor:
#      x y z
#    x 3.469650 0.000000 0.000000 
#    y 0.000000 3.296980 0.000000 
#    z 0.000000 0.000000 3.220730 
# 
# 
# High freq. dielectric constant tensor:
#      x y z
#    x 1.662110 0.000000 0.000000 
#    y 0.000000 1.646870 0.000000 
#    z 0.000000 0.000000 1.692210 
# 
# From -- ./inp_files/38684.got.cif
#   From: 2010.03.12/outbox.cif.g09.slc.cpg/sg63_20_cif.got.tgz:38684.got - 2010.04.10 19:34:48.
