data_PCOD8256693
_publ_section_title
;
Structure prediction by ZEFSAII (Michael W. Deem and Ramdas Pophale) SiO2 
 PCOD8256693
Probable space group: C M C M
;
_chemical_formula_sum "Si O2"
_cell_formula_units_Z 72
_cell_length_a 15.206328
_cell_length_b 28.814294
_cell_length_c 9.686073
_cell_angle_alpha 90.000000
_cell_angle_beta 90.000000
_cell_angle_gamma 90.000000
_cell_volume 4244.045926
_symmetry_space_group_name_H-M "C M C M"
_symmetry_group_IT_number 63
_symmetry_cell_setting 'orthorhombic'
loop_
_space_group_symop_operation_xyz
x,y,z
-x,-y,1/2+z
x,-y,-z
-x,y,1/2-z
-x,-y,-z
x,y,1/2-z
-x,y,z
x,-y,1/2+z
1/2+x,1/2+y,z
1/2-x,1/2-y,1/2+z
1/2+x,1/2-y,-z
1/2-x,1/2+y,1/2-z
1/2-x,1/2-y,-z
1/2+x,1/2+y,1/2-z
1/2-x,1/2+y,z
1/2+x,1/2-y,1/2+z
loop_
_atom_site_type_symbol
_atom_site_label
_atom_site_fract_x
_atom_site_fract_y
_atom_site_fract_z
Si Si1 0.596862 0.200001 0.086382
Si Si2 0.500000 0.957155 0.596523
Si Si3 0.898022 0.194626 0.592528
Si Si4 0.761795 0.141904 0.086929
Si Si5 0.309063 0.045484 0.408032
O O1 0.592310 0.196715 0.250000
O O2 0.500000 0.185299 0.027915
O O3 0.618244 0.252735 0.042444
O O4 0.673935 0.167144 0.028903
O O5 0.500000 0.977390 0.750000
O O6 0.407165 0.930971 0.571629
O O7 0.500000 0.000000 0.500000
O O8 0.865483 0.188102 0.750000
O O9 0.846200 0.160489 0.492103
O O10 0.000000 0.181606 0.580691
O O11 0.772411 0.150895 0.250000
O O12 0.757117 0.086900 0.053785
O O13 0.295964 0.029759 0.250000
O O14 0.292132 0.000000 0.500000
#
# Coordination Sequence:
#
# PCOD8256693 Si02
#       5
#    16   8  16  16  16
#     4   8  15  28  47  71  99 128 157 188 225 278
#     4   8  14  26  42  60  86 120 152 182 216 264
#     4   9  18  33  50  68  93 127 161 192 234 285
#     4  10  19  29  48  75  96 121 159 199 235 272
#     4   9  18  30  45  67  94 124 157 191 230 274
#
# _framework density 16.964943000000002
#
# number of rings (size 3 to 8) (size 9 to 14) (size 15 to 20)
#    0.000    3.111    0.000    2.000    1.556    1.333 
#    0.000    0.000    0.000    2.667    0.000    0.000 
#    0.000    0.000    0.000    0.000    0.000    0.000 
#
# Total GULP energy -446001.456228 kJ/mol
# GULP energy per Si atom -12388.929340 kJ/mol
# Density = 1.692633 g / cm^3
# Si number density = 16.964943 Si / 1000 Ang^3
#
#
#
# Elastic Constant Matrix: (Units=GPa)
#
#
# Indices 1 2 3 4 5 6 
#
# 1 71.6147 51.7617 36.6003 0.0000 0.0000 0.0000
# 2 51.7617 93.3585 43.9867 0.0000 0.0000 0.0000
# 3 36.6003 43.9867 52.0714 0.0000 0.0000 0.0000
# 4 0.0000 0.0000 0.0000 24.2324 0.0000 0.0000
# 5 0.0000 0.0000 0.0000 0.0000 26.3795 0.0000
# 6 0.0000 0.0000 0.0000 0.0000 0.0000 23.7576
#
#
#
# Elastic Compliance Matrix: (Units=1/GPa)
#
#
# Indices 1 2 3 4 5 6 
#
# 1 0.026207 -0.009720 -0.010210 0.000000 0.000000 0.000000
# 2 -0.009720 0.021398 -0.011244 0.000000 0.000000 0.000000
# 3 -0.010210 -0.011244 0.035879 0.000000 0.000000 0.000000
# 4 0.000000 0.000000 0.000000 0.041267 0.000000 0.000000
# 5 0.000000 0.000000 0.000000 0.000000 0.037908 0.000000
# 6 0.000000 0.000000 0.000000 0.000000 0.000000 0.042092
#
#
# Mechanical properties :
#
#
# Convention : Reuss Voigt Hill
#
# Bulk Modulus (GPa) = 47.31058 53.52689 50.41873
# Shear Modulus (GPa) = 18.23865 20.52029 19.37947
#
# Velocity S-wave (km/s) = 3.28240 3.48166 3.38350
# Velocity P-wave (km/s) = 6.50487 6.91249 6.71178
#
# Compressibility (1/GPa) = 0.02113692
#
# Stress axis : x y z
#
# Youngs Moduli (GPa) = 38.15823 46.73329 27.87149
#
# Poissons Ratio (x) = 0.45423 0.28456
# Poissons Ratio (y) = 0.37088 0.31339
# Poissons Ratio (z) = 0.38959 0.52547
#
# Static dielectric constant tensor:
#      x y z
#    x 2.700770 0.000000 0.000000 
#    y 0.000000 2.885930 0.000000 
#    z 0.000000 0.000000 2.930580 
# 
# 
# High freq. dielectric constant tensor:
#      x y z
#    x 1.647230 0.000000 0.000000 
#    y 0.000000 1.642700 0.000000 
#    z 0.000000 0.000000 1.629380 
# 
# From -- ./inp_files/4899.got.cif
#   From: 2010.03.12/outbox.cif.g09.slc.cpg/sg63_3_cif.got.tgz:4899.got - 2010.04.10 19:34:48.
