data_PCOD8256717
_publ_section_title
;
Structure prediction by ZEFSAII (Michael W. Deem and Ramdas Pophale) SiO2 
 PCOD8256717
Probable space group: C M C M
;
_chemical_formula_sum "Si O2"
_cell_formula_units_Z 96
_cell_length_a 24.604065
_cell_length_b 25.067970
_cell_length_c 9.028887
_cell_angle_alpha 90.000000
_cell_angle_beta 90.000000
_cell_angle_gamma 90.000000
_cell_volume 5568.782419
_symmetry_space_group_name_H-M "C M C M"
_symmetry_group_IT_number 63
_symmetry_cell_setting 'orthorhombic'
loop_
_space_group_symop_operation_xyz
x,y,z
-x,-y,1/2+z
x,-y,-z
-x,y,1/2-z
-x,-y,-z
x,y,1/2-z
-x,y,z
x,-y,1/2+z
1/2+x,1/2+y,z
1/2-x,1/2-y,1/2+z
1/2+x,1/2-y,-z
1/2-x,1/2+y,1/2-z
1/2-x,1/2-y,-z
1/2+x,1/2+y,1/2-z
1/2-x,1/2+y,z
1/2+x,1/2-y,1/2+z
loop_
_atom_site_type_symbol
_atom_site_label
_atom_site_fract_x
_atom_site_fract_y
_atom_site_fract_z
Si Si1 0.166715 0.239746 0.423306
Si Si2 0.729929 0.169303 0.075466
Si Si3 0.603248 0.048748 0.412574
Si Si4 0.939377 0.644115 0.917256
Si Si5 0.439743 0.744892 0.575838
Si Si6 0.228499 0.450393 0.588745
O O1 0.158898 0.248048 0.250000
O O2 0.212681 0.196721 0.460121
O O3 0.182298 0.297430 0.493578
O O4 0.110512 0.216061 0.492577
O O5 0.715977 0.169136 0.250000
O O6 0.734207 0.108504 0.014013
O O7 0.575785 0.055872 0.250000
O O8 0.600327 0.101464 0.510697
O O9 0.665889 0.035282 0.389873
O O10 0.574608 0.000000 0.500000
O O11 0.920214 0.658223 0.750000
O O12 0.000000 0.620032 0.914628
O O13 0.937814 0.694981 0.020874
O O14 0.429408 0.742459 0.750000
O O15 0.500000 0.720576 0.537670
O O16 0.256000 0.500000 0.500000
O O17 0.257092 0.448495 0.750000
#
# Coordination Sequence:
#
# PCOD8256717 Si02
#       6
#    16  16  16  16  16  16
#     4  10  19  30  48  72  96 124 156 191 230 274
#     4   9  18  32  48  69  98 127 154 188 232 278
#     4  10  19  30  44  60  80 109 144 183 225 266
#     4  10  20  32  45  61  80 104 140 186 230 271
#     4  10  20  33  48  65  88 119 151 184 225 273
#     4   9  18  31  46  64  87 115 147 182 219 263
#
# _framework density 17.238956000000002
#
# number of rings (size 3 to 8) (size 9 to 14) (size 15 to 20)
#    0.000    2.333    0.000    3.000    0.000    5.667 
#    0.000    0.000    0.000    0.000    0.000    0.000 
#    0.000    0.667    0.000    1.500    0.000    2.667 
#
# Total GULP energy -594832.983308 kJ/mol
# GULP energy per Si atom -12392.353819 kJ/mol
# Density = 1.719972 g / cm^3
# Si number density = 17.238956 Si / 1000 Ang^3
#
#
#
# Elastic Constant Matrix: (Units=GPa)
#
#
# Indices 1 2 3 4 5 6 
#
# 1 71.5967 8.3357 36.2891 0.0000 0.0000 0.0000
# 2 8.3357 67.3285 22.5957 0.0000 0.0000 0.0000
# 3 36.2891 22.5957 72.8181 0.0000 0.0000 0.0000
# 4 0.0000 0.0000 0.0000 24.0303 0.0000 0.0000
# 5 0.0000 0.0000 0.0000 0.0000 22.7632 0.0000
# 6 0.0000 0.0000 0.0000 0.0000 0.0000 14.0420
#
#
#
# Elastic Compliance Matrix: (Units=1/GPa)
#
#
# Indices 1 2 3 4 5 6 
#
# 1 0.018737 0.000909 -0.009620 0.000000 0.000000 0.000000
# 2 0.000909 0.016623 -0.005611 0.000000 0.000000 0.000000
# 3 -0.009620 -0.005611 0.020268 0.000000 0.000000 0.000000
# 4 0.000000 0.000000 0.000000 0.041614 0.000000 0.000000
# 5 0.000000 0.000000 0.000000 0.000000 0.043931 0.000000
# 6 0.000000 0.000000 0.000000 0.000000 0.000000 0.071215
#
#
# Mechanical properties :
#
#
# Convention : Reuss Voigt Hill
#
# Bulk Modulus (GPa) = 37.05888 38.46492 37.76190
# Shear Modulus (GPa) = 19.99786 21.80194 20.89990
#
# Velocity S-wave (km/s) = 3.40963 3.56011 3.48568
# Velocity P-wave (km/s) = 6.08643 6.26581 6.17677
#
# Compressibility (1/GPa) = 0.02698409
#
# Stress axis : x y z
#
# Youngs Moduli (GPa) = 53.37011 60.15709 49.33902
#
# Poissons Ratio (x) = -0.05466 0.47462
# Poissons Ratio (y) = -0.04849 0.27684
# Poissons Ratio (z) = 0.51340 0.33754
#
# Static dielectric constant tensor:
#      x y z
#    x 3.356390 0.000000 0.000000 
#    y 0.000000 3.026980 0.000000 
#    z 0.000000 0.000000 3.512050 
# 
# 
# High freq. dielectric constant tensor:
#      x y z
#    x 1.642510 0.000000 0.000000 
#    y 0.000000 1.632810 0.000000 
#    z 0.000000 0.000000 1.679000 
# 
# From -- ./inp_files/10695.got.cif
#   From: 2010.03.12/outbox.cif.g09.slc.cpg/sg63_6_cif.got.tgz:10695.got - 2010.04.10 19:34:48.
