data_PCOD8256484
_publ_section_title
;
Structure prediction by ZEFSAII (Michael W. Deem and Ramdas Pophale) SiO2 
 PCOD8256484
Probable space group: C M C M
;
_chemical_formula_sum "Si O2"
_cell_formula_units_Z 80
_cell_length_a 18.416929
_cell_length_b 8.888459
_cell_length_c 27.024787
_cell_angle_alpha 90.000000
_cell_angle_beta 90.000000
_cell_angle_gamma 90.000000
_cell_volume 4423.906780
_symmetry_space_group_name_H-M "C M C M"
_symmetry_group_IT_number 63
_symmetry_cell_setting 'orthorhombic'
loop_
_space_group_symop_operation_xyz
x,y,z
-x,-y,1/2+z
x,-y,-z
-x,y,1/2-z
-x,-y,-z
x,y,1/2-z
-x,y,z
x,-y,1/2+z
1/2+x,1/2+y,z
1/2-x,1/2-y,1/2+z
1/2+x,1/2-y,-z
1/2-x,1/2+y,1/2-z
1/2-x,1/2-y,-z
1/2+x,1/2+y,1/2-z
1/2-x,1/2+y,z
1/2+x,1/2-y,1/2+z
loop_
_atom_site_type_symbol
_atom_site_label
_atom_site_fract_x
_atom_site_fract_y
_atom_site_fract_z
Si Si1 0.083868 0.377587 0.647083
Si Si2 0.691326 0.628518 0.629514
Si Si3 0.322444 0.881226 0.193729
Si Si4 0.176828 0.801948 0.897301
Si Si5 0.083380 0.574002 0.550323
O O1 0.126652 0.472254 0.688577
O O2 0.094804 0.454816 0.594016
O O3 0.000000 0.365027 0.662258
O O4 0.117296 0.210121 0.645627
O O5 0.739781 0.576407 0.677114
O O6 0.739926 0.743735 0.596485
O O7 0.671674 0.481341 0.597435
O O8 0.323321 0.824534 0.250000
O O9 0.352293 0.749254 0.157449
O O10 0.127738 0.726725 0.939613
O O11 0.112888 0.500000 0.500000
O O12 0.000000 0.621498 0.544451
#
# Coordination Sequence:
#
# PCOD8256484 Si02
#       5
#    16  16  16  16  16
#     4  10  20  35  56  80 110 142 176 225 270 314
#     4  10  18  34  52  78 112 136 182 217 266 321
#     4   9  18  34  55  77 104 142 179 213 261 322
#     4   9  18  32  52  75 107 138 179 220 261 315
#     4   9  18  35  56  77 105 144 183 219 270 326
#
# _framework density 18.083563999999999
#
# number of rings (size 3 to 8) (size 9 to 14) (size 15 to 20)
#    1.200    1.400    2.000    0.000    0.000    4.400 
#    0.000    5.000    0.000    3.600    0.000    2.800 
#    0.000    0.000    0.000    0.000    0.000    0.000 
#
# Total GULP energy -495759.292157 kJ/mol
# GULP energy per Si atom -12393.982304 kJ/mol
# Density = 1.804241 g / cm^3
# Si number density = 18.083564 Si / 1000 Ang^3
#
#
#
# Elastic Constant Matrix: (Units=GPa)
#
#
# Indices 1 2 3 4 5 6 
#
# 1 95.4069 35.6875 6.8856 0.0000 0.0000 0.0000
# 2 35.6875 94.2260 -13.4498 0.0000 0.0000 0.0000
# 3 6.8856 -13.4498 47.4197 0.0000 0.0000 0.0000
# 4 0.0000 0.0000 0.0000 12.6651 0.0000 0.0000
# 5 0.0000 0.0000 0.0000 0.0000 16.2886 0.0000
# 6 0.0000 0.0000 0.0000 0.0000 0.0000 33.1691
#
#
#
# Elastic Compliance Matrix: (Units=1/GPa)
#
#
# Indices 1 2 3 4 5 6 
#
# 1 0.012701 -0.005288 -0.003344 0.000000 0.000000 0.000000
# 2 -0.005288 0.013262 0.004529 0.000000 0.000000 0.000000
# 3 -0.003344 0.004529 0.022858 0.000000 0.000000 0.000000
# 4 0.000000 0.000000 0.000000 0.078957 0.000000 0.000000
# 5 0.000000 0.000000 0.000000 0.000000 0.061393 0.000000
# 6 0.000000 0.000000 0.000000 0.000000 0.000000 0.030149
#
#
# Mechanical properties :
#
#
# Convention : Reuss Voigt Hill
#
# Bulk Modulus (GPa) = 24.62048 32.81102 28.71575
# Shear Modulus (GPa) = 20.74152 26.28653 23.51402
#
# Velocity S-wave (km/s) = 3.39039 3.81677 3.60988
# Velocity P-wave (km/s) = 5.38244 6.13246 5.76965
#
# Compressibility (1/GPa) = 0.04061659
#
# Stress axis : x y z
#
# Youngs Moduli (GPa) = 78.73638 75.40383 43.74745
#
# Poissons Ratio (x) = 0.39870 0.14629
# Poissons Ratio (y) = 0.41633 -0.19815
# Poissons Ratio (z) = 0.26329 -0.34153
#
# Static dielectric constant tensor:
#      x y z
#    x 3.296530 0.000000 0.000000 
#    y 0.000000 3.103650 0.000000 
#    z 0.000000 0.000000 3.043110 
# 
# 
# High freq. dielectric constant tensor:
#      x y z
#    x 1.692710 0.000000 0.000000 
#    y 0.000000 1.688860 0.000000 
#    z 0.000000 0.000000 1.670900 
# 
# From -- ./inp_files/69765.got.cif
#   From: 2010.03.12/outbox.cif.g09.slc.cpg/sg63_35_cif.got.tgz:69765.got - 2010.04.10 19:34:48.
