data_PCOD8256281
_publ_section_title
;
Structure prediction by ZEFSAII (Michael W. Deem and Ramdas Pophale) SiO2 
 PCOD8256281
Probable space group: C M C M
;
_chemical_formula_sum "Si O2"
_cell_formula_units_Z 64
_cell_length_a 8.581157
_cell_length_b 15.076805
_cell_length_c 24.689196
_cell_angle_alpha 90.000000
_cell_angle_beta 90.000000
_cell_angle_gamma 90.000000
_cell_volume 3194.200057
_symmetry_space_group_name_H-M "C M C M"
_symmetry_group_IT_number 63
_symmetry_cell_setting 'orthorhombic'
loop_
_space_group_symop_operation_xyz
x,y,z
-x,-y,1/2+z
x,-y,-z
-x,y,1/2-z
-x,-y,-z
x,y,1/2-z
-x,y,z
x,-y,1/2+z
1/2+x,1/2+y,z
1/2-x,1/2-y,1/2+z
1/2+x,1/2-y,-z
1/2-x,1/2+y,1/2-z
1/2-x,1/2-y,-z
1/2+x,1/2+y,1/2-z
1/2-x,1/2+y,z
1/2+x,1/2-y,1/2+z
loop_
_atom_site_type_symbol
_atom_site_label
_atom_site_fract_x
_atom_site_fract_y
_atom_site_fract_z
Si Si1 0.185334 0.252876 0.940153
Si Si2 0.820493 0.097651 0.633217
Si Si3 0.822116 0.079152 0.750000
Si Si4 0.815155 0.896652 0.862712
Si Si5 0.820116 0.394179 0.750000
O O1 0.256962 0.167543 0.908046
O O2 0.242742 0.342007 0.911745
O O3 0.000000 0.251791 0.940606
O O4 0.250000 0.250000 0.000000
O O5 0.797233 0.135292 0.694946
O O6 0.000000 0.092325 0.617748
O O7 0.752637 0.997846 0.629278
O O8 0.000000 0.039280 0.750000
O O9 0.699564 0.999776 0.750000
O O10 0.758651 0.856778 0.804972
O O11 0.000000 0.891947 0.864984
O O12 0.000000 0.366504 0.750000
#
# Coordination Sequence:
#
# PCOD8256281 Si02
#       5
#    16  16   8  16   8
#     4  11  23  39  56  80 110 147 192 237 278 328
#     4   8  17  34  58  81 108 144 181 218 274 341
#     4   8  14  31  56  81 106 140 180 219 263 327
#     4  10  20  38  60  83 110 145 183 226 274 328
#     4  10  18  31  54  87 118 144 174 217 271 333
#
# _framework density 20.036314999999998
#
# number of rings (size 3 to 8) (size 9 to 14) (size 15 to 20)
#    0.000    2.500    0.000    4.125    0.000    2.000 
#    0.000   20.000    0.000    0.000    0.000    0.000 
#    0.000    0.000    0.000    0.000    0.000    0.000 
#
# Total GULP energy -396551.316595 kJ/mol
# GULP energy per Si atom -12392.228644 kJ/mol
# Density = 1.999071 g / cm^3
# Si number density = 20.036315 Si / 1000 Ang^3
#
#
#
# Elastic Constant Matrix: (Units=GPa)
#
#
# Indices 1 2 3 4 5 6 
#
# 1 73.7732 27.5626 42.7759 0.0000 0.0000 0.0000
# 2 27.5626 103.6494 85.2758 0.0000 0.0000 0.0000
# 3 42.7759 85.2758 202.0597 0.0000 0.0000 0.0000
# 4 0.0000 0.0000 0.0000 37.7609 0.0000 0.0000
# 5 0.0000 0.0000 0.0000 0.0000 35.2650 0.0000
# 6 0.0000 0.0000 0.0000 0.0000 0.0000 21.8500
#
#
#
# Elastic Compliance Matrix: (Units=1/GPa)
#
#
# Indices 1 2 3 4 5 6 
#
# 1 0.015778 -0.002218 -0.002404 0.000000 0.000000 0.000000
# 2 -0.002218 0.015091 -0.005900 0.000000 0.000000 0.000000
# 3 -0.002404 -0.005900 0.007948 0.000000 0.000000 0.000000
# 4 0.000000 0.000000 0.000000 0.026482 0.000000 0.000000
# 5 0.000000 0.000000 0.000000 0.000000 0.028357 0.000000
# 6 0.000000 0.000000 0.000000 0.000000 0.000000 0.045767
#
#
# Mechanical properties :
#
#
# Convention : Reuss Voigt Hill
#
# Bulk Modulus (GPa) = 56.26184 76.74567 66.50376
# Shear Modulus (GPa) = 30.04986 33.89971 31.97478
#
# Velocity S-wave (km/s) = 3.87689 4.11775 3.99913
# Velocity P-wave (km/s) = 6.94127 7.80988 7.38835
#
# Compressibility (1/GPa) = 0.01777404
#
# Stress axis : x y z
#
# Youngs Moduli (GPa) = 63.38101 66.26281 125.82050
#
# Poissons Ratio (x) = 0.14694 0.30250
# Poissons Ratio (y) = 0.14055 0.74229
# Poissons Ratio (z) = 0.15238 0.39092
#
# Static dielectric constant tensor:
#      x y z
#    x 3.385790 0.000000 0.000000 
#    y 0.000000 3.672100 0.000000 
#    z 0.000000 0.000000 4.048000 
# 
# 
# High freq. dielectric constant tensor:
#      x y z
#    x 1.759560 0.000000 0.000000 
#    y 0.000000 1.766320 0.000000 
#    z 0.000000 0.000000 1.793650 
# 
# From -- ./inp_files/59096.got.cif
#   From: 2010.03.12/outbox.cif.g09.slc.cpg/sg63_30_cif.got.tgz:59096.got - 2010.04.10 19:34:48.
