data_PCOD8256321
_publ_section_title
;
Structure prediction by ZEFSAII (Michael W. Deem and Ramdas Pophale) SiO2 
 PCOD8256321
Probable space group: C M C M
;
_chemical_formula_sum "Si O2"
_cell_formula_units_Z 104
_cell_length_a 22.342092
_cell_length_b 27.873262
_cell_length_c 8.472433
_cell_angle_alpha 90.000000
_cell_angle_beta 90.000000
_cell_angle_gamma 90.000000
_cell_volume 5276.182097
_symmetry_space_group_name_H-M "C M C M"
_symmetry_group_IT_number 63
_symmetry_cell_setting 'orthorhombic'
loop_
_space_group_symop_operation_xyz
x,y,z
-x,-y,1/2+z
x,-y,-z
-x,y,1/2-z
-x,-y,-z
x,y,1/2-z
-x,y,z
x,-y,1/2+z
1/2+x,1/2+y,z
1/2-x,1/2-y,1/2+z
1/2+x,1/2-y,-z
1/2-x,1/2+y,1/2-z
1/2-x,1/2-y,-z
1/2+x,1/2+y,1/2-z
1/2-x,1/2+y,z
1/2+x,1/2-y,1/2+z
loop_
_atom_site_type_symbol
_atom_site_label
_atom_site_fract_x
_atom_site_fract_y
_atom_site_fract_z
Si Si1 0.000000 0.054154 0.561583
Si Si2 0.932399 0.641841 0.936603
Si Si3 0.772288 0.905824 0.068063
Si Si4 0.658063 0.781069 0.565576
Si Si5 0.617317 0.550264 0.435986
Si Si6 0.353810 0.053187 0.936902
Si Si7 0.290080 0.693018 0.432808
O O1 0.059255 0.081932 0.489485
O O2 0.000000 0.057016 0.750000
O O3 0.000000 0.000000 0.500000
O O4 0.934063 0.640634 0.750000
O O5 0.902934 0.591878 0.997759
O O6 0.000000 0.645598 0.005215
O O7 0.894566 0.688593 0.985344
O O8 0.764541 0.890830 0.250000
O O9 0.710010 0.927034 0.000887
O O10 0.823162 0.944435 0.041156
O O11 0.799993 0.862566 0.965432
O O12 0.650616 0.788676 0.750000
O O13 0.658414 0.724483 0.520582
O O14 0.722821 0.798071 0.501420
O O15 0.594627 0.500000 0.500000
O O16 0.630635 0.554183 0.250000
O O17 0.353097 0.049667 0.750000
O O18 0.368351 0.000000 0.000000
O O19 0.294638 0.705458 0.250000
#
# Coordination Sequence:
#
# PCOD8256321 Si02
#       7
#     8  16  16  16  16  16  16
#     4  10  18  32  52  74 100 136 182 226 270 320
#     4  10  21  39  61  84 114 156 202 247 299 357
#     4  11  21  35  55  82 115 151 191 237 291 348
#     4  10  20  35  58  87 115 143 181 230 282 340
#     4  11  21  34  52  77 108 144 187 230 279 337
#     4  10  22  37  55  81 116 156 198 248 299 350
#     4  10  20  34  57  86 114 145 179 224 281 344
#
# _framework density 19.711223
#
# number of rings (size 3 to 8) (size 9 to 14) (size 15 to 20)
#    0.000    1.692    1.538    4.846    0.000    4.923 
#    0.000    0.000    1.692    0.000    0.000    0.000 
#    0.000    0.000    0.000    0.000    0.000    0.000 
#
# Total GULP energy -644271.504253 kJ/mol
# GULP energy per Si atom -12389.836620 kJ/mol
# Density = 1.966636 g / cm^3
# Si number density = 19.711223 Si / 1000 Ang^3
#
#
#
# Elastic Constant Matrix: (Units=GPa)
#
#
# Indices 1 2 3 4 5 6 
#
# 1 156.3438 54.5669 25.8947 0.0000 0.0000 0.0000
# 2 54.5669 99.1360 12.3886 0.0000 0.0000 0.0000
# 3 25.8947 12.3886 53.7582 0.0000 0.0000 0.0000
# 4 0.0000 0.0000 0.0000 32.7611 0.0000 0.0000
# 5 0.0000 0.0000 0.0000 0.0000 25.9531 0.0000
# 6 0.0000 0.0000 0.0000 0.0000 0.0000 37.2222
#
#
#
# Elastic Compliance Matrix: (Units=1/GPa)
#
#
# Indices 1 2 3 4 5 6 
#
# 1 0.008379 -0.004230 -0.003062 0.000000 0.000000 0.000000
# 2 -0.004230 0.012521 -0.000848 0.000000 0.000000 0.000000
# 3 -0.003062 -0.000848 0.020272 0.000000 0.000000 0.000000
# 4 0.000000 0.000000 0.000000 0.030524 0.000000 0.000000
# 5 0.000000 0.000000 0.000000 0.000000 0.038531 0.000000
# 6 0.000000 0.000000 0.000000 0.000000 0.000000 0.026866
#
#
# Mechanical properties :
#
#
# Convention : Reuss Voigt Hill
#
# Bulk Modulus (GPa) = 40.17039 54.99314 47.58177
# Shear Modulus (GPa) = 30.92716 33.61314 32.27015
#
# Velocity S-wave (km/s) = 3.96537 4.13398 4.05056
# Velocity P-wave (km/s) = 6.43345 7.12365 6.78733
#
# Compressibility (1/GPa) = 0.02489396
#
# Stress axis : x y z
#
# Youngs Moduli (GPa) = 119.33929 79.86415 49.32911
#
# Poissons Ratio (x) = 0.33780 0.15102
# Poissons Ratio (y) = 0.50477 0.04184
# Poissons Ratio (z) = 0.36536 0.06774
#
# Static dielectric constant tensor:
#      x y z
#    x 3.938580 0.000000 0.000000 
#    y 0.000000 3.595520 0.000000 
#    z 0.000000 0.000000 3.395530 
# 
# 
# High freq. dielectric constant tensor:
#      x y z
#    x 1.772100 0.000000 0.000000 
#    y 0.000000 1.750460 0.000000 
#    z 0.000000 0.000000 1.764880 
# 
# From -- ./inp_files/9114.got.cif
#   From: 2010.03.12/outbox.cif.g09.slc.cpg/sg63_5_cif.got.tgz:9114.got - 2010.04.10 19:34:48.
