data_PCOD8256137
_publ_section_title
;
Structure prediction by ZEFSAII (Michael W. Deem and Ramdas Pophale) SiO2 
 PCOD8256137
Probable space group: C M C M
;
_chemical_formula_sum "Si O2"
_cell_formula_units_Z 128
_cell_length_a 15.734171
_cell_length_b 18.813379
_cell_length_c 23.144955
_cell_angle_alpha 90.000000
_cell_angle_beta 90.000000
_cell_angle_gamma 90.000000
_cell_volume 6851.205765
_symmetry_space_group_name_H-M "C M C M"
_symmetry_group_IT_number 63
_symmetry_cell_setting 'orthorhombic'
loop_
_space_group_symop_operation_xyz
x,y,z
-x,-y,1/2+z
x,-y,-z
-x,y,1/2-z
-x,-y,-z
x,y,1/2-z
-x,y,z
x,-y,1/2+z
1/2+x,1/2+y,z
1/2-x,1/2-y,1/2+z
1/2+x,1/2-y,-z
1/2-x,1/2+y,1/2-z
1/2-x,1/2-y,-z
1/2+x,1/2+y,1/2-z
1/2-x,1/2+y,z
1/2+x,1/2-y,1/2+z
loop_
_atom_site_type_symbol
_atom_site_label
_atom_site_fract_x
_atom_site_fract_y
_atom_site_fract_z
Si Si1 0.408636 0.053714 0.135876
Si Si2 0.599652 0.542588 0.682320
Si Si3 0.228127 0.082574 0.316236
Si Si4 0.158534 0.552323 0.950977
Si Si5 0.304625 0.359865 0.401996
Si Si6 0.277410 0.291276 0.903278
Si Si7 0.591109 0.306183 0.996466
Si Si8 0.881301 0.339468 0.540323
O O1 0.500000 0.047078 0.169745
O O2 0.325114 0.054005 0.176143
O O3 0.415019 0.126211 0.099192
O O4 0.405091 0.989097 0.090801
O O5 0.612321 0.558420 0.750000
O O6 0.500000 0.527547 0.668312
O O7 0.657891 0.475185 0.663273
O O8 0.631598 0.612541 0.647920
O O9 0.213311 0.100600 0.250000
O O10 0.213323 0.156441 0.349152
O O11 0.231749 0.582215 0.910039
O O12 0.197890 0.500000 0.000000
O O13 0.104666 0.613060 0.983342
O O14 0.262479 0.284301 0.383538
O O15 0.353233 0.357139 0.463180
O O16 0.367506 0.284259 0.935176
O O17 0.219560 0.326571 0.953064
O O18 0.500000 0.342869 0.983952
O O19 0.571618 0.234509 0.032168
#
# Coordination Sequence:
#
# PCOD8256137 Si02
#       8
#    16  16  16  16  16  16  16  16
#     4  10  20  32  53  83 110 142 183 226 273 332
#     4  10  22  40  62  85 109 146 198 246 288 339
#     4  10  22  40  60  79 105 147 189 238 293 340
#     4  10  18  30  52  78 113 149 182 221 270 334
#     4  11  19  36  56  82 115 153 185 234 288 335
#     4  10  20  35  55  78 113 148 189 230 284 343
#     4  11  20  30  51  82 113 147 184 223 278 337
#     4   9  17  33  49  72 114 150 177 213 265 329
#
# _framework density 18.682842999999998
#
# number of rings (size 3 to 8) (size 9 to 14) (size 15 to 20)
#    0.000    1.875    3.750    1.500    0.000    4.000 
#    0.000    0.625    0.000    2.250    0.000    0.000 
#    0.000    0.000    0.000    0.000    0.000    0.000 
#
# Total GULP energy -793088.073531 kJ/mol
# GULP energy per Si atom -12392.001149 kJ/mol
# Density = 1.864032 g / cm^3
# Si number density = 18.682843 Si / 1000 Ang^3
#
#
#
# Elastic Constant Matrix: (Units=GPa)
#
#
# Indices 1 2 3 4 5 6 
#
# 1 128.8803 41.5201 34.5653 0.0000 0.0000 0.0000
# 2 41.5201 86.9582 33.0040 0.0000 0.0000 0.0000
# 3 34.5653 33.0040 64.1470 0.0000 0.0000 0.0000
# 4 0.0000 0.0000 0.0000 25.8831 0.0000 0.0000
# 5 0.0000 0.0000 0.0000 0.0000 11.7865 0.0000
# 6 0.0000 0.0000 0.0000 0.0000 0.0000 5.1375
#
#
#
# Elastic Compliance Matrix: (Units=1/GPa)
#
#
# Indices 1 2 3 4 5 6 
#
# 1 0.009784 -0.003319 -0.003565 0.000000 0.000000 0.000000
# 2 -0.003319 0.015416 -0.006143 0.000000 0.000000 0.000000
# 3 -0.003565 -0.006143 0.020671 0.000000 0.000000 0.000000
# 4 0.000000 0.000000 0.000000 0.038635 0.000000 0.000000
# 5 0.000000 0.000000 0.000000 0.000000 0.084843 0.000000
# 6 0.000000 0.000000 0.000000 0.000000 0.000000 0.194648
#
#
# Mechanical properties :
#
#
# Convention : Reuss Voigt Hill
#
# Bulk Modulus (GPa) = 50.46039 55.35159 52.90599
# Shear Modulus (GPa) = 12.60536 19.95450 16.27993
#
# Velocity S-wave (km/s) = 2.60032 3.27167 2.95512
# Velocity P-wave (km/s) = 6.00692 6.63047 6.32638
#
# Compressibility (1/GPa) = 0.01981752
#
# Stress axis : x y z
#
# Youngs Moduli (GPa) = 102.20383 64.86755 48.37743
#
# Poissons Ratio (x) = 0.21528 0.17245
# Poissons Ratio (y) = 0.33919 0.29720
# Poissons Ratio (z) = 0.36433 0.39850
#
# Static dielectric constant tensor:
#      x y z
#    x 3.541300 0.000000 0.000000 
#    y 0.000000 3.472140 0.000000 
#    z 0.000000 0.000000 3.158410 
# 
# 
# High freq. dielectric constant tensor:
#      x y z
#    x 1.732860 0.000000 0.000000 
#    y 0.000000 1.723350 0.000000 
#    z 0.000000 0.000000 1.697480 
# 
# From -- ./inp_files/64092.got.cif
#   From: 2010.03.12/outbox.cif.g09.slc.cpg/sg63_33_cif.got.tgz:64092.got - 2010.04.10 19:34:48.
