data_PCOD8256050
_publ_section_title
;
Structure prediction by ZEFSAII (Michael W. Deem and Ramdas Pophale) SiO2 
 PCOD8256050
Probable space group: C M C M
;
_chemical_formula_sum "Si O2"
_cell_formula_units_Z 96
_cell_length_a 9.003124
_cell_length_b 26.940410
_cell_length_c 22.712383
_cell_angle_alpha 90.000000
_cell_angle_beta 90.000000
_cell_angle_gamma 90.000000
_cell_volume 5508.839707
_symmetry_space_group_name_H-M "C M C M"
_symmetry_group_IT_number 63
_symmetry_cell_setting 'orthorhombic'
loop_
_space_group_symop_operation_xyz
x,y,z
-x,-y,1/2+z
x,-y,-z
-x,y,1/2-z
-x,-y,-z
x,y,1/2-z
-x,y,z
x,-y,1/2+z
1/2+x,1/2+y,z
1/2-x,1/2-y,1/2+z
1/2+x,1/2-y,-z
1/2-x,1/2+y,1/2-z
1/2-x,1/2-y,-z
1/2+x,1/2+y,1/2-z
1/2-x,1/2+y,z
1/2+x,1/2-y,1/2+z
loop_
_atom_site_type_symbol
_atom_site_label
_atom_site_fract_x
_atom_site_fract_y
_atom_site_fract_z
Si Si1 0.176914 0.513614 0.750000
Si Si2 0.325340 0.399755 0.954555
Si Si3 0.677039 0.127660 0.750000
Si Si4 0.332212 0.038880 0.132885
Si Si5 0.324003 0.642178 0.632467
Si Si6 0.330817 0.059265 0.563915
Si Si7 0.172286 0.800309 0.016996
O O1 0.234022 0.570415 0.750000
O O2 0.235445 0.483861 0.692928
O O3 0.000000 0.516154 0.750000
O O4 0.500000 0.408707 0.959147
O O5 0.266166 0.414416 0.889495
O O6 0.245040 0.435740 0.000765
O O7 0.284314 0.342869 0.969771
O O8 0.500000 0.131823 0.750000
O O9 0.744012 0.156275 0.693510
O O10 0.500000 0.057610 0.143786
O O11 0.329054 0.997892 0.081873
O O12 0.500000 0.638391 0.641045
O O13 0.261249 0.589091 0.612788
O O14 0.281569 0.682677 0.582733
O O15 0.500000 0.079322 0.561773
O O16 0.000000 0.789595 0.014576
O O17 0.250000 0.750000 0.000000
#
# Coordination Sequence:
#
# PCOD8256050 Si02
#       7
#     8  16   8  16  16  16  16
#     4   9  18  33  49  70 103 140 179 218 243 278
#     4  10  21  34  48  73 105 131 162 212 264 310
#     4  11  19  33  53  76 107 146 181 212 247 300
#     4  10  19  32  49  70 100 139 178 212 244 291
#     4  10  20  33  50  78 111 139 169 215 266 310
#     4  10  18  30  49  73 101 137 177 209 245 301
#     4   9  20  37  56  77 102 130 167 217 271 319
#
# _framework density 17.426538000000001
#
# number of rings (size 3 to 8) (size 9 to 14) (size 15 to 20)
#    0.000    2.167    1.667    3.250    0.000    7.333 
#    0.000    0.417    0.000    1.000    0.000    3.500 
#    0.000    0.000    0.000    0.000    0.000    0.000 
#
# Total GULP energy -595108.002264 kJ/mol
# GULP energy per Si atom -12398.083380 kJ/mol
# Density = 1.738687 g / cm^3
# Si number density = 17.426538 Si / 1000 Ang^3
#
#
#
# Elastic Constant Matrix: (Units=GPa)
#
#
# Indices 1 2 3 4 5 6 
#
# 1 84.4147 44.7975 47.5187 0.0000 0.0000 0.0000
# 2 44.7975 88.6049 59.3084 0.0000 0.0000 0.0000
# 3 47.5187 59.3084 101.0866 0.0000 0.0000 0.0000
# 4 0.0000 0.0000 0.0000 16.3705 0.0000 0.0000
# 5 0.0000 0.0000 0.0000 0.0000 31.6197 0.0000
# 6 0.0000 0.0000 0.0000 0.0000 0.0000 27.6527
#
#
#
# Elastic Compliance Matrix: (Units=1/GPa)
#
#
# Indices 1 2 3 4 5 6 
#
# 1 0.017619 -0.005540 -0.005032 0.000000 0.000000 0.000000
# 2 -0.005540 0.020326 -0.009322 0.000000 0.000000 0.000000
# 3 -0.005032 -0.009322 0.017727 0.000000 0.000000 0.000000
# 4 0.000000 0.000000 0.000000 0.061085 0.000000 0.000000
# 5 0.000000 0.000000 0.000000 0.000000 0.031626 0.000000
# 6 0.000000 0.000000 0.000000 0.000000 0.000000 0.036163
#
#
# Mechanical properties :
#
#
# Convention : Reuss Voigt Hill
#
# Bulk Modulus (GPa) = 62.95010 64.15060 63.55035
# Shear Modulus (GPa) = 21.77440 23.29402 22.53421
#
# Velocity S-wave (km/s) = 3.53866 3.66005 3.59987
# Velocity P-wave (km/s) = 7.27308 7.39954 7.33658
#
# Compressibility (1/GPa) = 0.01588560
#
# Stress axis : x y z
#
# Youngs Moduli (GPa) = 56.75794 49.19759 56.41101
#
# Poissons Ratio (x) = 0.27253 0.28387
# Poissons Ratio (y) = 0.31441 0.52584
# Poissons Ratio (z) = 0.28561 0.45860
#
# Static dielectric constant tensor:
#      x y z
#    x 3.240220 0.000000 0.000000 
#    y 0.000000 2.976480 0.000000 
#    z 0.000000 0.000000 3.510860 
# 
# 
# High freq. dielectric constant tensor:
#      x y z
#    x 1.675060 0.000000 0.000000 
#    y 0.000000 1.638110 0.000000 
#    z 0.000000 0.000000 1.675170 
# 
# From -- ./inp_files/59991.got.cif
#   From: 2010.03.12/outbox.cif.g09.slc.cpg/sg63_30_cif.got.tgz:59991.got - 2010.04.10 19:34:48.
