data_PCOD8256973
_publ_section_title
;
Structure prediction by ZEFSAII (Michael W. Deem and Ramdas Pophale) SiO2 
 PCOD8256973
Probable space group: C M C M
;
_chemical_formula_sum "Si O2"
_cell_formula_units_Z 104
_cell_length_a 25.814470
_cell_length_b 24.206679
_cell_length_c 9.288084
_cell_angle_alpha 90.000000
_cell_angle_beta 90.000000
_cell_angle_gamma 90.000000
_cell_volume 5803.961975
_symmetry_space_group_name_H-M "C M C M"
_symmetry_group_IT_number 63
_symmetry_cell_setting 'orthorhombic'
loop_
_space_group_symop_operation_xyz
x,y,z
-x,-y,1/2+z
x,-y,-z
-x,y,1/2-z
-x,-y,-z
x,y,1/2-z
-x,y,z
x,-y,1/2+z
1/2+x,1/2+y,z
1/2-x,1/2-y,1/2+z
1/2+x,1/2-y,-z
1/2-x,1/2+y,1/2-z
1/2-x,1/2-y,-z
1/2+x,1/2+y,1/2-z
1/2-x,1/2+y,z
1/2+x,1/2-y,1/2+z
loop_
_atom_site_type_symbol
_atom_site_label
_atom_site_fract_x
_atom_site_fract_y
_atom_site_fract_z
Si Si1 0.000000 0.441016 0.421545
Si Si2 0.061370 0.050919 0.410523
Si Si3 0.090820 0.358569 0.414793
Si Si4 0.941847 0.237914 0.092015
Si Si5 0.811182 0.685648 0.419693
Si Si6 0.895419 0.850799 0.088924
Si Si7 0.712392 0.689904 0.911713
O O1 0.000000 0.500000 0.500000
O O2 0.947409 0.407928 0.467691
O O3 0.000000 0.449249 0.250000
O O4 0.083942 0.047269 0.250000
O O5 0.078962 0.107342 0.480175
O O6 0.000000 0.048518 0.408946
O O7 0.084759 0.000000 0.500000
O O8 0.108068 0.369168 0.250000
O O9 0.057218 0.303359 0.429456
O O10 0.142680 0.350436 0.510041
O O11 0.918166 0.223077 0.250000
O O12 0.000000 0.215346 0.084430
O O13 0.909935 0.210523 0.963341
O O14 0.813480 0.675307 0.250000
O O15 0.756103 0.665379 0.483145
O O16 0.811910 0.750875 0.461022
O O17 0.916896 0.860547 0.250000
O O18 0.833355 0.855244 0.086273
O O19 0.735038 0.696476 0.750000
#
# Coordination Sequence:
#
# PCOD8256973 Si02
#       7
#     8  16  16  16  16  16  16
#     4  10  22  40  60  84 110 146 189 228 273 328
#     4  10  21  37  55  75 101 138 182 221 260 309
#     4  10  19  34  55  77 107 142 176 217 269 323
#     4  10  19  31  48  73 105 141 177 213 259 320
#     4  10  19  32  51  77 107 141 180 218 262 318
#     4  11  21  33  50  76 109 141 175 220 267 314
#     4   9  19  33  48  73 109 144 178 215 262 319
#
# _framework density 17.918793999999998
#
# number of rings (size 3 to 8) (size 9 to 14) (size 15 to 20)
#    0.000    2.000    2.308    1.846    0.000    5.538 
#    0.000    0.000    0.000    0.923    0.000    4.308 
#    0.000    0.000    0.000    0.000    0.000    0.000 
#
# Total GULP energy -644539.482037 kJ/mol
# GULP energy per Si atom -12394.990039 kJ/mol
# Density = 1.787801 g / cm^3
# Si number density = 17.918794 Si / 1000 Ang^3
#
#
#
# Elastic Constant Matrix: (Units=GPa)
#
#
# Indices 1 2 3 4 5 6 
#
# 1 72.6412 31.0172 51.2726 0.0000 0.0000 0.0000
# 2 31.0172 74.9248 47.0040 0.0000 0.0000 0.0000
# 3 51.2726 47.0040 123.3577 0.0000 0.0000 0.0000
# 4 0.0000 0.0000 0.0000 25.2420 0.0000 0.0000
# 5 0.0000 0.0000 0.0000 0.0000 25.0911 0.0000
# 6 0.0000 0.0000 0.0000 0.0000 0.0000 9.5901
#
#
#
# Elastic Compliance Matrix: (Units=1/GPa)
#
#
# Indices 1 2 3 4 5 6 
#
# 1 0.020400 -0.004108 -0.006914 0.000000 0.000000 0.000000
# 2 -0.004108 0.018367 -0.005291 0.000000 0.000000 0.000000
# 3 -0.006914 -0.005291 0.012996 0.000000 0.000000 0.000000
# 4 0.000000 0.000000 0.000000 0.039617 0.000000 0.000000
# 5 0.000000 0.000000 0.000000 0.000000 0.039855 0.000000
# 6 0.000000 0.000000 0.000000 0.000000 0.000000 0.104275
#
#
# Mechanical properties :
#
#
# Convention : Reuss Voigt Hill
#
# Bulk Modulus (GPa) = 52.25297 58.83459 55.54378
# Shear Modulus (GPa) = 18.21399 21.42662 19.82031
#
# Velocity S-wave (km/s) = 3.19168 3.46173 3.32944
# Velocity P-wave (km/s) = 6.54268 6.99167 6.77090
#
# Compressibility (1/GPa) = 0.01913767
#
# Stress axis : x y z
#
# Youngs Moduli (GPa) = 49.01848 54.44681 76.94474
#
# Poissons Ratio (x) = 0.22366 0.53200
# Poissons Ratio (y) = 0.20136 0.40711
# Poissons Ratio (z) = 0.33892 0.28808
#
# Static dielectric constant tensor:
#      x y z
#    x 3.294680 0.000000 0.000000 
#    y 0.000000 3.065730 0.000000 
#    z 0.000000 0.000000 3.500510 
# 
# 
# High freq. dielectric constant tensor:
#      x y z
#    x 1.688120 0.000000 0.000000 
#    y 0.000000 1.659410 0.000000 
#    z 0.000000 0.000000 1.702240 
# 
# From -- ./inp_files/12846.got.cif
#   From: 2010.03.12/outbox.cif.g09.slc.cpg/sg63_7_cif.got.tgz:12846.got - 2010.04.10 19:34:48.
