data_PCOD8256148
_publ_section_title
;
Structure prediction by ZEFSAII (Michael W. Deem and Ramdas Pophale) SiO2 
 PCOD8256148
Probable space group: C M C M
;
_chemical_formula_sum "Si O2"
_cell_formula_units_Z 80
_cell_length_a 17.678317
_cell_length_b 14.774649
_cell_length_c 17.058452
_cell_angle_alpha 90.000000
_cell_angle_beta 90.000000
_cell_angle_gamma 90.000000
_cell_volume 4455.512918
_symmetry_space_group_name_H-M "C M C M"
_symmetry_group_IT_number 63
_symmetry_cell_setting 'orthorhombic'
loop_
_space_group_symop_operation_xyz
x,y,z
-x,-y,1/2+z
x,-y,-z
-x,y,1/2-z
-x,-y,-z
x,y,1/2-z
-x,y,z
x,-y,1/2+z
1/2+x,1/2+y,z
1/2-x,1/2-y,1/2+z
1/2+x,1/2-y,-z
1/2-x,1/2+y,1/2-z
1/2-x,1/2-y,-z
1/2+x,1/2+y,1/2-z
1/2-x,1/2+y,z
1/2+x,1/2-y,1/2+z
loop_
_atom_site_type_symbol
_atom_site_label
_atom_site_fract_x
_atom_site_fract_y
_atom_site_fract_z
Si Si1 0.821663 0.267232 0.338685
Si Si2 0.718408 0.135409 0.072576
Si Si3 0.415103 0.767109 0.488755
Si Si4 0.752181 0.540431 0.837460
Si Si5 0.644852 0.590106 0.538839
O O1 0.843173 0.236204 0.250000
O O2 0.747359 0.211901 0.366785
O O3 0.890499 0.248966 0.398562
O O4 0.806674 0.373764 0.338936
O O5 0.706595 0.039809 0.115288
O O6 0.639121 0.163062 0.033749
O O7 0.778580 0.124985 0.003180
O O8 0.500000 0.806063 0.490201
O O9 0.415382 0.670835 0.534712
O O10 0.736652 0.506333 0.750000
O O11 0.669770 0.564933 0.873051
O O12 0.610007 0.500000 0.500000
#
# Coordination Sequence:
#
# PCOD8256148 Si02
#       5
#    16  16  16  16  16
#     4  10  19  34  55  78 105 138 185 235 266 305
#     4  10  18  34  53  79 105 139 185 222 266 319
#     4  11  21  34  52  79 116 149 176 212 273 338
#     4  10  18  30  56  81  99 130 182 238 271 302
#     4   9  17  33  57  77 103 134 185 232 263 310
#
# _framework density 17.955283999999999
#
# number of rings (size 3 to 8) (size 9 to 14) (size 15 to 20)
#    0.000    2.000    4.000    1.800    0.000    0.800 
#    0.000    2.000    0.000    6.600    0.000    0.000 
#    0.000    0.000    0.000    0.000    0.000    0.000 
#
# Total GULP energy -495896.491495 kJ/mol
# GULP energy per Si atom -12397.412287 kJ/mol
# Density = 1.791442 g / cm^3
# Si number density = 17.955284 Si / 1000 Ang^3
#
#
#
# Elastic Constant Matrix: (Units=GPa)
#
#
# Indices 1 2 3 4 5 6 
#
# 1 81.2119 23.1881 36.5904 0.0000 0.0000 0.0000
# 2 23.1881 86.0881 25.7497 0.0000 0.0000 0.0000
# 3 36.5904 25.7497 111.9855 0.0000 0.0000 0.0000
# 4 0.0000 0.0000 0.0000 21.9820 0.0000 0.0000
# 5 0.0000 0.0000 0.0000 0.0000 12.8335 0.0000
# 6 0.0000 0.0000 0.0000 0.0000 0.0000 16.3485
#
#
#
# Elastic Compliance Matrix: (Units=1/GPa)
#
#
# Indices 1 2 3 4 5 6 
#
# 1 0.015030 -0.002770 -0.004274 0.000000 0.000000 0.000000
# 2 -0.002770 0.012984 -0.002081 0.000000 0.000000 0.000000
# 3 -0.004274 -0.002081 0.010805 0.000000 0.000000 0.000000
# 4 0.000000 0.000000 0.000000 0.045492 0.000000 0.000000
# 5 0.000000 0.000000 0.000000 0.000000 0.077921 0.000000
# 6 0.000000 0.000000 0.000000 0.000000 0.000000 0.061168
#
#
# Mechanical properties :
#
#
# Convention : Reuss Voigt Hill
#
# Bulk Modulus (GPa) = 48.61450 50.03798 49.32624
# Shear Modulus (GPa) = 20.12029 23.14995 21.63512
#
# Velocity S-wave (km/s) = 3.35113 3.59459 3.47500
# Velocity P-wave (km/s) = 6.48903 6.71988 6.60546
#
# Compressibility (1/GPa) = 0.02057000
#
# Stress axis : x y z
#
# Youngs Moduli (GPa) = 66.53339 77.01535 92.55293
#
# Poissons Ratio (x) = 0.21333 0.39557
# Poissons Ratio (y) = 0.18430 0.19256
# Poissons Ratio (z) = 0.28437 0.16023
#
# Static dielectric constant tensor:
#      x y z
#    x 2.797260 0.000000 0.000000 
#    y 0.000000 3.527580 0.000000 
#    z 0.000000 0.000000 3.620810 
# 
# 
# High freq. dielectric constant tensor:
#      x y z
#    x 1.638040 0.000000 0.000000 
#    y 0.000000 1.713310 0.000000 
#    z 0.000000 0.000000 1.700350 
# 
# From -- ./inp_files/35094.got.cif
#   From: 2010.03.12/outbox.cif.g09.slc.cpg/sg63_18_cif.got.tgz:35094.got - 2010.04.10 19:34:48.
