data_PCOD8256037
_publ_section_title
;
Structure prediction by ZEFSAII (Michael W. Deem and Ramdas Pophale) SiO2 
 PCOD8256037
Probable space group: C M C M
;
_chemical_formula_sum "Si O2"
_cell_formula_units_Z 80
_cell_length_a 7.676125
_cell_length_b 20.661208
_cell_length_c 28.080623
_cell_angle_alpha 90.000000
_cell_angle_beta 90.000000
_cell_angle_gamma 90.000000
_cell_volume 4453.531075
_symmetry_space_group_name_H-M "C M C M"
_symmetry_group_IT_number 63
_symmetry_cell_setting 'orthorhombic'
loop_
_space_group_symop_operation_xyz
x,y,z
-x,-y,1/2+z
x,-y,-z
-x,y,1/2-z
-x,-y,-z
x,y,1/2-z
-x,y,z
x,-y,1/2+z
1/2+x,1/2+y,z
1/2-x,1/2-y,1/2+z
1/2+x,1/2-y,-z
1/2-x,1/2+y,1/2-z
1/2-x,1/2-y,-z
1/2+x,1/2+y,1/2-z
1/2-x,1/2+y,z
1/2+x,1/2-y,1/2+z
loop_
_atom_site_type_symbol
_atom_site_label
_atom_site_fract_x
_atom_site_fract_y
_atom_site_fract_z
Si Si1 0.701707 0.241167 0.628512
Si Si2 0.707079 0.065296 0.474582
Si Si3 0.796579 0.312079 0.029834
Si Si4 0.000000 0.395392 0.803509
Si Si5 0.000000 0.242139 0.802331
Si Si6 0.803921 0.108266 0.372809
O O1 0.500000 0.228469 0.641901
O O2 0.766928 0.198601 0.583818
O O3 0.733390 0.316437 0.615773
O O4 0.823630 0.218747 0.671843
O O5 0.500000 0.069010 0.471322
O O6 0.786927 0.124249 0.505884
O O7 0.781610 0.067932 0.421272
O O8 0.770775 0.000000 0.500000
O O9 0.000000 0.321807 0.030889
O O10 0.750000 0.250000 0.000000
O O11 0.000000 0.318881 0.798856
O O12 0.827977 0.418060 0.832382
O O13 0.000000 0.425783 0.750000
O O14 0.000000 0.210774 0.750000
O O15 0.000000 0.098814 0.353332
#
# Coordination Sequence:
#
# PCOD8256037 Si02
#       6
#    16  16  16   8   8  16
#     4   9  18  30  46  73 101 128 170 210 247 304
#     4  10  20  33  49  72 107 142 174 210 256 308
#     4  10  19  29  48  73 100 137 173 206 248 304
#     4   9  18  32  49  71 101 132 167 210 260 309
#     4   9  18  30  48  71 100 134 162 206 267 307
#     4  10  18  30  49  72 101 134 166 208 257 304
#
# _framework density 17.963273999999998
#
# number of rings (size 3 to 8) (size 9 to 14) (size 15 to 20)
#    0.000    2.400    3.000    0.000    1.400    1.200 
#    0.000    4.000    0.000    0.000    0.000    1.400 
#    0.000    0.000    0.000    0.000    0.000    0.000 
#
# Total GULP energy -495867.337238 kJ/mol
# GULP energy per Si atom -12396.683431 kJ/mol
# Density = 1.792239 g / cm^3
# Si number density = 17.963274 Si / 1000 Ang^3
#
#
#
# Elastic Constant Matrix: (Units=GPa)
#
#
# Indices 1 2 3 4 5 6 
#
# 1 92.9747 19.8608 67.6304 0.0000 0.0000 0.0000
# 2 19.8608 71.7843 43.9505 0.0000 0.0000 0.0000
# 3 67.6304 43.9505 171.5790 0.0000 0.0000 0.0000
# 4 0.0000 0.0000 0.0000 16.2326 0.0000 0.0000
# 5 0.0000 0.0000 0.0000 0.0000 27.2466 0.0000
# 6 0.0000 0.0000 0.0000 0.0000 0.0000 10.4838
#
#
#
# Elastic Compliance Matrix: (Units=1/GPa)
#
#
# Indices 1 2 3 4 5 6 
#
# 1 0.015103 -0.000633 -0.005791 0.000000 0.000000 0.000000
# 2 -0.000633 0.016548 -0.003989 0.000000 0.000000 0.000000
# 3 -0.005791 -0.003989 0.009133 0.000000 0.000000 0.000000
# 4 0.000000 0.000000 0.000000 0.061605 0.000000 0.000000
# 5 0.000000 0.000000 0.000000 0.000000 0.036702 0.000000
# 6 0.000000 0.000000 0.000000 0.000000 0.000000 0.095385
#
#
# Mechanical properties :
#
#
# Convention : Reuss Voigt Hill
#
# Bulk Modulus (GPa) = 50.10675 66.58014 58.34345
# Shear Modulus (GPa) = 19.08725 24.45236 21.76981
#
# Velocity S-wave (km/s) = 3.26325 3.69350 3.48502
# Velocity P-wave (km/s) = 6.49253 7.43871 6.98166
#
# Compressibility (1/GPa) = 0.01995739
#
# Stress axis : x y z
#
# Youngs Moduli (GPa) = 66.21086 60.42918 109.49640
#
# Poissons Ratio (x) = 0.03826 0.63410
# Poissons Ratio (y) = 0.04192 0.43682
# Poissons Ratio (z) = 0.38343 0.24107
#
# Static dielectric constant tensor:
#      x y z
#    x 3.415200 0.000000 0.000000 
#    y 0.000000 3.141600 0.000000 
#    z 0.000000 0.000000 3.561850 
# 
# 
# High freq. dielectric constant tensor:
#      x y z
#    x 1.703170 0.000000 0.000000 
#    y 0.000000 1.643000 0.000000 
#    z 0.000000 0.000000 1.693560 
# 
# From -- ./inp_files/66834.got.cif
#   From: 2010.03.12/outbox.cif.g09.slc.cpg/sg63_34_cif.got.tgz:66834.got - 2010.04.10 19:34:48.
