data_PCOD8256514
_publ_section_title
;
Structure prediction by ZEFSAII (Michael W. Deem and Ramdas Pophale) SiO2 
 PCOD8256514
Probable space group: C M C M
;
_chemical_formula_sum "Si O2"
_cell_formula_units_Z 96
_cell_length_a 14.505719
_cell_length_b 20.528307
_cell_length_c 16.864834
_cell_angle_alpha 90.000000
_cell_angle_beta 90.000000
_cell_angle_gamma 90.000000
_cell_volume 5021.974058
_symmetry_space_group_name_H-M "C M C M"
_symmetry_group_IT_number 63
_symmetry_cell_setting 'orthorhombic'
loop_
_space_group_symop_operation_xyz
x,y,z
-x,-y,1/2+z
x,-y,-z
-x,y,1/2-z
-x,-y,-z
x,y,1/2-z
-x,y,z
x,-y,1/2+z
1/2+x,1/2+y,z
1/2-x,1/2-y,1/2+z
1/2+x,1/2-y,-z
1/2-x,1/2+y,1/2-z
1/2-x,1/2-y,-z
1/2+x,1/2+y,1/2-z
1/2-x,1/2+y,z
1/2+x,1/2-y,1/2+z
loop_
_atom_site_type_symbol
_atom_site_label
_atom_site_fract_x
_atom_site_fract_y
_atom_site_fract_z
Si Si1 0.683009 0.566942 0.342314
Si Si2 0.000000 0.940045 0.558099
Si Si3 0.303937 0.050670 0.656413
Si Si4 0.500000 0.098862 0.844248
Si Si5 0.685046 0.327713 0.343992
Si Si6 0.500000 0.679408 0.559415
Si Si7 0.500000 0.760211 0.418851
Si Si8 0.183905 0.786607 0.658513
O O1 0.663616 0.554016 0.250000
O O2 0.588655 0.554179 0.386842
O O3 0.761327 0.517278 0.375037
O O4 0.719963 0.640120 0.356456
O O5 0.000000 0.873606 0.509797
O O6 0.000000 0.000000 0.500000
O O7 0.300115 0.052617 0.750000
O O8 0.410433 0.057454 0.629900
O O9 0.244087 0.111129 0.624022
O O10 0.500000 0.115503 0.750000
O O11 0.500000 0.164909 0.894423
O O12 0.670357 0.329898 0.250000
O O13 0.587114 0.329084 0.384871
O O14 0.737564 0.262436 0.371578
O O15 0.500000 0.749703 0.514582
O O16 0.589311 0.723505 0.386777
O O17 0.162483 0.772716 0.750000
#
# Coordination Sequence:
#
# PCOD8256514 Si02
#       8
#    16   8  16   8  16   8   8  16
#     4  10  20  37  57  84 116 153 193 236 289 348
#     4  12  23  37  52  81 115 154 192 233 290 349
#     4   9  18  33  58  85 111 147 193 243 285 330
#     4  10  18  34  58  88 116 143 194 248 289 335
#     4  10  21  39  59  81 111 153 198 241 285 343
#     4  12  25  37  52  85 117 153 191 233 294 350
#     4  12  20  34  56  90 120 142 183 241 301 337
#     4  10  19  35  61  86 112 148 195 244 291 337
#
# _framework density 19.115988999999999
#
# number of rings (size 3 to 8) (size 9 to 14) (size 15 to 20)
#    0.000    1.667    3.333    2.250    0.000    2.000 
#    0.000    4.167    0.000    4.000    0.000    2.917 
#    0.000    0.000    0.000    0.000    0.000    0.000 
#
# Total GULP energy -595185.166734 kJ/mol
# GULP energy per Si atom -12399.690974 kJ/mol
# Density = 1.907248 g / cm^3
# Si number density = 19.115989 Si / 1000 Ang^3
#
#
#
# Elastic Constant Matrix: (Units=GPa)
#
#
# Indices 1 2 3 4 5 6 
#
# 1 184.1013 87.6257 48.1486 0.0000 0.0000 0.0000
# 2 87.6257 147.4675 35.0579 0.0000 0.0000 0.0000
# 3 48.1486 35.0579 40.6999 0.0000 0.0000 0.0000
# 4 0.0000 0.0000 0.0000 20.0202 0.0000 0.0000
# 5 0.0000 0.0000 0.0000 0.0000 -34.4895 0.0000
# 6 0.0000 0.0000 0.0000 0.0000 0.0000 47.9772
#
#
#
# Elastic Compliance Matrix: (Units=1/GPa)
#
#
# Indices 1 2 3 4 5 6 
#
# 1 0.009176 -0.003611 -0.007745 0.000000 0.000000 0.000000
# 2 -0.003611 0.009949 -0.004297 0.000000 0.000000 0.000000
# 3 -0.007745 -0.004297 0.037434 0.000000 0.000000 0.000000
# 4 0.000000 0.000000 0.000000 0.049950 0.000000 0.000000
# 5 0.000000 0.000000 0.000000 0.000000 -0.028994 0.000000
# 6 0.000000 0.000000 0.000000 0.000000 0.000000 0.020843
#
#
# Mechanical properties :
#
#
# Convention : Reuss Voigt Hill
#
# Bulk Modulus (GPa) = 39.60100 79.32589 59.46344
# Shear Modulus (GPa) = 36.21052 20.13068 28.17060
#
# Velocity S-wave (km/s) = 4.35702 3.24864 3.84300
# Velocity P-wave (km/s) = 6.78769 7.46048 7.13202
#
# Compressibility (1/GPa) = 0.02525189
#
# Stress axis : x y z
#
# Youngs Moduli (GPa) = 108.97765 100.51657 26.71370
#
# Poissons Ratio (x) = 0.36300 0.20689
# Poissons Ratio (y) = 0.39355 0.11480
# Poissons Ratio (z) = 0.84402 0.43194
#
# Static dielectric constant tensor:
#      x y z
#    x 3.774320 0.000000 0.000000 
#    y 0.000000 3.888400 0.000000 
#    z 0.000000 0.000000 3.369470 
# 
# 
# High freq. dielectric constant tensor:
#      x y z
#    x 1.747090 0.000000 0.000000 
#    y 0.000000 1.751490 0.000000 
#    z 0.000000 0.000000 1.721870 
# 
# From -- ./inp_files/32021.got.cif
#   From: 2010.03.12/outbox.cif.g09.slc.cpg/sg63_17_cif.got.tgz:32021.got - 2010.04.10 19:34:48.
