data_PCOD8256646
_publ_section_title
;
Structure prediction by ZEFSAII (Michael W. Deem and Ramdas Pophale) SiO2 
 PCOD8256646
Probable space group: C M C M
;
_chemical_formula_sum "Si O2"
_cell_formula_units_Z 112
_cell_length_a 14.313497
_cell_length_b 27.759162
_cell_length_c 15.859767
_cell_angle_alpha 90.000000
_cell_angle_beta 90.000000
_cell_angle_gamma 90.000000
_cell_volume 6301.572039
_symmetry_space_group_name_H-M "C M C M"
_symmetry_group_IT_number 63
_symmetry_cell_setting 'orthorhombic'
loop_
_space_group_symop_operation_xyz
x,y,z
-x,-y,1/2+z
x,-y,-z
-x,y,1/2-z
-x,-y,-z
x,y,1/2-z
-x,y,z
x,-y,1/2+z
1/2+x,1/2+y,z
1/2-x,1/2-y,1/2+z
1/2+x,1/2-y,-z
1/2-x,1/2+y,1/2-z
1/2-x,1/2-y,-z
1/2+x,1/2+y,1/2-z
1/2-x,1/2+y,z
1/2+x,1/2-y,1/2+z
loop_
_atom_site_type_symbol
_atom_site_label
_atom_site_fract_x
_atom_site_fract_y
_atom_site_fract_z
Si Si1 0.275284 0.674742 0.343179
Si Si2 0.252483 0.964366 0.156999
Si Si3 0.603566 0.944428 0.477176
Si Si4 0.607037 0.313835 0.492891
Si Si5 0.752703 0.930393 0.894448
Si Si6 0.892219 0.075387 0.536612
Si Si7 0.392715 0.241826 0.345306
O O1 0.313511 0.690767 0.250000
O O2 0.337636 0.695364 0.419718
O O3 0.274742 0.616676 0.340193
O O4 0.170409 0.694380 0.355614
O O5 0.256163 0.943228 0.250000
O O6 0.338822 0.939289 0.109069
O O7 0.153262 0.948978 0.118282
O O8 0.263676 0.022387 0.161673
O O9 0.500000 0.921762 0.467471
O O10 0.660520 0.917480 0.550632
O O11 0.596874 0.000000 0.500000
O O12 0.500000 0.303695 0.515399
O O13 0.622130 0.367414 0.458913
O O14 0.640827 0.280066 0.415932
O O15 0.839738 0.944627 0.954307
O O16 0.000000 0.060353 0.531805
O O17 0.381321 0.263419 0.250000
O O18 0.500000 0.226668 0.360843
#
# Coordination Sequence:
#
# PCOD8256646 Si02
#       7
#    16  16  16  16  16  16  16
#     4  10  19  31  49  73 100 128 157 191 235 289
#     4  10  19  29  43  66  93 119 152 196 241 284
#     4   8  15  29  46  61  81 114 153 189 229 278
#     4   9  18  33  52  72  95 126 162 199 241 284
#     4   9  18  31  46  65  91 123 157 192 232 279
#     4   9  18  32  48  65  88 122 162 199 234 276
#     4   9  18  32  50  73  99 125 156 197 241 283
#
# _framework density 17.773343000000001
#
# number of rings (size 3 to 8) (size 9 to 14) (size 15 to 20)
#    0.000    2.857    0.000    2.143    0.000    3.143 
#    0.000    1.429    0.000    5.143    0.000    0.000 
#    0.000    6.857    0.000    0.000    0.000    0.000 
#
# Total GULP energy -694065.841515 kJ/mol
# GULP energy per Si atom -12394.032884 kJ/mol
# Density = 1.773289 g / cm^3
# Si number density = 17.773343 Si / 1000 Ang^3
#
#
#
# Elastic Constant Matrix: (Units=GPa)
#
#
# Indices 1 2 3 4 5 6 
#
# 1 113.1721 15.4876 49.6916 0.0000 0.0000 0.0000
# 2 15.4876 30.6664 27.9432 0.0000 0.0000 0.0000
# 3 49.6916 27.9432 126.7861 0.0000 0.0000 0.0000
# 4 0.0000 0.0000 0.0000 22.6995 0.0000 0.0000
# 5 0.0000 0.0000 0.0000 0.0000 18.7931 0.0000
# 6 0.0000 0.0000 0.0000 0.0000 0.0000 22.8803
#
#
#
# Elastic Compliance Matrix: (Units=1/GPa)
#
#
# Indices 1 2 3 4 5 6 
#
# 1 0.010769 -0.001993 -0.003782 0.000000 0.000000 0.000000
# 2 -0.001993 0.041172 -0.008293 0.000000 0.000000 0.000000
# 3 -0.003782 -0.008293 0.011197 0.000000 0.000000 0.000000
# 4 0.000000 0.000000 0.000000 0.044054 0.000000 0.000000
# 5 0.000000 0.000000 0.000000 0.000000 0.053211 0.000000
# 6 0.000000 0.000000 0.000000 0.000000 0.000000 0.043706
#
#
# Mechanical properties :
#
#
# Convention : Reuss Voigt Hill
#
# Bulk Modulus (GPa) = 28.56881 50.76326 39.66603
# Shear Modulus (GPa) = 20.49918 24.70807 22.60363
#
# Velocity S-wave (km/s) = 3.39981 3.73255 3.57006
# Velocity P-wave (km/s) = 5.61431 6.87018 6.27375
#
# Compressibility (1/GPa) = 0.03500321
#
# Stress axis : x y z
#
# Youngs Moduli (GPa) = 92.85688 24.28826 89.30840
#
# Poissons Ratio (x) = 0.04841 0.33772
# Poissons Ratio (y) = 0.18508 0.74064
# Poissons Ratio (z) = 0.35114 0.20142
#
# Static dielectric constant tensor:
#      x y z
#    x 3.503500 0.000000 0.000000 
#    y 0.000000 3.067860 0.000000 
#    z 0.000000 0.000000 3.306800 
# 
# 
# High freq. dielectric constant tensor:
#      x y z
#    x 1.685660 0.000000 0.000000 
#    y 0.000000 1.664340 0.000000 
#    z 0.000000 0.000000 1.687480 
# 
# From -- ./inp_files/32564.got.cif
#   From: 2010.03.12/outbox.cif.g09.slc.cpg/sg63_17_cif.got.tgz:32564.got - 2010.04.10 19:34:48.
