data_PCOD8256059
_publ_section_title
;
Structure prediction by ZEFSAII (Michael W. Deem and Ramdas Pophale) SiO2 
 PCOD8256059
Probable space group: C M C M
;
_chemical_formula_sum "Si O2"
_cell_formula_units_Z 80
_cell_length_a 25.424780
_cell_length_b 19.634538
_cell_length_c 8.651719
_cell_angle_alpha 90.000000
_cell_angle_beta 90.000000
_cell_angle_gamma 90.000000
_cell_volume 4318.971080
_symmetry_space_group_name_H-M "C M C M"
_symmetry_group_IT_number 63
_symmetry_cell_setting 'orthorhombic'
loop_
_space_group_symop_operation_xyz
x,y,z
-x,-y,1/2+z
x,-y,-z
-x,y,1/2-z
-x,-y,-z
x,y,1/2-z
-x,y,z
x,-y,1/2+z
1/2+x,1/2+y,z
1/2-x,1/2-y,1/2+z
1/2+x,1/2-y,-z
1/2-x,1/2+y,1/2-z
1/2-x,1/2-y,-z
1/2+x,1/2+y,1/2-z
1/2-x,1/2+y,z
1/2+x,1/2-y,1/2+z
loop_
_atom_site_type_symbol
_atom_site_label
_atom_site_fract_x
_atom_site_fract_y
_atom_site_fract_z
Si Si1 0.500000 0.924481 0.566680
Si Si2 0.811759 0.674405 0.071263
Si Si3 0.000000 0.924458 0.067051
Si Si4 0.106438 0.574559 0.568518
Si Si5 0.605704 0.425837 0.931417
Si Si6 0.808664 0.816218 0.570784
O O1 0.500000 0.923346 0.750000
O O2 0.553720 0.890296 0.503626
O O3 0.500000 0.000000 0.500000
O O4 0.824449 0.660958 0.250000
O O5 0.750693 0.661820 0.031676
O O6 0.844335 0.622176 0.967954
O O7 0.826818 0.751706 0.029379
O O8 0.000000 0.923958 0.250000
O O9 0.053477 0.890056 0.003761
O O10 0.000000 0.000000 0.000000
O O11 0.117099 0.500000 0.500000
O O12 0.098755 0.567337 0.750000
O O13 0.597435 0.432944 0.750000
O O14 0.654960 0.379297 0.975435
O O15 0.616759 0.500000 0.000000
O O16 0.814341 0.796299 0.750000
#
# Coordination Sequence:
#
# PCOD8256059 Si02
#       6
#     8  16   8  16  16  16
#     4  10  18  32  53  78 107 138 173 213 261 311
#     4  10  20  36  56  78 105 138 176 217 263 314
#     4  10  18  30  49  74 103 134 169 207 255 307
#     4  11  21  35  55  80 109 140 176 216 260 310
#     4  10  19  33  53  77 105 135 171 212 256 305
#     4   9  20  37  55  76 104 139 176 216 264 315
#
# _framework density 18.522929000000001
#
# number of rings (size 3 to 8) (size 9 to 14) (size 15 to 20)
#    0.000    2.000    0.000    7.200    0.000    3.200 
#    0.000    3.000    0.000    3.600    0.000    0.000 
#    0.000    0.000    0.000    0.000    0.000    0.000 
#
# Total GULP energy -496000.040066 kJ/mol
# GULP energy per Si atom -12400.001002 kJ/mol
# Density = 1.848077 g / cm^3
# Si number density = 18.522929 Si / 1000 Ang^3
#
#
#
# Elastic Constant Matrix: (Units=GPa)
#
#
# Indices 1 2 3 4 5 6 
#
# 1 132.6347 70.1309 58.4775 0.0000 0.0000 0.0000
# 2 70.1309 78.2452 43.8472 0.0000 0.0000 0.0000
# 3 58.4775 43.8472 134.2318 0.0000 0.0000 0.0000
# 4 0.0000 0.0000 0.0000 29.7216 0.0000 0.0000
# 5 0.0000 0.0000 0.0000 0.0000 32.1183 0.0000
# 6 0.0000 0.0000 0.0000 0.0000 0.0000 0.6028
#
#
#
# Elastic Compliance Matrix: (Units=1/GPa)
#
#
# Indices 1 2 3 4 5 6 
#
# 1 0.015055 -0.012018 -0.002633 0.000000 0.000000 0.000000
# 2 -0.012018 0.025238 -0.003008 0.000000 0.000000 0.000000
# 3 -0.002633 -0.003008 0.009579 0.000000 0.000000 0.000000
# 4 0.000000 0.000000 0.000000 0.033646 0.000000 0.000000
# 5 0.000000 0.000000 0.000000 0.000000 0.031135 0.000000
# 6 0.000000 0.000000 0.000000 0.000000 0.000000 1.659055
#
#
# Mechanical properties :
#
#
# Convention : Reuss Voigt Hill
#
# Bulk Modulus (GPa) = 68.71174 76.66920 72.69047
# Shear Modulus (GPa) = 2.75652 23.99894 13.37773
#
# Velocity S-wave (km/s) = 1.22123 3.60340 2.69034
# Velocity P-wave (km/s) = 6.25816 7.66772 6.99852
#
# Compressibility (1/GPa) = 0.01455355
#
# Stress axis : x y z
#
# Youngs Moduli (GPa) = 66.42295 39.62247 104.38987
#
# Poissons Ratio (x) = 0.47620 0.27484
# Poissons Ratio (y) = 0.79830 0.31404
# Poissons Ratio (z) = 0.17488 0.11920
#
# Static dielectric constant tensor:
#      x y z
#    x 4.062240 0.000000 0.000000 
#    y 0.000000 3.133450 0.000000 
#    z 0.000000 0.000000 3.531630 
# 
# 
# High freq. dielectric constant tensor:
#      x y z
#    x 1.735420 0.000000 0.000000 
#    y 0.000000 1.686020 0.000000 
#    z 0.000000 0.000000 1.735190 
# 
# From -- ./inp_files/12143.got.cif
#   From: 2010.03.12/outbox.cif.g09.slc.cpg/sg63_7_cif.got.tgz:12143.got - 2010.04.10 19:34:48.
