data_PCOD8256549
_publ_section_title
;
Structure prediction by ZEFSAII (Michael W. Deem and Ramdas Pophale) SiO2 
 PCOD8256549
Probable space group: C M C M
;
_chemical_formula_sum "Si O2"
_cell_formula_units_Z 112
_cell_length_a 16.215665
_cell_length_b 20.899481
_cell_length_c 18.789999
_cell_angle_alpha 90.000000
_cell_angle_beta 90.000000
_cell_angle_gamma 90.000000
_cell_volume 6367.911544
_symmetry_space_group_name_H-M "C M C M"
_symmetry_group_IT_number 63
_symmetry_cell_setting 'orthorhombic'
loop_
_space_group_symop_operation_xyz
x,y,z
-x,-y,1/2+z
x,-y,-z
-x,y,1/2-z
-x,-y,-z
x,y,1/2-z
-x,y,z
x,-y,1/2+z
1/2+x,1/2+y,z
1/2-x,1/2-y,1/2+z
1/2+x,1/2-y,-z
1/2-x,1/2+y,1/2-z
1/2-x,1/2-y,-z
1/2+x,1/2+y,1/2-z
1/2-x,1/2+y,z
1/2+x,1/2-y,1/2+z
loop_
_atom_site_type_symbol
_atom_site_label
_atom_site_fract_x
_atom_site_fract_y
_atom_site_fract_z
Si Si1 0.241735 0.431718 0.024242
Si Si2 0.907039 0.998545 0.828858
Si Si3 0.592377 0.260831 0.579041
Si Si4 0.770472 0.899706 0.327123
Si Si5 0.594562 0.591980 0.043873
Si Si6 0.248697 0.245753 0.830607
Si Si7 0.313825 0.800371 0.534299
O O1 0.342419 0.430712 0.017884
O O2 0.205943 0.374959 0.976237
O O3 0.205525 0.500000 0.000000
O O4 0.214091 0.421639 0.106392
O O5 0.897938 0.967929 0.750000
O O6 0.856194 0.063539 0.834062
O O7 0.000000 0.019120 0.845000
O O8 0.877987 0.944574 0.884271
O O9 0.500000 0.250576 0.608779
O O10 0.607706 0.333662 0.557387
O O11 0.657135 0.242471 0.640715
O O12 0.601963 0.216983 0.507473
O O13 0.728008 0.914640 0.250000
O O14 0.789572 0.824864 0.332936
O O15 0.500000 0.576472 0.021304
O O16 0.248349 0.273063 0.750000
O O17 0.188717 0.288923 0.880520
O O18 0.250000 0.750000 0.500000
#
# Coordination Sequence:
#
# PCOD8256549 Si02
#       7
#    16  16  16  16  16  16  16
#     4  12  20  32  52  75  98 136 175 217 254 303
#     4   9  18  31  44  66 109 148 169 199 244 301
#     4  10  19  33  54  76 102 136 175 220 265 310
#     4  10  19  31  48  71  99 135 173 208 253 302
#     4  10  19  29  45  73 101 135 174 207 247 301
#     4  10  19  33  55  78 105 136 173 221 265 308
#     4  10  18  36  53  72 103 138 175 214 257 313
#
# _framework density 17.588183999999998
#
# number of rings (size 3 to 8) (size 9 to 14) (size 15 to 20)
#    0.000    1.857    7.143    0.000    0.000    1.714 
#    0.000    2.857    0.000    1.714    0.000    0.000 
#    0.000    0.000    0.000    0.000    0.000    0.000 
#
# Total GULP energy -693903.288926 kJ/mol
# GULP energy per Si atom -12391.130159 kJ/mol
# Density = 1.754815 g / cm^3
# Si number density = 17.588184 Si / 1000 Ang^3
#
#
#
# Elastic Constant Matrix: (Units=GPa)
#
#
# Indices 1 2 3 4 5 6 
#
# 1 32.1034 22.8731 16.2508 0.0000 0.0000 0.0000
# 2 22.8731 116.7150 46.9412 0.0000 0.0000 0.0000
# 3 16.2508 46.9412 149.8812 0.0000 0.0000 0.0000
# 4 0.0000 0.0000 0.0000 26.6924 0.0000 0.0000
# 5 0.0000 0.0000 0.0000 0.0000 14.9905 0.0000
# 6 0.0000 0.0000 0.0000 0.0000 0.0000 20.3561
#
#
#
# Elastic Compliance Matrix: (Units=1/GPa)
#
#
# Indices 1 2 3 4 5 6 
#
# 1 0.036709 -0.006399 -0.001976 0.000000 0.000000 0.000000
# 2 -0.006399 0.010918 -0.002726 0.000000 0.000000 0.000000
# 3 -0.001976 -0.002726 0.007740 0.000000 0.000000 0.000000
# 4 0.000000 0.000000 0.000000 0.037464 0.000000 0.000000
# 5 0.000000 0.000000 0.000000 0.000000 0.066709 0.000000
# 6 0.000000 0.000000 0.000000 0.000000 0.000000 0.049125
#
#
# Mechanical properties :
#
#
# Convention : Reuss Voigt Hill
#
# Bulk Modulus (GPa) = 30.15207 52.31442 41.23325
# Shear Modulus (GPa) = 20.66781 26.58341 23.62561
#
# Velocity S-wave (km/s) = 3.43169 3.89194 3.66904
# Velocity P-wave (km/s) = 5.73433 7.07141 6.43768
#
# Compressibility (1/GPa) = 0.03316522
#
# Stress axis : x y z
#
# Youngs Moduli (GPa) = 27.24130 91.59026 129.20177
#
# Poissons Ratio (x) = 0.58611 0.25530
# Poissons Ratio (y) = 0.17433 0.35216
# Poissons Ratio (z) = 0.05383 0.24964
#
# Static dielectric constant tensor:
#      x y z
#    x 3.097470 0.000000 0.000000 
#    y 0.000000 3.278150 0.000000 
#    z 0.000000 0.000000 3.729000 
# 
# 
# High freq. dielectric constant tensor:
#      x y z
#    x 1.628380 0.000000 0.000000 
#    y 0.000000 1.681590 0.000000 
#    z 0.000000 0.000000 1.692620 
# 
# From -- ./inp_files/46077.got.cif
#   From: 2010.03.12/outbox.cif.g09.slc.cpg/sg63_24_cif.got.tgz:46077.got - 2010.04.10 19:34:48.
