data_PCOD8256956
_publ_section_title
;
Structure prediction by ZEFSAII (Michael W. Deem and Ramdas Pophale) SiO2 
 PCOD8256956
Probable space group: C M C M
;
_chemical_formula_sum "Si O2"
_cell_formula_units_Z 96
_cell_length_a 8.877863
_cell_length_b 23.318091
_cell_length_c 26.031802
_cell_angle_alpha 90.000000
_cell_angle_beta 90.000000
_cell_angle_gamma 90.000000
_cell_volume 5388.968736
_symmetry_space_group_name_H-M "C M C M"
_symmetry_group_IT_number 63
_symmetry_cell_setting 'orthorhombic'
loop_
_space_group_symop_operation_xyz
x,y,z
-x,-y,1/2+z
x,-y,-z
-x,y,1/2-z
-x,-y,-z
x,y,1/2-z
-x,y,z
x,-y,1/2+z
1/2+x,1/2+y,z
1/2-x,1/2-y,1/2+z
1/2+x,1/2-y,-z
1/2-x,1/2+y,1/2-z
1/2-x,1/2-y,-z
1/2+x,1/2+y,1/2-z
1/2-x,1/2+y,z
1/2+x,1/2-y,1/2+z
loop_
_atom_site_type_symbol
_atom_site_label
_atom_site_fract_x
_atom_site_fract_y
_atom_site_fract_z
Si Si1 0.823300 0.173062 0.893779
Si Si2 0.827680 0.507394 0.374066
Si Si3 0.676012 0.415180 0.191292
Si Si4 0.823522 0.770714 0.552847
Si Si5 0.826859 0.583713 0.962191
Si Si6 0.676590 0.597250 0.064693
O O1 0.771715 0.139981 0.842003
O O2 0.738440 0.233675 0.898939
O O3 0.777361 0.135728 0.943144
O O4 0.000000 0.184327 0.894709
O O5 0.761548 0.472698 0.325763
O O6 0.808956 0.470054 0.425206
O O7 0.735393 0.566319 0.383261
O O8 0.000000 0.522398 0.362019
O O9 0.716392 0.401590 0.250000
O O10 0.500000 0.426298 0.182776
O O11 0.750000 0.750000 0.500000
O O12 0.781807 0.835867 0.566471
O O13 0.000000 0.761840 0.547389
O O14 0.000000 0.604033 0.964975
O O15 0.766315 0.566979 0.018133
O O16 0.500000 0.586662 0.058201
#
# Coordination Sequence:
#
# PCOD8256956 Si02
#       6
#    16  16  16  16  16  16
#     4  10  19  32  52  78 105 136 176 217 261 310
#     4  10  21  34  50  76 105 134 171 215 263 312
#     4   9  19  37  60  82 104 132 168 215 269 320
#     4  11  22  34  50  73 105 144 183 218 256 306
#     4  10  19  31  48  71 103 139 173 212 256 305
#     4  11  22  33  48  71 102 142 181 213 254 310
#
# _framework density 17.814170000000001
#
# number of rings (size 3 to 8) (size 9 to 14) (size 15 to 20)
#    0.000    1.833    1.667    3.000    0.000    7.000 
#    0.000    0.000    0.000    1.000    0.000    4.667 
#    0.000    0.000    0.000    0.000    0.000    0.000 
#
# Total GULP energy -595271.522050 kJ/mol
# GULP energy per Si atom -12401.490043 kJ/mol
# Density = 1.777362 g / cm^3
# Si number density = 17.814170 Si / 1000 Ang^3
#
#
#
# Elastic Constant Matrix: (Units=GPa)
#
#
# Indices 1 2 3 4 5 6 
#
# 1 82.6848 49.3910 32.4530 0.0000 0.0000 0.0000
# 2 49.3910 94.6140 41.2647 0.0000 0.0000 0.0000
# 3 32.4530 41.2647 83.3368 0.0000 0.0000 0.0000
# 4 0.0000 0.0000 0.0000 17.7094 0.0000 0.0000
# 5 0.0000 0.0000 0.0000 0.0000 22.4788 0.0000
# 6 0.0000 0.0000 0.0000 0.0000 0.0000 31.3077
#
#
#
# Elastic Compliance Matrix: (Units=1/GPa)
#
#
# Indices 1 2 3 4 5 6 
#
# 1 0.018156 -0.008155 -0.003032 0.000000 0.000000 0.000000
# 2 -0.008155 0.017144 -0.005313 0.000000 0.000000 0.000000
# 3 -0.003032 -0.005313 0.015811 0.000000 0.000000 0.000000
# 4 0.000000 0.000000 0.000000 0.056467 0.000000 0.000000
# 5 0.000000 0.000000 0.000000 0.000000 0.044486 0.000000
# 6 0.000000 0.000000 0.000000 0.000000 0.000000 0.031941
#
#
# Mechanical properties :
#
#
# Convention : Reuss Voigt Hill
#
# Bulk Modulus (GPa) = 55.21896 56.31701 55.76799
# Shear Modulus (GPa) = 22.41730 23.46766 22.94248
#
# Velocity S-wave (km/s) = 3.55124 3.63348 3.59259
# Velocity P-wave (km/s) = 6.91951 7.02034 6.97010
#
# Compressibility (1/GPa) = 0.01810972
#
# Stress axis : x y z
#
# Youngs Moduli (GPa) = 55.07910 58.33025 63.24725
#
# Poissons Ratio (x) = 0.47571 0.19177
# Poissons Ratio (y) = 0.44919 0.33603
# Poissons Ratio (z) = 0.16700 0.30991
#
# Static dielectric constant tensor:
#      x y z
#    x 3.379010 0.000000 0.000000 
#    y 0.000000 3.459090 0.000000 
#    z 0.000000 0.000000 3.103040 
# 
# 
# High freq. dielectric constant tensor:
#      x y z
#    x 1.702450 0.000000 0.000000 
#    y 0.000000 1.689470 0.000000 
#    z 0.000000 0.000000 1.654630 
# 
# From -- ./inp_files/59836.got.cif
#   From: 2010.03.12/outbox.cif.g09.slc.cpg/sg63_30_cif.got.tgz:59836.got - 2010.04.10 19:34:48.
