data_PCOD8256448
_publ_section_title
;
Structure prediction by ZEFSAII (Michael W. Deem and Ramdas Pophale) SiO2 
 PCOD8256448
Probable space group: C M C M
;
_chemical_formula_sum "Si O2"
_cell_formula_units_Z 72
_cell_length_a 9.993055
_cell_length_b 25.236157
_cell_length_c 15.971235
_cell_angle_alpha 90.000000
_cell_angle_beta 90.000000
_cell_angle_gamma 90.000000
_cell_volume 4027.726739
_symmetry_space_group_name_H-M "C M C M"
_symmetry_group_IT_number 63
_symmetry_cell_setting 'orthorhombic'
loop_
_space_group_symop_operation_xyz
x,y,z
-x,-y,1/2+z
x,-y,-z
-x,y,1/2-z
-x,-y,-z
x,y,1/2-z
-x,y,z
x,-y,1/2+z
1/2+x,1/2+y,z
1/2-x,1/2-y,1/2+z
1/2+x,1/2-y,-z
1/2-x,1/2+y,1/2-z
1/2-x,1/2-y,-z
1/2+x,1/2+y,1/2-z
1/2-x,1/2+y,z
1/2+x,1/2-y,1/2+z
loop_
_atom_site_type_symbol
_atom_site_label
_atom_site_fract_x
_atom_site_fract_y
_atom_site_fract_z
Si Si1 0.000000 0.939804 0.903451
Si Si2 0.500000 0.062221 0.490301
Si Si3 0.500000 0.677328 0.343331
Si Si4 0.210642 0.091435 0.968040
Si Si5 0.244892 0.197403 0.053814
Si Si6 0.000000 0.944962 0.343532
Si Si7 0.000000 0.649019 0.354067
O O1 0.000000 0.886603 0.849107
O O2 0.865541 0.942321 0.959913
O O3 0.000000 0.991180 0.845475
O O4 0.632729 0.079174 0.539654
O O5 0.500000 0.089240 0.396095
O O6 0.500000 0.000000 0.500000
O O7 0.500000 0.695441 0.250000
O O8 0.371217 0.705434 0.380299
O O9 0.135426 0.079015 0.882167
O O10 0.197853 0.153150 0.988109
O O11 0.374397 0.181185 0.108727
O O12 0.250000 0.250000 0.000000
O O13 0.000000 0.924924 0.250000
O O14 0.000000 0.645651 0.250000
#
# Coordination Sequence:
#
# PCOD8256448 Si02
#       7
#     8   8   8  16  16   8   8
#     4   9  17  32  54  76 103 132 164 209 264 318
#     4  10  18  33  55  76 107 146 173 207 269 334
#     4  10  19  32  52  81 103 124 169 223 258 295
#     4   9  19  34  52  74 101 136 179 212 253 321
#     4  10  20  36  56  75 104 143 176 212 268 321
#     4  11  20  33  52  77 106 137 171 214 259 306
#     4  10  21  36  56  86 111 133 180 237 268 305
#
# _framework density 17.876089
#
# number of rings (size 3 to 8) (size 9 to 14) (size 15 to 20)
#    0.000    2.222    0.000    5.000    0.000    0.000 
#    0.000   12.778    0.000    0.000    0.000    0.000 
#    0.000    0.000    0.000    0.000    0.000    0.000 
#
# Total GULP energy -446022.029006 kJ/mol
# GULP energy per Si atom -12389.500806 kJ/mol
# Density = 1.783540 g / cm^3
# Si number density = 17.876089 Si / 1000 Ang^3
#
#
#
# Elastic Constant Matrix: (Units=GPa)
#
#
# Indices 1 2 3 4 5 6 
#
# 1 159.3276 40.0350 66.4471 0.0000 0.0000 0.0000
# 2 40.0350 99.1553 66.7360 0.0000 0.0000 0.0000
# 3 66.4471 66.7360 143.1083 0.0000 0.0000 0.0000
# 4 0.0000 0.0000 0.0000 23.2229 0.0000 0.0000
# 5 0.0000 0.0000 0.0000 0.0000 30.1463 0.0000
# 6 0.0000 0.0000 0.0000 0.0000 0.0000 26.7538
#
#
#
# Elastic Compliance Matrix: (Units=1/GPa)
#
#
# Indices 1 2 3 4 5 6 
#
# 1 0.007857 -0.001045 -0.003161 0.000000 0.000000 0.000000
# 2 -0.001045 0.014837 -0.006434 0.000000 0.000000 0.000000
# 3 -0.003161 -0.006434 0.011456 0.000000 0.000000 0.000000
# 4 0.000000 0.000000 0.000000 0.043061 0.000000 0.000000
# 5 0.000000 0.000000 0.000000 0.000000 0.033172 0.000000
# 6 0.000000 0.000000 0.000000 0.000000 0.000000 0.037378
#
#
# Mechanical properties :
#
#
# Convention : Reuss Voigt Hill
#
# Bulk Modulus (GPa) = 77.69609 83.11416 80.40513
# Shear Modulus (GPa) = 28.84658 31.24948 30.04803
#
# Velocity S-wave (km/s) = 4.02144 4.18558 4.10433
# Velocity P-wave (km/s) = 8.06974 8.36387 8.21812
#
# Compressibility (1/GPa) = 0.01287066
#
# Stress axis : x y z
#
# Youngs Moduli (GPa) = 127.27181 67.39686 87.29259
#
# Poissons Ratio (x) = 0.07043 0.27592
# Poissons Ratio (y) = 0.13300 0.56164
# Poissons Ratio (z) = 0.40229 0.43363
#
# Static dielectric constant tensor:
#      x y z
#    x 3.625510 0.000000 0.000000 
#    y 0.000000 3.295990 0.000000 
#    z 0.000000 0.000000 3.229240 
# 
# 
# High freq. dielectric constant tensor:
#      x y z
#    x 1.712840 0.000000 0.000000 
#    y 0.000000 1.688870 0.000000 
#    z 0.000000 0.000000 1.669380 
# 
# From -- ./inp_files/28016.got.cif
#   From: 2010.03.12/outbox.cif.g09.slc.cpg/sg63_15_cif.got.tgz:28016.got - 2010.04.10 19:34:48.
