data_PCOD8256414
_publ_section_title
;
Structure prediction by ZEFSAII (Michael W. Deem and Ramdas Pophale) SiO2 
 PCOD8256414
Probable space group: C M C M
;
_chemical_formula_sum "Si O2"
_cell_formula_units_Z 64
_cell_length_a 24.452684
_cell_length_b 14.697866
_cell_length_c 8.662847
_cell_angle_alpha 90.000000
_cell_angle_beta 90.000000
_cell_angle_gamma 90.000000
_cell_volume 3113.446900
_symmetry_space_group_name_H-M "C M C M"
_symmetry_group_IT_number 63
_symmetry_cell_setting 'orthorhombic'
loop_
_space_group_symop_operation_xyz
x,y,z
-x,-y,1/2+z
x,-y,-z
-x,y,1/2-z
-x,-y,-z
x,y,1/2-z
-x,y,z
x,-y,1/2+z
1/2+x,1/2+y,z
1/2-x,1/2-y,1/2+z
1/2+x,1/2-y,-z
1/2-x,1/2+y,1/2-z
1/2-x,1/2-y,-z
1/2+x,1/2+y,1/2-z
1/2-x,1/2+y,z
1/2+x,1/2-y,1/2+z
loop_
_atom_site_type_symbol
_atom_site_label
_atom_site_fract_x
_atom_site_fract_y
_atom_site_fract_z
Si Si1 0.937437 0.750717 0.928778
Si Si2 0.850886 0.900715 0.931351
Si Si3 0.369679 0.900935 0.568980
Si Si4 0.240710 0.399123 0.432990
O O1 0.928554 0.725905 0.750000
O O2 0.902287 0.838623 0.975997
O O3 0.000000 0.774476 0.965821
O O4 0.920435 0.663822 0.029841
O O5 0.842409 0.910160 0.750000
O O6 0.796223 0.853139 0.002784
O O7 0.862054 0.000000 0.000000
O O8 0.361643 0.911135 0.750000
O O9 0.315129 0.853804 0.495743
O O10 0.381606 0.000000 0.500000
O O11 0.240694 0.500000 0.500000
O O12 0.240870 0.397863 0.250000
#
# Coordination Sequence:
#
# PCOD8256414 Si02
#       4
#    16  16  16  16
#     4  10  23  42  60  81 112 151 196 240 280 329
#     4  10  20  36  59  86 117 151 187 232 284 336
#     4  11  22  38  61  87 116 149 186 232 285 340
#     4  10  18  32  56  85 117 149 184 228 279 339
#
# _framework density 20.555994999999999
#
# number of rings (size 3 to 8) (size 9 to 14) (size 15 to 20)
#    0.000    1.750    0.000    8.250    0.000    4.500 
#    0.000    0.000    0.000    0.000    0.000    0.000 
#    0.000    0.000    0.000    0.000    0.000    0.000 
#
# Total GULP energy -396815.045226 kJ/mol
# GULP energy per Si atom -12400.470163 kJ/mol
# Density = 2.050921 g / cm^3
# Si number density = 20.555995 Si / 1000 Ang^3
#
#
#
# Elastic Constant Matrix: (Units=GPa)
#
#
# Indices 1 2 3 4 5 6 
#
# 1 112.2949 26.7386 24.9124 0.0000 0.0000 0.0000
# 2 26.7386 63.1062 23.6324 0.0000 0.0000 0.0000
# 3 24.9124 23.6324 129.5244 0.0000 0.0000 0.0000
# 4 0.0000 0.0000 0.0000 26.8092 0.0000 0.0000
# 5 0.0000 0.0000 0.0000 0.0000 28.3470 0.0000
# 6 0.0000 0.0000 0.0000 0.0000 0.0000 35.4994
#
#
#
# Elastic Compliance Matrix: (Units=1/GPa)
#
#
# Indices 1 2 3 4 5 6 
#
# 1 0.010088 -0.003808 -0.001246 0.000000 0.000000 0.000000
# 2 -0.003808 0.018446 -0.002633 0.000000 0.000000 0.000000
# 3 -0.001246 -0.002633 0.008441 0.000000 0.000000 0.000000
# 4 0.000000 0.000000 0.000000 0.037301 0.000000 0.000000
# 5 0.000000 0.000000 0.000000 0.000000 0.035277 0.000000
# 6 0.000000 0.000000 0.000000 0.000000 0.000000 0.028169
#
#
# Mechanical properties :
#
#
# Convention : Reuss Voigt Hill
#
# Bulk Modulus (GPa) = 46.29364 50.61025 48.45194
# Shear Modulus (GPa) = 31.19239 33.44060 32.31650
#
# Velocity S-wave (km/s) = 3.89965 4.03774 3.96930
# Velocity P-wave (km/s) = 6.54569 6.81263 6.68049
#
# Compressibility (1/GPa) = 0.02160124
#
# Stress axis : x y z
#
# Youngs Moduli (GPa) = 99.12605 54.21275 118.47581
#
# Poissons Ratio (x) = 0.20644 0.14757
# Poissons Ratio (y) = 0.37747 0.31196
# Poissons Ratio (z) = 0.12347 0.14275
#
# Static dielectric constant tensor:
#      x y z
#    x 4.332120 0.000000 0.000000 
#    y 0.000000 3.523650 0.000000 
#    z 0.000000 0.000000 3.738110 
# 
# 
# High freq. dielectric constant tensor:
#      x y z
#    x 1.811950 0.000000 0.000000 
#    y 0.000000 1.789520 0.000000 
#    z 0.000000 0.000000 1.812710 
# 
# From -- ./inp_files/9618.got.cif
#   From: 2010.03.12/outbox.cif.g09.slc.cpg/sg63_5_cif.got.tgz:9618.got - 2010.04.10 19:34:48.
