data_PCOD8256060
_publ_section_title
;
Structure prediction by ZEFSAII (Michael W. Deem and Ramdas Pophale) SiO2 
 PCOD8256060
Probable space group: C M C M
;
_chemical_formula_sum "Si O2"
_cell_formula_units_Z 80
_cell_length_a 8.776867
_cell_length_b 20.642492
_cell_length_c 24.832490
_cell_angle_alpha 90.000000
_cell_angle_beta 90.000000
_cell_angle_gamma 90.000000
_cell_volume 4499.061311
_symmetry_space_group_name_H-M "C M C M"
_symmetry_group_IT_number 63
_symmetry_cell_setting 'orthorhombic'
loop_
_space_group_symop_operation_xyz
x,y,z
-x,-y,1/2+z
x,-y,-z
-x,y,1/2-z
-x,-y,-z
x,y,1/2-z
-x,y,z
x,-y,1/2+z
1/2+x,1/2+y,z
1/2-x,1/2-y,1/2+z
1/2+x,1/2-y,-z
1/2-x,1/2+y,1/2-z
1/2-x,1/2-y,-z
1/2+x,1/2+y,1/2-z
1/2-x,1/2+y,z
1/2+x,1/2-y,1/2+z
loop_
_atom_site_type_symbol
_atom_site_label
_atom_site_fract_x
_atom_site_fract_y
_atom_site_fract_z
Si Si1 0.320527 0.937168 0.468317
Si Si2 0.675931 0.381403 0.368036
Si Si3 0.175565 0.239399 0.250000
Si Si4 0.672463 0.628850 0.750000
Si Si5 0.817895 0.759870 0.634213
Si Si6 0.179629 0.690755 0.031730
O O1 0.500000 0.940971 0.459608
O O2 0.244271 0.933807 0.409320
O O3 0.271162 0.875342 0.503231
O O4 0.259861 0.000000 0.500000
O O5 0.500000 0.369931 0.381758
O O6 0.695714 0.409769 0.306558
O O7 0.760580 0.313018 0.376185
O O8 0.201010 0.316057 0.250000
O O9 0.240991 0.213411 0.192935
O O10 0.000000 0.223653 0.250000
O O11 0.500000 0.658267 0.750000
O O12 0.747442 0.809747 0.591794
O O13 0.000000 0.758778 0.629857
O O14 0.000000 0.698767 0.033844
O O15 0.250000 0.750000 0.000000
#
# Coordination Sequence:
#
# PCOD8256060 Si02
#       6
#    16  16   8   8  16  16
#     4  10  22  38  53  71 101 138 173 211 256 304
#     4  10  18  30  50  75 103 132 167 208 253 303
#     4   8  16  28  44  69 100 133 165 203 249 297
#     4   8  16  28  44  71 102 129 159 205 255 297
#     4  10  18  30  49  74 104 134 168 208 252 302
#     4  11  21  33  52  76 102 132 167 209 256 304
#
# _framework density 17.781486999999998
#
# number of rings (size 3 to 8) (size 9 to 14) (size 15 to 20)
#    0.000    2.200    2.000    1.800    0.000    2.800 
#    0.000    0.000    0.000    1.200    0.000    8.400 
#    0.000    0.000    0.000    0.000    0.000    0.000 
#
# Total GULP energy -495626.602754 kJ/mol
# GULP energy per Si atom -12390.665069 kJ/mol
# Density = 1.774102 g / cm^3
# Si number density = 17.781487 Si / 1000 Ang^3
#
#
#
# Elastic Constant Matrix: (Units=GPa)
#
#
# Indices 1 2 3 4 5 6 
#
# 1 51.2174 29.9948 43.2768 0.0000 0.0000 0.0000
# 2 29.9948 77.7220 58.1627 0.0000 0.0000 0.0000
# 3 43.2768 58.1627 186.7140 0.0000 0.0000 0.0000
# 4 0.0000 0.0000 0.0000 22.2862 0.0000 0.0000
# 5 0.0000 0.0000 0.0000 0.0000 29.9159 0.0000
# 6 0.0000 0.0000 0.0000 0.0000 0.0000 17.7723
#
#
#
# Elastic Compliance Matrix: (Units=1/GPa)
#
#
# Indices 1 2 3 4 5 6 
#
# 1 0.027314 -0.007568 -0.003973 0.000000 0.000000 0.000000
# 2 -0.007568 0.018874 -0.004125 0.000000 0.000000 0.000000
# 3 -0.003973 -0.004125 0.007562 0.000000 0.000000 0.000000
# 4 0.000000 0.000000 0.000000 0.044871 0.000000 0.000000
# 5 0.000000 0.000000 0.000000 0.000000 0.033427 0.000000
# 6 0.000000 0.000000 0.000000 0.000000 0.000000 0.056267
#
#
# Mechanical properties :
#
#
# Convention : Reuss Voigt Hill
#
# Bulk Modulus (GPa) = 44.60911 64.28021 54.44466
# Shear Modulus (GPa) = 22.01475 26.27614 24.14544
#
# Velocity S-wave (km/s) = 3.52244 3.84829 3.68896
# Velocity P-wave (km/s) = 6.45642 7.48160 6.98783
#
# Compressibility (1/GPa) = 0.02241694
#
# Stress axis : x y z
#
# Youngs Moduli (GPa) = 36.61137 52.98267 132.24270
#
# Poissons Ratio (x) = 0.40095 0.52547
# Poissons Ratio (y) = 0.27706 0.54555
# Poissons Ratio (z) = 0.14548 0.21857
#
# Static dielectric constant tensor:
#      x y z
#    x 3.327030 0.000000 0.000000 
#    y 0.000000 2.907320 0.000000 
#    z 0.000000 0.000000 4.126590 
# 
# 
# High freq. dielectric constant tensor:
#      x y z
#    x 1.694350 0.000000 0.000000 
#    y 0.000000 1.622190 0.000000 
#    z 0.000000 0.000000 1.720320 
# 
# From -- ./inp_files/59535.got.cif
#   From: 2010.03.12/outbox.cif.g09.slc.cpg/sg63_30_cif.got.tgz:59535.got - 2010.04.10 19:34:48.
