data_PCOD8256751
_publ_section_title
;
Structure prediction by ZEFSAII (Michael W. Deem and Ramdas Pophale) SiO2 
 PCOD8256751
Probable space group: C M C M
;
_chemical_formula_sum "Si O2"
_cell_formula_units_Z 128
_cell_length_a 22.670602
_cell_length_b 18.338957
_cell_length_c 17.826575
_cell_angle_alpha 90.000000
_cell_angle_beta 90.000000
_cell_angle_gamma 90.000000
_cell_volume 7411.491170
_symmetry_space_group_name_H-M "C M C M"
_symmetry_group_IT_number 63
_symmetry_cell_setting 'orthorhombic'
loop_
_space_group_symop_operation_xyz
x,y,z
-x,-y,1/2+z
x,-y,-z
-x,y,1/2-z
-x,-y,-z
x,y,1/2-z
-x,y,z
x,-y,1/2+z
1/2+x,1/2+y,z
1/2-x,1/2-y,1/2+z
1/2+x,1/2-y,-z
1/2-x,1/2+y,1/2-z
1/2-x,1/2-y,-z
1/2+x,1/2+y,1/2-z
1/2-x,1/2+y,z
1/2+x,1/2-y,1/2+z
loop_
_atom_site_type_symbol
_atom_site_label
_atom_site_fract_x
_atom_site_fract_y
_atom_site_fract_z
Si Si1 0.664375 0.112522 0.583545
Si Si2 0.432831 0.109808 0.452749
Si Si3 0.715715 0.467692 0.425537
Si Si4 0.159856 0.149187 0.833135
Si Si5 0.432846 0.764403 0.665482
Si Si6 0.758327 0.398780 0.836354
Si Si7 0.622520 0.978030 0.664889
Si Si8 0.277917 0.240987 0.665042
O O1 0.613894 0.114380 0.520236
O O2 0.724380 0.076183 0.551579
O O3 0.675874 0.194716 0.614078
O O4 0.645589 0.060568 0.653031
O O5 0.500000 0.111112 0.484273
O O6 0.420430 0.174001 0.394663
O O7 0.425193 0.037110 0.401121
O O8 0.687453 0.500000 0.500000
O O9 0.666562 0.416128 0.390767
O O10 0.723094 0.533880 0.368936
O O11 0.150113 0.117186 0.750000
O O12 0.103795 0.194565 0.859913
O O13 0.216796 0.199437 0.833542
O O14 0.413978 0.790548 0.750000
O O15 0.500000 0.739748 0.665420
O O16 0.742820 0.394743 0.750000
O O17 0.827598 0.415734 0.847991
O O18 0.736396 0.321010 0.870883
O O19 0.597150 0.973057 0.750000
O O20 0.303105 0.246993 0.750000
#
# Coordination Sequence:
#
# PCOD8256751 Si02
#       8
#    16  16  16  16  16  16  16  16
#     4  10  20  33  47  68  98 128 157 193 239 282
#     4  11  22  34  48  67  93 125 161 199 237 277
#     4  10  19  30  45  69 100 128 155 188 230 282
#     4   9  17  30  49  72  96 122 153 189 230 276
#     4   9  18  33  52  73  96 122 154 192 233 277
#     4   9  17  30  48  70  95 123 154 190 235 281
#     4  10  19  32  49  67  92 125 160 197 235 276
#     4   9  17  30  50  73  95 121 154 191 232 280
#
# _framework density 17.270479000000002
#
# number of rings (size 3 to 8) (size 9 to 14) (size 15 to 20)
#    0.000    2.375    0.000    3.750    0.000    7.750 
#    0.000    3.125    0.000    1.500    0.000    0.875 
#    0.000    1.000    0.000    0.000    0.000    0.000 
#
# Total GULP energy -793126.095073 kJ/mol
# GULP energy per Si atom -12392.595236 kJ/mol
# Density = 1.723117 g / cm^3
# Si number density = 17.270479 Si / 1000 Ang^3
#
#
#
# Elastic Constant Matrix: (Units=GPa)
#
#
# Indices 1 2 3 4 5 6 
#
# 1 46.2427 28.7910 29.0593 0.0000 0.0000 0.0000
# 2 28.7910 85.4890 18.0611 0.0000 0.0000 0.0000
# 3 29.0593 18.0611 45.8499 0.0000 0.0000 0.0000
# 4 0.0000 0.0000 0.0000 -8.7526 0.0000 0.0000
# 5 0.0000 0.0000 0.0000 0.0000 12.9178 0.0000
# 6 0.0000 0.0000 0.0000 0.0000 0.0000 63.5571
#
#
#
# Elastic Compliance Matrix: (Units=1/GPa)
#
#
# Indices 1 2 3 4 5 6 
#
# 1 0.041689 -0.009226 -0.022788 0.000000 0.000000 0.000000
# 2 -0.009226 0.014801 0.000017 0.000000 0.000000 0.000000
# 3 -0.022788 0.000017 0.036247 0.000000 0.000000 0.000000
# 4 0.000000 0.000000 0.000000 -0.114252 0.000000 0.000000
# 5 0.000000 0.000000 0.000000 0.000000 0.077413 0.000000
# 6 0.000000 0.000000 0.000000 0.000000 0.000000 0.015734
#
#
# Mechanical properties :
#
#
# Convention : Reuss Voigt Hill
#
# Bulk Modulus (GPa) = 34.79139 36.60048 35.69594
# Shear Modulus (GPa) = 34.43372 20.32246 27.37809
#
# Velocity S-wave (km/s) = 4.47003 3.43405 3.98584
# Velocity P-wave (km/s) = 6.84327 6.07965 6.47273
#
# Compressibility (1/GPa) = 0.02874274
#
# Stress axis : x y z
#
# Youngs Moduli (GPa) = 23.98696 67.56347 27.58876
#
# Poissons Ratio (x) = 0.62332 0.62870
# Poissons Ratio (y) = 0.22130 -0.00046
# Poissons Ratio (z) = 0.54662 -0.00114
#
# Static dielectric constant tensor:
#      x y z
#    x 3.205670 0.000000 0.000000 
#    y 0.000000 3.552600 0.000000 
#    z 0.000000 0.000000 3.440330 
# 
# 
# High freq. dielectric constant tensor:
#      x y z
#    x 1.630740 0.000000 0.000000 
#    y 0.000000 1.666650 0.000000 
#    z 0.000000 0.000000 1.669360 
# 
# From -- ./inp_files/48449.got.cif
#   From: 2010.03.12/outbox.cif.g09.slc.cpg/sg63_25_cif.got.tgz:48449.got - 2010.04.10 19:34:48.
