data_PCOD8256430
_publ_section_title
;
Structure prediction by ZEFSAII (Michael W. Deem and Ramdas Pophale) SiO2 
 PCOD8256430
Probable space group: C M C M
;
_chemical_formula_sum "Si O2"
_cell_formula_units_Z 72
_cell_length_a 14.426293
_cell_length_b 14.852404
_cell_length_c 18.358869
_cell_angle_alpha 90.000000
_cell_angle_beta 90.000000
_cell_angle_gamma 90.000000
_cell_volume 3933.665487
_symmetry_space_group_name_H-M "C M C M"
_symmetry_group_IT_number 63
_symmetry_cell_setting 'orthorhombic'
loop_
_space_group_symop_operation_xyz
x,y,z
-x,-y,1/2+z
x,-y,-z
-x,y,1/2-z
-x,-y,-z
x,y,1/2-z
-x,y,z
x,-y,1/2+z
1/2+x,1/2+y,z
1/2-x,1/2-y,1/2+z
1/2+x,1/2-y,-z
1/2-x,1/2+y,1/2-z
1/2-x,1/2-y,-z
1/2+x,1/2+y,1/2-z
1/2-x,1/2+y,z
1/2+x,1/2-y,1/2+z
loop_
_atom_site_type_symbol
_atom_site_label
_atom_site_fract_x
_atom_site_fract_y
_atom_site_fract_z
Si Si1 0.500000 0.041257 0.419050
Si Si2 0.000000 0.900626 0.965639
Si Si3 0.303917 0.835800 0.069455
Si Si4 0.500000 0.794348 0.498786
Si Si5 0.203101 0.866524 0.575164
Si Si6 0.316438 0.996742 0.164255
O O1 0.500000 0.150244 0.425827
O O2 0.586715 0.011126 0.373784
O O3 0.500000 0.000000 0.500000
O O4 0.906593 0.888062 0.919012
O O5 0.000000 0.812474 0.019534
O O6 0.000000 0.000000 0.000000
O O7 0.411211 0.825262 0.047839
O O8 0.267905 0.736828 0.090797
O O9 0.285550 0.896889 0.140175
O O10 0.244697 0.885159 0.005371
O O11 0.245722 0.927658 0.637683
O O12 0.325366 0.001978 0.250000
#
# Coordination Sequence:
#
# PCOD8256430 Si02
#       6
#     8   8  16   8  16  16
#     4  12  19  36  61  84 115 142 186 235 280 345
#     4  10  20  34  57  86 109 138 194 246 272 314
#     4  10  19  36  59  83 109 147 193 235 281 338
#     4  10  18  32  60  86 108 140 178 241 287 320
#     4  10  21  36  58  83 109 149 197 240 278 323
#     4  12  23  35  55  85 119 150 179 229 302 357
#
# _framework density 18.303539000000001
#
# number of rings (size 3 to 8) (size 9 to 14) (size 15 to 20)
#    0.000    1.333    4.444    2.333    0.000    0.889 
#    0.000    0.556    0.000    4.000    0.000    0.000 
#    0.000    0.000    0.000    0.000    0.000    0.000 
#
# Total GULP energy -446138.110492 kJ/mol
# GULP energy per Si atom -12392.725291 kJ/mol
# Density = 1.826188 g / cm^3
# Si number density = 18.303539 Si / 1000 Ang^3
#
#
#
# Elastic Constant Matrix: (Units=GPa)
#
#
# Indices 1 2 3 4 5 6 
#
# 1 108.9095 22.4254 46.9942 0.0000 0.0000 0.0000
# 2 22.4254 129.5184 70.1097 0.0000 0.0000 0.0000
# 3 46.9942 70.1097 131.7709 0.0000 0.0000 0.0000
# 4 0.0000 0.0000 0.0000 21.0627 0.0000 0.0000
# 5 0.0000 0.0000 0.0000 0.0000 18.5934 0.0000
# 6 0.0000 0.0000 0.0000 0.0000 0.0000 34.6867
#
#
#
# Elastic Compliance Matrix: (Units=1/GPa)
#
#
# Indices 1 2 3 4 5 6 
#
# 1 0.010860 0.000304 -0.004035 0.000000 0.000000 0.000000
# 2 0.000304 0.010853 -0.005882 0.000000 0.000000 0.000000
# 3 -0.004035 -0.005882 0.012158 0.000000 0.000000 0.000000
# 4 0.000000 0.000000 0.000000 0.047477 0.000000 0.000000
# 5 0.000000 0.000000 0.000000 0.000000 0.053782 0.000000
# 6 0.000000 0.000000 0.000000 0.000000 0.000000 0.028830
#
#
# Mechanical properties :
#
#
# Convention : Reuss Voigt Hill
#
# Bulk Modulus (GPa) = 68.28987 72.13971 70.21479
# Shear Modulus (GPa) = 26.58610 30.24654 28.41632
#
# Velocity S-wave (km/s) = 3.81532 4.06950 3.94446
# Velocity P-wave (km/s) = 7.53655 7.84727 7.69348
#
# Compressibility (1/GPa) = 0.01464346
#
# Stress axis : x y z
#
# Youngs Moduli (GPa) = 92.07769 92.14388 82.25245
#
# Poissons Ratio (x) = -0.02798 0.33187
# Poissons Ratio (y) = -0.02796 0.48385
# Poissons Ratio (z) = 0.37151 0.54204
#
# Static dielectric constant tensor:
#      x y z
#    x 3.549800 0.000000 0.000000 
#    y 0.000000 4.763500 0.000000 
#    z 0.000000 0.000000 3.025440 
# 
# 
# High freq. dielectric constant tensor:
#      x y z
#    x 1.725450 0.000000 0.000000 
#    y 0.000000 1.738050 0.000000 
#    z 0.000000 0.000000 1.653720 
# 
# From -- ./inp_files/43790.got.cif
#   From: 2010.03.12/outbox.cif.g09.slc.cpg/sg63_22_cif.got.tgz:43790.got - 2010.04.10 19:34:48.
