data_PCOD8256381
_publ_section_title
;
Structure prediction by ZEFSAII (Michael W. Deem and Ramdas Pophale) SiO2 
 PCOD8256381
Probable space group: C M C M
;
_chemical_formula_sum "Si O2"
_cell_formula_units_Z 104
_cell_length_a 21.942149
_cell_length_b 27.521426
_cell_length_c 8.712464
_cell_angle_alpha 90.000000
_cell_angle_beta 90.000000
_cell_angle_gamma 90.000000
_cell_volume 5261.276052
_symmetry_space_group_name_H-M "C M C M"
_symmetry_group_IT_number 63
_symmetry_cell_setting 'orthorhombic'
loop_
_space_group_symop_operation_xyz
x,y,z
-x,-y,1/2+z
x,-y,-z
-x,y,1/2-z
-x,-y,-z
x,y,1/2-z
-x,y,z
x,-y,1/2+z
1/2+x,1/2+y,z
1/2-x,1/2-y,1/2+z
1/2+x,1/2-y,-z
1/2-x,1/2+y,1/2-z
1/2-x,1/2-y,-z
1/2+x,1/2+y,1/2-z
1/2-x,1/2+y,z
1/2+x,1/2-y,1/2+z
loop_
_atom_site_type_symbol
_atom_site_label
_atom_site_fract_x
_atom_site_fract_y
_atom_site_fract_z
Si Si1 0.787611 0.385355 0.574529
Si Si2 0.431064 0.271471 0.932107
Si Si3 0.670072 0.551320 0.424577
Si Si4 0.617313 0.948452 0.426266
Si Si5 0.500000 0.053915 0.069896
Si Si6 0.068064 0.119535 0.068618
Si Si7 0.305617 0.219116 0.565533
O O1 0.811661 0.389850 0.750000
O O2 0.720579 0.406986 0.562248
O O3 0.824929 0.415737 0.451286
O O4 0.792775 0.331061 0.517772
O O5 0.432306 0.272521 0.750000
O O6 0.500000 0.254042 0.987464
O O7 0.418795 0.326106 0.995591
O O8 0.373470 0.238272 0.985747
O O9 0.687792 0.500000 0.500000
O O10 0.656797 0.537697 0.250000
O O11 0.611653 0.577802 0.502506
O O12 0.602334 0.956321 0.250000
O O13 0.560607 0.920378 0.506700
O O14 0.631109 0.000000 0.500000
O O15 0.500000 0.052817 0.250000
O O16 0.500000 0.000000 0.000000
O O17 0.078691 0.121255 0.250000
O O18 0.000000 0.103757 0.025249
O O19 0.301838 0.215534 0.750000
O O20 0.250000 0.250000 0.500000
#
# Coordination Sequence:
#
# PCOD8256381 Si02
#       7
#    16  16  16  16   8  16  16
#     4  11  23  39  56  78 109 147 193 241 290 342
#     4   8  15  31  56  83 110 144 187 233 279 337
#     4  10  21  35  53  78 109 146 185 230 280 335
#     4  11  21  36  57  82 111 146 187 232 282 339
#     4  10  18  32  54  80 108 142 182 224 272 326
#     4   8  14  28  52  80 108 140 179 220 269 332
#     4  11  22  37  59  86 115 148 189 239 294 354
#
# _framework density 19.767067000000001
#
# number of rings (size 3 to 8) (size 9 to 14) (size 15 to 20)
#    0.000    2.154    0.000    6.231    0.000    5.231 
#    1.385    0.000    0.000    1.385    0.000    4.308 
#    0.000    0.000    0.000    0.000    0.000    0.000 
#
# Total GULP energy -644209.066160 kJ/mol
# GULP energy per Si atom -12388.635888 kJ/mol
# Density = 1.972208 g / cm^3
# Si number density = 19.767067 Si / 1000 Ang^3
#
#
#
# Elastic Constant Matrix: (Units=GPa)
#
#
# Indices 1 2 3 4 5 6 
#
# 1 131.0800 63.3874 33.4644 0.0000 0.0000 0.0000
# 2 63.3874 119.3712 30.6663 0.0000 0.0000 0.0000
# 3 33.4644 30.6663 85.6295 0.0000 0.0000 0.0000
# 4 0.0000 0.0000 0.0000 23.0618 0.0000 0.0000
# 5 0.0000 0.0000 0.0000 0.0000 30.2042 0.0000
# 6 0.0000 0.0000 0.0000 0.0000 0.0000 44.8395
#
#
#
# Elastic Compliance Matrix: (Units=1/GPa)
#
#
# Indices 1 2 3 4 5 6 
#
# 1 0.010681 -0.005065 -0.002360 0.000000 0.000000 0.000000
# 2 -0.005065 0.011628 -0.002185 0.000000 0.000000 0.000000
# 3 -0.002360 -0.002185 0.013383 0.000000 0.000000 0.000000
# 4 0.000000 0.000000 0.000000 0.043362 0.000000 0.000000
# 5 0.000000 0.000000 0.000000 0.000000 0.033108 0.000000
# 6 0.000000 0.000000 0.000000 0.000000 0.000000 0.022302
#
#
# Mechanical properties :
#
#
# Convention : Reuss Voigt Hill
#
# Bulk Modulus (GPa) = 60.71060 65.67965 63.19513
# Shear Modulus (GPa) = 31.41197 33.52528 32.46862
#
# Velocity S-wave (km/s) = 3.99068 4.12274 4.05725
# Velocity P-wave (km/s) = 7.21206 7.48075 7.34763
#
# Compressibility (1/GPa) = 0.01647159
#
# Stress axis : x y z
#
# Youngs Moduli (GPa) = 93.62434 85.99715 74.72160
#
# Poissons Ratio (x) = 0.43561 0.17635
# Poissons Ratio (y) = 0.47425 0.16325
# Poissons Ratio (z) = 0.22096 0.18789
#
# Static dielectric constant tensor:
#      x y z
#    x 4.101650 0.000000 0.000000 
#    y 0.000000 3.482740 0.000000 
#    z 0.000000 0.000000 3.385720 
# 
# 
# High freq. dielectric constant tensor:
#      x y z
#    x 1.791090 0.000000 0.000000 
#    y 0.000000 1.760990 0.000000 
#    z 0.000000 0.000000 1.743750 
# 
# From -- ./inp_files/8832.got.cif
#   From: 2010.03.12/outbox.cif.g09.slc.cpg/sg63_5_cif.got.tgz:8832.got - 2010.04.10 19:34:48.
