data_PCOD8256958
_publ_section_title
;
Structure prediction by ZEFSAII (Michael W. Deem and Ramdas Pophale) SiO2 
 PCOD8256958
Probable space group: C M C M
;
_chemical_formula_sum "Si O2"
_cell_formula_units_Z 112
_cell_length_a 14.475363
_cell_length_b 13.650308
_cell_length_c 30.746284
_cell_angle_alpha 90.000000
_cell_angle_beta 90.000000
_cell_angle_gamma 90.000000
_cell_volume 6075.255517
_symmetry_space_group_name_H-M "C M C M"
_symmetry_group_IT_number 63
_symmetry_cell_setting 'orthorhombic'
loop_
_space_group_symop_operation_xyz
x,y,z
-x,-y,1/2+z
x,-y,-z
-x,y,1/2-z
-x,-y,-z
x,y,1/2-z
-x,y,z
x,-y,1/2+z
1/2+x,1/2+y,z
1/2-x,1/2-y,1/2+z
1/2+x,1/2-y,-z
1/2-x,1/2+y,1/2-z
1/2-x,1/2-y,-z
1/2+x,1/2+y,1/2-z
1/2-x,1/2+y,z
1/2+x,1/2-y,1/2+z
loop_
_atom_site_type_symbol
_atom_site_label
_atom_site_fract_x
_atom_site_fract_y
_atom_site_fract_z
Si Si1 0.606077 0.517593 0.668420
Si Si2 0.316692 0.551130 0.081650
Si Si3 0.240754 0.150948 0.944090
Si Si4 0.891132 0.788959 0.518671
Si Si5 0.107865 0.812051 0.700835
Si Si6 0.892286 0.221748 0.799512
Si Si7 0.256697 0.778799 0.635902
O O1 0.500000 0.530523 0.679096
O O2 0.618821 0.503163 0.616733
O O3 0.642081 0.424376 0.695620
O O4 0.651818 0.615982 0.687569
O O5 0.258411 0.468045 0.055707
O O6 0.378724 0.615261 0.048904
O O7 0.247610 0.623879 0.106566
O O8 0.338245 0.193876 0.961688
O O9 0.224948 0.186008 0.894828
O O10 0.153659 0.188892 0.972014
O O11 0.000000 0.765437 0.513901
O O12 0.128870 0.776381 0.750000
O O13 0.164822 0.752871 0.664348
O O14 0.000000 0.800440 0.689561
O O15 0.868144 0.246366 0.750000
O O16 0.840935 0.298454 0.830864
O O17 0.000000 0.229878 0.808836
#
# Coordination Sequence:
#
# PCOD8256958 Si02
#       7
#    16  16  16  16  16  16  16
#     4   9  16  27  48  77 105 133 171 222 277 324
#     4  10  19  34  56  81 111 140 181 226 277 332
#     4  10  21  37  55  83 117 142 179 235 279 334
#     4  10  22  38  60  86 112 147 185 227 284 340
#     4   9  17  30  50  78 108 135 172 224 278 331
#     4  10  19  31  48  71 104 144 184 224 266 317
#     4  10  20  33  52  76 107 145 181 219 272 326
#
# _framework density 18.435438000000001
#
# number of rings (size 3 to 8) (size 9 to 14) (size 15 to 20)
#    0.000    2.286    1.429    1.714    0.000    7.429 
#    0.000    0.714    0.000   11.143    0.000    2.000 
#    0.000    0.000    0.000    0.000    0.000    0.000 
#
# Total GULP energy -694064.922059 kJ/mol
# GULP energy per Si atom -12394.016465 kJ/mol
# Density = 1.839348 g / cm^3
# Si number density = 18.435438 Si / 1000 Ang^3
#
#
#
# Elastic Constant Matrix: (Units=GPa)
#
#
# Indices 1 2 3 4 5 6 
#
# 1 101.7826 32.3621 54.9058 0.0000 0.0000 0.0000
# 2 32.3621 48.7902 18.3237 0.0000 0.0000 0.0000
# 3 54.9058 18.3237 111.4552 0.0000 0.0000 0.0000
# 4 0.0000 0.0000 0.0000 26.2425 0.0000 0.0000
# 5 0.0000 0.0000 0.0000 0.0000 30.4952 0.0000
# 6 0.0000 0.0000 0.0000 0.0000 0.0000 17.9381
#
#
#
# Elastic Compliance Matrix: (Units=1/GPa)
#
#
# Indices 1 2 3 4 5 6 
#
# 1 0.015914 -0.008112 -0.006506 0.000000 0.000000 0.000000
# 2 -0.008112 0.025980 -0.000275 0.000000 0.000000 0.000000
# 3 -0.006506 -0.000275 0.012222 0.000000 0.000000 0.000000
# 4 0.000000 0.000000 0.000000 0.038106 0.000000 0.000000
# 5 0.000000 0.000000 0.000000 0.000000 0.032792 0.000000
# 6 0.000000 0.000000 0.000000 0.000000 0.000000 0.055747
#
#
# Mechanical properties :
#
#
# Convention : Reuss Voigt Hill
#
# Bulk Modulus (GPa) = 41.10128 52.57900 46.84014
# Shear Modulus (GPa) = 22.86687 25.36426 24.11556
#
# Velocity S-wave (km/s) = 3.52572 3.71326 3.62070
# Velocity P-wave (km/s) = 6.23838 6.85324 6.55302
#
# Compressibility (1/GPa) = 0.02433014
#
# Stress axis : x y z
#
# Youngs Moduli (GPa) = 62.83924 38.49138 81.81722
#
# Poissons Ratio (x) = 0.31224 0.53229
# Poissons Ratio (y) = 0.50975 0.02250
# Poissons Ratio (z) = 0.40882 0.01058
#
# Static dielectric constant tensor:
#      x y z
#    x 3.238640 0.000000 0.000000 
#    y 0.000000 3.436110 0.000000 
#    z 0.000000 0.000000 3.600610 
# 
# 
# High freq. dielectric constant tensor:
#      x y z
#    x 1.691170 0.000000 0.000000 
#    y 0.000000 1.695270 0.000000 
#    z 0.000000 0.000000 1.735810 
# 
# From -- ./inp_files/73522.got.cif
#   From: 2010.03.12/outbox.cif.g09.slc.cpg/sg63_37_cif.got.tgz:73522.got - 2010.04.10 19:34:48.
