data_PCOD8256410
_publ_section_title
;
Structure prediction by ZEFSAII (Michael W. Deem and Ramdas Pophale) SiO2 
 PCOD8256410
Probable space group: C M C M
;
_chemical_formula_sum "Si O2"
_cell_formula_units_Z 64
_cell_length_a 18.551896
_cell_length_b 9.134421
_cell_length_c 21.000641
_cell_angle_alpha 90.000000
_cell_angle_beta 90.000000
_cell_angle_gamma 90.000000
_cell_volume 3558.786021
_symmetry_space_group_name_H-M "C M C M"
_symmetry_group_IT_number 63
_symmetry_cell_setting 'orthorhombic'
loop_
_space_group_symop_operation_xyz
x,y,z
-x,-y,1/2+z
x,-y,-z
-x,y,1/2-z
-x,-y,-z
x,y,1/2-z
-x,y,z
x,-y,1/2+z
1/2+x,1/2+y,z
1/2-x,1/2-y,1/2+z
1/2+x,1/2-y,-z
1/2-x,1/2+y,1/2-z
1/2-x,1/2-y,-z
1/2+x,1/2+y,1/2-z
1/2-x,1/2+y,z
1/2+x,1/2-y,1/2+z
loop_
_atom_site_type_symbol
_atom_site_label
_atom_site_fract_x
_atom_site_fract_y
_atom_site_fract_z
Si Si1 0.801719 0.865699 0.388714
Si Si2 0.582022 0.445722 0.824116
Si Si3 0.339265 0.854768 0.322440
Si Si4 0.320340 0.050636 0.066609
O O1 0.745972 0.817730 0.332225
O O2 0.761790 0.987346 0.432248
O O3 0.821356 0.725450 0.431204
O O4 0.875366 0.928987 0.361198
O O5 0.587720 0.481357 0.750000
O O6 0.500000 0.448201 0.848116
O O7 0.614585 0.287377 0.838899
O O8 0.352510 0.907586 0.250000
O O9 0.363036 0.982747 0.372103
O O10 0.356588 0.000000 0.000000
#
# Coordination Sequence:
#
# PCOD8256410 Si02
#       4
#    16  16  16  16
#     4  10  18  32  56  81 108 140 183 228 265 321
#     4  10  20  35  55  83 117 146 178 226 282 330
#     4   9  18  33  54  82 107 142 185 228 272 323
#     4  10  20  33  56  83 109 143 187 231 271 318
#
# _framework density 17.98366
#
# number of rings (size 3 to 8) (size 9 to 14) (size 15 to 20)
#    1.500    0.750    2.500    1.500    0.000    2.000 
#    0.000    1.250    0.000   11.250    0.000    0.000 
#    0.000    0.000    0.000    0.000    0.000    0.000 
#
# Total GULP energy -396545.292455 kJ/mol
# GULP energy per Si atom -12392.040389 kJ/mol
# Density = 1.794273 g / cm^3
# Si number density = 17.983660 Si / 1000 Ang^3
#
#
#
# Elastic Constant Matrix: (Units=GPa)
#
#
# Indices 1 2 3 4 5 6 
#
# 1 87.8453 37.6485 23.4857 0.0000 0.0000 0.0000
# 2 37.6485 81.4833 34.9520 0.0000 0.0000 0.0000
# 3 23.4857 34.9520 94.3883 0.0000 0.0000 0.0000
# 4 0.0000 0.0000 0.0000 30.6067 0.0000 0.0000
# 5 0.0000 0.0000 0.0000 0.0000 11.8229 0.0000
# 6 0.0000 0.0000 0.0000 0.0000 0.0000 25.0916
#
#
#
# Elastic Compliance Matrix: (Units=1/GPa)
#
#
# Indices 1 2 3 4 5 6 
#
# 1 0.014332 -0.006054 -0.001324 0.000000 0.000000 0.000000
# 2 -0.006054 0.017147 -0.004843 0.000000 0.000000 0.000000
# 3 -0.001324 -0.004843 0.012718 0.000000 0.000000 0.000000
# 4 0.000000 0.000000 0.000000 0.032673 0.000000 0.000000
# 5 0.000000 0.000000 0.000000 0.000000 0.084582 0.000000
# 6 0.000000 0.000000 0.000000 0.000000 0.000000 0.039854
#
#
# Mechanical properties :
#
#
# Convention : Reuss Voigt Hill
#
# Bulk Modulus (GPa) = 50.62329 50.65437 50.63883
# Shear Modulus (GPa) = 21.52084 24.67962 23.10023
#
# Velocity S-wave (km/s) = 3.46307 3.70852 3.58790
# Velocity P-wave (km/s) = 6.64840 6.82390 6.73672
#
# Compressibility (1/GPa) = 0.01975375
#
# Stress axis : x y z
#
# Youngs Moduli (GPa) = 69.77230 58.31875 78.63173
#
# Poissons Ratio (x) = 0.35306 0.10414
# Poissons Ratio (y) = 0.42240 0.38083
# Poissons Ratio (z) = 0.09240 0.28245
#
# Static dielectric constant tensor:
#      x y z
#    x 3.054970 0.000000 0.000000 
#    y 0.000000 3.150200 0.000000 
#    z 0.000000 0.000000 3.276680 
# 
# 
# High freq. dielectric constant tensor:
#      x y z
#    x 1.654070 0.000000 0.000000 
#    y 0.000000 1.696900 0.000000 
#    z 0.000000 0.000000 1.691480 
# 
# From -- ./inp_files/69642.got.cif
#   From: 2010.03.12/outbox.cif.g09.slc.cpg/sg63_35_cif.got.tgz:69642.got - 2010.04.10 19:34:48.
