data_PCOD8256924
_publ_section_title
;
Structure prediction by ZEFSAII (Michael W. Deem and Ramdas Pophale) SiO2 
 PCOD8256924
Probable space group: C M C M
;
_chemical_formula_sum "Si O2"
_cell_formula_units_Z 96
_cell_length_a 25.406442
_cell_length_b 23.565520
_cell_length_c 9.070031
_cell_angle_alpha 90.000000
_cell_angle_beta 90.000000
_cell_angle_gamma 90.000000
_cell_volume 5430.372835
_symmetry_space_group_name_H-M "C M C M"
_symmetry_group_IT_number 63
_symmetry_cell_setting 'orthorhombic'
loop_
_space_group_symop_operation_xyz
x,y,z
-x,-y,1/2+z
x,-y,-z
-x,y,1/2-z
-x,-y,-z
x,y,1/2-z
-x,y,z
x,-y,1/2+z
1/2+x,1/2+y,z
1/2-x,1/2-y,1/2+z
1/2+x,1/2-y,-z
1/2-x,1/2+y,1/2-z
1/2-x,1/2-y,-z
1/2+x,1/2+y,1/2-z
1/2-x,1/2+y,z
1/2+x,1/2-y,1/2+z
loop_
_atom_site_type_symbol
_atom_site_label
_atom_site_fract_x
_atom_site_fract_y
_atom_site_fract_z
Si Si1 0.440218 0.557591 0.577609
Si Si2 0.654653 0.868553 0.424284
Si Si3 0.693256 0.747974 0.074681
Si Si4 0.748428 0.440763 0.078116
Si Si5 0.940786 0.441915 0.423504
Si Si6 0.848823 0.860034 0.421362
O O1 0.421177 0.500000 0.500000
O O2 0.434773 0.546137 0.750000
O O3 0.500000 0.572923 0.531960
O O4 0.403382 0.610102 0.530642
O O5 0.659080 0.870455 0.250000
O O6 0.661741 0.804045 0.477125
O O7 0.700919 0.908312 0.488727
O O8 0.598101 0.892045 0.477909
O O9 0.700804 0.745268 0.250000
O O10 0.750000 0.750000 0.000000
O O11 0.658422 0.695567 0.019978
O O12 0.755222 0.452505 0.250000
O O13 0.697907 0.403015 0.044116
O O14 0.740721 0.500000 0.000000
O O15 0.923301 0.500000 0.500000
O O16 0.936239 0.451746 0.250000
O O17 0.000000 0.424577 0.469782
O O18 0.849141 0.842338 0.250000
#
# Coordination Sequence:
#
# PCOD8256924 Si02
#       6
#    16  16  16  16  16  16
#     4   9  18  33  54  78 106 139 173 213 262 313
#     4   9  18  33  50  70 100 131 162 204 251 295
#     4  11  21  36  55  74 100 136 176 213 257 308
#     4  10  19  31  47  70 100 129 159 204 254 300
#     4   9  17  31  52  75 100 131 163 198 244 295
#     4  10  20  35  52  73 104 137 171 212 259 305
#
# _framework density 17.678345
#
# number of rings (size 3 to 8) (size 9 to 14) (size 15 to 20)
#    0.000    2.333    1.667    1.500    0.000    1.333 
#    0.000    2.500    0.000    1.000    0.000    0.000 
#    0.000    0.000    0.000    0.000    0.000    0.000 
#
# Total GULP energy -595198.747462 kJ/mol
# GULP energy per Si atom -12399.973905 kJ/mol
# Density = 1.763811 g / cm^3
# Si number density = 17.678345 Si / 1000 Ang^3
#
#
#
# Elastic Constant Matrix: (Units=GPa)
#
#
# Indices 1 2 3 4 5 6 
#
# 1 122.6919 78.7046 35.9305 0.0000 0.0000 0.0000
# 2 78.7046 150.6949 50.2476 0.0000 0.0000 0.0000
# 3 35.9305 50.2476 41.5611 0.0000 0.0000 0.0000
# 4 0.0000 0.0000 0.0000 31.4882 0.0000 0.0000
# 5 0.0000 0.0000 0.0000 0.0000 15.7967 0.0000
# 6 0.0000 0.0000 0.0000 0.0000 0.0000 28.8245
#
#
#
# Elastic Compliance Matrix: (Units=1/GPa)
#
#
# Indices 1 2 3 4 5 6 
#
# 1 0.012853 -0.005039 -0.005019 0.000000 0.000000 0.000000
# 2 -0.005039 0.013094 -0.011474 0.000000 0.000000 0.000000
# 3 -0.005019 -0.011474 0.042272 0.000000 0.000000 0.000000
# 4 0.000000 0.000000 0.000000 0.031758 0.000000 0.000000
# 5 0.000000 0.000000 0.000000 0.000000 0.063304 0.000000
# 6 0.000000 0.000000 0.000000 0.000000 0.000000 0.034693
#
#
# Mechanical properties :
#
#
# Convention : Reuss Voigt Hill
#
# Bulk Modulus (GPa) = 39.75482 71.63481 55.69481
# Shear Modulus (GPa) = 20.04632 25.22624 22.63628
#
# Velocity S-wave (km/s) = 3.37107 3.78161 3.58222
# Velocity P-wave (km/s) = 6.13912 7.72506 6.97730
#
# Compressibility (1/GPa) = 0.02515418
#
# Stress axis : x y z
#
# Youngs Moduli (GPa) = 77.80325 76.37346 23.65638
#
# Poissons Ratio (x) = 0.38486 0.11874
# Poissons Ratio (y) = 0.39207 0.27143
# Poissons Ratio (z) = 0.39051 0.87628
#
# Static dielectric constant tensor:
#      x y z
#    x 3.529410 0.000000 0.000000 
#    y 0.000000 3.454350 0.000000 
#    z 0.000000 0.000000 3.097750 
# 
# 
# High freq. dielectric constant tensor:
#      x y z
#    x 1.689910 0.000000 0.000000 
#    y 0.000000 1.684340 0.000000 
#    z 0.000000 0.000000 1.665490 
# 
# From -- ./inp_files/10423.got.cif
#   From: 2010.03.12/outbox.cif.g09.slc.cpg/sg63_6_cif.got.tgz:10423.got - 2010.04.10 19:34:48.
