data_PCOD8256848
_publ_section_title
;
Structure prediction by ZEFSAII (Michael W. Deem and Ramdas Pophale) SiO2 
 PCOD8256848
Probable space group: C M C M
;
_chemical_formula_sum "Si O2"
_cell_formula_units_Z 104
_cell_length_a 24.721849
_cell_length_b 11.938841
_cell_length_c 18.756470
_cell_angle_alpha 90.000000
_cell_angle_beta 90.000000
_cell_angle_gamma 90.000000
_cell_volume 5535.976330
_symmetry_space_group_name_H-M "C M C M"
_symmetry_group_IT_number 63
_symmetry_cell_setting 'orthorhombic'
loop_
_space_group_symop_operation_xyz
x,y,z
-x,-y,1/2+z
x,-y,-z
-x,y,1/2-z
-x,-y,-z
x,y,1/2-z
-x,y,z
x,-y,1/2+z
1/2+x,1/2+y,z
1/2-x,1/2-y,1/2+z
1/2+x,1/2-y,-z
1/2-x,1/2+y,1/2-z
1/2-x,1/2-y,-z
1/2+x,1/2+y,1/2-z
1/2-x,1/2+y,z
1/2+x,1/2-y,1/2+z
loop_
_atom_site_type_symbol
_atom_site_label
_atom_site_fract_x
_atom_site_fract_y
_atom_site_fract_z
Si Si1 0.867295 0.740242 0.329083
Si Si2 0.561075 0.788104 0.173368
Si Si3 0.399396 0.645713 0.451243
Si Si4 0.867868 0.500000 0.500000
Si Si5 0.689491 0.771460 0.523918
Si Si6 0.937934 0.536203 0.363203
Si Si7 0.561205 0.587652 0.594435
O O1 0.841439 0.760381 0.250000
O O2 0.820395 0.731271 0.389823
O O3 0.903706 0.629552 0.322379
O O4 0.908498 0.840707 0.346198
O O5 0.582336 0.741155 0.250000
O O6 0.500000 0.747183 0.161151
O O7 0.594344 0.743025 0.106720
O O8 0.563856 0.921604 0.180479
O O9 0.341515 0.667445 0.487486
O O10 0.403976 0.525998 0.413343
O O11 0.441559 0.651807 0.517713
O O12 0.829979 0.609237 0.507144
O O13 0.909505 0.514136 0.437113
O O14 0.750000 0.750000 0.500000
O O15 0.000000 0.576978 0.373837
O O16 0.500000 0.561677 0.619187
#
# Coordination Sequence:
#
# PCOD8256848 Si02
#       7
#    16  16  16   8  16  16  16
#     4  10  22  38  56  84 119 151 191 235 283 342
#     4  10  19  30  49  77 112 149 178 217 278 345
#     4  10  19  36  53  78 110 146 195 240 279 331
#     4  10  19  36  58  88 112 144 191 242 284 338
#     4  10  22  39  63  83 107 148 196 251 296 330
#     4  10  19  32  54  85 120 152 182 222 280 346
#     4  10  20  33  55  82 113 155 188 227 279 338
#
# _framework density 18.786207000000001
#
# number of rings (size 3 to 8) (size 9 to 14) (size 15 to 20)
#    0.000    2.000    1.538    3.000    0.000    4.923 
#    0.000    0.769    0.000    3.692    0.000    0.000 
#    0.000    0.000    0.000    0.000    0.000    0.000 
#
# Total GULP energy -644358.129853 kJ/mol
# GULP energy per Si atom -12391.502497 kJ/mol
# Density = 1.874345 g / cm^3
# Si number density = 18.786207 Si / 1000 Ang^3
#
#
#
# Elastic Constant Matrix: (Units=GPa)
#
#
# Indices 1 2 3 4 5 6 
#
# 1 102.2834 30.5348 46.1729 0.0000 0.0000 0.0000
# 2 30.5348 82.6470 39.3227 0.0000 0.0000 0.0000
# 3 46.1729 39.3227 113.9314 0.0000 0.0000 0.0000
# 4 0.0000 0.0000 0.0000 10.4847 0.0000 0.0000
# 5 0.0000 0.0000 0.0000 0.0000 7.5522 0.0000
# 6 0.0000 0.0000 0.0000 0.0000 0.0000 19.7411
#
#
#
# Elastic Compliance Matrix: (Units=1/GPa)
#
#
# Indices 1 2 3 4 5 6 
#
# 1 0.012425 -0.002626 -0.004129 0.000000 0.000000 0.000000
# 2 -0.002626 0.015032 -0.004124 0.000000 0.000000 0.000000
# 3 -0.004129 -0.004124 0.011874 0.000000 0.000000 0.000000
# 4 0.000000 0.000000 0.000000 0.095377 0.000000 0.000000
# 5 0.000000 0.000000 0.000000 0.000000 0.132413 0.000000
# 6 0.000000 0.000000 0.000000 0.000000 0.000000 0.050656
#
#
# Mechanical properties :
#
#
# Convention : Reuss Voigt Hill
#
# Bulk Modulus (GPa) = 56.90624 58.99139 57.94881
# Shear Modulus (GPa) = 14.47635 19.74436 17.11035
#
# Velocity S-wave (km/s) = 2.77895 3.24543 3.02121
# Velocity P-wave (km/s) = 6.37605 6.74636 6.56382
#
# Compressibility (1/GPa) = 0.01757277
#
# Stress axis : x y z
#
# Youngs Moduli (GPa) = 80.48564 66.52484 84.21808
#
# Poissons Ratio (x) = 0.17468 0.34774
# Poissons Ratio (y) = 0.21134 0.34732
# Poissons Ratio (z) = 0.33232 0.27435
#
# Static dielectric constant tensor:
#      x y z
#    x 3.169580 0.000000 0.000000 
#    y 0.000000 3.759120 0.000000 
#    z 0.000000 0.000000 3.323100 
# 
# 
# High freq. dielectric constant tensor:
#      x y z
#    x 1.691840 0.000000 0.000000 
#    y 0.000000 1.738000 0.000000 
#    z 0.000000 0.000000 1.735380 
# 
# From -- ./inp_files/49049.got.cif
#   From: 2010.03.12/outbox.cif.g09.slc.cpg/sg63_25_cif.got.tgz:49049.got - 2010.04.10 19:34:48.
