data_PCOD8256420
_publ_section_title
;
Structure prediction by ZEFSAII (Michael W. Deem and Ramdas Pophale) SiO2 
 PCOD8256420
Probable space group: C M C M
;
_chemical_formula_sum "Si O2"
_cell_formula_units_Z 128
_cell_length_a 17.446976
_cell_length_b 21.405794
_cell_length_c 18.179830
_cell_angle_alpha 90.000000
_cell_angle_beta 90.000000
_cell_angle_gamma 90.000000
_cell_volume 6789.555193
_symmetry_space_group_name_H-M "C M C M"
_symmetry_group_IT_number 63
_symmetry_cell_setting 'orthorhombic'
loop_
_space_group_symop_operation_xyz
x,y,z
-x,-y,1/2+z
x,-y,-z
-x,y,1/2-z
-x,-y,-z
x,y,1/2-z
-x,y,z
x,-y,1/2+z
1/2+x,1/2+y,z
1/2-x,1/2-y,1/2+z
1/2+x,1/2-y,-z
1/2-x,1/2+y,1/2-z
1/2-x,1/2-y,-z
1/2+x,1/2+y,1/2-z
1/2-x,1/2+y,z
1/2+x,1/2-y,1/2+z
loop_
_atom_site_type_symbol
_atom_site_label
_atom_site_fract_x
_atom_site_fract_y
_atom_site_fract_z
Si Si1 0.587864 0.251831 0.558014
Si Si2 0.652639 0.421510 0.829704
Si Si3 0.259247 0.568839 0.526220
Si Si4 0.212394 0.215865 0.167419
Si Si5 0.416054 0.393868 0.977114
Si Si6 0.784954 0.479417 0.332687
Si Si7 0.087364 0.423090 0.833525
Si Si8 0.168278 0.670319 0.436448
O O1 0.500000 0.235594 0.578904
O O2 0.638689 0.249119 0.632524
O O3 0.593825 0.319564 0.521236
O O4 0.619519 0.202970 0.499451
O O5 0.612990 0.433003 0.750000
O O6 0.700001 0.357825 0.826662
O O7 0.714062 0.474616 0.847298
O O8 0.589403 0.419327 0.893252
O O9 0.233744 0.500000 0.500000
O O10 0.351646 0.574834 0.528129
O O11 0.225538 0.577227 0.609035
O O12 0.227902 0.621737 0.472334
O O13 0.227820 0.242933 0.250000
O O14 0.285175 0.222124 0.111853
O O15 0.500000 0.412825 0.007290
O O16 0.784319 0.452175 0.250000
O O17 0.863753 0.515046 0.349704
O O18 0.101650 0.400672 0.750000
O O19 0.108674 0.365503 0.885088
O O20 0.000000 0.442161 0.847894
#
# Coordination Sequence:
#
# PCOD8256420 Si02
#       8
#    16  16  16  16  16  16  16  16
#     4  10  22  38  55  83 116 148 184 232 286 333
#     4   9  15  29  51  76 107 142 179 221 270 322
#     4  12  20  35  56  84 109 144 187 226 275 330
#     4  10  18  32  57  83 107 143 187 234 284 331
#     4  10  20  34  53  80 112 143 178 226 278 323
#     4  10  19  35  53  74 110 148 184 226 269 325
#     4  10  19  32  54  83 112 144 184 235 287 324
#     4  12  20  35  58  83 113 147 188 234 277 336
#
# _framework density 18.852485999999999
#
# number of rings (size 3 to 8) (size 9 to 14) (size 15 to 20)
#    0.000    1.625    6.250    1.125    0.000    0.750 
#    0.000    5.000    0.000    0.375    0.000    3.500 
#    0.000    0.000    0.000    0.000    0.000    0.000 
#
# Total GULP energy -793393.715832 kJ/mol
# GULP energy per Si atom -12396.776810 kJ/mol
# Density = 1.880958 g / cm^3
# Si number density = 18.852486 Si / 1000 Ang^3
#
#
#
# Elastic Constant Matrix: (Units=GPa)
#
#
# Indices 1 2 3 4 5 6 
#
# 1 103.8460 30.4287 54.5862 0.0000 0.0000 0.0000
# 2 30.4287 30.1539 36.1470 0.0000 0.0000 0.0000
# 3 54.5862 36.1470 128.5977 0.0000 0.0000 0.0000
# 4 0.0000 0.0000 0.0000 27.2505 0.0000 0.0000
# 5 0.0000 0.0000 0.0000 0.0000 27.2731 0.0000
# 6 0.0000 0.0000 0.0000 0.0000 0.0000 21.0462
#
#
#
# Elastic Compliance Matrix: (Units=1/GPa)
#
#
# Indices 1 2 3 4 5 6 
#
# 1 0.014431 -0.010889 -0.003065 0.000000 0.000000 0.000000
# 2 -0.010889 0.058232 -0.011746 0.000000 0.000000 0.000000
# 3 -0.003065 -0.011746 0.012379 0.000000 0.000000 0.000000
# 4 0.000000 0.000000 0.000000 0.036697 0.000000 0.000000
# 5 0.000000 0.000000 0.000000 0.000000 0.036666 0.000000
# 6 0.000000 0.000000 0.000000 0.000000 0.000000 0.047514
#
#
# Mechanical properties :
#
#
# Convention : Reuss Voigt Hill
#
# Bulk Modulus (GPa) = 29.72455 56.10238 42.91347
# Shear Modulus (GPa) = 18.61969 24.54301 21.58135
#
# Velocity S-wave (km/s) = 3.14610 3.61202 3.38708
# Velocity P-wave (km/s) = 5.38502 6.87160 6.17322
#
# Compressibility (1/GPa) = 0.03364223
#
# Stress axis : x y z
#
# Youngs Moduli (GPa) = 69.29361 17.17279 80.78248
#
# Poissons Ratio (x) = 0.18699 0.24761
# Poissons Ratio (y) = 0.75451 0.94889
# Poissons Ratio (z) = 0.21239 0.20171
#
# Static dielectric constant tensor:
#      x y z
#    x 3.471430 0.000000 0.000000 
#    y 0.000000 3.109050 0.000000 
#    z 0.000000 0.000000 3.813870 
# 
# 
# High freq. dielectric constant tensor:
#      x y z
#    x 1.728990 0.000000 0.000000 
#    y 0.000000 1.693750 0.000000 
#    z 0.000000 0.000000 1.740110 
# 
# From -- ./inp_files/46347.got.cif
#   From: 2010.03.12/outbox.cif.g09.slc.cpg/sg63_24_cif.got.tgz:46347.got - 2010.04.10 19:34:48.
