data_PCOD8256147
_publ_section_title
;
Structure prediction by ZEFSAII (Michael W. Deem and Ramdas Pophale) SiO2 
 PCOD8256147
Probable space group: C M C M
;
_chemical_formula_sum "Si O2"
_cell_formula_units_Z 96
_cell_length_a 23.049673
_cell_length_b 22.986444
_cell_length_c 9.289939
_cell_angle_alpha 90.000000
_cell_angle_beta 90.000000
_cell_angle_gamma 90.000000
_cell_volume 4922.088544
_symmetry_space_group_name_H-M "C M C M"
_symmetry_group_IT_number 63
_symmetry_cell_setting 'orthorhombic'
loop_
_space_group_symop_operation_xyz
x,y,z
-x,-y,1/2+z
x,-y,-z
-x,y,1/2-z
-x,-y,-z
x,y,1/2-z
-x,y,z
x,-y,1/2+z
1/2+x,1/2+y,z
1/2-x,1/2-y,1/2+z
1/2+x,1/2-y,-z
1/2-x,1/2+y,1/2-z
1/2-x,1/2-y,-z
1/2+x,1/2+y,1/2-z
1/2-x,1/2+y,z
1/2+x,1/2-y,1/2+z
loop_
_atom_site_type_symbol
_atom_site_label
_atom_site_fract_x
_atom_site_fract_y
_atom_site_fract_z
Si Si1 0.874213 0.746474 0.912503
Si Si2 0.666709 0.143169 0.418389
Si Si3 0.000000 0.124074 0.578712
Si Si4 0.500000 0.739772 0.411871
Si Si5 0.113175 0.880235 0.581190
Si Si6 0.768638 0.058897 0.081191
Si Si7 0.434245 0.058279 0.082297
O O1 0.851807 0.740635 0.750000
O O2 0.941030 0.723196 0.928450
O O3 0.871539 0.813714 0.961585
O O4 0.832684 0.706583 0.008639
O O5 0.667566 0.154354 0.250000
O O6 0.723352 0.108120 0.468804
O O7 0.609091 0.108861 0.467601
O O8 0.941762 0.095913 0.510027
O O9 0.000000 0.115681 0.750000
O O10 0.000000 0.191481 0.535643
O O11 0.500000 0.710739 0.250000
O O12 0.098480 0.883955 0.750000
O O13 0.167172 0.920421 0.539076
O O14 0.762342 0.047276 0.250000
O O15 0.753194 0.000000 0.000000
O O16 0.426345 0.044938 0.250000
O O17 0.500000 0.077636 0.045771
O O18 0.416857 0.000000 0.000000
#
# Coordination Sequence:
#
# PCOD8256147 Si02
#       7
#    16  16   8   8  16  16  16
#     4   9  18  32  52  78 107 145 185 220 263 326
#     4  10  21  34  50  77 111 143 180 228 279 321
#     4  10  18  30  55  89 114 135 172 218 263 318
#     4   8  16  32  50  73 112 153 184 216 265 322
#     4   9  19  38  59  79 112 150 179 215 273 332
#     4  10  22  40  60  80 105 143 186 230 278 329
#     4   9  18  32  48  68  98 137 179 226 275 316
#
# _framework density 19.503916
#
# number of rings (size 3 to 8) (size 9 to 14) (size 15 to 20)
#    0.000    2.667    0.000    2.250    1.167    5.333 
#    0.000    0.417    0.000    0.000    0.000    0.000 
#    0.000    0.000    0.000    0.000    0.000    0.000 
#
# Total GULP energy -595056.710362 kJ/mol
# GULP energy per Si atom -12397.014799 kJ/mol
# Density = 1.945952 g / cm^3
# Si number density = 19.503916 Si / 1000 Ang^3
#
#
#
# Elastic Constant Matrix: (Units=GPa)
#
#
# Indices 1 2 3 4 5 6 
#
# 1 87.6758 15.6431 30.2869 0.0000 0.0000 0.0000
# 2 15.6431 37.7166 17.1709 0.0000 0.0000 0.0000
# 3 30.2869 17.1709 50.5475 0.0000 0.0000 0.0000
# 4 0.0000 0.0000 0.0000 25.0667 0.0000 0.0000
# 5 0.0000 0.0000 0.0000 0.0000 22.6365 0.0000
# 6 0.0000 0.0000 0.0000 0.0000 0.0000 24.4988
#
#
#
# Elastic Compliance Matrix: (Units=1/GPa)
#
#
# Indices 1 2 3 4 5 6 
#
# 1 0.014571 -0.002447 -0.007899 0.000000 0.000000 0.000000
# 2 -0.002447 0.031775 -0.009328 0.000000 0.000000 0.000000
# 3 -0.007899 -0.009328 0.027685 0.000000 0.000000 0.000000
# 4 0.000000 0.000000 0.000000 0.039894 0.000000 0.000000
# 5 0.000000 0.000000 0.000000 0.000000 0.044176 0.000000
# 6 0.000000 0.000000 0.000000 0.000000 0.000000 0.040818
#
#
# Mechanical properties :
#
#
# Convention : Reuss Voigt Hill
#
# Bulk Modulus (GPa) = 28.83269 33.57128 31.20199
# Shear Modulus (GPa) = 20.01372 21.96299 20.98836
#
# Velocity S-wave (km/s) = 3.20682 3.35935 3.28397
# Velocity P-wave (km/s) = 5.34104 5.68304 5.51469
#
# Compressibility (1/GPa) = 0.03468286
#
# Stress axis : x y z
#
# Youngs Moduli (GPa) = 68.62930 31.47135 36.12057
#
# Poissons Ratio (x) = 0.07701 0.28533
# Poissons Ratio (y) = 0.16795 0.33692
# Poissons Ratio (z) = 0.54213 0.29355
#
# Static dielectric constant tensor:
#      x y z
#    x 3.805000 0.000000 0.000000 
#    y 0.000000 3.266450 0.000000 
#    z 0.000000 0.000000 3.358350 
# 
# 
# High freq. dielectric constant tensor:
#      x y z
#    x 1.770080 0.000000 0.000000 
#    y 0.000000 1.735830 0.000000 
#    z 0.000000 0.000000 1.745440 
# 
# From -- ./inp_files/10558.got.cif
#   From: 2010.03.12/outbox.cif.g09.slc.cpg/sg63_6_cif.got.tgz:10558.got - 2010.04.10 19:34:48.
