data_PCOD8256839
_publ_section_title
;
Structure prediction by ZEFSAII (Michael W. Deem and Ramdas Pophale) SiO2 
 PCOD8256839
Probable space group: C M C M
;
_chemical_formula_sum "Si O2"
_cell_formula_units_Z 80
_cell_length_a 18.708875
_cell_length_b 13.112489
_cell_length_c 18.036576
_cell_angle_alpha 90.000000
_cell_angle_beta 90.000000
_cell_angle_gamma 90.000000
_cell_volume 4424.731339
_symmetry_space_group_name_H-M "C M C M"
_symmetry_group_IT_number 63
_symmetry_cell_setting 'orthorhombic'
loop_
_space_group_symop_operation_xyz
x,y,z
-x,-y,1/2+z
x,-y,-z
-x,y,1/2-z
-x,-y,-z
x,y,1/2-z
-x,y,z
x,-y,1/2+z
1/2+x,1/2+y,z
1/2-x,1/2-y,1/2+z
1/2+x,1/2-y,-z
1/2-x,1/2+y,1/2-z
1/2-x,1/2-y,-z
1/2+x,1/2+y,1/2-z
1/2-x,1/2+y,z
1/2+x,1/2-y,1/2+z
loop_
_atom_site_type_symbol
_atom_site_label
_atom_site_fract_x
_atom_site_fract_y
_atom_site_fract_z
Si Si1 0.315209 0.109075 0.462243
Si Si2 0.160742 0.806853 0.955826
Si Si3 0.915677 0.089636 0.331839
Si Si4 0.417648 0.380605 0.095790
Si Si5 0.917543 0.335080 0.664722
O O1 0.239921 0.155055 0.435794
O O2 0.345538 0.187745 0.523406
O O3 0.367517 0.100394 0.391031
O O4 0.307214 0.000000 0.500000
O O5 0.113539 0.819908 0.882741
O O6 0.130004 0.874543 0.022560
O O7 0.883853 0.105102 0.250000
O O8 0.000000 0.095625 0.330523
O O9 0.890300 0.979609 0.360941
O O10 0.500000 0.390432 0.071036
O O11 0.406139 0.284763 0.149727
O O12 0.896425 0.358056 0.750000
O O13 0.000000 0.365619 0.649998
#
# Coordination Sequence:
#
# PCOD8256839 Si02
#       5
#    16  16  16  16  16
#     4  10  21  36  53  73  97 127 165 206 246 291
#     4  10  20  34  52  73  99 131 165 201 242 291
#     4  10  19  30  48  77 109 135 159 194 244 297
#     4   9  16  29  52  77 101 131 165 201 240 284
#     4   9  18  33  52  74  98 126 166 211 247 282
#
# _framework density 18.080195
#
# number of rings (size 3 to 8) (size 9 to 14) (size 15 to 20)
#    0.000    2.400    0.000    3.000    0.000    6.000 
#    0.000    1.000    0.000    3.600    0.000    0.000 
#    0.000    0.000    0.000    0.000    0.000    0.000 
#
# Total GULP energy -496034.142001 kJ/mol
# GULP energy per Si atom -12400.853550 kJ/mol
# Density = 1.803904 g / cm^3
# Si number density = 18.080195 Si / 1000 Ang^3
#
#
#
# Elastic Constant Matrix: (Units=GPa)
#
#
# Indices 1 2 3 4 5 6 
#
# 1 45.5176 11.6660 38.2638 0.0000 0.0000 0.0000
# 2 11.6660 73.9856 39.6318 0.0000 0.0000 0.0000
# 3 38.2638 39.6318 124.9070 0.0000 0.0000 0.0000
# 4 0.0000 0.0000 0.0000 17.1005 0.0000 0.0000
# 5 0.0000 0.0000 0.0000 0.0000 6.3234 0.0000
# 6 0.0000 0.0000 0.0000 0.0000 0.0000 24.5260
#
#
#
# Elastic Compliance Matrix: (Units=1/GPa)
#
#
# Indices 1 2 3 4 5 6 
#
# 1 0.029593 0.000229 -0.009138 0.000000 0.000000 0.000000
# 2 0.000229 0.016286 -0.005237 0.000000 0.000000 0.000000
# 3 -0.009138 -0.005237 0.012467 0.000000 0.000000 0.000000
# 4 0.000000 0.000000 0.000000 0.058478 0.000000 0.000000
# 5 0.000000 0.000000 0.000000 0.000000 0.158144 0.000000
# 6 0.000000 0.000000 0.000000 0.000000 0.000000 0.040773
#
#
# Mechanical properties :
#
#
# Convention : Reuss Voigt Hill
#
# Bulk Modulus (GPa) = 33.27546 47.05926 40.16736
# Shear Modulus (GPa) = 14.12230 19.91323 17.01776
#
# Velocity S-wave (km/s) = 2.79783 3.32231 3.07129
# Velocity P-wave (km/s) = 5.37415 6.38761 5.90267
#
# Compressibility (1/GPa) = 0.03005218
#
# Stress axis : x y z
#
# Youngs Moduli (GPa) = 33.79221 61.40417 80.21169
#
# Poissons Ratio (x) = -0.01405 0.73297
# Poissons Ratio (y) = -0.00773 0.42009
# Poissons Ratio (z) = 0.30879 0.32159
#
# Static dielectric constant tensor:
#      x y z
#    x 3.363140 0.000000 0.000000 
#    y 0.000000 3.213180 0.000000 
#    z 0.000000 0.000000 3.454070 
# 
# 
# High freq. dielectric constant tensor:
#      x y z
#    x 1.698160 0.000000 0.000000 
#    y 0.000000 1.683140 0.000000 
#    z 0.000000 0.000000 1.700440 
# 
# From -- ./inp_files/45394.got.cif
#   From: 2010.03.12/outbox.cif.g09.slc.cpg/sg63_23_cif.got.tgz:45394.got - 2010.04.10 19:34:48.
