data_PCOD8256342
_publ_section_title
;
Structure prediction by ZEFSAII (Michael W. Deem and Ramdas Pophale) SiO2 
 PCOD8256342
Probable space group: C M C M
;
_chemical_formula_sum "Si O2"
_cell_formula_units_Z 72
_cell_length_a 11.825576
_cell_length_b 23.303424
_cell_length_c 14.406050
_cell_angle_alpha 90.000000
_cell_angle_beta 90.000000
_cell_angle_gamma 90.000000
_cell_volume 3969.967564
_symmetry_space_group_name_H-M "C M C M"
_symmetry_group_IT_number 63
_symmetry_cell_setting 'orthorhombic'
loop_
_space_group_symop_operation_xyz
x,y,z
-x,-y,1/2+z
x,-y,-z
-x,y,1/2-z
-x,-y,-z
x,y,1/2-z
-x,y,z
x,-y,1/2+z
1/2+x,1/2+y,z
1/2-x,1/2-y,1/2+z
1/2+x,1/2-y,-z
1/2-x,1/2+y,1/2-z
1/2-x,1/2-y,-z
1/2+x,1/2+y,1/2-z
1/2-x,1/2+y,z
1/2+x,1/2-y,1/2+z
loop_
_atom_site_type_symbol
_atom_site_label
_atom_site_fract_x
_atom_site_fract_y
_atom_site_fract_z
Si Si1 0.126283 0.917324 0.250000
Si Si2 0.632537 0.560699 0.547418
Si Si3 0.130335 0.667356 0.250000
Si Si4 0.251187 0.160716 0.063468
Si Si5 0.291121 0.705510 0.750000
Si Si6 0.627659 0.773071 0.087013
O O1 0.180954 0.940829 0.346242
O O2 0.125011 0.848148 0.250000
O O3 0.000000 0.940861 0.250000
O O4 0.652503 0.500000 0.500000
O O5 0.500000 0.578174 0.546760
O O6 0.705045 0.605716 0.489339
O O7 0.195012 0.641326 0.338878
O O8 0.136382 0.736550 0.250000
O O9 0.000000 0.647919 0.250000
O O10 0.147462 0.204894 0.077205
O O11 0.351064 0.193880 0.009166
O O12 0.212735 0.700053 0.839453
O O13 0.500000 0.782991 0.119816
#
# Coordination Sequence:
#
# PCOD8256342 Si02
#       6
#     8  16   8  16   8  16
#     4  10  19  34  56  81 111 140 176 223 265 324
#     4  10  21  37  58  84 111 144 183 224 274 324
#     4  10  21  34  52  79 111 151 188 222 272 332
#     4  10  20  34  52  78 110 146 182 224 272 325
#     4  10  18  32  52  82 108 141 182 219 275 326
#     4  10  19  31  51  79 112 141 174 223 277 328
#
# _framework density 18.136168999999999
#
# number of rings (size 3 to 8) (size 9 to 14) (size 15 to 20)
#    0.000    2.000    2.222    2.000    0.000    0.889 
#    0.000    2.778    0.000    2.667    0.000    0.000 
#    0.000    0.000    0.000    0.000    0.000    0.000 
#
# Total GULP energy -446341.709452 kJ/mol
# GULP energy per Si atom -12398.380818 kJ/mol
# Density = 1.809489 g / cm^3
# Si number density = 18.136169 Si / 1000 Ang^3
#
#
#
# Elastic Constant Matrix: (Units=GPa)
#
#
# Indices 1 2 3 4 5 6 
#
# 1 75.0630 24.5904 37.5532 0.0000 0.0000 0.0000
# 2 24.5904 75.3706 51.6364 0.0000 0.0000 0.0000
# 3 37.5532 51.6364 165.2378 0.0000 0.0000 0.0000
# 4 0.0000 0.0000 0.0000 28.5321 0.0000 0.0000
# 5 0.0000 0.0000 0.0000 0.0000 -15.0506 0.0000
# 6 0.0000 0.0000 0.0000 0.0000 0.0000 16.2768
#
#
#
# Elastic Compliance Matrix: (Units=1/GPa)
#
#
# Indices 1 2 3 4 5 6 
#
# 1 0.015689 -0.003405 -0.002502 0.000000 0.000000 0.000000
# 2 -0.003405 0.017621 -0.004733 0.000000 0.000000 0.000000
# 3 -0.002502 -0.004733 0.008099 0.000000 0.000000 0.000000
# 4 0.000000 0.000000 0.000000 0.035048 0.000000 0.000000
# 5 0.000000 0.000000 0.000000 0.000000 -0.066442 0.000000
# 6 0.000000 0.000000 0.000000 0.000000 0.000000 0.061437
#
#
# Mechanical properties :
#
#
# Convention : Reuss Voigt Hill
#
# Bulk Modulus (GPa) = 49.67432 60.35904 55.01668
# Shear Modulus (GPa) = 50.28095 19.41108 34.84602
#
# Velocity S-wave (km/s) = 5.27108 3.27509 4.38808
# Velocity P-wave (km/s) = 8.03087 6.90325 7.48832
#
# Compressibility (1/GPa) = 0.02013112
#
# Stress axis : x y z
#
# Youngs Moduli (GPa) = 63.73851 56.75044 123.46632
#
# Poissons Ratio (x) = 0.19323 0.30886
# Poissons Ratio (y) = 0.21702 0.58433
# Poissons Ratio (z) = 0.15945 0.26858
#
# Static dielectric constant tensor:
#      x y z
#    x 3.043540 0.000000 0.000000 
#    y 0.000000 3.051980 0.000000 
#    z 0.000000 0.000000 3.722960 
# 
# 
# High freq. dielectric constant tensor:
#      x y z
#    x 1.681650 0.000000 0.000000 
#    y 0.000000 1.673880 0.000000 
#    z 0.000000 0.000000 1.728290 
# 
# From -- ./inp_files/29643.got.cif
#   From: 2010.03.12/outbox.cif.g09.slc.cpg/sg63_15_cif.got.tgz:29643.got - 2010.04.10 19:34:48.
