data_PCOD8256006
_publ_section_title
;
Structure prediction by ZEFSAII (Michael W. Deem and Ramdas Pophale) SiO2 
 PCOD8256006
Probable space group: C M C M
;
_chemical_formula_sum "Si O2"
_cell_formula_units_Z 72
_cell_length_a 33.385158
_cell_length_b 14.201986
_cell_length_c 9.024516
_cell_angle_alpha 90.000000
_cell_angle_beta 90.000000
_cell_angle_gamma 90.000000
_cell_volume 4278.843826
_symmetry_space_group_name_H-M "C M C M"
_symmetry_group_IT_number 63
_symmetry_cell_setting 'orthorhombic'
loop_
_space_group_symop_operation_xyz
x,y,z
-x,-y,1/2+z
x,-y,-z
-x,y,1/2-z
-x,-y,-z
x,y,1/2-z
-x,y,z
x,-y,1/2+z
1/2+x,1/2+y,z
1/2-x,1/2-y,1/2+z
1/2+x,1/2-y,-z
1/2-x,1/2+y,1/2-z
1/2-x,1/2-y,-z
1/2+x,1/2+y,1/2-z
1/2-x,1/2+y,z
1/2+x,1/2-y,1/2+z
loop_
_atom_site_type_symbol
_atom_site_label
_atom_site_fract_x
_atom_site_fract_y
_atom_site_fract_z
Si Si1 0.421486 0.600212 0.925048
Si Si2 0.766532 0.159919 0.081260
Si Si3 0.000000 0.103263 0.071528
Si Si4 0.159849 0.796164 0.077580
Si Si5 0.317408 0.090411 0.417880
O O1 0.429519 0.585816 0.750000
O O2 0.384775 0.669788 0.955267
O O3 0.412079 0.500000 0.000000
O O4 0.459613 0.650389 0.005666
O O5 0.776251 0.184465 0.250000
O O6 0.731190 0.082976 0.069653
O O7 0.750000 0.250000 0.000000
O O8 0.808620 0.132738 0.002638
O O9 0.000000 0.102919 0.250000
O O10 0.000000 0.000000 0.000000
O O11 0.170544 0.799294 0.250000
O O12 0.165433 0.689092 0.016654
O O13 0.331830 0.082883 0.250000
O O14 0.336050 0.000000 0.500000
#
# Coordination Sequence:
#
# PCOD8256006 Si02
#       5
#    16  16   8  16  16
#     4  10  19  32  49  69  95 124 151 183 224 272
#     4   9  17  29  44  61  85 115 150 189 228 267
#     4  10  18  30  48  70  95 120 149 182 219 272
#     4   9  19  33  47  66  93 121 153 190 228 271
#     4   9  18  31  45  64  88 119 156 191 227 267
#
# _framework density 16.826975999999998
#
# number of rings (size 3 to 8) (size 9 to 14) (size 15 to 20)
#    0.000    2.667    0.000    5.000    0.000    7.111 
#    0.000    4.444    0.000    0.000    0.000    0.778 
#    0.000    0.000    0.000    0.000    0.000    0.000 
#
# Total GULP energy -446016.819014 kJ/mol
# GULP energy per Si atom -12389.356084 kJ/mol
# Density = 1.678868 g / cm^3
# Si number density = 16.826976 Si / 1000 Ang^3
#
#
#
# Elastic Constant Matrix: (Units=GPa)
#
#
# Indices 1 2 3 4 5 6 
#
# 1 120.4127 37.2988 55.1994 0.0000 0.0000 0.0000
# 2 37.2988 60.5388 31.6314 0.0000 0.0000 0.0000
# 3 55.1994 31.6314 96.3921 0.0000 0.0000 0.0000
# 4 0.0000 0.0000 0.0000 22.0408 0.0000 0.0000
# 5 0.0000 0.0000 0.0000 0.0000 28.5037 0.0000
# 6 0.0000 0.0000 0.0000 0.0000 0.0000 18.9751
#
#
#
# Elastic Compliance Matrix: (Units=1/GPa)
#
#
# Indices 1 2 3 4 5 6 
#
# 1 0.012275 -0.004695 -0.005489 0.000000 0.000000 0.000000
# 2 -0.004695 0.021732 -0.004443 0.000000 0.000000 0.000000
# 3 -0.005489 -0.004443 0.014975 0.000000 0.000000 0.000000
# 4 0.000000 0.000000 0.000000 0.045370 0.000000 0.000000
# 5 0.000000 0.000000 0.000000 0.000000 0.035083 0.000000
# 6 0.000000 0.000000 0.000000 0.000000 0.000000 0.052701
#
#
# Mechanical properties :
#
#
# Convention : Reuss Voigt Hill
#
# Bulk Modulus (GPa) = 50.68531 58.40031 54.54281
# Shear Modulus (GPa) = 22.93919 24.11818 23.52869
#
# Velocity S-wave (km/s) = 3.69621 3.79001 3.74340
# Velocity P-wave (km/s) = 6.95721 7.34397 7.15321
#
# Compressibility (1/GPa) = 0.01972958
#
# Stress axis : x y z
#
# Youngs Moduli (GPa) = 81.46456 46.01413 66.77605
#
# Poissons Ratio (x) = 0.21604 0.36652
# Poissons Ratio (y) = 0.38248 0.29668
# Poissons Ratio (z) = 0.44714 0.20444
#
# Static dielectric constant tensor:
#      x y z
#    x 3.653650 0.000000 0.000000 
#    y 0.000000 2.894690 0.000000 
#    z 0.000000 0.000000 3.597880 
# 
# 
# High freq. dielectric constant tensor:
#      x y z
#    x 1.641370 0.000000 0.000000 
#    y 0.000000 1.609080 0.000000 
#    z 0.000000 0.000000 1.660240 
# 
# From -- ./inp_files/11913.got.cif
#   From: 2010.03.12/outbox.cif.g09.slc.cpg/sg63_6_cif.got.tgz:11913.got - 2010.04.10 19:34:48.
