data_PCOD8256220
_publ_section_title
;
Structure prediction by ZEFSAII (Michael W. Deem and Ramdas Pophale) SiO2 
 PCOD8256220
Probable space group: C M C M
;
_chemical_formula_sum "Si O2"
_cell_formula_units_Z 88
_cell_length_a 12.353195
_cell_length_b 27.571016
_cell_length_c 15.258493
_cell_angle_alpha 90.000000
_cell_angle_beta 90.000000
_cell_angle_gamma 90.000000
_cell_volume 5196.892221
_symmetry_space_group_name_H-M "C M C M"
_symmetry_group_IT_number 63
_symmetry_cell_setting 'orthorhombic'
loop_
_space_group_symop_operation_xyz
x,y,z
-x,-y,1/2+z
x,-y,-z
-x,y,1/2-z
-x,-y,-z
x,y,1/2-z
-x,y,z
x,-y,1/2+z
1/2+x,1/2+y,z
1/2-x,1/2-y,1/2+z
1/2+x,1/2-y,-z
1/2-x,1/2+y,1/2-z
1/2-x,1/2-y,-z
1/2+x,1/2+y,1/2-z
1/2-x,1/2+y,z
1/2+x,1/2-y,1/2+z
loop_
_atom_site_type_symbol
_atom_site_label
_atom_site_fract_x
_atom_site_fract_y
_atom_site_fract_z
Si Si1 0.258513 0.327591 0.750000
Si Si2 0.371895 0.000937 0.900965
Si Si3 0.129616 0.428017 0.750000
Si Si4 0.872771 0.788724 0.913161
Si Si5 0.877743 0.605899 0.849965
Si Si6 0.249214 0.193028 0.909393
Si Si7 0.126145 0.769785 0.250000
O O1 0.192406 0.377422 0.750000
O O2 0.335547 0.323727 0.834641
O O3 0.173378 0.284073 0.750000
O O4 0.500000 0.998094 0.905180
O O5 0.333947 0.051232 0.857469
O O6 0.332882 0.957241 0.837648
O O7 0.323489 0.000000 0.000000
O O8 0.000000 0.419493 0.750000
O O9 0.843607 0.732715 0.894196
O O10 0.000000 0.793841 0.927599
O O11 0.808296 0.804739 0.998163
O O12 0.873154 0.623417 0.750000
O O13 0.802869 0.640388 0.907417
O O14 0.000000 0.608909 0.886598
O O15 0.159682 0.199670 0.834862
O O16 0.000000 0.763068 0.250000
#
# Coordination Sequence:
#
# PCOD8256220 Si02
#       7
#     8  16   8  16  16  16   8
#     4  10  22  34  52  76  98 142 182 206 252 302
#     4   9  18  31  49  73 104 137 163 200 257 309
#     4  10  19  34  50  75 109 134 166 211 255 309
#     4  10  21  37  52  73 105 137 175 217 249 296
#     4  10  18  31  51  78 109 136 165 205 252 309
#     4  10  20  33  53  79 103 135 173 205 256 310
#     4  10  19  34  50  73 107 136 168 211 253 297
#
# _framework density 16.933195999999999
#
# number of rings (size 3 to 8) (size 9 to 14) (size 15 to 20)
#    0.000    2.182    1.818    1.636    2.545    0.000 
#    0.000    1.818    0.000    0.000    0.000    8.909 
#    0.000    0.000    0.000    0.000    0.000    0.000 
#
# Total GULP energy -545549.371568 kJ/mol
# GULP energy per Si atom -12398.849354 kJ/mol
# Density = 1.689466 g / cm^3
# Si number density = 16.933196 Si / 1000 Ang^3
#
#
#
# Elastic Constant Matrix: (Units=GPa)
#
#
# Indices 1 2 3 4 5 6 
#
# 1 66.7553 39.1065 15.1204 0.0000 0.0000 0.0000
# 2 39.1065 100.4173 33.7194 0.0000 0.0000 0.0000
# 3 15.1204 33.7194 103.7764 0.0000 0.0000 0.0000
# 4 0.0000 0.0000 0.0000 33.5716 0.0000 0.0000
# 5 0.0000 0.0000 0.0000 0.0000 36.7783 0.0000
# 6 0.0000 0.0000 0.0000 0.0000 0.0000 25.9692
#
#
#
# Elastic Compliance Matrix: (Units=1/GPa)
#
#
# Indices 1 2 3 4 5 6 
#
# 1 0.019424 -0.007424 -0.000418 0.000000 0.000000 0.000000
# 2 -0.007424 0.014016 -0.003472 0.000000 0.000000 0.000000
# 3 -0.000418 -0.003472 0.010825 0.000000 0.000000 0.000000
# 4 0.000000 0.000000 0.000000 0.029787 0.000000 0.000000
# 5 0.000000 0.000000 0.000000 0.000000 0.027190 0.000000
# 6 0.000000 0.000000 0.000000 0.000000 0.000000 0.038507
#
#
# Mechanical properties :
#
#
# Convention : Reuss Voigt Hill
#
# Bulk Modulus (GPa) = 46.21871 49.64906 47.93388
# Shear Modulus (GPa) = 29.48293 31.46401 30.47347
#
# Velocity S-wave (km/s) = 4.17721 4.31528 4.24681
# Velocity P-wave (km/s) = 7.11474 7.36295 7.23991
#
# Compressibility (1/GPa) = 0.02163626
#
# Stress axis : x y z
#
# Youngs Moduli (GPa) = 51.48288 71.34868 92.37696
#
# Poissons Ratio (x) = 0.52970 0.03860
# Poissons Ratio (y) = 0.38222 0.32076
# Poissons Ratio (z) = 0.02151 0.24774
#
# Static dielectric constant tensor:
#      x y z
#    x 2.839950 0.000000 0.000000 
#    y 0.000000 3.136040 0.000000 
#    z 0.000000 0.000000 3.396080 
# 
# 
# High freq. dielectric constant tensor:
#      x y z
#    x 1.618320 0.000000 0.000000 
#    y 0.000000 1.648940 0.000000 
#    z 0.000000 0.000000 1.671020 
# 
# From -- ./inp_files/30179.got.cif
#   From: 2010.03.12/outbox.cif.g09.slc.cpg/sg63_16_cif.got.tgz:30179.got - 2010.04.10 19:34:48.
