data_PCOD8256557
_publ_section_title
;
Structure prediction by ZEFSAII (Michael W. Deem and Ramdas Pophale) SiO2 
 PCOD8256557
Probable space group: C M C M
;
_chemical_formula_sum "Si O2"
_cell_formula_units_Z 96
_cell_length_a 23.528221
_cell_length_b 25.602272
_cell_length_c 8.712116
_cell_angle_alpha 90.000000
_cell_angle_beta 90.000000
_cell_angle_gamma 90.000000
_cell_volume 5247.968836
_symmetry_space_group_name_H-M "C M C M"
_symmetry_group_IT_number 63
_symmetry_cell_setting 'orthorhombic'
loop_
_space_group_symop_operation_xyz
x,y,z
-x,-y,1/2+z
x,-y,-z
-x,y,1/2-z
-x,-y,-z
x,y,1/2-z
-x,y,z
x,-y,1/2+z
1/2+x,1/2+y,z
1/2-x,1/2-y,1/2+z
1/2+x,1/2-y,-z
1/2-x,1/2+y,1/2-z
1/2-x,1/2-y,-z
1/2+x,1/2+y,1/2-z
1/2-x,1/2+y,z
1/2+x,1/2-y,1/2+z
loop_
_atom_site_type_symbol
_atom_site_label
_atom_site_fract_x
_atom_site_fract_y
_atom_site_fract_z
Si Si1 0.620225 0.652168 0.067892
Si Si2 0.311663 0.751232 0.068801
Si Si3 0.386088 0.848651 0.068149
Si Si4 0.500000 0.806221 0.568383
Si Si5 0.320506 0.055588 0.068247
Si Si6 0.000000 0.190805 0.068381
Si Si7 0.690464 0.554785 0.069201
O O1 0.624844 0.651476 0.250000
O O2 0.653567 0.702132 0.002177
O O3 0.554642 0.657122 0.015959
O O4 0.648984 0.599600 0.001384
O O5 0.307294 0.747870 0.250000
O O6 0.342752 0.803669 0.015363
O O7 0.250000 0.750000 0.000000
O O8 0.394037 0.849638 0.250000
O O9 0.446115 0.838183 0.990445
O O10 0.361824 0.903110 0.009612
O O11 0.500000 0.804596 0.750000
O O12 0.500000 0.747385 0.507064
O O13 0.329082 0.055840 0.250000
O O14 0.255242 0.068308 0.022740
O O15 0.338285 0.000000 0.000000
O O16 0.000000 0.200779 0.250000
O O17 0.684642 0.550452 0.250000
O O18 0.670431 0.500000 0.000000
#
# Coordination Sequence:
#
# PCOD8256557 Si02
#       7
#    16  16  16   8  16   8  16
#     4   9  17  32  54  77 103 142 186 227 272 327
#     4  10  20  33  52  79 110 141 179 227 279 335
#     4  11  22  38  59  82 111 148 189 228 277 337
#     4  12  24  38  57  82 113 148 187 231 281 329
#     4  10  20  36  58  83 114 147 185 231 280 334
#     4  10  18  36  59  76 104 146 192 229 274 337
#     4   9  18  33  54  79 110 146 185 227 277 331
#
# _framework density 18.292791999999999
#
# number of rings (size 3 to 8) (size 9 to 14) (size 15 to 20)
#    0.000    2.000    1.667    2.750    0.000    3.333 
#    0.000    2.500    0.000    0.000    0.000    0.000 
#    0.000    0.000    0.000    0.000    0.000    0.000 
#
# Total GULP energy -595265.978395 kJ/mol
# GULP energy per Si atom -12401.374550 kJ/mol
# Density = 1.825116 g / cm^3
# Si number density = 18.292792 Si / 1000 Ang^3
#
#
#
# Elastic Constant Matrix: (Units=GPa)
#
#
# Indices 1 2 3 4 5 6 
#
# 1 160.4899 90.6007 40.8467 0.0000 0.0000 0.0000
# 2 90.6007 157.6710 39.7165 0.0000 0.0000 0.0000
# 3 40.8467 39.7165 47.2526 0.0000 0.0000 0.0000
# 4 0.0000 0.0000 0.0000 28.9032 0.0000 0.0000
# 5 0.0000 0.0000 0.0000 0.0000 24.7384 0.0000
# 6 0.0000 0.0000 0.0000 0.0000 0.0000 31.9801
#
#
#
# Elastic Compliance Matrix: (Units=1/GPa)
#
#
# Indices 1 2 3 4 5 6 
#
# 1 0.010029 -0.004541 -0.004853 0.000000 0.000000 0.000000
# 2 -0.004541 0.010101 -0.004565 0.000000 0.000000 0.000000
# 3 -0.004853 -0.004565 0.029196 0.000000 0.000000 0.000000
# 4 0.000000 0.000000 0.000000 0.034598 0.000000 0.000000
# 5 0.000000 0.000000 0.000000 0.000000 0.040423 0.000000
# 6 0.000000 0.000000 0.000000 0.000000 0.000000 0.031269
#
#
# Mechanical properties :
#
#
# Convention : Reuss Voigt Hill
#
# Bulk Modulus (GPa) = 46.71203 78.63794 62.67498
# Shear Modulus (GPa) = 26.22311 30.07431 28.14871
#
# Velocity S-wave (km/s) = 3.79029 4.05909 3.92699
# Velocity P-wave (km/s) = 6.68927 8.06536 7.40933
#
# Compressibility (1/GPa) = 0.02140776
#
# Stress axis : x y z
#
# Youngs Moduli (GPa) = 99.70665 98.99614 34.25185
#
# Poissons Ratio (x) = 0.44950 0.16624
# Poissons Ratio (y) = 0.45272 0.15637
# Poissons Ratio (z) = 0.48391 0.45195
#
# Static dielectric constant tensor:
#      x y z
#    x 3.701890 0.000000 0.000000 
#    y 0.000000 3.527390 0.000000 
#    z 0.000000 0.000000 3.214370 
# 
# 
# High freq. dielectric constant tensor:
#      x y z
#    x 1.713840 0.000000 0.000000 
#    y 0.000000 1.715260 0.000000 
#    z 0.000000 0.000000 1.694640 
# 
# From -- ./inp_files/10526.got.cif
#   From: 2010.03.12/outbox.cif.g09.slc.cpg/sg63_6_cif.got.tgz:10526.got - 2010.04.10 19:34:48.
