data_PCOD8256248
_publ_section_title
;
Structure prediction by ZEFSAII (Michael W. Deem and Ramdas Pophale) SiO2 
 PCOD8256248
Probable space group: C M C M
;
_chemical_formula_sum "Si O2"
_cell_formula_units_Z 80
_cell_length_a 9.163117
_cell_length_b 20.700142
_cell_length_c 23.126300
_cell_angle_alpha 90.000000
_cell_angle_beta 90.000000
_cell_angle_gamma 90.000000
_cell_volume 4386.546239
_symmetry_space_group_name_H-M "C M C M"
_symmetry_group_IT_number 63
_symmetry_cell_setting 'orthorhombic'
loop_
_space_group_symop_operation_xyz
x,y,z
-x,-y,1/2+z
x,-y,-z
-x,y,1/2-z
-x,-y,-z
x,y,1/2-z
-x,y,z
x,-y,1/2+z
1/2+x,1/2+y,z
1/2-x,1/2-y,1/2+z
1/2+x,1/2-y,-z
1/2-x,1/2+y,1/2-z
1/2-x,1/2-y,-z
1/2+x,1/2+y,1/2-z
1/2-x,1/2+y,z
1/2+x,1/2-y,1/2+z
loop_
_atom_site_type_symbol
_atom_site_label
_atom_site_fract_x
_atom_site_fract_y
_atom_site_fract_z
Si Si1 0.169859 0.741613 0.126350
Si Si2 0.673085 0.375403 0.073612
Si Si3 0.826505 0.993736 0.628069
Si Si4 0.673388 0.630064 0.057470
Si Si5 0.326922 0.444888 0.750000
Si Si6 0.667063 0.189222 0.250000
O O1 0.224638 0.813002 0.109402
O O2 0.259744 0.691079 0.089231
O O3 0.201136 0.732844 0.194215
O O4 0.000000 0.732539 0.111450
O O5 0.500000 0.380928 0.073020
O O6 0.739498 0.439215 0.104123
O O7 0.731085 0.370997 0.008149
O O8 0.770610 0.935157 0.588153
O O9 0.770420 0.982978 0.693533
O O10 0.000000 0.996044 0.626662
O O11 0.500000 0.636050 0.060756
O O12 0.500000 0.439191 0.750000
O O13 0.268852 0.372593 0.750000
O O14 0.500000 0.165458 0.250000
#
# Coordination Sequence:
#
# PCOD8256248 Si02
#       6
#    16  16  16  16   8   8
#     4  10  20  33  50  72  99 132 166 199 241 290
#     4   9  18  31  48  74 103 129 160 201 246 290
#     4   9  17  29  49  76 100 124 160 204 246 284
#     4  10  18  31  53  75  99 130 163 201 243 287
#     4  10  18  31  53  77  95 121 164 210 244 282
#     4  10  20  33  49  69  97 131 162 198 242 292
#
# _framework density 18.237583000000001
#
# number of rings (size 3 to 8) (size 9 to 14) (size 15 to 20)
#    0.000    2.400    2.000    1.200    0.000    3.200 
#    0.000    4.000    0.000    6.000    0.000    1.400 
#    0.000    0.000    0.000    0.000    0.000    0.000 
#
# Total GULP energy -496001.456158 kJ/mol
# GULP energy per Si atom -12400.036404 kJ/mol
# Density = 1.819607 g / cm^3
# Si number density = 18.237583 Si / 1000 Ang^3
#
#
#
# Elastic Constant Matrix: (Units=GPa)
#
#
# Indices 1 2 3 4 5 6 
#
# 1 17.0616 24.3336 24.4578 0.0000 0.0000 0.0000
# 2 24.3336 173.7978 97.7066 0.0000 0.0000 0.0000
# 3 24.4578 97.7066 186.2259 0.0000 0.0000 0.0000
# 4 0.0000 0.0000 0.0000 24.9755 0.0000 0.0000
# 5 0.0000 0.0000 0.0000 0.0000 14.9013 0.0000
# 6 0.0000 0.0000 0.0000 0.0000 0.0000 23.1189
#
#
#
# Elastic Compliance Matrix: (Units=1/GPa)
#
#
# Indices 1 2 3 4 5 6 
#
# 1 0.078309 -0.007350 -0.006428 0.000000 0.000000 0.000000
# 2 -0.007350 0.008851 -0.003678 0.000000 0.000000 0.000000
# 3 -0.006428 -0.003678 0.008144 0.000000 0.000000 0.000000
# 4 0.000000 0.000000 0.000000 0.040039 0.000000 0.000000
# 5 0.000000 0.000000 0.000000 0.000000 0.067108 0.000000
# 6 0.000000 0.000000 0.000000 0.000000 0.000000 0.043255
#
#
# Mechanical properties :
#
#
# Convention : Reuss Voigt Hill
#
# Bulk Modulus (GPa) = 16.55897 74.45346 45.50622
# Shear Modulus (GPa) = 16.62508 27.97161 22.29834
#
# Velocity S-wave (km/s) = 3.02252 3.92054 3.50045
# Velocity P-wave (km/s) = 4.61304 7.83626 6.42990
#
# Compressibility (1/GPa) = 0.06039023
#
# Stress axis : x y z
#
# Youngs Moduli (GPa) = 12.76989 112.98292 122.78965
#
# Poissons Ratio (x) = 0.83046 0.78931
# Poissons Ratio (y) = 0.09386 0.45167
# Poissons Ratio (z) = 0.08209 0.41560
#
# Static dielectric constant tensor:
#      x y z
#    x 2.917670 0.000000 0.000000 
#    y 0.000000 3.561260 0.000000 
#    z 0.000000 0.000000 3.772070 
# 
# 
# High freq. dielectric constant tensor:
#      x y z
#    x 1.654550 0.000000 0.000000 
#    y 0.000000 1.715020 0.000000 
#    z 0.000000 0.000000 1.727090 
# 
# From -- ./inp_files/52432.got.cif
#   From: 2010.03.12/outbox.cif.g09.slc.cpg/sg63_27_cif.got.tgz:52432.got - 2010.04.10 19:34:48.
