data_PCOD8256632
_publ_section_title
;
Structure prediction by ZEFSAII (Michael W. Deem and Ramdas Pophale) SiO2 
 PCOD8256632
Probable space group: C M C M
;
_chemical_formula_sum "Si O2"
_cell_formula_units_Z 80
_cell_length_a 9.139617
_cell_length_b 27.864698
_cell_length_c 18.252200
_cell_angle_alpha 90.000000
_cell_angle_beta 90.000000
_cell_angle_gamma 90.000000
_cell_volume 4648.336462
_symmetry_space_group_name_H-M "C M C M"
_symmetry_group_IT_number 63
_symmetry_cell_setting 'orthorhombic'
loop_
_space_group_symop_operation_xyz
x,y,z
-x,-y,1/2+z
x,-y,-z
-x,y,1/2-z
-x,-y,-z
x,y,1/2-z
-x,y,z
x,-y,1/2+z
1/2+x,1/2+y,z
1/2-x,1/2-y,1/2+z
1/2+x,1/2-y,-z
1/2-x,1/2+y,1/2-z
1/2-x,1/2-y,-z
1/2+x,1/2+y,1/2-z
1/2-x,1/2+y,z
1/2+x,1/2-y,1/2+z
loop_
_atom_site_type_symbol
_atom_site_label
_atom_site_fract_x
_atom_site_fract_y
_atom_site_fract_z
Si Si1 0.674490 0.901177 0.169708
Si Si2 0.673875 0.949456 0.026004
Si Si3 0.326564 0.706470 0.334395
Si Si4 0.173151 0.694984 0.901447
Si Si5 0.672390 0.852554 0.950015
O O1 0.734273 0.915990 0.250000
O O2 0.500000 0.900471 0.169044
O O3 0.731051 0.938750 0.108543
O O4 0.732522 0.847991 0.149864
O O5 0.500000 0.952520 0.026679
O O6 0.721588 0.906429 0.971955
O O7 0.742887 0.000000 0.000000
O O8 0.277574 0.705085 0.250000
O O9 0.500000 0.703443 0.341841
O O10 0.262577 0.754898 0.371920
O O11 0.255919 0.661280 0.375840
O O12 0.000000 0.696417 0.895316
O O13 0.219170 0.684448 0.985390
O O14 0.500000 0.850342 0.936006
#
# Coordination Sequence:
#
# PCOD8256632 Si02
#       5
#    16  16  16  16  16
#     4   8  12  19  34  56  79 102 132 172 212 245
#     4   8  14  25  40  58  82 110 138 170 209 251
#     4  10  19  29  42  61  86 115 144 173 204 243
#     4   8  14  25  41  60  81 106 137 172 210 249
#     4   9  17  29  45  63  84 111 140 173 213 253
#
# _framework density 17.210457999999999
#
# number of rings (size 3 to 8) (size 9 to 14) (size 15 to 20)
#    0.000    3.400    0.000    3.600    0.000    2.800 
#    0.000    1.000    0.000    4.200    0.000    0.000 
#    0.000    7.200    0.000    0.000    0.000    0.000 
#
# Total GULP energy -495686.158329 kJ/mol
# GULP energy per Si atom -12392.153958 kJ/mol
# Density = 1.717129 g / cm^3
# Si number density = 17.210458 Si / 1000 Ang^3
#
#
#
# Elastic Constant Matrix: (Units=GPa)
#
#
# Indices 1 2 3 4 5 6 
#
# 1 10.8955 16.5666 24.0906 0.0000 0.0000 0.0000
# 2 16.5666 128.5245 85.0064 0.0000 0.0000 0.0000
# 3 24.0906 85.0064 140.7669 0.0000 0.0000 0.0000
# 4 0.0000 0.0000 0.0000 22.3044 0.0000 0.0000
# 5 0.0000 0.0000 0.0000 0.0000 19.1306 0.0000
# 6 0.0000 0.0000 0.0000 0.0000 0.0000 13.3838
#
#
#
# Elastic Compliance Matrix: (Units=1/GPa)
#
#
# Indices 1 2 3 4 5 6 
#
# 1 0.148813 -0.003892 -0.023117 0.000000 0.000000 0.000000
# 2 -0.003892 0.013057 -0.007219 0.000000 0.000000 0.000000
# 3 -0.023117 -0.007219 0.015419 0.000000 0.000000 0.000000
# 4 0.000000 0.000000 0.000000 0.044834 0.000000 0.000000
# 5 0.000000 0.000000 0.000000 0.000000 0.052272 0.000000
# 6 0.000000 0.000000 0.000000 0.000000 0.000000 0.074717
#
#
# Mechanical properties :
#
#
# Convention : Reuss Voigt Hill
#
# Bulk Modulus (GPa) = 9.18835 59.05712 34.12274
# Shear Modulus (GPa) = 11.01694 21.26531 16.14112
#
# Velocity S-wave (km/s) = 2.53282 3.51893 3.06578
# Velocity P-wave (km/s) = 3.72881 7.13440 5.69226
#
# Compressibility (1/GPa) = 0.10883343
#
# Stress axis : x y z
#
# Youngs Moduli (GPa) = 6.71984 76.58902 64.85336
#
# Poissons Ratio (x) = 0.29807 1.49924
# Poissons Ratio (y) = 0.02615 0.46815
# Poissons Ratio (z) = 0.15534 0.55287
#
# Static dielectric constant tensor:
#      x y z
#    x 2.538400 0.000000 0.000000 
#    y 0.000000 3.442780 0.000000 
#    z 0.000000 0.000000 3.446140 
# 
# 
# High freq. dielectric constant tensor:
#      x y z
#    x 1.595630 0.000000 0.000000 
#    y 0.000000 1.658000 0.000000 
#    z 0.000000 0.000000 1.671800 
# 
# From -- ./inp_files/30001.got.cif
#   From: 2010.03.12/outbox.cif.g09.slc.cpg/sg63_16_cif.got.tgz:30001.got - 2010.04.10 19:34:48.
