data_PCOD8256338
_publ_section_title
;
Structure prediction by ZEFSAII (Michael W. Deem and Ramdas Pophale) SiO2 
 PCOD8256338
Probable space group: C M C M
;
_chemical_formula_sum "Si O2"
_cell_formula_units_Z 104
_cell_length_a 19.572118
_cell_length_b 15.274874
_cell_length_c 20.186313
_cell_angle_alpha 90.000000
_cell_angle_beta 90.000000
_cell_angle_gamma 90.000000
_cell_volume 6034.933167
_symmetry_space_group_name_H-M "C M C M"
_symmetry_group_IT_number 63
_symmetry_cell_setting 'orthorhombic'
loop_
_space_group_symop_operation_xyz
x,y,z
-x,-y,1/2+z
x,-y,-z
-x,y,1/2-z
-x,-y,-z
x,y,1/2-z
-x,y,z
x,-y,1/2+z
1/2+x,1/2+y,z
1/2-x,1/2-y,1/2+z
1/2+x,1/2-y,-z
1/2-x,1/2+y,1/2-z
1/2-x,1/2-y,-z
1/2+x,1/2+y,1/2-z
1/2-x,1/2+y,z
1/2+x,1/2-y,1/2+z
loop_
_atom_site_type_symbol
_atom_site_label
_atom_site_fract_x
_atom_site_fract_y
_atom_site_fract_z
Si Si1 0.669856 0.500000 0.500000
Si Si2 0.645377 0.221096 0.968538
Si Si3 0.350107 0.077086 0.173634
Si Si4 0.920155 0.753534 0.321342
Si Si5 0.419959 0.046006 0.570283
Si Si6 0.748329 0.851889 0.574037
Si Si7 0.420366 0.641426 0.943808
O O1 0.716965 0.564786 0.459215
O O2 0.621018 0.448135 0.449819
O O3 0.602939 0.147234 0.930279
O O4 0.698853 0.270530 0.919577
O O5 0.684536 0.177093 0.029615
O O6 0.591784 0.293124 0.994870
O O7 0.339402 0.047240 0.250000
O O8 0.407552 0.151237 0.167129
O O9 0.279001 0.118079 0.145951
O O10 0.375608 0.996938 0.128768
O O11 0.889482 0.782374 0.250000
O O12 0.888229 0.813508 0.378323
O O13 0.000000 0.768280 0.323183
O O14 0.500000 0.039981 0.587269
O O15 0.404232 0.000000 0.500000
O O16 0.500000 0.619451 0.938367
#
# Coordination Sequence:
#
# PCOD8256338 Si02
#       7
#     8  16  16  16  16  16  16
#     4  10  21  32  52  74 103 136 168 214 258 302
#     4  10  19  32  53  75 101 138 175 216 258 306
#     4  11  21  35  52  76 107 139 175 217 266 318
#     4   9  17  30  49  72 101 133 164 205 260 313
#     4  11  20  32  53  81 110 139 176 220 267 321
#     4  10  19  34  51  71 103 137 176 211 257 310
#     4  10  18  32  52  78 103 129 170 217 262 300
#
# _framework density 17.232999
#
# number of rings (size 3 to 8) (size 9 to 14) (size 15 to 20)
#    0.000    1.846    3.077    2.077    0.000    3.385 
#    0.000    1.538    0.000    0.000    0.000    0.000 
#    0.000    9.846    0.000    0.000    0.000    0.000 
#
# Total GULP energy -644647.356437 kJ/mol
# GULP energy per Si atom -12397.064547 kJ/mol
# Density = 1.719378 g / cm^3
# Si number density = 17.232999 Si / 1000 Ang^3
#
#
#
# Elastic Constant Matrix: (Units=GPa)
#
#
# Indices 1 2 3 4 5 6 
#
# 1 58.5356 19.1679 26.1783 0.0000 0.0000 0.0000
# 2 19.1679 78.3809 28.3269 0.0000 0.0000 0.0000
# 3 26.1783 28.3269 91.7565 0.0000 0.0000 0.0000
# 4 0.0000 0.0000 0.0000 24.0179 0.0000 0.0000
# 5 0.0000 0.0000 0.0000 0.0000 170.2047 0.0000
# 6 0.0000 0.0000 0.0000 0.0000 0.0000 49.3102
#
#
#
# Elastic Compliance Matrix: (Units=1/GPa)
#
#
# Indices 1 2 3 4 5 6 
#
# 1 0.020283 -0.003229 -0.004790 0.000000 0.000000 0.000000
# 2 -0.003229 0.014874 -0.003671 0.000000 0.000000 0.000000
# 3 -0.004790 -0.003671 0.013398 0.000000 0.000000 0.000000
# 4 0.000000 0.000000 0.000000 0.041636 0.000000 0.000000
# 5 0.000000 0.000000 0.000000 0.000000 0.005875 0.000000
# 6 0.000000 0.000000 0.000000 0.000000 0.000000 0.020280
#
#
# Mechanical properties :
#
#
# Convention : Reuss Voigt Hill
#
# Bulk Modulus (GPa) = 39.71994 41.77989 40.74991
# Shear Modulus (GPa) = 33.75681 59.03988 46.39835
#
# Velocity S-wave (km/s) = 4.43069 5.85954 5.19448
# Velocity P-wave (km/s) = 7.01951 8.37112 7.72493
#
# Compressibility (1/GPa) = 0.02517627
#
# Stress axis : x y z
#
# Youngs Moduli (GPa) = 49.30198 67.22919 74.63686
#
# Poissons Ratio (x) = 0.21709 0.35751
# Poissons Ratio (y) = 0.15920 0.27397
# Poissons Ratio (z) = 0.23615 0.24678
#
# Static dielectric constant tensor:
#      x y z
#    x 3.211540 0.000000 0.000000 
#    y 0.000000 3.268120 0.000000 
#    z 0.000000 0.000000 3.284980 
# 
# 
# High freq. dielectric constant tensor:
#      x y z
#    x 1.666390 0.000000 0.000000 
#    y 0.000000 1.667310 0.000000 
#    z 0.000000 0.000000 1.640880 
# 
# From -- ./inp_files/56783.got.cif
#   From: 2010.03.12/outbox.cif.g09.slc.cpg/sg63_29_cif.got.tgz:56783.got - 2010.04.10 19:34:48.
