data_PCOD8256577
_publ_section_title
;
Structure prediction by ZEFSAII (Michael W. Deem and Ramdas Pophale) SiO2 
 PCOD8256577
Probable space group: C M C M
;
_chemical_formula_sum "Si O2"
_cell_formula_units_Z 80
_cell_length_a 12.492363
_cell_length_b 14.515782
_cell_length_c 21.252484
_cell_angle_alpha 90.000000
_cell_angle_beta 90.000000
_cell_angle_gamma 90.000000
_cell_volume 3853.849322
_symmetry_space_group_name_H-M "C M C M"
_symmetry_group_IT_number 63
_symmetry_cell_setting 'orthorhombic'
loop_
_space_group_symop_operation_xyz
x,y,z
-x,-y,1/2+z
x,-y,-z
-x,y,1/2-z
-x,-y,-z
x,y,1/2-z
-x,y,z
x,-y,1/2+z
1/2+x,1/2+y,z
1/2-x,1/2-y,1/2+z
1/2+x,1/2-y,-z
1/2-x,1/2+y,1/2-z
1/2-x,1/2-y,-z
1/2+x,1/2+y,1/2-z
1/2-x,1/2+y,z
1/2+x,1/2-y,1/2+z
loop_
_atom_site_type_symbol
_atom_site_label
_atom_site_fract_x
_atom_site_fract_y
_atom_site_fract_z
Si Si1 0.121435 0.540538 0.322431
Si Si2 0.500000 0.426267 0.057233
Si Si3 0.627009 0.855327 0.393430
Si Si4 0.712492 0.608064 0.505605
Si Si5 0.695122 0.664267 0.135938
Si Si6 0.000000 0.045793 0.179147
O O1 0.132266 0.513462 0.250000
O O2 0.160567 0.451694 0.361525
O O3 0.190541 0.630789 0.338357
O O4 0.000000 0.565619 0.340284
O O5 0.391274 0.367752 0.048989
O O6 0.500000 0.466274 0.127322
O O7 0.500000 0.500000 0.000000
O O8 0.500000 0.845383 0.401473
O O9 0.682097 0.849331 0.462104
O O10 0.673004 0.772109 0.350354
O O11 0.731219 0.500000 0.500000
O O12 0.690452 0.652059 0.438598
O O13 0.605013 0.606809 0.171221
O O14 0.000000 0.004106 0.250000
#
# Coordination Sequence:
#
# PCOD8256577 Si02
#       6
#    16   8  16  16  16   8
#     4  10  23  43  64  87 125 172 211 262 329 391
#     4  10  18  38  64  84 133 173 207 269 336 388
#     4  11  24  40  64  97 130 161 220 273 324 388
#     4  11  20  38  65  88 129 174 213 260 336 391
#     4  12  22  41  62  94 128 169 215 271 325 392
#     4  12  22  34  62  98 122 164 225 272 321 390
#
# _framework density 20.758465999999999
#
# number of rings (size 3 to 8) (size 9 to 14) (size 15 to 20)
#    0.000    1.000    7.000    1.200    0.000    2.800 
#    1.800    0.000    0.000    0.000    0.000    0.000 
#    0.000    0.000    0.000    0.000    0.000    0.000 
#
# Total GULP energy -495986.538432 kJ/mol
# GULP energy per Si atom -12399.663461 kJ/mol
# Density = 2.071122 g / cm^3
# Si number density = 20.758466 Si / 1000 Ang^3
#
#
#
# Elastic Constant Matrix: (Units=GPa)
#
#
# Indices 1 2 3 4 5 6 
#
# 1 130.2280 51.1765 42.7465 0.0000 0.0000 0.0000
# 2 51.1765 63.8607 11.2473 0.0000 0.0000 0.0000
# 3 42.7465 11.2473 116.7826 0.0000 0.0000 0.0000
# 4 0.0000 0.0000 0.0000 23.9505 0.0000 0.0000
# 5 0.0000 0.0000 0.0000 0.0000 32.7635 0.0000
# 6 0.0000 0.0000 0.0000 0.0000 0.0000 28.6168
#
#
#
# Elastic Compliance Matrix: (Units=1/GPa)
#
#
# Indices 1 2 3 4 5 6 
#
# 1 0.012610 -0.009453 -0.003705 0.000000 0.000000 0.000000
# 2 -0.009453 0.023015 0.001243 0.000000 0.000000 0.000000
# 3 -0.003705 0.001243 0.009799 0.000000 0.000000 0.000000
# 4 0.000000 0.000000 0.000000 0.041753 0.000000 0.000000
# 5 0.000000 0.000000 0.000000 0.000000 0.030522 0.000000
# 6 0.000000 0.000000 0.000000 0.000000 0.000000 0.034945
#
#
# Mechanical properties :
#
#
# Convention : Reuss Voigt Hill
#
# Bulk Modulus (GPa) = 46.30596 57.91243 52.10919
# Shear Modulus (GPa) = 27.22267 30.77956 29.00111
#
# Velocity S-wave (km/s) = 3.62526 3.85482 3.74180
# Velocity P-wave (km/s) = 6.31496 6.91171 6.62006
#
# Compressibility (1/GPa) = 0.02159549
#
# Stress axis : x y z
#
# Youngs Moduli (GPa) = 79.30427 43.44969 102.04701
#
# Poissons Ratio (x) = 0.41071 0.37811
# Poissons Ratio (y) = 0.74962 -0.12688
# Poissons Ratio (z) = 0.29384 -0.05402
#
# Static dielectric constant tensor:
#      x y z
#    x 4.156310 0.000000 0.000000 
#    y 0.000000 3.737470 0.000000 
#    z 0.000000 0.000000 3.702310 
# 
# 
# High freq. dielectric constant tensor:
#      x y z
#    x 1.829180 0.000000 0.000000 
#    y 0.000000 1.794030 0.000000 
#    z 0.000000 0.000000 1.806890 
# 
# From -- ./inp_files/61187.got.cif
#   From: 2010.03.12/outbox.cif.g09.slc.cpg/sg63_31_cif.got.tgz:61187.got - 2010.04.10 19:34:48.
