data_PCOD8256228
_publ_section_title
;
Structure prediction by ZEFSAII (Michael W. Deem and Ramdas Pophale) SiO2 
 PCOD8256228
Probable space group: C M C M
;
_chemical_formula_sum "Si O2"
_cell_formula_units_Z 96
_cell_length_a 9.190666
_cell_length_b 20.531816
_cell_length_c 28.272339
_cell_angle_alpha 90.000000
_cell_angle_beta 90.000000
_cell_angle_gamma 90.000000
_cell_volume 5335.020429
_symmetry_space_group_name_H-M "C M C M"
_symmetry_group_IT_number 63
_symmetry_cell_setting 'orthorhombic'
loop_
_space_group_symop_operation_xyz
x,y,z
-x,-y,1/2+z
x,-y,-z
-x,y,1/2-z
-x,-y,-z
x,y,1/2-z
-x,y,z
x,-y,1/2+z
1/2+x,1/2+y,z
1/2-x,1/2-y,1/2+z
1/2+x,1/2-y,-z
1/2-x,1/2+y,1/2-z
1/2-x,1/2-y,-z
1/2+x,1/2+y,1/2-z
1/2-x,1/2+y,z
1/2+x,1/2-y,1/2+z
loop_
_atom_site_type_symbol
_atom_site_label
_atom_site_fract_x
_atom_site_fract_y
_atom_site_fract_z
Si Si1 0.328100 0.368129 0.392294
Si Si2 0.328843 0.370433 0.592443
Si Si3 0.670468 0.318194 0.494037
Si Si4 0.328044 0.690137 0.250000
Si Si5 0.173172 0.044174 0.250000
Si Si6 0.173222 0.005046 0.352369
Si Si7 0.827605 0.749504 0.652724
O O1 0.500000 0.361788 0.385791
O O2 0.281081 0.354627 0.446332
O O3 0.271120 0.439229 0.377095
O O4 0.250906 0.317714 0.357891
O O5 0.500000 0.373250 0.600578
O O6 0.288098 0.367030 0.536980
O O7 0.261067 0.434417 0.617378
O O8 0.270187 0.304580 0.616665
O O9 0.500000 0.302673 0.494388
O O10 0.750000 0.250000 0.500000
O O11 0.500000 0.683031 0.250000
O O12 0.262462 0.617359 0.250000
O O13 0.275238 0.729528 0.295473
O O14 0.000000 0.046206 0.250000
O O15 0.228474 0.008172 0.297782
O O16 0.000000 0.007842 0.353509
O O17 0.000000 0.739545 0.649111
#
# Coordination Sequence:
#
# PCOD8256228 Si02
#       7
#    16  16  16   8   8  16  16
#     4  10  21  33  47  74 107 132 157 198 252 301
#     4   9  16  28  49  72  93 124 165 204 240 279
#     4  10  19  31  49  73  99 129 164 202 246 294
#     4   9  16  27  49  79  97 118 167 218 242 272
#     4   9  14  25  46  71  97 124 159 202 244 288
#     4   9  17  29  46  71 101 128 159 203 250 292
#     4  10  18  31  52  75  97 125 166 207 241 282
#
# _framework density 17.994306999999999
#
# number of rings (size 3 to 8) (size 9 to 14) (size 15 to 20)
#    0.000    2.500    3.333    0.000    0.000    1.333 
#    0.000    4.583    0.000    2.000    0.000    2.333 
#    0.000    0.000    0.000    0.000    0.000    0.000 
#
# Total GULP energy -595053.572990 kJ/mol
# GULP energy per Si atom -12396.949437 kJ/mol
# Density = 1.795335 g / cm^3
# Si number density = 17.994307 Si / 1000 Ang^3
#
#
#
# Elastic Constant Matrix: (Units=GPa)
#
#
# Indices 1 2 3 4 5 6 
#
# 1 12.4440 19.6289 18.3654 0.0000 0.0000 0.0000
# 2 19.6289 150.2154 77.6549 0.0000 0.0000 0.0000
# 3 18.3654 77.6549 159.9984 0.0000 0.0000 0.0000
# 4 0.0000 0.0000 0.0000 34.6401 0.0000 0.0000
# 5 0.0000 0.0000 0.0000 0.0000 15.6944 0.0000
# 6 0.0000 0.0000 0.0000 0.0000 0.0000 22.4911
#
#
#
# Elastic Compliance Matrix: (Units=1/GPa)
#
#
# Indices 1 2 3 4 5 6 
#
# 1 0.107347 -0.010222 -0.007361 0.000000 0.000000 0.000000
# 2 -0.010222 0.009860 -0.003612 0.000000 0.000000 0.000000
# 3 -0.007361 -0.003612 0.008848 0.000000 0.000000 0.000000
# 4 0.000000 0.000000 0.000000 0.028868 0.000000 0.000000
# 5 0.000000 0.000000 0.000000 0.000000 0.063717 0.000000
# 6 0.000000 0.000000 0.000000 0.000000 0.000000 0.044462
#
#
# Mechanical properties :
#
#
# Convention : Reuss Voigt Hill
#
# Bulk Modulus (GPa) = 11.95234 61.55069 36.75152
# Shear Modulus (GPa) = 14.99783 28.36570 21.68177
#
# Velocity S-wave (km/s) = 2.89013 3.97466 3.47497
# Velocity P-wave (km/s) = 4.21828 7.43934 6.04722
#
# Compressibility (1/GPa) = 0.08366565
#
# Stress axis : x y z
#
# Youngs Moduli (GPa) = 9.31557 101.41717 113.01778
#
# Poissons Ratio (x) = 1.03670 0.83187
# Poissons Ratio (y) = 0.09523 0.40826
# Poissons Ratio (z) = 0.06857 0.36635
#
# Static dielectric constant tensor:
#      x y z
#    x 2.761250 0.000000 0.000000 
#    y 0.000000 3.450520 0.000000 
#    z 0.000000 0.000000 3.704470 
# 
# 
# High freq. dielectric constant tensor:
#      x y z
#    x 1.633080 0.000000 0.000000 
#    y 0.000000 1.698430 0.000000 
#    z 0.000000 0.000000 1.717340 
# 
# From -- ./inp_files/68387.got.cif
#   From: 2010.03.12/outbox.cif.g09.slc.cpg/sg63_35_cif.got.tgz:68387.got - 2010.04.10 19:34:48.
