data_PCOD8256196
_publ_section_title
;
Structure prediction by ZEFSAII (Michael W. Deem and Ramdas Pophale) SiO2 
 PCOD8256196
Probable space group: C M C M
;
_chemical_formula_sum "Si O2"
_cell_formula_units_Z 80
_cell_length_a 30.500343
_cell_length_b 16.480961
_cell_length_c 8.859020
_cell_angle_alpha 90.000000
_cell_angle_beta 90.000000
_cell_angle_gamma 90.000000
_cell_volume 4453.207555
_symmetry_space_group_name_H-M "C M C M"
_symmetry_group_IT_number 63
_symmetry_cell_setting 'orthorhombic'
loop_
_space_group_symop_operation_xyz
x,y,z
-x,-y,1/2+z
x,-y,-z
-x,y,1/2-z
-x,-y,-z
x,y,1/2-z
-x,y,z
x,-y,1/2+z
1/2+x,1/2+y,z
1/2-x,1/2-y,1/2+z
1/2+x,1/2-y,-z
1/2-x,1/2+y,1/2-z
1/2-x,1/2-y,-z
1/2+x,1/2+y,1/2-z
1/2-x,1/2+y,z
1/2+x,1/2-y,1/2+z
loop_
_atom_site_type_symbol
_atom_site_label
_atom_site_fract_x
_atom_site_fract_y
_atom_site_fract_z
Si Si1 0.413249 0.144738 0.579302
Si Si2 0.189334 0.083248 0.069649
Si Si3 0.783802 0.623475 0.415460
Si Si4 0.353168 0.000000 0.000000
Si Si5 0.846101 0.240944 0.931277
Si Si6 0.500000 0.087760 0.429296
O O1 0.424526 0.170074 0.750000
O O2 0.384215 0.062345 0.589610
O O3 0.389954 0.218602 0.494269
O O4 0.457135 0.134055 0.484355
O O5 0.186969 0.079384 0.250000
O O6 0.238935 0.096287 0.002502
O O7 0.158194 0.153203 0.005403
O O8 0.171287 0.000000 0.000000
O O9 0.768545 0.649179 0.250000
O O10 0.820275 0.552671 0.396827
O O11 0.805477 0.703145 0.491049
O O12 0.847958 0.236739 0.750000
O O13 0.500000 0.080757 0.250000
O O14 0.500000 0.000000 0.500000
#
# Coordination Sequence:
#
# PCOD8256196 Si02
#       6
#    16  16  16   8  16   8
#     4  11  22  36  57  82 113 148 187 228 275 331
#     4  11  21  35  53  76 104 140 187 236 287 332
#     4   9  18  31  48  72 104 143 187 233 276 325
#     4  10  18  31  50  76 112 150 192 227 274 322
#     4  10  21  37  54  76 107 143 185 231 282 334
#     4  12  24  38  58  84 117 150 185 226 272 328
#
# _framework density 17.964579000000001
#
# number of rings (size 3 to 8) (size 9 to 14) (size 15 to 20)
#    0.000    1.600    2.000    3.900    0.000    1.600 
#    0.000    2.000    0.000    0.000    0.000    0.700 
#    0.000    0.000    0.000    0.000    0.000    0.000 
#
# Total GULP energy -495760.739829 kJ/mol
# GULP energy per Si atom -12394.018496 kJ/mol
# Density = 1.792369 g / cm^3
# Si number density = 17.964579 Si / 1000 Ang^3
#
#
#
# Elastic Constant Matrix: (Units=GPa)
#
#
# Indices 1 2 3 4 5 6 
#
# 1 102.6378 59.1608 43.6388 0.0000 0.0000 0.0000
# 2 59.1608 141.8843 48.9239 0.0000 0.0000 0.0000
# 3 43.6388 48.9239 123.3267 0.0000 0.0000 0.0000
# 4 0.0000 0.0000 0.0000 27.1728 0.0000 0.0000
# 5 0.0000 0.0000 0.0000 0.0000 21.1223 0.0000
# 6 0.0000 0.0000 0.0000 0.0000 0.0000 19.6516
#
#
#
# Elastic Compliance Matrix: (Units=1/GPa)
#
#
# Indices 1 2 3 4 5 6 
#
# 1 0.013718 -0.004687 -0.002995 0.000000 0.000000 0.000000
# 2 -0.004687 0.009766 -0.002216 0.000000 0.000000 0.000000
# 3 -0.002995 -0.002216 0.010047 0.000000 0.000000 0.000000
# 4 0.000000 0.000000 0.000000 0.036802 0.000000 0.000000
# 5 0.000000 0.000000 0.000000 0.000000 0.047343 0.000000
# 6 0.000000 0.000000 0.000000 0.000000 0.000000 0.050887
#
#
# Mechanical properties :
#
#
# Convention : Reuss Voigt Hill
#
# Bulk Modulus (GPa) = 72.80016 74.58842 73.69429
# Shear Modulus (GPa) = 25.91514 27.99768 26.95641
#
# Velocity S-wave (km/s) = 3.80224 3.95206 3.87787
# Velocity P-wave (km/s) = 7.73875 7.90157 7.82059
#
# Compressibility (1/GPa) = 0.01373623
#
# Stress axis : x y z
#
# Youngs Moduli (GPa) = 72.89676 102.39084 99.53050
#
# Poissons Ratio (x) = 0.47994 0.29805
# Poissons Ratio (y) = 0.34169 0.22054
# Poissons Ratio (z) = 0.21830 0.22688
#
# Static dielectric constant tensor:
#      x y z
#    x 3.370150 0.000000 0.000000 
#    y 0.000000 3.255690 0.000000 
#    z 0.000000 0.000000 3.185450 
# 
# 
# High freq. dielectric constant tensor:
#      x y z
#    x 1.676440 0.000000 0.000000 
#    y 0.000000 1.684830 0.000000 
#    z 0.000000 0.000000 1.694880 
# 
# From -- ./inp_files/14086.got.cif
#   From: 2010.03.12/outbox.cif.g09.slc.cpg/sg63_8_cif.got.tgz:14086.got - 2010.04.10 19:34:48.
