data_PCOD8256823
_publ_section_title
;
Structure prediction by ZEFSAII (Michael W. Deem and Ramdas Pophale) SiO2 
 PCOD8256823
Probable space group: C M C M
;
_chemical_formula_sum "Si O2"
_cell_formula_units_Z 104
_cell_length_a 22.406013
_cell_length_b 29.630460
_cell_length_c 8.710326
_cell_angle_alpha 90.000000
_cell_angle_beta 90.000000
_cell_angle_gamma 90.000000
_cell_volume 5782.789542
_symmetry_space_group_name_H-M "C M C M"
_symmetry_group_IT_number 63
_symmetry_cell_setting 'orthorhombic'
loop_
_space_group_symop_operation_xyz
x,y,z
-x,-y,1/2+z
x,-y,-z
-x,y,1/2-z
-x,-y,-z
x,y,1/2-z
-x,y,z
x,-y,1/2+z
1/2+x,1/2+y,z
1/2-x,1/2-y,1/2+z
1/2+x,1/2-y,-z
1/2-x,1/2+y,1/2-z
1/2-x,1/2-y,-z
1/2+x,1/2+y,1/2-z
1/2-x,1/2+y,z
1/2+x,1/2-y,1/2+z
loop_
_atom_site_type_symbol
_atom_site_label
_atom_site_fract_x
_atom_site_fract_y
_atom_site_fract_z
Si Si1 0.281296 0.047780 0.931499
Si Si2 0.069711 0.690943 0.573186
Si Si3 0.500000 0.049278 0.431281
Si Si4 0.570770 0.719228 0.919777
Si Si5 0.569388 0.619171 0.929436
Si Si6 0.345817 0.452723 0.930529
Si Si7 0.384467 0.103697 0.069760
O O1 0.278427 0.043456 0.750000
O O2 0.216781 0.061631 0.994814
O O3 0.327029 0.086484 0.979411
O O4 0.302804 0.000000 0.000000
O O5 0.082462 0.680729 0.750000
O O6 0.092607 0.741538 0.534646
O O7 0.106301 0.656111 0.469386
O O8 0.000000 0.686407 0.532556
O O9 0.500000 0.045700 0.250000
O O10 0.558179 0.075863 0.489396
O O11 0.500000 0.000000 0.500000
O O12 0.596132 0.729856 0.750000
O O13 0.500000 0.717571 0.911934
O O14 0.592055 0.669625 0.974070
O O15 0.581302 0.609884 0.750000
O O16 0.500000 0.612914 0.968559
O O17 0.605334 0.584824 0.034442
O O18 0.336986 0.458231 0.750000
O O19 0.368300 0.500000 0.000000
O O20 0.374255 0.097749 0.250000
#
# Coordination Sequence:
#
# PCOD8256823 Si02
#       7
#    16  16   8  16  16  16  16
#     4  11  22  38  57  77 101 135 178 221 263 313
#     4  10  19  30  47  74 106 139 176 220 266 311
#     4  10  22  34  48  70 100 136 170 214 267 318
#     4   8  15  29  50  74 103 140 175 210 255 310
#     4   9  18  34  56  83 113 143 175 212 259 311
#     4  11  22  37  57  80 107 141 178 217 258 307
#     4  11  21  35  52  74 102 138 179 220 268 317
#
# _framework density 17.984400000000001
#
# number of rings (size 3 to 8) (size 9 to 14) (size 15 to 20)
#    0.000    2.000    0.769    6.000    0.000    4.308 
#    0.000    1.538    0.000    0.923    0.000    0.000 
#    0.000    0.000    0.000    0.000    0.000    0.000 
#
# Total GULP energy -644868.492838 kJ/mol
# GULP energy per Si atom -12401.317170 kJ/mol
# Density = 1.794347 g / cm^3
# Si number density = 17.984400 Si / 1000 Ang^3
#
#
#
# Elastic Constant Matrix: (Units=GPa)
#
#
# Indices 1 2 3 4 5 6 
#
# 1 63.0765 50.9360 36.6837 0.0000 0.0000 0.0000
# 2 50.9360 125.3489 45.7618 0.0000 0.0000 0.0000
# 3 36.6837 45.7618 106.1007 0.0000 0.0000 0.0000
# 4 0.0000 0.0000 0.0000 32.9891 0.0000 0.0000
# 5 0.0000 0.0000 0.0000 0.0000 25.1000 0.0000
# 6 0.0000 0.0000 0.0000 0.0000 0.0000 18.3054
#
#
#
# Elastic Compliance Matrix: (Units=1/GPa)
#
#
# Indices 1 2 3 4 5 6 
#
# 1 0.025827 -0.008587 -0.005226 0.000000 0.000000 0.000000
# 2 -0.008587 0.012324 -0.002346 0.000000 0.000000 0.000000
# 3 -0.005226 -0.002346 0.012244 0.000000 0.000000 0.000000
# 4 0.000000 0.000000 0.000000 0.030313 0.000000 0.000000
# 5 0.000000 0.000000 0.000000 0.000000 0.039841 0.000000
# 6 0.000000 0.000000 0.000000 0.000000 0.000000 0.054629
#
#
# Mechanical properties :
#
#
# Convention : Reuss Voigt Hill
#
# Bulk Modulus (GPa) = 55.32189 62.36547 58.84368
# Shear Modulus (GPa) = 23.41679 26.02187 24.71933
#
# Velocity S-wave (km/s) = 3.61232 3.80796 3.71143
# Velocity P-wave (km/s) = 6.94452 7.35438 7.15238
#
# Compressibility (1/GPa) = 0.01807603
#
# Stress axis : x y z
#
# Youngs Moduli (GPa) = 38.71844 81.14401 81.67371
#
# Poissons Ratio (x) = 0.69680 0.42683
# Poissons Ratio (y) = 0.33248 0.19163
# Poissons Ratio (z) = 0.20234 0.19039
#
# Static dielectric constant tensor:
#      x y z
#    x 3.084340 0.000000 0.000000 
#    y 0.000000 3.450090 0.000000 
#    z 0.000000 0.000000 3.331870 
# 
# 
# High freq. dielectric constant tensor:
#      x y z
#    x 1.664250 0.000000 0.000000 
#    y 0.000000 1.704750 0.000000 
#    z 0.000000 0.000000 1.703040 
# 
# From -- ./inp_files/10830.got.cif
#   From: 2010.03.12/outbox.cif.g09.slc.cpg/sg63_6_cif.got.tgz:10830.got - 2010.04.10 19:34:48.
