data_PCOD8256892
_publ_section_title
;
Structure prediction by ZEFSAII (Michael W. Deem and Ramdas Pophale) SiO2 
 PCOD8256892
Probable space group: C M C M
;
_chemical_formula_sum "Si O2"
_cell_formula_units_Z 80
_cell_length_a 23.270810
_cell_length_b 26.364507
_cell_length_c 8.883543
_cell_angle_alpha 90.000000
_cell_angle_beta 90.000000
_cell_angle_gamma 90.000000
_cell_volume 5450.261800
_symmetry_space_group_name_H-M "C M C M"
_symmetry_group_IT_number 63
_symmetry_cell_setting 'orthorhombic'
loop_
_space_group_symop_operation_xyz
x,y,z
-x,-y,1/2+z
x,-y,-z
-x,y,1/2-z
-x,-y,-z
x,y,1/2-z
-x,y,z
x,-y,1/2+z
1/2+x,1/2+y,z
1/2-x,1/2-y,1/2+z
1/2+x,1/2-y,-z
1/2-x,1/2+y,1/2-z
1/2-x,1/2-y,-z
1/2+x,1/2+y,1/2-z
1/2-x,1/2+y,z
1/2+x,1/2-y,1/2+z
loop_
_atom_site_type_symbol
_atom_site_label
_atom_site_fract_x
_atom_site_fract_y
_atom_site_fract_z
Si Si1 0.500000 0.216108 0.073080
Si Si2 0.881471 0.554040 0.429174
Si Si3 0.113509 0.739081 0.577789
Si Si4 0.688935 0.858591 0.072611
Si Si5 0.721254 0.702027 0.425219
Si Si6 0.000000 0.602051 0.071489
O O1 0.500000 0.214222 0.250000
O O2 0.500000 0.159049 0.004953
O O3 0.443439 0.245872 0.020462
O O4 0.868215 0.500000 0.500000
O O5 0.878895 0.551053 0.250000
O O6 0.832923 0.591713 0.488701
O O7 0.943793 0.572758 0.487324
O O8 0.094720 0.733736 0.750000
O O9 0.147820 0.688429 0.528847
O O10 0.152606 0.789646 0.554366
O O11 0.691697 0.867913 0.250000
O O12 0.753551 0.847409 0.010139
O O13 0.737715 0.699620 0.250000
O O14 0.750000 0.750000 0.500000
O O15 0.000000 0.604530 0.250000
#
# Coordination Sequence:
#
# PCOD8256892 Si02
#       6
#     8  16  16  16  16   8
#     4  11  19  28  44  64  85 114 149 183 219 256
#     4  11  21  34  47  62  84 111 148 190 230 267
#     4   9  18  30  43  62  86 111 141 175 216 261
#     4  10  19  31  46  64  83 109 143 180 223 265
#     4   9  17  29  45  64  84 108 138 175 217 262
#     4   9  19  32  44  60  81 111 149 190 230 262
#
# _framework density 14.678194
#
# number of rings (size 3 to 8) (size 9 to 14) (size 15 to 20)
#    0.000    2.200    2.000    3.600    0.000    4.000 
#    0.000    1.500    0.000    0.000    0.000    0.000 
#    0.000    0.000    0.000    0.900    0.000   11.800 
#
# Total GULP energy -495885.930709 kJ/mol
# GULP energy per Si atom -12397.148268 kJ/mol
# Density = 1.464479 g / cm^3
# Si number density = 14.678194 Si / 1000 Ang^3
#
#
#
# Elastic Constant Matrix: (Units=GPa)
#
#
# Indices 1 2 3 4 5 6 
#
# 1 90.1221 55.1715 44.8827 0.0000 0.0000 0.0000
# 2 55.1715 72.3916 32.9508 0.0000 0.0000 0.0000
# 3 44.8827 32.9508 73.9970 0.0000 0.0000 0.0000
# 4 0.0000 0.0000 0.0000 21.9926 0.0000 0.0000
# 5 0.0000 0.0000 0.0000 0.0000 24.7640 0.0000
# 6 0.0000 0.0000 0.0000 0.0000 0.0000 18.6770
#
#
#
# Elastic Compliance Matrix: (Units=1/GPa)
#
#
# Indices 1 2 3 4 5 6 
#
# 1 0.024126 -0.014707 -0.008084 0.000000 0.000000 0.000000
# 2 -0.014707 0.026291 -0.002787 0.000000 0.000000 0.000000
# 3 -0.008084 -0.002787 0.019659 0.000000 0.000000 0.000000
# 4 0.000000 0.000000 0.000000 0.045470 0.000000 0.000000
# 5 0.000000 0.000000 0.000000 0.000000 0.040381 0.000000
# 6 0.000000 0.000000 0.000000 0.000000 0.000000 0.053542
#
#
# Mechanical properties :
#
#
# Convention : Reuss Voigt Hill
#
# Bulk Modulus (GPa) = 52.85756 55.83563 54.34660
# Shear Modulus (GPa) = 18.73148 19.98710 19.35929
#
# Velocity S-wave (km/s) = 3.57619 3.69411 3.63563
# Velocity P-wave (km/s) = 7.28981 7.50451 7.39794
#
# Compressibility (1/GPa) = 0.01891877
#
# Stress axis : x y z
#
# Youngs Moduli (GPa) = 41.44972 38.03611 50.86846
#
# Poissons Ratio (x) = 0.55940 0.41124
# Poissons Ratio (y) = 0.60960 0.14176
# Poissons Ratio (z) = 0.33509 0.10600
#
# Static dielectric constant tensor:
#      x y z
#    x 3.022970 0.000000 0.000000 
#    y 0.000000 2.714760 0.000000 
#    z 0.000000 0.000000 2.904490 
# 
# 
# High freq. dielectric constant tensor:
#      x y z
#    x 1.550370 0.000000 0.000000 
#    y 0.000000 1.522050 0.000000 
#    z 0.000000 0.000000 1.572810 
# 
# From -- ./inp_files/8435.got.cif
#   From: 2010.03.12/outbox.cif.g09.slc.cpg/sg63_5_cif.got.tgz:8435.got - 2010.04.10 19:34:48.
