data_PCOD8256830
_publ_section_title
;
Structure prediction by ZEFSAII (Michael W. Deem and Ramdas Pophale) SiO2 
 PCOD8256830
Probable space group: C M C M
;
_chemical_formula_sum "Si O2"
_cell_formula_units_Z 80
_cell_length_a 9.133961
_cell_length_b 19.492222
_cell_length_c 25.413733
_cell_angle_alpha 90.000000
_cell_angle_beta 90.000000
_cell_angle_gamma 90.000000
_cell_volume 4524.691407
_symmetry_space_group_name_H-M "C M C M"
_symmetry_group_IT_number 63
_symmetry_cell_setting 'orthorhombic'
loop_
_space_group_symop_operation_xyz
x,y,z
-x,-y,1/2+z
x,-y,-z
-x,y,1/2-z
-x,-y,-z
x,y,1/2-z
-x,y,z
x,-y,1/2+z
1/2+x,1/2+y,z
1/2-x,1/2-y,1/2+z
1/2+x,1/2-y,-z
1/2-x,1/2+y,1/2-z
1/2-x,1/2-y,-z
1/2+x,1/2+y,1/2-z
1/2-x,1/2+y,z
1/2+x,1/2-y,1/2+z
loop_
_atom_site_type_symbol
_atom_site_label
_atom_site_fract_x
_atom_site_fract_y
_atom_site_fract_z
Si Si1 0.165245 0.081470 0.997073
Si Si2 0.671037 0.926595 0.393799
Si Si3 0.832602 0.161890 0.811416
Si Si4 0.828353 0.585654 0.399560
Si Si5 0.173639 0.316671 0.808010
O O1 0.248271 0.105559 0.944503
O O2 0.000000 0.109799 0.995633
O O3 0.246972 0.111729 0.048009
O O4 0.168899 0.000000 0.000000
O O5 0.500000 0.913874 0.401160
O O6 0.726935 0.889599 0.341698
O O7 0.707150 0.006775 0.387290
O O8 0.816549 0.145895 0.750000
O O9 0.781033 0.239483 0.823682
O O10 0.000000 0.150628 0.829669
O O11 0.765321 0.630080 0.350985
O O12 0.000000 0.597683 0.408294
O O13 0.237242 0.335235 0.750000
O O14 0.000000 0.321289 0.805282
#
# Coordination Sequence:
#
# PCOD8256830 Si02
#       5
#    16  16  16  16  16
#     4   9  17  30  48  69  96 128 158 190 233 284
#     4  10  19  30  48  74 100 124 154 195 239 281
#     4   9  18  33  51  69  93 127 162 193 229 278
#     4   9  17  30  50  74  97 121 155 199 239 277
#     4   8  15  30  51  71  92 123 160 194 232 279
#
# _framework density 17.680764
#
# number of rings (size 3 to 8) (size 9 to 14) (size 15 to 20)
#    0.000    3.000    0.000    2.400    0.000    4.400 
#    0.000    4.000    0.000    1.800    0.000    0.000 
#    0.000    0.000    0.000    0.000    0.000    0.000 
#
# Total GULP energy -495947.756485 kJ/mol
# GULP energy per Si atom -12398.693912 kJ/mol
# Density = 1.764052 g / cm^3
# Si number density = 17.680764 Si / 1000 Ang^3
#
#
#
# Elastic Constant Matrix: (Units=GPa)
#
#
# Indices 1 2 3 4 5 6 
#
# 1 73.1612 37.2790 53.7409 0.0000 0.0000 0.0000
# 2 37.2790 62.7155 59.3360 0.0000 0.0000 0.0000
# 3 53.7409 59.3360 123.0203 0.0000 0.0000 0.0000
# 4 0.0000 0.0000 0.0000 13.6221 0.0000 0.0000
# 5 0.0000 0.0000 0.0000 0.0000 32.7275 0.0000
# 6 0.0000 0.0000 0.0000 0.0000 0.0000 16.2164
#
#
#
# Elastic Compliance Matrix: (Units=1/GPa)
#
#
# Indices 1 2 3 4 5 6 
#
# 1 0.021786 -0.007257 -0.006017 0.000000 0.000000 0.000000
# 2 -0.007257 0.031747 -0.012142 0.000000 0.000000 0.000000
# 3 -0.006017 -0.012142 0.016613 0.000000 0.000000 0.000000
# 4 0.000000 0.000000 0.000000 0.073410 0.000000 0.000000
# 5 0.000000 0.000000 0.000000 0.000000 0.030555 0.000000
# 6 0.000000 0.000000 0.000000 0.000000 0.000000 0.061666
#
#
# Mechanical properties :
#
#
# Convention : Reuss Voigt Hill
#
# Bulk Modulus (GPa) = 51.77572 62.17874 56.97723
# Shear Modulus (GPa) = 17.06211 19.74928 18.40570
#
# Velocity S-wave (km/s) = 3.10983 3.34577 3.22996
# Velocity P-wave (km/s) = 6.49938 7.08303 6.79747
#
# Compressibility (1/GPa) = 0.01931407
#
# Stress axis : x y z
#
# Youngs Moduli (GPa) = 45.90098 31.49952 60.19233
#
# Poissons Ratio (x) = 0.22861 0.36216
# Poissons Ratio (y) = 0.33313 0.73084
# Poissons Ratio (z) = 0.27617 0.38246
#
# Static dielectric constant tensor:
#      x y z
#    x 3.132920 0.000000 0.000000 
#    y 0.000000 3.106230 0.000000 
#    z 0.000000 0.000000 3.574170 
# 
# 
# High freq. dielectric constant tensor:
#      x y z
#    x 1.667050 0.000000 0.000000 
#    y 0.000000 1.657870 0.000000 
#    z 0.000000 0.000000 1.695260 
# 
# From -- ./inp_files/66563.got.cif
#   From: 2010.03.12/outbox.cif.g09.slc.cpg/sg63_34_cif.got.tgz:66563.got - 2010.04.10 19:34:48.
