data_PCOD8256393
_publ_section_title
;
Structure prediction by ZEFSAII (Michael W. Deem and Ramdas Pophale) SiO2 
 PCOD8256393
Probable space group: C M C M
;
_chemical_formula_sum "Si O2"
_cell_formula_units_Z 72
_cell_length_a 34.082688
_cell_length_b 13.508022
_cell_length_c 9.021305
_cell_angle_alpha 90.000000
_cell_angle_beta 90.000000
_cell_angle_gamma 90.000000
_cell_volume 4153.315896
_symmetry_space_group_name_H-M "C M C M"
_symmetry_group_IT_number 63
_symmetry_cell_setting 'orthorhombic'
loop_
_space_group_symop_operation_xyz
x,y,z
-x,-y,1/2+z
x,-y,-z
-x,y,1/2-z
-x,-y,-z
x,y,1/2-z
-x,y,z
x,-y,1/2+z
1/2+x,1/2+y,z
1/2-x,1/2-y,1/2+z
1/2+x,1/2-y,-z
1/2-x,1/2+y,1/2-z
1/2-x,1/2-y,-z
1/2+x,1/2+y,1/2-z
1/2-x,1/2+y,z
1/2+x,1/2-y,1/2+z
loop_
_atom_site_type_symbol
_atom_site_label
_atom_site_fract_x
_atom_site_fract_y
_atom_site_fract_z
Si Si1 0.385654 0.394819 0.924574
Si Si2 0.728817 0.103769 0.076535
Si Si3 0.000000 0.605724 0.074678
Si Si4 0.307112 0.283392 0.922716
Si Si5 0.957183 0.764504 0.582174
O O1 0.387288 0.411772 0.750000
O O2 0.347831 0.332029 0.971803
O O3 0.424202 0.337215 0.982801
O O4 0.383716 0.500000 0.000000
O O5 0.722238 0.091504 0.250000
O O6 0.772747 0.139280 0.037768
O O7 0.697720 0.183037 0.015197
O O8 0.720617 0.000000 0.000000
O O9 0.000000 0.595034 0.250000
O O10 0.000000 0.500000 0.000000
O O11 0.038935 0.665535 0.019110
O O12 0.306293 0.255906 0.750000
O O13 0.945892 0.732578 0.750000
O O14 0.000000 0.818989 0.581172
#
# Coordination Sequence:
#
# PCOD8256393 Si02
#       5
#    16  16   8  16  16
#     4  10  20  34  53  76 105 137 168 208 255 300
#     4  10  19  32  52  75 101 134 171 212 256 303
#     4  10  18  32  55  78  99 128 165 206 250 298
#     4   9  19  34  51  74 103 135 172 211 252 301
#     4   8  17  34  52  74 104 134 167 206 245 293
#
# _framework density 17.335546000000001
#
# number of rings (size 3 to 8) (size 9 to 14) (size 15 to 20)
#    0.667    2.000    0.000    2.000    0.000    3.111 
#    0.000    1.111    0.000    0.000    0.000    0.000 
#    0.000    0.000    0.000    0.000    0.000    0.000 
#
# Total GULP energy -446270.467188 kJ/mol
# GULP energy per Si atom -12396.401866 kJ/mol
# Density = 1.729609 g / cm^3
# Si number density = 17.335546 Si / 1000 Ang^3
#
#
#
# Elastic Constant Matrix: (Units=GPa)
#
#
# Indices 1 2 3 4 5 6 
#
# 1 118.9036 79.8001 42.1797 0.0000 0.0000 0.0000
# 2 79.8001 163.5681 74.7119 0.0000 0.0000 0.0000
# 3 42.1797 74.7119 84.3874 0.0000 0.0000 0.0000
# 4 0.0000 0.0000 0.0000 36.8357 0.0000 0.0000
# 5 0.0000 0.0000 0.0000 0.0000 20.8648 0.0000
# 6 0.0000 0.0000 0.0000 0.0000 0.0000 20.6357
#
#
#
# Elastic Compliance Matrix: (Units=1/GPa)
#
#
# Indices 1 2 3 4 5 6 
#
# 1 0.012607 -0.005494 -0.001437 0.000000 0.000000 0.000000
# 2 -0.005494 0.012659 -0.008461 0.000000 0.000000 0.000000
# 3 -0.001437 -0.008461 0.020060 0.000000 0.000000 0.000000
# 4 0.000000 0.000000 0.000000 0.027148 0.000000 0.000000
# 5 0.000000 0.000000 0.000000 0.000000 0.047928 0.000000
# 6 0.000000 0.000000 0.000000 0.000000 0.000000 0.048460
#
#
# Mechanical properties :
#
#
# Convention : Reuss Voigt Hill
#
# Bulk Modulus (GPa) = 68.77428 84.47137 76.62282
# Shear Modulus (GPa) = 24.45062 27.01172 25.73117
#
# Velocity S-wave (km/s) = 3.75965 3.95165 3.85684
# Velocity P-wave (km/s) = 7.65540 8.34588 8.00809
#
# Compressibility (1/GPa) = 0.01454032
#
# Stress axis : x y z
#
# Youngs Moduli (GPa) = 79.31824 78.99522 49.85119
#
# Poissons Ratio (x) = 0.43402 0.07165
# Poissons Ratio (y) = 0.43580 0.42181
# Poissons Ratio (z) = 0.11400 0.66840
#
# Static dielectric constant tensor:
#      x y z
#    x 3.284970 0.000000 0.000000 
#    y 0.000000 3.114050 0.000000 
#    z 0.000000 0.000000 3.595240 
# 
# 
# High freq. dielectric constant tensor:
#      x y z
#    x 1.659120 0.000000 0.000000 
#    y 0.000000 1.665310 0.000000 
#    z 0.000000 0.000000 1.669290 
# 
# From -- ./inp_files/25603.got.cif
#   From: 2010.03.12/outbox.cif.g09.slc.cpg/sg63_13_cif.got.tgz:25603.got - 2010.04.10 19:34:48.
