data_PCOD8256401
_publ_section_title
;
Structure prediction by ZEFSAII (Michael W. Deem and Ramdas Pophale) SiO2 
 PCOD8256401
Probable space group: C M C M
;
_chemical_formula_sum "Si O2"
_cell_formula_units_Z 96
_cell_length_a 23.194630
_cell_length_b 10.046854
_cell_length_c 22.100503
_cell_angle_alpha 90.000000
_cell_angle_beta 90.000000
_cell_angle_gamma 90.000000
_cell_volume 5150.147868
_symmetry_space_group_name_H-M "C M C M"
_symmetry_group_IT_number 63
_symmetry_cell_setting 'orthorhombic'
loop_
_space_group_symop_operation_xyz
x,y,z
-x,-y,1/2+z
x,-y,-z
-x,y,1/2-z
-x,-y,-z
x,y,1/2-z
-x,y,z
x,-y,1/2+z
1/2+x,1/2+y,z
1/2-x,1/2-y,1/2+z
1/2+x,1/2-y,-z
1/2-x,1/2+y,1/2-z
1/2-x,1/2-y,-z
1/2+x,1/2+y,1/2-z
1/2-x,1/2+y,z
1/2+x,1/2-y,1/2+z
loop_
_atom_site_type_symbol
_atom_site_label
_atom_site_fract_x
_atom_site_fract_y
_atom_site_fract_z
Si Si1 0.668691 0.394781 0.568287
Si Si2 0.718858 0.193623 0.113111
Si Si3 0.877283 0.774699 0.817226
Si Si4 0.217927 0.423439 0.318889
Si Si5 0.500000 0.366800 0.819650
Si Si6 0.122232 0.820739 0.453060
Si Si7 0.000000 0.929841 0.066216
O O1 0.735000 0.347365 0.561097
O O2 0.650596 0.381269 0.638033
O O3 0.626757 0.301517 0.526096
O O4 0.661855 0.549022 0.554131
O O5 0.737335 0.332901 0.143596
O O6 0.654946 0.205147 0.083707
O O7 0.717461 0.076269 0.161833
O O8 0.863432 0.827813 0.750000
O O9 0.847618 0.631281 0.827538
O O10 0.945795 0.768997 0.827961
O O11 0.238098 0.416462 0.250000
O O12 0.500000 0.428805 0.750000
O O13 0.500000 0.475974 0.874272
O O14 0.056740 0.837205 0.430286
O O15 0.000000 0.000000 0.000000
#
# Coordination Sequence:
#
# PCOD8256401 Si02
#       7
#    16  16  16  16   8  16   8
#     4  10  19  35  55  84 112 145 188 238 290 339
#     4  11  21  38  55  86 118 149 195 238 296 352
#     4   9  18  33  53  79 107 141 190 240 287 339
#     4  10  21  36  57  83 115 152 192 242 297 348
#     4  10  18  32  55  82 111 148 200 245 283 342
#     4  11  21  35  57  85 117 153 192 236 291 339
#     4  12  20  36  59  84 122 154 200 242 286 347
#
# _framework density 18.640242000000001
#
# number of rings (size 3 to 8) (size 9 to 14) (size 15 to 20)
#    0.000    1.667    5.000    1.000    0.000    0.667 
#    0.000    2.500    0.000    0.000    0.000    7.000 
#    0.000    0.000    0.000    0.000    0.000    0.000 
#
# Total GULP energy -594686.861469 kJ/mol
# GULP energy per Si atom -12389.309614 kJ/mol
# Density = 1.859782 g / cm^3
# Si number density = 18.640242 Si / 1000 Ang^3
#
#
#
# Elastic Constant Matrix: (Units=GPa)
#
#
# Indices 1 2 3 4 5 6 
#
# 1 141.2978 25.9689 38.2545 0.0000 0.0000 0.0000
# 2 25.9689 50.0398 22.0686 0.0000 0.0000 0.0000
# 3 38.2545 22.0686 91.9623 0.0000 0.0000 0.0000
# 4 0.0000 0.0000 0.0000 25.4258 0.0000 0.0000
# 5 0.0000 0.0000 0.0000 0.0000 26.1842 0.0000
# 6 0.0000 0.0000 0.0000 0.0000 0.0000 28.6531
#
#
#
# Elastic Compliance Matrix: (Units=1/GPa)
#
#
# Indices 1 2 3 4 5 6 
#
# 1 0.008397 -0.003151 -0.002737 0.000000 0.000000 0.000000
# 2 -0.003151 0.023532 -0.004336 0.000000 0.000000 0.000000
# 3 -0.002737 -0.004336 0.013053 0.000000 0.000000 0.000000
# 4 0.000000 0.000000 0.000000 0.039330 0.000000 0.000000
# 5 0.000000 0.000000 0.000000 0.000000 0.038191 0.000000
# 6 0.000000 0.000000 0.000000 0.000000 0.000000 0.034900
#
#
# Mechanical properties :
#
#
# Convention : Reuss Voigt Hill
#
# Bulk Modulus (GPa) = 40.76001 50.65377 45.70689
# Shear Modulus (GPa) = 26.87740 29.18646 28.03193
#
# Velocity S-wave (km/s) = 3.80136 3.96128 3.88214
# Velocity P-wave (km/s) = 6.41726 6.93944 6.68345
#
# Compressibility (1/GPa) = 0.02453385
#
# Stress axis : x y z
#
# Youngs Moduli (GPa) = 119.08517 42.49591 76.60972
#
# Poissons Ratio (x) = 0.13390 0.20968
# Poissons Ratio (y) = 0.37522 0.33220
# Poissons Ratio (z) = 0.32594 0.18428
#
# Static dielectric constant tensor:
#      x y z
#    x 3.671240 0.000000 0.000000 
#    y 0.000000 3.068880 0.000000 
#    z 0.000000 0.000000 3.939130 
# 
# 
# High freq. dielectric constant tensor:
#      x y z
#    x 1.725930 0.000000 0.000000 
#    y 0.000000 1.680660 0.000000 
#    z 0.000000 0.000000 1.743300 
# 
# From -- ./inp_files/57535.got.cif
#   From: 2010.03.12/outbox.cif.g09.slc.cpg/sg63_29_cif.got.tgz:57535.got - 2010.04.10 19:34:48.
