data_PCOD8256399
_publ_section_title
;
Structure prediction by ZEFSAII (Michael W. Deem and Ramdas Pophale) SiO2 
 PCOD8256399
Probable space group: C M C M
;
_chemical_formula_sum "Si O2"
_cell_formula_units_Z 96
_cell_length_a 28.221313
_cell_length_b 19.986306
_cell_length_c 9.420617
_cell_angle_alpha 90.000000
_cell_angle_beta 90.000000
_cell_angle_gamma 90.000000
_cell_volume 5313.602903
_symmetry_space_group_name_H-M "C M C M"
_symmetry_group_IT_number 63
_symmetry_cell_setting 'orthorhombic'
loop_
_space_group_symop_operation_xyz
x,y,z
-x,-y,1/2+z
x,-y,-z
-x,y,1/2-z
-x,-y,-z
x,y,1/2-z
-x,y,z
x,-y,1/2+z
1/2+x,1/2+y,z
1/2-x,1/2-y,1/2+z
1/2+x,1/2-y,-z
1/2-x,1/2+y,1/2-z
1/2-x,1/2-y,-z
1/2+x,1/2+y,1/2-z
1/2-x,1/2+y,z
1/2+x,1/2-y,1/2+z
loop_
_atom_site_type_symbol
_atom_site_label
_atom_site_fract_x
_atom_site_fract_y
_atom_site_fract_z
Si Si1 0.869990 0.931065 0.918311
Si Si2 0.803659 0.691465 0.912253
Si Si3 0.054861 0.559552 0.092482
Si Si4 0.088173 0.680416 0.915051
Si Si5 0.281824 0.341847 0.915190
Si Si6 0.053287 0.824785 0.581654
O O1 0.872859 0.942987 0.750000
O O2 0.820308 0.896820 0.960909
O O3 0.912999 0.884281 0.972768
O O4 0.874636 0.000000 0.000000
O O5 0.788369 0.683277 0.750000
O O6 0.856487 0.665892 0.938643
O O7 0.802076 0.769207 0.957099
O O8 0.767596 0.646161 0.003295
O O9 0.078399 0.562618 0.250000
O O10 0.000000 0.543398 0.111523
O O11 0.078891 0.500000 0.000000
O O12 0.059613 0.629207 0.011031
O O13 0.074106 0.671287 0.750000
O O14 0.074219 0.754057 0.970040
O O15 0.270888 0.347016 0.750000
O O16 0.053331 0.825103 0.750000
O O17 0.000000 0.835244 0.522060
#
# Coordination Sequence:
#
# PCOD8256399 Si02
#       6
#    16  16  16  16  16  16
#     4  10  20  35  53  75 105 141 181 223 266 315
#     4   9  17  30  52  79 104 128 165 213 259 310
#     4  10  21  36  53  75 105 140 176 213 256 311
#     4  10  18  32  55  82 107 136 174 219 264 313
#     4   9  17  32  51  73 102 134 169 211 257 310
#     4   9  17  31  53  78 104 138 180 221 265 318
#
# _framework density 18.066838000000001
#
# number of rings (size 3 to 8) (size 9 to 14) (size 15 to 20)
#    0.000    2.500    1.667    1.000    0.000    3.333 
#    0.000    1.667    0.000    3.000    0.000    0.000 
#    0.000    0.000    0.000    0.000    0.000    0.000 
#
# Total GULP energy -595144.067925 kJ/mol
# GULP energy per Si atom -12398.834748 kJ/mol
# Density = 1.802572 g / cm^3
# Si number density = 18.066838 Si / 1000 Ang^3
#
#
#
# Elastic Constant Matrix: (Units=GPa)
#
#
# Indices 1 2 3 4 5 6 
#
# 1 97.5068 51.9877 38.5918 0.0000 0.0000 0.0000
# 2 51.9877 129.0944 53.5174 0.0000 0.0000 0.0000
# 3 38.5918 53.5174 67.9681 0.0000 0.0000 0.0000
# 4 0.0000 0.0000 0.0000 30.5033 0.0000 0.0000
# 5 0.0000 0.0000 0.0000 0.0000 24.2730 0.0000
# 6 0.0000 0.0000 0.0000 0.0000 0.0000 27.5270
#
#
#
# Elastic Compliance Matrix: (Units=1/GPa)
#
#
# Indices 1 2 3 4 5 6 
#
# 1 0.014239 -0.003537 -0.005300 0.000000 0.000000 0.000000
# 2 -0.003537 0.012379 -0.007739 0.000000 0.000000 0.000000
# 3 -0.005300 -0.007739 0.023815 0.000000 0.000000 0.000000
# 4 0.000000 0.000000 0.000000 0.032783 0.000000 0.000000
# 5 0.000000 0.000000 0.000000 0.000000 0.041198 0.000000
# 6 0.000000 0.000000 0.000000 0.000000 0.000000 0.036328
#
#
# Mechanical properties :
#
#
# Convention : Reuss Voigt Hill
#
# Bulk Modulus (GPa) = 57.86303 64.75145 61.30724
# Shear Modulus (GPa) = 25.04326 26.49214 25.76770
#
# Velocity S-wave (km/s) = 3.72714 3.83344 3.78066
# Velocity P-wave (km/s) = 7.11469 7.45060 7.28458
#
# Compressibility (1/GPa) = 0.01728219
#
# Stress axis : x y z
#
# Youngs Moduli (GPa) = 70.22866 80.78291 41.98989
#
# Poissons Ratio (x) = 0.28575 0.22254
# Poissons Ratio (y) = 0.24841 0.32494
# Poissons Ratio (z) = 0.37220 0.62515
#
# Static dielectric constant tensor:
#      x y z
#    x 3.469280 0.000000 0.000000 
#    y 0.000000 3.204370 0.000000 
#    z 0.000000 0.000000 3.234120 
# 
# 
# High freq. dielectric constant tensor:
#      x y z
#    x 1.699670 0.000000 0.000000 
#    y 0.000000 1.689070 0.000000 
#    z 0.000000 0.000000 1.680130 
# 
# From -- ./inp_files/12363.got.cif
#   From: 2010.03.12/outbox.cif.g09.slc.cpg/sg63_7_cif.got.tgz:12363.got - 2010.04.10 19:34:48.
