data_PCOD8256615
_publ_section_title
;
Structure prediction by ZEFSAII (Michael W. Deem and Ramdas Pophale) SiO2 
 PCOD8256615
Probable space group: C M C M
;
_chemical_formula_sum "Si O2"
_cell_formula_units_Z 96
_cell_length_a 14.463397
_cell_length_b 24.403681
_cell_length_c 14.527213
_cell_angle_alpha 90.000000
_cell_angle_beta 90.000000
_cell_angle_gamma 90.000000
_cell_volume 5127.526939
_symmetry_space_group_name_H-M "C M C M"
_symmetry_group_IT_number 63
_symmetry_cell_setting 'orthorhombic'
loop_
_space_group_symop_operation_xyz
x,y,z
-x,-y,1/2+z
x,-y,-z
-x,y,1/2-z
-x,-y,-z
x,y,1/2-z
-x,y,z
x,-y,1/2+z
1/2+x,1/2+y,z
1/2-x,1/2-y,1/2+z
1/2+x,1/2-y,-z
1/2-x,1/2+y,1/2-z
1/2-x,1/2-y,-z
1/2+x,1/2+y,1/2-z
1/2-x,1/2+y,z
1/2+x,1/2-y,1/2+z
loop_
_atom_site_type_symbol
_atom_site_label
_atom_site_fract_x
_atom_site_fract_y
_atom_site_fract_z
Si Si1 0.500000 0.263243 0.969118
Si Si2 0.500000 0.188105 0.354826
Si Si3 0.700963 0.564296 0.016840
Si Si4 0.314160 0.747863 0.358698
Si Si5 0.801738 0.357891 0.644267
Si Si6 0.500000 0.347388 0.107777
Si Si7 0.500000 0.562803 0.014000
Si Si8 0.700087 0.646537 0.648386
O O1 0.588855 0.248223 0.910238
O O2 0.500000 0.236543 0.071268
O O3 0.500000 0.326619 0.999666
O O4 0.500000 0.212409 0.250000
O O5 0.410437 0.150815 0.370791
O O6 0.711847 0.595520 0.919484
O O7 0.719259 0.500000 0.000000
O O8 0.775423 0.587911 0.087690
O O9 0.598945 0.576995 0.061714
O O10 0.331990 0.746057 0.250000
O O11 0.255967 0.694933 0.391108
O O12 0.258422 0.801921 0.388231
O O13 0.778320 0.369166 0.750000
O O14 0.405781 0.331428 0.159297
O O15 0.500000 0.412738 0.090026
O O16 0.500000 0.500000 0.000000
O O17 0.734136 0.628491 0.750000
#
# Coordination Sequence:
#
# PCOD8256615 Si02
#       8
#     8   8  16  16  16   8   8  16
#     4  12  21  32  52  76 111 142 166 212 264 312
#     4  10  22  37  54  77 104 138 179 220 268 320
#     4  10  20  35  55  80 107 140 180 218 261 315
#     4  10  21  35  53  79 108 140 175 209 258 321
#     4  10  21  38  57  78 106 140 179 222 266 315
#     4  10  19  28  48  75  98 133 174 207 251 301
#     4   8  16  31  48  70 104 135 166 209 251 299
#     4  10  20  34  52  76 107 138 172 215 259 307
#
# _framework density 18.722476
#
# number of rings (size 3 to 8) (size 9 to 14) (size 15 to 20)
#    0.000    2.000    0.000    4.500    0.000    4.667 
#    0.000    1.667    0.000    3.000    0.000    2.333 
#    0.000    0.000    0.000    0.000    0.000    0.000 
#
# Total GULP energy -594816.355158 kJ/mol
# GULP energy per Si atom -12392.007399 kJ/mol
# Density = 1.867986 g / cm^3
# Si number density = 18.722476 Si / 1000 Ang^3
#
#
#
# Elastic Constant Matrix: (Units=GPa)
#
#
# Indices 1 2 3 4 5 6 
#
# 1 138.7465 57.5616 51.9892 0.0000 0.0000 0.0000
# 2 57.5616 121.6547 52.8106 0.0000 0.0000 0.0000
# 3 51.9892 52.8106 76.2386 0.0000 0.0000 0.0000
# 4 0.0000 0.0000 0.0000 25.2702 0.0000 0.0000
# 5 0.0000 0.0000 0.0000 0.0000 23.3929 0.0000
# 6 0.0000 0.0000 0.0000 0.0000 0.0000 25.6618
#
#
#
# Elastic Compliance Matrix: (Units=1/GPa)
#
#
# Indices 1 2 3 4 5 6 
#
# 1 0.010221 -0.002589 -0.005177 0.000000 0.000000 0.000000
# 2 -0.002589 0.012410 -0.006831 0.000000 0.000000 0.000000
# 3 -0.005177 -0.006831 0.021379 0.000000 0.000000 0.000000
# 4 0.000000 0.000000 0.000000 0.039572 0.000000 0.000000
# 5 0.000000 0.000000 0.000000 0.000000 0.042748 0.000000
# 6 0.000000 0.000000 0.000000 0.000000 0.000000 0.038968
#
#
# Mechanical properties :
#
#
# Convention : Reuss Voigt Hill
#
# Bulk Modulus (GPa) = 67.49171 73.48473 70.48822
# Shear Modulus (GPa) = 25.07119 26.48354 25.77736
#
# Velocity S-wave (km/s) = 3.66334 3.76511 3.71457
# Velocity P-wave (km/s) = 7.34984 7.63125 7.49187
#
# Compressibility (1/GPa) = 0.01481663
#
# Stress axis : x y z
#
# Youngs Moduli (GPa) = 97.83539 80.57735 46.77512
#
# Poissons Ratio (x) = 0.20862 0.24214
# Poissons Ratio (y) = 0.25330 0.31953
# Poissons Ratio (z) = 0.50647 0.55044
#
# Static dielectric constant tensor:
#      x y z
#    x 5.255100 0.000000 0.000000 
#    y 0.000000 3.359810 0.000000 
#    z 0.000000 0.000000 3.300060 
# 
# 
# High freq. dielectric constant tensor:
#      x y z
#    x 1.733600 0.000000 0.000000 
#    y 0.000000 1.716760 0.000000 
#    z 0.000000 0.000000 1.721130 
# 
# From -- ./inp_files/32016.got.cif
#   From: 2010.03.12/outbox.cif.g09.slc.cpg/sg63_17_cif.got.tgz:32016.got - 2010.04.10 19:34:48.
