data_PCOD8256493
_publ_section_title
;
Structure prediction by ZEFSAII (Michael W. Deem and Ramdas Pophale) SiO2 
 PCOD8256493
Probable space group: C M C M
;
_chemical_formula_sum "Si O2"
_cell_formula_units_Z 72
_cell_length_a 25.677571
_cell_length_b 9.007004
_cell_length_c 18.137306
_cell_angle_alpha 90.000000
_cell_angle_beta 90.000000
_cell_angle_gamma 90.000000
_cell_volume 4194.759580
_symmetry_space_group_name_H-M "C M C M"
_symmetry_group_IT_number 63
_symmetry_cell_setting 'orthorhombic'
loop_
_space_group_symop_operation_xyz
x,y,z
-x,-y,1/2+z
x,-y,-z
-x,y,1/2-z
-x,-y,-z
x,y,1/2-z
-x,y,z
x,-y,1/2+z
1/2+x,1/2+y,z
1/2-x,1/2-y,1/2+z
1/2+x,1/2-y,-z
1/2-x,1/2+y,1/2-z
1/2-x,1/2-y,-z
1/2+x,1/2+y,1/2-z
1/2-x,1/2+y,z
1/2+x,1/2-y,1/2+z
loop_
_atom_site_type_symbol
_atom_site_label
_atom_site_fract_x
_atom_site_fract_y
_atom_site_fract_z
Si Si1 0.263159 0.500000 0.000000
Si Si2 0.682838 0.773871 0.943027
Si Si3 0.500000 0.219379 0.330255
Si Si4 0.500000 0.671727 0.992618
Si Si5 0.890161 0.566662 0.332281
Si Si6 0.904932 0.645033 0.545234
O O1 0.296835 0.396342 0.056119
O O2 0.229633 0.607356 0.052842
O O3 0.647078 0.812191 0.872390
O O4 0.648904 0.788469 0.016725
O O5 0.500000 0.306385 0.250000
O O6 0.500000 0.315375 0.404032
O O7 0.449256 0.118875 0.332695
O O8 0.500000 0.500000 0.000000
O O9 0.549785 0.735692 0.035498
O O10 0.868398 0.545615 0.250000
O O11 0.892011 0.405389 0.371431
O O12 0.922722 0.500000 0.500000
#
# Coordination Sequence:
#
# PCOD8256493 Si02
#       6
#     8  16   8   8  16  16
#     4  10  20  34  56  80 104 140 190 238 286 308
#     4  10  19  34  57  80 106 141 187 235 270 336
#     4  10  19  33  54  80 111 141 176 221 274 335
#     4  12  22  32  55  87 114 142 186 230 275 334
#     4  10  19  34  57  83 109 145 181 227 282 334
#     4  10  18  34  55  79 105 141 185 226 261 335
#
# _framework density 17.164273999999999
#
# number of rings (size 3 to 8) (size 9 to 14) (size 15 to 20)
#    0.000    1.778    7.778    1.000    1.556    0.000 
#    0.000    2.222    0.000    1.333    0.000    0.000 
#    0.000    0.000    0.000    0.000    0.000    0.000 
#
# Total GULP energy -446069.442407 kJ/mol
# GULP energy per Si atom -12390.817845 kJ/mol
# Density = 1.712521 g / cm^3
# Si number density = 17.164274 Si / 1000 Ang^3
#
#
#
# Elastic Constant Matrix: (Units=GPa)
#
#
# Indices 1 2 3 4 5 6 
#
# 1 104.4607 54.6812 47.7431 0.0000 0.0000 0.0000
# 2 54.6812 114.0069 39.3386 0.0000 0.0000 0.0000
# 3 47.7431 39.3386 130.3057 0.0000 0.0000 0.0000
# 4 0.0000 0.0000 0.0000 17.9060 0.0000 0.0000
# 5 0.0000 0.0000 0.0000 0.0000 -38.0142 0.0000
# 6 0.0000 0.0000 0.0000 0.0000 0.0000 17.2158
#
#
#
# Elastic Compliance Matrix: (Units=1/GPa)
#
#
# Indices 1 2 3 4 5 6 
#
# 1 0.014066 -0.005546 -0.003480 0.000000 0.000000 0.000000
# 2 -0.005546 0.011978 -0.001584 0.000000 0.000000 0.000000
# 3 -0.003480 -0.001584 0.009427 0.000000 0.000000 0.000000
# 4 0.000000 0.000000 0.000000 0.055847 0.000000 0.000000
# 5 0.000000 0.000000 0.000000 0.000000 -0.026306 0.000000
# 6 0.000000 0.000000 0.000000 0.000000 0.000000 0.058086
#
#
# Mechanical properties :
#
#
# Convention : Reuss Voigt Hill
#
# Bulk Modulus (GPa) = 70.16297 70.25545 70.20921
# Shear Modulus (GPa) = 33.54143 13.22221 23.38182
#
# Velocity S-wave (km/s) = 4.42536 2.77850 3.69485
# Velocity P-wave (km/s) = 8.19011 7.16334 7.69387
#
# Compressibility (1/GPa) = 0.01425253
#
# Stress axis : x y z
#
# Youngs Moduli (GPa) = 71.09129 83.48598 106.07429
#
# Poissons Ratio (x) = 0.46302 0.36909
# Poissons Ratio (y) = 0.39428 0.16803
# Poissons Ratio (z) = 0.24736 0.13225
#
# Static dielectric constant tensor:
#      x y z
#    x 3.384510 0.000000 0.000000 
#    y 0.000000 3.103070 0.000000 
#    z 0.000000 0.000000 3.820820 
# 
# 
# High freq. dielectric constant tensor:
#      x y z
#    x 1.678780 0.000000 0.000000 
#    y 0.000000 1.641990 0.000000 
#    z 0.000000 0.000000 1.644630 
# 
# From -- ./inp_files/47834.got.cif
#   From: 2010.03.12/outbox.cif.g09.slc.cpg/sg63_24_cif.got.tgz:47834.got - 2010.04.10 19:34:48.
