data_PCOD8256965
_publ_section_title
;
Structure prediction by ZEFSAII (Michael W. Deem and Ramdas Pophale) SiO2 
 PCOD8256965
Probable space group: C M C M
;
_chemical_formula_sum "Si O2"
_cell_formula_units_Z 80
_cell_length_a 8.765882
_cell_length_b 23.238422
_cell_length_c 20.641579
_cell_angle_alpha 90.000000
_cell_angle_beta 90.000000
_cell_angle_gamma 90.000000
_cell_volume 4204.798323
_symmetry_space_group_name_H-M "C M C M"
_symmetry_group_IT_number 63
_symmetry_cell_setting 'orthorhombic'
loop_
_space_group_symop_operation_xyz
x,y,z
-x,-y,1/2+z
x,-y,-z
-x,y,1/2-z
-x,-y,-z
x,y,1/2-z
-x,y,z
x,-y,1/2+z
1/2+x,1/2+y,z
1/2-x,1/2-y,1/2+z
1/2+x,1/2-y,-z
1/2-x,1/2+y,1/2-z
1/2-x,1/2-y,-z
1/2+x,1/2+y,1/2-z
1/2-x,1/2+y,z
1/2+x,1/2-y,1/2+z
loop_
_atom_site_type_symbol
_atom_site_label
_atom_site_fract_x
_atom_site_fract_y
_atom_site_fract_z
Si Si1 0.181799 0.934138 0.499865
Si Si2 0.818587 0.128458 0.871708
Si Si3 0.182295 0.058711 0.750000
Si Si4 0.681360 0.431055 0.750000
Si Si5 0.181208 0.864625 0.875042
Si Si6 0.818972 0.748119 0.175289
O O1 0.245561 0.898861 0.438115
O O2 0.240956 0.899265 0.562419
O O3 0.000000 0.936121 0.499187
O O4 0.244193 0.000000 0.500000
O O5 0.754072 0.090076 0.813377
O O6 0.761997 0.193361 0.859199
O O7 0.000000 0.126796 0.872596
O O8 0.000000 0.059085 0.750000
O O9 0.249352 0.994786 0.750000
O O10 0.500000 0.433091 0.750000
O O11 0.742854 0.398942 0.813058
O O12 0.251190 0.801237 0.870555
O O13 0.000000 0.859339 0.875934
O O14 0.759122 0.744730 0.250000
O O15 0.000000 0.744434 0.175505
#
# Coordination Sequence:
#
# PCOD8256965 Si02
#       6
#    16  16   8   8  16  16
#     4   9  17  29  46  71 102 128 154 198 250 290
#     4   9  16  27  44  67  95 126 160 198 238 282
#     4   9  14  23  42  67  93 121 156 199 242 278
#     4   9  16  25  41  67  95 121 154 193 236 286
#     4  10  19  31  48  72 100 129 157 194 245 291
#     4  10  19  32  49  70  96 127 165 205 238 275
#
# _framework density 19.025881999999999
#
# number of rings (size 3 to 8) (size 9 to 14) (size 15 to 20)
#    0.000    2.600    2.000    1.200    0.000    5.600 
#    0.000    0.000    0.000    0.600    0.000    5.600 
#    0.000    0.000    0.000    0.000    0.000    0.000 
#
# Total GULP energy -495870.583445 kJ/mol
# GULP energy per Si atom -12396.764586 kJ/mol
# Density = 1.898258 g / cm^3
# Si number density = 19.025882 Si / 1000 Ang^3
#
#
#
# Elastic Constant Matrix: (Units=GPa)
#
#
# Indices 1 2 3 4 5 6 
#
# 1 6.6916 13.3132 9.7698 0.0000 0.0000 0.0000
# 2 13.3132 199.3528 99.0389 0.0000 0.0000 0.0000
# 3 9.7698 99.0389 182.3470 0.0000 0.0000 0.0000
# 4 0.0000 0.0000 0.0000 44.5682 0.0000 0.0000
# 5 0.0000 0.0000 0.0000 0.0000 7.6173 0.0000
# 6 0.0000 0.0000 0.0000 0.0000 0.0000 21.0222
#
#
#
# Elastic Compliance Matrix: (Units=1/GPa)
#
#
# Indices 1 2 3 4 5 6 
#
# 1 0.174589 -0.009604 -0.004138 0.000000 0.000000 0.000000
# 2 -0.009604 0.007398 -0.003504 0.000000 0.000000 0.000000
# 3 -0.004138 -0.003504 0.007609 0.000000 0.000000 0.000000
# 4 0.000000 0.000000 0.000000 0.022438 0.000000 0.000000
# 5 0.000000 0.000000 0.000000 0.000000 0.131280 0.000000
# 6 0.000000 0.000000 0.000000 0.000000 0.000000 0.047569
#
#
# Mechanical properties :
#
#
# Convention : Reuss Voigt Hill
#
# Bulk Modulus (GPa) = 6.44723 70.29279 38.37001
# Shear Modulus (GPa) = 10.48054 32.39285 21.43669
#
# Velocity S-wave (km/s) = 2.34958 4.13069 3.36029
# Velocity P-wave (km/s) = 3.27974 7.73151 5.93856
#
# Compressibility (1/GPa) = 0.15510536
#
# Stress axis : x y z
#
# Youngs Moduli (GPa) = 5.72773 135.16765 131.42795
#
# Poissons Ratio (x) = 1.29810 0.54386
# Poissons Ratio (y) = 0.05501 0.46048
# Poissons Ratio (z) = 0.02370 0.47358
#
# Static dielectric constant tensor:
#      x y z
#    x 2.719940 0.000000 0.000000 
#    y 0.000000 3.735390 0.000000 
#    z 0.000000 0.000000 3.736330 
# 
# 
# High freq. dielectric constant tensor:
#      x y z
#    x 1.662650 0.000000 0.000000 
#    y 0.000000 1.760040 0.000000 
#    z 0.000000 0.000000 1.749510 
# 
# From -- ./inp_files/50891.got.cif
#   From: 2010.03.12/outbox.cif.g09.slc.cpg/sg63_26_cif.got.tgz:50891.got - 2010.04.10 19:34:48.
