data_PCOD8256002
_publ_section_title
;
Structure prediction by ZEFSAII (Michael W. Deem and Ramdas Pophale) SiO2 
 PCOD8256002
Probable space group: C M C M
;
_chemical_formula_sum "Si O2"
_cell_formula_units_Z 96
_cell_length_a 24.399099
_cell_length_b 17.497230
_cell_length_c 14.437655
_cell_angle_alpha 90.000000
_cell_angle_beta 90.000000
_cell_angle_gamma 90.000000
_cell_volume 6163.675263
_symmetry_space_group_name_H-M "C M C M"
_symmetry_group_IT_number 63
_symmetry_cell_setting 'orthorhombic'
loop_
_space_group_symop_operation_xyz
x,y,z
-x,-y,1/2+z
x,-y,-z
-x,y,1/2-z
-x,-y,-z
x,y,1/2-z
-x,y,z
x,-y,1/2+z
1/2+x,1/2+y,z
1/2-x,1/2-y,1/2+z
1/2+x,1/2-y,-z
1/2-x,1/2+y,1/2-z
1/2-x,1/2-y,-z
1/2+x,1/2+y,1/2-z
1/2-x,1/2+y,z
1/2+x,1/2-y,1/2+z
loop_
_atom_site_type_symbol
_atom_site_label
_atom_site_fract_x
_atom_site_fract_y
_atom_site_fract_z
Si Si1 0.793642 0.684850 0.520101
Si Si2 0.136522 0.814374 0.581879
Si Si3 0.618002 0.430251 0.063802
Si Si4 0.764546 0.065880 0.645096
Si Si5 0.250092 0.109775 0.146039
Si Si6 0.065412 0.147761 0.250000
Si Si7 0.935845 0.028256 0.750000
O O1 0.750000 0.750000 0.500000
O O2 0.848688 0.727192 0.553948
O O3 0.777457 0.626136 0.601086
O O4 0.797966 0.641399 0.421510
O O5 0.107794 0.852526 0.492610
O O6 0.189247 0.864772 0.613373
O O7 0.090907 0.810696 0.661213
O O8 0.682021 0.435512 0.082874
O O9 0.585051 0.428178 0.159314
O O10 0.597640 0.500000 0.000000
O O11 0.777468 0.091956 0.750000
O O12 0.741048 0.980779 0.643950
O O13 0.259322 0.141310 0.250000
O O14 0.000000 0.156390 0.250000
O O15 0.084875 0.059258 0.250000
O O16 0.000000 0.031238 0.750000
#
# Coordination Sequence:
#
# PCOD8256002 Si02
#       7
#    16  16  16  16  16   8   8
#     4  10  20  30  43  71  99 129 161 191 237 289
#     4  11  21  33  49  71  97 131 163 205 241 288
#     4  12  19  32  50  66  93 129 169 201 243 285
#     4  11  19  29  48  70  95 134 165 193 232 290
#     4  10  18  30  48  68  99 132 162 195 233 284
#     4  11  22  36  53  70  94 129 168 211 258 281
#     4  11  24  36  49  70  90 121 174 225 246 271
#
# _framework density 15.575122
#
# number of rings (size 3 to 8) (size 9 to 14) (size 15 to 20)
#    0.000    1.167    8.333    0.500    1.167    1.667 
#    1.500    0.000    0.000    0.000    0.000    0.000 
#    0.000    2.667    0.000    0.000    0.000    0.000 
#
# Total GULP energy -595040.679217 kJ/mol
# GULP energy per Si atom -12396.680817 kJ/mol
# Density = 1.553967 g / cm^3
# Si number density = 15.575122 Si / 1000 Ang^3
#
#
#
# Elastic Constant Matrix: (Units=GPa)
#
#
# Indices 1 2 3 4 5 6 
#
# 1 47.1422 26.5053 33.4383 0.0000 0.0000 0.0000
# 2 26.5053 62.0964 36.8182 0.0000 0.0000 0.0000
# 3 33.4383 36.8182 136.5891 0.0000 0.0000 0.0000
# 4 0.0000 0.0000 0.0000 22.8127 0.0000 0.0000
# 5 0.0000 0.0000 0.0000 0.0000 7.9860 0.0000
# 6 0.0000 0.0000 0.0000 0.0000 0.0000 16.4737
#
#
#
# Elastic Compliance Matrix: (Units=1/GPa)
#
#
# Indices 1 2 3 4 5 6 
#
# 1 0.030219 -0.010132 -0.004667 0.000000 0.000000 0.000000
# 2 -0.010132 0.022564 -0.003602 0.000000 0.000000 0.000000
# 3 -0.004667 -0.003602 0.009435 0.000000 0.000000 0.000000
# 4 0.000000 0.000000 0.000000 0.043835 0.000000 0.000000
# 5 0.000000 0.000000 0.000000 0.000000 0.125219 0.000000
# 6 0.000000 0.000000 0.000000 0.000000 0.000000 0.060703
#
#
# Mechanical properties :
#
#
# Convention : Reuss Voigt Hill
#
# Bulk Modulus (GPa) = 39.34374 48.81681 44.08027
# Shear Modulus (GPa) = 14.82584 19.39220 17.10902
#
# Velocity S-wave (km/s) = 3.08862 3.53239 3.31793
# Velocity P-wave (km/s) = 6.16725 6.93166 6.56060
#
# Compressibility (1/GPa) = 0.02541700
#
# Stress axis : x y z
#
# Youngs Moduli (GPa) = 33.09162 44.31780 105.99218
#
# Poissons Ratio (x) = 0.44901 0.49465
# Poissons Ratio (y) = 0.33527 0.38178
# Poissons Ratio (z) = 0.15444 0.15963
#
# Static dielectric constant tensor:
#      x y z
#    x 2.642730 0.000000 0.000000 
#    y 0.000000 3.209670 0.000000 
#    z 0.000000 0.000000 3.365630 
# 
# 
# High freq. dielectric constant tensor:
#      x y z
#    x 1.540270 0.000000 0.000000 
#    y 0.000000 1.584730 0.000000 
#    z 0.000000 0.000000 1.627430 
# 
# From -- ./inp_files/37896.got.cif
#   From: 2010.03.12/outbox.cif.g09.slc.cpg/sg63_19_cif.got.tgz:37896.got - 2010.04.10 19:34:48.
