data_PCOD8256403
_publ_section_title
;
Structure prediction by ZEFSAII (Michael W. Deem and Ramdas Pophale) SiO2 
 PCOD8256403
Probable space group: C M C M
;
_chemical_formula_sum "Si O2"
_cell_formula_units_Z 72
_cell_length_a 14.449171
_cell_length_b 19.957029
_cell_length_c 14.199504
_cell_angle_alpha 90.000000
_cell_angle_beta 90.000000
_cell_angle_gamma 90.000000
_cell_volume 4094.604823
_symmetry_space_group_name_H-M "C M C M"
_symmetry_group_IT_number 63
_symmetry_cell_setting 'orthorhombic'
loop_
_space_group_symop_operation_xyz
x,y,z
-x,-y,1/2+z
x,-y,-z
-x,y,1/2-z
-x,-y,-z
x,y,1/2-z
-x,y,z
x,-y,1/2+z
1/2+x,1/2+y,z
1/2-x,1/2-y,1/2+z
1/2+x,1/2-y,-z
1/2-x,1/2+y,1/2-z
1/2-x,1/2-y,-z
1/2+x,1/2+y,1/2-z
1/2-x,1/2+y,z
1/2+x,1/2-y,1/2+z
loop_
_atom_site_type_symbol
_atom_site_label
_atom_site_fract_x
_atom_site_fract_y
_atom_site_fract_z
Si Si1 0.303266 0.008837 0.750000
Si Si2 0.300166 0.633633 0.250000
Si Si3 0.799630 0.433890 0.449620
Si Si4 0.500000 0.953635 0.250000
Si Si5 0.500000 0.269366 0.943466
Si Si6 0.799834 0.186139 0.042646
Si Si7 0.500000 0.330269 0.750000
Si Si8 0.000000 0.386549 0.056554
O O1 0.282006 0.055692 0.660928
O O2 0.413699 0.995018 0.750000
O O3 0.250911 0.937935 0.750000
O O4 0.276083 0.675595 0.154550
O O5 0.410841 0.620776 0.250000
O O6 0.765091 0.500000 0.500000
O O7 0.732128 0.376200 0.482160
O O8 0.905514 0.419223 0.483349
O O9 0.500000 0.900167 0.166741
O O10 0.408337 0.306038 0.980969
O O11 0.500000 0.276303 0.832146
O O12 0.500000 0.191361 0.969911
O O13 0.750000 0.250000 0.000000
#
# Coordination Sequence:
#
# PCOD8256403 Si02
#       8
#     8   8  16   4   8  16   4   8
#     4  10  20  36  56  83 119 150 191 236 290 341
#     4  10  20  38  58  83 115 150 191 236 288 341
#     4  11  21  36  58  86 116 152 192 233 287 344
#     4   8  19  30  52  88 116 145 190 236 278 333
#     4  10  19  35  56  84 113 144 192 239 283 332
#     4  11  22  38  60  86 116 152 191 238 287 342
#     4   8  19  32  56  80 106 141 200 236 270 323
#     4  10  18  32  55  83 117 147 185 237 284 334
#
# _framework density 17.584115000000001
#
# number of rings (size 3 to 8) (size 9 to 14) (size 15 to 20)
#    0.000    1.778    4.444    0.667    0.000    0.889 
#    0.000    2.778    0.000    1.333    0.000    0.000 
#    0.000    0.000    0.000    0.000    0.000    0.000 
#
# Total GULP energy -446098.823835 kJ/mol
# GULP energy per Si atom -12391.633995 kJ/mol
# Density = 1.754409 g / cm^3
# Si number density = 17.584115 Si / 1000 Ang^3
#
#
#
# Elastic Constant Matrix: (Units=GPa)
#
#
# Indices 1 2 3 4 5 6 
#
# 1 113.6184 67.2309 51.6690 0.0000 0.0000 0.0000
# 2 67.2309 141.0760 54.9783 0.0000 0.0000 0.0000
# 3 51.6690 54.9783 110.7390 0.0000 0.0000 0.0000
# 4 0.0000 0.0000 0.0000 28.8615 0.0000 0.0000
# 5 0.0000 0.0000 0.0000 0.0000 20.3400 0.0000
# 6 0.0000 0.0000 0.0000 0.0000 0.0000 34.0535
#
#
#
# Elastic Compliance Matrix: (Units=1/GPa)
#
#
# Indices 1 2 3 4 5 6 
#
# 1 0.013456 -0.004917 -0.003837 0.000000 0.000000 0.000000
# 2 -0.004917 0.010586 -0.002961 0.000000 0.000000 0.000000
# 3 -0.003837 -0.002961 0.012291 0.000000 0.000000 0.000000
# 4 0.000000 0.000000 0.000000 0.034648 0.000000 0.000000
# 5 0.000000 0.000000 0.000000 0.000000 0.049164 0.000000
# 6 0.000000 0.000000 0.000000 0.000000 0.000000 0.029366
#
#
# Mechanical properties :
#
#
# Convention : Reuss Voigt Hill
#
# Bulk Modulus (GPa) = 77.51088 79.24332 78.37710
# Shear Modulus (GPa) = 28.21004 29.42135 28.81569
#
# Velocity S-wave (km/s) = 4.00971 4.09489 4.05252
# Velocity P-wave (km/s) = 8.10017 8.21709 8.15884
#
# Compressibility (1/GPa) = 0.01290141
#
# Stress axis : x y z
#
# Youngs Moduli (GPa) = 74.31636 94.46707 81.36236
#
# Poissons Ratio (x) = 0.46451 0.31220
# Poissons Ratio (y) = 0.36543 0.24093
# Poissons Ratio (z) = 0.28516 0.27973
#
# Static dielectric constant tensor:
#      x y z
#    x 3.561420 0.000000 0.000000 
#    y 0.000000 2.959320 0.000000 
#    z 0.000000 0.000000 3.378120 
# 
# 
# High freq. dielectric constant tensor:
#      x y z
#    x 1.682040 0.000000 0.000000 
#    y 0.000000 1.676380 0.000000 
#    z 0.000000 0.000000 1.679160 
# 
# From -- ./inp_files/31545.got.cif
#   From: 2010.03.12/outbox.cif.g09.slc.cpg/sg63_16_cif.got.tgz:31545.got - 2010.04.10 19:34:48.
