data_PCOD8256734
_publ_section_title
;
Structure prediction by ZEFSAII (Michael W. Deem and Ramdas Pophale) SiO2 
 PCOD8256734
Probable space group: C M C M
;
_chemical_formula_sum "Si O2"
_cell_formula_units_Z 80
_cell_length_a 17.982368
_cell_length_b 32.147389
_cell_length_c 8.912540
_cell_angle_alpha 90.000000
_cell_angle_beta 90.000000
_cell_angle_gamma 90.000000
_cell_volume 5152.216196
_symmetry_space_group_name_H-M "C M C M"
_symmetry_group_IT_number 63
_symmetry_cell_setting 'orthorhombic'
loop_
_space_group_symop_operation_xyz
x,y,z
-x,-y,1/2+z
x,-y,-z
-x,y,1/2-z
-x,-y,-z
x,y,1/2-z
-x,y,z
x,-y,1/2+z
1/2+x,1/2+y,z
1/2-x,1/2-y,1/2+z
1/2+x,1/2-y,-z
1/2-x,1/2+y,1/2-z
1/2-x,1/2-y,-z
1/2+x,1/2+y,1/2-z
1/2-x,1/2+y,z
1/2+x,1/2-y,1/2+z
loop_
_atom_site_type_symbol
_atom_site_label
_atom_site_fract_x
_atom_site_fract_y
_atom_site_fract_z
Si Si1 0.085788 0.712534 0.425220
Si Si2 0.832813 0.119708 0.072736
Si Si3 0.208814 0.662992 0.581200
Si Si4 0.641763 0.699767 0.580858
Si Si5 0.586033 0.543251 0.925577
O O1 0.104803 0.710739 0.250000
O O2 0.131773 0.676724 0.507358
O O3 0.108299 0.758010 0.488607
O O4 0.000000 0.703878 0.459015
O O5 0.834359 0.116025 0.250000
O O6 0.747595 0.125656 0.013684
O O7 0.882256 0.159730 0.019183
O O8 0.864820 0.078471 0.000666
O O9 0.192707 0.647411 0.750000
O O10 0.267638 0.701677 0.582821
O O11 0.610865 0.693229 0.750000
O O12 0.603120 0.541163 0.750000
O O13 0.500000 0.552994 0.958144
O O14 0.609751 0.500000 0.000000
#
# Coordination Sequence:
#
# PCOD8256734 Si02
#       5
#    16  16  16  16  16
#     4  10  19  30  45  65  89 118 154 195 239 281
#     4  10  19  31  49  68  89 119 156 193 228 270
#     4   9  18  32  47  63  87 119 156 193 232 276
#     4   8  17  31  45  63  88 120 155 192 232 274
#     4  10  20  34  51  71  97 125 152 185 226 270
#
# _framework density 15.527298999999999
#
# number of rings (size 3 to 8) (size 9 to 14) (size 15 to 20)
#    1.200    1.400    0.000    3.000    0.000    3.200 
#    0.000    2.000    0.000    0.000    0.000    0.000 
#    0.000    0.800    0.000    3.000    0.000    4.600 
#
# Total GULP energy -495670.732569 kJ/mol
# GULP energy per Si atom -12391.768314 kJ/mol
# Density = 1.549196 g / cm^3
# Si number density = 15.527299 Si / 1000 Ang^3
#
#
#
# Elastic Constant Matrix: (Units=GPa)
#
#
# Indices 1 2 3 4 5 6 
#
# 1 72.9262 55.8933 46.9152 0.0000 0.0000 0.0000
# 2 55.8933 99.1955 58.2426 0.0000 0.0000 0.0000
# 3 46.9152 58.2426 102.7692 0.0000 0.0000 0.0000
# 4 0.0000 0.0000 0.0000 26.5808 0.0000 0.0000
# 5 0.0000 0.0000 0.0000 0.0000 21.2682 0.0000
# 6 0.0000 0.0000 0.0000 0.0000 0.0000 13.7559
#
#
#
# Elastic Compliance Matrix: (Units=1/GPa)
#
#
# Indices 1 2 3 4 5 6 
#
# 1 0.025951 -0.011490 -0.005335 0.000000 0.000000 0.000000
# 2 -0.011490 0.020196 -0.006200 0.000000 0.000000 0.000000
# 3 -0.005335 -0.006200 0.015680 0.000000 0.000000 0.000000
# 4 0.000000 0.000000 0.000000 0.037621 0.000000 0.000000
# 5 0.000000 0.000000 0.000000 0.000000 0.047018 0.000000
# 6 0.000000 0.000000 0.000000 0.000000 0.000000 0.072696
#
#
# Mechanical properties :
#
#
# Convention : Reuss Voigt Hill
#
# Bulk Modulus (GPa) = 63.38768 66.33257 64.86012
# Shear Modulus (GPa) = 18.48615 19.91029 19.19822
#
# Velocity S-wave (km/s) = 3.45419 3.58477 3.52009
# Velocity P-wave (km/s) = 7.53794 7.74253 7.64092
#
# Compressibility (1/GPa) = 0.01577594
#
# Stress axis : x y z
#
# Youngs Moduli (GPa) = 38.53394 49.51513 63.77536
#
# Poissons Ratio (x) = 0.56893 0.34026
# Poissons Ratio (y) = 0.44276 0.39543
# Poissons Ratio (z) = 0.20559 0.30701
#
# Static dielectric constant tensor:
#      x y z
#    x 2.730890 0.000000 0.000000 
#    y 0.000000 2.748410 0.000000 
#    z 0.000000 0.000000 3.028930 
# 
# 
# High freq. dielectric constant tensor:
#      x y z
#    x 1.570300 0.000000 0.000000 
#    y 0.000000 1.567760 0.000000 
#    z 0.000000 0.000000 1.606130 
# 
# From -- ./inp_files/6658.got.cif
#   From: 2010.03.12/outbox.cif.g09.slc.cpg/sg63_4_cif.got.tgz:6658.got - 2010.04.10 19:34:48.
