data_PCOD8256133
_publ_section_title
;
Structure prediction by ZEFSAII (Michael W. Deem and Ramdas Pophale) SiO2 
 PCOD8256133
Probable space group: C M C M
;
_chemical_formula_sum "Si O2"
_cell_formula_units_Z 80
_cell_length_a 8.803137
_cell_length_b 18.584302
_cell_length_c 26.166222
_cell_angle_alpha 90.000000
_cell_angle_beta 90.000000
_cell_angle_gamma 90.000000
_cell_volume 4280.798016
_symmetry_space_group_name_H-M "C M C M"
_symmetry_group_IT_number 63
_symmetry_cell_setting 'orthorhombic'
loop_
_space_group_symop_operation_xyz
x,y,z
-x,-y,1/2+z
x,-y,-z
-x,y,1/2-z
-x,-y,-z
x,y,1/2-z
-x,y,z
x,-y,1/2+z
1/2+x,1/2+y,z
1/2-x,1/2-y,1/2+z
1/2+x,1/2-y,-z
1/2-x,1/2+y,1/2-z
1/2-x,1/2-y,-z
1/2+x,1/2+y,1/2-z
1/2-x,1/2+y,z
1/2+x,1/2-y,1/2+z
loop_
_atom_site_type_symbol
_atom_site_label
_atom_site_fract_x
_atom_site_fract_y
_atom_site_fract_z
Si Si1 0.331650 0.460463 0.250000
Si Si2 0.180408 0.455727 0.548210
Si Si3 0.179665 0.706476 0.046005
Si Si4 0.679990 0.045846 0.854641
Si Si5 0.334145 0.289728 0.250000
Si Si6 0.318411 0.699895 0.641362
O O1 0.500000 0.495284 0.250000
O O2 0.242974 0.484868 0.198975
O O3 0.346072 0.375429 0.250000
O O4 0.246898 0.500000 0.500000
O O5 0.244048 0.374536 0.545772
O O6 0.233679 0.491443 0.601105
O O7 0.000000 0.454688 0.545384
O O8 0.230985 0.743606 0.098671
O O9 0.000000 0.707595 0.040111
O O10 0.250000 0.750000 0.000000
O O11 0.500000 0.051488 0.850673
O O12 0.744470 0.123314 0.870592
O O13 0.500000 0.253505 0.250000
O O14 0.254165 0.268964 0.303844
O O15 0.500000 0.689398 0.644842
#
# Coordination Sequence:
#
# PCOD8256133 Si02
#       6
#     8  16  16  16   8  16
#     4   9  17  31  50  73 105 137 165 203 248 290
#     4   9  18  32  49  71 101 134 166 205 253 299
#     4  10  20  34  51  72  98 130 169 209 251 300
#     4  10  18  30  52  78 102 131 169 206 242 295
#     4   7  12  25  44  65  89 119 151 185 232 286
#     4   9  17  30  49  72  98 128 163 204 251 298
#
# _framework density 18.688103000000002
#
# number of rings (size 3 to 8) (size 9 to 14) (size 15 to 20)
#    0.000    2.800    0.000    3.300    0.000    2.400 
#    0.000    3.000    0.000   10.200    0.000    0.000 
#    0.000    0.000    0.000    0.000    0.000    0.000 
#
# Total GULP energy -495737.858756 kJ/mol
# GULP energy per Si atom -12393.446469 kJ/mol
# Density = 1.864557 g / cm^3
# Si number density = 18.688103 Si / 1000 Ang^3
#
#
#
# Elastic Constant Matrix: (Units=GPa)
#
#
# Indices 1 2 3 4 5 6 
#
# 1 41.9292 25.6037 37.0293 0.0000 0.0000 0.0000
# 2 25.6037 131.7343 99.7204 0.0000 0.0000 0.0000
# 3 37.0293 99.7204 211.5676 0.0000 0.0000 0.0000
# 4 0.0000 0.0000 0.0000 33.3993 0.0000 0.0000
# 5 0.0000 0.0000 0.0000 0.0000 25.8672 0.0000
# 6 0.0000 0.0000 0.0000 0.0000 0.0000 18.0111
#
#
#
# Elastic Compliance Matrix: (Units=1/GPa)
#
#
# Indices 1 2 3 4 5 6 
#
# 1 0.028848 -0.002775 -0.003741 0.000000 0.000000 0.000000
# 2 -0.002775 0.012069 -0.005203 0.000000 0.000000 0.000000
# 3 -0.003741 -0.005203 0.007834 0.000000 0.000000 0.000000
# 4 0.000000 0.000000 0.000000 0.029941 0.000000 0.000000
# 5 0.000000 0.000000 0.000000 0.000000 0.038659 0.000000
# 6 0.000000 0.000000 0.000000 0.000000 0.000000 0.055521
#
#
# Mechanical properties :
#
#
# Convention : Reuss Voigt Hill
#
# Bulk Modulus (GPa) = 39.50557 78.88197 59.19377
# Shear Modulus (GPa) = 24.42033 30.31403 27.36718
#
# Velocity S-wave (km/s) = 3.61880 4.03190 3.83092
# Velocity P-wave (km/s) = 6.21661 7.99852 7.16319
#
# Compressibility (1/GPa) = 0.02531288
#
# Stress axis : x y z
#
# Youngs Moduli (GPa) = 34.66423 82.85812 127.65301
#
# Poissons Ratio (x) = 0.22992 0.47758
# Poissons Ratio (y) = 0.09619 0.66416
# Poissons Ratio (z) = 0.12969 0.43110
#
# Static dielectric constant tensor:
#      x y z
#    x 3.162800 0.000000 0.000000 
#    y 0.000000 3.330910 0.000000 
#    z 0.000000 0.000000 3.800530 
# 
# 
# High freq. dielectric constant tensor:
#      x y z
#    x 1.693650 0.000000 0.000000 
#    y 0.000000 1.700030 0.000000 
#    z 0.000000 0.000000 1.753030 
# 
# From -- ./inp_files/66669.got.cif
#   From: 2010.03.12/outbox.cif.g09.slc.cpg/sg63_34_cif.got.tgz:66669.got - 2010.04.10 19:34:48.
