data_PCOD8256405
_publ_section_title
;
Structure prediction by ZEFSAII (Michael W. Deem and Ramdas Pophale) SiO2 
 PCOD8256405
Probable space group: C M C M
;
_chemical_formula_sum "Si O2"
_cell_formula_units_Z 64
_cell_length_a 21.064605
_cell_length_b 18.669198
_cell_length_c 8.537678
_cell_angle_alpha 90.000000
_cell_angle_beta 90.000000
_cell_angle_gamma 90.000000
_cell_volume 3357.521116
_symmetry_space_group_name_H-M "C M C M"
_symmetry_group_IT_number 63
_symmetry_cell_setting 'orthorhombic'
loop_
_space_group_symop_operation_xyz
x,y,z
-x,-y,1/2+z
x,-y,-z
-x,y,1/2-z
-x,-y,-z
x,y,1/2-z
-x,y,z
x,-y,1/2+z
1/2+x,1/2+y,z
1/2-x,1/2-y,1/2+z
1/2+x,1/2-y,-z
1/2-x,1/2+y,1/2-z
1/2-x,1/2-y,-z
1/2+x,1/2+y,1/2-z
1/2-x,1/2+y,z
1/2+x,1/2-y,1/2+z
loop_
_atom_site_type_symbol
_atom_site_label
_atom_site_fract_x
_atom_site_fract_y
_atom_site_fract_z
Si Si1 0.000000 0.078410 0.565732
Si Si2 0.369527 0.079753 0.064657
Si Si3 0.500000 0.920289 0.064128
Si Si4 0.754380 0.670708 0.936292
Si Si5 0.136485 0.079131 0.935227
O O1 0.932543 0.113037 0.511279
O O2 0.000000 0.073982 0.750000
O O3 0.000000 0.000000 0.500000
O O4 0.371827 0.075486 0.250000
O O5 0.435369 0.115096 0.001459
O O6 0.314491 0.131812 0.009556
O O7 0.357866 0.000000 0.000000
O O8 0.500000 0.918236 0.250000
O O9 0.500000 0.000000 0.000000
O O10 0.759775 0.670163 0.750000
O O11 0.691350 0.630711 0.998171
O O12 0.750000 0.750000 0.000000
O O13 0.140087 0.073540 0.750000
O O14 0.147542 0.000000 0.000000
#
# Coordination Sequence:
#
# PCOD8256405 Si02
#       5
#     8  16   8  16  16
#     4   8  14  28  49  76 103 128 160 206 256 308
#     4  11  21  36  58  84 111 143 181 225 274 329
#     4  10  18  32  55  84 113 140 174 222 272 324
#     4  11  23  38  53  75 107 146 186 228 275 325
#     4   9  18  32  54  79 104 133 170 213 263 318
#
# _framework density 19.061682999999999
#
# number of rings (size 3 to 8) (size 9 to 14) (size 15 to 20)
#    0.000    2.000    0.000    6.375    0.000    4.000 
#    0.000    1.250    0.000    3.000    0.000    0.000 
#    0.000    0.000    0.000    0.000    0.000    0.000 
#
# Total GULP energy -396515.193935 kJ/mol
# GULP energy per Si atom -12391.099810 kJ/mol
# Density = 1.901830 g / cm^3
# Si number density = 19.061683 Si / 1000 Ang^3
#
#
#
# Elastic Constant Matrix: (Units=GPa)
#
#
# Indices 1 2 3 4 5 6 
#
# 1 232.3294 88.7761 63.7488 0.0000 0.0000 0.0000
# 2 88.7761 100.9689 37.1999 0.0000 0.0000 0.0000
# 3 63.7488 37.1999 107.9777 0.0000 0.0000 0.0000
# 4 0.0000 0.0000 0.0000 26.6210 0.0000 0.0000
# 5 0.0000 0.0000 0.0000 0.0000 28.4811 0.0000
# 6 0.0000 0.0000 0.0000 0.0000 0.0000 130.7801
#
#
#
# Elastic Compliance Matrix: (Units=1/GPa)
#
#
# Indices 1 2 3 4 5 6 
#
# 1 0.006942 -0.005261 -0.002286 0.000000 0.000000 0.000000
# 2 -0.005261 0.015332 -0.002176 0.000000 0.000000 0.000000
# 3 -0.002286 -0.002176 0.011360 0.000000 0.000000 0.000000
# 4 0.000000 0.000000 0.000000 0.037564 0.000000 0.000000
# 5 0.000000 0.000000 0.000000 0.000000 0.035111 0.000000
# 6 0.000000 0.000000 0.000000 0.000000 0.000000 0.007646
#
#
# Mechanical properties :
#
#
# Convention : Reuss Voigt Hill
#
# Bulk Modulus (GPa) = 70.48209 91.19172 80.83690
# Shear Modulus (GPa) = 36.19757 53.94651 45.07204
#
# Velocity S-wave (km/s) = 4.36245 5.32564 4.86793
# Velocity P-wave (km/s) = 7.90131 9.26071 8.60789
#
# Compressibility (1/GPa) = 0.01418800
#
# Stress axis : x y z
#
# Youngs Moduli (GPa) = 144.05282 65.22420 88.02647
#
# Poissons Ratio (x) = 0.34317 0.20121
# Poissons Ratio (y) = 0.75793 0.19152
# Poissons Ratio (z) = 0.32927 0.14191
#
# Static dielectric constant tensor:
#      x y z
#    x 4.663140 0.000000 0.000000 
#    y 0.000000 3.138470 0.000000 
#    z 0.000000 0.000000 3.564380 
# 
# 
# High freq. dielectric constant tensor:
#      x y z
#    x 1.777840 0.000000 0.000000 
#    y 0.000000 1.697360 0.000000 
#    z 0.000000 0.000000 1.749700 
# 
# From -- ./inp_files/7547.got.cif
#   From: 2010.03.12/outbox.cif.g09.slc.cpg/sg63_4_cif.got.tgz:7547.got - 2010.04.10 19:34:48.
