data_PCOD8256560
_publ_section_title
;
Structure prediction by ZEFSAII (Michael W. Deem and Ramdas Pophale) SiO2 
 PCOD8256560
Probable space group: C M C M
;
_chemical_formula_sum "Si O2"
_cell_formula_units_Z 96
_cell_length_a 8.785486
_cell_length_b 25.023511
_cell_length_c 23.792470
_cell_angle_alpha 90.000000
_cell_angle_beta 90.000000
_cell_angle_gamma 90.000000
_cell_volume 5230.624769
_symmetry_space_group_name_H-M "C M C M"
_symmetry_group_IT_number 63
_symmetry_cell_setting 'orthorhombic'
loop_
_space_group_symop_operation_xyz
x,y,z
-x,-y,1/2+z
x,-y,-z
-x,y,1/2-z
-x,-y,-z
x,y,1/2-z
-x,y,z
x,-y,1/2+z
1/2+x,1/2+y,z
1/2-x,1/2-y,1/2+z
1/2+x,1/2-y,-z
1/2-x,1/2+y,1/2-z
1/2-x,1/2-y,-z
1/2+x,1/2+y,1/2-z
1/2-x,1/2+y,z
1/2+x,1/2-y,1/2+z
loop_
_atom_site_type_symbol
_atom_site_label
_atom_site_fract_x
_atom_site_fract_y
_atom_site_fract_z
Si Si1 0.819455 0.419045 0.938170
Si Si2 0.681131 0.139193 0.250000
Si Si3 0.177391 0.612195 0.559610
Si Si4 0.179539 0.774066 0.055997
Si Si5 0.180237 0.679962 0.132554
Si Si6 0.678257 0.984561 0.137703
Si Si7 0.320484 0.521938 0.250000
O O1 0.753026 0.367016 0.906709
O O2 0.758507 0.471799 0.906778
O O3 0.000000 0.420178 0.936453
O O4 0.764254 0.417047 0.002779
O O5 0.500000 0.133841 0.250000
O O6 0.741279 0.171791 0.195861
O O7 0.745392 0.079836 0.250000
O O8 0.266922 0.666633 0.569723
O O9 0.209397 0.573853 0.612212
O O10 0.000000 0.626158 0.553616
O O11 0.232537 0.737073 0.108359
O O12 0.000000 0.772958 0.048588
O O13 0.250000 0.750000 0.000000
O O14 0.000000 0.675438 0.132294
O O15 0.500000 0.993811 0.149506
O O16 0.768898 0.988735 0.195607
O O17 0.500000 0.528268 0.250000
#
# Coordination Sequence:
#
# PCOD8256560 Si02
#       7
#    16   8  16  16  16  16   8
#     4   9  15  29  55  86 111 134 175 229 271 315
#     4  10  18  36  61  80 101 137 184 228 266 315
#     4  10  20  35  56  84 113 142 180 226 276 327
#     4  11  21  35  54  79 111 147 184 225 272 326
#     4   9  17  30  55  83 106 134 181 228 264 315
#     4  10  20  36  59  81 106 146 189 223 264 330
#     4  12  24  36  53  80 115 145 176 226 278 325
#
# _framework density 18.353446999999999
#
# number of rings (size 3 to 8) (size 9 to 14) (size 15 to 20)
#    0.000    2.000    3.333    1.750    0.000    2.667 
#    0.000    5.000    0.000    3.000    0.000    0.000 
#    0.000    0.000    0.000    0.000    0.000    0.000 
#
# Total GULP energy -595154.900082 kJ/mol
# GULP energy per Si atom -12399.060418 kJ/mol
# Density = 1.831167 g / cm^3
# Si number density = 18.353447 Si / 1000 Ang^3
#
#
#
# Elastic Constant Matrix: (Units=GPa)
#
#
# Indices 1 2 3 4 5 6 
#
# 1 41.6653 31.5353 33.5474 0.0000 0.0000 0.0000
# 2 31.5353 124.2031 62.3269 0.0000 0.0000 0.0000
# 3 33.5474 62.3269 147.4971 0.0000 0.0000 0.0000
# 4 0.0000 0.0000 0.0000 32.6634 0.0000 0.0000
# 5 0.0000 0.0000 0.0000 0.0000 16.3202 0.0000
# 6 0.0000 0.0000 0.0000 0.0000 0.0000 27.3813
#
#
#
# Elastic Compliance Matrix: (Units=1/GPa)
#
#
# Indices 1 2 3 4 5 6 
#
# 1 0.032304 -0.005730 -0.004926 0.000000 0.000000 0.000000
# 2 -0.005730 0.011234 -0.003444 0.000000 0.000000 0.000000
# 3 -0.004926 -0.003444 0.009356 0.000000 0.000000 0.000000
# 4 0.000000 0.000000 0.000000 0.030615 0.000000 0.000000
# 5 0.000000 0.000000 0.000000 0.000000 0.061274 0.000000
# 6 0.000000 0.000000 0.000000 0.000000 0.000000 0.036521
#
#
# Mechanical properties :
#
#
# Convention : Reuss Voigt Hill
#
# Bulk Modulus (GPa) = 40.49613 63.13164 51.81389
# Shear Modulus (GPa) = 22.96364 27.67005 25.31685
#
# Velocity S-wave (km/s) = 3.54105 3.88702 3.71806
# Velocity P-wave (km/s) = 6.23147 7.39037 6.83553
#
# Compressibility (1/GPa) = 0.02469371
#
# Stress axis : x y z
#
# Youngs Moduli (GPa) = 30.95596 89.01197 106.88894
#
# Poissons Ratio (x) = 0.51004 0.52654
# Poissons Ratio (y) = 0.17738 0.36813
# Poissons Ratio (z) = 0.15249 0.30656
#
# Static dielectric constant tensor:
#      x y z
#    x 3.023890 0.000000 0.000000 
#    y 0.000000 3.462720 0.000000 
#    z 0.000000 0.000000 3.684170 
# 
# 
# High freq. dielectric constant tensor:
#      x y z
#    x 1.672780 0.000000 0.000000 
#    y 0.000000 1.713050 0.000000 
#    z 0.000000 0.000000 1.718910 
# 
# From -- ./inp_files/60056.got.cif
#   From: 2010.03.12/outbox.cif.g09.slc.cpg/sg63_31_cif.got.tgz:60056.got - 2010.04.10 19:34:48.
