data_PCOD8256268
_publ_section_title
;
Structure prediction by ZEFSAII (Michael W. Deem and Ramdas Pophale) SiO2 
 PCOD8256268
Probable space group: C M C M
;
_chemical_formula_sum "Si O2"
_cell_formula_units_Z 64
_cell_length_a 8.570403
_cell_length_b 18.251043
_cell_length_c 20.908283
_cell_angle_alpha 90.000000
_cell_angle_beta 90.000000
_cell_angle_gamma 90.000000
_cell_volume 3270.448405
_symmetry_space_group_name_H-M "C M C M"
_symmetry_group_IT_number 63
_symmetry_cell_setting 'orthorhombic'
loop_
_space_group_symop_operation_xyz
x,y,z
-x,-y,1/2+z
x,-y,-z
-x,y,1/2-z
-x,-y,-z
x,y,1/2-z
-x,y,z
x,-y,1/2+z
1/2+x,1/2+y,z
1/2-x,1/2-y,1/2+z
1/2+x,1/2-y,-z
1/2-x,1/2+y,1/2-z
1/2-x,1/2-y,-z
1/2+x,1/2+y,1/2-z
1/2-x,1/2+y,z
1/2+x,1/2-y,1/2+z
loop_
_atom_site_type_symbol
_atom_site_label
_atom_site_fract_x
_atom_site_fract_y
_atom_site_fract_z
Si Si1 0.684648 0.831540 0.499242
Si Si2 0.180799 0.927198 0.250000
Si Si3 0.318092 0.083574 0.250000
Si Si4 0.817662 0.827323 0.129693
Si Si5 0.683808 0.666529 0.370039
O O1 0.500000 0.833244 0.495622
O O2 0.750000 0.750000 0.500000
O O3 0.755443 0.867798 0.434851
O O4 0.742538 0.868581 0.565066
O O5 0.222195 0.879899 0.311947
O O6 0.000000 0.951291 0.250000
O O7 0.291542 0.997037 0.250000
O O8 0.500000 0.102144 0.250000
O O9 0.239751 0.117193 0.312207
O O10 0.733202 0.750217 0.141439
O O11 0.000000 0.811029 0.123572
O O12 0.500000 0.662416 0.376103
#
# Coordination Sequence:
#
# PCOD8256268 Si02
#       5
#    16   8   8  16  16
#     4  10  18  31  53  83 115 144 181 227 276 325
#     4  10  23  40  57  79 111 149 185 226 275 328
#     4  12  25  40  57  79 111 147 185 230 277 328
#     4  10  19  35  59  86 115 146 184 228 276 327
#     4  11  21  36  59  85 113 145 185 228 274 328
#
# _framework density 19.569182000000001
#
# number of rings (size 3 to 8) (size 9 to 14) (size 15 to 20)
#    0.000    1.500    0.000   10.125    0.000    3.000 
#    0.000    1.250    0.000    7.500    0.000    0.000 
#    0.000    0.000    0.000    0.000    0.000    0.000 
#
# Total GULP energy -396795.468389 kJ/mol
# GULP energy per Si atom -12399.858387 kJ/mol
# Density = 1.952464 g / cm^3
# Si number density = 19.569182 Si / 1000 Ang^3
#
#
#
# Elastic Constant Matrix: (Units=GPa)
#
#
# Indices 1 2 3 4 5 6 
#
# 1 136.9456 25.4352 63.9354 0.0000 0.0000 0.0000
# 2 25.4352 59.9044 52.7875 0.0000 0.0000 0.0000
# 3 63.9354 52.7875 204.4200 0.0000 0.0000 0.0000
# 4 0.0000 0.0000 0.0000 -18.4785 0.0000 0.0000
# 5 0.0000 0.0000 0.0000 0.0000 42.5835 0.0000
# 6 0.0000 0.0000 0.0000 0.0000 0.0000 27.2803
#
#
#
# Elastic Compliance Matrix: (Units=1/GPa)
#
#
# Indices 1 2 3 4 5 6 
#
# 1 0.008678 -0.001674 -0.002282 0.000000 0.000000 0.000000
# 2 -0.001674 0.021934 -0.005140 0.000000 0.000000 0.000000
# 3 -0.002282 -0.005140 0.006933 0.000000 0.000000 0.000000
# 4 0.000000 0.000000 0.000000 -0.054117 0.000000 0.000000
# 5 0.000000 0.000000 0.000000 0.000000 0.023483 0.000000
# 6 0.000000 0.000000 0.000000 0.000000 0.000000 0.036656
#
#
# Mechanical properties :
#
#
# Convention : Reuss Voigt Hill
#
# Bulk Modulus (GPa) = 51.67303 76.17626 63.92464
# Shear Modulus (GPa) = 73.30117 27.55119 50.42618
#
# Velocity S-wave (km/s) = 6.12689 3.75625 5.08174
# Velocity P-wave (km/s) = 8.74725 7.60419 8.19567
#
# Compressibility (1/GPa) = 0.01935246
#
# Stress axis : x y z
#
# Youngs Moduli (GPa) = 115.22743 45.59193 144.23663
#
# Poissons Ratio (x) = 0.07632 0.32916
# Poissons Ratio (y) = 0.19288 0.74144
# Poissons Ratio (z) = 0.26296 0.23436
#
# Static dielectric constant tensor:
#      x y z
#    x 3.701220 0.000000 0.000000 
#    y 0.000000 3.162280 0.000000 
#    z 0.000000 0.000000 4.468690 
# 
# 
# High freq. dielectric constant tensor:
#      x y z
#    x 1.781300 0.000000 0.000000 
#    y 0.000000 1.716380 0.000000 
#    z 0.000000 0.000000 1.795410 
# 
# From -- ./inp_files/50358.got.cif
#   From: 2010.03.12/outbox.cif.g09.slc.cpg/sg63_26_cif.got.tgz:50358.got - 2010.04.10 19:34:48.
