data_PCOD8256280
_publ_section_title
;
Structure prediction by ZEFSAII (Michael W. Deem and Ramdas Pophale) SiO2 
 PCOD8256280
Probable space group: C M C M
;
_chemical_formula_sum "Si O2"
_cell_formula_units_Z 96
_cell_length_a 8.727491
_cell_length_b 23.666355
_cell_length_c 25.154311
_cell_angle_alpha 90.000000
_cell_angle_beta 90.000000
_cell_angle_gamma 90.000000
_cell_volume 5195.570120
_symmetry_space_group_name_H-M "C M C M"
_symmetry_group_IT_number 63
_symmetry_cell_setting 'orthorhombic'
loop_
_space_group_symop_operation_xyz
x,y,z
-x,-y,1/2+z
x,-y,-z
-x,y,1/2-z
-x,-y,-z
x,y,1/2-z
-x,y,z
x,-y,1/2+z
1/2+x,1/2+y,z
1/2-x,1/2-y,1/2+z
1/2+x,1/2-y,-z
1/2-x,1/2+y,1/2-z
1/2-x,1/2-y,-z
1/2+x,1/2+y,1/2-z
1/2-x,1/2+y,z
1/2+x,1/2-y,1/2+z
loop_
_atom_site_type_symbol
_atom_site_label
_atom_site_fract_x
_atom_site_fract_y
_atom_site_fract_z
Si Si1 0.179821 0.118371 0.152654
Si Si2 0.321564 0.811614 0.937586
Si Si3 0.180560 0.505158 0.187687
Si Si4 0.182208 0.692477 0.750000
Si Si5 0.819632 0.616225 0.846059
Si Si6 0.321339 0.193286 0.940669
Si Si7 0.180520 0.684795 0.250000
O O1 0.226477 0.142737 0.095440
O O2 0.231094 0.053602 0.156009
O O3 0.261460 0.154162 0.197755
O O4 0.000000 0.123260 0.160649
O O5 0.500000 0.818998 0.925118
O O6 0.272658 0.748137 0.922252
O O7 0.282460 0.823631 0.999137
O O8 0.220084 0.507783 0.250000
O O9 0.245559 0.446620 0.163141
O O10 0.000000 0.512422 0.178372
O O11 0.241966 0.658752 0.698651
O O12 0.264049 0.751787 0.750000
O O13 0.000000 0.701521 0.750000
O O14 0.772837 0.640405 0.903788
O O15 0.000000 0.611941 0.839023
O O16 0.500000 0.207993 0.933671
O O17 0.000000 0.681863 0.250000
#
# Coordination Sequence:
#
# PCOD8256280 Si02
#       7
#    16  16  16   8  16  16   8
#     4  12  24  38  56  79 108 145 186 230 278 332
#     4  10  20  35  56  82 113 150 189 232 279 326
#     4  10  19  35  58  81 108 145 184 227 273 325
#     4  10  18  31  54  85 117 146 176 216 271 336
#     4   9  17  32  56  84 111 144 185 223 270 330
#     4   9  18  34  57  84 115 150 188 229 276 334
#     4  12  24  37  54  81 113 142 176 224 279 336
#
# _framework density 18.477277999999998
#
# number of rings (size 3 to 8) (size 9 to 14) (size 15 to 20)
#    0.000    1.833    1.667    3.750    0.000    2.000 
#    0.000    2.500    0.000    5.000    0.000    0.000 
#    0.000    0.000    0.000    0.000    0.000    0.000 
#
# Total GULP energy -595324.332346 kJ/mol
# GULP energy per Si atom -12402.590257 kJ/mol
# Density = 1.843522 g / cm^3
# Si number density = 18.477278 Si / 1000 Ang^3
#
#
#
# Elastic Constant Matrix: (Units=GPa)
#
#
# Indices 1 2 3 4 5 6 
#
# 1 15.4429 51.9869 -9.3700 0.0000 0.0000 0.0000
# 2 51.9869 162.5055 74.6908 0.0000 0.0000 0.0000
# 3 -9.3700 74.6908 74.6936 0.0000 0.0000 0.0000
# 4 0.0000 0.0000 0.0000 41.3806 0.0000 0.0000
# 5 0.0000 0.0000 0.0000 0.0000 127.1577 0.0000
# 6 0.0000 0.0000 0.0000 0.0000 0.0000 30.5048
#
#
#
# Elastic Compliance Matrix: (Units=1/GPa)
#
#
# Indices 1 2 3 4 5 6 
#
# 1 -0.034964 0.024428 -0.028813 0.000000 0.000000 0.000000
# 2 0.024428 -0.005680 0.008745 0.000000 0.000000 0.000000
# 3 -0.028813 0.008745 0.001029 0.000000 0.000000 0.000000
# 4 0.000000 0.000000 0.000000 0.024166 0.000000 0.000000
# 5 0.000000 0.000000 0.000000 0.000000 0.007864 0.000000
# 6 0.000000 0.000000 0.000000 0.000000 0.000000 0.032782
#
#
# Mechanical properties :
#
#
# Convention : Reuss Voigt Hill
#
# Bulk Modulus (GPa) = -32.36702 54.13972 10.88635
# Shear Modulus (GPa) = 809.13277 48.83090 428.98184
#
# Velocity S-wave (km/s) = 20.94893 5.14635 15.25356
# Velocity P-wave (km/s) = 23.82411 8.04223 17.78013
#
# Compressibility (1/GPa) = -0.03089564
#
# Stress axis : x y z
#
# Youngs Moduli (GPa) = -28.60123 -176.04312 971.62368
#
# Poissons Ratio (x) = 4.30045 27.99585
# Poissons Ratio (y) = 0.69868 -8.49650
# Poissons Ratio (z) = -0.82410 1.53943
#
# Static dielectric constant tensor:
#      x y z
#    x 3.250780 0.000000 0.000000 
#    y 0.000000 3.604200 0.000000 
#    z 0.000000 0.000000 3.511610 
# 
# 
# High freq. dielectric constant tensor:
#      x y z
#    x 1.701890 0.000000 0.000000 
#    y 0.000000 1.721440 0.000000 
#    z 0.000000 0.000000 1.719570 
# 
# From -- ./inp_files/60048.got.cif
#   From: 2010.03.12/outbox.cif.g09.slc.cpg/sg63_31_cif.got.tgz:60048.got - 2010.04.10 19:34:48.
