data_PCOD8256756
_publ_section_title
;
Structure prediction by ZEFSAII (Michael W. Deem and Ramdas Pophale) SiO2 
 PCOD8256756
Probable space group: C M C M
;
_chemical_formula_sum "Si O2"
_cell_formula_units_Z 96
_cell_length_a 13.442086
_cell_length_b 23.916174
_cell_length_c 17.478343
_cell_angle_alpha 90.000000
_cell_angle_beta 90.000000
_cell_angle_gamma 90.000000
_cell_volume 5618.994822
_symmetry_space_group_name_H-M "C M C M"
_symmetry_group_IT_number 63
_symmetry_cell_setting 'orthorhombic'
loop_
_space_group_symop_operation_xyz
x,y,z
-x,-y,1/2+z
x,-y,-z
-x,y,1/2-z
-x,-y,-z
x,y,1/2-z
-x,y,z
x,-y,1/2+z
1/2+x,1/2+y,z
1/2-x,1/2-y,1/2+z
1/2+x,1/2-y,-z
1/2-x,1/2+y,1/2-z
1/2-x,1/2-y,-z
1/2+x,1/2+y,1/2-z
1/2-x,1/2+y,z
1/2+x,1/2-y,1/2+z
loop_
_atom_site_type_symbol
_atom_site_label
_atom_site_fract_x
_atom_site_fract_y
_atom_site_fract_z
Si Si1 0.386412 0.604832 0.340061
Si Si2 0.701917 0.722478 0.336552
Si Si3 0.112573 0.319837 0.429250
Si Si4 0.116454 0.557510 0.571478
Si Si5 0.198375 0.446665 0.904670
Si Si6 0.387603 0.167932 0.391212
O O1 0.368768 0.597548 0.250000
O O2 0.500000 0.591747 0.363198
O O3 0.360791 0.668526 0.364455
O O4 0.315046 0.561220 0.384333
O O5 0.673370 0.738474 0.250000
O O6 0.683465 0.775008 0.390720
O O7 0.818911 0.709208 0.342305
O O8 0.131613 0.381184 0.391236
O O9 0.134527 0.323445 0.519199
O O10 0.000000 0.300744 0.413975
O O11 0.156970 0.507051 0.625779
O O12 0.182241 0.555046 0.495189
O O13 0.000000 0.548954 0.551017
O O14 0.136146 0.396007 0.866688
O O15 0.500000 0.182349 0.369720
#
# Coordination Sequence:
#
# PCOD8256756 Si02
#       6
#    16  16  16  16  16  16
#     4   9  18  31  45  62  86 117 151 187 226 262
#     4  10  19  30  46  66  90 120 151 187 229 270
#     4   9  17  29  46  67  91 120 151 183 220 265
#     4   9  16  28  48  70  93 119 143 176 224 272
#     4   9  15  27  48  70  90 115 145 180 222 267
#     4   9  17  29  47  70  93 118 149 185 226 271
#
# _framework density 17.084906
#
# number of rings (size 3 to 8) (size 9 to 14) (size 15 to 20)
#    0.000    2.833    0.000    4.000    0.000    1.333 
#    0.000    2.500    0.000    6.000    0.000    0.000 
#    0.000    0.000    0.000    0.000    0.000    0.000 
#
# Total GULP energy -594886.183113 kJ/mol
# GULP energy per Si atom -12393.462148 kJ/mol
# Density = 1.704602 g / cm^3
# Si number density = 17.084906 Si / 1000 Ang^3
#
#
#
# Elastic Constant Matrix: (Units=GPa)
#
#
# Indices 1 2 3 4 5 6 
#
# 1 122.1466 51.4165 30.4102 0.0000 0.0000 0.0000
# 2 51.4165 105.6108 23.4277 0.0000 0.0000 0.0000
# 3 30.4102 23.4277 25.4097 0.0000 0.0000 0.0000
# 4 0.0000 0.0000 0.0000 14.0756 0.0000 0.0000
# 5 0.0000 0.0000 0.0000 0.0000 17.9771 0.0000
# 6 0.0000 0.0000 0.0000 0.0000 0.0000 25.3907
#
#
#
# Elastic Compliance Matrix: (Units=1/GPa)
#
#
# Indices 1 2 3 4 5 6 
#
# 1 0.012619 -0.003512 -0.011865 0.000000 0.000000 0.000000
# 2 -0.003512 0.012880 -0.007673 0.000000 0.000000 0.000000
# 3 -0.011865 -0.007673 0.060629 0.000000 0.000000 0.000000
# 4 0.000000 0.000000 0.000000 0.071045 0.000000 0.000000
# 5 0.000000 0.000000 0.000000 0.000000 0.055626 0.000000
# 6 0.000000 0.000000 0.000000 0.000000 0.000000 0.039384
#
#
# Mechanical properties :
#
#
# Convention : Reuss Voigt Hill
#
# Bulk Modulus (GPa) = 24.98134 51.51955 38.25044
# Shear Modulus (GPa) = 16.04487 21.34952 18.69719
#
# Velocity S-wave (km/s) = 3.06784 3.53882 3.31171
# Velocity P-wave (km/s) = 5.21560 6.84968 6.08772
#
# Compressibility (1/GPa) = 0.04002988
#
# Stress axis : x y z
#
# Youngs Moduli (GPa) = 79.24608 77.63696 16.49375
#
# Poissons Ratio (x) = 0.27263 0.19569
# Poissons Ratio (y) = 0.27828 0.12656
# Poissons Ratio (z) = 0.94022 0.59572
#
# Static dielectric constant tensor:
#      x y z
#    x 3.161540 0.000000 0.000000 
#    y 0.000000 3.491390 0.000000 
#    z 0.000000 0.000000 2.834450 
# 
# 
# High freq. dielectric constant tensor:
#      x y z
#    x 1.654900 0.000000 0.000000 
#    y 0.000000 1.661120 0.000000 
#    z 0.000000 0.000000 1.621280 
# 
# From -- ./inp_files/53036.got.cif
#   From: 2010.03.12/outbox.cif.g09.slc.cpg/sg63_27_cif.got.tgz:53036.got - 2010.04.10 19:34:48.
