data_PCOD8256056
_publ_section_title
;
Structure prediction by ZEFSAII (Michael W. Deem and Ramdas Pophale) SiO2 
 PCOD8256056
Probable space group: C M C M
;
_chemical_formula_sum "Si O2"
_cell_formula_units_Z 80
_cell_length_a 8.561691
_cell_length_b 19.384881
_cell_length_c 26.055913
_cell_angle_alpha 90.000000
_cell_angle_beta 90.000000
_cell_angle_gamma 90.000000
_cell_volume 4324.431124
_symmetry_space_group_name_H-M "C M C M"
_symmetry_group_IT_number 63
_symmetry_cell_setting 'orthorhombic'
loop_
_space_group_symop_operation_xyz
x,y,z
-x,-y,1/2+z
x,-y,-z
-x,y,1/2-z
-x,-y,-z
x,y,1/2-z
-x,y,z
x,-y,1/2+z
1/2+x,1/2+y,z
1/2-x,1/2-y,1/2+z
1/2+x,1/2-y,-z
1/2-x,1/2+y,1/2-z
1/2-x,1/2-y,-z
1/2+x,1/2+y,1/2-z
1/2-x,1/2+y,z
1/2+x,1/2-y,1/2+z
loop_
_atom_site_type_symbol
_atom_site_label
_atom_site_fract_x
_atom_site_fract_y
_atom_site_fract_z
Si Si1 0.181253 0.424743 0.750000
Si Si2 0.316831 0.832070 0.549259
Si Si3 0.685936 0.072834 0.359880
Si Si4 0.817865 0.415864 0.147245
Si Si5 0.680362 0.673102 0.558848
Si Si6 0.818552 0.072306 0.750000
O O1 0.250884 0.397350 0.695477
O O2 0.205460 0.506559 0.750000
O O3 0.000000 0.407920 0.750000
O O4 0.500000 0.844051 0.539988
O O5 0.247406 0.880688 0.594144
O O6 0.281463 0.753740 0.564965
O O7 0.226490 0.852645 0.497729
O O8 0.500000 0.077673 0.360074
O O9 0.739112 0.993506 0.366902
O O10 0.783700 0.366751 0.099773
O O11 0.724993 0.387108 0.197521
O O12 0.000000 0.414553 0.159542
O O13 0.500000 0.656871 0.568774
O O14 0.000000 0.052477 0.750000
#
# Coordination Sequence:
#
# PCOD8256056 Si02
#       6
#     8  16  16  16  16   8
#     4   8  14  28  49  72  97 125 157 193 239 290
#     4   9  18  34  52  69  94 130 169 205 244 293
#     4   8  15  29  51  74  93 122 165 203 234 282
#     4  10  19  33  53  74  98 128 162 199 240 289
#     4  10  20  33  49  71  99 130 164 204 250 294
#     4  10  18  30  49  74 103 129 157 195 239 286
#
# _framework density 18.499544
#
# number of rings (size 3 to 8) (size 9 to 14) (size 15 to 20)
#    0.000    2.800    0.000    3.300    0.000    1.600 
#    0.000   10.000    0.000    3.600    0.000    0.000 
#    0.000    0.000    0.000    0.000    0.000    0.000 
#
# Total GULP energy -495708.134121 kJ/mol
# GULP energy per Si atom -12392.703353 kJ/mol
# Density = 1.845744 g / cm^3
# Si number density = 18.499544 Si / 1000 Ang^3
#
#
#
# Elastic Constant Matrix: (Units=GPa)
#
#
# Indices 1 2 3 4 5 6 
#
# 1 40.1763 21.2448 30.3463 0.0000 0.0000 0.0000
# 2 21.2448 57.6229 64.0814 0.0000 0.0000 0.0000
# 3 30.3463 64.0814 158.5604 0.0000 0.0000 0.0000
# 4 0.0000 0.0000 0.0000 8.9149 0.0000 0.0000
# 5 0.0000 0.0000 0.0000 0.0000 27.9681 0.0000
# 6 0.0000 0.0000 0.0000 0.0000 0.0000 19.5664
#
#
#
# Elastic Compliance Matrix: (Units=1/GPa)
#
#
# Indices 1 2 3 4 5 6 
#
# 1 0.031421 -0.008894 -0.002419 0.000000 0.000000 0.000000
# 2 -0.008894 0.034039 -0.012054 0.000000 0.000000 0.000000
# 3 -0.002419 -0.012054 0.011641 0.000000 0.000000 0.000000
# 4 0.000000 0.000000 0.000000 0.112171 0.000000 0.000000
# 5 0.000000 0.000000 0.000000 0.000000 0.035755 0.000000
# 6 0.000000 0.000000 0.000000 0.000000 0.000000 0.051108
#
#
# Mechanical properties :
#
#
# Convention : Reuss Voigt Hill
#
# Bulk Modulus (GPa) = 32.93194 54.18940 43.56067
# Shear Modulus (GPa) = 15.01534 20.66902 17.84218
#
# Velocity S-wave (km/s) = 2.85206 3.34619 3.10895
# Velocity P-wave (km/s) = 5.35591 6.65471 6.04032
#
# Compressibility (1/GPa) = 0.03036565
#
# Stress axis : x y z
#
# Youngs Moduli (GPa) = 31.82626 29.37804 85.90020
#
# Poissons Ratio (x) = 0.26130 0.20778
# Poissons Ratio (y) = 0.28308 1.03548
# Poissons Ratio (z) = 0.07698 0.35414
#
# Static dielectric constant tensor:
#      x y z
#    x 3.141160 0.000000 0.000000 
#    y 0.000000 3.191360 0.000000 
#    z 0.000000 0.000000 3.965360 
# 
# 
# High freq. dielectric constant tensor:
#      x y z
#    x 1.699140 0.000000 0.000000 
#    y 0.000000 1.680700 0.000000 
#    z 0.000000 0.000000 1.741920 
# 
# From -- ./inp_files/50928.got.cif
#   From: 2010.03.12/outbox.cif.g09.slc.cpg/sg63_26_cif.got.tgz:50928.got - 2010.04.10 19:34:48.
