data_PCOD8256048
_publ_section_title
;
Structure prediction by ZEFSAII (Michael W. Deem and Ramdas Pophale) SiO2 
 PCOD8256048
Probable space group: C M C M
;
_chemical_formula_sum "Si O2"
_cell_formula_units_Z 80
_cell_length_a 8.527179
_cell_length_b 19.345627
_cell_length_c 26.087539
_cell_angle_alpha 90.000000
_cell_angle_beta 90.000000
_cell_angle_gamma 90.000000
_cell_volume 4303.494982
_symmetry_space_group_name_H-M "C M C M"
_symmetry_group_IT_number 63
_symmetry_cell_setting 'orthorhombic'
loop_
_space_group_symop_operation_xyz
x,y,z
-x,-y,1/2+z
x,-y,-z
-x,y,1/2-z
-x,-y,-z
x,y,1/2-z
-x,y,z
x,-y,1/2+z
1/2+x,1/2+y,z
1/2-x,1/2-y,1/2+z
1/2+x,1/2-y,-z
1/2-x,1/2+y,1/2-z
1/2-x,1/2-y,-z
1/2+x,1/2+y,1/2-z
1/2-x,1/2+y,z
1/2+x,1/2-y,1/2+z
loop_
_atom_site_type_symbol
_atom_site_label
_atom_site_fract_x
_atom_site_fract_y
_atom_site_fract_z
Si Si1 0.183191 0.920356 0.250000
Si Si2 0.316244 0.929097 0.750000
Si Si3 0.814645 0.672165 0.553697
Si Si4 0.685507 0.328191 0.553535
Si Si5 0.685669 0.074554 0.855336
Si Si6 0.814556 0.078222 0.353582
O O1 0.262608 0.889970 0.301544
O O2 0.000000 0.903261 0.250000
O O3 0.212005 0.002041 0.250000
O O4 0.500000 0.946728 0.750000
O O5 0.267509 0.889906 0.802274
O O6 0.750536 0.642444 0.500093
O O7 0.752310 0.750165 0.562643
O O8 0.752960 0.624137 0.599575
O O9 0.000000 0.671113 0.552081
O O10 0.500000 0.330127 0.551381
O O11 0.748674 0.376396 0.599141
O O12 0.500000 0.064483 0.855991
O O13 0.766718 0.000736 0.863134
O O14 0.000000 0.084249 0.347521
#
# Coordination Sequence:
#
# PCOD8256048 Si02
#       6
#     8   8  16  16  16  16
#     4  10  18  30  49  72  99 129 161 197 241 288
#     4  10  18  30  49  72  99 129 161 197 241 288
#     4   9  19  35  53  72  96 129 165 200 241 287
#     4   9  19  35  53  72  96 129 165 200 241 287
#     4  10  19  32  51  74 100 128 161 200 241 287
#     4  10  19  32  51  74 100 128 161 200 241 287
#
# _framework density 18.589542000000002
#
# number of rings (size 3 to 8) (size 9 to 14) (size 15 to 20)
#    0.000    2.400    0.000    5.400    0.000    4.000 
#    0.000    5.000    0.000    6.000    0.000    0.000 
#    0.000    0.000    0.000    0.000    0.000    0.000 
#
# Total GULP energy -495903.630142 kJ/mol
# GULP energy per Si atom -12397.590754 kJ/mol
# Density = 1.854723 g / cm^3
# Si number density = 18.589542 Si / 1000 Ang^3
#
#
#
# Elastic Constant Matrix: (Units=GPa)
#
#
# Indices 1 2 3 4 5 6 
#
# 1 39.2261 15.5376 30.6954 0.0000 0.0000 0.0000
# 2 15.5376 64.3700 78.2097 0.0000 0.0000 0.0000
# 3 30.6954 78.2097 213.7301 0.0000 0.0000 0.0000
# 4 0.0000 0.0000 0.0000 17.7421 0.0000 0.0000
# 5 0.0000 0.0000 0.0000 0.0000 35.0232 0.0000
# 6 0.0000 0.0000 0.0000 0.0000 0.0000 20.0045
#
#
#
# Elastic Compliance Matrix: (Units=1/GPa)
#
#
# Indices 1 2 3 4 5 6 
#
# 1 0.029155 -0.003511 -0.002902 0.000000 0.000000 0.000000
# 2 -0.003511 0.028394 -0.009886 0.000000 0.000000 0.000000
# 3 -0.002902 -0.009886 0.008713 0.000000 0.000000 0.000000
# 4 0.000000 0.000000 0.000000 0.056363 0.000000 0.000000
# 5 0.000000 0.000000 0.000000 0.000000 0.028552 0.000000
# 6 0.000000 0.000000 0.000000 0.000000 0.000000 0.049989
#
#
# Mechanical properties :
#
#
# Convention : Reuss Voigt Hill
#
# Bulk Modulus (GPa) = 29.70558 62.91241 46.30900
# Shear Modulus (GPa) = 20.40925 27.41286 23.91106
#
# Velocity S-wave (km/s) = 3.31704 3.84427 3.59034
# Velocity P-wave (km/s) = 5.53938 7.32263 6.49252
#
# Compressibility (1/GPa) = 0.03366370
#
# Stress axis : x y z
#
# Youngs Moduli (GPa) = 34.29925 35.21852 114.76865
#
# Poissons Ratio (x) = 0.12365 0.33311
# Poissons Ratio (y) = 0.12043 1.13460
# Poissons Ratio (z) = 0.09955 0.34817
#
# Static dielectric constant tensor:
#      x y z
#    x 3.313380 0.000000 0.000000 
#    y 0.000000 3.296250 0.000000 
#    z 0.000000 0.000000 4.092710 
# 
# 
# High freq. dielectric constant tensor:
#      x y z
#    x 1.723240 0.000000 0.000000 
#    y 0.000000 1.683760 0.000000 
#    z 0.000000 0.000000 1.744220 
# 
# From -- ./inp_files/64896.got.cif
#   From: 2010.03.12/outbox.cif.g09.slc.cpg/sg63_33_cif.got.tgz:64896.got - 2010.04.10 19:34:48.
