data_PCOD8256936
_publ_section_title
;
Structure prediction by ZEFSAII (Michael W. Deem and Ramdas Pophale) SiO2 
 PCOD8256936
Probable space group: C M C M
;
_chemical_formula_sum "Si O2"
_cell_formula_units_Z 88
_cell_length_a 19.392682
_cell_length_b 27.272628
_cell_length_c 9.167867
_cell_angle_alpha 90.000000
_cell_angle_beta 90.000000
_cell_angle_gamma 90.000000
_cell_volume 4848.787696
_symmetry_space_group_name_H-M "C M C M"
_symmetry_group_IT_number 63
_symmetry_cell_setting 'orthorhombic'
loop_
_space_group_symop_operation_xyz
x,y,z
-x,-y,1/2+z
x,-y,-z
-x,y,1/2-z
-x,-y,-z
x,y,1/2-z
-x,y,z
x,-y,1/2+z
1/2+x,1/2+y,z
1/2-x,1/2-y,1/2+z
1/2+x,1/2-y,-z
1/2-x,1/2+y,1/2-z
1/2-x,1/2-y,-z
1/2+x,1/2+y,1/2-z
1/2-x,1/2+y,z
1/2+x,1/2-y,1/2+z
loop_
_atom_site_type_symbol
_atom_site_label
_atom_site_fract_x
_atom_site_fract_y
_atom_site_fract_z
Si Si1 0.686102 0.345003 0.081162
Si Si2 0.854123 0.416115 0.585681
Si Si3 0.423084 0.269566 0.420457
Si Si4 0.689560 0.805447 0.584646
Si Si5 0.500000 0.050099 0.419567
Si Si6 0.772123 0.951747 0.422520
O O1 0.706415 0.344809 0.250000
O O2 0.609254 0.323886 0.053265
O O3 0.689063 0.401545 0.025116
O O4 0.739201 0.306694 0.005797
O O5 0.842196 0.436594 0.750000
O O6 0.839845 0.359354 0.579643
O O7 0.932601 0.420125 0.533266
O O8 0.806867 0.446956 0.474859
O O9 0.430681 0.258735 0.250000
O O10 0.500000 0.266846 0.492170
O O11 0.369328 0.229676 0.485803
O O12 0.706281 0.788525 0.750000
O O13 0.500000 0.039275 0.250000
O O14 0.500000 0.000000 0.500000
O O15 0.776410 0.959082 0.250000
O O16 0.805286 0.000000 0.500000
#
# Coordination Sequence:
#
# PCOD8256936 Si02
#       6
#    16  16  16  16   8  16
#     4   9  18  32  49  71  98 126 156 194 237 280
#     4   9  18  30  44  65  92 120 153 192 231 272
#     4   9  17  29  49  75  99 125 159 195 231 277
#     4   9  17  29  49  73  95 124 159 194 230 273
#     4  10  20  30  40  56  84 120 154 190 229 268
#     4  10  19  31  48  68  90 117 153 195 237 280
#
# _framework density 18.148866000000002
#
# number of rings (size 3 to 8) (size 9 to 14) (size 15 to 20)
#    0.000    2.727    0.000    1.636    1.273    2.909 
#    0.000    0.000    0.000    2.727    0.000    0.000 
#    0.000    0.000    0.000    0.000    0.000    0.545 
#
# Total GULP energy -545267.577156 kJ/mol
# GULP energy per Si atom -12392.444935 kJ/mol
# Density = 1.810756 g / cm^3
# Si number density = 18.148866 Si / 1000 Ang^3
#
#
#
# Elastic Constant Matrix: (Units=GPa)
#
#
# Indices 1 2 3 4 5 6 
#
# 1 94.2612 40.2085 21.2613 0.0000 0.0000 0.0000
# 2 40.2085 82.2279 21.0738 0.0000 0.0000 0.0000
# 3 21.2613 21.0738 36.9639 0.0000 0.0000 0.0000
# 4 0.0000 0.0000 0.0000 19.3906 0.0000 0.0000
# 5 0.0000 0.0000 0.0000 0.0000 17.6527 0.0000
# 6 0.0000 0.0000 0.0000 0.0000 0.0000 12.1713
#
#
#
# Elastic Compliance Matrix: (Units=1/GPa)
#
#
# Indices 1 2 3 4 5 6 
#
# 1 0.014125 -0.005650 -0.004903 0.000000 0.000000 0.000000
# 2 -0.005650 0.016503 -0.006158 0.000000 0.000000 0.000000
# 3 -0.004903 -0.006158 0.033385 0.000000 0.000000 0.000000
# 4 0.000000 0.000000 0.000000 0.051571 0.000000 0.000000
# 5 0.000000 0.000000 0.000000 0.000000 0.056648 0.000000
# 6 0.000000 0.000000 0.000000 0.000000 0.000000 0.082161
#
#
# Mechanical properties :
#
#
# Convention : Reuss Voigt Hill
#
# Bulk Modulus (GPa) = 32.69213 42.06004 37.37609
# Shear Modulus (GPa) = 16.77780 18.57022 17.67401
#
# Velocity S-wave (km/s) = 3.04378 3.20225 3.12402
# Velocity P-wave (km/s) = 5.51410 6.07436 5.80099
#
# Compressibility (1/GPa) = 0.03058840
#
# Stress axis : x y z
#
# Youngs Moduli (GPa) = 70.79639 60.59660 29.95383
#
# Poissons Ratio (x) = 0.34239 0.14687
# Poissons Ratio (y) = 0.40002 0.18447
# Poissons Ratio (z) = 0.34713 0.37318
#
# Static dielectric constant tensor:
#      x y z
#    x 3.379510 0.000000 0.000000 
#    y 0.000000 3.514940 0.000000 
#    z 0.000000 0.000000 3.111030 
# 
# 
# High freq. dielectric constant tensor:
#      x y z
#    x 1.682560 0.000000 0.000000 
#    y 0.000000 1.716120 0.000000 
#    z 0.000000 0.000000 1.676350 
# 
# From -- ./inp_files/6786.got.cif
#   From: 2010.03.12/outbox.cif.g09.slc.cpg/sg63_4_cif.got.tgz:6786.got - 2010.04.10 19:34:48.
