data_PCOD8257025
_publ_section_title
;
Structure prediction by ZEFSAII (Michael W. Deem and Ramdas Pophale) SiO2 
 PCOD8257025
Probable space group: C M C M
;
_chemical_formula_sum "Si O2"
_cell_formula_units_Z 64
_cell_length_a 18.048110
_cell_length_b 37.141148
_cell_length_c 5.168492
_cell_angle_alpha 90.000000
_cell_angle_beta 90.000000
_cell_angle_gamma 90.000000
_cell_volume 3464.582448
_symmetry_space_group_name_H-M "C M C M"
_symmetry_group_IT_number 63
_symmetry_cell_setting 'orthorhombic'
loop_
_space_group_symop_operation_xyz
x,y,z
-x,-y,1/2+z
x,-y,-z
-x,y,1/2-z
-x,-y,-z
x,y,1/2-z
-x,y,z
x,-y,1/2+z
1/2+x,1/2+y,z
1/2-x,1/2-y,1/2+z
1/2+x,1/2-y,-z
1/2-x,1/2+y,1/2-z
1/2-x,1/2-y,-z
1/2+x,1/2+y,1/2-z
1/2-x,1/2+y,z
1/2+x,1/2-y,1/2+z
loop_
_atom_site_type_symbol
_atom_site_label
_atom_site_fract_x
_atom_site_fract_y
_atom_site_fract_z
Si Si1 0.085300 0.733861 0.250000
Si Si2 0.585230 0.186827 0.750000
Si Si3 0.139740 0.811046 0.250000
Si Si4 0.922467 0.524391 0.250000
Si Si5 0.777090 0.360649 0.250000
Si Si6 0.738866 0.024570 0.250000
Si Si7 0.280939 0.601898 0.250000
Si Si8 0.916674 0.848606 0.750000
O O1 0.103317 0.710307 0.499600
O O2 0.140300 0.767846 0.250000
O O3 0.000000 0.747049 0.250000
O O4 0.500000 0.173461 0.750000
O O5 0.637774 0.151951 0.750000
O O6 0.223902 0.825589 0.250000
O O7 0.096196 0.824120 0.501003
O O8 0.923737 0.500000 0.500000
O O9 0.843055 0.544152 0.250000
O O10 0.000000 0.548034 0.250000
O O11 0.763535 0.385173 0.499209
O O12 0.792887 0.058783 0.250000
O O13 0.752445 0.000000 0.500000
O O14 0.364060 0.616838 0.250000
O O15 0.000000 0.863407 0.750000
#
# Coordination Sequence:
#
# PCOD8257025 Si02
#       8
#     8   8   8   8   8   8   8   8
#     4  10  19  31  49  74 101 132 175 220 260 299
#     4  10  21  35  51  71 102 142 176 212 253 297
#     4  10  20  32  52  78 102 132 171 219 263 298
#     4   8  14  25  42  65  92 118 144 181 231 281
#     4  10  21  37  52  72 104 136 172 213 250 299
#     4  10  19  33  54  76 100 128 159 201 251 301
#     4  10  21  36  55  78 102 132 169 207 249 304
#     4  10  19  33  53  76 105 136 166 207 257 305
#
# _framework density 18.472645
#
# number of rings (size 3 to 8) (size 9 to 14) (size 15 to 20)
#    0.000    2.250    0.000    3.375    0.000    2.000 
#    0.000    1.250    0.000    2.250    0.000    0.000 
#    0.000    0.000    0.000    0.000    0.000    0.000 
#
# Total GULP energy -396667.823831 kJ/mol
# GULP energy per Si atom -12395.869495 kJ/mol
# Density = 1.843060 g / cm^3
# Si number density = 18.472645 Si / 1000 Ang^3
#
#
#
# Elastic Constant Matrix: (Units=GPa)
#
#
# Indices 1 2 3 4 5 6 
#
# 1 91.3062 52.7215 38.2543 0.0000 0.0000 0.0000
# 2 52.7215 106.0348 53.2114 0.0000 0.0000 0.0000
# 3 38.2543 53.2114 169.7605 0.0000 0.0000 0.0000
# 4 0.0000 0.0000 0.0000 17.3279 0.0000 0.0000
# 5 0.0000 0.0000 0.0000 0.0000 -330.0105 0.0000
# 6 0.0000 0.0000 0.0000 0.0000 0.0000 18.2372
#
#
#
# Elastic Compliance Matrix: (Units=1/GPa)
#
#
# Indices 1 2 3 4 5 6 
#
# 1 0.015596 -0.007109 -0.001286 0.000000 0.000000 0.000000
# 2 -0.007109 0.014432 -0.002922 0.000000 0.000000 0.000000
# 3 -0.001286 -0.002922 0.007096 0.000000 0.000000 0.000000
# 4 0.000000 0.000000 0.000000 0.057710 0.000000 0.000000
# 5 0.000000 0.000000 0.000000 0.000000 -0.003030 0.000000
# 6 0.000000 0.000000 0.000000 0.000000 0.000000 0.054833
#
#
# Mechanical properties :
#
#
# Convention : Reuss Voigt Hill
#
# Bulk Modulus (GPa) = 69.01170 72.83067 70.92118
# Shear Modulus (GPa) = 28.71902 -44.02813 -7.65455
#
# Velocity S-wave (km/s) = 3.94722 -4.88733 -2.03782
# Velocity P-wave (km/s) = 7.62981 2.76837 5.73924
#
# Compressibility (1/GPa) = 0.01449030
#
# Stress axis : x y z
#
# Youngs Moduli (GPa) = 64.11971 69.29183 140.91934
#
# Poissons Ratio (x) = 0.49260 0.18123
# Poissons Ratio (y) = 0.45583 0.41172
# Poissons Ratio (z) = 0.08246 0.20245
#
# Static dielectric constant tensor:
#      x y z
#    x 3.565740 0.000000 0.000000 
#    y 0.000000 2.998860 0.000000 
#    z 0.000000 0.000000 3.706930 
# 
# 
# High freq. dielectric constant tensor:
#      x y z
#    x 1.711180 0.000000 0.000000 
#    y 0.000000 1.682770 0.000000 
#    z 0.000000 0.000000 1.747680 
# 
# From -- ./inp_files/845.got.cif
#   From: 2010.03.12/outbox.cif.g09.slc.cpg/sg63_1_cif.got.tgz:845.got - 2010.04.10 19:34:48.
