data_PCOD8257283
_publ_section_title
;
Structure prediction by ZEFSAII (Michael W. Deem and Ramdas Pophale) SiO2 
 PCOD8257283
Probable space group: C M C M
;
_chemical_formula_sum "Si O2"
_cell_formula_units_Z 112
_cell_length_a 19.417398
_cell_length_b 12.297975
_cell_length_c 27.001724
_cell_angle_alpha 90.000000
_cell_angle_beta 90.000000
_cell_angle_gamma 90.000000
_cell_volume 6447.867912
_symmetry_space_group_name_H-M "C M C M"
_symmetry_group_IT_number 63
_symmetry_cell_setting 'orthorhombic'
loop_
_space_group_symop_operation_xyz
x,y,z
-x,-y,1/2+z
x,-y,-z
-x,y,1/2-z
-x,-y,-z
x,y,1/2-z
-x,y,z
x,-y,1/2+z
1/2+x,1/2+y,z
1/2-x,1/2-y,1/2+z
1/2+x,1/2-y,-z
1/2-x,1/2+y,1/2-z
1/2-x,1/2-y,-z
1/2+x,1/2+y,1/2-z
1/2-x,1/2+y,z
1/2+x,1/2-y,1/2+z
loop_
_atom_site_type_symbol
_atom_site_label
_atom_site_fract_x
_atom_site_fract_y
_atom_site_fract_z
Si Si1 0.783464 0.335729 0.619177
Si Si2 0.707674 0.540717 0.305061
Si Si3 0.920486 0.812191 0.695018
Si Si4 0.920790 0.036329 0.447133
Si Si5 0.364476 0.251072 0.594620
Si Si6 0.179779 0.894932 0.108286
Si Si7 0.689675 0.962910 0.444262
O O1 0.763123 0.370225 0.675210
O O2 0.711367 0.303782 0.593326
O O3 0.834840 0.232769 0.616766
O O4 0.821767 0.432430 0.590504
O O5 0.729773 0.506932 0.250000
O O6 0.628880 0.582767 0.306450
O O7 0.713247 0.436522 0.340482
O O8 0.913220 0.756795 0.750000
O O9 0.895228 0.734179 0.650297
O O10 0.000000 0.847597 0.686176
O O11 0.910407 0.164614 0.436947
O O12 0.000000 0.007403 0.445714
O O13 0.889421 0.000000 0.500000
O O14 0.888338 0.962117 0.403988
O O15 0.364957 0.132243 0.569345
O O16 0.233817 0.915328 0.063793
O O17 0.678037 0.000000 0.500000
#
# Coordination Sequence:
#
# PCOD8257283 Si02
#       7
#    16  16  16  16  16  16  16
#     4   9  19  32  48  74 104 134 168 209 256 306
#     4   9  17  30  46  74 105 132 164 205 261 312
#     4   9  16  29  51  74  96 126 166 212 256 297
#     4  11  22  34  51  75 104 139 176 218 266 303
#     4  10  19  32  51  74 106 131 169 218 255 306
#     4  10  19  32  51  74 105 135 172 211 256 313
#     4  10  20  32  50  75  99 137 174 209 253 302
#
# _framework density 17.370082
#
# number of rings (size 3 to 8) (size 9 to 14) (size 15 to 20)
#    0.000    2.286    4.286    0.857    2.000    1.714 
#    0.000    7.143    0.000    3.429    0.000    0.000 
#    0.000    2.286    0.000    0.000    0.000    0.000 
#
# Total GULP energy -693941.401190 kJ/mol
# GULP energy per Si atom -12391.810736 kJ/mol
# Density = 1.733055 g / cm^3
# Si number density = 17.370082 Si / 1000 Ang^3
#
#
#
# Elastic Constant Matrix: (Units=GPa)
#
#
# Indices 1 2 3 4 5 6 
#
# 1 41.8971 30.0628 25.2980 0.0000 0.0000 0.0000
# 2 30.0628 127.3228 58.7233 0.0000 0.0000 0.0000
# 3 25.2980 58.7233 137.0899 0.0000 0.0000 0.0000
# 4 0.0000 0.0000 0.0000 17.6221 0.0000 0.0000
# 5 0.0000 0.0000 0.0000 0.0000 17.6714 0.0000
# 6 0.0000 0.0000 0.0000 0.0000 0.0000 15.1522
#
#
#
# Elastic Compliance Matrix: (Units=1/GPa)
#
#
# Indices 1 2 3 4 5 6 
#
# 1 0.029752 -0.005599 -0.003092 0.000000 0.000000 0.000000
# 2 -0.005599 0.010841 -0.003611 0.000000 0.000000 0.000000
# 3 -0.003092 -0.003611 0.009412 0.000000 0.000000 0.000000
# 4 0.000000 0.000000 0.000000 0.056747 0.000000 0.000000
# 5 0.000000 0.000000 0.000000 0.000000 0.056589 0.000000
# 6 0.000000 0.000000 0.000000 0.000000 0.000000 0.065997
#
#
# Mechanical properties :
#
#
# Convention : Reuss Voigt Hill
#
# Bulk Modulus (GPa) = 39.36679 59.38645 49.37662
# Shear Modulus (GPa) = 19.05422 22.90418 20.97920
#
# Velocity S-wave (km/s) = 3.31563 3.63519 3.47908
# Velocity P-wave (km/s) = 6.11315 7.20296 6.68032
#
# Compressibility (1/GPa) = 0.02540212
#
# Stress axis : x y z
#
# Youngs Moduli (GPa) = 33.61072 92.23925 106.24975
#
# Poissons Ratio (x) = 0.51643 0.32853
# Poissons Ratio (y) = 0.18818 0.38364
# Poissons Ratio (z) = 0.10393 0.33306
#
# Static dielectric constant tensor:
#      x y z
#    x 2.959870 0.000000 0.000000 
#    y 0.000000 3.271250 0.000000 
#    z 0.000000 0.000000 3.517520 
# 
# 
# High freq. dielectric constant tensor:
#      x y z
#    x 1.635260 0.000000 0.000000 
#    y 0.000000 1.655810 0.000000 
#    z 0.000000 0.000000 1.680090 
# 
# From -- ./inp_files/70463.got.cif
#   From: 2010.03.12/outbox.cif.g09.slc.cpg/sg63_36_cif.got.tgz:70463.got - 2010.04.10 19:34:48.
