data_PCOD8257091
_publ_section_title
;
Structure prediction by ZEFSAII (Michael W. Deem and Ramdas Pophale) SiO2 
 PCOD8257091
Probable space group: C M C M
;
_chemical_formula_sum "Si O2"
_cell_formula_units_Z 80
_cell_length_a 15.485661
_cell_length_b 14.551356
_cell_length_c 20.832875
_cell_angle_alpha 90.000000
_cell_angle_beta 90.000000
_cell_angle_gamma 90.000000
_cell_volume 4694.425181
_symmetry_space_group_name_H-M "C M C M"
_symmetry_group_IT_number 63
_symmetry_cell_setting 'orthorhombic'
loop_
_space_group_symop_operation_xyz
x,y,z
-x,-y,1/2+z
x,-y,-z
-x,y,1/2-z
-x,-y,-z
x,y,1/2-z
-x,y,z
x,-y,1/2+z
1/2+x,1/2+y,z
1/2-x,1/2-y,1/2+z
1/2+x,1/2-y,-z
1/2-x,1/2+y,1/2-z
1/2-x,1/2-y,-z
1/2+x,1/2+y,1/2-z
1/2-x,1/2+y,z
1/2+x,1/2-y,1/2+z
loop_
_atom_site_type_symbol
_atom_site_label
_atom_site_fract_x
_atom_site_fract_y
_atom_site_fract_z
Si Si1 0.740910 0.402673 0.484937
Si Si2 0.596935 0.541434 0.607798
Si Si3 0.902276 0.774214 0.324222
Si Si4 0.598728 0.643502 0.324662
Si Si5 0.735096 0.736352 0.099624
O O1 0.791329 0.500000 0.500000
O O2 0.649346 0.432647 0.455601
O O3 0.725622 0.345464 0.548997
O O4 0.785614 0.335592 0.432720
O O5 0.500000 0.530895 0.583291
O O6 0.604042 0.617183 0.663837
O O7 0.630542 0.447817 0.639284
O O8 0.881605 0.753479 0.250000
O O9 0.830659 0.726073 0.369373
O O10 0.000000 0.739391 0.341522
O O11 0.610622 0.626757 0.250000
O O12 0.500000 0.668882 0.341453
O O13 0.660925 0.726152 0.346941
#
# Coordination Sequence:
#
# PCOD8257091 Si02
#       5
#    16  16  16  16  16
#     4  10  19  33  49  72 102 135 169 211 242 296
#     4   9  17  29  49  77 104 130 160 205 265 314
#     4   9  17  31  51  74 100 129 168 215 258 300
#     4  10  19  31  50  78 108 133 162 202 254 316
#     4  10  20  32  51  75 102 136 169 204 256 299
#
# _framework density 17.04149
#
# number of rings (size 3 to 8) (size 9 to 14) (size 15 to 20)
#    0.000    2.400    2.000    1.200    0.000    3.600 
#    0.000    3.000    0.000    2.400    0.000    2.800 
#    0.000    0.000    0.000    0.000    0.000    0.000 
#
# Total GULP energy -495673.227485 kJ/mol
# GULP energy per Si atom -12391.830687 kJ/mol
# Density = 1.700270 g / cm^3
# Si number density = 17.041490 Si / 1000 Ang^3
#
#
#
# Elastic Constant Matrix: (Units=GPa)
#
#
# Indices 1 2 3 4 5 6 
#
# 1 92.4318 46.6469 58.8198 0.0000 0.0000 0.0000
# 2 46.6469 101.2999 45.3310 0.0000 0.0000 0.0000
# 3 58.8198 45.3310 93.2106 0.0000 0.0000 0.0000
# 4 0.0000 0.0000 0.0000 30.0233 0.0000 0.0000
# 5 0.0000 0.0000 0.0000 0.0000 28.2859 0.0000
# 6 0.0000 0.0000 0.0000 0.0000 0.0000 24.9026
#
#
#
# Elastic Compliance Matrix: (Units=1/GPa)
#
#
# Indices 1 2 3 4 5 6 
#
# 1 0.019528 -0.004445 -0.010161 0.000000 0.000000 0.000000
# 2 -0.004445 0.013630 -0.003823 0.000000 0.000000 0.000000
# 3 -0.010161 -0.003823 0.019000 0.000000 0.000000 0.000000
# 4 0.000000 0.000000 0.000000 0.033307 0.000000 0.000000
# 5 0.000000 0.000000 0.000000 0.000000 0.035353 0.000000
# 6 0.000000 0.000000 0.000000 0.000000 0.000000 0.040157
#
#
# Mechanical properties :
#
#
# Convention : Reuss Voigt Hill
#
# Bulk Modulus (GPa) = 65.36773 65.39308 65.38041
# Shear Modulus (GPa) = 24.63846 25.71865 25.17855
#
# Velocity S-wave (km/s) = 3.80648 3.88903 3.84798
# Velocity P-wave (km/s) = 7.60002 7.65652 7.62832
#
# Compressibility (1/GPa) = 0.01529807
#
# Stress axis : x y z
#
# Youngs Moduli (GPa) = 51.20722 73.36984 52.63162
#
# Poissons Ratio (x) = 0.32616 0.53481
# Poissons Ratio (y) = 0.22764 0.20122
# Poissons Ratio (z) = 0.52034 0.28051
#
# Static dielectric constant tensor:
#      x y z
#    x 3.119450 0.000000 0.000000 
#    y 0.000000 3.306180 0.000000 
#    z 0.000000 0.000000 3.267170 
# 
# 
# High freq. dielectric constant tensor:
#      x y z
#    x 1.636510 0.000000 0.000000 
#    y 0.000000 1.645400 0.000000 
#    z 0.000000 0.000000 1.672250 
# 
# From -- ./inp_files/53970.got.cif
#   From: 2010.03.12/outbox.cif.g09.slc.cpg/sg63_27_cif.got.tgz:53970.got - 2010.04.10 19:34:48.
