data_PCOD8257261
_publ_section_title
;
Structure prediction by ZEFSAII (Michael W. Deem and Ramdas Pophale) SiO2 
 PCOD8257261
Probable space group: C M C M
;
_chemical_formula_sum "Si O2"
_cell_formula_units_Z 120
_cell_length_a 15.550296
_cell_length_b 30.739677
_cell_length_c 13.625963
_cell_angle_alpha 90.000000
_cell_angle_beta 90.000000
_cell_angle_gamma 90.000000
_cell_volume 6513.361239
_symmetry_space_group_name_H-M "C M C M"
_symmetry_group_IT_number 63
_symmetry_cell_setting 'orthorhombic'
loop_
_space_group_symop_operation_xyz
x,y,z
-x,-y,1/2+z
x,-y,-z
-x,y,1/2-z
-x,-y,-z
x,y,1/2-z
-x,y,z
x,-y,1/2+z
1/2+x,1/2+y,z
1/2-x,1/2-y,1/2+z
1/2+x,1/2-y,-z
1/2-x,1/2+y,1/2-z
1/2-x,1/2-y,-z
1/2+x,1/2+y,1/2-z
1/2-x,1/2+y,z
1/2+x,1/2-y,1/2+z
loop_
_atom_site_type_symbol
_atom_site_label
_atom_site_fract_x
_atom_site_fract_y
_atom_site_fract_z
Si Si1 0.300993 0.593449 0.523943
Si Si2 0.598884 0.347322 0.357896
Si Si3 0.899412 0.214551 0.028012
Si Si4 0.763390 0.500000 0.000000
Si Si5 0.636723 0.882955 0.135157
Si Si6 0.737632 0.339719 0.865336
Si Si7 0.595789 0.187165 0.019003
Si Si8 0.593393 0.020284 0.636672
O O1 0.388552 0.608360 0.577517
O O2 0.297611 0.541516 0.513368
O O3 0.235147 0.613662 0.602915
O O4 0.287622 0.614745 0.417264
O O5 0.644760 0.347393 0.250000
O O6 0.500000 0.342211 0.337498
O O7 0.630712 0.306633 0.424168
O O8 0.836664 0.195620 0.112046
O O9 0.882537 0.265586 0.023550
O O10 0.000000 0.203704 0.051166
O O11 0.828870 0.492915 0.909782
O O12 0.627310 0.872211 0.250000
O O13 0.591710 0.845241 0.073388
O O14 0.593764 0.929006 0.107271
O O15 0.741867 0.348037 0.750000
O O16 0.832393 0.325222 0.901199
O O17 0.500000 0.187155 0.067878
O O18 0.609112 0.014966 0.750000
O O19 0.500000 0.001091 0.605571
#
# Coordination Sequence:
#
# PCOD8257261 Si02
#       8
#    16  16  16   8  16  16  16  16
#     4   9  19  34  51  74  98 126 164 203 244 297
#     4   9  17  32  55  78  99 124 155 198 252 302
#     4   9  19  35  54  78 103 128 168 215 252 292
#     4  10  19  32  51  70  94 126 156 198 249 290
#     4   9  17  30  49  72 101 135 167 203 248 291
#     4  10  21  36  51  69 101 142 174 203 245 296
#     4  10  20  33  50  75 106 137 172 210 244 287
#     4   9  17  29  46  69  95 125 164 204 240 282
#
# _framework density 18.423667999999999
#
# number of rings (size 3 to 8) (size 9 to 14) (size 15 to 20)
#    0.000    2.667    0.000    1.400    0.000    3.467 
#    0.000    3.667    0.000    0.000    0.000    0.000 
#    0.000    0.000    0.000    0.000    0.000    0.000 
#
# Total GULP energy -743527.555744 kJ/mol
# GULP energy per Si atom -12392.125929 kJ/mol
# Density = 1.838173 g / cm^3
# Si number density = 18.423668 Si / 1000 Ang^3
#
#
#
# Elastic Constant Matrix: (Units=GPa)
#
#
# Indices 1 2 3 4 5 6 
#
# 1 35.0241 4.5242 24.6463 0.0000 0.0000 0.0000
# 2 4.5242 59.4315 19.9605 0.0000 0.0000 0.0000
# 3 24.6463 19.9605 101.7793 0.0000 0.0000 0.0000
# 4 0.0000 0.0000 0.0000 19.5319 0.0000 0.0000
# 5 0.0000 0.0000 0.0000 0.0000 21.1135 0.0000
# 6 0.0000 0.0000 0.0000 0.0000 0.0000 17.2927
#
#
#
# Elastic Compliance Matrix: (Units=1/GPa)
#
#
# Indices 1 2 3 4 5 6 
#
# 1 0.034418 0.000192 -0.008372 0.000000 0.000000 0.000000
# 2 0.000192 0.018014 -0.003579 0.000000 0.000000 0.000000
# 3 -0.008372 -0.003579 0.012554 0.000000 0.000000 0.000000
# 4 0.000000 0.000000 0.000000 0.051198 0.000000 0.000000
# 5 0.000000 0.000000 0.000000 0.000000 0.047363 0.000000
# 6 0.000000 0.000000 0.000000 0.000000 0.000000 0.057828
#
#
# Mechanical properties :
#
#
# Convention : Reuss Voigt Hill
#
# Bulk Modulus (GPa) = 24.11541 32.72188 28.41865
# Shear Modulus (GPa) = 19.32610 21.39453 20.36031
#
# Velocity S-wave (km/s) = 3.24231 3.41141 3.32794
# Velocity P-wave (km/s) = 5.20909 5.77203 5.49777
#
# Compressibility (1/GPa) = 0.04146726
#
# Stress axis : x y z
#
# Youngs Moduli (GPa) = 29.05421 55.51366 79.65290
#
# Poissons Ratio (x) = -0.01064 0.66687
# Poissons Ratio (y) = -0.00557 0.28509
# Poissons Ratio (z) = 0.24325 0.19869
#
# Static dielectric constant tensor:
#      x y z
#    x 3.602150 0.000000 0.000000 
#    y 0.000000 3.320540 0.000000 
#    z 0.000000 0.000000 3.513950 
# 
# 
# High freq. dielectric constant tensor:
#      x y z
#    x 1.714980 0.000000 0.000000 
#    y 0.000000 1.702460 0.000000 
#    z 0.000000 0.000000 1.708890 
# 
# From -- ./inp_files/32829.got.cif
#   From: 2010.03.12/outbox.cif.g09.slc.cpg/sg63_17_cif.got.tgz:32829.got - 2010.04.10 19:34:48.
