data_PCOD8257055
_publ_section_title
;
Structure prediction by ZEFSAII (Michael W. Deem and Ramdas Pophale) SiO2 
 PCOD8257055
Probable space group: C M C M
;
_chemical_formula_sum "Si O2"
_cell_formula_units_Z 80
_cell_length_a 14.196489
_cell_length_b 33.727340
_cell_length_c 9.286822
_cell_angle_alpha 90.000000
_cell_angle_beta 90.000000
_cell_angle_gamma 90.000000
_cell_volume 4446.621489
_symmetry_space_group_name_H-M "C M C M"
_symmetry_group_IT_number 63
_symmetry_cell_setting 'orthorhombic'
loop_
_space_group_symop_operation_xyz
x,y,z
-x,-y,1/2+z
x,-y,-z
-x,y,1/2-z
-x,-y,-z
x,y,1/2-z
-x,y,z
x,-y,1/2+z
1/2+x,1/2+y,z
1/2-x,1/2-y,1/2+z
1/2+x,1/2-y,-z
1/2-x,1/2+y,1/2-z
1/2-x,1/2-y,-z
1/2+x,1/2+y,1/2-z
1/2-x,1/2+y,z
1/2+x,1/2-y,1/2+z
loop_
_atom_site_type_symbol
_atom_site_label
_atom_site_fract_x
_atom_site_fract_y
_atom_site_fract_z
Si Si1 0.389215 0.689486 0.414418
Si Si2 0.103336 0.649922 0.079876
Si Si3 0.608553 0.540397 0.918289
Si Si4 0.289907 0.390186 0.919779
Si Si5 0.387927 0.236606 0.089999
O O1 0.360474 0.695167 0.250000
O O2 0.500000 0.686150 0.437769
O O3 0.344842 0.648843 0.472401
O O4 0.345407 0.727659 0.494785
O O5 0.094757 0.655054 0.250000
O O6 0.179404 0.616149 0.042398
O O7 0.137510 0.693291 0.022884
O O8 0.000000 0.638130 0.016646
O O9 0.631537 0.535189 0.750000
O O10 0.500000 0.552537 0.942554
O O11 0.632137 0.500000 0.000000
O O12 0.674936 0.573477 0.986157
O O13 0.306405 0.398510 0.750000
O O14 0.346051 0.241358 0.250000
O O15 0.500000 0.240261 0.093025
#
# Coordination Sequence:
#
# PCOD8257055 Si02
#       5
#    16  16  16  16  16
#     4   9  17  27  39  61  95 129 160 199 247 293
#     4   8  15  29  48  69  94 128 171 213 249 284
#     4  10  21  37  57  80 105 130 154 184 228 286
#     4  10  19  31  50  74  99 129 164 202 244 290
#     4   8  14  26  43  61  86 125 169 207 242 283
#
# _framework density 17.991188000000001
#
# number of rings (size 3 to 8) (size 9 to 14) (size 15 to 20)
#    0.000    3.000    0.000    2.400    0.000    3.600 
#    0.000    3.000    0.000    2.400    0.000    0.000 
#    0.000    0.000    0.000    0.000    0.000    0.000 
#
# Total GULP energy -495800.476655 kJ/mol
# GULP energy per Si atom -12395.011916 kJ/mol
# Density = 1.795024 g / cm^3
# Si number density = 17.991188 Si / 1000 Ang^3
#
#
#
# Elastic Constant Matrix: (Units=GPa)
#
#
# Indices 1 2 3 4 5 6 
#
# 1 58.8802 71.8409 40.5869 0.0000 0.0000 0.0000
# 2 71.8409 136.5897 62.0255 0.0000 0.0000 0.0000
# 3 40.5869 62.0255 70.4284 0.0000 0.0000 0.0000
# 4 0.0000 0.0000 0.0000 33.4453 0.0000 0.0000
# 5 0.0000 0.0000 0.0000 0.0000 15.4765 0.0000
# 6 0.0000 0.0000 0.0000 0.0000 0.0000 28.8223
#
#
#
# Elastic Compliance Matrix: (Units=1/GPa)
#
#
# Indices 1 2 3 4 5 6 
#
# 1 0.051036 -0.022476 -0.009617 0.000000 0.000000 0.000000
# 2 -0.022476 0.022099 -0.006509 0.000000 0.000000 0.000000
# 3 -0.009617 -0.006509 0.025474 0.000000 0.000000 0.000000
# 4 0.000000 0.000000 0.000000 0.029900 0.000000 0.000000
# 5 0.000000 0.000000 0.000000 0.000000 0.064614 0.000000
# 6 0.000000 0.000000 0.000000 0.000000 0.000000 0.034695
#
#
# Mechanical properties :
#
#
# Convention : Reuss Voigt Hill
#
# Bulk Modulus (GPa) = 46.72107 68.31168 57.51637
# Shear Modulus (GPa) = 16.01758 21.64515 18.83137
#
# Velocity S-wave (km/s) = 2.98703 3.47233 3.23878
# Velocity P-wave (km/s) = 6.15806 7.35718 6.78416
#
# Compressibility (1/GPa) = 0.02140362
#
# Stress axis : x y z
#
# Youngs Moduli (GPa) = 19.59396 45.25173 39.25599
#
# Poissons Ratio (x) = 1.01707 0.37753
# Poissons Ratio (y) = 0.44039 0.25554
# Poissons Ratio (z) = 0.18844 0.29456
#
# Static dielectric constant tensor:
#      x y z
#    x 3.443350 0.000000 0.000000 
#    y 0.000000 3.336670 0.000000 
#    z 0.000000 0.000000 3.280100 
# 
# 
# High freq. dielectric constant tensor:
#      x y z
#    x 1.695670 0.000000 0.000000 
#    y 0.000000 1.684680 0.000000 
#    z 0.000000 0.000000 1.669770 
# 
# From -- ./inp_files/6663.got.cif
#   From: 2010.03.12/outbox.cif.g09.slc.cpg/sg63_4_cif.got.tgz:6663.got - 2010.04.10 19:34:48.
