data_PCOD8257777
_publ_section_title
;
Structure prediction by ZEFSAII (Michael W. Deem and Ramdas Pophale) SiO2 
 PCOD8257777
Probable space group: C M C M
;
_chemical_formula_sum "Si O2"
_cell_formula_units_Z 96
_cell_length_a 33.676527
_cell_length_b 5.019490
_cell_length_c 31.392470
_cell_angle_alpha 90.000000
_cell_angle_beta 90.000000
_cell_angle_gamma 90.000000
_cell_volume 5306.551438
_symmetry_space_group_name_H-M "C M C M"
_symmetry_group_IT_number 63
_symmetry_cell_setting 'orthorhombic'
loop_
_space_group_symop_operation_xyz
x,y,z
-x,-y,1/2+z
x,-y,-z
-x,y,1/2-z
-x,-y,-z
x,y,1/2-z
-x,y,z
x,-y,1/2+z
1/2+x,1/2+y,z
1/2-x,1/2-y,1/2+z
1/2+x,1/2-y,-z
1/2-x,1/2+y,1/2-z
1/2-x,1/2-y,-z
1/2+x,1/2+y,1/2-z
1/2-x,1/2+y,z
1/2+x,1/2-y,1/2+z
loop_
_atom_site_type_symbol
_atom_site_label
_atom_site_fract_x
_atom_site_fract_y
_atom_site_fract_z
Si Si1 0.177368 0.424151 0.250000
Si Si2 0.453742 0.546191 0.915506
Si Si3 0.912587 0.545137 0.548843
Si Si4 0.276485 0.004414 0.662852
Si Si5 0.897702 0.014268 0.341303
Si Si6 0.623393 0.423083 0.250000
Si Si7 0.143022 0.514819 0.123376
O O1 0.204568 0.468311 0.209206
O O2 0.160678 0.124396 0.250000
O O3 0.140565 0.625938 0.250000
O O4 0.500000 0.484866 0.916730
O O5 0.445352 0.838377 0.933974
O O6 0.438958 0.525616 0.866587
O O7 0.430471 0.338360 0.945225
O O8 0.902110 0.500000 0.500000
O O9 0.871313 0.514098 0.574603
O O10 0.258518 0.713213 0.656552
O O11 0.310220 0.044450 0.626756
O O12 0.904503 0.964841 0.291216
O O13 0.881783 0.313139 0.346966
O O14 0.864674 0.812458 0.359625
#
# Coordination Sequence:
#
# PCOD8257777 Si02
#       7
#     8  16  16  16  16   8  16
#     4  12  22  33  50  76 107 133 174 227 255 302
#     4  10  21  35  54  82 114 136 164 212 265 311
#     4  10  21  36  59  82 103 136 173 211 258 315
#     4  12  22  34  50  75 108 138 168 215 269 309
#     4  10  19  34  53  73 101 144 180 209 249 302
#     4  12  18  33  55  72 100 141 186 217 242 296
#     4  10  20  37  52  73 104 138 176 211 255 313
#
# _framework density 18.090845000000002
#
# number of rings (size 3 to 8) (size 9 to 14) (size 15 to 20)
#    0.000    1.333    3.333    3.500    0.000    2.000 
#    0.000    0.417    0.000    1.000    0.000    8.167 
#    0.000    0.000    0.000    0.000    0.000    0.000 
#
# Total GULP energy -595392.575307 kJ/mol
# GULP energy per Si atom -12404.011986 kJ/mol
# Density = 1.804967 g / cm^3
# Si number density = 18.090845 Si / 1000 Ang^3
#
#
#
# Elastic Constant Matrix: (Units=GPa)
#
#
# Indices 1 2 3 4 5 6 
#
# 1 78.9177 5.7902 56.6648 0.0000 0.0000 0.0000
# 2 5.7902 68.1384 10.3895 0.0000 0.0000 0.0000
# 3 56.6648 10.3895 128.6932 0.0000 0.0000 0.0000
# 4 0.0000 0.0000 0.0000 19.9658 0.0000 0.0000
# 5 0.0000 0.0000 0.0000 0.0000 18.0287 0.0000
# 6 0.0000 0.0000 0.0000 0.0000 0.0000 23.2845
#
#
#
# Elastic Compliance Matrix: (Units=1/GPa)
#
#
# Indices 1 2 3 4 5 6 
#
# 1 0.018537 -0.000335 -0.008135 0.000000 0.000000 0.000000
# 2 -0.000335 0.014865 -0.001053 0.000000 0.000000 0.000000
# 3 -0.008135 -0.001053 0.011437 0.000000 0.000000 0.000000
# 4 0.000000 0.000000 0.000000 0.050086 0.000000 0.000000
# 5 0.000000 0.000000 0.000000 0.000000 0.055467 0.000000
# 6 0.000000 0.000000 0.000000 0.000000 0.000000 0.042947
#
#
# Mechanical properties :
#
#
# Convention : Reuss Voigt Hill
#
# Bulk Modulus (GPa) = 38.76806 46.82648 42.79727
# Shear Modulus (GPa) = 22.62623 25.78278 24.20451
#
# Velocity S-wave (km/s) = 3.54036 3.77926 3.66176
# Velocity P-wave (km/s) = 6.17968 6.70701 6.44873
#
# Compressibility (1/GPa) = 0.02579443
#
# Stress axis : x y z
#
# Youngs Moduli (GPa) = 53.94566 67.27231 87.43288
#
# Poissons Ratio (x) = 0.02253 0.71127
# Poissons Ratio (y) = 0.01806 0.09203
# Poissons Ratio (z) = 0.43885 0.07081
#
# Static dielectric constant tensor:
#      x y z
#    x 3.153160 0.000000 0.000000 
#    y 0.000000 3.597600 0.000000 
#    z 0.000000 0.000000 3.402850 
# 
# 
# High freq. dielectric constant tensor:
#      x y z
#    x 1.675240 0.000000 0.000000 
#    y 0.000000 1.726510 0.000000 
#    z 0.000000 0.000000 1.690490 
# 
# From -- ./inp_files/74490.got.cif
#   From: 2010.03.12/outbox.cif.g09.slc.cpg/sg63_38_cif.got.tgz:74490.got - 2010.04.10 19:34:48.
