data_PCOD8257961
_publ_section_title
;
Structure prediction by ZEFSAII (Michael W. Deem and Ramdas Pophale) SiO2 
 PCOD8257961
Probable space group: C M C M
;
_chemical_formula_sum "Si O2"
_cell_formula_units_Z 112
_cell_length_a 24.644764
_cell_length_b 16.776009
_cell_length_c 14.542948
_cell_angle_alpha 90.000000
_cell_angle_beta 90.000000
_cell_angle_gamma 90.000000
_cell_volume 6012.647803
_symmetry_space_group_name_H-M "C M C M"
_symmetry_group_IT_number 63
_symmetry_cell_setting 'orthorhombic'
loop_
_space_group_symop_operation_xyz
x,y,z
-x,-y,1/2+z
x,-y,-z
-x,y,1/2-z
-x,-y,-z
x,y,1/2-z
-x,y,z
x,-y,1/2+z
1/2+x,1/2+y,z
1/2-x,1/2-y,1/2+z
1/2+x,1/2-y,-z
1/2-x,1/2+y,1/2-z
1/2-x,1/2-y,-z
1/2+x,1/2+y,1/2-z
1/2-x,1/2+y,z
1/2+x,1/2-y,1/2+z
loop_
_atom_site_type_symbol
_atom_site_label
_atom_site_fract_x
_atom_site_fract_y
_atom_site_fract_z
Si Si1 0.764003 0.039038 0.902028
Si Si2 0.165322 0.902000 0.649690
Si Si3 0.559754 0.318625 0.645176
Si Si4 0.606119 0.805902 0.008885
Si Si5 0.937697 0.419098 0.855697
Si Si6 0.298984 0.305834 0.016694
Si Si7 0.855987 0.438248 0.353016
O O1 0.706505 0.032337 0.850194
O O2 0.813317 0.992635 0.852175
O O3 0.785785 0.129809 0.904435
O O4 0.753769 0.000000 0.000000
O O5 0.176237 0.865828 0.750000
O O6 0.101193 0.892022 0.625826
O O7 0.198625 0.849279 0.580444
O O8 0.565960 0.287055 0.750000
O O9 0.500000 0.353966 0.628257
O O10 0.567567 0.243959 0.576749
O O11 0.647885 0.745457 0.959375
O O12 0.638498 0.869120 0.071687
O O13 0.572738 0.846937 0.926671
O O14 0.927976 0.390733 0.750000
O O15 0.896891 0.490683 0.880791
O O16 0.000000 0.448147 0.868073
O O17 0.250000 0.250000 0.000000
O O18 0.870725 0.408277 0.250000
#
# Coordination Sequence:
#
# PCOD8257961 Si02
#       7
#    16  16  16  16  16  16  16
#     4  10  19  35  55  75 108 144 181 219 267 322
#     4   9  19  34  54  78 108 142 178 223 271 318
#     4   9  18  33  55  84 112 140 179 226 276 324
#     4  11  20  35  57  79 111 143 182 221 279 327
#     4  10  23  40  55  76 107 145 191 233 268 316
#     4  10  20  35  53  78 111 144 175 220 270 328
#     4  11  22  34  53  80 108 142 181 224 270 326
#
# _framework density 18.627400999999999
#
# number of rings (size 3 to 8) (size 9 to 14) (size 15 to 20)
#    0.000    2.000    1.429    2.571    2.000    2.286 
#    0.000    2.857    0.000   11.571    0.000    2.000 
#    0.000    0.000    0.000    0.000    0.000    0.000 
#
# Total GULP energy -694009.320592 kJ/mol
# GULP energy per Si atom -12393.023582 kJ/mol
# Density = 1.858500 g / cm^3
# Si number density = 18.627401 Si / 1000 Ang^3
#
#
#
# Elastic Constant Matrix: (Units=GPa)
#
#
# Indices 1 2 3 4 5 6 
#
# 1 143.4022 72.4412 40.6933 0.0000 0.0000 0.0000
# 2 72.4412 102.3564 31.5901 0.0000 0.0000 0.0000
# 3 40.6933 31.5901 69.8649 0.0000 0.0000 0.0000
# 4 0.0000 0.0000 0.0000 20.6595 0.0000 0.0000
# 5 0.0000 0.0000 0.0000 0.0000 25.3632 0.0000
# 6 0.0000 0.0000 0.0000 0.0000 0.0000 28.2318
#
#
#
# Elastic Compliance Matrix: (Units=1/GPa)
#
#
# Indices 1 2 3 4 5 6 
#
# 1 0.011555 -0.007090 -0.003525 0.000000 0.000000 0.000000
# 2 -0.007090 0.015705 -0.002971 0.000000 0.000000 0.000000
# 3 -0.003525 -0.002971 0.017710 0.000000 0.000000 0.000000
# 4 0.000000 0.000000 0.000000 0.048404 0.000000 0.000000
# 5 0.000000 0.000000 0.000000 0.000000 0.039427 0.000000
# 6 0.000000 0.000000 0.000000 0.000000 0.000000 0.035421
#
#
# Mechanical properties :
#
#
# Convention : Reuss Voigt Hill
#
# Bulk Modulus (GPa) = 56.18726 67.23030 61.70878
# Shear Modulus (GPa) = 24.83524 26.24417 25.53971
#
# Velocity S-wave (km/s) = 3.65535 3.75761 3.70683
# Velocity P-wave (km/s) = 6.93143 7.41597 7.17779
#
# Compressibility (1/GPa) = 0.01779763
#
# Stress axis : x y z
#
# Youngs Moduli (GPa) = 86.54040 63.67451 56.46620
#
# Poissons Ratio (x) = 0.45147 0.19902
# Poissons Ratio (y) = 0.61360 0.16778
# Poissons Ratio (z) = 0.30501 0.18920
#
# Static dielectric constant tensor:
#      x y z
#    x 3.487570 0.000000 0.000000 
#    y 0.000000 3.470280 0.000000 
#    z 0.000000 0.000000 3.887850 
# 
# 
# High freq. dielectric constant tensor:
#      x y z
#    x 1.730040 0.000000 0.000000 
#    y 0.000000 1.705520 0.000000 
#    z 0.000000 0.000000 1.723830 
# 
# From -- ./inp_files/36939.got.cif
#   From: 2010.03.12/outbox.cif.g09.slc.cpg/sg63_19_cif.got.tgz:36939.got - 2010.04.10 19:34:48.
