data_PCOD8257530
_publ_section_title
;
Structure prediction by ZEFSAII (Michael W. Deem and Ramdas Pophale) SiO2 
 PCOD8257530
Probable space group: C M C M
;
_chemical_formula_sum "Si O2"
_cell_formula_units_Z 96
_cell_length_a 11.315036
_cell_length_b 31.799490
_cell_length_c 14.098031
_cell_angle_alpha 90.000000
_cell_angle_beta 90.000000
_cell_angle_gamma 90.000000
_cell_volume 5072.646005
_symmetry_space_group_name_H-M "C M C M"
_symmetry_group_IT_number 63
_symmetry_cell_setting 'orthorhombic'
loop_
_space_group_symop_operation_xyz
x,y,z
-x,-y,1/2+z
x,-y,-z
-x,y,1/2-z
-x,-y,-z
x,y,1/2-z
-x,y,z
x,-y,1/2+z
1/2+x,1/2+y,z
1/2-x,1/2-y,1/2+z
1/2+x,1/2-y,-z
1/2-x,1/2+y,1/2-z
1/2-x,1/2-y,-z
1/2+x,1/2+y,1/2-z
1/2-x,1/2+y,z
1/2+x,1/2-y,1/2+z
loop_
_atom_site_type_symbol
_atom_site_label
_atom_site_fract_x
_atom_site_fract_y
_atom_site_fract_z
Si Si1 0.769427 0.688727 0.959647
Si Si2 0.361954 0.602210 0.528746
Si Si3 0.000000 0.659408 0.862843
Si Si4 0.253481 0.975295 0.095712
Si Si5 0.500000 0.936569 0.138273
Si Si6 0.859012 0.735182 0.361925
Si Si7 0.632522 0.448074 0.850700
O O1 0.705061 0.644713 0.952779
O O2 0.889551 0.685415 0.901185
O O3 0.684225 0.720635 0.904142
O O4 0.795865 0.700464 0.070118
O O5 0.500000 0.611301 0.533074
O O6 0.324025 0.567299 0.606487
O O7 0.316789 0.584418 0.427509
O O8 0.000000 0.660056 0.750000
O O9 0.000000 0.611169 0.902026
O O10 0.389612 0.963245 0.102634
O O11 0.211501 0.010219 0.170235
O O12 0.223687 0.000000 0.000000
O O13 0.500000 0.933902 0.250000
O O14 0.823260 0.729618 0.250000
O O15 0.000000 0.732048 0.372213
O O16 0.630322 0.423869 0.750000
O O17 0.500000 0.461768 0.881985
#
# Coordination Sequence:
#
# PCOD8257530 Si02
#       7
#    16  16   8  16   8  16  16
#     4  11  21  39  62  84 117 150 184 232 284 338
#     4  10  20  34  55  80 107 143 185 228 278 332
#     4  11  22  37  58  84 112 149 190 229 279 337
#     4  10  19  33  52  75 105 144 186 226 273 330
#     4  11  21  33  51  76 109 143 183 231 277 327
#     4  10  22  40  63  89 116 148 186 229 282 342
#     4   9  18  33  52  75 106 142 183 231 276 322
#
# _framework density 18.925035000000001
#
# number of rings (size 3 to 8) (size 9 to 14) (size 15 to 20)
#    0.000    1.833    2.500    2.250    0.000    2.667 
#    0.000    0.000    0.000    4.000    0.000    0.000 
#    0.000    0.000    0.000    0.000    0.000    0.000 
#
# Total GULP energy -594789.002065 kJ/mol
# GULP energy per Si atom -12391.437543 kJ/mol
# Density = 1.888196 g / cm^3
# Si number density = 18.925035 Si / 1000 Ang^3
#
#
#
# Elastic Constant Matrix: (Units=GPa)
#
#
# Indices 1 2 3 4 5 6 
#
# 1 56.0146 8.9842 15.9031 0.0000 0.0000 0.0000
# 2 8.9842 66.6990 10.4646 0.0000 0.0000 0.0000
# 3 15.9031 10.4646 82.5103 0.0000 0.0000 0.0000
# 4 0.0000 0.0000 0.0000 11.7270 0.0000 0.0000
# 5 0.0000 0.0000 0.0000 0.0000 19.5872 0.0000
# 6 0.0000 0.0000 0.0000 0.0000 0.0000 31.1444
#
#
#
# Elastic Compliance Matrix: (Units=1/GPa)
#
#
# Indices 1 2 3 4 5 6 
#
# 1 0.019155 -0.002041 -0.003433 0.000000 0.000000 0.000000
# 2 -0.002041 0.015515 -0.001574 0.000000 0.000000 0.000000
# 3 -0.003433 -0.001574 0.012981 0.000000 0.000000 0.000000
# 4 0.000000 0.000000 0.000000 0.085273 0.000000 0.000000
# 5 0.000000 0.000000 0.000000 0.000000 0.051054 0.000000
# 6 0.000000 0.000000 0.000000 0.000000 0.000000 0.032108
#
#
# Mechanical properties :
#
#
# Convention : Reuss Voigt Hill
#
# Bulk Modulus (GPa) = 29.80359 30.65863 30.23111
# Shear Modulus (GPa) = 20.71529 23.81652 22.26591
#
# Velocity S-wave (km/s) = 3.31206 3.55134 3.43378
# Velocity P-wave (km/s) = 5.51441 5.74902 5.63294
#
# Compressibility (1/GPa) = 0.03355300
#
# Stress axis : x y z
#
# Youngs Moduli (GPa) = 52.20692 64.45504 77.03560
#
# Poissons Ratio (x) = 0.13158 0.26446
# Poissons Ratio (y) = 0.10658 0.12127
# Poissons Ratio (z) = 0.17922 0.10147
#
# Static dielectric constant tensor:
#      x y z
#    x 3.447870 0.000000 0.000000 
#    y 0.000000 3.531070 0.000000 
#    z 0.000000 0.000000 3.593920 
# 
# 
# High freq. dielectric constant tensor:
#      x y z
#    x 1.739860 0.000000 0.000000 
#    y 0.000000 1.732350 0.000000 
#    z 0.000000 0.000000 1.738210 
# 
# From -- ./inp_files/30343.got.cif
#   From: 2010.03.12/outbox.cif.g09.slc.cpg/sg63_16_cif.got.tgz:30343.got - 2010.04.10 19:34:48.
