data_PCOD8257248
_publ_section_title
;
Structure prediction by ZEFSAII (Michael W. Deem and Ramdas Pophale) SiO2 
 PCOD8257248
Probable space group: C M C M
;
_chemical_formula_sum "Si O2"
_cell_formula_units_Z 80
_cell_length_a 9.315833
_cell_length_b 15.724480
_cell_length_c 28.877523
_cell_angle_alpha 90.000000
_cell_angle_beta 90.000000
_cell_angle_gamma 90.000000
_cell_volume 4230.171018
_symmetry_space_group_name_H-M "C M C M"
_symmetry_group_IT_number 63
_symmetry_cell_setting 'orthorhombic'
loop_
_space_group_symop_operation_xyz
x,y,z
-x,-y,1/2+z
x,-y,-z
-x,y,1/2-z
-x,-y,-z
x,y,1/2-z
-x,y,z
x,-y,1/2+z
1/2+x,1/2+y,z
1/2-x,1/2-y,1/2+z
1/2+x,1/2-y,-z
1/2-x,1/2+y,1/2-z
1/2-x,1/2-y,-z
1/2+x,1/2+y,1/2-z
1/2-x,1/2+y,z
1/2+x,1/2-y,1/2+z
loop_
_atom_site_type_symbol
_atom_site_label
_atom_site_fract_x
_atom_site_fract_y
_atom_site_fract_z
Si Si1 0.669644 0.969285 0.451482
Si Si2 0.333356 0.778489 0.455053
Si Si3 0.329496 0.875426 0.197649
Si Si4 0.331563 0.290308 0.856704
Si Si5 0.670607 0.042391 0.355954
O O1 0.500000 0.976447 0.454699
O O2 0.716027 0.873035 0.441298
O O3 0.739739 0.000000 0.500000
O O4 0.722050 0.027093 0.408873
O O5 0.500000 0.776605 0.467841
O O6 0.250000 0.750000 0.500000
O O7 0.298703 0.719072 0.411334
O O8 0.271366 0.871526 0.250000
O O9 0.500000 0.875033 0.195781
O O10 0.272763 0.792746 0.170176
O O11 0.274616 0.962628 0.174379
O O12 0.500000 0.302761 0.847458
O O13 0.247234 0.372405 0.837659
O O14 0.500000 0.053712 0.351967
#
# Coordination Sequence:
#
# PCOD8257248 Si02
#       5
#    16  16  16  16  16
#     4   9  16  28  48  72  99 133 174 212 248 301
#     4  10  19  32  50  75 106 140 178 218 262 315
#     4   9  18  35  58  80 105 141 182 221 264 318
#     4  10  20  35  54  79 111 142 174 219 272 322
#     4  10  19  34  56  80 104 138 183 222 258 310
#
# _framework density 18.911766
#
# number of rings (size 3 to 8) (size 9 to 14) (size 15 to 20)
#    0.000    2.400    2.000    1.200    0.000    3.200 
#    0.000    2.000    0.000    4.800    0.000    0.000 
#    0.000    0.000    0.000    0.000    0.000    0.000 
#
# Total GULP energy -495919.200725 kJ/mol
# GULP energy per Si atom -12397.980018 kJ/mol
# Density = 1.886872 g / cm^3
# Si number density = 18.911766 Si / 1000 Ang^3
#
#
#
# Elastic Constant Matrix: (Units=GPa)
#
#
# Indices 1 2 3 4 5 6 
#
# 1 31.3806 42.8229 29.4231 0.0000 0.0000 0.0000
# 2 42.8229 167.0692 63.9979 0.0000 0.0000 0.0000
# 3 29.4231 63.9979 122.5560 0.0000 0.0000 0.0000
# 4 0.0000 0.0000 0.0000 30.2939 0.0000 0.0000
# 5 0.0000 0.0000 0.0000 0.0000 14.1014 0.0000
# 6 0.0000 0.0000 0.0000 0.0000 0.0000 29.6139
#
#
#
# Elastic Compliance Matrix: (Units=1/GPa)
#
#
# Indices 1 2 3 4 5 6 
#
# 1 0.053546 -0.011001 -0.007111 0.000000 0.000000 0.000000
# 2 -0.011001 0.009742 -0.002446 0.000000 0.000000 0.000000
# 3 -0.007111 -0.002446 0.011144 0.000000 0.000000 0.000000
# 4 0.000000 0.000000 0.000000 0.033010 0.000000 0.000000
# 5 0.000000 0.000000 0.000000 0.000000 0.070915 0.000000
# 6 0.000000 0.000000 0.000000 0.000000 0.000000 0.033768
#
#
# Mechanical properties :
#
#
# Convention : Reuss Voigt Hill
#
# Bulk Modulus (GPa) = 30.01491 65.94375 47.97933
# Shear Modulus (GPa) = 18.91453 27.11931 23.01692
#
# Velocity S-wave (km/s) = 3.16594 3.79092 3.49244
# Velocity P-wave (km/s) = 5.41015 7.35570 6.45662
#
# Compressibility (1/GPa) = 0.03331677
#
# Stress axis : x y z
#
# Youngs Moduli (GPa) = 18.67542 102.64408 89.73370
#
# Poissons Ratio (x) = 1.12920 0.63806
# Poissons Ratio (y) = 0.20545 0.21951
# Poissons Ratio (z) = 0.13279 0.25110
#
# Static dielectric constant tensor:
#      x y z
#    x 2.927570 0.000000 0.000000 
#    y 0.000000 3.767100 0.000000 
#    z 0.000000 0.000000 3.693350 
# 
# 
# High freq. dielectric constant tensor:
#      x y z
#    x 1.677960 0.000000 0.000000 
#    y 0.000000 1.749440 0.000000 
#    z 0.000000 0.000000 1.740130 
# 
# From -- ./inp_files/66607.got.cif
#   From: 2010.03.12/outbox.cif.g09.slc.cpg/sg63_34_cif.got.tgz:66607.got - 2010.04.10 19:34:48.
