data_PCOD8257873
_publ_section_title
;
Structure prediction by ZEFSAII (Michael W. Deem and Ramdas Pophale) SiO2 
 PCOD8257873
Probable space group: C M C M
;
_chemical_formula_sum "Si O2"
_cell_formula_units_Z 104
_cell_length_a 16.947808
_cell_length_b 12.398839
_cell_length_c 26.709367
_cell_angle_alpha 90.000000
_cell_angle_beta 90.000000
_cell_angle_gamma 90.000000
_cell_volume 5612.523230
_symmetry_space_group_name_H-M "C M C M"
_symmetry_group_IT_number 63
_symmetry_cell_setting 'orthorhombic'
loop_
_space_group_symop_operation_xyz
x,y,z
-x,-y,1/2+z
x,-y,-z
-x,y,1/2-z
-x,-y,-z
x,y,1/2-z
-x,y,z
x,-y,1/2+z
1/2+x,1/2+y,z
1/2-x,1/2-y,1/2+z
1/2+x,1/2-y,-z
1/2-x,1/2+y,1/2-z
1/2-x,1/2-y,-z
1/2+x,1/2+y,1/2-z
1/2-x,1/2+y,z
1/2+x,1/2-y,1/2+z
loop_
_atom_site_type_symbol
_atom_site_label
_atom_site_fract_x
_atom_site_fract_y
_atom_site_fract_z
Si Si1 0.910364 0.775176 0.115826
Si Si2 0.173745 0.345369 0.359725
Si Si3 0.089748 0.541973 0.088859
Si Si4 0.826563 0.074272 0.808896
Si Si5 0.272397 0.314130 0.450910
Si Si6 0.306302 0.000000 0.500000
Si Si7 0.909888 0.854170 0.690877
O O1 0.901339 0.646451 0.124573
O O2 0.879651 0.834424 0.165200
O O3 0.863367 0.808543 0.065355
O O4 0.000000 0.808738 0.105749
O O5 0.115892 0.435055 0.382186
O O6 0.235715 0.408210 0.324192
O O7 0.218860 0.279231 0.403485
O O8 0.123662 0.257509 0.330105
O O9 0.000000 0.524915 0.072244
O O10 0.138670 0.567920 0.037975
O O11 0.836972 0.089189 0.750000
O O12 0.856701 0.956096 0.826480
O O13 0.250000 0.250000 0.500000
O O14 0.251491 0.436325 0.463364
O O15 0.907298 0.844326 0.750000
O O16 0.000000 0.870851 0.672208
#
# Coordination Sequence:
#
# PCOD8257873 Si02
#       7
#    16  16  16  16  16   8  16
#     4  10  21  37  58  84 117 151 189 236 289 345
#     4  10  22  35  59  85 113 147 193 237 284 337
#     4  10  20  35  56  84 116 149 188 237 289 341
#     4  10  22  38  60  84 112 152 194 236 287 350
#     4  10  20  35  55  78 112 146 188 232 279 330
#     4  10  19  34  57  80 108 152 196 234 275 342
#     4  10  21  39  61  84 114 150 191 238 288 342
#
# _framework density 18.529990999999999
#
# number of rings (size 3 to 8) (size 9 to 14) (size 15 to 20)
#    0.000    2.000    1.538    1.615    4.308    2.154 
#    0.000    1.923    0.000    1.846    0.000    0.000 
#    0.000    0.000    0.000    0.000    0.000    0.000 
#
# Total GULP energy -644604.718850 kJ/mol
# GULP energy per Si atom -12396.244593 kJ/mol
# Density = 1.848782 g / cm^3
# Si number density = 18.529991 Si / 1000 Ang^3
#
#
#
# Elastic Constant Matrix: (Units=GPa)
#
#
# Indices 1 2 3 4 5 6 
#
# 1 99.7861 39.3466 38.2896 0.0000 0.0000 0.0000
# 2 39.3466 89.3114 34.3644 0.0000 0.0000 0.0000
# 3 38.2896 34.3644 73.0525 0.0000 0.0000 0.0000
# 4 0.0000 0.0000 0.0000 36.7484 0.0000 0.0000
# 5 0.0000 0.0000 0.0000 0.0000 19.4812 0.0000
# 6 0.0000 0.0000 0.0000 0.0000 0.0000 32.0996
#
#
#
# Elastic Compliance Matrix: (Units=1/GPa)
#
#
# Indices 1 2 3 4 5 6 
#
# 1 0.013607 -0.003969 -0.005265 0.000000 0.000000 0.000000
# 2 -0.003969 0.014829 -0.004895 0.000000 0.000000 0.000000
# 3 -0.005265 -0.004895 0.018751 0.000000 0.000000 0.000000
# 4 0.000000 0.000000 0.000000 0.027212 0.000000 0.000000
# 5 0.000000 0.000000 0.000000 0.000000 0.051331 0.000000
# 6 0.000000 0.000000 0.000000 0.000000 0.000000 0.031153
#
#
# Mechanical properties :
#
#
# Convention : Reuss Voigt Hill
#
# Bulk Modulus (GPa) = 52.83008 54.01681 53.42345
# Shear Modulus (GPa) = 26.11641 27.67579 26.89610
#
# Velocity S-wave (km/s) = 3.75829 3.86886 3.81398
# Velocity P-wave (km/s) = 6.88516 7.01226 6.94900
#
# Compressibility (1/GPa) = 0.01892861
#
# Stress axis : x y z
#
# Youngs Moduli (GPa) = 73.49413 67.43622 53.33012
#
# Poissons Ratio (x) = 0.26763 0.28077
# Poissons Ratio (y) = 0.29168 0.26107
# Poissons Ratio (z) = 0.38693 0.33013
#
# Static dielectric constant tensor:
#      x y z
#    x 3.669930 0.000000 0.000000 
#    y 0.000000 3.552120 0.000000 
#    z 0.000000 0.000000 3.402250 
# 
# 
# High freq. dielectric constant tensor:
#      x y z
#    x 1.728110 0.000000 0.000000 
#    y 0.000000 1.722270 0.000000 
#    z 0.000000 0.000000 1.713820 
# 
# From -- ./inp_files/69947.got.cif
#   From: 2010.03.12/outbox.cif.g09.slc.cpg/sg63_35_cif.got.tgz:69947.got - 2010.04.10 19:34:48.
