data_PCOD8257010
_publ_section_title
;
Structure prediction by ZEFSAII (Michael W. Deem and Ramdas Pophale) SiO2 
 PCOD8257010
Probable space group: C M C M
;
_chemical_formula_sum "Si O2"
_cell_formula_units_Z 96
_cell_length_a 19.742279
_cell_length_b 30.274986
_cell_length_c 8.869854
_cell_angle_alpha 90.000000
_cell_angle_beta 90.000000
_cell_angle_gamma 90.000000
_cell_volume 5301.487081
_symmetry_space_group_name_H-M "C M C M"
_symmetry_group_IT_number 63
_symmetry_cell_setting 'orthorhombic'
loop_
_space_group_symop_operation_xyz
x,y,z
-x,-y,1/2+z
x,-y,-z
-x,y,1/2-z
-x,-y,-z
x,y,1/2-z
-x,y,z
x,-y,1/2+z
1/2+x,1/2+y,z
1/2-x,1/2-y,1/2+z
1/2+x,1/2-y,-z
1/2-x,1/2+y,1/2-z
1/2-x,1/2-y,-z
1/2+x,1/2+y,1/2-z
1/2-x,1/2+y,z
1/2+x,1/2-y,1/2+z
loop_
_atom_site_type_symbol
_atom_site_label
_atom_site_fract_x
_atom_site_fract_y
_atom_site_fract_z
Si Si1 0.713816 0.291600 0.572314
Si Si2 0.924612 0.334037 0.576415
Si Si3 0.573962 0.258007 0.927497
Si Si4 0.710330 0.879234 0.573918
Si Si5 0.426582 0.547713 0.426544
Si Si6 0.794035 0.048188 0.928289
O O1 0.723170 0.287068 0.750000
O O2 0.750000 0.250000 0.500000
O O3 0.634012 0.291497 0.524890
O O4 0.746874 0.337055 0.515885
O O5 0.918938 0.319974 0.750000
O O6 0.907061 0.290683 0.482795
O O7 0.869282 0.371558 0.539897
O O8 0.000000 0.352214 0.538009
O O9 0.569486 0.255478 0.750000
O O10 0.500000 0.273075 0.992548
O O11 0.723899 0.888253 0.750000
O O12 0.731193 0.921731 0.477571
O O13 0.431580 0.500000 0.500000
O O14 0.410362 0.543478 0.250000
O O15 0.500000 0.571799 0.450758
O O16 0.363364 0.571641 0.508565
O O17 0.797174 0.043962 0.750000
O O18 0.784736 0.000000 0.000000
#
# Coordination Sequence:
#
# PCOD8257010 Si02
#       6
#    16  16  16  16  16  16
#     4  10  19  31  49  73 103 137 171 211 256 303
#     4   9  17  30  50  75 102 134 171 211 256 306
#     4   9  17  29  46  70 102 138 174 211 250 298
#     4  10  20  34  51  75 106 137 173 217 262 314
#     4   9  16  28  49  75 101 130 165 206 252 302
#     4  11  22  36  55  77 103 136 174 220 267 315
#
# _framework density 18.108127
#
# number of rings (size 3 to 8) (size 9 to 14) (size 15 to 20)
#    0.000    2.333    1.667    3.000    0.000    2.333 
#    0.000    0.833    0.000    3.500    0.000    0.000 
#    0.000    0.000    0.000    0.000    0.000    0.000 
#
# Total GULP energy -594832.109951 kJ/mol
# GULP energy per Si atom -12392.335624 kJ/mol
# Density = 1.806691 g / cm^3
# Si number density = 18.108127 Si / 1000 Ang^3
#
#
#
# Elastic Constant Matrix: (Units=GPa)
#
#
# Indices 1 2 3 4 5 6 
#
# 1 146.6441 54.1191 43.7140 0.0000 0.0000 0.0000
# 2 54.1191 67.3758 25.9617 0.0000 0.0000 0.0000
# 3 43.7140 25.9617 59.8194 0.0000 0.0000 0.0000
# 4 0.0000 0.0000 0.0000 22.6580 0.0000 0.0000
# 5 0.0000 0.0000 0.0000 0.0000 25.0184 0.0000
# 6 0.0000 0.0000 0.0000 0.0000 0.0000 24.2628
#
#
#
# Elastic Compliance Matrix: (Units=1/GPa)
#
#
# Indices 1 2 3 4 5 6 
#
# 1 0.010790 -0.006759 -0.004951 0.000000 0.000000 0.000000
# 2 -0.006759 0.022056 -0.004633 0.000000 0.000000 0.000000
# 3 -0.004951 -0.004633 0.022346 0.000000 0.000000 0.000000
# 4 0.000000 0.000000 0.000000 0.044135 0.000000 0.000000
# 5 0.000000 0.000000 0.000000 0.000000 0.039971 0.000000
# 6 0.000000 0.000000 0.000000 0.000000 0.000000 0.041215
#
#
# Mechanical properties :
#
#
# Convention : Reuss Voigt Hill
#
# Bulk Modulus (GPa) = 44.43443 57.93656 51.18549
# Shear Modulus (GPa) = 22.65506 24.39080 23.52293
#
# Velocity S-wave (km/s) = 3.54092 3.67407 3.60811
# Velocity P-wave (km/s) = 6.42722 7.07549 6.75913
#
# Compressibility (1/GPa) = 0.02250507
#
# Stress axis : x y z
#
# Youngs Moduli (GPa) = 92.68265 45.33828 44.75043
#
# Poissons Ratio (x) = 0.30643 0.22157
# Poissons Ratio (y) = 0.62642 0.20735
# Poissons Ratio (z) = 0.45890 0.21007
#
# Static dielectric constant tensor:
#      x y z
#    x 4.293770 0.000000 0.000000 
#    y 0.000000 2.964340 0.000000 
#    z 0.000000 0.000000 3.724550 
# 
# 
# High freq. dielectric constant tensor:
#      x y z
#    x 1.722820 0.000000 0.000000 
#    y 0.000000 1.653370 0.000000 
#    z 0.000000 0.000000 1.698780 
# 
# From -- ./inp_files/8657.got.cif
#   From: 2010.03.12/outbox.cif.g09.slc.cpg/sg63_5_cif.got.tgz:8657.got - 2010.04.10 19:34:48.
