data_PCOD8257126
_publ_section_title
;
Structure prediction by ZEFSAII (Michael W. Deem and Ramdas Pophale) SiO2 
 PCOD8257126
Probable space group: C M C M
;
_chemical_formula_sum "Si O2"
_cell_formula_units_Z 88
_cell_length_a 17.829699
_cell_length_b 28.528146
_cell_length_c 8.849180
_cell_angle_alpha 90.000000
_cell_angle_beta 90.000000
_cell_angle_gamma 90.000000
_cell_volume 4501.119976
_symmetry_space_group_name_H-M "C M C M"
_symmetry_group_IT_number 63
_symmetry_cell_setting 'orthorhombic'
loop_
_space_group_symop_operation_xyz
x,y,z
-x,-y,1/2+z
x,-y,-z
-x,y,1/2-z
-x,-y,-z
x,y,1/2-z
-x,y,z
x,-y,1/2+z
1/2+x,1/2+y,z
1/2-x,1/2-y,1/2+z
1/2+x,1/2-y,-z
1/2-x,1/2+y,1/2-z
1/2-x,1/2-y,-z
1/2+x,1/2+y,1/2-z
1/2-x,1/2+y,z
1/2+x,1/2-y,1/2+z
loop_
_atom_site_type_symbol
_atom_site_label
_atom_site_fract_x
_atom_site_fract_y
_atom_site_fract_z
Si Si1 0.775469 0.450005 0.928982
Si Si2 0.411952 0.698309 0.075317
Si Si3 0.000000 0.050499 0.572113
Si Si4 0.144976 0.892269 0.071647
Si Si5 0.083042 0.393715 0.570289
Si Si6 0.911197 0.708921 0.417399
O O1 0.769955 0.454173 0.750000
O O2 0.857983 0.433029 0.982903
O O3 0.757225 0.500000 0.000000
O O4 0.716633 0.412086 0.986127
O O5 0.393588 0.690173 0.250000
O O6 0.500000 0.692624 0.041091
O O7 0.366183 0.661431 0.975476
O O8 0.383030 0.749985 0.028122
O O9 0.072955 0.078380 0.516870
O O10 0.000000 0.044661 0.750000
O O11 0.000000 0.000000 0.500000
O O12 0.157184 0.895762 0.250000
O O13 0.079073 0.391292 0.750000
O O14 0.110753 0.342173 0.514478
O O15 0.000000 0.406198 0.505437
O O16 0.876131 0.716444 0.250000
O O17 0.000000 0.710366 0.403748
#
# Coordination Sequence:
#
# PCOD8257126 Si02
#       6
#    16  16   8  16  16  16
#     4  11  23  39  58  82 112 145 183 229 283 334
#     4  10  19  31  51  82 116 148 181 224 275 325
#     4  10  22  36  54  76 100 136 184 232 271 318
#     4  11  22  38  56  78 108 147 192 231 274 325
#     4   8  16  34  60  86 111 143 184 227 273 330
#     4   8  14  28  53  81 108 142 182 223 268 321
#
# _framework density 19.550688999999998
#
# number of rings (size 3 to 8) (size 9 to 14) (size 15 to 20)
#    0.000    2.364    0.909    3.273    0.000    4.000 
#    0.000    2.727    0.000    3.818    0.000    0.000 
#    0.000    0.000    0.000    0.000    0.000    0.000 
#
# Total GULP energy -545543.629700 kJ/mol
# GULP energy per Si atom -12398.718857 kJ/mol
# Density = 1.950619 g / cm^3
# Si number density = 19.550689 Si / 1000 Ang^3
#
#
#
# Elastic Constant Matrix: (Units=GPa)
#
#
# Indices 1 2 3 4 5 6 
#
# 1 80.3497 18.6179 26.7442 0.0000 0.0000 0.0000
# 2 18.6179 67.8847 23.7339 0.0000 0.0000 0.0000
# 3 26.7442 23.7339 60.1030 0.0000 0.0000 0.0000
# 4 0.0000 0.0000 0.0000 21.9522 0.0000 0.0000
# 5 0.0000 0.0000 0.0000 0.0000 19.8391 0.0000
# 6 0.0000 0.0000 0.0000 0.0000 0.0000 23.3537
#
#
#
# Elastic Compliance Matrix: (Units=1/GPa)
#
#
# Indices 1 2 3 4 5 6 
#
# 1 0.014850 -0.002045 -0.005800 0.000000 0.000000 0.000000
# 2 -0.002045 0.017372 -0.005950 0.000000 0.000000 0.000000
# 3 -0.005800 -0.005950 0.021569 0.000000 0.000000 0.000000
# 4 0.000000 0.000000 0.000000 0.045553 0.000000 0.000000
# 5 0.000000 0.000000 0.000000 0.000000 0.050405 0.000000
# 6 0.000000 0.000000 0.000000 0.000000 0.000000 0.042820
#
#
# Mechanical properties :
#
#
# Convention : Reuss Voigt Hill
#
# Bulk Modulus (GPa) = 38.16769 38.50326 38.33547
# Shear Modulus (GPa) = 21.84423 22.31176 22.07800
#
# Velocity S-wave (km/s) = 3.34625 3.38187 3.36411
# Velocity P-wave (km/s) = 5.87321 5.91491 5.89410
#
# Compressibility (1/GPa) = 0.02620017
#
# Stress axis : x y z
#
# Youngs Moduli (GPa) = 67.33980 57.56412 46.36340
#
# Poissons Ratio (x) = 0.11771 0.26893
# Poissons Ratio (y) = 0.13770 0.27587
# Poissons Ratio (z) = 0.39060 0.34251
#
# Static dielectric constant tensor:
#      x y z
#    x 3.570690 0.000000 0.000000 
#    y 0.000000 3.777160 0.000000 
#    z 0.000000 0.000000 3.396520 
# 
# 
# High freq. dielectric constant tensor:
#      x y z
#    x 1.741020 0.000000 0.000000 
#    y 0.000000 1.773680 0.000000 
#    z 0.000000 0.000000 1.744610 
# 
# From -- ./inp_files/6804.got.cif
#   From: 2010.03.12/outbox.cif.g09.slc.cpg/sg63_4_cif.got.tgz:6804.got - 2010.04.10 19:34:48.
