data_PCOD8257703
_publ_section_title
;
Structure prediction by ZEFSAII (Michael W. Deem and Ramdas Pophale) SiO2 
 PCOD8257703
Probable space group: C M C M
;
_chemical_formula_sum "Si O2"
_cell_formula_units_Z 48
_cell_length_a 9.079038
_cell_length_b 38.188994
_cell_length_c 7.521574
_cell_angle_alpha 90.000000
_cell_angle_beta 90.000000
_cell_angle_gamma 90.000000
_cell_volume 2607.875081
_symmetry_space_group_name_H-M "C M C M"
_symmetry_group_IT_number 63
_symmetry_cell_setting 'orthorhombic'
loop_
_space_group_symop_operation_xyz
x,y,z
-x,-y,1/2+z
x,-y,-z
-x,y,1/2-z
-x,-y,-z
x,y,1/2-z
-x,y,z
x,-y,1/2+z
1/2+x,1/2+y,z
1/2-x,1/2-y,1/2+z
1/2+x,1/2-y,-z
1/2-x,1/2+y,1/2-z
1/2-x,1/2-y,-z
1/2+x,1/2+y,1/2-z
1/2-x,1/2+y,z
1/2+x,1/2-y,1/2+z
loop_
_atom_site_type_symbol
_atom_site_label
_atom_site_fract_x
_atom_site_fract_y
_atom_site_fract_z
Si Si1 0.329344 0.039297 0.544170
Si Si2 0.174525 0.162421 0.250000
Si Si3 0.327969 0.714246 0.548909
Si Si4 0.824792 0.083586 0.250000
O O1 0.300139 0.047740 0.750000
O O2 0.500000 0.044062 0.493011
O O3 0.232875 0.065474 0.428242
O O4 0.278677 0.000000 0.500000
O O5 0.231511 0.183010 0.424317
O O6 0.237601 0.123191 0.250000
O O7 0.000000 0.160450 0.250000
O O8 0.292116 0.703193 0.750000
O O9 0.500000 0.720437 0.517692
O O10 0.250000 0.750000 0.500000
O O11 0.000000 0.082117 0.250000
#
# Coordination Sequence:
#
# PCOD8257703 Si02
#       4
#    16   8  16   8
#     4  10  20  38  62  83 109 151 194 231 279 339
#     4   9  20  37  53  77 116 151 176 217 282 339
#     4  10  19  33  56  81 105 141 185 225 269 322
#     4  11  23  37  57  87 120 149 184 235 286 335
#
# _framework density 18.405788999999999
#
# number of rings (size 3 to 8) (size 9 to 14) (size 15 to 20)
#    0.000    2.000    3.333    0.500    0.000    2.667 
#    0.000    6.667    0.000    0.000    0.000    0.000 
#    0.000    0.000    0.000    0.000    0.000    0.000 
#
# Total GULP energy -297643.676117 kJ/mol
# GULP energy per Si atom -12401.819838 kJ/mol
# Density = 1.836390 g / cm^3
# Si number density = 18.405789 Si / 1000 Ang^3
#
#
#
# Elastic Constant Matrix: (Units=GPa)
#
#
# Indices 1 2 3 4 5 6 
#
# 1 47.9163 50.2745 44.9414 0.0000 0.0000 0.0000
# 2 50.2745 179.3157 90.8457 0.0000 0.0000 0.0000
# 3 44.9414 90.8457 161.2804 0.0000 0.0000 0.0000
# 4 0.0000 0.0000 0.0000 31.3569 0.0000 0.0000
# 5 0.0000 0.0000 0.0000 0.0000 29.5960 0.0000
# 6 0.0000 0.0000 0.0000 0.0000 0.0000 27.0900
#
#
#
# Elastic Compliance Matrix: (Units=1/GPa)
#
#
# Indices 1 2 3 4 5 6 
#
# 1 0.032753 -0.006380 -0.005533 0.000000 0.000000 0.000000
# 2 -0.006380 0.009046 -0.003318 0.000000 0.000000 0.000000
# 3 -0.005533 -0.003318 0.009611 0.000000 0.000000 0.000000
# 4 0.000000 0.000000 0.000000 0.031891 0.000000 0.000000
# 5 0.000000 0.000000 0.000000 0.000000 0.033788 0.000000
# 6 0.000000 0.000000 0.000000 0.000000 0.000000 0.036914
#
#
# Mechanical properties :
#
#
# Convention : Reuss Voigt Hill
#
# Bulk Modulus (GPa) = 47.73504 84.51508 66.12506
# Shear Modulus (GPa) = 26.11669 31.10530 28.61100
#
# Velocity S-wave (km/s) = 3.77097 4.11539 3.94694
# Velocity P-wave (km/s) = 6.70458 8.28247 7.53494
#
# Compressibility (1/GPa) = 0.02094897
#
# Stress axis : x y z
#
# Youngs Moduli (GPa) = 30.53144 110.54196 104.04597
#
# Poissons Ratio (x) = 0.70522 0.57571
# Poissons Ratio (y) = 0.19478 0.34521
# Poissons Ratio (z) = 0.16894 0.36677
#
# Static dielectric constant tensor:
#      x y z
#    x 3.184040 0.000000 0.000000 
#    y 0.000000 3.417020 0.000000 
#    z 0.000000 0.000000 4.461470 
# 
# 
# High freq. dielectric constant tensor:
#      x y z
#    x 1.692130 0.000000 0.000000 
#    y 0.000000 1.713350 0.000000 
#    z 0.000000 0.000000 1.734260 
# 
# From -- ./inp_files/2009.got.cif
#   From: 2010.03.12/outbox.cif.g09.slc.cpg/sg63_2_cif.got.tgz:2009.got - 2010.04.10 19:34:48.
