data_PCOD8257487
_publ_section_title
;
Structure prediction by ZEFSAII (Michael W. Deem and Ramdas Pophale) SiO2 
 PCOD8257487
Probable space group: C M C M
;
_chemical_formula_sum "Si O2"
_cell_formula_units_Z 80
_cell_length_a 10.712530
_cell_length_b 30.692761
_cell_length_c 13.076907
_cell_angle_alpha 90.000000
_cell_angle_beta 90.000000
_cell_angle_gamma 90.000000
_cell_volume 4299.649399
_symmetry_space_group_name_H-M "C M C M"
_symmetry_group_IT_number 63
_symmetry_cell_setting 'orthorhombic'
loop_
_space_group_symop_operation_xyz
x,y,z
-x,-y,1/2+z
x,-y,-z
-x,y,1/2-z
-x,-y,-z
x,y,1/2-z
-x,y,z
x,-y,1/2+z
1/2+x,1/2+y,z
1/2-x,1/2-y,1/2+z
1/2+x,1/2-y,-z
1/2-x,1/2+y,1/2-z
1/2-x,1/2-y,-z
1/2+x,1/2+y,1/2-z
1/2-x,1/2+y,z
1/2+x,1/2-y,1/2+z
loop_
_atom_site_type_symbol
_atom_site_label
_atom_site_fract_x
_atom_site_fract_y
_atom_site_fract_z
Si Si1 0.361165 0.901081 0.132345
Si Si2 0.856420 0.121356 0.138296
Si Si3 0.644143 0.550231 0.521313
Si Si4 0.637098 0.252944 0.363809
Si Si5 0.288126 0.819392 0.491724
O O1 0.340207 0.888039 0.250000
O O2 0.500000 0.922603 0.118033
O O3 0.247360 0.933326 0.102658
O O4 0.363942 0.857583 0.063588
O O5 0.789008 0.121418 0.250000
O O6 0.000000 0.129041 0.156793
O O7 0.830964 0.074925 0.085098
O O8 0.815167 0.160549 0.066117
O O9 0.667851 0.500000 0.500000
O O10 0.500000 0.558409 0.559553
O O11 0.681699 0.239058 0.250000
O O12 0.500000 0.273859 0.359170
O O13 0.626900 0.210745 0.436623
O O14 0.728529 0.289845 0.404216
#
# Coordination Sequence:
#
# PCOD8257487 Si02
#       5
#    16  16  16  16  16
#     4  10  21  36  54  77 106 140 176 214 258 309
#     4   9  17  30  49  72  98 129 166 208 253 305
#     4   9  19  35  55  80 107 135 170 212 258 307
#     4  10  20  32  48  71  97 127 168 218 265 309
#     4  10  19  33  50  69  98 134 170 210 260 313
#
# _framework density 18.606168
#
# number of rings (size 3 to 8) (size 9 to 14) (size 15 to 20)
#    0.000    2.400    0.000    2.400    0.000    2.400 
#    0.000    2.000    0.000   15.000    0.000    0.000 
#    0.000    0.000    0.000    0.000    0.000    0.000 
#
# Total GULP energy -495686.529664 kJ/mol
# GULP energy per Si atom -12392.163242 kJ/mol
# Density = 1.856382 g / cm^3
# Si number density = 18.606168 Si / 1000 Ang^3
#
#
#
# Elastic Constant Matrix: (Units=GPa)
#
#
# Indices 1 2 3 4 5 6 
#
# 1 92.6126 37.2729 51.0740 0.0000 0.0000 0.0000
# 2 37.2729 83.3418 32.3438 0.0000 0.0000 0.0000
# 3 51.0740 32.3438 130.1072 0.0000 0.0000 0.0000
# 4 0.0000 0.0000 0.0000 10.9712 0.0000 0.0000
# 5 0.0000 0.0000 0.0000 0.0000 26.6581 0.0000
# 6 0.0000 0.0000 0.0000 0.0000 0.0000 17.2724
#
#
#
# Elastic Compliance Matrix: (Units=1/GPa)
#
#
# Indices 1 2 3 4 5 6 
#
# 1 0.015494 -0.005057 -0.004825 0.000000 0.000000 0.000000
# 2 -0.005057 0.014930 -0.001727 0.000000 0.000000 0.000000
# 3 -0.004825 -0.001727 0.010009 0.000000 0.000000 0.000000
# 4 0.000000 0.000000 0.000000 0.091147 0.000000 0.000000
# 5 0.000000 0.000000 0.000000 0.000000 0.037512 0.000000
# 6 0.000000 0.000000 0.000000 0.000000 0.000000 0.057896
#
#
# Mechanical properties :
#
#
# Convention : Reuss Voigt Hill
#
# Bulk Modulus (GPa) = 58.08312 60.82698 59.45505
# Shear Modulus (GPa) = 19.53553 23.33842 21.43698
#
# Velocity S-wave (km/s) = 3.24381 3.54551 3.39801
# Velocity P-wave (km/s) = 6.73161 7.03730 6.88615
#
# Compressibility (1/GPa) = 0.01721671
#
# Stress axis : x y z
#
# Youngs Moduli (GPa) = 64.54233 66.97774 99.90736
#
# Poissons Ratio (x) = 0.33869 0.48206
# Poissons Ratio (y) = 0.32637 0.17250
# Poissons Ratio (z) = 0.31142 0.11564
#
# Static dielectric constant tensor:
#      x y z
#    x 3.379050 0.000000 0.000000 
#    y 0.000000 3.291900 0.000000 
#    z 0.000000 0.000000 3.712600 
# 
# 
# High freq. dielectric constant tensor:
#      x y z
#    x 1.716500 0.000000 0.000000 
#    y 0.000000 1.711450 0.000000 
#    z 0.000000 0.000000 1.733020 
# 
# From -- ./inp_files/17812.got.cif
#   From: 2010.03.12/outbox.cif.g09.slc.cpg/sg63_9_cif.got.tgz:17812.got - 2010.04.10 19:34:48.
