data_PCOD8257264
_publ_section_title
;
Structure prediction by ZEFSAII (Michael W. Deem and Ramdas Pophale) SiO2 
 PCOD8257264
Probable space group: C M C M
;
_chemical_formula_sum "Si O2"
_cell_formula_units_Z 96
_cell_length_a 8.850670
_cell_length_b 23.573369
_cell_length_c 25.848650
_cell_angle_alpha 90.000000
_cell_angle_beta 90.000000
_cell_angle_gamma 90.000000
_cell_volume 5393.065174
_symmetry_space_group_name_H-M "C M C M"
_symmetry_group_IT_number 63
_symmetry_cell_setting 'orthorhombic'
loop_
_space_group_symop_operation_xyz
x,y,z
-x,-y,1/2+z
x,-y,-z
-x,y,1/2-z
-x,-y,-z
x,y,1/2-z
-x,y,z
x,-y,1/2+z
1/2+x,1/2+y,z
1/2-x,1/2-y,1/2+z
1/2+x,1/2-y,-z
1/2-x,1/2+y,1/2-z
1/2-x,1/2-y,-z
1/2+x,1/2+y,1/2-z
1/2-x,1/2+y,z
1/2+x,1/2-y,1/2+z
loop_
_atom_site_type_symbol
_atom_site_label
_atom_site_fract_x
_atom_site_fract_y
_atom_site_fract_z
Si Si1 0.176179 0.110110 0.570357
Si Si2 0.177903 0.410446 0.809676
Si Si3 0.171947 0.422184 0.531277
Si Si4 0.173677 0.728238 0.947616
Si Si5 0.671686 0.988965 0.117344
Si Si6 0.326145 0.659662 0.390682
O O1 0.216822 0.078619 0.517152
O O2 0.254889 0.170837 0.573924
O O3 0.230297 0.068713 0.616923
O O4 0.000000 0.120209 0.574641
O O5 0.221342 0.415912 0.750000
O O6 0.231608 0.468007 0.838578
O O7 0.267426 0.356547 0.833297
O O8 0.000000 0.401110 0.818437
O O9 0.184423 0.481842 0.560895
O O10 0.218753 0.371714 0.569005
O O11 0.000000 0.411737 0.512692
O O12 0.191274 0.773507 0.901187
O O13 0.000000 0.717292 0.961169
O O14 0.250000 0.750000 0.000000
O O15 0.500000 0.971909 0.129410
O O16 0.500000 0.640405 0.397635
#
# Coordination Sequence:
#
# PCOD8257264 Si02
#       6
#    16  16  16  16  16  16
#     4  12  23  32  47  73 106 144 181 216 258 309
#     4   9  19  37  61  84 105 134 171 214 270 328
#     4  10  19  32  51  72 102 142 178 215 259 309
#     4  11  22  35  52  74 106 146 184 219 259 311
#     4   9  19  34  51  74 103 136 174 215 262 315
#     4  10  20  33  52  80 108 136 176 222 265 310
#
# _framework density 17.800637999999999
#
# number of rings (size 3 to 8) (size 9 to 14) (size 15 to 20)
#    0.000    1.833    1.667    4.500    0.000    7.667 
#    0.000    0.000    0.000    1.000    0.000    2.333 
#    0.000    0.000    0.000    0.000    0.000    0.000 
#
# Total GULP energy -595183.090750 kJ/mol
# GULP energy per Si atom -12399.647724 kJ/mol
# Density = 1.776012 g / cm^3
# Si number density = 17.800638 Si / 1000 Ang^3
#
#
#
# Elastic Constant Matrix: (Units=GPa)
#
#
# Indices 1 2 3 4 5 6 
#
# 1 105.5399 62.1128 29.0641 0.0000 0.0000 0.0000
# 2 62.1128 125.5213 48.5018 0.0000 0.0000 0.0000
# 3 29.0641 48.5018 81.4093 0.0000 0.0000 0.0000
# 4 0.0000 0.0000 0.0000 12.2400 0.0000 0.0000
# 5 0.0000 0.0000 0.0000 0.0000 22.6131 0.0000
# 6 0.0000 0.0000 0.0000 0.0000 0.0000 29.2451
#
#
#
# Elastic Compliance Matrix: (Units=1/GPa)
#
#
# Indices 1 2 3 4 5 6 
#
# 1 0.013442 -0.006232 -0.001086 0.000000 0.000000 0.000000
# 2 -0.006232 0.013238 -0.005662 0.000000 0.000000 0.000000
# 3 -0.001086 -0.005662 0.016045 0.000000 0.000000 0.000000
# 4 0.000000 0.000000 0.000000 0.081699 0.000000 0.000000
# 5 0.000000 0.000000 0.000000 0.000000 0.044222 0.000000
# 6 0.000000 0.000000 0.000000 0.000000 0.000000 0.034194
#
#
# Mechanical properties :
#
#
# Convention : Reuss Voigt Hill
#
# Bulk Modulus (GPa) = 59.64962 65.75864 62.70413
# Shear Modulus (GPa) = 21.33206 24.33910 22.83558
#
# Velocity S-wave (km/s) = 3.46553 3.70174 3.58558
# Velocity P-wave (km/s) = 7.04243 7.43589 7.24183
#
# Compressibility (1/GPa) = 0.01676457
#
# Stress axis : x y z
#
# Youngs Moduli (GPa) = 74.39500 75.53737 62.32527
#
# Poissons Ratio (x) = 0.47074 0.06769
# Poissons Ratio (y) = 0.46362 0.35291
# Poissons Ratio (z) = 0.08080 0.42772
#
# Static dielectric constant tensor:
#      x y z
#    x 3.373940 0.000000 0.000000 
#    y 0.000000 3.409440 0.000000 
#    z 0.000000 0.000000 3.178310 
# 
# 
# High freq. dielectric constant tensor:
#      x y z
#    x 1.696560 0.000000 0.000000 
#    y 0.000000 1.691690 0.000000 
#    z 0.000000 0.000000 1.651410 
# 
# From -- ./inp_files/67237.got.cif
#   From: 2010.03.12/outbox.cif.g09.slc.cpg/sg63_34_cif.got.tgz:67237.got - 2010.04.10 19:34:48.
