data_PCOD8257089
_publ_section_title
;
Structure prediction by ZEFSAII (Michael W. Deem and Ramdas Pophale) SiO2 
 PCOD8257089
Probable space group: C M C M
;
_chemical_formula_sum "Si O2"
_cell_formula_units_Z 72
_cell_length_a 28.340907
_cell_length_b 14.080446
_cell_length_c 8.936685
_cell_angle_alpha 90.000000
_cell_angle_beta 90.000000
_cell_angle_gamma 90.000000
_cell_volume 3566.207479
_symmetry_space_group_name_H-M "C M C M"
_symmetry_group_IT_number 63
_symmetry_cell_setting 'orthorhombic'
loop_
_space_group_symop_operation_xyz
x,y,z
-x,-y,1/2+z
x,-y,-z
-x,y,1/2-z
-x,-y,-z
x,y,1/2-z
-x,y,z
x,-y,1/2+z
1/2+x,1/2+y,z
1/2-x,1/2-y,1/2+z
1/2+x,1/2-y,-z
1/2-x,1/2+y,1/2-z
1/2-x,1/2-y,-z
1/2+x,1/2+y,1/2-z
1/2-x,1/2+y,z
1/2+x,1/2-y,1/2+z
loop_
_atom_site_type_symbol
_atom_site_label
_atom_site_fract_x
_atom_site_fract_y
_atom_site_fract_z
Si Si1 0.769328 0.897486 0.572650
Si Si2 0.583559 0.208659 0.921577
Si Si3 0.000000 0.397585 0.925485
Si Si4 0.679709 0.100308 0.576363
Si Si5 0.374037 0.401761 0.575822
O O1 0.762651 0.898185 0.750000
O O2 0.724785 0.842452 0.496788
O O3 0.821863 0.863946 0.526410
O O4 0.761636 0.000000 0.500000
O O5 0.567242 0.194582 0.750000
O O6 0.634499 0.165007 0.949098
O O7 0.587663 0.320696 0.961590
O O8 0.546061 0.161106 0.029889
O O9 0.000000 0.413539 0.750000
O O10 0.000000 0.500000 0.000000
O O11 0.690369 0.084395 0.750000
O O12 0.668449 0.000000 0.500000
O O13 0.389234 0.500000 0.500000
O O14 0.372094 0.423759 0.750000
#
# Coordination Sequence:
#
# PCOD8257089 Si02
#       5
#    16  16   8  16  16
#     4   9  16  28  48  75 110 150 188 227 273 323
#     4  10  22  40  60  83 113 148 187 233 285 336
#     4  12  26  44  67  92 115 142 179 224 280 340
#     4  10  19  31  50  77 110 148 188 230 277 331
#     4   9  19  36  57  82 114 152 191 232 278 327
#
# _framework density 20.189515
#
# number of rings (size 3 to 8) (size 9 to 14) (size 15 to 20)
#    0.000    2.222    0.000    4.333    0.000    6.222 
#    0.000    0.556    0.000    0.000    0.000    0.000 
#    0.000    0.000    0.000    0.000    0.000    0.000 
#
# Total GULP energy -446151.569458 kJ/mol
# GULP energy per Si atom -12393.099152 kJ/mol
# Density = 2.014356 g / cm^3
# Si number density = 20.189515 Si / 1000 Ang^3
#
#
#
# Elastic Constant Matrix: (Units=GPa)
#
#
# Indices 1 2 3 4 5 6 
#
# 1 77.8356 52.1489 49.0632 0.0000 0.0000 0.0000
# 2 52.1489 100.1131 52.4944 0.0000 0.0000 0.0000
# 3 49.0632 52.4944 113.5470 0.0000 0.0000 0.0000
# 4 0.0000 0.0000 0.0000 22.8998 0.0000 0.0000
# 5 0.0000 0.0000 0.0000 0.0000 23.0188 0.0000
# 6 0.0000 0.0000 0.0000 0.0000 0.0000 19.4030
#
#
#
# Elastic Compliance Matrix: (Units=1/GPa)
#
#
# Indices 1 2 3 4 5 6 
#
# 1 0.022130 -0.008598 -0.005587 0.000000 0.000000 0.000000
# 2 -0.008598 0.016525 -0.003925 0.000000 0.000000 0.000000
# 3 -0.005587 -0.003925 0.013036 0.000000 0.000000 0.000000
# 4 0.000000 0.000000 0.000000 0.043669 0.000000 0.000000
# 5 0.000000 0.000000 0.000000 0.000000 0.043443 0.000000
# 6 0.000000 0.000000 0.000000 0.000000 0.000000 0.051539
#
#
# Mechanical properties :
#
#
# Convention : Reuss Voigt Hill
#
# Bulk Modulus (GPa) = 64.63702 66.54542 65.59122
# Shear Modulus (GPa) = 21.57799 22.25025 21.91412
#
# Velocity S-wave (km/s) = 3.27275 3.32334 3.29815
# Velocity P-wave (km/s) = 6.80925 6.91072 6.86017
#
# Compressibility (1/GPa) = 0.01547101
#
# Stress axis : x y z
#
# Youngs Moduli (GPa) = 45.18767 60.51345 76.71234
#
# Poissons Ratio (x) = 0.52028 0.42862
# Poissons Ratio (y) = 0.38851 0.30108
# Poissons Ratio (z) = 0.25248 0.23750
#
# Static dielectric constant tensor:
#      x y z
#    x 3.891540 0.000000 0.000000 
#    y 0.000000 3.592130 0.000000 
#    z 0.000000 0.000000 3.683700 
# 
# 
# High freq. dielectric constant tensor:
#      x y z
#    x 1.787630 0.000000 0.000000 
#    y 0.000000 1.782860 0.000000 
#    z 0.000000 0.000000 1.786440 
# 
# From -- ./inp_files/11736.got.cif
#   From: 2010.03.12/outbox.cif.g09.slc.cpg/sg63_6_cif.got.tgz:11736.got - 2010.04.10 19:34:48.
