data_PCOD8257094
_publ_section_title
;
Structure prediction by ZEFSAII (Michael W. Deem and Ramdas Pophale) SiO2 
 PCOD8257094
Probable space group: C M C M
;
_chemical_formula_sum "Si O2"
_cell_formula_units_Z 80
_cell_length_a 24.179631
_cell_length_b 5.244508
_cell_length_c 34.033903
_cell_angle_alpha 90.000000
_cell_angle_beta 90.000000
_cell_angle_gamma 90.000000
_cell_volume 4315.848368
_symmetry_space_group_name_H-M "C M C M"
_symmetry_group_IT_number 63
_symmetry_cell_setting 'orthorhombic'
loop_
_space_group_symop_operation_xyz
x,y,z
-x,-y,1/2+z
x,-y,-z
-x,y,1/2-z
-x,-y,-z
x,y,1/2-z
-x,y,z
x,-y,1/2+z
1/2+x,1/2+y,z
1/2-x,1/2-y,1/2+z
1/2+x,1/2-y,-z
1/2-x,1/2+y,1/2-z
1/2-x,1/2-y,-z
1/2+x,1/2+y,1/2-z
1/2-x,1/2+y,z
1/2+x,1/2-y,1/2+z
loop_
_atom_site_type_symbol
_atom_site_label
_atom_site_fract_x
_atom_site_fract_y
_atom_site_fract_z
Si Si1 0.226414 0.765737 0.955168
Si Si2 0.606956 0.609007 0.074579
Si Si3 0.434101 0.583692 0.341003
Si Si4 0.565118 0.082654 0.293622
Si Si5 0.562632 0.910238 0.959042
O O1 0.244011 0.504246 0.933869
O O2 0.161696 0.795174 0.947657
O O3 0.250000 0.750000 0.000000
O O4 0.605690 0.563821 0.121111
O O5 0.594094 0.338843 0.055190
O O6 0.564117 0.843567 0.069322
O O7 0.500000 0.578708 0.351610
O O8 0.417095 0.342405 0.314774
O O9 0.415746 0.837662 0.318273
O O10 0.591856 0.074562 0.250000
O O11 0.500000 0.073167 0.289279
O O12 0.500000 0.821291 0.964848
O O13 0.589591 0.000000 0.000000
#
# Coordination Sequence:
#
# PCOD8257094 Si02
#       5
#    16  16  16  16  16
#     4  10  23  39  58  79  98 133 187 241 293 335
#     4  12  23  37  59  77 110 144 185 238 284 325
#     4  10  19  31  50  78 111 145 178 214 265 322
#     4   9  17  30  49  75 111 150 180 206 245 313
#     4  11  24  37  53  78 108 145 185 221 270 337
#
# _framework density 18.536332000000002
#
# number of rings (size 3 to 8) (size 9 to 14) (size 15 to 20)
#    0.000    1.600    0.000    5.400    8.400    5.600 
#    0.000    0.000    0.000    0.000    0.000    0.000 
#    0.000   16.000    0.000    0.000    0.000    0.000 
#
# Total GULP energy -495594.022810 kJ/mol
# GULP energy per Si atom -12389.850570 kJ/mol
# Density = 1.849414 g / cm^3
# Si number density = 18.536332 Si / 1000 Ang^3
#
#
#
# Elastic Constant Matrix: (Units=GPa)
#
#
# Indices 1 2 3 4 5 6 
#
# 1 41.3745 28.7715 54.4652 0.0000 0.0000 0.0000
# 2 28.7715 176.6160 45.7009 0.0000 0.0000 0.0000
# 3 54.4652 45.7009 105.4854 0.0000 0.0000 0.0000
# 4 0.0000 0.0000 0.0000 10.0898 0.0000 0.0000
# 5 0.0000 0.0000 0.0000 0.0000 19.2171 0.0000
# 6 0.0000 0.0000 0.0000 0.0000 0.0000 46.0891
#
#
#
# Elastic Compliance Matrix: (Units=1/GPa)
#
#
# Indices 1 2 3 4 5 6 
#
# 1 0.076442 -0.002523 -0.038377 0.000000 0.000000 0.000000
# 2 -0.002523 0.006460 -0.001496 0.000000 0.000000 0.000000
# 3 -0.038377 -0.001496 0.029943 0.000000 0.000000 0.000000
# 4 0.000000 0.000000 0.000000 0.099110 0.000000 0.000000
# 5 0.000000 0.000000 0.000000 0.000000 0.052037 0.000000
# 6 0.000000 0.000000 0.000000 0.000000 0.000000 0.021697
#
#
# Mechanical properties :
#
#
# Convention : Reuss Voigt Hill
#
# Bulk Modulus (GPa) = 35.64452 64.59459 50.11955
# Shear Modulus (GPa) = 13.16369 28.04841 20.60605
#
# Velocity S-wave (km/s) = 2.66777 3.89415 3.33777
# Velocity P-wave (km/s) = 5.36289 7.42580 6.47700
#
# Compressibility (1/GPa) = 0.02805481
#
# Stress axis : x y z
#
# Youngs Moduli (GPa) = 13.08176 154.79568 33.39656
#
# Poissons Ratio (x) = 0.39048 1.28164
# Poissons Ratio (y) = 0.03300 0.04997
# Poissons Ratio (z) = 0.50203 0.23163
#
# Static dielectric constant tensor:
#      x y z
#    x 2.992530 0.000000 0.000000 
#    y 0.000000 4.448630 0.000000 
#    z 0.000000 0.000000 3.583060 
# 
# 
# High freq. dielectric constant tensor:
#      x y z
#    x 1.666650 0.000000 0.000000 
#    y 0.000000 1.759800 0.000000 
#    z 0.000000 0.000000 1.702570 
# 
# From -- ./inp_files/74376.got.cif
#   From: 2010.03.12/outbox.cif.g09.slc.cpg/sg63_38_cif.got.tgz:74376.got - 2010.04.10 19:34:48.
