data_PCOD8257460
_publ_section_title
;
Structure prediction by ZEFSAII (Michael W. Deem and Ramdas Pophale) SiO2 
 PCOD8257460
Probable space group: C M C M
;
_chemical_formula_sum "Si O2"
_cell_formula_units_Z 96
_cell_length_a 23.494410
_cell_length_b 13.212569
_cell_length_c 18.188284
_cell_angle_alpha 90.000000
_cell_angle_beta 90.000000
_cell_angle_gamma 90.000000
_cell_volume 5646.034643
_symmetry_space_group_name_H-M "C M C M"
_symmetry_group_IT_number 63
_symmetry_cell_setting 'orthorhombic'
loop_
_space_group_symop_operation_xyz
x,y,z
-x,-y,1/2+z
x,-y,-z
-x,y,1/2-z
-x,-y,-z
x,y,1/2-z
-x,y,z
x,-y,1/2+z
1/2+x,1/2+y,z
1/2-x,1/2-y,1/2+z
1/2+x,1/2-y,-z
1/2-x,1/2+y,1/2-z
1/2-x,1/2-y,-z
1/2+x,1/2+y,1/2-z
1/2-x,1/2+y,z
1/2+x,1/2-y,1/2+z
loop_
_atom_site_type_symbol
_atom_site_label
_atom_site_fract_x
_atom_site_fract_y
_atom_site_fract_z
Si Si1 0.275488 0.043394 0.079795
Si Si2 0.564944 0.456445 0.920742
Si Si3 0.231796 0.655387 0.663675
Si Si4 0.835385 0.252884 0.915077
Si Si5 0.332255 0.320289 0.920159
Si Si6 0.934801 0.842963 0.334369
O O1 0.320337 0.130785 0.099747
O O2 0.211476 0.086320 0.082527
O O3 0.285293 0.957727 0.140791
O O4 0.289199 0.000000 0.000000
O O5 0.500000 0.417285 0.922422
O O6 0.605047 0.361785 0.901397
O O7 0.573901 0.541638 0.859389
O O8 0.582992 0.500000 0.000000
O O9 0.239190 0.661846 0.750000
O O10 0.291841 0.679068 0.625920
O O11 0.183617 0.735268 0.639338
O O12 0.898319 0.232734 0.884506
O O13 0.830575 0.232242 0.001030
O O14 0.915557 0.834652 0.250000
O O15 0.000000 0.809909 0.345139
#
# Coordination Sequence:
#
# PCOD8257460 Si02
#       6
#    16  16  16  16  16  16
#     4  11  19  34  55  76 103 142 175 212 262 312
#     4  10  19  32  55  82 106 138 177 211 254 317
#     4  11  23  35  50  79 109 135 175 222 261 307
#     4  11  20  34  57  77 103 141 178 213 259 318
#     4  11  20  33  56  78 107 142 175 215 261 311
#     4  10  21  35  52  79 111 137 170 221 268 306
#
# _framework density 17.003084000000001
#
# number of rings (size 3 to 8) (size 9 to 14) (size 15 to 20)
#    0.000    1.333    5.000    3.000    0.000    4.000 
#    0.000    0.000    0.000    1.500    0.000    0.000 
#    0.000    0.000    0.000    0.000    0.000    0.000 
#
# Total GULP energy -595425.361576 kJ/mol
# GULP energy per Si atom -12404.695033 kJ/mol
# Density = 1.696438 g / cm^3
# Si number density = 17.003084 Si / 1000 Ang^3
#
#
#
# Elastic Constant Matrix: (Units=GPa)
#
#
# Indices 1 2 3 4 5 6 
#
# 1 79.9810 32.9432 2.4217 0.0000 0.0000 0.0000
# 2 32.9432 84.1469 2.8935 0.0000 0.0000 0.0000
# 3 2.4217 2.8935 44.5340 0.0000 0.0000 0.0000
# 4 0.0000 0.0000 0.0000 26.1851 0.0000 0.0000
# 5 0.0000 0.0000 0.0000 0.0000 14.9418 0.0000
# 6 0.0000 0.0000 0.0000 0.0000 0.0000 24.0115
#
#
#
# Elastic Compliance Matrix: (Units=1/GPa)
#
#
# Indices 1 2 3 4 5 6 
#
# 1 0.014915 -0.005824 -0.000433 0.000000 0.000000 0.000000
# 2 -0.005824 0.014185 -0.000605 0.000000 0.000000 0.000000
# 3 -0.000433 -0.000605 0.022518 0.000000 0.000000 0.000000
# 4 0.000000 0.000000 0.000000 0.038190 0.000000 0.000000
# 5 0.000000 0.000000 0.000000 0.000000 0.066926 0.000000
# 6 0.000000 0.000000 0.000000 0.000000 0.000000 0.041647
#
#
# Mechanical properties :
#
#
# Convention : Reuss Voigt Hill
#
# Bulk Modulus (GPa) = 26.38950 31.68653 29.03802
# Shear Modulus (GPa) = 22.24837 24.38789 23.31813
#
# Velocity S-wave (km/s) = 3.62123 3.79135 3.70727
# Velocity P-wave (km/s) = 5.74792 6.15159 5.95317
#
# Compressibility (1/GPa) = 0.03789386
#
# Stress axis : x y z
#
# Youngs Moduli (GPa) = 67.04648 70.49707 44.40974
#
# Poissons Ratio (x) = 0.41060 0.01921
# Poissons Ratio (y) = 0.39050 0.02687
# Poissons Ratio (z) = 0.02901 0.04265
#
# Static dielectric constant tensor:
#      x y z
#    x 3.161810 0.000000 0.000000 
#    y 0.000000 3.248870 0.000000 
#    z 0.000000 0.000000 3.200010 
# 
# 
# High freq. dielectric constant tensor:
#      x y z
#    x 1.647020 0.000000 0.000000 
#    y 0.000000 1.648550 0.000000 
#    z 0.000000 0.000000 1.660890 
# 
# From -- ./inp_files/47978.got.cif
#   From: 2010.03.12/outbox.cif.g09.slc.cpg/sg63_24_cif.got.tgz:47978.got - 2010.04.10 19:34:48.
