data_PCOD8257701
_publ_section_title
;
Structure prediction by ZEFSAII (Michael W. Deem and Ramdas Pophale) SiO2 
 PCOD8257701
Probable space group: C M C M
;
_chemical_formula_sum "Si O2"
_cell_formula_units_Z 128
_cell_length_a 22.393020
_cell_length_b 11.678736
_cell_length_c 26.605494
_cell_angle_alpha 90.000000
_cell_angle_beta 90.000000
_cell_angle_gamma 90.000000
_cell_volume 6957.926493
_symmetry_space_group_name_H-M "C M C M"
_symmetry_group_IT_number 63
_symmetry_cell_setting 'orthorhombic'
loop_
_space_group_symop_operation_xyz
x,y,z
-x,-y,1/2+z
x,-y,-z
-x,y,1/2-z
-x,-y,-z
x,y,1/2-z
-x,y,z
x,-y,1/2+z
1/2+x,1/2+y,z
1/2-x,1/2-y,1/2+z
1/2+x,1/2-y,-z
1/2-x,1/2+y,1/2-z
1/2-x,1/2-y,-z
1/2+x,1/2+y,1/2-z
1/2-x,1/2+y,z
1/2+x,1/2-y,1/2+z
loop_
_atom_site_type_symbol
_atom_site_label
_atom_site_fract_x
_atom_site_fract_y
_atom_site_fract_z
Si Si1 0.069869 0.575907 0.888821
Si Si2 0.069641 0.315613 0.913115
Si Si3 0.662143 0.352007 0.375317
Si Si4 0.929707 0.752583 0.526048
Si Si5 0.848278 0.329868 0.193783
Si Si6 0.735288 0.511122 0.695385
Si Si7 0.770681 0.188371 0.125117
Si Si8 0.841410 0.945807 0.549761
O O1 0.086256 0.446997 0.903860
O O2 0.093215 0.658421 0.933617
O O3 0.099173 0.604300 0.835184
O O4 0.000000 0.591983 0.881417
O O5 0.107603 0.238143 0.873762
O O6 0.000000 0.291122 0.903335
O O7 0.088590 0.287803 0.970230
O O8 0.676514 0.418099 0.323240
O O9 0.723731 0.286601 0.389157
O O10 0.643035 0.448902 0.414360
O O11 0.901584 0.876046 0.537488
O O12 0.000000 0.767520 0.530295
O O13 0.870374 0.292543 0.250000
O O14 0.790504 0.406006 0.200827
O O15 0.828182 0.224583 0.158555
O O16 0.719194 0.458792 0.750000
O O17 0.758371 0.413815 0.657351
O O18 0.792544 0.140036 0.072053
O O19 0.812943 0.000000 0.500000
#
# Coordination Sequence:
#
# PCOD8257701 Si02
#       8
#    16  16  16  16  16  16  16  16
#     4  10  20  35  55  81 112 144 184 232 276 322
#     4  10  20  36  57  81 110 146 188 229 274 329
#     4  10  21  35  55  83 112 145 180 229 276 328
#     4  10  20  36  58  80 106 148 193 231 271 323
#     4  10  19  33  56  80 105 140 180 225 277 327
#     4   9  19  35  57  82 106 139 184 228 273 330
#     4  10  20  36  54  77 112 145 182 223 273 328
#     4  11  21  36  54  80 113 145 184 225 276 332
#
# _framework density 18.396284999999999
#
# number of rings (size 3 to 8) (size 9 to 14) (size 15 to 20)
#    0.000    2.000    2.500    1.500    0.000    3.500 
#    0.000    0.625    0.000    1.125    0.000    0.000 
#    0.000    0.000    0.000    0.000    0.000    0.000 
#
# Total GULP energy -793303.369104 kJ/mol
# GULP energy per Si atom -12395.365142 kJ/mol
# Density = 1.835441 g / cm^3
# Si number density = 18.396285 Si / 1000 Ang^3
#
#
#
# Elastic Constant Matrix: (Units=GPa)
#
#
# Indices 1 2 3 4 5 6 
#
# 1 50.6686 31.9908 35.3596 0.0000 0.0000 0.0000
# 2 31.9908 94.7981 32.6910 0.0000 0.0000 0.0000
# 3 35.3596 32.6910 89.0764 0.0000 0.0000 0.0000
# 4 0.0000 0.0000 0.0000 23.6489 0.0000 0.0000
# 5 0.0000 0.0000 0.0000 0.0000 13.8188 0.0000
# 6 0.0000 0.0000 0.0000 0.0000 0.0000 32.5459
#
#
#
# Elastic Compliance Matrix: (Units=1/GPa)
#
#
# Indices 1 2 3 4 5 6 
#
# 1 0.030992 -0.007117 -0.009691 0.000000 0.000000 0.000000
# 2 -0.007117 0.013712 -0.002207 0.000000 0.000000 0.000000
# 3 -0.009691 -0.002207 0.015883 0.000000 0.000000 0.000000
# 4 0.000000 0.000000 0.000000 0.042285 0.000000 0.000000
# 5 0.000000 0.000000 0.000000 0.000000 0.072365 0.000000
# 6 0.000000 0.000000 0.000000 0.000000 0.000000 0.030726
#
#
# Mechanical properties :
#
#
# Convention : Reuss Voigt Hill
#
# Bulk Modulus (GPa) = 44.33097 48.29179 46.31138
# Shear Modulus (GPa) = 19.87980 22.96950 21.42465
#
# Velocity S-wave (km/s) = 3.29088 3.53738 3.41635
# Velocity P-wave (km/s) = 6.21208 6.55682 6.38678
#
# Compressibility (1/GPa) = 0.02255760
#
# Stress axis : x y z
#
# Youngs Moduli (GPa) = 32.26612 72.93146 62.96001
#
# Poissons Ratio (x) = 0.51905 0.61013
# Poissons Ratio (y) = 0.22963 0.13895
# Poissons Ratio (z) = 0.31268 0.16096
#
# Static dielectric constant tensor:
#      x y z
#    x 3.160840 0.000000 0.000000 
#    y 0.000000 3.542580 0.000000 
#    z 0.000000 0.000000 3.824970 
# 
# 
# High freq. dielectric constant tensor:
#      x y z
#    x 1.691410 0.000000 0.000000 
#    y 0.000000 1.727870 0.000000 
#    z 0.000000 0.000000 1.712990 
# 
# From -- ./inp_files/70811.got.cif
#   From: 2010.03.12/outbox.cif.g09.slc.cpg/sg63_36_cif.got.tgz:70811.got - 2010.04.10 19:34:48.
