data_PCOD8257519
_publ_section_title
;
Structure prediction by ZEFSAII (Michael W. Deem and Ramdas Pophale) SiO2 
 PCOD8257519
Probable space group: C M C M
;
_chemical_formula_sum "Si O2"
_cell_formula_units_Z 72
_cell_length_a 9.877954
_cell_length_b 25.751852
_cell_length_c 14.662291
_cell_angle_alpha 90.000000
_cell_angle_beta 90.000000
_cell_angle_gamma 90.000000
_cell_volume 3729.729209
_symmetry_space_group_name_H-M "C M C M"
_symmetry_group_IT_number 63
_symmetry_cell_setting 'orthorhombic'
loop_
_space_group_symop_operation_xyz
x,y,z
-x,-y,1/2+z
x,-y,-z
-x,y,1/2-z
-x,-y,-z
x,y,1/2-z
-x,y,z
x,-y,1/2+z
1/2+x,1/2+y,z
1/2-x,1/2-y,1/2+z
1/2+x,1/2-y,-z
1/2-x,1/2+y,1/2-z
1/2-x,1/2-y,-z
1/2+x,1/2+y,1/2-z
1/2-x,1/2+y,z
1/2+x,1/2-y,1/2+z
loop_
_atom_site_type_symbol
_atom_site_label
_atom_site_fract_x
_atom_site_fract_y
_atom_site_fract_z
Si Si1 0.500000 0.800738 0.141178
Si Si2 0.500000 0.407373 0.848527
Si Si3 0.266134 0.452501 0.554870
Si Si4 0.500000 0.304707 0.958668
Si Si5 0.282545 0.838046 0.005973
Si Si6 0.000000 0.458203 0.850226
Si Si7 0.500000 0.164398 0.145362
O O1 0.500000 0.808468 0.250000
O O2 0.500000 0.739957 0.116641
O O3 0.367137 0.827119 0.097438
O O4 0.500000 0.382538 0.750000
O O5 0.634008 0.441295 0.861498
O O6 0.500000 0.360795 0.916659
O O7 0.333362 0.500000 0.500000
O O8 0.243006 0.400078 0.496081
O O9 0.129768 0.477052 0.594917
O O10 0.642503 0.304359 0.014617
O O11 0.366762 0.819833 0.914497
O O12 0.000000 0.483491 0.750000
O O13 0.000000 0.396556 0.842634
O O14 0.500000 0.188651 0.250000
#
# Coordination Sequence:
#
# PCOD8257519 Si02
#       7
#     8   8  16   8  16   8   8
#     4  11  22  38  56  78 109 145 178 212 256 315
#     4  10  20  34  53  80 103 125 165 220 269 314
#     4  10  19  33  52  73 103 139 171 206 257 309
#     4  10  20  36  60  80 102 132 172 224 275 311
#     4   9  20  36  54  79 109 140 176 219 262 311
#     4   9  16  27  45  71  98 129 170 215 249 290
#     4   8  15  29  50  75 107 137 167 215 273 312
#
# _framework density 19.304349999999999
#
# number of rings (size 3 to 8) (size 9 to 14) (size 15 to 20)
#    0.000    2.444    0.000    3.000    0.000    6.222 
#    0.000    3.889    0.000    0.000    0.000    0.000 
#    0.000    0.000    0.000    0.000    0.000    0.000 
#
# Total GULP energy -446029.933766 kJ/mol
# GULP energy per Si atom -12389.720382 kJ/mol
# Density = 1.926041 g / cm^3
# Si number density = 19.304350 Si / 1000 Ang^3
#
#
#
# Elastic Constant Matrix: (Units=GPa)
#
#
# Indices 1 2 3 4 5 6 
#
# 1 134.3308 26.1606 44.2582 0.0000 0.0000 0.0000
# 2 26.1606 51.2096 27.8021 0.0000 0.0000 0.0000
# 3 44.2582 27.8021 117.4084 0.0000 0.0000 0.0000
# 4 0.0000 0.0000 0.0000 15.5441 0.0000 0.0000
# 5 0.0000 0.0000 0.0000 0.0000 51.7243 0.0000
# 6 0.0000 0.0000 0.0000 0.0000 0.0000 -23.7250
#
#
#
# Elastic Compliance Matrix: (Units=1/GPa)
#
#
# Indices 1 2 3 4 5 6 
#
# 1 0.008918 -0.003133 -0.002620 0.000000 0.000000 0.000000
# 2 -0.003133 0.023509 -0.004386 0.000000 0.000000 0.000000
# 3 -0.002620 -0.004386 0.010543 0.000000 0.000000 0.000000
# 4 0.000000 0.000000 0.000000 0.064333 0.000000 0.000000
# 5 0.000000 0.000000 0.000000 0.000000 0.019333 0.000000
# 6 0.000000 0.000000 0.000000 0.000000 0.000000 -0.042150
#
#
# Mechanical properties :
#
#
# Convention : Reuss Voigt Hill
#
# Bulk Modulus (GPa) = 44.06701 55.48782 49.77742
# Shear Modulus (GPa) = 44.51222 22.35723 33.43472
#
# Velocity S-wave (km/s) = 4.80710 3.40684 4.16622
# Velocity P-wave (km/s) = 7.32721 6.65444 6.99891
#
# Compressibility (1/GPa) = 0.02269271
#
# Stress axis : x y z
#
# Youngs Moduli (GPa) = 112.13764 42.53616 94.84686
#
# Poissons Ratio (x) = 0.13328 0.24846
# Poissons Ratio (y) = 0.35137 0.41598
# Poissons Ratio (z) = 0.29375 0.18656
#
# Static dielectric constant tensor:
#      x y z
#    x 4.332570 0.000000 0.000000 
#    y 0.000000 3.325040 0.000000 
#    z 0.000000 0.000000 3.371410 
# 
# 
# High freq. dielectric constant tensor:
#      x y z
#    x 1.772010 0.000000 0.000000 
#    y 0.000000 1.733940 0.000000 
#    z 0.000000 0.000000 1.722380 
# 
# From -- ./inp_files/28008.got.cif
#   From: 2010.03.12/outbox.cif.g09.slc.cpg/sg63_15_cif.got.tgz:28008.got - 2010.04.10 19:34:48.
