data_PCOD8257726
_publ_section_title
;
Structure prediction by ZEFSAII (Michael W. Deem and Ramdas Pophale) SiO2 
 PCOD8257726
Probable space group: C M C M
;
_chemical_formula_sum "Si O2"
_cell_formula_units_Z 80
_cell_length_a 24.893289
_cell_length_b 9.443060
_cell_length_c 17.737816
_cell_angle_alpha 90.000000
_cell_angle_beta 90.000000
_cell_angle_gamma 90.000000
_cell_volume 4169.607505
_symmetry_space_group_name_H-M "C M C M"
_symmetry_group_IT_number 63
_symmetry_cell_setting 'orthorhombic'
loop_
_space_group_symop_operation_xyz
x,y,z
-x,-y,1/2+z
x,-y,-z
-x,y,1/2-z
-x,-y,-z
x,y,1/2-z
-x,y,z
x,-y,1/2+z
1/2+x,1/2+y,z
1/2-x,1/2-y,1/2+z
1/2+x,1/2-y,-z
1/2-x,1/2+y,1/2-z
1/2-x,1/2-y,-z
1/2+x,1/2+y,1/2-z
1/2-x,1/2+y,z
1/2+x,1/2-y,1/2+z
loop_
_atom_site_type_symbol
_atom_site_label
_atom_site_fract_x
_atom_site_fract_y
_atom_site_fract_z
Si Si1 0.438567 0.402177 0.602889
Si Si2 0.803896 0.333322 0.016382
Si Si3 0.635194 0.817029 0.334635
Si Si4 0.407035 0.699572 0.552284
Si Si5 0.059353 0.428229 0.665387
O O1 0.500000 0.432306 0.628150
O O2 0.405957 0.315231 0.665578
O O3 0.404596 0.545364 0.590473
O O4 0.439523 0.310665 0.525890
O O5 0.817464 0.303700 0.104389
O O6 0.797352 0.500000 0.000000
O O7 0.750000 0.250000 0.000000
O O8 0.848213 0.263935 0.961869
O O9 0.659256 0.829089 0.250000
O O10 0.602296 0.955561 0.358749
O O11 0.439426 0.798482 0.608559
O O12 0.071416 0.373174 0.750000
O O13 0.000000 0.496999 0.661524
#
# Coordination Sequence:
#
# PCOD8257726 Si02
#       5
#    16  16  16  16  16
#     4  10  20  33  57  87 124 166 199 236 285 352
#     4  11  24  42  67  89 112 153 204 258 310 358
#     4  10  22  40  59  89 126 155 194 246 298 357
#     4  10  20  37  56  85 121 154 204 252 289 351
#     4  10  19  33  56  85 121 160 194 237 294 357
#
# _framework density 19.186458999999999
#
# number of rings (size 3 to 8) (size 9 to 14) (size 15 to 20)
#    0.000    1.800    2.000    3.000    5.600    2.000 
#    0.000    5.000    0.000    0.000    0.000    0.000 
#    0.000    0.000    0.000    0.000    0.000    0.000 
#
# Total GULP energy -495941.812960 kJ/mol
# GULP energy per Si atom -12398.545324 kJ/mol
# Density = 1.914279 g / cm^3
# Si number density = 19.186459 Si / 1000 Ang^3
#
#
#
# Elastic Constant Matrix: (Units=GPa)
#
#
# Indices 1 2 3 4 5 6 
#
# 1 117.6202 50.7665 40.7848 0.0000 0.0000 0.0000
# 2 50.7665 112.6283 43.4220 0.0000 0.0000 0.0000
# 3 40.7848 43.4220 90.8253 0.0000 0.0000 0.0000
# 4 0.0000 0.0000 0.0000 26.5099 0.0000 0.0000
# 5 0.0000 0.0000 0.0000 0.0000 20.8724 0.0000
# 6 0.0000 0.0000 0.0000 0.0000 0.0000 34.1206
#
#
#
# Elastic Compliance Matrix: (Units=1/GPa)
#
#
# Indices 1 2 3 4 5 6 
#
# 1 0.011279 -0.003839 -0.003229 0.000000 0.000000 0.000000
# 2 -0.003839 0.012192 -0.004105 0.000000 0.000000 0.000000
# 3 -0.003229 -0.004105 0.014423 0.000000 0.000000 0.000000
# 4 0.000000 0.000000 0.000000 0.037722 0.000000 0.000000
# 5 0.000000 0.000000 0.000000 0.000000 0.047910 0.000000
# 6 0.000000 0.000000 0.000000 0.000000 0.000000 0.029308
#
#
# Mechanical properties :
#
#
# Convention : Reuss Voigt Hill
#
# Bulk Modulus (GPa) = 64.32087 65.66894 64.99491
# Shear Modulus (GPa) = 27.72220 28.70728 28.21474
#
# Velocity S-wave (km/s) = 3.80529 3.87230 3.83894
# Velocity P-wave (km/s) = 7.27350 7.36845 7.32113
#
# Compressibility (1/GPa) = 0.01554705
#
# Stress axis : x y z
#
# Youngs Moduli (GPa) = 88.66379 82.02378 69.33495
#
# Poissons Ratio (x) = 0.31487 0.22391
# Poissons Ratio (y) = 0.34035 0.28461
# Poissons Ratio (z) = 0.28633 0.33669
#
# Static dielectric constant tensor:
#      x y z
#    x 3.325020 0.000000 0.000000 
#    y 0.000000 3.595870 0.000000 
#    z 0.000000 0.000000 3.503370 
# 
# 
# High freq. dielectric constant tensor:
#      x y z
#    x 1.727660 0.000000 0.000000 
#    y 0.000000 1.755080 0.000000 
#    z 0.000000 0.000000 1.744390 
# 
# From -- ./inp_files/48760.got.cif
#   From: 2010.03.12/outbox.cif.g09.slc.cpg/sg63_25_cif.got.tgz:48760.got - 2010.04.10 19:34:48.
