data_PCOD8257048
_publ_section_title
;
Structure prediction by ZEFSAII (Michael W. Deem and Ramdas Pophale) SiO2 
 PCOD8257048
Probable space group: C M C M
;
_chemical_formula_sum "Si O2"
_cell_formula_units_Z 112
_cell_length_a 14.128748
_cell_length_b 28.492229
_cell_length_c 14.949024
_cell_angle_alpha 90.000000
_cell_angle_beta 90.000000
_cell_angle_gamma 90.000000
_cell_volume 6017.871978
_symmetry_space_group_name_H-M "C M C M"
_symmetry_group_IT_number 63
_symmetry_cell_setting 'orthorhombic'
loop_
_space_group_symop_operation_xyz
x,y,z
-x,-y,1/2+z
x,-y,-z
-x,y,1/2-z
-x,-y,-z
x,y,1/2-z
-x,y,z
x,-y,1/2+z
1/2+x,1/2+y,z
1/2-x,1/2-y,1/2+z
1/2+x,1/2-y,-z
1/2-x,1/2+y,1/2-z
1/2-x,1/2-y,-z
1/2+x,1/2+y,1/2-z
1/2-x,1/2+y,z
1/2+x,1/2-y,1/2+z
loop_
_atom_site_type_symbol
_atom_site_label
_atom_site_fract_x
_atom_site_fract_y
_atom_site_fract_z
Si Si1 0.388433 0.691711 0.351650
Si Si2 0.897806 0.474073 0.150160
Si Si3 0.789422 0.985810 0.899799
Si Si4 0.111746 0.296208 0.347760
Si Si5 0.391401 0.882739 0.032823
Si Si6 0.610748 0.576741 0.648520
Si Si7 0.697953 0.610638 0.034964
O O1 0.354826 0.680559 0.250000
O O2 0.500000 0.686298 0.357747
O O3 0.355934 0.744292 0.379370
O O4 0.344023 0.657442 0.424319
O O5 0.903252 0.454694 0.250000
O O6 0.815107 0.512642 0.144147
O O7 0.877029 0.428256 0.092952
O O8 0.000000 0.496668 0.122514
O O9 0.833582 0.933350 0.901988
O O10 0.861223 0.021585 0.852237
O O11 0.769866 0.000000 0.000000
O O12 0.156023 0.306762 0.250000
O O13 0.143321 0.336160 0.415792
O O14 0.000000 0.296714 0.338704
O O15 0.500000 0.878449 0.997422
O O16 0.312683 0.887326 0.955715
O O17 0.633495 0.595559 0.750000
O O18 0.500000 0.581167 0.628011
O O19 0.665905 0.604747 0.569716
#
# Coordination Sequence:
#
# PCOD8257048 Si02
#       7
#    16  16  16  16  16  16  16
#     4   9  19  36  56  78 105 136 176 226 271 312
#     4  10  19  31  50  74 100 132 171 212 256 308
#     4  10  20  33  46  69  98 136 173 212 250 302
#     4   8  15  30  52  78 106 135 172 222 271 313
#     4  10  19  31  51  78 107 138 171 212 269 319
#     4  10  21  36  53  74 104 138 173 219 269 316
#     4  11  22  34  53  80 104 141 178 218 261 319
#
# _framework density 18.611229000000002
#
# number of rings (size 3 to 8) (size 9 to 14) (size 15 to 20)
#    0.000    2.286    2.857    2.143    0.000    8.000 
#    0.000    1.429    0.000    0.429    0.000    0.000 
#    0.000    1.143    0.000    0.000    0.000    0.000 
#
# Total GULP energy -693745.734208 kJ/mol
# GULP energy per Si atom -12388.316682 kJ/mol
# Density = 1.856887 g / cm^3
# Si number density = 18.611229 Si / 1000 Ang^3
#
#
#
# Elastic Constant Matrix: (Units=GPa)
#
#
# Indices 1 2 3 4 5 6 
#
# 1 72.9264 11.0993 21.2491 0.0000 0.0000 0.0000
# 2 11.0993 67.6862 21.3250 0.0000 0.0000 0.0000
# 3 21.2491 21.3250 57.6526 0.0000 0.0000 0.0000
# 4 0.0000 0.0000 0.0000 19.6827 0.0000 0.0000
# 5 0.0000 0.0000 0.0000 0.0000 20.5047 0.0000
# 6 0.0000 0.0000 0.0000 0.0000 0.0000 21.8918
#
#
#
# Elastic Compliance Matrix: (Units=1/GPa)
#
#
# Indices 1 2 3 4 5 6 
#
# 1 0.015404 -0.000834 -0.005369 0.000000 0.000000 0.000000
# 2 -0.000834 0.016768 -0.005895 0.000000 0.000000 0.000000
# 3 -0.005369 -0.005895 0.021504 0.000000 0.000000 0.000000
# 4 0.000000 0.000000 0.000000 0.050806 0.000000 0.000000
# 5 0.000000 0.000000 0.000000 0.000000 0.048769 0.000000
# 6 0.000000 0.000000 0.000000 0.000000 0.000000 0.045679
#
#
# Mechanical properties :
#
#
# Convention : Reuss Voigt Hill
#
# Bulk Modulus (GPa) = 33.92087 33.95689 33.93888
# Shear Modulus (GPa) = 21.46352 22.05531 21.75942
#
# Velocity S-wave (km/s) = 3.39965 3.44620 3.42300
# Velocity P-wave (km/s) = 5.80308 5.84123 5.82219
#
# Compressibility (1/GPa) = 0.02948038
#
# Stress axis : x y z
#
# Youngs Moduli (GPa) = 64.91911 59.63718 46.50211
#
# Poissons Ratio (x) = 0.04977 0.24966
# Poissons Ratio (y) = 0.05417 0.27412
# Poissons Ratio (z) = 0.34853 0.35154
#
# Static dielectric constant tensor:
#      x y z
#    x 3.445670 0.000000 0.000000 
#    y 0.000000 3.769480 0.000000 
#    z 0.000000 0.000000 3.590390 
# 
# 
# High freq. dielectric constant tensor:
#      x y z
#    x 1.715670 0.000000 0.000000 
#    y 0.000000 1.711050 0.000000 
#    z 0.000000 0.000000 1.705270 
# 
# From -- ./inp_files/32753.got.cif
#   From: 2010.03.12/outbox.cif.g09.slc.cpg/sg63_17_cif.got.tgz:32753.got - 2010.04.10 19:34:48.
