data_PCOD8257666
_publ_section_title
;
Structure prediction by ZEFSAII (Michael W. Deem and Ramdas Pophale) SiO2 
 PCOD8257666
Probable space group: C M C M
;
_chemical_formula_sum "Si O2"
_cell_formula_units_Z 48
_cell_length_a 7.552404
_cell_length_b 38.301601
_cell_length_c 8.782929
_cell_angle_alpha 90.000000
_cell_angle_beta 90.000000
_cell_angle_gamma 90.000000
_cell_volume 2540.630535
_symmetry_space_group_name_H-M "C M C M"
_symmetry_group_IT_number 63
_symmetry_cell_setting 'orthorhombic'
loop_
_space_group_symop_operation_xyz
x,y,z
-x,-y,1/2+z
x,-y,-z
-x,y,1/2-z
-x,-y,-z
x,y,1/2-z
-x,y,z
x,-y,1/2+z
1/2+x,1/2+y,z
1/2-x,1/2-y,1/2+z
1/2+x,1/2-y,-z
1/2-x,1/2+y,1/2-z
1/2-x,1/2-y,-z
1/2+x,1/2+y,1/2-z
1/2-x,1/2+y,z
1/2+x,1/2-y,1/2+z
loop_
_atom_site_type_symbol
_atom_site_label
_atom_site_fract_x
_atom_site_fract_y
_atom_site_fract_z
Si Si1 0.204396 0.536939 0.071783
Si Si2 0.301191 0.786584 0.429146
Si Si3 0.500000 0.662660 0.569262
Si Si4 0.500000 0.583790 0.931221
O O1 0.245284 0.535242 0.250000
O O2 0.000000 0.546042 0.038426
O O3 0.256935 0.500000 0.000000
O O4 0.322436 0.566361 0.994191
O O5 0.279275 0.782448 0.250000
O O6 0.500000 0.797081 0.475492
O O7 0.250000 0.750000 0.500000
O O8 0.173404 0.817037 0.491731
O O9 0.500000 0.661603 0.750000
O O10 0.500000 0.623378 0.506571
O O11 0.500000 0.581601 0.750000
#
# Coordination Sequence:
#
# PCOD8257666 Si02
#       4
#    16  16   8   8
#     4  10  21  38  60  85 114 149 189 233 278 330
#     4  10  19  33  55  79 103 135 176 223 272 322
#     4   9  20  36  52  77 111 144 182 224 273 331
#     4  11  22  36  57  83 114 152 190 232 280 333
#
# _framework density 18.892945999999998
#
# number of rings (size 3 to 8) (size 9 to 14) (size 15 to 20)
#    0.000    2.000    1.667    2.000    0.000    3.333 
#    0.000    6.667    0.000    0.000    0.000    0.000 
#    0.000    0.000    0.000    0.000    0.000    0.000 
#
# Total GULP energy -297645.278319 kJ/mol
# GULP energy per Si atom -12401.886597 kJ/mol
# Density = 1.884994 g / cm^3
# Si number density = 18.892946 Si / 1000 Ang^3
#
#
#
# Elastic Constant Matrix: (Units=GPa)
#
#
# Indices 1 2 3 4 5 6 
#
# 1 166.1116 105.8812 46.6522 0.0000 0.0000 0.0000
# 2 105.8812 191.1471 49.8161 0.0000 0.0000 0.0000
# 3 46.6522 49.8161 65.3868 0.0000 0.0000 0.0000
# 4 0.0000 0.0000 0.0000 28.2021 0.0000 0.0000
# 5 0.0000 0.0000 0.0000 0.0000 28.3070 0.0000
# 6 0.0000 0.0000 0.0000 0.0000 0.0000 31.2423
#
#
#
# Elastic Compliance Matrix: (Units=1/GPa)
#
#
# Indices 1 2 3 4 5 6 
#
# 1 0.009947 -0.004567 -0.003618 0.000000 0.000000 0.000000
# 2 -0.004567 0.008625 -0.003312 0.000000 0.000000 0.000000
# 3 -0.003618 -0.003312 0.020398 0.000000 0.000000 0.000000
# 4 0.000000 0.000000 0.000000 0.035458 0.000000 0.000000
# 5 0.000000 0.000000 0.000000 0.000000 0.035327 0.000000
# 6 0.000000 0.000000 0.000000 0.000000 0.000000 0.032008
#
#
# Mechanical properties :
#
#
# Convention : Reuss Voigt Hill
#
# Bulk Modulus (GPa) = 62.59371 91.92716 77.26043
# Shear Modulus (GPa) = 29.39748 32.23668 30.81708
#
# Velocity S-wave (km/s) = 3.94890 4.13520 4.04312
# Velocity P-wave (km/s) = 7.34809 8.45945 7.92328
#
# Compressibility (1/GPa) = 0.01597605
#
# Stress axis : x y z
#
# Youngs Moduli (GPa) = 100.53060 115.94603 49.02411
#
# Poissons Ratio (x) = 0.52955 0.17735
# Poissons Ratio (y) = 0.45915 0.16238
# Poissons Ratio (z) = 0.36367 0.38404
#
# Static dielectric constant tensor:
#      x y z
#    x 3.946290 0.000000 0.000000 
#    y 0.000000 3.538560 0.000000 
#    z 0.000000 0.000000 3.360490 
# 
# 
# High freq. dielectric constant tensor:
#      x y z
#    x 1.753270 0.000000 0.000000 
#    y 0.000000 1.732790 0.000000 
#    z 0.000000 0.000000 1.722620 
# 
# From -- ./inp_files/1993.got.cif
#   From: 2010.03.12/outbox.cif.g09.slc.cpg/sg63_1_cif.got.tgz:1993.got - 2010.04.10 19:34:48.
