data_PCOD8257851
_publ_section_title
;
Structure prediction by ZEFSAII (Michael W. Deem and Ramdas Pophale) SiO2 
 PCOD8257851
Probable space group: C M C M
;
_chemical_formula_sum "Si O2"
_cell_formula_units_Z 88
_cell_length_a 26.482679
_cell_length_b 18.852508
_cell_length_c 8.951107
_cell_angle_alpha 90.000000
_cell_angle_beta 90.000000
_cell_angle_gamma 90.000000
_cell_volume 4468.973700
_symmetry_space_group_name_H-M "C M C M"
_symmetry_group_IT_number 63
_symmetry_cell_setting 'orthorhombic'
loop_
_space_group_symop_operation_xyz
x,y,z
-x,-y,1/2+z
x,-y,-z
-x,y,1/2-z
-x,-y,-z
x,y,1/2-z
-x,y,z
x,-y,1/2+z
1/2+x,1/2+y,z
1/2-x,1/2-y,1/2+z
1/2+x,1/2-y,-z
1/2-x,1/2+y,1/2-z
1/2-x,1/2-y,-z
1/2+x,1/2+y,1/2-z
1/2-x,1/2+y,z
1/2+x,1/2-y,1/2+z
loop_
_atom_site_type_symbol
_atom_site_label
_atom_site_fract_x
_atom_site_fract_y
_atom_site_fract_z
Si Si1 0.303716 0.574864 0.428080
Si Si2 0.000000 0.077982 0.071432
Si Si3 0.799404 0.576169 0.572258
Si Si4 0.099094 0.837734 0.926426
Si Si5 0.941936 0.435173 0.587981
Si Si6 0.609386 0.179154 0.925539
O O1 0.316187 0.500000 0.500000
O O2 0.297500 0.569136 0.250000
O O3 0.252661 0.605344 0.501524
O O4 0.350261 0.623307 0.476749
O O5 0.950758 0.121520 0.013727
O O6 0.000000 0.069584 0.250000
O O7 0.000000 0.000000 0.000000
O O8 0.813207 0.500000 0.500000
O O9 0.794099 0.566942 0.750000
O O10 0.839996 0.636502 0.529194
O O11 0.094787 0.834044 0.750000
O O12 0.105653 0.758375 0.991965
O O13 0.915153 0.500000 0.500000
O O14 0.915444 0.429069 0.750000
O O15 0.937299 0.362638 0.496818
O O16 0.000000 0.453257 0.610363
O O17 0.602450 0.180667 0.750000
#
# Coordination Sequence:
#
# PCOD8257851 Si02
#       6
#    16   8  16  16  16  16
#     4  10  19  34  56  80 108 141 184 228 273 329
#     4  10  20  38  62  84 109 142 181 226 275 326
#     4  10  20  34  54  80 109 142 184 226 269 321
#     4   9  20  36  56  83 110 143 182 224 276 334
#     4  10  21  36  54  78 107 142 185 229 273 323
#     4  10  21  36  55  80 110 145 184 226 270 328
#
# _framework density 19.691322
#
# number of rings (size 3 to 8) (size 9 to 14) (size 15 to 20)
#    0.000    2.182    0.000    3.818    1.273    4.727 
#    0.000    3.636    0.000    0.000    0.000    0.000 
#    0.000    0.000    0.000    0.000    0.000    0.000 
#
# Total GULP energy -545396.805591 kJ/mol
# GULP energy per Si atom -12395.381945 kJ/mol
# Density = 1.964650 g / cm^3
# Si number density = 19.691322 Si / 1000 Ang^3
#
#
#
# Elastic Constant Matrix: (Units=GPa)
#
#
# Indices 1 2 3 4 5 6 
#
# 1 105.5836 71.4228 42.4970 0.0000 0.0000 0.0000
# 2 71.4228 161.2888 45.7130 0.0000 0.0000 0.0000
# 3 42.4970 45.7130 60.1751 0.0000 0.0000 0.0000
# 4 0.0000 0.0000 0.0000 26.6943 0.0000 0.0000
# 5 0.0000 0.0000 0.0000 0.0000 24.0858 0.0000
# 6 0.0000 0.0000 0.0000 0.0000 0.0000 20.3520
#
#
#
# Elastic Compliance Matrix: (Units=1/GPa)
#
#
# Indices 1 2 3 4 5 6 
#
# 1 0.015756 -0.004873 -0.007426 0.000000 0.000000 0.000000
# 2 -0.004873 0.009408 -0.003706 0.000000 0.000000 0.000000
# 3 -0.007426 -0.003706 0.024678 0.000000 0.000000 0.000000
# 4 0.000000 0.000000 0.000000 0.037461 0.000000 0.000000
# 5 0.000000 0.000000 0.000000 0.000000 0.041518 0.000000
# 6 0.000000 0.000000 0.000000 0.000000 0.000000 0.049135
#
#
# Mechanical properties :
#
#
# Convention : Reuss Voigt Hill
#
# Bulk Modulus (GPa) = 56.07466 71.81257 63.94361
# Shear Modulus (GPa) = 23.15787 25.38740 24.27264
#
# Velocity S-wave (km/s) = 3.43307 3.59453 3.51473
# Velocity P-wave (km/s) = 6.65231 7.33320 7.00104
#
# Compressibility (1/GPa) = 0.01783337
#
# Stress axis : x y z
#
# Youngs Moduli (GPa) = 63.46752 106.29138 40.52249
#
# Poissons Ratio (x) = 0.51791 0.30091
# Poissons Ratio (y) = 0.30925 0.15017
# Poissons Ratio (z) = 0.47129 0.39391
#
# Static dielectric constant tensor:
#      x y z
#    x 3.734480 0.000000 0.000000 
#    y 0.000000 3.972970 0.000000 
#    z 0.000000 0.000000 3.606100 
# 
# 
# High freq. dielectric constant tensor:
#      x y z
#    x 1.775420 0.000000 0.000000 
#    y 0.000000 1.766980 0.000000 
#    z 0.000000 0.000000 1.756290 
# 
# From -- ./inp_files/14140.got.cif
#   From: 2010.03.12/outbox.cif.g09.slc.cpg/sg63_8_cif.got.tgz:14140.got - 2010.04.10 19:34:48.
