data_PCOD8257898
_publ_section_title
;
Structure prediction by ZEFSAII (Michael W. Deem and Ramdas Pophale) SiO2 
 PCOD8257898
Probable space group: C M C M
;
_chemical_formula_sum "Si O2"
_cell_formula_units_Z 64
_cell_length_a 20.345138
_cell_length_b 9.755777
_cell_length_c 17.725440
_cell_angle_alpha 90.000000
_cell_angle_beta 90.000000
_cell_angle_gamma 90.000000
_cell_volume 3518.191938
_symmetry_space_group_name_H-M "C M C M"
_symmetry_group_IT_number 63
_symmetry_cell_setting 'orthorhombic'
loop_
_space_group_symop_operation_xyz
x,y,z
-x,-y,1/2+z
x,-y,-z
-x,y,1/2-z
-x,-y,-z
x,y,1/2-z
-x,y,z
x,-y,1/2+z
1/2+x,1/2+y,z
1/2-x,1/2-y,1/2+z
1/2+x,1/2-y,-z
1/2-x,1/2+y,1/2-z
1/2-x,1/2-y,-z
1/2+x,1/2+y,1/2-z
1/2-x,1/2+y,z
1/2+x,1/2-y,1/2+z
loop_
_atom_site_type_symbol
_atom_site_label
_atom_site_fract_x
_atom_site_fract_y
_atom_site_fract_z
Si Si1 0.000000 0.883383 0.339339
Si Si2 0.305955 0.146916 0.977657
Si Si3 0.117513 0.385527 0.162124
Si Si4 0.072292 0.342327 0.913940
Si Si5 0.000000 0.809550 0.838528
O O1 0.934765 0.801250 0.367887
O O2 0.000000 0.887773 0.250000
O O3 0.000000 0.037283 0.374214
O O4 0.318359 0.151040 0.887661
O O5 0.250000 0.250000 0.000000
O O6 0.375211 0.174290 0.019567
O O7 0.277655 0.000000 0.000000
O O8 0.135972 0.375452 0.250000
O O9 0.092845 0.538666 0.144226
O O10 0.063820 0.274343 0.136794
O O11 0.000000 0.377810 0.948967
O O12 0.000000 0.825678 0.750000
#
# Coordination Sequence:
#
# PCOD8257898 Si02
#       5
#     8  16  16  16   8
#     4   9  17  30  49  82 115 137 174 228 284 329
#     4  10  23  40  57  78 113 151 190 231 279 335
#     4  10  19  34  58  82 109 144 185 228 278 337
#     4   9  19  34  58  83 108 142 187 229 280 333
#     4   9  17  28  49  84 116 137 164 226 284 325
#
# _framework density 18.191161999999998
#
# number of rings (size 3 to 8) (size 9 to 14) (size 15 to 20)
#    0.750    1.750    1.250    0.750    1.750    3.500 
#    0.000    7.500    0.000    0.000    0.000    0.000 
#    0.000    0.000    0.000    0.000    0.000    0.000 
#
# Total GULP energy -396522.865710 kJ/mol
# GULP energy per Si atom -12391.339553 kJ/mol
# Density = 1.814976 g / cm^3
# Si number density = 18.191162 Si / 1000 Ang^3
#
#
#
# Elastic Constant Matrix: (Units=GPa)
#
#
# Indices 1 2 3 4 5 6 
#
# 1 107.4531 52.0822 58.1866 0.0000 0.0000 0.0000
# 2 52.0822 140.8716 56.1825 0.0000 0.0000 0.0000
# 3 58.1866 56.1825 109.0969 0.0000 0.0000 0.0000
# 4 0.0000 0.0000 0.0000 21.3700 0.0000 0.0000
# 5 0.0000 0.0000 0.0000 0.0000 15.6044 0.0000
# 6 0.0000 0.0000 0.0000 0.0000 0.0000 -220.5052
#
#
#
# Elastic Compliance Matrix: (Units=1/GPa)
#
#
# Indices 1 2 3 4 5 6 
#
# 1 0.013879 -0.002742 -0.005990 0.000000 0.000000 0.000000
# 2 -0.002742 0.009475 -0.003417 0.000000 0.000000 0.000000
# 3 -0.005990 -0.003417 0.014121 0.000000 0.000000 0.000000
# 4 0.000000 0.000000 0.000000 0.046795 0.000000 0.000000
# 5 0.000000 0.000000 0.000000 0.000000 0.064085 0.000000
# 6 0.000000 0.000000 0.000000 0.000000 0.000000 -0.004535
#
#
# Mechanical properties :
#
#
# Convention : Reuss Voigt Hill
#
# Bulk Modulus (GPa) = 75.89420 76.70268 76.29844
# Shear Modulus (GPa) = 28.98371 -23.97481 2.50445
#
# Velocity S-wave (km/s) = 3.99593 -3.63428 1.17462
# Velocity P-wave (km/s) = 7.94360 4.96444 6.62369
#
# Compressibility (1/GPa) = 0.01317624
#
# Stress axis : x y z
#
# Youngs Moduli (GPa) = 72.04936 105.53765 70.81798
#
# Poissons Ratio (x) = 0.28942 0.42422
# Poissons Ratio (y) = 0.19758 0.24198
# Poissons Ratio (z) = 0.43160 0.36062
#
# Static dielectric constant tensor:
#      x y z
#    x 3.370090 0.000000 0.000000 
#    y 0.000000 3.789880 0.000000 
#    z 0.000000 0.000000 3.321060 
# 
# 
# High freq. dielectric constant tensor:
#      x y z
#    x 1.674660 0.000000 0.000000 
#    y 0.000000 1.714460 0.000000 
#    z 0.000000 0.000000 1.704790 
# 
# From -- ./inp_files/46584.got.cif
#   From: 2010.03.12/outbox.cif.g09.slc.cpg/sg63_24_cif.got.tgz:46584.got - 2010.04.10 19:34:48.
