data_PCOD8257362
_publ_section_title
;
Structure prediction by ZEFSAII (Michael W. Deem and Ramdas Pophale) SiO2 
 PCOD8257362
Probable space group: C M C M
;
_chemical_formula_sum "Si O2"
_cell_formula_units_Z 104
_cell_length_a 17.767165
_cell_length_b 31.738538
_cell_length_c 9.456309
_cell_angle_alpha 90.000000
_cell_angle_beta 90.000000
_cell_angle_gamma 90.000000
_cell_volume 5332.448972
_symmetry_space_group_name_H-M "C M C M"
_symmetry_group_IT_number 63
_symmetry_cell_setting 'orthorhombic'
loop_
_space_group_symop_operation_xyz
x,y,z
-x,-y,1/2+z
x,-y,-z
-x,y,1/2-z
-x,-y,-z
x,y,1/2-z
-x,y,z
x,-y,1/2+z
1/2+x,1/2+y,z
1/2-x,1/2-y,1/2+z
1/2+x,1/2-y,-z
1/2-x,1/2+y,1/2-z
1/2-x,1/2-y,-z
1/2+x,1/2+y,1/2-z
1/2-x,1/2+y,z
1/2+x,1/2-y,1/2+z
loop_
_atom_site_type_symbol
_atom_site_label
_atom_site_fract_x
_atom_site_fract_y
_atom_site_fract_z
Si Si1 0.765043 0.538428 0.910424
Si Si2 0.500000 0.454389 0.420180
Si Si3 0.848700 0.275873 0.087878
Si Si4 0.585020 0.079859 0.589076
Si Si5 0.141947 0.897944 0.084149
Si Si6 0.319585 0.304849 0.086639
Si Si7 0.413726 0.156121 0.404444
O O1 0.743969 0.528168 0.750000
O O2 0.855300 0.542298 0.930077
O O3 0.720123 0.579854 0.959961
O O4 0.733986 0.500000 0.000000
O O5 0.500000 0.500000 0.500000
O O6 0.500000 0.462216 0.250000
O O7 0.428403 0.426057 0.470546
O O8 0.874374 0.271692 0.250000
O O9 0.770475 0.301201 0.075635
O O10 0.851865 0.229886 0.018943
O O11 0.907843 0.302211 0.997606
O O12 0.586963 0.096794 0.750000
O O13 0.500000 0.064747 0.550147
O O14 0.618026 0.116377 0.489959
O O15 0.134012 0.893949 0.250000
O O16 0.148601 0.849700 0.028371
O O17 0.344132 0.296702 0.250000
O O18 0.373524 0.160522 0.250000
O O19 0.500000 0.146845 0.378415
#
# Coordination Sequence:
#
# PCOD8257362 Si02
#       7
#    16   8  16  16  16  16  16
#     4  10  20  34  52  76 104 134 170 213 262 314
#     4  10  20  36  58  80 102 134 174 220 276 330
#     4  10  19  32  52  77 106 140 173 212 262 311
#     4   9  18  33  52  73 101 138 176 214 260 313
#     4   9  18  34  55  77 102 135 175 218 263 317
#     4   9  18  34  54  75 102 136 175 216 258 312
#     4  10  20  33  50  74 102 135 175 215 252 296
#
# _framework density 19.503233000000002
#
# number of rings (size 3 to 8) (size 9 to 14) (size 15 to 20)
#    0.000    2.462    0.000    2.308    0.000    4.923 
#    1.385    1.538    0.000    0.000    0.000    0.000 
#    0.000    0.000    0.000    0.000    0.000    0.000 
#
# Total GULP energy -644333.603340 kJ/mol
# GULP energy per Si atom -12391.030833 kJ/mol
# Density = 1.945884 g / cm^3
# Si number density = 19.503233 Si / 1000 Ang^3
#
#
#
# Elastic Constant Matrix: (Units=GPa)
#
#
# Indices 1 2 3 4 5 6 
#
# 1 66.6410 31.8838 17.7173 0.0000 0.0000 0.0000
# 2 31.8838 127.4770 51.4758 0.0000 0.0000 0.0000
# 3 17.7173 51.4758 94.0247 0.0000 0.0000 0.0000
# 4 0.0000 0.0000 0.0000 35.3844 0.0000 0.0000
# 5 0.0000 0.0000 0.0000 0.0000 17.7865 0.0000
# 6 0.0000 0.0000 0.0000 0.0000 0.0000 25.7636
#
#
#
# Elastic Compliance Matrix: (Units=1/GPa)
#
#
# Indices 1 2 3 4 5 6 
#
# 1 0.017139 -0.003829 -0.001133 0.000000 0.000000 0.000000
# 2 -0.003829 0.010926 -0.005260 0.000000 0.000000 0.000000
# 3 -0.001133 -0.005260 0.013729 0.000000 0.000000 0.000000
# 4 0.000000 0.000000 0.000000 0.028261 0.000000 0.000000
# 5 0.000000 0.000000 0.000000 0.000000 0.056222 0.000000
# 6 0.000000 0.000000 0.000000 0.000000 0.000000 0.038814
#
#
# Mechanical properties :
#
#
# Convention : Reuss Voigt Hill
#
# Bulk Modulus (GPa) = 46.84059 54.47740 50.65900
# Shear Modulus (GPa) = 25.95324 28.25795 27.10560
#
# Velocity S-wave (km/s) = 3.65185 3.81055 3.73205
# Velocity P-wave (km/s) = 6.46918 6.88139 6.67847
#
# Compressibility (1/GPa) = 0.02134901
#
# Stress axis : x y z
#
# Youngs Moduli (GPa) = 58.34621 91.52111 72.83881
#
# Poissons Ratio (x) = 0.35045 0.08254
# Poissons Ratio (y) = 0.22342 0.38316
# Poissons Ratio (z) = 0.06612 0.48144
#
# Static dielectric constant tensor:
#      x y z
#    x 3.512960 0.000000 0.000000 
#    y 0.000000 3.529010 0.000000 
#    z 0.000000 0.000000 3.703630 
# 
# 
# High freq. dielectric constant tensor:
#      x y z
#    x 1.747100 0.000000 0.000000 
#    y 0.000000 1.757770 0.000000 
#    z 0.000000 0.000000 1.746670 
# 
# From -- ./inp_files/9158.got.cif
#   From: 2010.03.12/outbox.cif.g09.slc.cpg/sg63_5_cif.got.tgz:9158.got - 2010.04.10 19:34:48.
