data_PCOD8257830
_publ_section_title
;
Structure prediction by ZEFSAII (Michael W. Deem and Ramdas Pophale) SiO2 
 PCOD8257830
Probable space group: C M C M
;
_chemical_formula_sum "Si O2"
_cell_formula_units_Z 80
_cell_length_a 27.481133
_cell_length_b 9.158066
_cell_length_c 16.548178
_cell_angle_alpha 90.000000
_cell_angle_beta 90.000000
_cell_angle_gamma 90.000000
_cell_volume 4164.746643
_symmetry_space_group_name_H-M "C M C M"
_symmetry_group_IT_number 63
_symmetry_cell_setting 'orthorhombic'
loop_
_space_group_symop_operation_xyz
x,y,z
-x,-y,1/2+z
x,-y,-z
-x,y,1/2-z
-x,-y,-z
x,y,1/2-z
-x,y,z
x,-y,1/2+z
1/2+x,1/2+y,z
1/2-x,1/2-y,1/2+z
1/2+x,1/2-y,-z
1/2-x,1/2+y,1/2-z
1/2-x,1/2-y,-z
1/2+x,1/2+y,1/2-z
1/2-x,1/2+y,z
1/2+x,1/2-y,1/2+z
loop_
_atom_site_type_symbol
_atom_site_label
_atom_site_fract_x
_atom_site_fract_y
_atom_site_fract_z
Si Si1 0.553514 0.153782 0.457125
Si Si2 0.357950 0.239243 0.551001
Si Si3 0.298528 0.430394 0.845059
Si Si4 0.704344 0.762694 0.607202
Si Si5 0.374905 0.963431 0.839002
O O1 0.500000 0.227055 0.447568
O O2 0.589187 0.259843 0.508757
O O3 0.577062 0.121404 0.369768
O O4 0.547692 0.000000 0.500000
O O5 0.348254 0.375051 0.611268
O O6 0.315762 0.228425 0.483874
O O7 0.357682 0.089084 0.600529
O O8 0.301136 0.397788 0.750000
O O9 0.290313 0.598741 0.861810
O O10 0.256842 0.336153 0.887938
O O11 0.668542 0.847158 0.667636
O O12 0.385551 0.027320 0.750000
#
# Coordination Sequence:
#
# PCOD8257830 Si02
#       5
#    16  16  16  16  16
#     4   8  16  32  54  80 108 138 173 216 267 321
#     4  10  21  36  56  79 107 144 183 222 269 332
#     4  12  23  36  55  79 108 141 184 234 281 327
#     4  11  23  38  53  76 108 147 183 223 276 333
#     4  10  19  34  55  81 111 141 180 227 272 319
#
# _framework density 19.208850999999999
#
# number of rings (size 3 to 8) (size 9 to 14) (size 15 to 20)
#    0.000    1.800    0.000    6.600    0.000    2.000 
#    0.000    0.000    0.000   11.400    0.000    0.000 
#    0.000    0.000    0.000    0.000    0.000    0.000 
#
# Total GULP energy -495885.406583 kJ/mol
# GULP energy per Si atom -12397.135165 kJ/mol
# Density = 1.916513 g / cm^3
# Si number density = 19.208851 Si / 1000 Ang^3
#
#
#
# Elastic Constant Matrix: (Units=GPa)
#
#
# Indices 1 2 3 4 5 6 
#
# 1 86.1340 22.7153 40.5354 0.0000 0.0000 0.0000
# 2 22.7153 72.1736 14.2598 0.0000 0.0000 0.0000
# 3 40.5354 14.2598 128.6975 0.0000 0.0000 0.0000
# 4 0.0000 0.0000 0.0000 30.8649 0.0000 0.0000
# 5 0.0000 0.0000 0.0000 0.0000 20.1723 0.0000
# 6 0.0000 0.0000 0.0000 0.0000 0.0000 20.6045
#
#
#
# Elastic Compliance Matrix: (Units=1/GPa)
#
#
# Indices 1 2 3 4 5 6 
#
# 1 0.014564 -0.003760 -0.004171 0.000000 0.000000 0.000000
# 2 -0.003760 0.015136 -0.000493 0.000000 0.000000 0.000000
# 3 -0.004171 -0.000493 0.009138 0.000000 0.000000 0.000000
# 4 0.000000 0.000000 0.000000 0.032399 0.000000 0.000000
# 5 0.000000 0.000000 0.000000 0.000000 0.049573 0.000000
# 6 0.000000 0.000000 0.000000 0.000000 0.000000 0.048533
#
#
# Mechanical properties :
#
#
# Convention : Reuss Voigt Hill
#
# Bulk Modulus (GPa) = 45.47091 49.11401 47.29246
# Shear Modulus (GPa) = 25.83698 28.29466 27.06582
#
# Velocity S-wave (km/s) = 3.67148 3.84213 3.75778
# Velocity P-wave (km/s) = 6.45726 6.73102 6.59556
#
# Compressibility (1/GPa) = 0.02199208
#
# Stress axis : x y z
#
# Youngs Moduli (GPa) = 68.66216 66.06683 109.42870
#
# Poissons Ratio (x) = 0.24840 0.45638
# Poissons Ratio (y) = 0.25815 0.05394
# Poissons Ratio (z) = 0.28636 0.03256
#
# Static dielectric constant tensor:
#      x y z
#    x 3.859230 0.000000 0.000000 
#    y 0.000000 3.354450 0.000000 
#    z 0.000000 0.000000 3.687160 
# 
# 
# High freq. dielectric constant tensor:
#      x y z
#    x 1.738020 0.000000 0.000000 
#    y 0.000000 1.727530 0.000000 
#    z 0.000000 0.000000 1.758630 
# 
# From -- ./inp_files/49408.got.cif
#   From: 2010.03.12/outbox.cif.g09.slc.cpg/sg63_25_cif.got.tgz:49408.got - 2010.04.10 19:34:48.
