data_PCOD8257649
_publ_section_title
;
Structure prediction by ZEFSAII (Michael W. Deem and Ramdas Pophale) SiO2 
 PCOD8257649
Probable space group: C M C M
;
_chemical_formula_sum "Si O2"
_cell_formula_units_Z 96
_cell_length_a 16.121523
_cell_length_b 14.650418
_cell_length_c 20.307609
_cell_angle_alpha 90.000000
_cell_angle_beta 90.000000
_cell_angle_gamma 90.000000
_cell_volume 4796.394277
_symmetry_space_group_name_H-M "C M C M"
_symmetry_group_IT_number 63
_symmetry_cell_setting 'orthorhombic'
loop_
_space_group_symop_operation_xyz
x,y,z
-x,-y,1/2+z
x,-y,-z
-x,y,1/2-z
-x,-y,-z
x,y,1/2-z
-x,y,z
x,-y,1/2+z
1/2+x,1/2+y,z
1/2-x,1/2-y,1/2+z
1/2+x,1/2-y,-z
1/2-x,1/2+y,1/2-z
1/2-x,1/2-y,-z
1/2+x,1/2+y,1/2-z
1/2-x,1/2+y,z
1/2+x,1/2-y,1/2+z
loop_
_atom_site_type_symbol
_atom_site_label
_atom_site_fract_x
_atom_site_fract_y
_atom_site_fract_z
Si Si1 0.811373 0.966706 0.821777
Si Si2 0.650578 0.910178 0.037717
Si Si3 0.169774 0.395806 0.321557
Si Si4 0.227150 0.285712 0.824713
Si Si5 0.153048 0.931445 0.054654
Si Si6 0.405563 0.232339 0.065894
O O1 0.855692 0.972465 0.750000
O O2 0.720225 0.010590 0.816937
O O3 0.865952 0.019900 0.875300
O O4 0.796783 0.861373 0.842866
O O5 0.612274 0.903433 0.112712
O O6 0.749703 0.912847 0.044017
O O7 0.623734 0.820755 0.998949
O O8 0.616984 0.000000 0.000000
O O9 0.123365 0.381070 0.250000
O O10 0.234204 0.313671 0.334282
O O11 0.196323 0.300107 0.750000
O O12 0.148663 0.297612 0.871858
O O13 0.101855 0.838969 0.050142
O O14 0.118339 0.000000 0.000000
O O15 0.500000 0.207790 0.082440
#
# Coordination Sequence:
#
# PCOD8257649 Si02
#       6
#    16  16  16  16  16  16
#     4   9  17  31  54  83 107 131 173 230 282 326
#     4  10  20  36  58  83 110 141 189 240 288 325
#     4   9  17  31  55  82 105 134 181 238 282 318
#     4  10  19  33  54  81 110 141 184 231 278 333
#     4  10  20  34  57  78 104 143 188 237 278 315
#     4  12  24  35  52  80 117 156 183 222 285 351
#
# _framework density 20.015035999999998
#
# number of rings (size 3 to 8) (size 9 to 14) (size 15 to 20)
#    0.000    2.000    3.333    3.500    2.333    1.000 
#    0.000    0.000    0.000    0.500    0.000    0.000 
#    0.000    0.000    0.000    0.000    0.000    0.000 
#
# Total GULP energy -594895.481690 kJ/mol
# GULP energy per Si atom -12393.655869 kJ/mol
# Density = 1.996948 g / cm^3
# Si number density = 20.015036 Si / 1000 Ang^3
#
#
#
# Elastic Constant Matrix: (Units=GPa)
#
#
# Indices 1 2 3 4 5 6 
#
# 1 26.8011 10.2094 29.0328 0.0000 0.0000 0.0000
# 2 10.2094 75.8893 60.0496 0.0000 0.0000 0.0000
# 3 29.0328 60.0496 200.5241 0.0000 0.0000 0.0000
# 4 0.0000 0.0000 0.0000 38.8485 0.0000 0.0000
# 5 0.0000 0.0000 0.0000 0.0000 2.5038 0.0000
# 6 0.0000 0.0000 0.0000 0.0000 0.0000 4.0063
#
#
#
# Elastic Compliance Matrix: (Units=1/GPa)
#
#
# Indices 1 2 3 4 5 6 
#
# 1 0.044330 -0.001160 -0.006071 0.000000 0.000000 0.000000
# 2 -0.001160 0.017300 -0.005013 0.000000 0.000000 0.000000
# 3 -0.006071 -0.005013 0.007367 0.000000 0.000000 0.000000
# 4 0.000000 0.000000 0.000000 0.025741 0.000000 0.000000
# 5 0.000000 0.000000 0.000000 0.000000 0.399399 0.000000
# 6 0.000000 0.000000 0.000000 0.000000 0.000000 0.249608
#
#
# Mechanical properties :
#
#
# Convention : Reuss Voigt Hill
#
# Bulk Modulus (GPa) = 22.46698 55.75534 39.11116
# Shear Modulus (GPa) = 6.38514 22.66657 14.52585
#
# Velocity S-wave (km/s) = 1.78804 3.36888 2.69689
# Velocity P-wave (km/s) = 3.93855 6.56123 5.41119
#
# Compressibility (1/GPa) = 0.04450977
#
# Stress axis : x y z
#
# Youngs Moduli (GPa) = 22.55793 57.80511 135.74020
#
# Poissons Ratio (x) = 0.06705 0.82408
# Poissons Ratio (y) = 0.02617 0.68041
# Poissons Ratio (z) = 0.13695 0.28976
#
# Static dielectric constant tensor:
#      x y z
#    x 2.834550 0.000000 0.000000 
#    y 0.000000 3.819860 0.000000 
#    z 0.000000 0.000000 4.323100 
# 
# 
# High freq. dielectric constant tensor:
#      x y z
#    x 1.692790 0.000000 0.000000 
#    y 0.000000 1.802970 0.000000 
#    z 0.000000 0.000000 1.811050 
# 
# From -- ./inp_files/54192.got.cif
#   From: 2010.03.12/outbox.cif.g09.slc.cpg/sg63_28_cif.got.tgz:54192.got - 2010.04.10 19:34:48.
