data_PCOD8257429
_publ_section_title
;
Structure prediction by ZEFSAII (Michael W. Deem and Ramdas Pophale) SiO2 
 PCOD8257429
Probable space group: C M C M
;
_chemical_formula_sum "Si O2"
_cell_formula_units_Z 112
_cell_length_a 30.206175
_cell_length_b 12.314350
_cell_length_c 14.175953
_cell_angle_alpha 90.000000
_cell_angle_beta 90.000000
_cell_angle_gamma 90.000000
_cell_volume 5273.020889
_symmetry_space_group_name_H-M "C M C M"
_symmetry_group_IT_number 63
_symmetry_cell_setting 'orthorhombic'
loop_
_space_group_symop_operation_xyz
x,y,z
-x,-y,1/2+z
x,-y,-z
-x,y,1/2-z
-x,-y,-z
x,y,1/2-z
-x,y,z
x,-y,1/2+z
1/2+x,1/2+y,z
1/2-x,1/2-y,1/2+z
1/2+x,1/2-y,-z
1/2-x,1/2+y,1/2-z
1/2-x,1/2-y,-z
1/2+x,1/2+y,1/2-z
1/2-x,1/2+y,z
1/2+x,1/2-y,1/2+z
loop_
_atom_site_type_symbol
_atom_site_label
_atom_site_fract_x
_atom_site_fract_y
_atom_site_fract_z
Si Si1 0.331631 0.269643 0.499624
Si Si2 0.194824 0.401472 0.643086
Si Si3 0.865871 0.405959 0.140782
Si Si4 0.128481 0.908084 0.352072
Si Si5 0.292947 0.430120 0.855023
Si Si6 0.950807 0.943445 0.599005
Si Si7 0.451570 0.795463 0.141006
O O1 0.302979 0.204625 0.422341
O O2 0.348254 0.192708 0.581005
O O3 0.372609 0.325639 0.441021
O O4 0.301639 0.354257 0.555489
O O5 0.185424 0.363711 0.750000
O O6 0.154883 0.479894 0.607023
O O7 0.241441 0.465561 0.636305
O O8 0.852969 0.387602 0.250000
O O9 0.918950 0.398259 0.124489
O O10 0.127446 0.847674 0.250000
O O11 0.175837 0.966133 0.364175
O O12 0.088170 0.993641 0.347071
O O13 0.300333 0.376713 0.750000
O O14 0.937277 0.816381 0.588548
O O15 0.000000 0.951306 0.647929
O O16 0.954677 0.000000 0.500000
O O17 0.451654 0.762243 0.250000
O O18 0.500000 0.834099 0.106669
#
# Coordination Sequence:
#
# PCOD8257429 Si02
#       7
#    16  16  16  16  16  16  16
#     4  12  22  36  58  82 112 150 189 229 274 332
#     4  10  23  41  58  81 112 146 186 232 281 335
#     4  10  21  37  58  83 112 145 186 237 287 332
#     4  11  23  37  54  80 116 154 187 225 277 336
#     4  10  22  39  59  84 113 144 183 230 281 336
#     4  10  19  32  53  82 114 146 184 233 286 340
#     4   9  17  31  54  82 108 138 181 231 279 327
#
# _framework density 21.240197999999999
#
# number of rings (size 3 to 8) (size 9 to 14) (size 15 to 20)
#    0.000    1.714    0.000    5.143    0.000    6.571 
#    0.000    2.857    0.000    2.571    0.000    2.000 
#    0.000    0.000    0.000    0.000    0.000    0.000 
#
# Total GULP energy -693769.338773 kJ/mol
# GULP energy per Si atom -12388.738192 kJ/mol
# Density = 2.119185 g / cm^3
# Si number density = 21.240198 Si / 1000 Ang^3
#
#
#
# Elastic Constant Matrix: (Units=GPa)
#
#
# Indices 1 2 3 4 5 6 
#
# 1 66.2613 7.0436 27.1833 0.0000 0.0000 0.0000
# 2 7.0436 44.3654 34.9183 0.0000 0.0000 0.0000
# 3 27.1833 34.9183 96.4930 0.0000 0.0000 0.0000
# 4 0.0000 0.0000 0.0000 38.0356 0.0000 0.0000
# 5 0.0000 0.0000 0.0000 0.0000 16.5005 0.0000
# 6 0.0000 0.0000 0.0000 0.0000 0.0000 30.5657
#
#
#
# Elastic Compliance Matrix: (Units=1/GPa)
#
#
# Indices 1 2 3 4 5 6 
#
# 1 0.017136 0.001509 -0.005373 0.000000 0.000000 0.000000
# 2 0.001509 0.031649 -0.011878 0.000000 0.000000 0.000000
# 3 -0.005373 -0.011878 0.016175 0.000000 0.000000 0.000000
# 4 0.000000 0.000000 0.000000 0.026291 0.000000 0.000000
# 5 0.000000 0.000000 0.000000 0.000000 0.060604 0.000000
# 6 0.000000 0.000000 0.000000 0.000000 0.000000 0.032716
#
#
# Mechanical properties :
#
#
# Convention : Reuss Voigt Hill
#
# Bulk Modulus (GPa) = 29.87295 38.37890 34.12592
# Shear Modulus (GPa) = 22.00548 26.21866 24.11207
#
# Velocity S-wave (km/s) = 3.22223 3.51720 3.37294
# Velocity P-wave (km/s) = 5.28570 5.88239 5.59201
#
# Compressibility (1/GPa) = 0.03347511
#
# Stress axis : x y z
#
# Youngs Moduli (GPa) = 58.35747 31.59623 61.82190
#
# Poissons Ratio (x) = -0.04766 0.33219
# Poissons Ratio (y) = -0.08803 0.73432
# Poissons Ratio (z) = 0.31357 0.37530
#
# Static dielectric constant tensor:
#      x y z
#    x 4.254290 0.000000 0.000000 
#    y 0.000000 3.558980 0.000000 
#    z 0.000000 0.000000 4.058910 
# 
# 
# High freq. dielectric constant tensor:
#      x y z
#    x 1.834930 0.000000 0.000000 
#    y 0.000000 1.798000 0.000000 
#    z 0.000000 0.000000 1.849560 
# 
# From -- ./inp_files/38520.got.cif
#   From: 2010.03.12/outbox.cif.g09.slc.cpg/sg63_20_cif.got.tgz:38520.got - 2010.04.10 19:34:48.
