data_PCOD8257387
_publ_section_title
;
Structure prediction by ZEFSAII (Michael W. Deem and Ramdas Pophale) SiO2 
 PCOD8257387
Probable space group: C M C M
;
_chemical_formula_sum "Si O2"
_cell_formula_units_Z 56
_cell_length_a 10.305808
_cell_length_b 22.619534
_cell_length_c 13.779289
_cell_angle_alpha 90.000000
_cell_angle_beta 90.000000
_cell_angle_gamma 90.000000
_cell_volume 3212.125533
_symmetry_space_group_name_H-M "C M C M"
_symmetry_group_IT_number 63
_symmetry_cell_setting 'orthorhombic'
loop_
_space_group_symop_operation_xyz
x,y,z
-x,-y,1/2+z
x,-y,-z
-x,y,1/2-z
-x,-y,-z
x,y,1/2-z
-x,y,z
x,-y,1/2+z
1/2+x,1/2+y,z
1/2-x,1/2-y,1/2+z
1/2+x,1/2-y,-z
1/2-x,1/2+y,1/2-z
1/2-x,1/2-y,-z
1/2+x,1/2+y,1/2-z
1/2-x,1/2+y,z
1/2+x,1/2-y,1/2+z
loop_
_atom_site_type_symbol
_atom_site_label
_atom_site_fract_x
_atom_site_fract_y
_atom_site_fract_z
Si Si1 0.000000 0.732493 0.143206
Si Si2 0.500000 0.135665 0.634302
Si Si3 0.000000 0.229869 0.437536
Si Si4 0.855887 0.433846 0.510877
Si Si5 0.240444 0.841746 0.859334
O O1 0.124914 0.691998 0.131854
O O2 0.000000 0.763813 0.250000
O O3 0.000000 0.778719 0.054588
O O4 0.500000 0.135333 0.750000
O O5 0.500000 0.201839 0.593069
O O6 0.372583 0.101039 0.592499
O O7 0.127617 0.200241 0.396198
O O8 0.801193 0.500000 0.500000
O O9 0.750594 0.400877 0.577083
O O10 0.000000 0.436524 0.560868
O O11 0.209631 0.860933 0.750000
#
# Coordination Sequence:
#
# PCOD8257387 Si02
#       5
#     8   8   8  16  16
#     4  10  20  33  57  81 108 147 185 223 272 325
#     4  10  19  32  52  81 112 139 174 229 289 321
#     4  12  22  37  53  84 123 142 178 226 281 338
#     4   9  19  36  53  80 109 139 188 231 273 310
#     4  11  21  36  57  83 112 151 185 222 275 336
#
# _framework density 17.43394
#
# number of rings (size 3 to 8) (size 9 to 14) (size 15 to 20)
#    0.857    0.857    4.286    2.143    0.000    1.143 
#    0.000    0.714    0.000    0.000    0.000    0.000 
#    0.000    0.000    0.000    0.000    0.000    0.000 
#
# Total GULP energy -346997.246273 kJ/mol
# GULP energy per Si atom -12392.758795 kJ/mol
# Density = 1.739426 g / cm^3
# Si number density = 17.433940 Si / 1000 Ang^3
#
#
#
# Elastic Constant Matrix: (Units=GPa)
#
#
# Indices 1 2 3 4 5 6 
#
# 1 79.9222 47.0124 38.9366 0.0000 0.0000 0.0000
# 2 47.0124 116.9834 61.7287 0.0000 0.0000 0.0000
# 3 38.9366 61.7287 163.2110 0.0000 0.0000 0.0000
# 4 0.0000 0.0000 0.0000 13.5946 0.0000 0.0000
# 5 0.0000 0.0000 0.0000 0.0000 20.5808 0.0000
# 6 0.0000 0.0000 0.0000 0.0000 0.0000 3.5390
#
#
#
# Elastic Compliance Matrix: (Units=1/GPa)
#
#
# Indices 1 2 3 4 5 6 
#
# 1 0.016806 -0.005795 -0.001818 0.000000 0.000000 0.000000
# 2 -0.005795 0.012678 -0.003412 0.000000 0.000000 0.000000
# 3 -0.001818 -0.003412 0.007851 0.000000 0.000000 0.000000
# 4 0.000000 0.000000 0.000000 0.073559 0.000000 0.000000
# 5 0.000000 0.000000 0.000000 0.000000 0.048589 0.000000
# 6 0.000000 0.000000 0.000000 0.000000 0.000000 0.282568
#
#
# Mechanical properties :
#
#
# Convention : Reuss Voigt Hill
#
# Bulk Modulus (GPa) = 65.42210 72.83021 69.12616
# Shear Modulus (GPa) = 10.65654 21.70547 16.18100
#
# Velocity S-wave (km/s) = 2.47503 3.53230 3.04983
# Velocity P-wave (km/s) = 6.76572 7.64865 7.22069
#
# Compressibility (1/GPa) = 0.01528535
#
# Stress axis : x y z
#
# Youngs Moduli (GPa) = 59.50099 78.87891 127.36727
#
# Poissons Ratio (x) = 0.45709 0.23152
# Poissons Ratio (y) = 0.34480 0.43463
# Poissons Ratio (z) = 0.10816 0.26917
#
# Static dielectric constant tensor:
#      x y z
#    x 3.000400 0.000000 0.000000 
#    y 0.000000 3.148220 0.000000 
#    z 0.000000 0.000000 3.537800 
# 
# 
# High freq. dielectric constant tensor:
#      x y z
#    x 1.649130 0.000000 0.000000 
#    y 0.000000 1.661250 0.000000 
#    z 0.000000 0.000000 1.679610 
# 
# From -- ./inp_files/27423.got.cif
#   From: 2010.03.12/outbox.cif.g09.slc.cpg/sg63_14_cif.got.tgz:27423.got - 2010.04.10 19:34:48.
