data_PCOD8257153
_publ_section_title
;
Structure prediction by ZEFSAII (Michael W. Deem and Ramdas Pophale) SiO2 
 PCOD8257153
Probable space group: C M C M
;
_chemical_formula_sum "Si O2"
_cell_formula_units_Z 96
_cell_length_a 28.157158
_cell_length_b 20.178932
_cell_length_c 9.083714
_cell_angle_alpha 90.000000
_cell_angle_beta 90.000000
_cell_angle_gamma 90.000000
_cell_volume 5161.197125
_symmetry_space_group_name_H-M "C M C M"
_symmetry_group_IT_number 63
_symmetry_cell_setting 'orthorhombic'
loop_
_space_group_symop_operation_xyz
x,y,z
-x,-y,1/2+z
x,-y,-z
-x,y,1/2-z
-x,-y,-z
x,y,1/2-z
-x,y,z
x,-y,1/2+z
1/2+x,1/2+y,z
1/2-x,1/2-y,1/2+z
1/2+x,1/2-y,-z
1/2-x,1/2+y,1/2-z
1/2-x,1/2-y,-z
1/2+x,1/2+y,1/2-z
1/2-x,1/2+y,z
1/2+x,1/2-y,1/2+z
loop_
_atom_site_type_symbol
_atom_site_label
_atom_site_fract_x
_atom_site_fract_y
_atom_site_fract_z
Si Si1 0.186055 0.699397 0.081285
Si Si2 0.445211 0.938921 0.587853
Si Si3 0.946490 0.823273 0.924878
Si Si4 0.092777 0.681917 0.924253
Si Si5 0.709716 0.330980 0.581861
Si Si6 0.870994 0.069781 0.421702
O O1 0.169326 0.700892 0.250000
O O2 0.234057 0.655841 0.063253
O O3 0.145819 0.666514 0.980921
O O4 0.194261 0.774376 0.030059
O O5 0.421268 0.931974 0.750000
O O6 0.500000 0.955429 0.609790
O O7 0.441572 0.871864 0.495074
O O8 0.420716 0.000000 0.500000
O O9 0.947282 0.822850 0.750000
O O10 0.924516 0.753884 0.979843
O O11 0.913041 0.882671 0.982465
O O12 0.000000 0.832399 0.987222
O O13 0.090748 0.675520 0.750000
O O14 0.698114 0.308045 0.750000
O O15 0.680238 0.397194 0.544629
O O16 0.877897 0.057329 0.250000
O O17 0.874352 0.000000 0.500000
#
# Coordination Sequence:
#
# PCOD8257153 Si02
#       6
#    16  16  16  16  16  16
#     4  10  19  31  54  82 108 135 175 226 276 328
#     4  10  21  37  56  80 111 146 185 227 273 328
#     4   9  18  33  54  78 106 143 186 228 272 327
#     4  11  20  34  56  82 113 148 185 225 275 332
#     4   9  18  35  54  76 105 140 177 222 274 332
#     4  10  20  36  55  77 108 144 185 229 278 333
#
# _framework density 18.600335999999999
#
# number of rings (size 3 to 8) (size 9 to 14) (size 15 to 20)
#    0.000    2.167    1.667    2.000    0.000    3.333 
#    0.000    0.833    0.000    4.000    0.000    0.000 
#    0.000    0.000    0.000    0.000    0.000    0.000 
#
# Total GULP energy -595143.868349 kJ/mol
# GULP energy per Si atom -12398.830591 kJ/mol
# Density = 1.855800 g / cm^3
# Si number density = 18.600336 Si / 1000 Ang^3
#
#
#
# Elastic Constant Matrix: (Units=GPa)
#
#
# Indices 1 2 3 4 5 6 
#
# 1 104.2243 53.0734 34.8671 0.0000 0.0000 0.0000
# 2 53.0734 138.7601 50.7175 0.0000 0.0000 0.0000
# 3 34.8671 50.7175 85.3954 0.0000 0.0000 0.0000
# 4 0.0000 0.0000 0.0000 32.3978 0.0000 0.0000
# 5 0.0000 0.0000 0.0000 0.0000 25.1733 0.0000
# 6 0.0000 0.0000 0.0000 0.0000 0.0000 26.5013
#
#
#
# Elastic Compliance Matrix: (Units=1/GPa)
#
#
# Indices 1 2 3 4 5 6 
#
# 1 0.012446 -0.003708 -0.002880 0.000000 0.000000 0.000000
# 2 -0.003708 0.010310 -0.004609 0.000000 0.000000 0.000000
# 3 -0.002880 -0.004609 0.015623 0.000000 0.000000 0.000000
# 4 0.000000 0.000000 0.000000 0.030866 0.000000 0.000000
# 5 0.000000 0.000000 0.000000 0.000000 0.039725 0.000000
# 6 0.000000 0.000000 0.000000 0.000000 0.000000 0.037734
#
#
# Mechanical properties :
#
#
# Convention : Reuss Voigt Hill
#
# Bulk Modulus (GPa) = 62.55501 67.29954 64.92728
# Shear Modulus (GPa) = 28.66550 29.46261 29.06406
#
# Velocity S-wave (km/s) = 3.92998 3.98425 3.95721
# Velocity P-wave (km/s) = 7.36866 7.57800 7.47406
#
# Compressibility (1/GPa) = 0.01598593
#
# Stress axis : x y z
#
# Youngs Moduli (GPa) = 80.34579 96.99770 64.00686
#
# Poissons Ratio (x) = 0.35966 0.18431
# Poissons Ratio (y) = 0.29792 0.29501
# Poissons Ratio (z) = 0.23136 0.44706
#
# Static dielectric constant tensor:
#      x y z
#    x 3.660070 0.000000 0.000000 
#    y 0.000000 3.241680 0.000000 
#    z 0.000000 0.000000 3.413680 
# 
# 
# High freq. dielectric constant tensor:
#      x y z
#    x 1.724240 0.000000 0.000000 
#    y 0.000000 1.704990 0.000000 
#    z 0.000000 0.000000 1.714210 
# 
# From -- ./inp_files/12403.got.cif
#   From: 2010.03.12/outbox.cif.g09.slc.cpg/sg63_7_cif.got.tgz:12403.got - 2010.04.10 19:34:48.
