data_PCOD8257536
_publ_section_title
;
Structure prediction by ZEFSAII (Michael W. Deem and Ramdas Pophale) SiO2 
 PCOD8257536
Probable space group: C M C M
;
_chemical_formula_sum "Si O2"
_cell_formula_units_Z 112
_cell_length_a 14.988581
_cell_length_b 27.062666
_cell_length_c 14.017576
_cell_angle_alpha 90.000000
_cell_angle_beta 90.000000
_cell_angle_gamma 90.000000
_cell_volume 5685.962830
_symmetry_space_group_name_H-M "C M C M"
_symmetry_group_IT_number 63
_symmetry_cell_setting 'orthorhombic'
loop_
_space_group_symop_operation_xyz
x,y,z
-x,-y,1/2+z
x,-y,-z
-x,y,1/2-z
-x,-y,-z
x,y,1/2-z
-x,y,z
x,-y,1/2+z
1/2+x,1/2+y,z
1/2-x,1/2-y,1/2+z
1/2+x,1/2-y,-z
1/2-x,1/2+y,1/2-z
1/2-x,1/2-y,-z
1/2+x,1/2+y,1/2-z
1/2-x,1/2+y,z
1/2+x,1/2-y,1/2+z
loop_
_atom_site_type_symbol
_atom_site_label
_atom_site_fract_x
_atom_site_fract_y
_atom_site_fract_z
Si Si1 0.352515 0.736124 0.358245
Si Si2 0.848759 0.704919 0.356713
Si Si3 0.899409 0.128843 0.144632
Si Si4 0.604112 0.557262 0.980178
Si Si5 0.765725 0.884421 0.137109
Si Si6 0.094058 0.191080 0.638154
Si Si7 0.102750 0.338436 0.043119
O O1 0.383334 0.746273 0.250000
O O2 0.247843 0.728909 0.365788
O O3 0.395591 0.684915 0.396635
O O4 0.383722 0.782790 0.418885
O O5 0.865823 0.684224 0.250000
O O6 0.911546 0.750874 0.383177
O O7 0.870323 0.661295 0.430976
O O8 0.850876 0.126830 0.250000
O O9 0.000000 0.112607 0.160327
O O10 0.859368 0.089350 0.070417
O O11 0.500000 0.569528 0.954539
O O12 0.674405 0.568686 0.895034
O O13 0.614366 0.500000 0.000000
O O14 0.754421 0.886311 0.250000
O O15 0.820900 0.837213 0.095038
O O16 0.666017 0.878993 0.094189
O O17 0.101555 0.181875 0.750000
O O18 0.000000 0.168294 0.599892
O O19 0.000000 0.354844 0.057186
#
# Coordination Sequence:
#
# PCOD8257536 Si02
#       7
#    16  16  16  16  16  16  16
#     4  10  19  33  52  76 110 153 196 238 283 338
#     4  10  20  34  50  73 109 152 198 246 291 335
#     4   9  18  32  51  77 110 147 186 229 282 349
#     4  10  22  39  61  89 116 144 186 243 305 365
#     4  11  23  39  57  82 116 154 196 242 293 350
#     4   9  17  30  48  72 105 145 189 235 283 337
#     4  12  24  35  54  83 118 162 204 243 286 341
#
# _framework density 19.697631000000001
#
# number of rings (size 3 to 8) (size 9 to 14) (size 15 to 20)
#    0.000    1.857    1.429    3.000    2.000    4.000 
#    0.000    1.429    0.000    0.429    0.000    0.000 
#    0.000    0.000    0.000    0.000    0.000    0.000 
#
# Total GULP energy -693865.330801 kJ/mol
# GULP energy per Si atom -12390.452336 kJ/mol
# Density = 1.965280 g / cm^3
# Si number density = 19.697631 Si / 1000 Ang^3
#
#
#
# Elastic Constant Matrix: (Units=GPa)
#
#
# Indices 1 2 3 4 5 6 
#
# 1 111.5465 32.0112 33.6604 0.0000 0.0000 0.0000
# 2 32.0112 67.0827 42.6809 0.0000 0.0000 0.0000
# 3 33.6604 42.6809 85.7948 0.0000 0.0000 0.0000
# 4 0.0000 0.0000 0.0000 20.6376 0.0000 0.0000
# 5 0.0000 0.0000 0.0000 0.0000 17.9874 0.0000
# 6 0.0000 0.0000 0.0000 0.0000 0.0000 29.4280
#
#
#
# Elastic Compliance Matrix: (Units=1/GPa)
#
#
# Indices 1 2 3 4 5 6 
#
# 1 0.010723 -0.003570 -0.002431 0.000000 0.000000 0.000000
# 2 -0.003570 0.022999 -0.010041 0.000000 0.000000 0.000000
# 3 -0.002431 -0.010041 0.017604 0.000000 0.000000 0.000000
# 4 0.000000 0.000000 0.000000 0.048455 0.000000 0.000000
# 5 0.000000 0.000000 0.000000 0.000000 0.055595 0.000000
# 6 0.000000 0.000000 0.000000 0.000000 0.000000 0.033981
#
#
# Mechanical properties :
#
#
# Convention : Reuss Voigt Hill
#
# Bulk Modulus (GPa) = 51.96775 53.45879 52.71327
# Shear Modulus (GPa) = 21.94372 24.01535 22.97953
#
# Velocity S-wave (km/s) = 3.34133 3.49549 3.41928
# Velocity P-wave (km/s) = 6.42853 6.59469 6.51214
#
# Compressibility (1/GPa) = 0.01924270
#
# Stress axis : x y z
#
# Youngs Moduli (GPa) = 93.25747 43.48011 56.80376
#
# Poissons Ratio (x) = 0.15524 0.13808
# Poissons Ratio (y) = 0.33295 0.57035
# Poissons Ratio (z) = 0.22670 0.43657
#
# Static dielectric constant tensor:
#      x y z
#    x 3.682810 0.000000 0.000000 
#    y 0.000000 3.184360 0.000000 
#    z 0.000000 0.000000 3.978360 
# 
# 
# High freq. dielectric constant tensor:
#      x y z
#    x 1.763730 0.000000 0.000000 
#    y 0.000000 1.707320 0.000000 
#    z 0.000000 0.000000 1.781000 
# 
# From -- ./inp_files/32572.got.cif
#   From: 2010.03.12/outbox.cif.g09.slc.cpg/sg63_17_cif.got.tgz:32572.got - 2010.04.10 19:34:48.
