data_PCOD8257093
_publ_section_title
;
Structure prediction by ZEFSAII (Michael W. Deem and Ramdas Pophale) SiO2 
 PCOD8257093
Probable space group: C M C M
;
_chemical_formula_sum "Si O2"
_cell_formula_units_Z 88
_cell_length_a 27.602545
_cell_length_b 19.715239
_cell_length_c 8.860885
_cell_angle_alpha 90.000000
_cell_angle_beta 90.000000
_cell_angle_gamma 90.000000
_cell_volume 4822.011846
_symmetry_space_group_name_H-M "C M C M"
_symmetry_group_IT_number 63
_symmetry_cell_setting 'orthorhombic'
loop_
_space_group_symop_operation_xyz
x,y,z
-x,-y,1/2+z
x,-y,-z
-x,y,1/2-z
-x,-y,-z
x,y,1/2-z
-x,y,z
x,-y,1/2+z
1/2+x,1/2+y,z
1/2-x,1/2-y,1/2+z
1/2+x,1/2-y,-z
1/2-x,1/2+y,1/2-z
1/2-x,1/2-y,-z
1/2+x,1/2+y,1/2-z
1/2-x,1/2+y,z
1/2+x,1/2-y,1/2+z
loop_
_atom_site_type_symbol
_atom_site_label
_atom_site_fract_x
_atom_site_fract_y
_atom_site_fract_z
Si Si1 0.632149 0.928204 0.928587
Si Si2 0.081373 0.826185 0.073337
Si Si3 0.446000 0.179242 0.070899
Si Si4 0.313248 0.297487 0.424532
Si Si5 0.000000 0.926446 0.070480
Si Si6 0.208974 0.341550 0.074879
O O1 0.631634 0.934807 0.750000
O O2 0.591721 0.876072 0.991292
O O3 0.684832 0.902345 0.981590
O O4 0.619936 0.000000 0.000000
O O5 0.071304 0.822648 0.250000
O O6 0.066566 0.753340 0.003223
O O7 0.138157 0.840253 0.037652
O O8 0.047596 0.886273 0.009234
O O9 0.441667 0.181740 0.250000
O O10 0.500000 0.158287 0.019608
O O11 0.313497 0.273591 0.250000
O O12 0.266634 0.344021 0.458843
O O13 0.312815 0.230410 0.525373
O O14 0.000000 0.933594 0.250000
O O15 0.000000 0.000000 0.000000
O O16 0.197860 0.352478 0.250000
#
# Coordination Sequence:
#
# PCOD8257093 Si02
#       6
#    16  16  16  16   8  16
#     4  11  22  36  54  75 107 144 181 222 270 321
#     4   9  15  29  54  80 102 134 176 213 253 307
#     4   9  16  29  53  81 102 130 179 223 257 310
#     4   9  17  31  53  79 104 134 176 222 262 307
#     4  10  20  34  56  80 107 138 170 209 260 321
#     4  10  19  31  50  78 109 137 174 218 266 317
#
# _framework density 18.249645000000001
#
# number of rings (size 3 to 8) (size 9 to 14) (size 15 to 20)
#    0.000    2.364    2.727    1.091    0.000    1.091 
#    0.000    1.818    0.000    3.818    0.000    0.000 
#    0.000    0.000    0.000    0.000    0.000    0.000 
#
# Total GULP energy -545487.778938 kJ/mol
# GULP energy per Si atom -12397.449521 kJ/mol
# Density = 1.820811 g / cm^3
# Si number density = 18.249645 Si / 1000 Ang^3
#
#
#
# Elastic Constant Matrix: (Units=GPa)
#
#
# Indices 1 2 3 4 5 6 
#
# 1 157.6873 79.9953 29.5057 0.0000 0.0000 0.0000
# 2 79.9953 140.0861 32.5786 0.0000 0.0000 0.0000
# 3 29.5057 32.5786 42.8159 0.0000 0.0000 0.0000
# 4 0.0000 0.0000 0.0000 28.8064 0.0000 0.0000
# 5 0.0000 0.0000 0.0000 0.0000 18.0034 0.0000
# 6 0.0000 0.0000 0.0000 0.0000 0.0000 28.5829
#
#
#
# Elastic Compliance Matrix: (Units=1/GPa)
#
#
# Indices 1 2 3 4 5 6 
#
# 1 0.009205 -0.004594 -0.002848 0.000000 0.000000 0.000000
# 2 -0.004594 0.010966 -0.005178 0.000000 0.000000 0.000000
# 3 -0.002848 -0.005178 0.029258 0.000000 0.000000 0.000000
# 4 0.000000 0.000000 0.000000 0.034715 0.000000 0.000000
# 5 0.000000 0.000000 0.000000 0.000000 0.055545 0.000000
# 6 0.000000 0.000000 0.000000 0.000000 0.000000 0.034986
#
#
# Mechanical properties :
#
#
# Convention : Reuss Voigt Hill
#
# Bulk Modulus (GPa) = 41.34053 69.41652 55.37853
# Shear Modulus (GPa) = 24.04088 28.31251 26.17669
#
# Velocity S-wave (km/s) = 3.63345 3.94306 3.79141
# Velocity P-wave (km/s) = 6.34859 7.67138 7.04111
#
# Compressibility (1/GPa) = 0.02418934
#
# Stress axis : x y z
#
# Youngs Moduli (GPa) = 108.63379 91.18884 34.17829
#
# Poissons Ratio (x) = 0.41895 0.09733
# Poissons Ratio (y) = 0.49910 0.17698
# Poissons Ratio (z) = 0.30937 0.47219
#
# Static dielectric constant tensor:
#      x y z
#    x 3.724400 0.000000 0.000000 
#    y 0.000000 3.236900 0.000000 
#    z 0.000000 0.000000 3.052150 
# 
# 
# High freq. dielectric constant tensor:
#      x y z
#    x 1.725840 0.000000 0.000000 
#    y 0.000000 1.684790 0.000000 
#    z 0.000000 0.000000 1.673280 
# 
# From -- ./inp_files/14217.got.cif
#   From: 2010.03.12/outbox.cif.g09.slc.cpg/sg63_8_cif.got.tgz:14217.got - 2010.04.10 19:34:48.
