data_PCOD8257608
_publ_section_title
;
Structure prediction by ZEFSAII (Michael W. Deem and Ramdas Pophale) SiO2 
 PCOD8257608
Probable space group: C M C M
;
_chemical_formula_sum "Si O2"
_cell_formula_units_Z 96
_cell_length_a 23.467247
_cell_length_b 24.316149
_cell_length_c 8.824227
_cell_angle_alpha 90.000000
_cell_angle_beta 90.000000
_cell_angle_gamma 90.000000
_cell_volume 5035.395785
_symmetry_space_group_name_H-M "C M C M"
_symmetry_group_IT_number 63
_symmetry_cell_setting 'orthorhombic'
loop_
_space_group_symop_operation_xyz
x,y,z
-x,-y,1/2+z
x,-y,-z
-x,y,1/2-z
-x,-y,-z
x,y,1/2-z
-x,y,z
x,-y,1/2+z
1/2+x,1/2+y,z
1/2-x,1/2-y,1/2+z
1/2+x,1/2-y,-z
1/2-x,1/2+y,1/2-z
1/2-x,1/2-y,-z
1/2+x,1/2+y,1/2-z
1/2-x,1/2+y,z
1/2+x,1/2-y,1/2+z
loop_
_atom_site_type_symbol
_atom_site_label
_atom_site_fract_x
_atom_site_fract_y
_atom_site_fract_z
Si Si1 0.267482 0.842347 0.927594
Si Si2 0.344915 0.056923 0.071595
Si Si3 0.065173 0.942780 0.571217
Si Si4 0.371809 0.227611 0.429862
Si Si5 0.359839 0.659608 0.430531
Si Si6 0.933751 0.629678 0.576508
O O1 0.261010 0.835952 0.750000
O O2 0.295128 0.900510 0.969490
O O3 0.308996 0.793304 0.986247
O O4 0.204371 0.841303 0.999249
O O5 0.354573 0.051486 0.250000
O O6 0.403397 0.076616 0.995063
O O7 0.325091 0.000000 0.000000
O O8 0.070492 0.948404 0.750000
O O9 0.104907 0.893219 0.510460
O O10 0.000000 0.930549 0.522145
O O11 0.086747 0.000000 0.500000
O O12 0.373889 0.232507 0.250000
O O13 0.388568 0.285331 0.505272
O O14 0.418868 0.184072 0.481965
O O15 0.361044 0.661187 0.250000
O O16 0.914295 0.637753 0.750000
O O17 0.000000 0.617901 0.563790
#
# Coordination Sequence:
#
# PCOD8257608 Si02
#       6
#    16  16  16  16  16  16
#     4   8  17  33  51  73 103 138 173 212 256 301
#     4  10  20  35  54  77 106 138 175 218 265 315
#     4   9  19  35  53  73  99 131 166 207 254 300
#     4  10  20  34  52  77 108 137 169 211 260 311
#     4  10  19  33  54  77 103 137 176 214 253 304
#     4  10  21  37  56  77 102 136 177 217 260 310
#
# _framework density 19.065037
#
# number of rings (size 3 to 8) (size 9 to 14) (size 15 to 20)
#    0.000    2.500    0.000    3.000    0.000    3.667 
#    0.000    5.833    0.000    0.000    0.000    0.000 
#    0.000    0.000    0.000    0.000    0.000    0.000 
#
# Total GULP energy -595179.973779 kJ/mol
# GULP energy per Si atom -12399.582787 kJ/mol
# Density = 1.902164 g / cm^3
# Si number density = 19.065037 Si / 1000 Ang^3
#
#
#
# Elastic Constant Matrix: (Units=GPa)
#
#
# Indices 1 2 3 4 5 6 
#
# 1 50.1042 21.2251 19.7563 0.0000 0.0000 0.0000
# 2 21.2251 130.4040 27.3649 0.0000 0.0000 0.0000
# 3 19.7563 27.3649 42.2509 0.0000 0.0000 0.0000
# 4 0.0000 0.0000 0.0000 36.2552 0.0000 0.0000
# 5 0.0000 0.0000 0.0000 0.0000 20.5611 0.0000
# 6 0.0000 0.0000 0.0000 0.0000 0.0000 18.5893
#
#
#
# Elastic Compliance Matrix: (Units=1/GPa)
#
#
# Indices 1 2 3 4 5 6 
#
# 1 0.024854 -0.001859 -0.010417 0.000000 0.000000 0.000000
# 2 -0.001859 0.009014 -0.004969 0.000000 0.000000 0.000000
# 3 -0.010417 -0.004969 0.031757 0.000000 0.000000 0.000000
# 4 0.000000 0.000000 0.000000 0.027582 0.000000 0.000000
# 5 0.000000 0.000000 0.000000 0.000000 0.048636 0.000000
# 6 0.000000 0.000000 0.000000 0.000000 0.000000 0.053794
#
#
# Mechanical properties :
#
#
# Convention : Reuss Voigt Hill
#
# Bulk Modulus (GPa) = 32.11882 39.93907 36.02895
# Shear Modulus (GPa) = 20.78960 25.37531 23.08246
#
# Velocity S-wave (km/s) = 3.30579 3.65223 3.48332
# Velocity P-wave (km/s) = 5.60843 6.22731 5.92596
#
# Compressibility (1/GPa) = 0.03113439
#
# Stress axis : x y z
#
# Youngs Moduli (GPa) = 40.23570 110.94171 31.48893
#
# Poissons Ratio (x) = 0.20627 0.32803
# Poissons Ratio (y) = 0.07481 0.15646
# Poissons Ratio (z) = 0.41914 0.55122
#
# Static dielectric constant tensor:
#      x y z
#    x 3.640310 0.000000 0.000000 
#    y 0.000000 4.030440 0.000000 
#    z 0.000000 0.000000 3.344090 
# 
# 
# High freq. dielectric constant tensor:
#      x y z
#    x 1.735830 0.000000 0.000000 
#    y 0.000000 1.747890 0.000000 
#    z 0.000000 0.000000 1.729460 
# 
# From -- ./inp_files/10411.got.cif
#   From: 2010.03.12/outbox.cif.g09.slc.cpg/sg63_6_cif.got.tgz:10411.got - 2010.04.10 19:34:48.
