data_PCOD8257998
_publ_section_title
;
Structure prediction by ZEFSAII (Michael W. Deem and Ramdas Pophale) SiO2 
 PCOD8257998
Probable space group: C M C M
;
_chemical_formula_sum "Si O2"
_cell_formula_units_Z 60
_cell_length_a 7.565052
_cell_length_b 29.399454
_cell_length_c 14.701926
_cell_angle_alpha 90.000000
_cell_angle_beta 90.000000
_cell_angle_gamma 90.000000
_cell_volume 3269.831813
_symmetry_space_group_name_H-M "C M C M"
_symmetry_group_IT_number 63
_symmetry_cell_setting 'orthorhombic'
loop_
_space_group_symop_operation_xyz
x,y,z
-x,-y,1/2+z
x,-y,-z
-x,y,1/2-z
-x,-y,-z
x,y,1/2-z
-x,y,z
x,-y,1/2+z
1/2+x,1/2+y,z
1/2-x,1/2-y,1/2+z
1/2+x,1/2-y,-z
1/2-x,1/2+y,1/2-z
1/2-x,1/2-y,-z
1/2+x,1/2+y,1/2-z
1/2-x,1/2+y,z
1/2+x,1/2-y,1/2+z
loop_
_atom_site_type_symbol
_atom_site_label
_atom_site_fract_x
_atom_site_fract_y
_atom_site_fract_z
Si Si1 0.000000 0.328694 0.348994
Si Si2 0.204395 0.064657 0.250000
Si Si3 0.000000 0.509078 0.750000
Si Si4 0.703963 0.394340 0.943794
Si Si5 0.500000 0.075142 0.578573
Si Si6 0.200650 0.800221 0.028276
O O1 0.000000 0.382543 0.354580
O O2 0.820027 0.309204 0.386414
O O3 0.000000 0.309672 0.250000
O O4 0.321397 0.019726 0.250000
O O5 0.249817 0.094167 0.160531
O O6 0.000000 0.049523 0.250000
O O7 0.000000 0.534539 0.848116
O O8 0.500000 0.406275 0.967020
O O9 0.739550 0.339918 0.953656
O O10 0.826821 0.423706 0.012816
O O11 0.000000 0.802451 0.060254
O O12 0.250000 0.750000 0.000000
#
# Coordination Sequence:
#
# PCOD8257998 Si02
#       6
#     8   8   4  16   8  16
#     4  10  20  37  57  79 117 150 189 240 283 334
#     4  10  22  40  58  85 117 147 189 238 292 352
#     4  12  24  38  60  88 112 148 202 246 292 350
#     4   9  20  38  59  82 117 156 187 234 293 346
#     4  10  21  38  60  83 112 153 194 242 295 337
#     4  10  19  35  57  84 114 152 190 230 281 342
#
# _framework density 18.349568000000001
#
# number of rings (size 3 to 8) (size 9 to 14) (size 15 to 20)
#    0.000    2.133    2.000    0.800    0.000    3.733 
#    2.400    2.667    0.000    0.000    0.000    0.000 
#    0.000    0.000    0.000    0.000    0.000    0.000 
#
# Total GULP energy -371698.623813 kJ/mol
# GULP energy per Si atom -12389.954127 kJ/mol
# Density = 1.830780 g / cm^3
# Si number density = 18.349568 Si / 1000 Ang^3
#
#
#
# Elastic Constant Matrix: (Units=GPa)
#
#
# Indices 1 2 3 4 5 6 
#
# 1 138.8458 64.4462 80.9019 0.0000 0.0000 0.0000
# 2 64.4462 122.2741 81.3552 0.0000 0.0000 0.0000
# 3 80.9019 81.3552 163.8251 0.0000 0.0000 0.0000
# 4 0.0000 0.0000 0.0000 10.7728 0.0000 0.0000
# 5 0.0000 0.0000 0.0000 0.0000 12.4221 0.0000
# 6 0.0000 0.0000 0.0000 0.0000 0.0000 -343.2568
#
#
#
# Elastic Compliance Matrix: (Units=1/GPa)
#
#
# Indices 1 2 3 4 5 6 
#
# 1 0.010905 -0.003233 -0.003780 0.000000 0.000000 0.000000
# 2 -0.003233 0.013172 -0.004945 0.000000 0.000000 0.000000
# 3 -0.003780 -0.004945 0.010426 0.000000 0.000000 0.000000
# 4 0.000000 0.000000 0.000000 0.092826 0.000000 0.000000
# 5 0.000000 0.000000 0.000000 0.000000 0.080502 0.000000
# 6 0.000000 0.000000 0.000000 0.000000 0.000000 -0.002913
#
#
# Mechanical properties :
#
#
# Convention : Reuss Voigt Hill
#
# Bulk Modulus (GPa) = 94.44064 97.59463 96.01763
# Shear Modulus (GPa) = 21.51805 -50.79625 -14.63910
#
# Velocity S-wave (km/s) = 3.42815 -5.26713 -2.82758
# Velocity P-wave (km/s) = 8.20054 4.03877 6.46376
#
# Compressibility (1/GPa) = 0.01058866
#
# Stress axis : x y z
#
# Youngs Moduli (GPa) = 91.69925 75.91691 95.91072
#
# Poissons Ratio (x) = 0.24542 0.36254
# Poissons Ratio (y) = 0.29644 0.47427
# Poissons Ratio (z) = 0.34662 0.37540
#
# Static dielectric constant tensor:
#      x y z
#    x 4.201060 0.000000 0.000000 
#    y 0.000000 3.414410 0.000000 
#    z 0.000000 0.000000 3.325720 
# 
# 
# High freq. dielectric constant tensor:
#      x y z
#    x 1.733040 0.000000 0.000000 
#    y 0.000000 1.709700 0.000000 
#    z 0.000000 0.000000 1.705880 
# 
# From -- ./inp_files/16159.got.cif
#   From: 2010.03.12/outbox.cif.g09.slc.cpg/sg63_9_cif.got.tgz:16159.got - 2010.04.10 19:34:48.
