data_PCOD8257230
_publ_section_title
;
Structure prediction by ZEFSAII (Michael W. Deem and Ramdas Pophale) SiO2 
 PCOD8257230
Probable space group: C M C M
;
_chemical_formula_sum "Si O2"
_cell_formula_units_Z 96
_cell_length_a 23.439894
_cell_length_b 24.063946
_cell_length_c 9.094094
_cell_angle_alpha 90.000000
_cell_angle_beta 90.000000
_cell_angle_gamma 90.000000
_cell_volume 5129.581409
_symmetry_space_group_name_H-M "C M C M"
_symmetry_group_IT_number 63
_symmetry_cell_setting 'orthorhombic'
loop_
_space_group_symop_operation_xyz
x,y,z
-x,-y,1/2+z
x,-y,-z
-x,y,1/2-z
-x,-y,-z
x,y,1/2-z
-x,y,z
x,-y,1/2+z
1/2+x,1/2+y,z
1/2-x,1/2-y,1/2+z
1/2+x,1/2-y,-z
1/2-x,1/2+y,1/2-z
1/2-x,1/2-y,-z
1/2+x,1/2+y,1/2-z
1/2-x,1/2+y,z
1/2+x,1/2-y,1/2+z
loop_
_atom_site_type_symbol
_atom_site_label
_atom_site_fract_x
_atom_site_fract_y
_atom_site_fract_z
Si Si1 0.934636 0.850328 0.580668
Si Si2 0.358623 0.852162 0.084906
Si Si3 0.561899 0.952690 0.088509
Si Si4 0.065132 0.733834 0.077150
Si Si5 0.229821 0.557254 0.921003
Si Si6 0.637781 0.443136 0.421640
O O1 0.914734 0.847302 0.750000
O O2 0.925845 0.791055 0.506963
O O3 0.896958 0.893688 0.492639
O O4 0.000000 0.869644 0.569514
O O5 0.345454 0.828827 0.250000
O O6 0.410826 0.893361 0.091566
O O7 0.304637 0.887839 0.021913
O O8 0.382141 0.804409 0.977635
O O9 0.556215 0.977184 0.250000
O O10 0.500000 0.944640 0.013511
O O11 0.597122 0.000000 0.000000
O O12 0.073292 0.743215 0.250000
O O13 0.000000 0.711728 0.044856
O O14 0.214431 0.549033 0.750000
O O15 0.295869 0.569816 0.948210
O O16 0.211577 0.500000 0.000000
O O17 0.619618 0.500000 0.500000
O O18 0.623257 0.448241 0.250000
#
# Coordination Sequence:
#
# PCOD8257230 Si02
#       6
#    16  16  16  16  16  16
#     4  10  21  38  60  84 109 138 172 212 262 318
#     4  10  19  32  50  72 100 137 181 222 262 311
#     4   9  17  27  40  61  90 124 163 211 264 310
#     4  10  21  36  54  78 107 139 177 222 270 318
#     4   9  19  34  53  78 108 143 181 223 268 313
#     4  10  20  36  58  84 114 144 175 212 258 313
#
# _framework density 18.714977000000001
#
# number of rings (size 3 to 8) (size 9 to 14) (size 15 to 20)
#    0.000    2.333    0.000    2.500    0.000    5.000 
#    0.000    2.500    0.000    0.000    0.000    0.000 
#    0.000    0.000    0.000    0.000    0.000    0.000 
#
# Total GULP energy -594741.753346 kJ/mol
# GULP energy per Si atom -12390.453195 kJ/mol
# Density = 1.867238 g / cm^3
# Si number density = 18.714977 Si / 1000 Ang^3
#
#
#
# Elastic Constant Matrix: (Units=GPa)
#
#
# Indices 1 2 3 4 5 6 
#
# 1 81.9176 55.1704 47.0439 0.0000 0.0000 0.0000
# 2 55.1704 94.9929 59.4247 0.0000 0.0000 0.0000
# 3 47.0439 59.4247 111.6052 0.0000 0.0000 0.0000
# 4 0.0000 0.0000 0.0000 39.6772 0.0000 0.0000
# 5 0.0000 0.0000 0.0000 0.0000 26.4053 0.0000
# 6 0.0000 0.0000 0.0000 0.0000 0.0000 39.2380
#
#
#
# Elastic Compliance Matrix: (Units=1/GPa)
#
#
# Indices 1 2 3 4 5 6 
#
# 1 0.020935 -0.009954 -0.003525 0.000000 0.000000 0.000000
# 2 -0.009954 0.020518 -0.006729 0.000000 0.000000 0.000000
# 3 -0.003525 -0.006729 0.014029 0.000000 0.000000 0.000000
# 4 0.000000 0.000000 0.000000 0.025203 0.000000 0.000000
# 5 0.000000 0.000000 0.000000 0.000000 0.037871 0.000000
# 6 0.000000 0.000000 0.000000 0.000000 0.000000 0.025485
#
#
# Mechanical properties :
#
#
# Convention : Reuss Voigt Hill
#
# Bulk Modulus (GPa) = 66.37187 67.97709 67.17448
# Shear Modulus (GPa) = 26.38810 29.52255 27.95533
#
# Velocity S-wave (km/s) = 3.75907 3.97606 3.86909
# Velocity P-wave (km/s) = 7.37444 7.58155 7.47871
#
# Compressibility (1/GPa) = 0.01506662
#
# Stress axis : x y z
#
# Youngs Moduli (GPa) = 47.76577 48.73848 71.28252
#
# Poissons Ratio (x) = 0.48515 0.25125
# Poissons Ratio (y) = 0.47547 0.47965
# Poissons Ratio (z) = 0.16836 0.32795
#
# Static dielectric constant tensor:
#      x y z
#    x 3.502560 0.000000 0.000000 
#    y 0.000000 3.429510 0.000000 
#    z 0.000000 0.000000 3.648300 
# 
# 
# High freq. dielectric constant tensor:
#      x y z
#    x 1.723550 0.000000 0.000000 
#    y 0.000000 1.717970 0.000000 
#    z 0.000000 0.000000 1.731830 
# 
# From -- ./inp_files/10477.got.cif
#   From: 2010.03.12/outbox.cif.g09.slc.cpg/sg63_6_cif.got.tgz:10477.got - 2010.04.10 19:34:48.
