data_PCOD8257901
_publ_section_title
;
Structure prediction by ZEFSAII (Michael W. Deem and Ramdas Pophale) SiO2 
 PCOD8257901
Probable space group: C M C M
;
_chemical_formula_sum "Si O2"
_cell_formula_units_Z 104
_cell_length_a 26.266012
_cell_length_b 18.577166
_cell_length_c 11.201746
_cell_angle_alpha 90.000000
_cell_angle_beta 90.000000
_cell_angle_gamma 90.000000
_cell_volume 5465.870286
_symmetry_space_group_name_H-M "C M C M"
_symmetry_group_IT_number 63
_symmetry_cell_setting 'orthorhombic'
loop_
_space_group_symop_operation_xyz
x,y,z
-x,-y,1/2+z
x,-y,-z
-x,y,1/2-z
-x,-y,-z
x,y,1/2-z
-x,y,z
x,-y,1/2+z
1/2+x,1/2+y,z
1/2-x,1/2-y,1/2+z
1/2+x,1/2-y,-z
1/2-x,1/2+y,1/2-z
1/2-x,1/2-y,-z
1/2+x,1/2+y,1/2-z
1/2-x,1/2+y,z
1/2+x,1/2-y,1/2+z
loop_
_atom_site_type_symbol
_atom_site_label
_atom_site_fract_x
_atom_site_fract_y
_atom_site_fract_z
Si Si1 0.359305 0.579892 0.529995
Si Si2 0.802598 0.664154 0.498601
Si Si3 0.253784 0.451767 0.118895
Si Si4 0.700278 0.685758 0.383594
Si Si5 0.906734 0.661171 0.112378
Si Si6 0.500000 0.055039 0.388753
Si Si7 0.943911 0.186987 0.610285
O O1 0.378550 0.500000 0.500000
O O2 0.311913 0.576562 0.621718
O O3 0.338799 0.621054 0.412406
O O4 0.406890 0.620887 0.585086
O O5 0.784627 0.616011 0.610994
O O6 0.758205 0.658131 0.399015
O O7 0.810852 0.747346 0.530588
O O8 0.855596 0.632666 0.450587
O O9 0.243922 0.488742 0.250000
O O10 0.244712 0.500000 0.000000
O O11 0.690747 0.710885 0.250000
O O12 0.893562 0.671958 0.250000
O O13 0.923500 0.737812 0.055466
O O14 0.950302 0.602935 0.092814
O O15 0.500000 0.023457 0.250000
O O16 0.500000 0.000000 0.500000
O O17 0.949165 0.198365 0.750000
O O18 0.000000 0.170358 0.556102
#
# Coordination Sequence:
#
# PCOD8257901 Si02
#       7
#    16  16  16  16  16   8  16
#     4  10  21  35  56  82 114 153 191 234 289 348
#     4  10  20  34  55  83 112 151 193 242 284 338
#     4  10  22  38  57  84 121 159 196 237 287 348
#     4  10  20  34  52  80 116 153 192 233 289 347
#     4  10  19  35  60  87 114 148 193 242 291 346
#     4  10  22  42  66  92 119 152 196 242 297 354
#     4  10  19  34  58  84 109 142 189 246 295 340
#
# _framework density 19.027162000000001
#
# number of rings (size 3 to 8) (size 9 to 14) (size 15 to 20)
#    0.000    2.000    2.308    1.385    0.000    7.692 
#    0.000    3.077    0.000    0.462    0.000    0.000 
#    0.000    0.000    0.000    0.000    0.000    0.000 
#
# Total GULP energy -644432.987678 kJ/mol
# GULP energy per Si atom -12392.942071 kJ/mol
# Density = 1.898386 g / cm^3
# Si number density = 19.027162 Si / 1000 Ang^3
#
#
#
# Elastic Constant Matrix: (Units=GPa)
#
#
# Indices 1 2 3 4 5 6 
#
# 1 122.5127 39.1654 28.4511 0.0000 0.0000 0.0000
# 2 39.1654 100.7081 34.7507 0.0000 0.0000 0.0000
# 3 28.4511 34.7507 89.8108 0.0000 0.0000 0.0000
# 4 0.0000 0.0000 0.0000 26.2783 0.0000 0.0000
# 5 0.0000 0.0000 0.0000 0.0000 7.9672 0.0000
# 6 0.0000 0.0000 0.0000 0.0000 0.0000 21.8000
#
#
#
# Elastic Compliance Matrix: (Units=1/GPa)
#
#
# Indices 1 2 3 4 5 6 
#
# 1 0.009577 -0.003090 -0.001838 0.000000 0.000000 0.000000
# 2 -0.003090 0.012457 -0.003841 0.000000 0.000000 0.000000
# 3 -0.001838 -0.003841 0.013203 0.000000 0.000000 0.000000
# 4 0.000000 0.000000 0.000000 0.038054 0.000000 0.000000
# 5 0.000000 0.000000 0.000000 0.000000 0.125515 0.000000
# 6 0.000000 0.000000 0.000000 0.000000 0.000000 0.045872
#
#
# Mechanical properties :
#
#
# Convention : Reuss Voigt Hill
#
# Bulk Modulus (GPa) = 56.50312 57.52957 57.01634
# Shear Modulus (GPa) = 18.64859 25.25338 21.95099
#
# Velocity S-wave (km/s) = 3.13406 3.64707 3.40025
# Velocity P-wave (km/s) = 6.54652 6.93080 6.74140
#
# Compressibility (1/GPa) = 0.01769814
#
# Stress axis : x y z
#
# Youngs Moduli (GPa) = 104.41434 80.27694 75.74005
#
# Poissons Ratio (x) = 0.24808 0.13923
# Poissons Ratio (y) = 0.32267 0.29092
# Poissons Ratio (z) = 0.19194 0.30834
#
# Static dielectric constant tensor:
#      x y z
#    x 3.545190 0.000000 0.000000 
#    y 0.000000 3.475730 0.000000 
#    z 0.000000 0.000000 3.239440 
# 
# 
# High freq. dielectric constant tensor:
#      x y z
#    x 1.738450 0.000000 0.000000 
#    y 0.000000 1.741740 0.000000 
#    z 0.000000 0.000000 1.714640 
# 
# From -- ./inp_files/25071.got.cif
#   From: 2010.03.12/outbox.cif.g09.slc.cpg/sg63_13_cif.got.tgz:25071.got - 2010.04.10 19:34:48.
