data_PCOD8257494
_publ_section_title
;
Structure prediction by ZEFSAII (Michael W. Deem and Ramdas Pophale) SiO2 
 PCOD8257494
Probable space group: C M C M
;
_chemical_formula_sum "Si O2"
_cell_formula_units_Z 112
_cell_length_a 28.750132
_cell_length_b 14.478715
_cell_length_c 15.548980
_cell_angle_alpha 90.000000
_cell_angle_beta 90.000000
_cell_angle_gamma 90.000000
_cell_volume 6472.495653
_symmetry_space_group_name_H-M "C M C M"
_symmetry_group_IT_number 63
_symmetry_cell_setting 'orthorhombic'
loop_
_space_group_symop_operation_xyz
x,y,z
-x,-y,1/2+z
x,-y,-z
-x,y,1/2-z
-x,-y,-z
x,y,1/2-z
-x,y,z
x,-y,1/2+z
1/2+x,1/2+y,z
1/2-x,1/2-y,1/2+z
1/2+x,1/2-y,-z
1/2-x,1/2+y,1/2-z
1/2-x,1/2-y,-z
1/2+x,1/2+y,1/2-z
1/2-x,1/2+y,z
1/2+x,1/2-y,1/2+z
loop_
_atom_site_type_symbol
_atom_site_label
_atom_site_fract_x
_atom_site_fract_y
_atom_site_fract_z
Si Si1 0.143695 0.747938 0.571086
Si Si2 0.948972 0.715141 0.851436
Si Si3 0.946814 0.505490 0.653215
Si Si4 0.227845 0.641387 0.653094
Si Si5 0.787619 0.891794 0.992469
Si Si6 0.782154 0.575477 0.345260
Si Si7 0.369011 0.913515 0.555420
O O1 0.095402 0.775975 0.618970
O O2 0.181200 0.699296 0.633664
O O3 0.164502 0.840934 0.530303
O O4 0.127611 0.679562 0.497153
O O5 0.952123 0.718406 0.750000
O O6 0.939659 0.609598 0.880966
O O7 0.000000 0.748300 0.887551
O O8 0.927451 0.497553 0.750000
O O9 0.919717 0.436461 0.591357
O O10 0.000000 0.475234 0.649287
O O11 0.245444 0.667867 0.750000
O O12 0.266890 0.656340 0.578998
O O13 0.216709 0.534173 0.649316
O O14 0.751969 0.876533 0.913755
O O15 0.798819 0.000000 0.000000
O O16 0.767709 0.609601 0.250000
O O17 0.834189 0.607192 0.366156
O O18 0.349002 0.000000 0.500000
#
# Coordination Sequence:
#
# PCOD8257494 Si02
#       7
#    16  16  16  16  16  16  16
#     4  12  21  32  52  76 103 137 177 216 260 310
#     4   9  18  32  50  76 108 136 166 207 257 316
#     4   9  18  32  48  70 105 144 172 199 247 312
#     4  10  19  33  53  76 105 137 169 212 261 314
#     4  10  22  40  52  72 105 138 181 224 261 305
#     4  10  19  33  51  71 103 142 174 209 255 307
#     4  12  19  29  46  72 108 135 170 212 251 306
#
# _framework density 17.303989999999999
#
# number of rings (size 3 to 8) (size 9 to 14) (size 15 to 20)
#    0.000    1.714    4.286    2.571    0.000    4.286 
#    0.000    0.714    0.000    0.429    0.000    0.000 
#    0.000    2.286    0.000    0.000    0.000    0.000 
#
# Total GULP energy -694122.773389 kJ/mol
# GULP energy per Si atom -12395.049525 kJ/mol
# Density = 1.726461 g / cm^3
# Si number density = 17.303990 Si / 1000 Ang^3
#
#
#
# Elastic Constant Matrix: (Units=GPa)
#
#
# Indices 1 2 3 4 5 6 
#
# 1 121.1405 42.7415 47.3684 0.0000 0.0000 0.0000
# 2 42.7415 35.0313 28.9863 0.0000 0.0000 0.0000
# 3 47.3684 28.9863 102.3606 0.0000 0.0000 0.0000
# 4 0.0000 0.0000 0.0000 10.8093 0.0000 0.0000
# 5 0.0000 0.0000 0.0000 0.0000 29.5268 0.0000
# 6 0.0000 0.0000 0.0000 0.0000 0.0000 11.3864
#
#
#
# Elastic Compliance Matrix: (Units=1/GPa)
#
#
# Indices 1 2 3 4 5 6 
#
# 1 0.014891 -0.016282 -0.002280 0.000000 0.000000 0.000000
# 2 -0.016282 0.055083 -0.008064 0.000000 0.000000 0.000000
# 3 -0.002280 -0.008064 0.013108 0.000000 0.000000 0.000000
# 4 0.000000 0.000000 0.000000 0.092513 0.000000 0.000000
# 5 0.000000 0.000000 0.000000 0.000000 0.033868 0.000000
# 6 0.000000 0.000000 0.000000 0.000000 0.000000 0.087824
#
#
# Mechanical properties :
#
#
# Convention : Reuss Voigt Hill
#
# Bulk Modulus (GPa) = 33.52245 55.19165 44.35705
# Shear Modulus (GPa) = 13.87026 19.64023 16.75525
#
# Velocity S-wave (km/s) = 2.83426 3.37265 3.11511
# Velocity P-wave (km/s) = 5.48867 6.86520 6.21516
#
# Compressibility (1/GPa) = 0.02983076
#
# Stress axis : x y z
#
# Youngs Moduli (GPa) = 67.15387 18.15427 76.28814
#
# Poissons Ratio (x) = 0.29558 0.17397
# Poissons Ratio (y) = 1.09338 0.61518
# Poissons Ratio (z) = 0.15314 0.14639
#
# Static dielectric constant tensor:
#      x y z
#    x 3.304460 0.000000 0.000000 
#    y 0.000000 2.910730 0.000000 
#    z 0.000000 0.000000 3.541140 
# 
# 
# High freq. dielectric constant tensor:
#      x y z
#    x 1.660560 0.000000 0.000000 
#    y 0.000000 1.625040 0.000000 
#    z 0.000000 0.000000 1.678800 
# 
# From -- ./inp_files/37951.got.cif
#   From: 2010.03.12/outbox.cif.g09.slc.cpg/sg63_19_cif.got.tgz:37951.got - 2010.04.10 19:34:48.
