data_PCOD8257783
_publ_section_title
;
Structure prediction by ZEFSAII (Michael W. Deem and Ramdas Pophale) SiO2 
 PCOD8257783
Probable space group: C M C M
;
_chemical_formula_sum "Si O2"
_cell_formula_units_Z 88
_cell_length_a 17.482555
_cell_length_b 30.557298
_cell_length_c 9.159355
_cell_angle_alpha 90.000000
_cell_angle_beta 90.000000
_cell_angle_gamma 90.000000
_cell_volume 4893.107358
_symmetry_space_group_name_H-M "C M C M"
_symmetry_group_IT_number 63
_symmetry_cell_setting 'orthorhombic'
loop_
_space_group_symop_operation_xyz
x,y,z
-x,-y,1/2+z
x,-y,-z
-x,y,1/2-z
-x,-y,-z
x,y,1/2-z
-x,y,z
x,-y,1/2+z
1/2+x,1/2+y,z
1/2-x,1/2-y,1/2+z
1/2+x,1/2-y,-z
1/2-x,1/2+y,1/2-z
1/2-x,1/2-y,-z
1/2+x,1/2+y,1/2-z
1/2-x,1/2+y,z
1/2+x,1/2-y,1/2+z
loop_
_atom_site_type_symbol
_atom_site_label
_atom_site_fract_x
_atom_site_fract_y
_atom_site_fract_z
Si Si1 0.771516 0.793511 0.581614
Si Si2 0.912650 0.544588 0.420422
Si Si3 0.779942 0.611246 0.078785
Si Si4 0.414057 0.313442 0.090747
Si Si5 0.368255 0.588881 0.911325
Si Si6 0.500000 0.455156 0.921738
O O1 0.764242 0.783685 0.750000
O O2 0.750000 0.750000 0.500000
O O3 0.719890 0.836427 0.539950
O O4 0.859864 0.799523 0.540689
O O5 0.885113 0.500000 0.500000
O O6 0.906954 0.534525 0.250000
O O7 0.859853 0.586819 0.460137
O O8 0.000000 0.556260 0.466103
O O9 0.759935 0.605819 0.250000
O O10 0.716310 0.588398 0.979451
O O11 0.395133 0.291404 0.250000
O O12 0.500000 0.301383 0.043549
O O13 0.404689 0.364403 0.113566
O O14 0.365557 0.565852 0.750000
O O15 0.421914 0.566853 0.029224
O O16 0.500000 0.459441 0.750000
O O17 0.500000 0.500000 0.000000
#
# Coordination Sequence:
#
# PCOD8257783 Si02
#       6
#    16  16  16  16  16   8
#     4  10  20  34  52  76 107 142 181 225 272 323
#     4   9  18  34  56  80 107 138 176 224 274 329
#     4   9  19  35  54  78 106 142 184 221 268 329
#     4   9  17  32  54  76  99 130 170 213 259 315
#     4  10  19  34  53  75 102 133 172 215 262 313
#     4  12  24  36  50  70 102 140 176 216 262 306
#
# _framework density 17.984482
#
# number of rings (size 3 to 8) (size 9 to 14) (size 15 to 20)
#    0.000    2.364    0.909    1.909    0.000    3.273 
#    0.000    2.727    0.000    3.273    0.000    0.000 
#    0.000    0.000    0.000    0.000    0.000    0.000 
#
# Total GULP energy -545112.279646 kJ/mol
# GULP energy per Si atom -12388.915447 kJ/mol
# Density = 1.794355 g / cm^3
# Si number density = 17.984482 Si / 1000 Ang^3
#
#
#
# Elastic Constant Matrix: (Units=GPa)
#
#
# Indices 1 2 3 4 5 6 
#
# 1 105.5897 71.4987 54.4336 0.0000 0.0000 0.0000
# 2 71.4987 99.0044 53.1223 0.0000 0.0000 0.0000
# 3 54.4336 53.1223 102.0454 0.0000 0.0000 0.0000
# 4 0.0000 0.0000 0.0000 29.6096 0.0000 0.0000
# 5 0.0000 0.0000 0.0000 0.0000 61.3462 0.0000
# 6 0.0000 0.0000 0.0000 0.0000 0.0000 23.0579
#
#
#
# Elastic Compliance Matrix: (Units=1/GPa)
#
#
# Indices 1 2 3 4 5 6 
#
# 1 0.019824 -0.011992 -0.004332 0.000000 0.000000 0.000000
# 2 -0.011992 0.021270 -0.004676 0.000000 0.000000 0.000000
# 3 -0.004332 -0.004676 0.014544 0.000000 0.000000 0.000000
# 4 0.000000 0.000000 0.000000 0.033773 0.000000 0.000000
# 5 0.000000 0.000000 0.000000 0.000000 0.016301 0.000000
# 6 0.000000 0.000000 0.000000 0.000000 0.000000 0.043369
#
#
# Mechanical properties :
#
#
# Convention : Reuss Voigt Hill
#
# Bulk Modulus (GPa) = 73.31956 73.86097 73.59027
# Shear Modulus (GPa) = 25.55887 31.30840 28.43363
#
# Velocity S-wave (km/s) = 3.77392 4.17688 3.98050
# Velocity P-wave (km/s) = 7.73607 8.02622 7.88248
#
# Compressibility (1/GPa) = 0.01363893
#
# Stress axis : x y z
#
# Youngs Moduli (GPa) = 50.44350 47.01488 68.75560
#
# Poissons Ratio (x) = 0.56381 0.29784
# Poissons Ratio (y) = 0.60493 0.32147
# Poissons Ratio (z) = 0.21851 0.21982
#
# Static dielectric constant tensor:
#      x y z
#    x 3.625540 0.000000 0.000000 
#    y 0.000000 1.984560 0.000000 
#    z 0.000000 0.000000 2.832510 
# 
# 
# High freq. dielectric constant tensor:
#      x y z
#    x 1.692590 0.000000 0.000000 
#    y 0.000000 1.679690 0.000000 
#    z 0.000000 0.000000 1.706020 
# 
# From -- ./inp_files/6854.got.cif
#   From: 2010.03.12/outbox.cif.g09.slc.cpg/sg63_4_cif.got.tgz:6854.got - 2010.04.10 19:34:48.
