data_PCOD8257729
_publ_section_title
;
Structure prediction by ZEFSAII (Michael W. Deem and Ramdas Pophale) SiO2 
 PCOD8257729
Probable space group: C M C M
;
_chemical_formula_sum "Si O2"
_cell_formula_units_Z 104
_cell_length_a 21.331553
_cell_length_b 28.235638
_cell_length_c 8.959296
_cell_angle_alpha 90.000000
_cell_angle_beta 90.000000
_cell_angle_gamma 90.000000
_cell_volume 5396.273650
_symmetry_space_group_name_H-M "C M C M"
_symmetry_group_IT_number 63
_symmetry_cell_setting 'orthorhombic'
loop_
_space_group_symop_operation_xyz
x,y,z
-x,-y,1/2+z
x,-y,-z
-x,y,1/2-z
-x,-y,-z
x,y,1/2-z
-x,y,z
x,-y,1/2+z
1/2+x,1/2+y,z
1/2-x,1/2-y,1/2+z
1/2+x,1/2-y,-z
1/2-x,1/2+y,1/2-z
1/2-x,1/2-y,-z
1/2+x,1/2+y,1/2-z
1/2-x,1/2+y,z
1/2+x,1/2-y,1/2+z
loop_
_atom_site_type_symbol
_atom_site_label
_atom_site_fract_x
_atom_site_fract_y
_atom_site_fract_z
Si Si1 0.645724 0.383598 0.422660
Si Si2 0.876535 0.595994 0.428275
Si Si3 0.073339 0.043955 0.412721
Si Si4 0.000000 0.552781 0.569271
Si Si5 0.676497 0.707489 0.081411
Si Si6 0.824277 0.301355 0.918972
Si Si7 0.240373 0.548546 0.572950
O O1 0.632776 0.385556 0.250000
O O2 0.587048 0.407922 0.501696
O O3 0.643440 0.329797 0.474707
O O4 0.710074 0.410241 0.465296
O O5 0.882752 0.589453 0.250000
O O6 0.940625 0.582438 0.510640
O O7 0.857002 0.649858 0.469989
O O8 0.824421 0.560810 0.491833
O O9 0.105047 0.045230 0.250000
O O10 0.000000 0.036903 0.397753
O O11 0.104092 0.000000 0.500000
O O12 0.000000 0.500000 0.500000
O O13 0.000000 0.549809 0.750000
O O14 0.653198 0.701121 0.250000
O O15 0.749725 0.696277 0.068143
O O16 0.654450 0.759323 0.028212
O O17 0.844119 0.289165 0.750000
O O18 0.265243 0.500000 0.500000
O O19 0.230098 0.543171 0.750000
#
# Coordination Sequence:
#
# PCOD8257729 Si02
#       7
#    16  16  16   8  16  16  16
#     4  11  22  35  55  83 115 151 189 233 283 338
#     4  11  22  40  63  86 115 152 194 240 293 348
#     4  10  21  37  57  80 109 147 190 233 278 334
#     4  12  26  44  64  88 118 156 202 248 299 356
#     4  10  19  33  56  86 118 151 186 230 281 336
#     4   9  19  35  57  85 115 149 185 229 281 339
#     4  11  23  36  53  81 116 151 187 232 284 340
#
# _framework density 19.272559000000001
#
# number of rings (size 3 to 8) (size 9 to 14) (size 15 to 20)
#    0.000    1.538    1.538    3.923    0.000    5.846 
#    0.000    0.000    1.692    0.000    0.000    0.000 
#    0.000    0.000    0.000    0.000    0.000    0.000 
#
# Total GULP energy -644803.749504 kJ/mol
# GULP energy per Si atom -12400.072106 kJ/mol
# Density = 1.922869 g / cm^3
# Si number density = 19.272559 Si / 1000 Ang^3
#
#
#
# Elastic Constant Matrix: (Units=GPa)
#
#
# Indices 1 2 3 4 5 6 
#
# 1 37.4510 26.6599 32.9968 0.0000 0.0000 0.0000
# 2 26.6599 122.1664 63.3425 0.0000 0.0000 0.0000
# 3 32.9968 63.3425 135.1757 0.0000 0.0000 0.0000
# 4 0.0000 0.0000 0.0000 39.5020 0.0000 0.0000
# 5 0.0000 0.0000 0.0000 0.0000 25.9129 0.0000
# 6 0.0000 0.0000 0.0000 0.0000 0.0000 27.6304
#
#
#
# Elastic Compliance Matrix: (Units=1/GPa)
#
#
# Indices 1 2 3 4 5 6 
#
# 1 0.035663 -0.004318 -0.006682 0.000000 0.000000 0.000000
# 2 -0.004318 0.011335 -0.004258 0.000000 0.000000 0.000000
# 3 -0.006682 -0.004258 0.011024 0.000000 0.000000 0.000000
# 4 0.000000 0.000000 0.000000 0.025315 0.000000 0.000000
# 5 0.000000 0.000000 0.000000 0.000000 0.038591 0.000000
# 6 0.000000 0.000000 0.000000 0.000000 0.000000 0.036192
#
#
# Mechanical properties :
#
#
# Convention : Reuss Voigt Hill
#
# Bulk Modulus (GPa) = 36.35467 60.08793 48.22130
# Shear Modulus (GPa) = 25.27752 30.06198 27.66975
#
# Velocity S-wave (km/s) = 3.62550 3.95376 3.79318
# Velocity P-wave (km/s) = 6.03573 7.21724 6.65277
#
# Compressibility (1/GPa) = 0.02750679
#
# Stress axis : x y z
#
# Youngs Moduli (GPa) = 28.04058 88.21896 90.71121
#
# Poissons Ratio (x) = 0.38093 0.60613
# Poissons Ratio (y) = 0.12108 0.38622
# Poissons Ratio (z) = 0.18737 0.37561
#
# Static dielectric constant tensor:
#      x y z
#    x 3.293460 0.000000 0.000000 
#    y 0.000000 3.651980 0.000000 
#    z 0.000000 0.000000 3.674960 
# 
# 
# High freq. dielectric constant tensor:
#      x y z
#    x 1.723710 0.000000 0.000000 
#    y 0.000000 1.758120 0.000000 
#    z 0.000000 0.000000 1.767900 
# 
# From -- ./inp_files/8787.got.cif
#   From: 2010.03.12/outbox.cif.g09.slc.cpg/sg63_5_cif.got.tgz:8787.got - 2010.04.10 19:34:48.
