data_PCOD8257389
_publ_section_title
;
Structure prediction by ZEFSAII (Michael W. Deem and Ramdas Pophale) SiO2 
 PCOD8257389
Probable space group: C M C M
;
_chemical_formula_sum "Si O2"
_cell_formula_units_Z 80
_cell_length_a 21.528599
_cell_length_b 14.117981
_cell_length_c 13.887347
_cell_angle_alpha 90.000000
_cell_angle_beta 90.000000
_cell_angle_gamma 90.000000
_cell_volume 4220.925131
_symmetry_space_group_name_H-M "C M C M"
_symmetry_group_IT_number 63
_symmetry_cell_setting 'orthorhombic'
loop_
_space_group_symop_operation_xyz
x,y,z
-x,-y,1/2+z
x,-y,-z
-x,y,1/2-z
-x,-y,-z
x,y,1/2-z
-x,y,z
x,-y,1/2+z
1/2+x,1/2+y,z
1/2-x,1/2-y,1/2+z
1/2+x,1/2-y,-z
1/2-x,1/2+y,1/2-z
1/2-x,1/2-y,-z
1/2+x,1/2+y,1/2-z
1/2-x,1/2+y,z
1/2+x,1/2-y,1/2+z
loop_
_atom_site_type_symbol
_atom_site_label
_atom_site_fract_x
_atom_site_fract_y
_atom_site_fract_z
Si Si1 0.303808 0.216469 0.860552
Si Si2 0.137739 0.602651 0.025033
Si Si3 0.929693 0.757819 0.136417
Si Si4 0.178557 0.113279 0.638112
Si Si5 0.734496 0.579231 0.362598
O O1 0.319844 0.191761 0.750000
O O2 0.233245 0.187114 0.885241
O O3 0.308305 0.328843 0.880430
O O4 0.351989 0.160720 0.926442
O O5 0.087674 0.657805 0.088849
O O6 0.201321 0.587823 0.082113
O O7 0.109359 0.500000 0.000000
O O8 0.920491 0.745141 0.250000
O O9 0.884763 0.841390 0.095596
O O10 0.000000 0.785399 0.109700
O O11 0.168555 0.098453 0.750000
O O12 0.196312 0.010560 0.594920
O O13 0.750527 0.566746 0.250000
#
# Coordination Sequence:
#
# PCOD8257389 Si02
#       5
#    16  16  16  16  16
#     4  10  20  33  51  82 118 144 175 225 282 330
#     4  12  22  32  55  84 112 144 180 225 278 328
#     4  10  22  40  59  79 108 146 186 227 264 315
#     4   9  17  32  55  81 110 139 177 221 271 327
#     4  10  19  32  52  83 116 143 174 224 281 332
#
# _framework density 18.953191
#
# number of rings (size 3 to 8) (size 9 to 14) (size 15 to 20)
#    0.000    1.800    4.000    1.200    0.000    1.200 
#    0.000    0.000    0.000    3.000    0.000    2.800 
#    0.000    0.000    0.000    0.000    0.000    0.000 
#
# Total GULP energy -495960.514842 kJ/mol
# GULP energy per Si atom -12399.012871 kJ/mol
# Density = 1.891005 g / cm^3
# Si number density = 18.953191 Si / 1000 Ang^3
#
#
#
# Elastic Constant Matrix: (Units=GPa)
#
#
# Indices 1 2 3 4 5 6 
#
# 1 73.8458 40.3674 33.2861 0.0000 0.0000 0.0000
# 2 40.3674 150.1354 33.0630 0.0000 0.0000 0.0000
# 3 33.2861 33.0630 50.3474 0.0000 0.0000 0.0000
# 4 0.0000 0.0000 0.0000 24.2145 0.0000 0.0000
# 5 0.0000 0.0000 0.0000 0.0000 16.1282 0.0000
# 6 0.0000 0.0000 0.0000 0.0000 0.0000 21.0021
#
#
#
# Elastic Compliance Matrix: (Units=1/GPa)
#
#
# Indices 1 2 3 4 5 6 
#
# 1 0.020337 -0.002931 -0.011520 0.000000 0.000000 0.000000
# 2 -0.002931 0.008209 -0.003453 0.000000 0.000000 0.000000
# 3 -0.011520 -0.003453 0.029746 0.000000 0.000000 0.000000
# 4 0.000000 0.000000 0.000000 0.041298 0.000000 0.000000
# 5 0.000000 0.000000 0.000000 0.000000 0.062003 0.000000
# 6 0.000000 0.000000 0.000000 0.000000 0.000000 0.047614
#
#
# Mechanical properties :
#
#
# Convention : Reuss Voigt Hill
#
# Bulk Modulus (GPa) = 44.47821 54.19572 49.33696
# Shear Modulus (GPa) = 19.80111 23.44309 21.62210
#
# Velocity S-wave (km/s) = 3.23575 3.52077 3.38126
# Velocity P-wave (km/s) = 6.12196 6.72193 6.42895
#
# Compressibility (1/GPa) = 0.02248292
#
# Stress axis : x y z
#
# Youngs Moduli (GPa) = 49.17189 121.81486 33.61769
#
# Poissons Ratio (x) = 0.35704 0.38729
# Poissons Ratio (y) = 0.14412 0.11609
# Poissons Ratio (z) = 0.56648 0.42065
#
# Static dielectric constant tensor:
#      x y z
#    x 3.184960 0.000000 0.000000 
#    y 0.000000 3.976260 0.000000 
#    z 0.000000 0.000000 3.606050 
# 
# 
# High freq. dielectric constant tensor:
#      x y z
#    x 1.682670 0.000000 0.000000 
#    y 0.000000 1.753120 0.000000 
#    z 0.000000 0.000000 1.745000 
# 
# From -- ./inp_files/35079.got.cif
#   From: 2010.03.12/outbox.cif.g09.slc.cpg/sg63_18_cif.got.tgz:35079.got - 2010.04.10 19:34:48.
