data_PCOD8257486
_publ_section_title
;
Structure prediction by ZEFSAII (Michael W. Deem and Ramdas Pophale) SiO2 
 PCOD8257486
Probable space group: C M C M
;
_chemical_formula_sum "Si O2"
_cell_formula_units_Z 104
_cell_length_a 28.199918
_cell_length_b 24.347869
_cell_length_c 8.899641
_cell_angle_alpha 90.000000
_cell_angle_beta 90.000000
_cell_angle_gamma 90.000000
_cell_volume 6110.563900
_symmetry_space_group_name_H-M "C M C M"
_symmetry_group_IT_number 63
_symmetry_cell_setting 'orthorhombic'
loop_
_space_group_symop_operation_xyz
x,y,z
-x,-y,1/2+z
x,-y,-z
-x,y,1/2-z
-x,-y,-z
x,y,1/2-z
-x,y,z
x,-y,1/2+z
1/2+x,1/2+y,z
1/2-x,1/2-y,1/2+z
1/2+x,1/2-y,-z
1/2-x,1/2+y,1/2-z
1/2-x,1/2-y,-z
1/2+x,1/2+y,1/2-z
1/2-x,1/2+y,z
1/2+x,1/2-y,1/2+z
loop_
_atom_site_type_symbol
_atom_site_label
_atom_site_fract_x
_atom_site_fract_y
_atom_site_fract_z
Si Si1 0.946218 0.849364 0.927709
Si Si2 0.593642 0.122372 0.426064
Si Si3 0.053979 0.738261 0.075727
Si Si4 0.770989 0.058819 0.425523
Si Si5 0.178440 0.439845 0.428137
Si Si6 0.124409 0.058806 0.074849
Si Si7 0.500000 0.941265 0.926535
O O1 0.943200 0.848170 0.750000
O O2 0.913412 0.898154 0.992475
O O3 0.000000 0.859490 0.983930
O O4 0.926960 0.791105 0.986597
O O5 0.603731 0.112503 0.250000
O O6 0.587389 0.186737 0.462354
O O7 0.636347 0.100249 0.525566
O O8 0.546290 0.091488 0.478761
O O9 0.056293 0.752663 0.250000
O O10 0.000000 0.723924 0.028699
O O11 0.758810 0.054329 0.250000
O O12 0.727168 0.088683 0.509856
O O13 0.822991 0.085144 0.452424
O O14 0.774041 0.000000 0.500000
O O15 0.170724 0.500000 0.500000
O O16 0.180380 0.445761 0.250000
O O17 0.115921 0.049228 0.250000
O O18 0.116957 0.000000 0.000000
O O19 0.500000 0.948641 0.750000
O O20 0.500000 0.000000 0.000000
#
# Coordination Sequence:
#
# PCOD8257486 Si02
#       7
#    16  16  16  16  16  16   8
#     4   9  18  32  49  72 103 133 159 194 237 282
#     4  10  19  33  50  68  94 126 160 201 244 284
#     4   9  17  32  52  71  92 124 166 204 237 280
#     4   9  16  29  48  68  92 124 160 197 236 282
#     4  11  21  32  47  70  97 125 159 199 243 291
#     4   9  18  31  49  74 102 131 161 193 235 284
#     4  10  20  32  46  66  94 126 155 192 239 286
#
# _framework density 17.019704999999998
#
# number of rings (size 3 to 8) (size 9 to 14) (size 15 to 20)
#    0.000    2.462    0.769    3.231    0.000    4.000 
#    0.000    0.000    0.000    0.923    0.000    0.000 
#    0.000    0.000    0.000    0.000    0.000    0.000 
#
# Total GULP energy -644550.979196 kJ/mol
# GULP energy per Si atom -12395.211138 kJ/mol
# Density = 1.698097 g / cm^3
# Si number density = 17.019705 Si / 1000 Ang^3
#
#
#
# Elastic Constant Matrix: (Units=GPa)
#
#
# Indices 1 2 3 4 5 6 
#
# 1 124.9166 69.8709 49.5518 0.0000 0.0000 0.0000
# 2 69.8709 100.2763 39.0400 0.0000 0.0000 0.0000
# 3 49.5518 39.0400 68.3805 0.0000 0.0000 0.0000
# 4 0.0000 0.0000 0.0000 26.7487 0.0000 0.0000
# 5 0.0000 0.0000 0.0000 0.0000 22.1635 0.0000
# 6 0.0000 0.0000 0.0000 0.0000 0.0000 6.3717
#
#
#
# Elastic Compliance Matrix: (Units=1/GPa)
#
#
# Indices 1 2 3 4 5 6 
#
# 1 0.014961 -0.007977 -0.006287 0.000000 0.000000 0.000000
# 2 -0.007977 0.017076 -0.003968 0.000000 0.000000 0.000000
# 3 -0.006287 -0.003968 0.021446 0.000000 0.000000 0.000000
# 4 0.000000 0.000000 0.000000 0.037385 0.000000 0.000000
# 5 0.000000 0.000000 0.000000 0.000000 0.045119 0.000000
# 6 0.000000 0.000000 0.000000 0.000000 0.000000 0.156943
#
#
# Mechanical properties :
#
#
# Convention : Reuss Voigt Hill
#
# Bulk Modulus (GPa) = 58.76394 67.83320 63.29857
# Shear Modulus (GPa) = 14.92235 20.06416 17.49325
#
# Velocity S-wave (km/s) = 2.96424 3.43720 3.20945
# Velocity P-wave (km/s) = 6.80570 7.46289 7.14186
#
# Compressibility (1/GPa) = 0.01701724
#
# Stress axis : x y z
#
# Youngs Moduli (GPa) = 66.83929 58.56297 46.62896
#
# Poissons Ratio (x) = 0.46715 0.29318
# Poissons Ratio (y) = 0.53317 0.18504
# Poissons Ratio (z) = 0.42025 0.23240
#
# Static dielectric constant tensor:
#      x y z
#    x 3.827280 0.000000 0.000000 
#    y 0.000000 3.045220 0.000000 
#    z 0.000000 0.000000 3.048210 
# 
# 
# High freq. dielectric constant tensor:
#      x y z
#    x 1.660890 0.000000 0.000000 
#    y 0.000000 1.631330 0.000000 
#    z 0.000000 0.000000 1.656140 
# 
# From -- ./inp_files/14680.got.cif
#   From: 2010.03.12/outbox.cif.g09.slc.cpg/sg63_8_cif.got.tgz:14680.got - 2010.04.10 19:34:48.
