data_PCOD8257684
_publ_section_title
;
Structure prediction by ZEFSAII (Michael W. Deem and Ramdas Pophale) SiO2 
 PCOD8257684
Probable space group: C M C M
;
_chemical_formula_sum "Si O2"
_cell_formula_units_Z 104
_cell_length_a 18.426586
_cell_length_b 17.123613
_cell_length_c 16.856367
_cell_angle_alpha 90.000000
_cell_angle_beta 90.000000
_cell_angle_gamma 90.000000
_cell_volume 5318.684887
_symmetry_space_group_name_H-M "C M C M"
_symmetry_group_IT_number 63
_symmetry_cell_setting 'orthorhombic'
loop_
_space_group_symop_operation_xyz
x,y,z
-x,-y,1/2+z
x,-y,-z
-x,y,1/2-z
-x,-y,-z
x,y,1/2-z
-x,y,z
x,-y,1/2+z
1/2+x,1/2+y,z
1/2-x,1/2-y,1/2+z
1/2+x,1/2-y,-z
1/2-x,1/2+y,1/2-z
1/2-x,1/2-y,-z
1/2+x,1/2+y,1/2-z
1/2-x,1/2+y,z
1/2+x,1/2-y,1/2+z
loop_
_atom_site_type_symbol
_atom_site_label
_atom_site_fract_x
_atom_site_fract_y
_atom_site_fract_z
Si Si1 0.500000 0.053284 0.925003
Si Si2 0.349117 0.966132 0.342447
Si Si3 0.210530 0.701537 0.835769
Si Si4 0.705673 0.479550 0.590993
Si Si5 0.644956 0.321234 0.947349
Si Si6 0.500000 0.767000 0.483233
Si Si7 0.851882 0.861110 0.373826
Si Si8 0.500000 0.714493 0.660244
O O1 0.570675 0.025686 0.877235
O O2 0.500000 0.145436 0.948194
O O3 0.500000 0.000000 0.000000
O O4 0.354271 0.981922 0.250000
O O5 0.323926 0.879383 0.364504
O O6 0.288973 0.027290 0.376635
O O7 0.177722 0.728018 0.750000
O O8 0.199635 0.762584 0.905255
O O9 0.296194 0.688814 0.821488
O O10 0.713209 0.500000 0.500000
O O11 0.656318 0.401963 0.601550
O O12 0.661679 0.546628 0.637944
O O13 0.565486 0.283185 0.946462
O O14 0.667296 0.335967 0.036966
O O15 0.500000 0.771046 0.581392
O O16 0.932168 0.842860 0.345584
O O17 0.500000 0.754631 0.750000
#
# Coordination Sequence:
#
# PCOD8257684 Si02
#       8
#     8  16  16  16  16   8  16   8
#     4  12  23  41  65  87 116 159 207 249 295 355
#     4  10  21  38  60  85 120 156 195 243 297 357
#     4  10  19  33  55  82 111 151 194 242 298 348
#     4   9  19  36  59  88 117 154 198 242 291 356
#     4  10  19  36  60  85 118 150 196 250 294 349
#     4  10  22  40  62  92 118 153 203 252 301 355
#     4   9  19  34  56  81 113 156 198 234 290 361
#     4  10  20  37  58  83 119 158 194 241 300 362
#
# _framework density 19.553705999999998
#
# number of rings (size 3 to 8) (size 9 to 14) (size 15 to 20)
#    0.000    2.154    1.538    1.615    0.000    1.846 
#    5.538    4.231    0.000    0.000    0.000    0.000 
#    0.000    0.000    0.000    0.000    0.000    0.000 
#
# Total GULP energy -644189.454415 kJ/mol
# GULP energy per Si atom -12388.258739 kJ/mol
# Density = 1.950920 g / cm^3
# Si number density = 19.553706 Si / 1000 Ang^3
#
#
#
# Elastic Constant Matrix: (Units=GPa)
#
#
# Indices 1 2 3 4 5 6 
#
# 1 118.6383 41.9571 28.5926 0.0000 0.0000 0.0000
# 2 41.9571 91.9910 41.5957 0.0000 0.0000 0.0000
# 3 28.5926 41.5957 67.1157 0.0000 0.0000 0.0000
# 4 0.0000 0.0000 0.0000 13.6149 0.0000 0.0000
# 5 0.0000 0.0000 0.0000 0.0000 22.3019 0.0000
# 6 0.0000 0.0000 0.0000 0.0000 0.0000 26.3150
#
#
#
# Elastic Compliance Matrix: (Units=1/GPa)
#
#
# Indices 1 2 3 4 5 6 
#
# 1 0.010247 -0.003751 -0.002041 0.000000 0.000000 0.000000
# 2 -0.003751 0.016476 -0.008613 0.000000 0.000000 0.000000
# 3 -0.002041 -0.008613 0.021107 0.000000 0.000000 0.000000
# 4 0.000000 0.000000 0.000000 0.073449 0.000000 0.000000
# 5 0.000000 0.000000 0.000000 0.000000 0.044839 0.000000
# 6 0.000000 0.000000 0.000000 0.000000 0.000000 0.038001
#
#
# Mechanical properties :
#
#
# Convention : Reuss Voigt Hill
#
# Bulk Modulus (GPa) = 52.57480 55.78175 54.17827
# Shear Modulus (GPa) = 20.89684 23.48633 22.19158
#
# Velocity S-wave (km/s) = 3.27263 3.46948 3.37249
# Velocity P-wave (km/s) = 6.42074 6.68125 6.55229
#
# Compressibility (1/GPa) = 0.01902052
#
# Stress axis : x y z
#
# Youngs Moduli (GPa) = 97.58559 60.69385 47.37708
#
# Poissons Ratio (x) = 0.22766 0.09669
# Poissons Ratio (y) = 0.36605 0.40807
# Poissons Ratio (z) = 0.19916 0.52277
#
# Static dielectric constant tensor:
#      x y z
#    x 3.514870 0.000000 0.000000 
#    y 0.000000 3.625710 0.000000 
#    z 0.000000 0.000000 3.674440 
# 
# 
# High freq. dielectric constant tensor:
#      x y z
#    x 1.767200 0.000000 0.000000 
#    y 0.000000 1.743050 0.000000 
#    z 0.000000 0.000000 1.768990 
# 
# From -- ./inp_files/45870.got.cif
#   From: 2010.03.12/outbox.cif.g09.slc.cpg/sg63_23_cif.got.tgz:45870.got - 2010.04.10 19:34:48.
