data_PCOD8257004
_publ_section_title
;
Structure prediction by ZEFSAII (Michael W. Deem and Ramdas Pophale) SiO2 
 PCOD8257004
Probable space group: C M C M
;
_chemical_formula_sum "Si O2"
_cell_formula_units_Z 80
_cell_length_a 8.907741
_cell_length_b 19.534769
_cell_length_c 25.962349
_cell_angle_alpha 90.000000
_cell_angle_beta 90.000000
_cell_angle_gamma 90.000000
_cell_volume 4517.725556
_symmetry_space_group_name_H-M "C M C M"
_symmetry_group_IT_number 63
_symmetry_cell_setting 'orthorhombic'
loop_
_space_group_symop_operation_xyz
x,y,z
-x,-y,1/2+z
x,-y,-z
-x,y,1/2-z
-x,-y,-z
x,y,1/2-z
-x,y,z
x,-y,1/2+z
1/2+x,1/2+y,z
1/2-x,1/2-y,1/2+z
1/2+x,1/2-y,-z
1/2-x,1/2+y,1/2-z
1/2-x,1/2-y,-z
1/2+x,1/2+y,1/2-z
1/2-x,1/2+y,z
1/2+x,1/2-y,1/2+z
loop_
_atom_site_type_symbol
_atom_site_label
_atom_site_fract_x
_atom_site_fract_y
_atom_site_fract_z
Si Si1 0.819496 0.069168 0.639902
Si Si2 0.676943 0.669698 0.550849
Si Si3 0.666645 0.417187 0.750000
Si Si4 0.677593 0.076248 0.354156
Si Si5 0.675787 0.825049 0.553700
Si Si6 0.663521 0.420641 0.250000
O O1 0.762971 0.120913 0.596231
O O2 0.757689 0.098616 0.695505
O O3 0.000000 0.061979 0.642145
O O4 0.749354 0.995429 0.628684
O O5 0.500000 0.663776 0.546765
O O6 0.728767 0.747019 0.563320
O O7 0.745284 0.644339 0.496957
O O8 0.500000 0.383747 0.750000
O O9 0.757225 0.394262 0.800732
O O10 0.649729 0.497984 0.750000
O O11 0.500000 0.067498 0.348749
O O12 0.723902 0.130852 0.397341
O O13 0.500000 0.828576 0.543754
O O14 0.500000 0.385672 0.250000
#
# Coordination Sequence:
#
# PCOD8257004 Si02
#       6
#    16  16   8  16  16   8
#     4   9  17  30  49  72  95 122 161 202 237 279
#     4   9  18  33  51  69  92 126 167 204 238 282
#     4   9  17  31  50  71  97 127 159 193 232 280
#     4  10  19  31  49  73 100 126 155 194 240 289
#     4   9  19  34  49  68  96 129 162 197 242 289
#     4   7  12  25  44  65  89 115 143 183 232 272
#
# _framework density 17.708024999999999
#
# number of rings (size 3 to 8) (size 9 to 14) (size 15 to 20)
#    0.000    3.000    0.000    2.100    0.000    3.200 
#    0.000    5.000    0.000    4.800    0.000    0.000 
#    0.000    0.000    0.000    0.000    0.000    0.000 
#
# Total GULP energy -495749.840586 kJ/mol
# GULP energy per Si atom -12393.746015 kJ/mol
# Density = 1.766772 g / cm^3
# Si number density = 17.708025 Si / 1000 Ang^3
#
#
#
# Elastic Constant Matrix: (Units=GPa)
#
#
# Indices 1 2 3 4 5 6 
#
# 1 44.4458 28.6082 47.7631 0.0000 0.0000 0.0000
# 2 28.6082 72.5401 81.0837 0.0000 0.0000 0.0000
# 3 47.7631 81.0837 192.7156 0.0000 0.0000 0.0000
# 4 0.0000 0.0000 0.0000 16.0574 0.0000 0.0000
# 5 0.0000 0.0000 0.0000 0.0000 30.7619 0.0000
# 6 0.0000 0.0000 0.0000 0.0000 0.0000 21.1199
#
#
#
# Elastic Compliance Matrix: (Units=1/GPa)
#
#
# Indices 1 2 3 4 5 6 
#
# 1 0.032550 -0.007211 -0.005033 0.000000 0.000000 0.000000
# 2 -0.007211 0.027622 -0.009835 0.000000 0.000000 0.000000
# 3 -0.005033 -0.009835 0.010574 0.000000 0.000000 0.000000
# 4 0.000000 0.000000 0.000000 0.062277 0.000000 0.000000
# 5 0.000000 0.000000 0.000000 0.000000 0.032508 0.000000
# 6 0.000000 0.000000 0.000000 0.000000 0.000000 0.047349
#
#
# Mechanical properties :
#
#
# Convention : Reuss Voigt Hill
#
# Bulk Modulus (GPa) = 37.60998 69.40128 53.50563
# Shear Modulus (GPa) = 18.80407 23.73760 21.27084
#
# Velocity S-wave (km/s) = 3.26221 3.66526 3.46959
# Velocity P-wave (km/s) = 5.95604 7.56235 6.80675
#
# Compressibility (1/GPa) = 0.02658869
#
# Stress axis : x y z
#
# Youngs Moduli (GPa) = 30.72234 36.20266 94.56834
#
# Poissons Ratio (x) = 0.26105 0.47599
# Poissons Ratio (y) = 0.22153 0.93006
# Poissons Ratio (z) = 0.15464 0.35604
#
# Static dielectric constant tensor:
#      x y z
#    x 3.168120 0.000000 0.000000 
#    y 0.000000 3.122310 0.000000 
#    z 0.000000 0.000000 3.732050 
# 
# 
# High freq. dielectric constant tensor:
#      x y z
#    x 1.672170 0.000000 0.000000 
#    y 0.000000 1.655100 0.000000 
#    z 0.000000 0.000000 1.704200 
# 
# From -- ./inp_files/59776.got.cif
#   From: 2010.03.12/outbox.cif.g09.slc.cpg/sg63_30_cif.got.tgz:59776.got - 2010.04.10 19:34:48.
