data_PCOD8257864
_publ_section_title
;
Structure prediction by ZEFSAII (Michael W. Deem and Ramdas Pophale) SiO2 
 PCOD8257864
Probable space group: C M C M
;
_chemical_formula_sum "Si O2"
_cell_formula_units_Z 88
_cell_length_a 27.434396
_cell_length_b 19.503444
_cell_length_c 8.862304
_cell_angle_alpha 90.000000
_cell_angle_beta 90.000000
_cell_angle_gamma 90.000000
_cell_volume 4741.910516
_symmetry_space_group_name_H-M "C M C M"
_symmetry_group_IT_number 63
_symmetry_cell_setting 'orthorhombic'
loop_
_space_group_symop_operation_xyz
x,y,z
-x,-y,1/2+z
x,-y,-z
-x,y,1/2-z
-x,-y,-z
x,y,1/2-z
-x,y,z
x,-y,1/2+z
1/2+x,1/2+y,z
1/2-x,1/2-y,1/2+z
1/2+x,1/2-y,-z
1/2-x,1/2+y,1/2-z
1/2-x,1/2-y,-z
1/2+x,1/2+y,1/2-z
1/2-x,1/2+y,z
1/2+x,1/2-y,1/2+z
loop_
_atom_site_type_symbol
_atom_site_label
_atom_site_fract_x
_atom_site_fract_y
_atom_site_fract_z
Si Si1 0.212989 0.654409 0.075269
Si Si2 0.809265 0.189415 0.925110
Si Si3 0.082212 0.824709 0.071719
Si Si4 0.443738 0.825128 0.923580
Si Si5 0.000000 0.925754 0.429551
Si Si6 0.629677 0.927258 0.427894
O O1 0.210092 0.635340 0.250000
O O2 0.191407 0.729507 0.041719
O O3 0.269033 0.650025 0.022781
O O4 0.182051 0.599465 0.983095
O O5 0.798506 0.175370 0.750000
O O6 0.861945 0.160858 0.976001
O O7 0.077196 0.821704 0.250000
O O8 0.064128 0.751288 0.010453
O O9 0.047744 0.885260 0.010094
O O10 0.425396 0.829823 0.750000
O O11 0.500000 0.845753 0.935900
O O12 0.413172 0.876359 0.025179
O O13 0.000000 0.931920 0.250000
O O14 0.000000 0.000000 0.500000
O O15 0.630859 0.934853 0.250000
O O16 0.617956 0.000000 0.500000
#
# Coordination Sequence:
#
# PCOD8257864 Si02
#       6
#    16  16  16  16   8  16
#     4  10  19  34  56  83 114 145 188 236 286 340
#     4   9  17  31  55  84 113 145 187 236 283 336
#     4   9  16  32  59  85 111 150 194 232 277 338
#     4  10  19  36  62  88 112 145 194 244 288 340
#     4  10  20  36  58  84 115 152 189 226 279 338
#     4  12  25  40  58  81 116 156 194 237 292 348
#
# _framework density 18.557919999999999
#
# number of rings (size 3 to 8) (size 9 to 14) (size 15 to 20)
#    0.000    2.000    2.727    2.182    0.000    1.455 
#    0.000    2.727    0.000    2.182    0.000    0.000 
#    0.000    0.000    0.000    0.000    0.000    0.000 
#
# Total GULP energy -545684.716587 kJ/mol
# GULP energy per Si atom -12401.925377 kJ/mol
# Density = 1.851568 g / cm^3
# Si number density = 18.557920 Si / 1000 Ang^3
#
#
#
# Elastic Constant Matrix: (Units=GPa)
#
#
# Indices 1 2 3 4 5 6 
#
# 1 139.4960 69.5189 45.1450 0.0000 0.0000 0.0000
# 2 69.5189 125.1957 47.7319 0.0000 0.0000 0.0000
# 3 45.1450 47.7319 87.5506 0.0000 0.0000 0.0000
# 4 0.0000 0.0000 0.0000 27.0953 0.0000 0.0000
# 5 0.0000 0.0000 0.0000 0.0000 29.9718 0.0000
# 6 0.0000 0.0000 0.0000 0.0000 0.0000 25.5374
#
#
#
# Elastic Compliance Matrix: (Units=1/GPa)
#
#
# Indices 1 2 3 4 5 6 
#
# 1 0.010429 -0.004723 -0.002803 0.000000 0.000000 0.000000
# 2 -0.004723 0.012222 -0.004228 0.000000 0.000000 0.000000
# 3 -0.002803 -0.004228 0.015173 0.000000 0.000000 0.000000
# 4 0.000000 0.000000 0.000000 0.036907 0.000000 0.000000
# 5 0.000000 0.000000 0.000000 0.000000 0.033365 0.000000
# 6 0.000000 0.000000 0.000000 0.000000 0.000000 0.039158
#
#
# Mechanical properties :
#
#
# Convention : Reuss Voigt Hill
#
# Bulk Modulus (GPa) = 69.85117 75.22599 72.53858
# Shear Modulus (GPa) = 28.48465 29.17731 28.83098
#
# Velocity S-wave (km/s) = 3.92204 3.96944 3.94581
# Velocity P-wave (km/s) = 7.63093 7.85063 7.74156
#
# Compressibility (1/GPa) = 0.01431615
#
# Stress axis : x y z
#
# Youngs Moduli (GPa) = 95.88326 81.82086 65.90851
#
# Poissons Ratio (x) = 0.38640 0.18475
# Poissons Ratio (y) = 0.45281 0.27867
# Poissons Ratio (z) = 0.26878 0.34595
#
# Static dielectric constant tensor:
#      x y z
#    x 3.631990 0.000000 0.000000 
#    y 0.000000 3.311830 0.000000 
#    z 0.000000 0.000000 3.217280 
# 
# 
# High freq. dielectric constant tensor:
#      x y z
#    x 1.736660 0.000000 0.000000 
#    y 0.000000 1.701800 0.000000 
#    z 0.000000 0.000000 1.699980 
# 
# From -- ./inp_files/14239.got.cif
#   From: 2010.03.12/outbox.cif.g09.slc.cpg/sg63_8_cif.got.tgz:14239.got - 2010.04.10 19:34:48.
