data_PCOD8257168
_publ_section_title
;
Structure prediction by ZEFSAII (Michael W. Deem and Ramdas Pophale) SiO2 
 PCOD8257168
Probable space group: C M C M
;
_chemical_formula_sum "Si O2"
_cell_formula_units_Z 112
_cell_length_a 8.421537
_cell_length_b 25.575042
_cell_length_c 25.677150
_cell_angle_alpha 90.000000
_cell_angle_beta 90.000000
_cell_angle_gamma 90.000000
_cell_volume 5530.374416
_symmetry_space_group_name_H-M "C M C M"
_symmetry_group_IT_number 63
_symmetry_cell_setting 'orthorhombic'
loop_
_space_group_symop_operation_xyz
x,y,z
-x,-y,1/2+z
x,-y,-z
-x,y,1/2-z
-x,-y,-z
x,y,1/2-z
-x,y,z
x,-y,1/2+z
1/2+x,1/2+y,z
1/2-x,1/2-y,1/2+z
1/2+x,1/2-y,-z
1/2-x,1/2+y,1/2-z
1/2-x,1/2-y,-z
1/2+x,1/2+y,1/2-z
1/2-x,1/2+y,z
1/2+x,1/2-y,1/2+z
loop_
_atom_site_type_symbol
_atom_site_label
_atom_site_fract_x
_atom_site_fract_y
_atom_site_fract_z
Si Si1 0.189064 0.518206 0.844823
Si Si2 0.187751 0.323307 0.892097
Si Si3 0.188120 0.628376 0.692649
Si Si4 0.188756 0.653892 0.992822
Si Si5 0.688465 0.211173 0.890965
Si Si6 0.689062 0.093463 0.308266
Si Si7 0.810692 0.458500 0.040651
O O1 0.253084 0.569232 0.814312
O O2 0.256887 0.464541 0.820484
O O3 0.251984 0.523433 0.903494
O O4 0.000000 0.516350 0.842920
O O5 0.236815 0.265856 0.873694
O O6 0.257054 0.365196 0.850549
O O7 0.000000 0.328330 0.893771
O O8 0.259072 0.333276 0.950021
O O9 0.238667 0.648344 0.750000
O O10 0.256355 0.667556 0.648965
O O11 0.000000 0.626780 0.686367
O O12 0.242654 0.696741 0.949906
O O13 0.256948 0.598263 0.974185
O O14 0.000000 0.651783 0.995519
O O15 0.500000 0.214761 0.887031
O O16 0.744427 0.109623 0.250000
O O17 0.500000 0.092755 0.311549
O O18 0.000000 0.456941 0.039989
O O19 0.742603 0.500000 0.000000
#
# Coordination Sequence:
#
# PCOD8257168 Si02
#       7
#    16  16  16  16  16  16  16
#     4   9  14  23  39  62  91 120 148 181 229 282
#     4  10  20  32  47  67  93 125 158 189 225 270
#     4   9  16  26  42  65  91 117 147 187 234 277
#     4   9  16  28  43  64  93 121 152 189 228 271
#     4  10  19  32  48  67  93 123 155 193 231 268
#     4   9  17  28  42  63  93 125 153 185 229 278
#     4   9  14  20  35  60  92 123 146 177 228 282
#
# _framework density 20.251792999999999
#
# number of rings (size 3 to 8) (size 9 to 14) (size 15 to 20)
#    0.000    2.714    1.429    1.714    0.000    5.714 
#    0.000    0.000    0.000    0.000    0.000    1.000 
#    0.000    4.571    0.000    0.000    0.000    0.000 
#
# Total GULP energy -694131.449577 kJ/mol
# GULP energy per Si atom -12395.204457 kJ/mol
# Density = 2.020570 g / cm^3
# Si number density = 20.251793 Si / 1000 Ang^3
#
#
#
# Elastic Constant Matrix: (Units=GPa)
#
#
# Indices 1 2 3 4 5 6 
#
# 1 2.0055 3.2665 6.3913 0.0000 0.0000 0.0000
# 2 3.2665 164.6274 84.8369 0.0000 0.0000 0.0000
# 3 6.3913 84.8369 178.7584 0.0000 0.0000 0.0000
# 4 0.0000 0.0000 0.0000 32.9002 0.0000 0.0000
# 5 0.0000 0.0000 0.0000 0.0000 4.8731 0.0000
# 6 0.0000 0.0000 0.0000 0.0000 0.0000 17.3162
#
#
#
# Elastic Compliance Matrix: (Units=1/GPa)
#
#
# Indices 1 2 3 4 5 6 
#
# 1 0.562895 -0.001056 -0.019625 0.000000 0.000000 0.000000
# 2 -0.001056 0.008043 -0.003779 0.000000 0.000000 0.000000
# 3 -0.019625 -0.003779 0.008089 0.000000 0.000000 0.000000
# 4 0.000000 0.000000 0.000000 0.030395 0.000000 0.000000
# 5 0.000000 0.000000 0.000000 0.000000 0.205209 0.000000
# 6 0.000000 0.000000 0.000000 0.000000 0.000000 0.057749
#
#
# Mechanical properties :
#
#
# Convention : Reuss Voigt Hill
#
# Bulk Modulus (GPa) = 1.88641 59.37562 30.63101
# Shear Modulus (GPa) = 4.55373 27.74434 16.14903
#
# Velocity S-wave (km/s) = 1.50114 3.70533 2.82691
# Velocity P-wave (km/s) = 1.98446 6.90567 5.08067
#
# Compressibility (1/GPa) = 0.53010803
#
# Stress axis : x y z
#
# Youngs Moduli (GPa) = 1.77653 124.33407 123.61826
#
# Poissons Ratio (x) = 0.13124 2.42597
# Poissons Ratio (y) = 0.00188 0.46719
# Poissons Ratio (z) = 0.03486 0.46990
#
# Static dielectric constant tensor:
#      x y z
#    x 2.778810 0.000000 0.000000 
#    y 0.000000 3.860540 0.000000 
#    z 0.000000 0.000000 4.002230 
# 
# 
# High freq. dielectric constant tensor:
#      x y z
#    x 1.700990 0.000000 0.000000 
#    y 0.000000 1.802350 0.000000 
#    z 0.000000 0.000000 1.806780 
# 
# From -- ./inp_files/61947.got.cif
#   From: 2010.03.12/outbox.cif.g09.slc.cpg/sg63_31_cif.got.tgz:61947.got - 2010.04.10 19:34:48.
