data_PCOD8257889
_publ_section_title
;
Structure prediction by ZEFSAII (Michael W. Deem and Ramdas Pophale) SiO2 
 PCOD8257889
Probable space group: C M C M
;
_chemical_formula_sum "Si O2"
_cell_formula_units_Z 72
_cell_length_a 14.414510
_cell_length_b 17.950297
_cell_length_c 15.105326
_cell_angle_alpha 90.000000
_cell_angle_beta 90.000000
_cell_angle_gamma 90.000000
_cell_volume 3908.423582
_symmetry_space_group_name_H-M "C M C M"
_symmetry_group_IT_number 63
_symmetry_cell_setting 'orthorhombic'
loop_
_space_group_symop_operation_xyz
x,y,z
-x,-y,1/2+z
x,-y,-z
-x,y,1/2-z
-x,-y,-z
x,y,1/2-z
-x,y,z
x,-y,1/2+z
1/2+x,1/2+y,z
1/2-x,1/2-y,1/2+z
1/2+x,1/2-y,-z
1/2-x,1/2+y,1/2-z
1/2-x,1/2-y,-z
1/2+x,1/2+y,1/2-z
1/2-x,1/2+y,z
1/2+x,1/2-y,1/2+z
loop_
_atom_site_type_symbol
_atom_site_label
_atom_site_fract_x
_atom_site_fract_y
_atom_site_fract_z
Si Si1 0.000000 0.647069 0.853775
Si Si2 0.196162 0.825198 0.009485
Si Si3 0.500000 0.539196 0.405205
Si Si4 0.000000 0.201825 0.034771
Si Si5 0.195956 0.417815 0.148414
Si Si6 0.695380 0.561955 0.150808
O O1 0.000000 0.724998 0.904715
O O2 0.090007 0.598334 0.880794
O O3 0.000000 0.665437 0.750000
O O4 0.232305 0.869566 0.092986
O O5 0.250000 0.750000 0.000000
O O6 0.089843 0.802317 0.027837
O O7 0.205739 0.871952 0.919047
O O8 0.500000 0.500000 0.500000
O O9 0.500000 0.628946 0.403789
O O10 0.403458 0.517391 0.357267
O O11 0.210903 0.395136 0.250000
O O12 0.220514 0.504378 0.132927
O O13 0.703695 0.594897 0.250000
#
# Coordination Sequence:
#
# PCOD8257889 Si02
#       6
#     8  16   8   8  16  16
#     4  10  20  36  58  84 113 148 199 247 283 338
#     4  11  21  36  58  83 117 149 192 243 293 347
#     4  10  19  34  57  85 118 147 185 240 297 354
#     4  10  20  34  55  84 113 144 190 237 291 344
#     4  10  21  38  58  83 114 152 194 240 293 350
#     4  10  21  36  57  85 117 154 193 235 293 352
#
# _framework density 18.421749999999999
#
# number of rings (size 3 to 8) (size 9 to 14) (size 15 to 20)
#    0.000    1.778    2.222    3.667    0.000    4.444 
#    0.000    5.000    0.000    0.000    0.000    0.000 
#    0.000    0.000    0.000    0.000    0.000    0.000 
#
# Total GULP energy -446238.981443 kJ/mol
# GULP energy per Si atom -12395.527262 kJ/mol
# Density = 1.837982 g / cm^3
# Si number density = 18.421750 Si / 1000 Ang^3
#
#
#
# Elastic Constant Matrix: (Units=GPa)
#
#
# Indices 1 2 3 4 5 6 
#
# 1 163.8937 62.8143 54.7076 0.0000 0.0000 0.0000
# 2 62.8143 99.8260 51.4388 0.0000 0.0000 0.0000
# 3 54.7076 51.4388 86.5318 0.0000 0.0000 0.0000
# 4 0.0000 0.0000 0.0000 24.8737 0.0000 0.0000
# 5 0.0000 0.0000 0.0000 0.0000 29.8089 0.0000
# 6 0.0000 0.0000 0.0000 0.0000 0.0000 35.3974
#
#
#
# Elastic Compliance Matrix: (Units=1/GPa)
#
#
# Indices 1 2 3 4 5 6 
#
# 1 0.008617 -0.003769 -0.003207 0.000000 0.000000 0.000000
# 2 -0.003769 0.016090 -0.007181 0.000000 0.000000 0.000000
# 3 -0.003207 -0.007181 0.017853 0.000000 0.000000 0.000000
# 4 0.000000 0.000000 0.000000 0.040203 0.000000 0.000000
# 5 0.000000 0.000000 0.000000 0.000000 0.033547 0.000000
# 6 0.000000 0.000000 0.000000 0.000000 0.000000 0.028251
#
#
# Mechanical properties :
#
#
# Convention : Reuss Voigt Hill
#
# Bulk Modulus (GPa) = 70.20605 76.46366 73.33485
# Shear Modulus (GPa) = 28.14938 30.10205 29.12572
#
# Velocity S-wave (km/s) = 3.91327 4.04672 3.98056
# Velocity P-wave (km/s) = 7.65581 7.96442 7.81164
#
# Compressibility (1/GPa) = 0.01424379
#
# Stress axis : x y z
#
# Youngs Moduli (GPa) = 116.05405 62.15124 56.01319
#
# Poissons Ratio (x) = 0.23428 0.17963
# Poissons Ratio (y) = 0.43746 0.40225
# Poissons Ratio (z) = 0.37218 0.44633
#
# Static dielectric constant tensor:
#      x y z
#    x 4.338030 0.000000 0.000000 
#    y 0.000000 2.749270 0.000000 
#    z 0.000000 0.000000 4.918950 
# 
# 
# High freq. dielectric constant tensor:
#      x y z
#    x 1.731730 0.000000 0.000000 
#    y 0.000000 1.708930 0.000000 
#    z 0.000000 0.000000 1.703500 
# 
# From -- ./inp_files/31493.got.cif
#   From: 2010.03.12/outbox.cif.g09.slc.cpg/sg63_16_cif.got.tgz:31493.got - 2010.04.10 19:34:48.
