data_PCOD8257739
_publ_section_title
;
Structure prediction by ZEFSAII (Michael W. Deem and Ramdas Pophale) SiO2 
 PCOD8257739
Probable space group: C M C M
;
_chemical_formula_sum "Si O2"
_cell_formula_units_Z 80
_cell_length_a 15.498885
_cell_length_b 18.290821
_cell_length_c 14.039579
_cell_angle_alpha 90.000000
_cell_angle_beta 90.000000
_cell_angle_gamma 90.000000
_cell_volume 3980.042782
_symmetry_space_group_name_H-M "C M C M"
_symmetry_group_IT_number 63
_symmetry_cell_setting 'orthorhombic'
loop_
_space_group_symop_operation_xyz
x,y,z
-x,-y,1/2+z
x,-y,-z
-x,y,1/2-z
-x,-y,-z
x,y,1/2-z
-x,y,z
x,-y,1/2+z
1/2+x,1/2+y,z
1/2-x,1/2-y,1/2+z
1/2+x,1/2-y,-z
1/2-x,1/2+y,1/2-z
1/2-x,1/2-y,-z
1/2+x,1/2+y,1/2-z
1/2-x,1/2+y,z
1/2+x,1/2-y,1/2+z
loop_
_atom_site_type_symbol
_atom_site_label
_atom_site_fract_x
_atom_site_fract_y
_atom_site_fract_z
Si Si1 0.905196 0.316046 0.549933
Si Si2 0.245088 0.420393 0.984075
Si Si3 0.905954 0.909029 0.641944
Si Si4 0.378141 0.757991 0.353679
Si Si5 0.694587 0.309619 0.358496
O O1 0.829217 0.374282 0.571154
O O2 0.915043 0.309830 0.435679
O O3 0.883306 0.236527 0.594933
O O4 0.000000 0.340628 0.589168
O O5 0.328114 0.438897 0.920229
O O6 0.202910 0.500000 0.000000
O O7 0.279865 0.380848 0.079873
O O8 0.887068 0.932347 0.750000
O O9 0.913685 0.822277 0.632008
O O10 0.000000 0.940639 0.609753
O O11 0.406233 0.789457 0.250000
O O12 0.274618 0.753783 0.360246
O O13 0.671367 0.333502 0.250000
#
# Coordination Sequence:
#
# PCOD8257739 Si02
#       5
#    16  16  16  16  16
#     4  11  21  36  59  87 119 154 196 241 287 341
#     4  11  23  39  58  85 123 160 193 234 288 353
#     4  10  19  33  57  85 110 143 190 243 294 340
#     4   9  16  31  57  84 109 138 184 247 295 327
#     4  10  20  37  58  83 112 149 197 243 291 340
#
# _framework density 20.100287000000002
#
# number of rings (size 3 to 8) (size 9 to 14) (size 15 to 20)
#    0.000    1.800    4.000    1.800    0.000    3.200 
#    0.000    0.000    0.000    0.000    0.000    5.600 
#    0.000    0.000    0.000    0.000    0.000    0.000 
#
# Total GULP energy -495616.034866 kJ/mol
# GULP energy per Si atom -12390.400872 kJ/mol
# Density = 2.005454 g / cm^3
# Si number density = 20.100287 Si / 1000 Ang^3
#
#
#
# Elastic Constant Matrix: (Units=GPa)
#
#
# Indices 1 2 3 4 5 6 
#
# 1 116.2704 27.9390 36.7501 0.0000 0.0000 0.0000
# 2 27.9390 82.3744 20.7138 0.0000 0.0000 0.0000
# 3 36.7501 20.7138 83.5240 0.0000 0.0000 0.0000
# 4 0.0000 0.0000 0.0000 10.8828 0.0000 0.0000
# 5 0.0000 0.0000 0.0000 0.0000 17.6039 0.0000
# 6 0.0000 0.0000 0.0000 0.0000 0.0000 2.6645
#
#
#
# Elastic Compliance Matrix: (Units=1/GPa)
#
#
# Indices 1 2 3 4 5 6 
#
# 1 0.010470 -0.002552 -0.003974 0.000000 0.000000 0.000000
# 2 -0.002552 0.013569 -0.002242 0.000000 0.000000 0.000000
# 3 -0.003974 -0.002242 0.014277 0.000000 0.000000 0.000000
# 4 0.000000 0.000000 0.000000 0.091888 0.000000 0.000000
# 5 0.000000 0.000000 0.000000 0.000000 0.056806 0.000000
# 6 0.000000 0.000000 0.000000 0.000000 0.000000 0.375310
#
#
# Mechanical properties :
#
#
# Convention : Reuss Voigt Hill
#
# Bulk Modulus (GPa) = 48.12287 50.33050 49.22669
# Shear Modulus (GPa) = 8.52105 19.34796 13.93450
#
# Velocity S-wave (km/s) = 2.06118 3.10590 2.63582
# Velocity P-wave (km/s) = 5.44591 6.16086 5.81439
#
# Compressibility (1/GPa) = 0.02078014
#
# Stress axis : x y z
#
# Youngs Moduli (GPa) = 95.51236 73.69719 70.04200
#
# Poissons Ratio (x) = 0.18806 0.27833
# Poissons Ratio (y) = 0.24373 0.15706
# Poissons Ratio (z) = 0.37955 0.16525
#
# Static dielectric constant tensor:
#      x y z
#    x 4.055290 0.000000 0.000000 
#    y 0.000000 3.184050 0.000000 
#    z 0.000000 0.000000 3.811590 
# 
# 
# High freq. dielectric constant tensor:
#      x y z
#    x 1.793180 0.000000 0.000000 
#    y 0.000000 1.737980 0.000000 
#    z 0.000000 0.000000 1.781040 
# 
# From -- ./inp_files/31628.got.cif
#   From: 2010.03.12/outbox.cif.g09.slc.cpg/sg63_16_cif.got.tgz:31628.got - 2010.04.10 19:34:48.
