data_PCOD8257925
_publ_section_title
;
Structure prediction by ZEFSAII (Michael W. Deem and Ramdas Pophale) SiO2 
 PCOD8257925
Probable space group: C M C M
;
_chemical_formula_sum "Si O2"
_cell_formula_units_Z 96
_cell_length_a 18.771071
_cell_length_b 11.083997
_cell_length_c 23.540267
_cell_angle_alpha 90.000000
_cell_angle_beta 90.000000
_cell_angle_gamma 90.000000
_cell_volume 4897.752516
_symmetry_space_group_name_H-M "C M C M"
_symmetry_group_IT_number 63
_symmetry_cell_setting 'orthorhombic'
loop_
_space_group_symop_operation_xyz
x,y,z
-x,-y,1/2+z
x,-y,-z
-x,y,1/2-z
-x,-y,-z
x,y,1/2-z
-x,y,z
x,-y,1/2+z
1/2+x,1/2+y,z
1/2-x,1/2-y,1/2+z
1/2+x,1/2-y,-z
1/2-x,1/2+y,1/2-z
1/2-x,1/2-y,-z
1/2+x,1/2+y,1/2-z
1/2-x,1/2+y,z
1/2+x,1/2-y,1/2+z
loop_
_atom_site_type_symbol
_atom_site_label
_atom_site_fract_x
_atom_site_fract_y
_atom_site_fract_z
Si Si1 0.804370 0.675721 0.250000
Si Si2 0.687339 0.123428 0.129374
Si Si3 0.309714 0.334259 0.047502
Si Si4 0.919709 0.181801 0.050121
Si Si5 0.844054 0.415136 0.448960
Si Si6 0.338756 0.458516 0.865843
Si Si7 0.191322 0.043847 0.750000
O O1 0.848626 0.656944 0.309242
O O2 0.777283 0.817529 0.250000
O O3 0.749965 0.562139 0.250000
O O4 0.664487 0.213287 0.079087
O O5 0.772735 0.135761 0.139322
O O6 0.666528 0.988728 0.109590
O O7 0.225565 0.336788 0.029125
O O8 0.312484 0.441410 0.091383
O O9 0.363368 0.364890 0.996512
O O10 0.908199 0.323112 0.062303
O O11 0.907184 0.110631 0.109250
O O12 0.000000 0.158394 0.029005
O O13 0.867740 0.500000 0.500000
O O14 0.357305 0.521518 0.805739
#
# Coordination Sequence:
#
# PCOD8257925 Si02
#       7
#     8  16  16  16  16  16   8
#     4  10  20  34  56  97 126 156 190 256 310 357
#     4  10  19  34  59  88 120 149 191 240 299 353
#     4  11  19  36  60  86 117 152 193 241 297 354
#     4  12  25  39  56  84 121 157 200 251 304 361
#     4  11  21  36  60  86 115 155 196 246 295 367
#     4  10  21  35  57  85 119 154 195 240 297 361
#     4  10  20  34  59  89 126 156 201 248 306 361
#
# _framework density 19.600826000000001
#
# number of rings (size 3 to 8) (size 9 to 14) (size 15 to 20)
#    0.000    1.333    5.000    3.000    0.000    1.667 
#    0.000    0.417    0.000    0.000    0.000    1.750 
#    0.000    0.000    0.000    0.000    0.000    0.000 
#
# Total GULP energy -594777.811860 kJ/mol
# GULP energy per Si atom -12391.204414 kJ/mol
# Density = 1.955621 g / cm^3
# Si number density = 19.600826 Si / 1000 Ang^3
#
#
#
# Elastic Constant Matrix: (Units=GPa)
#
#
# Indices 1 2 3 4 5 6 
#
# 1 58.7351 2.2615 15.9886 0.0000 0.0000 0.0000
# 2 2.2615 80.0721 23.2935 0.0000 0.0000 0.0000
# 3 15.9886 23.2935 111.3580 0.0000 0.0000 0.0000
# 4 0.0000 0.0000 0.0000 24.8796 0.0000 0.0000
# 5 0.0000 0.0000 0.0000 0.0000 11.2453 0.0000
# 6 0.0000 0.0000 0.0000 0.0000 0.0000 11.8390
#
#
#
# Elastic Compliance Matrix: (Units=1/GPa)
#
#
# Indices 1 2 3 4 5 6 
#
# 1 0.017723 0.000255 -0.002598 0.000000 0.000000 0.000000
# 2 0.000255 0.013302 -0.002819 0.000000 0.000000 0.000000
# 3 -0.002598 -0.002819 0.009943 0.000000 0.000000 0.000000
# 4 0.000000 0.000000 0.000000 0.040194 0.000000 0.000000
# 5 0.000000 0.000000 0.000000 0.000000 0.088926 0.000000
# 6 0.000000 0.000000 0.000000 0.000000 0.000000 0.084467
#
#
# Mechanical properties :
#
#
# Convention : Reuss Voigt Hill
#
# Bulk Modulus (GPa) = 32.63314 37.02804 34.83059
# Shear Modulus (GPa) = 18.17574 23.50088 20.83831
#
# Velocity S-wave (km/s) = 3.04845 3.46638 3.26411
# Velocity P-wave (km/s) = 5.39220 5.91211 5.65813
#
# Compressibility (1/GPa) = 0.03064369
#
# Stress axis : x y z
#
# Youngs Moduli (GPa) = 56.42386 75.17887 100.57581
#
# Poissons Ratio (x) = -0.01919 0.26130
# Poissons Ratio (y) = -0.01440 0.28353
# Poissons Ratio (z) = 0.14659 0.21193
#
# Static dielectric constant tensor:
#      x y z
#    x 2.912030 0.000000 0.000000 
#    y 0.000000 3.851260 0.000000 
#    z 0.000000 0.000000 4.070310 
# 
# 
# High freq. dielectric constant tensor:
#      x y z
#    x 1.680590 0.000000 0.000000 
#    y 0.000000 1.790190 0.000000 
#    z 0.000000 0.000000 1.780570 
# 
# From -- ./inp_files/63750.got.cif
#   From: 2010.03.12/outbox.cif.g09.slc.cpg/sg63_32_cif.got.tgz:63750.got - 2010.04.10 19:34:48.
