data_PCOD8257880
_publ_section_title
;
Structure prediction by ZEFSAII (Michael W. Deem and Ramdas Pophale) SiO2 
 PCOD8257880
Probable space group: C M C M
;
_chemical_formula_sum "Si O2"
_cell_formula_units_Z 80
_cell_length_a 9.183761
_cell_length_b 15.824902
_cell_length_c 28.663400
_cell_angle_alpha 90.000000
_cell_angle_beta 90.000000
_cell_angle_gamma 90.000000
_cell_volume 4165.712626
_symmetry_space_group_name_H-M "C M C M"
_symmetry_group_IT_number 63
_symmetry_cell_setting 'orthorhombic'
loop_
_space_group_symop_operation_xyz
x,y,z
-x,-y,1/2+z
x,-y,-z
-x,y,1/2-z
-x,-y,-z
x,y,1/2-z
-x,y,z
x,-y,1/2+z
1/2+x,1/2+y,z
1/2-x,1/2-y,1/2+z
1/2+x,1/2-y,-z
1/2-x,1/2+y,1/2-z
1/2-x,1/2-y,-z
1/2+x,1/2+y,1/2-z
1/2-x,1/2+y,z
1/2+x,1/2-y,1/2+z
loop_
_atom_site_type_symbol
_atom_site_label
_atom_site_fract_x
_atom_site_fract_y
_atom_site_fract_z
Si Si1 0.667511 0.787742 0.956126
Si Si2 0.327785 0.628390 0.196155
Si Si3 0.168595 0.778566 0.355665
Si Si4 0.831705 0.042882 0.452271
Si Si5 0.669061 0.535383 0.644285
O O1 0.500000 0.798570 0.970120
O O2 0.685868 0.727676 0.911463
O O3 0.733196 0.877102 0.941741
O O4 0.750000 0.750000 0.000000
O O5 0.283915 0.629962 0.250000
O O6 0.500000 0.632678 0.188332
O O7 0.260998 0.709398 0.171266
O O8 0.261656 0.541819 0.173990
O O9 0.229801 0.871931 0.341641
O O10 0.000000 0.767256 0.341546
O O11 0.000000 0.071500 0.455193
O O12 0.780678 0.000000 0.500000
O O13 0.804494 0.977238 0.410704
O O14 0.500000 0.536288 0.655903
#
# Coordination Sequence:
#
# PCOD8257880 Si02
#       5
#    16  16  16  16  16
#     4  11  22  35  54  83 119 155 196 240 288 347
#     4  10  21  38  60  85 113 148 192 240 291 347
#     4  10  21  38  60  86 115 151 195 240 285 344
#     4  10  19  34  57  82 112 151 194 238 286 342
#     4   9  18  35  58  82 112 150 190 232 283 342
#
# _framework density 19.204398000000001
#
# number of rings (size 3 to 8) (size 9 to 14) (size 15 to 20)
#    0.000    2.000    2.000    1.800    0.000    5.600 
#    0.000    4.000    0.000    0.000    0.000    0.000 
#    0.000    0.000    0.000    0.000    0.000    0.000 
#
# Total GULP energy -495953.295960 kJ/mol
# GULP energy per Si atom -12398.832399 kJ/mol
# Density = 1.916069 g / cm^3
# Si number density = 19.204398 Si / 1000 Ang^3
#
#
#
# Elastic Constant Matrix: (Units=GPa)
#
#
# Indices 1 2 3 4 5 6 
#
# 1 50.0534 35.5354 28.2353 0.0000 0.0000 0.0000
# 2 35.5354 166.4305 55.8405 0.0000 0.0000 0.0000
# 3 28.2353 55.8405 106.9213 0.0000 0.0000 0.0000
# 4 0.0000 0.0000 0.0000 29.2662 0.0000 0.0000
# 5 0.0000 0.0000 0.0000 0.0000 19.8048 0.0000
# 6 0.0000 0.0000 0.0000 0.0000 0.0000 29.0643
#
#
#
# Elastic Compliance Matrix: (Units=1/GPa)
#
#
# Indices 1 2 3 4 5 6 
#
# 1 0.025349 -0.003839 -0.004689 0.000000 0.000000 0.000000
# 2 -0.003839 0.007867 -0.003095 0.000000 0.000000 0.000000
# 3 -0.004689 -0.003095 0.012207 0.000000 0.000000 0.000000
# 4 0.000000 0.000000 0.000000 0.034169 0.000000 0.000000
# 5 0.000000 0.000000 0.000000 0.000000 0.050493 0.000000
# 6 0.000000 0.000000 0.000000 0.000000 0.000000 0.034407
#
#
# Mechanical properties :
#
#
# Convention : Reuss Voigt Hill
#
# Bulk Modulus (GPa) = 45.09093 62.51416 53.80255
# Shear Modulus (GPa) = 25.62400 29.21332 27.41866
#
# Velocity S-wave (km/s) = 3.65674 3.90446 3.78263
# Velocity P-wave (km/s) = 6.43113 7.27661 6.86690
#
# Compressibility (1/GPa) = 0.02217741
#
# Stress axis : x y z
#
# Youngs Moduli (GPa) = 39.44855 127.12119 81.91959
#
# Poissons Ratio (x) = 0.48804 0.38413
# Poissons Ratio (y) = 0.15145 0.25350
# Poissons Ratio (z) = 0.18498 0.39338
#
# Static dielectric constant tensor:
#      x y z
#    x 3.358380 0.000000 0.000000 
#    y 0.000000 3.958080 0.000000 
#    z 0.000000 0.000000 3.606450 
# 
# 
# High freq. dielectric constant tensor:
#      x y z
#    x 1.717250 0.000000 0.000000 
#    y 0.000000 1.762860 0.000000 
#    z 0.000000 0.000000 1.750340 
# 
# From -- ./inp_files/66634.got.cif
#   From: 2010.03.12/outbox.cif.g09.slc.cpg/sg63_34_cif.got.tgz:66634.got - 2010.04.10 19:34:48.
