data_PCOD8257956
_publ_section_title
;
Structure prediction by ZEFSAII (Michael W. Deem and Ramdas Pophale) SiO2 
 PCOD8257956
Probable space group: C M C M
;
_chemical_formula_sum "Si O2"
_cell_formula_units_Z 64
_cell_length_a 7.896084
_cell_length_b 13.833539
_cell_length_c 31.541838
_cell_angle_alpha 90.000000
_cell_angle_beta 90.000000
_cell_angle_gamma 90.000000
_cell_volume 3445.339755
_symmetry_space_group_name_H-M "C M C M"
_symmetry_group_IT_number 63
_symmetry_cell_setting 'orthorhombic'
loop_
_space_group_symop_operation_xyz
x,y,z
-x,-y,1/2+z
x,-y,-z
-x,y,1/2-z
-x,-y,-z
x,y,1/2-z
-x,y,z
x,-y,1/2+z
1/2+x,1/2+y,z
1/2-x,1/2-y,1/2+z
1/2+x,1/2-y,-z
1/2-x,1/2+y,1/2-z
1/2-x,1/2-y,-z
1/2+x,1/2+y,1/2-z
1/2-x,1/2+y,z
1/2+x,1/2-y,1/2+z
loop_
_atom_site_type_symbol
_atom_site_label
_atom_site_fract_x
_atom_site_fract_y
_atom_site_fract_z
Si Si1 0.683065 0.270983 0.337631
Si Si2 0.000000 0.394325 0.699813
Si Si3 0.500000 0.884248 0.199750
Si Si4 0.200561 0.608447 0.004905
Si Si5 0.306456 0.754186 0.430430
O O1 0.500000 0.323193 0.329237
O O2 0.700709 0.259622 0.387787
O O3 0.832671 0.331694 0.317002
O O4 0.668277 0.162427 0.317343
O O5 0.000000 0.392309 0.750000
O O6 0.000000 0.505018 0.683369
O O7 0.500000 0.879241 0.250000
O O8 0.263304 0.666166 0.963445
O O9 0.000000 0.616319 0.009760
O O10 0.264829 0.500000 0.000000
O O11 0.285532 0.649947 0.047477
O O12 0.500000 0.773792 0.418351
#
# Coordination Sequence:
#
# PCOD8257956 Si02
#       5
#    16   8   8  16  16
#     4  10  22  40  63  89 125 162 196 252 305 358
#     4   9  22  42  63  92 121 156 203 246 298 371
#     4  11  22  42  67  90 123 158 201 252 300 363
#     4   9  19  34  54  77 111 157 197 242 298 351
#     4  10  19  35  54  82 118 151 198 247 292 351
#
# _framework density 18.575817000000001
#
# number of rings (size 3 to 8) (size 9 to 14) (size 15 to 20)
#    0.750    1.500    1.250    1.500    0.000    3.500 
#    2.250    2.500    0.000    0.000    0.000    0.000 
#    0.000    0.000    0.000    0.000    0.000    0.000 
#
# Total GULP energy -396618.207687 kJ/mol
# GULP energy per Si atom -12394.318990 kJ/mol
# Density = 1.853354 g / cm^3
# Si number density = 18.575817 Si / 1000 Ang^3
#
#
#
# Elastic Constant Matrix: (Units=GPa)
#
#
# Indices 1 2 3 4 5 6 
#
# 1 104.4077 50.3737 41.5452 0.0000 0.0000 0.0000
# 2 50.3737 149.6013 52.8806 0.0000 0.0000 0.0000
# 3 41.5452 52.8806 107.2438 0.0000 0.0000 0.0000
# 4 0.0000 0.0000 0.0000 13.9855 0.0000 0.0000
# 5 0.0000 0.0000 0.0000 0.0000 25.4673 0.0000
# 6 0.0000 0.0000 0.0000 0.0000 0.0000 20.7333
#
#
#
# Elastic Compliance Matrix: (Units=1/GPa)
#
#
# Indices 1 2 3 4 5 6 
#
# 1 0.012333 -0.002984 -0.003306 0.000000 0.000000 0.000000
# 2 -0.002984 0.008817 -0.003192 0.000000 0.000000 0.000000
# 3 -0.003306 -0.003192 0.012179 0.000000 0.000000 0.000000
# 4 0.000000 0.000000 0.000000 0.071503 0.000000 0.000000
# 5 0.000000 0.000000 0.000000 0.000000 0.039266 0.000000
# 6 0.000000 0.000000 0.000000 0.000000 0.000000 0.048232
#
#
# Mechanical properties :
#
#
# Convention : Reuss Voigt Hill
#
# Bulk Modulus (GPa) = 69.61146 72.31686 70.96416
# Shear Modulus (GPa) = 23.13924 26.46744 24.80334
#
# Velocity S-wave (km/s) = 3.53323 3.77879 3.65807
# Velocity P-wave (km/s) = 7.36210 7.61933 7.49182
#
# Compressibility (1/GPa) = 0.01436545
#
# Stress axis : x y z
#
# Youngs Moduli (GPa) = 81.08176 113.41138 82.10712
#
# Poissons Ratio (x) = 0.33843 0.27147
# Poissons Ratio (y) = 0.24196 0.26207
# Poissons Ratio (z) = 0.26808 0.36198
#
# Static dielectric constant tensor:
#      x y z
#    x 3.334070 0.000000 0.000000 
#    y 0.000000 3.499510 0.000000 
#    z 0.000000 0.000000 3.449390 
# 
# 
# High freq. dielectric constant tensor:
#      x y z
#    x 1.718100 0.000000 0.000000 
#    y 0.000000 1.711220 0.000000 
#    z 0.000000 0.000000 1.729020 
# 
# From -- ./inp_files/66246.got.cif
#   From: 2010.03.12/outbox.cif.g09.slc.cpg/sg63_34_cif.got.tgz:66246.got - 2010.04.10 19:34:48.
