data_PCOD8257399
_publ_section_title
;
Structure prediction by ZEFSAII (Michael W. Deem and Ramdas Pophale) SiO2 
 PCOD8257399
Probable space group: C M C M
;
_chemical_formula_sum "Si O2"
_cell_formula_units_Z 112
_cell_length_a 13.071523
_cell_length_b 16.625211
_cell_length_c 28.641978
_cell_angle_alpha 90.000000
_cell_angle_beta 90.000000
_cell_angle_gamma 90.000000
_cell_volume 6224.383806
_symmetry_space_group_name_H-M "C M C M"
_symmetry_group_IT_number 63
_symmetry_cell_setting 'orthorhombic'
loop_
_space_group_symop_operation_xyz
x,y,z
-x,-y,1/2+z
x,-y,-z
-x,y,1/2-z
-x,-y,-z
x,y,1/2-z
-x,y,z
x,-y,1/2+z
1/2+x,1/2+y,z
1/2-x,1/2-y,1/2+z
1/2+x,1/2-y,-z
1/2-x,1/2+y,1/2-z
1/2-x,1/2-y,-z
1/2+x,1/2+y,1/2-z
1/2-x,1/2+y,z
1/2+x,1/2-y,1/2+z
loop_
_atom_site_type_symbol
_atom_site_label
_atom_site_fract_x
_atom_site_fract_y
_atom_site_fract_z
Si Si1 0.617040 0.748582 0.624431
Si Si2 0.805599 0.926525 0.124720
Si Si3 0.716582 0.287256 0.694849
Si Si4 0.224474 0.214700 0.050214
Si Si5 0.116813 0.323732 0.377128
Si Si6 0.384049 0.454104 0.548193
Si Si7 0.115371 0.044712 0.304384
O O1 0.500000 0.776067 0.626027
O O2 0.625259 0.652597 0.617337
O O3 0.670779 0.774411 0.673022
O O4 0.671987 0.792202 0.580834
O O5 0.685804 0.903915 0.123441
O O6 0.827270 0.991320 0.085417
O O7 0.832154 0.966078 0.174200
O O8 0.718774 0.270316 0.750000
O O9 0.637635 0.226290 0.670257
O O10 0.680259 0.376785 0.682608
O O11 0.143985 0.271141 0.077317
O O12 0.176529 0.128048 0.042804
O O13 0.250000 0.250000 0.000000
O O14 0.000000 0.351134 0.379160
O O15 0.382819 0.500000 0.500000
O O16 0.500000 0.436545 0.564446
O O17 0.113850 0.029295 0.250000
O O18 0.000000 0.056001 0.323615
#
# Coordination Sequence:
#
# PCOD8257399 Si02
#       7
#    16  16  16  16  16  16  16
#     4  10  21  35  53  78 108 143 177 214 263 316
#     4  10  20  34  52  77 108 134 169 217 261 312
#     4   9  19  35  55  79 105 136 180 225 260 308
#     4  10  21  37  57  80 107 136 176 221 259 310
#     4  10  21  36  55  78 106 142 177 212 261 316
#     4  11  21  34  56  81 104 134 172 217 267 311
#     4  10  19  32  53  78 103 133 171 219 270 311
#
# _framework density 17.993749000000001
#
# number of rings (size 3 to 8) (size 9 to 14) (size 15 to 20)
#    0.000    2.286    0.000    5.571    0.000    5.714 
#    0.000    2.857    0.000    2.571    0.000    0.000 
#    0.000    0.000    0.000    0.000    0.000    0.000 
#
# Total GULP energy -694410.750946 kJ/mol
# GULP energy per Si atom -12400.191981 kJ/mol
# Density = 1.795279 g / cm^3
# Si number density = 17.993749 Si / 1000 Ang^3
#
#
#
# Elastic Constant Matrix: (Units=GPa)
#
#
# Indices 1 2 3 4 5 6 
#
# 1 162.5597 57.2207 49.7508 0.0000 0.0000 0.0000
# 2 57.2207 108.9576 46.4852 0.0000 0.0000 0.0000
# 3 49.7508 46.4852 106.6353 0.0000 0.0000 0.0000
# 4 0.0000 0.0000 0.0000 33.3424 0.0000 0.0000
# 5 0.0000 0.0000 0.0000 0.0000 19.2159 0.0000
# 6 0.0000 0.0000 0.0000 0.0000 0.0000 18.5912
#
#
#
# Elastic Compliance Matrix: (Units=1/GPa)
#
#
# Indices 1 2 3 4 5 6 
#
# 1 0.007993 -0.003202 -0.002333 0.000000 0.000000 0.000000
# 2 -0.003202 0.012558 -0.003980 0.000000 0.000000 0.000000
# 3 -0.002333 -0.003980 0.012201 0.000000 0.000000 0.000000
# 4 0.000000 0.000000 0.000000 0.029992 0.000000 0.000000
# 5 0.000000 0.000000 0.000000 0.000000 0.052040 0.000000
# 6 0.000000 0.000000 0.000000 0.000000 0.000000 0.053789
#
#
# Mechanical properties :
#
#
# Convention : Reuss Voigt Hill
#
# Bulk Modulus (GPa) = 72.88231 76.11846 74.50039
# Shear Modulus (GPa) = 26.01761 29.20963 27.61362
#
# Velocity S-wave (km/s) = 3.80666 4.03342 3.92168
# Velocity P-wave (km/s) = 7.74035 8.00536 7.87397
#
# Compressibility (1/GPa) = 0.01372075
#
# Stress axis : x y z
#
# Youngs Moduli (GPa) = 125.11299 79.63279 81.95786
#
# Poissons Ratio (x) = 0.25499 0.19122
# Poissons Ratio (y) = 0.40063 0.32621
# Poissons Ratio (z) = 0.29191 0.31696
#
# Static dielectric constant tensor:
#      x y z
#    x 3.370050 0.000000 0.000000 
#    y 0.000000 3.055950 0.000000 
#    z 0.000000 0.000000 3.292490 
# 
# 
# High freq. dielectric constant tensor:
#      x y z
#    x 1.691570 0.000000 0.000000 
#    y 0.000000 1.694380 0.000000 
#    z 0.000000 0.000000 1.709530 
# 
# From -- ./inp_files/69385.got.cif
#   From: 2010.03.12/outbox.cif.g09.slc.cpg/sg63_35_cif.got.tgz:69385.got - 2010.04.10 19:34:48.
