data_PCOD8257834
_publ_section_title
;
Structure prediction by ZEFSAII (Michael W. Deem and Ramdas Pophale) SiO2 
 PCOD8257834
Probable space group: C M C M
;
_chemical_formula_sum "Si O2"
_cell_formula_units_Z 120
_cell_length_a 16.544115
_cell_length_b 19.366752
_cell_length_c 19.527212
_cell_angle_alpha 90.000000
_cell_angle_beta 90.000000
_cell_angle_gamma 90.000000
_cell_volume 6256.631441
_symmetry_space_group_name_H-M "C M C M"
_symmetry_group_IT_number 63
_symmetry_cell_setting 'orthorhombic'
loop_
_space_group_symop_operation_xyz
x,y,z
-x,-y,1/2+z
x,-y,-z
-x,y,1/2-z
-x,-y,-z
x,y,1/2-z
-x,y,z
x,-y,1/2+z
1/2+x,1/2+y,z
1/2-x,1/2-y,1/2+z
1/2+x,1/2-y,-z
1/2-x,1/2+y,1/2-z
1/2-x,1/2-y,-z
1/2+x,1/2+y,1/2-z
1/2-x,1/2+y,z
1/2+x,1/2-y,1/2+z
loop_
_atom_site_type_symbol
_atom_site_label
_atom_site_fract_x
_atom_site_fract_y
_atom_site_fract_z
Si Si1 0.406396 0.626027 0.455046
Si Si2 0.813633 0.479695 0.610944
Si Si3 0.764906 0.709575 0.674087
Si Si4 0.905768 0.615310 0.871678
Si Si5 0.174091 0.766225 0.453798
Si Si6 0.312945 0.500000 0.500000
Si Si7 0.909143 0.629243 0.467000
Si Si8 0.703253 0.630249 0.174389
O O1 0.500000 0.616326 0.443287
O O2 0.390505 0.695135 0.498356
O O3 0.369762 0.565980 0.500728
O O4 0.367110 0.621958 0.380486
O O5 0.863725 0.541643 0.647179
O O6 0.739887 0.511037 0.567901
O O7 0.872971 0.442438 0.558087
O O8 0.777454 0.423631 0.663912
O O9 0.733189 0.687842 0.750000
O O10 0.853866 0.675771 0.664393
O O11 0.701628 0.689108 0.613435
O O12 0.766828 0.791789 0.668619
O O13 0.000000 0.616315 0.846619
O O14 0.901371 0.630601 0.951703
O O15 0.250000 0.750000 0.500000
O O16 0.136385 0.693223 0.431762
O O17 0.000000 0.632765 0.441321
O O18 0.667496 0.616271 0.250000
#
# Coordination Sequence:
#
# PCOD8257834 Si02
#       8
#    16  16  16  16  16   8  16  16
#     4  11  22  36  59  89 116 147 192 251 308 346
#     4  11  19  36  59  87 120 160 200 243 295 351
#     4  11  23  39  59  83 118 162 202 242 293 356
#     4  11  22  35  57  91 130 160 192 243 308 365
#     4  12  19  37  60  87 113 151 202 251 288 351
#     4  10  19  34  55  82 114 152 192 244 289 350
#     4  11  20  32  56  92 123 149 191 251 307 351
#     4  10  22  39  60  84 116 160 205 242 289 356
#
# _framework density 19.179649000000001
#
# number of rings (size 3 to 8) (size 9 to 14) (size 15 to 20)
#    0.000    1.067    5.333    2.600    0.000    3.733 
#    0.000    1.333    0.000    3.600    0.000    0.000 
#    0.000    0.000    0.000    0.000    0.000    0.000 
#
# Total GULP energy -743793.735213 kJ/mol
# GULP energy per Si atom -12396.562254 kJ/mol
# Density = 1.913600 g / cm^3
# Si number density = 19.179649 Si / 1000 Ang^3
#
#
#
# Elastic Constant Matrix: (Units=GPa)
#
#
# Indices 1 2 3 4 5 6 
#
# 1 108.7926 35.0541 44.2620 0.0000 0.0000 0.0000
# 2 35.0541 92.7750 27.5563 0.0000 0.0000 0.0000
# 3 44.2620 27.5563 105.6585 0.0000 0.0000 0.0000
# 4 0.0000 0.0000 0.0000 12.2325 0.0000 0.0000
# 5 0.0000 0.0000 0.0000 0.0000 10.4581 0.0000
# 6 0.0000 0.0000 0.0000 0.0000 0.0000 12.7637
#
#
#
# Elastic Compliance Matrix: (Units=1/GPa)
#
#
# Indices 1 2 3 4 5 6 
#
# 1 0.011934 -0.003278 -0.004144 0.000000 0.000000 0.000000
# 2 -0.003278 0.012584 -0.001909 0.000000 0.000000 0.000000
# 3 -0.004144 -0.001909 0.011698 0.000000 0.000000 0.000000
# 4 0.000000 0.000000 0.000000 0.081750 0.000000 0.000000
# 5 0.000000 0.000000 0.000000 0.000000 0.095620 0.000000
# 6 0.000000 0.000000 0.000000 0.000000 0.000000 0.078347
#
#
# Mechanical properties :
#
#
# Convention : Reuss Voigt Hill
#
# Bulk Modulus (GPa) = 56.96665 57.88567 57.42616
# Shear Modulus (GPa) = 15.80039 20.44776 18.12407
#
# Velocity S-wave (km/s) = 2.87332 3.26869 3.07736
# Velocity P-wave (km/s) = 6.38546 6.67024 6.52940
#
# Compressibility (1/GPa) = 0.01755413
#
# Stress axis : x y z
#
# Youngs Moduli (GPa) = 83.79253 79.46371 85.48142
#
# Poissons Ratio (x) = 0.26050 0.35427
# Poissons Ratio (y) = 0.27469 0.16316
# Poissons Ratio (z) = 0.34727 0.15168
#
# Static dielectric constant tensor:
#      x y z
#    x 3.451780 0.000000 0.000000 
#    y 0.000000 3.382010 0.000000 
#    z 0.000000 0.000000 3.598340 
# 
# 
# High freq. dielectric constant tensor:
#      x y z
#    x 1.735470 0.000000 0.000000 
#    y 0.000000 1.756020 0.000000 
#    z 0.000000 0.000000 1.732610 
# 
# From -- ./inp_files/46171.got.cif
#   From: 2010.03.12/outbox.cif.g09.slc.cpg/sg63_24_cif.got.tgz:46171.got - 2010.04.10 19:34:48.
