data_PCOD8257255
_publ_section_title
;
Structure prediction by ZEFSAII (Michael W. Deem and Ramdas Pophale) SiO2 
 PCOD8257255
Probable space group: C M C M
;
_chemical_formula_sum "Si O2"
_cell_formula_units_Z 112
_cell_length_a 19.174002
_cell_length_b 12.303181
_cell_length_c 28.025936
_cell_angle_alpha 90.000000
_cell_angle_beta 90.000000
_cell_angle_gamma 90.000000
_cell_volume 6611.352413
_symmetry_space_group_name_H-M "C M C M"
_symmetry_group_IT_number 63
_symmetry_cell_setting 'orthorhombic'
loop_
_space_group_symop_operation_xyz
x,y,z
-x,-y,1/2+z
x,-y,-z
-x,y,1/2-z
-x,-y,-z
x,y,1/2-z
-x,y,z
x,-y,1/2+z
1/2+x,1/2+y,z
1/2-x,1/2-y,1/2+z
1/2+x,1/2-y,-z
1/2-x,1/2+y,1/2-z
1/2-x,1/2-y,-z
1/2+x,1/2+y,1/2-z
1/2-x,1/2+y,z
1/2+x,1/2-y,1/2+z
loop_
_atom_site_type_symbol
_atom_site_label
_atom_site_fract_x
_atom_site_fract_y
_atom_site_fract_z
Si Si1 0.699930 0.013014 0.305645
Si Si2 0.831897 0.282101 0.634650
Si Si3 0.078876 0.877323 0.304468
Si Si4 0.920780 0.631198 0.447847
Si Si5 0.176269 0.705125 0.637517
Si Si6 0.079473 0.377694 0.443497
Si Si7 0.853583 0.093179 0.196282
O O1 0.678554 0.014443 0.250000
O O2 0.660635 0.110750 0.332691
O O3 0.781919 0.028485 0.312951
O O4 0.676646 0.899168 0.328245
O O5 0.869881 0.184993 0.661080
O O6 0.867783 0.299530 0.583710
O O7 0.753288 0.245639 0.624558
O O8 0.100692 0.851685 0.250000
O O9 0.000000 0.841268 0.314639
O O10 0.085313 0.006666 0.313837
O O11 0.909452 0.664701 0.502745
O O12 0.904690 0.504898 0.440688
O O13 0.000000 0.656979 0.432223
O O14 0.134571 0.683952 0.589213
O O15 0.135700 0.802607 0.663374
O O16 0.000000 0.354315 0.426958
O O17 0.855242 0.137671 0.250000
#
# Coordination Sequence:
#
# PCOD8257255 Si02
#       7
#    16  16  16  16  16  16  16
#     4  10  19  32  50  76 108 138 171 219 262 302
#     4  11  20  32  55  81 106 132 178 221 264 307
#     4  10  20  34  51  74 108 145 179 212 249 307
#     4   9  18  35  57  77 101 134 170 214 268 321
#     4  11  20  32  55  79 106 136 175 219 265 306
#     4   9  19  36  56  76 101 134 171 213 267 324
#     4   9  19  33  49  72 104 144 181 205 246 311
#
# _framework density 16.940559
#
# number of rings (size 3 to 8) (size 9 to 14) (size 15 to 20)
#    0.000    2.143    2.857    2.143    0.000    2.286 
#    0.000    0.000    0.000    3.000    0.000    3.000 
#    0.000    0.000    0.000    0.000    0.000    0.000 
#
# Total GULP energy -694413.050347 kJ/mol
# GULP energy per Si atom -12400.233042 kJ/mol
# Density = 1.690200 g / cm^3
# Si number density = 16.940559 Si / 1000 Ang^3
#
#
#
# Elastic Constant Matrix: (Units=GPa)
#
#
# Indices 1 2 3 4 5 6 
#
# 1 72.8303 36.9856 54.2497 0.0000 0.0000 0.0000
# 2 36.9856 81.9407 51.9961 0.0000 0.0000 0.0000
# 3 54.2497 51.9961 106.9993 0.0000 0.0000 0.0000
# 4 0.0000 0.0000 0.0000 28.6843 0.0000 0.0000
# 5 0.0000 0.0000 0.0000 0.0000 28.9793 0.0000
# 6 0.0000 0.0000 0.0000 0.0000 0.0000 14.4567
#
#
#
# Elastic Compliance Matrix: (Units=1/GPa)
#
#
# Indices 1 2 3 4 5 6 
#
# 1 0.023077 -0.004326 -0.009598 0.000000 0.000000 0.000000
# 2 -0.004326 0.018456 -0.006775 0.000000 0.000000 0.000000
# 3 -0.009598 -0.006775 0.017505 0.000000 0.000000 0.000000
# 4 0.000000 0.000000 0.000000 0.034862 0.000000 0.000000
# 5 0.000000 0.000000 0.000000 0.000000 0.034507 0.000000
# 6 0.000000 0.000000 0.000000 0.000000 0.000000 0.069172
#
#
# Mechanical properties :
#
#
# Convention : Reuss Voigt Hill
#
# Bulk Modulus (GPa) = 56.69283 60.91479 58.80381
# Shear Modulus (GPa) = 20.42014 22.32667 21.37340
#
# Velocity S-wave (km/s) = 3.47565 3.63429 3.55585
# Velocity P-wave (km/s) = 7.04594 7.32439 7.18651
#
# Compressibility (1/GPa) = 0.01763891
#
# Stress axis : x y z
#
# Youngs Moduli (GPa) = 43.33389 54.18360 57.12761
#
# Poissons Ratio (x) = 0.23438 0.54832
# Poissons Ratio (y) = 0.18744 0.38706
# Poissons Ratio (z) = 0.41592 0.36712
#
# Static dielectric constant tensor:
#      x y z
#    x 3.094120 0.000000 0.000000 
#    y 0.000000 3.100430 0.000000 
#    z 0.000000 0.000000 3.151350 
# 
# 
# High freq. dielectric constant tensor:
#      x y z
#    x 1.648050 0.000000 0.000000 
#    y 0.000000 1.650240 0.000000 
#    z 0.000000 0.000000 1.649900 
# 
# From -- ./inp_files/64654.got.cif
#   From: 2010.03.12/outbox.cif.g09.slc.cpg/sg63_33_cif.got.tgz:64654.got - 2010.04.10 19:34:48.
