data_PCOD8257934
_publ_section_title
;
Structure prediction by ZEFSAII (Michael W. Deem and Ramdas Pophale) SiO2 
 PCOD8257934
Probable space group: C M C M
;
_chemical_formula_sum "Si O2"
_cell_formula_units_Z 96
_cell_length_a 15.641396
_cell_length_b 22.730676
_cell_length_c 13.670173
_cell_angle_alpha 90.000000
_cell_angle_beta 90.000000
_cell_angle_gamma 90.000000
_cell_volume 4860.286537
_symmetry_space_group_name_H-M "C M C M"
_symmetry_group_IT_number 63
_symmetry_cell_setting 'orthorhombic'
loop_
_space_group_symop_operation_xyz
x,y,z
-x,-y,1/2+z
x,-y,-z
-x,y,1/2-z
-x,-y,-z
x,y,1/2-z
-x,y,z
x,-y,1/2+z
1/2+x,1/2+y,z
1/2-x,1/2-y,1/2+z
1/2+x,1/2-y,-z
1/2-x,1/2+y,1/2-z
1/2-x,1/2-y,-z
1/2+x,1/2+y,1/2-z
1/2-x,1/2+y,z
1/2+x,1/2-y,1/2+z
loop_
_atom_site_type_symbol
_atom_site_label
_atom_site_fract_x
_atom_site_fract_y
_atom_site_fract_z
Si Si1 0.627176 0.748882 0.355423
Si Si2 0.400963 0.125481 0.136899
Si Si3 0.220591 0.837682 0.360851
Si Si4 0.401143 0.615147 0.140189
Si Si5 0.408554 0.751271 0.567588
Si Si6 0.248540 0.432019 0.520072
O O1 0.581452 0.763874 0.250000
O O2 0.715297 0.783276 0.360572
O O3 0.642145 0.679208 0.359455
O O4 0.575759 0.766149 0.452436
O O5 0.395485 0.109457 0.250000
O O6 0.500000 0.118542 0.099738
O O7 0.366426 0.191990 0.119011
O O8 0.335889 0.082944 0.081838
O O9 0.199145 0.857527 0.250000
O O10 0.139725 0.810041 0.416497
O O11 0.253402 0.894353 0.419691
O O12 0.401386 0.589315 0.250000
O O13 0.500000 0.616952 0.100822
O O14 0.339527 0.575393 0.074264
O O15 0.500000 0.741769 0.617476
O O16 0.239270 0.500000 0.500000
#
# Coordination Sequence:
#
# PCOD8257934 Si02
#       6
#    16  16  16  16  16  16
#     4  10  19  34  60  89 119 152 190 240 301 363
#     4  10  22  41  66  94 120 151 196 248 305 369
#     4  11  23  38  56  85 124 159 197 246 302 359
#     4  10  21  38  62  93 124 156 197 245 300 364
#     4  11  20  35  61  92 124 154 189 239 308 374
#     4  12  25  41  63  85 117 165 214 252 294 341
#
# _framework density 19.751920999999999
#
# number of rings (size 3 to 8) (size 9 to 14) (size 15 to 20)
#    0.000    1.333    3.333    3.000    0.000    5.333 
#    0.000    0.000    0.000    0.500    0.000    0.000 
#    0.000    0.000    0.000    0.000    0.000    0.000 
#
# Total GULP energy -594728.777995 kJ/mol
# GULP energy per Si atom -12390.182875 kJ/mol
# Density = 1.970696 g / cm^3
# Si number density = 19.751921 Si / 1000 Ang^3
#
#
#
# Elastic Constant Matrix: (Units=GPa)
#
#
# Indices 1 2 3 4 5 6 
#
# 1 91.4337 56.5349 53.5258 0.0000 0.0000 0.0000
# 2 56.5349 122.8685 48.4544 0.0000 0.0000 0.0000
# 3 53.5258 48.4544 131.8661 0.0000 0.0000 0.0000
# 4 0.0000 0.0000 0.0000 14.5012 0.0000 0.0000
# 5 0.0000 0.0000 0.0000 0.0000 -3.0164 0.0000
# 6 0.0000 0.0000 0.0000 0.0000 0.0000 8.3187
#
#
#
# Elastic Compliance Matrix: (Units=1/GPa)
#
#
# Indices 1 2 3 4 5 6 
#
# 1 0.017615 -0.006181 -0.004879 0.000000 0.000000 0.000000
# 2 -0.006181 0.011687 -0.001785 0.000000 0.000000 0.000000
# 3 -0.004879 -0.001785 0.010220 0.000000 0.000000 0.000000
# 4 0.000000 0.000000 0.000000 0.068960 0.000000 0.000000
# 5 0.000000 0.000000 0.000000 0.000000 -0.331524 0.000000
# 6 0.000000 0.000000 0.000000 0.000000 0.000000 0.120211
#
#
# Mechanical properties :
#
#
# Convention : Reuss Voigt Hill
#
# Bulk Modulus (GPa) = 72.30098 73.68875 72.99487
# Shear Modulus (GPa) = -68.93708 16.47091 -26.23309
#
# Velocity S-wave (km/s) = -5.91415 2.89085 -3.64830
# Velocity P-wave (km/s) = 3.15473 6.96640 4.39195
#
# Compressibility (1/GPa) = 0.01383107
#
# Stress axis : x y z
#
# Youngs Moduli (GPa) = 56.77050 85.56571 97.84860
#
# Poissons Ratio (x) = 0.52888 0.47738
# Poissons Ratio (y) = 0.35090 0.17470
# Poissons Ratio (z) = 0.27697 0.15277
#
# Static dielectric constant tensor:
#      x y z
#    x 3.705850 0.000000 0.000000 
#    y 0.000000 3.229420 0.000000 
#    z 0.000000 0.000000 3.974060 
# 
# 
# High freq. dielectric constant tensor:
#      x y z
#    x 1.775380 0.000000 0.000000 
#    y 0.000000 1.732300 0.000000 
#    z 0.000000 0.000000 1.785040 
# 
# From -- ./inp_files/31966.got.cif
#   From: 2010.03.12/outbox.cif.g09.slc.cpg/sg63_16_cif.got.tgz:31966.got - 2010.04.10 19:34:48.
