data_PCOD8257912
_publ_section_title
;
Structure prediction by ZEFSAII (Michael W. Deem and Ramdas Pophale) SiO2 
 PCOD8257912
Probable space group: C M C M
;
_chemical_formula_sum "Si O2"
_cell_formula_units_Z 96
_cell_length_a 8.900199
_cell_length_b 20.197939
_cell_length_c 27.584760
_cell_angle_alpha 90.000000
_cell_angle_beta 90.000000
_cell_angle_gamma 90.000000
_cell_volume 4958.793042
_symmetry_space_group_name_H-M "C M C M"
_symmetry_group_IT_number 63
_symmetry_cell_setting 'orthorhombic'
loop_
_space_group_symop_operation_xyz
x,y,z
-x,-y,1/2+z
x,-y,-z
-x,y,1/2-z
-x,-y,-z
x,y,1/2-z
-x,y,z
x,-y,1/2+z
1/2+x,1/2+y,z
1/2-x,1/2-y,1/2+z
1/2+x,1/2-y,-z
1/2-x,1/2+y,1/2-z
1/2-x,1/2-y,-z
1/2+x,1/2+y,1/2-z
1/2-x,1/2+y,z
1/2+x,1/2-y,1/2+z
loop_
_atom_site_type_symbol
_atom_site_label
_atom_site_fract_x
_atom_site_fract_y
_atom_site_fract_z
Si Si1 0.824232 0.834947 0.455022
Si Si2 0.670559 0.766702 0.305896
Si Si3 0.676288 0.508449 0.305504
Si Si4 0.826301 0.683738 0.447822
Si Si5 0.177001 0.393786 0.134192
Si Si6 0.325730 0.861292 0.658195
O O1 0.778115 0.760179 0.440040
O O2 0.771449 0.849432 0.509821
O O3 0.742080 0.886586 0.419801
O O4 0.000000 0.847213 0.450900
O O5 0.678827 0.786163 0.250000
O O6 0.500000 0.747444 0.320905
O O7 0.728080 0.830438 0.334929
O O8 0.782962 0.707279 0.316606
O O9 0.720932 0.493006 0.250000
O O10 0.500000 0.501369 0.313406
O O11 0.760199 0.459341 0.341304
O O12 0.724239 0.582604 0.318301
O O13 0.793871 0.642981 0.399172
O O14 0.000000 0.680805 0.463121
O O15 0.000000 0.401010 0.131238
O O16 0.500000 0.875892 0.668545
#
# Coordination Sequence:
#
# PCOD8257912 Si02
#       6
#    16  16  16  16  16  16
#     4  10  19  34  58  88 121 154 193 239 293 351
#     4  10  21  36  56  84 116 149 191 242 291 344
#     4  11  25  43  61  83 117 159 200 244 295 351
#     4   9  19  35  56  86 121 154 192 237 291 350
#     4  11  22  38  61  87 118 155 197 243 295 351
#     4  11  22  38  60  87 118 153 195 242 291 348
#
# _framework density 19.359549000000001
#
# number of rings (size 3 to 8) (size 9 to 14) (size 15 to 20)
#    0.000    1.667    1.667    3.000    0.000    7.000 
#    0.000    0.833    0.000    5.000    0.000    0.000 
#    0.000    0.000    0.000    0.000    0.000    0.000 
#
# Total GULP energy -595476.365125 kJ/mol
# GULP energy per Si atom -12405.757607 kJ/mol
# Density = 1.931549 g / cm^3
# Si number density = 19.359549 Si / 1000 Ang^3
#
#
#
# Elastic Constant Matrix: (Units=GPa)
#
#
# Indices 1 2 3 4 5 6 
#
# 1 66.5893 18.4135 31.6920 0.0000 0.0000 0.0000
# 2 18.4135 50.3028 4.4012 0.0000 0.0000 0.0000
# 3 31.6920 4.4012 67.0874 0.0000 0.0000 0.0000
# 4 0.0000 0.0000 0.0000 32.1564 0.0000 0.0000
# 5 0.0000 0.0000 0.0000 0.0000 35.1958 0.0000
# 6 0.0000 0.0000 0.0000 0.0000 0.0000 33.1264
#
#
#
# Elastic Compliance Matrix: (Units=1/GPa)
#
#
# Indices 1 2 3 4 5 6 
#
# 1 0.021606 -0.007056 -0.009744 0.000000 0.000000 0.000000
# 2 -0.007056 0.022299 0.001871 0.000000 0.000000 0.000000
# 3 -0.009744 0.001871 0.019386 0.000000 0.000000 0.000000
# 4 0.000000 0.000000 0.000000 0.031098 0.000000 0.000000
# 5 0.000000 0.000000 0.000000 0.000000 0.028412 0.000000
# 6 0.000000 0.000000 0.000000 0.000000 0.000000 0.030187
#
#
# Mechanical properties :
#
#
# Convention : Reuss Voigt Hill
#
# Bulk Modulus (GPa) = 29.91153 32.55475 31.23314
# Shear Modulus (GPa) = 25.77424 28.72727 27.25075
#
# Velocity S-wave (km/s) = 3.65272 3.85630 3.75589
# Velocity P-wave (km/s) = 5.76835 6.05643 5.91415
#
# Compressibility (1/GPa) = 0.03343193
#
# Stress axis : x y z
#
# Youngs Moduli (GPa) = 46.28338 44.84512 51.58330
#
# Poissons Ratio (x) = 0.31645 0.50261
# Poissons Ratio (y) = 0.32660 -0.09649
# Poissons Ratio (z) = 0.45097 -0.08389
#
# Static dielectric constant tensor:
#      x y z
#    x 3.572880 0.000000 0.000000 
#    y 0.000000 3.354710 0.000000 
#    z 0.000000 0.000000 3.653310 
# 
# 
# High freq. dielectric constant tensor:
#      x y z
#    x 1.761200 0.000000 0.000000 
#    y 0.000000 1.735010 0.000000 
#    z 0.000000 0.000000 1.766220 
# 
# From -- ./inp_files/66978.got.cif
#   From: 2010.03.12/outbox.cif.g09.slc.cpg/sg63_34_cif.got.tgz:66978.got - 2010.04.10 19:34:48.
