data_PCOD8257303
_publ_section_title
;
Structure prediction by ZEFSAII (Michael W. Deem and Ramdas Pophale) SiO2 
 PCOD8257303
Probable space group: C M C M
;
_chemical_formula_sum "Si O2"
_cell_formula_units_Z 112
_cell_length_a 21.443380
_cell_length_b 15.556431
_cell_length_c 18.285405
_cell_angle_alpha 90.000000
_cell_angle_beta 90.000000
_cell_angle_gamma 90.000000
_cell_volume 6099.690407
_symmetry_space_group_name_H-M "C M C M"
_symmetry_group_IT_number 63
_symmetry_cell_setting 'orthorhombic'
loop_
_space_group_symop_operation_xyz
x,y,z
-x,-y,1/2+z
x,-y,-z
-x,y,1/2-z
-x,-y,-z
x,y,1/2-z
-x,y,z
x,-y,1/2+z
1/2+x,1/2+y,z
1/2-x,1/2-y,1/2+z
1/2+x,1/2-y,-z
1/2-x,1/2+y,1/2-z
1/2-x,1/2-y,-z
1/2+x,1/2+y,1/2-z
1/2-x,1/2+y,z
1/2+x,1/2-y,1/2+z
loop_
_atom_site_type_symbol
_atom_site_label
_atom_site_fract_x
_atom_site_fract_y
_atom_site_fract_z
Si Si1 0.869504 0.816843 0.331427
Si Si2 0.707972 0.551530 0.901283
Si Si3 0.070841 0.235769 0.972376
Si Si4 0.071713 0.571457 0.439126
Si Si5 0.757163 0.307412 0.670251
Si Si6 0.176407 0.516490 0.330658
Si Si7 0.675673 0.632859 0.046729
O O1 0.897525 0.806651 0.250000
O O2 0.835742 0.908946 0.338220
O O3 0.924055 0.803594 0.390505
O O4 0.817665 0.746333 0.349622
O O5 0.780646 0.549198 0.876978
O O6 0.672611 0.461955 0.917925
O O7 0.711201 0.617465 0.969993
O O8 0.092512 0.335817 0.971101
O O9 0.000000 0.228981 0.998858
O O10 0.109662 0.178108 0.029760
O O11 0.081840 0.500000 0.500000
O O12 0.112757 0.543166 0.370107
O O13 0.000000 0.575917 0.412735
O O14 0.729010 0.278072 0.750000
O O15 0.777389 0.404777 0.678418
O O16 0.709205 0.301058 0.602608
O O17 0.159411 0.479533 0.250000
#
# Coordination Sequence:
#
# PCOD8257303 Si02
#       7
#    16  16  16  16  16  16  16
#     4  10  19  33  52  80 112 138 171 218 272 328
#     4   9  19  32  50  79 109 137 175 216 270 317
#     4  10  21  37  56  76 103 143 186 224 265 316
#     4  10  22  36  52  77 108 143 183 227 267 316
#     4   9  18  31  49  77 107 136 172 217 270 321
#     4  10  19  32  51  76 106 142 175 214 264 321
#     4   9  19  35  52  78 104 144 179 218 266 316
#
# _framework density 18.361588000000001
#
# number of rings (size 3 to 8) (size 9 to 14) (size 15 to 20)
#    0.000    2.429    1.429    0.429    4.000    4.571 
#    0.000    7.143    0.000    0.429    0.000    2.000 
#    0.000    0.000    0.000    0.000    0.000    0.000 
#
# Total GULP energy -693861.943433 kJ/mol
# GULP energy per Si atom -12390.391847 kJ/mol
# Density = 1.831980 g / cm^3
# Si number density = 18.361588 Si / 1000 Ang^3
#
#
#
# Elastic Constant Matrix: (Units=GPa)
#
#
# Indices 1 2 3 4 5 6 
#
# 1 80.7315 23.0388 46.2700 0.0000 0.0000 0.0000
# 2 23.0388 37.7418 20.9045 0.0000 0.0000 0.0000
# 3 46.2700 20.9045 91.5634 0.0000 0.0000 0.0000
# 4 0.0000 0.0000 0.0000 16.2313 0.0000 0.0000
# 5 0.0000 0.0000 0.0000 0.0000 5.8250 0.0000
# 6 0.0000 0.0000 0.0000 0.0000 0.0000 25.0319
#
#
#
# Elastic Compliance Matrix: (Units=1/GPa)
#
#
# Indices 1 2 3 4 5 6 
#
# 1 0.019001 -0.007190 -0.007960 0.000000 0.000000 0.000000
# 2 -0.007190 0.033052 -0.003913 0.000000 0.000000 0.000000
# 3 -0.007960 -0.003913 0.015837 0.000000 0.000000 0.000000
# 4 0.000000 0.000000 0.000000 0.061609 0.000000 0.000000
# 5 0.000000 0.000000 0.000000 0.000000 0.171674 0.000000
# 6 0.000000 0.000000 0.000000 0.000000 0.000000 0.039949
#
#
# Mechanical properties :
#
#
# Convention : Reuss Voigt Hill
#
# Bulk Modulus (GPa) = 33.59708 43.38482 38.49095
# Shear Modulus (GPa) = 12.84788 17.40587 15.12688
#
# Velocity S-wave (km/s) = 2.64808 3.08222 2.87336
# Velocity P-wave (km/s) = 5.26184 6.02877 5.65832
#
# Compressibility (1/GPa) = 0.02976449
#
# Stress axis : x y z
#
# Youngs Moduli (GPa) = 52.62930 30.25552 63.14206
#
# Poissons Ratio (x) = 0.21753 0.50263
# Poissons Ratio (y) = 0.37839 0.24706
# Poissons Ratio (z) = 0.41894 0.11838
#
# Static dielectric constant tensor:
#      x y z
#    x 3.124950 0.000000 0.000000 
#    y 0.000000 3.526110 0.000000 
#    z 0.000000 0.000000 3.731510 
# 
# 
# High freq. dielectric constant tensor:
#      x y z
#    x 1.681290 0.000000 0.000000 
#    y 0.000000 1.713140 0.000000 
#    z 0.000000 0.000000 1.716650 
# 
# From -- ./inp_files/47305.got.cif
#   From: 2010.03.12/outbox.cif.g09.slc.cpg/sg63_24_cif.got.tgz:47305.got - 2010.04.10 19:34:48.
