data_PCOD8257133
_publ_section_title
;
Structure prediction by ZEFSAII (Michael W. Deem and Ramdas Pophale) SiO2 
 PCOD8257133
Probable space group: C M C M
;
_chemical_formula_sum "Si O2"
_cell_formula_units_Z 80
_cell_length_a 9.035072
_cell_length_b 25.627354
_cell_length_c 19.207804
_cell_angle_alpha 90.000000
_cell_angle_beta 90.000000
_cell_angle_gamma 90.000000
_cell_volume 4447.470757
_symmetry_space_group_name_H-M "C M C M"
_symmetry_group_IT_number 63
_symmetry_cell_setting 'orthorhombic'
loop_
_space_group_symop_operation_xyz
x,y,z
-x,-y,1/2+z
x,-y,-z
-x,y,1/2-z
-x,-y,-z
x,y,1/2-z
-x,y,z
x,-y,1/2+z
1/2+x,1/2+y,z
1/2-x,1/2-y,1/2+z
1/2+x,1/2-y,-z
1/2-x,1/2+y,1/2-z
1/2-x,1/2-y,-z
1/2+x,1/2+y,1/2-z
1/2-x,1/2+y,z
1/2+x,1/2-y,1/2+z
loop_
_atom_site_type_symbol
_atom_site_label
_atom_site_fract_x
_atom_site_fract_y
_atom_site_fract_z
Si Si1 0.175454 0.390272 0.422579
Si Si2 0.826814 0.105677 0.430480
Si Si3 0.170253 0.195683 0.668177
Si Si4 0.837184 0.504564 0.417651
Si Si5 0.670824 0.300429 0.829905
O O1 0.245319 0.380799 0.498088
O O2 0.235870 0.348564 0.368899
O O3 0.217722 0.447605 0.391622
O O4 0.000000 0.384951 0.430461
O O5 0.775372 0.050515 0.397021
O O6 0.784603 0.149932 0.375408
O O7 0.000000 0.102577 0.445273
O O8 0.191780 0.187981 0.750000
O O9 0.230727 0.251945 0.644780
O O10 0.000000 0.191473 0.645481
O O11 0.848428 0.500000 0.500000
O O12 0.000000 0.517726 0.387004
O O13 0.704470 0.314681 0.750000
O O14 0.500000 0.285080 0.840505
#
# Coordination Sequence:
#
# PCOD8257133 Si02
#       5
#    16  16  16  16  16
#     4  10  20  34  53  75 102 136 169 203 247 301
#     4  10  19  31  52  79 103 130 167 211 253 292
#     4  10  21  36  54  76 100 128 166 211 254 295
#     4   8  16  31  49  71 100 133 167 202 245 297
#     4   9  19  36  54  72  99 135 169 201 247 305
#
# _framework density 17.987750999999999
#
# number of rings (size 3 to 8) (size 9 to 14) (size 15 to 20)
#    0.000    2.600    0.000    3.000    0.000    8.000 
#    0.000    1.000    0.000    3.600    0.000    0.000 
#    0.000    0.000    0.000    0.000    0.000    0.000 
#
# Total GULP energy -495942.993303 kJ/mol
# GULP energy per Si atom -12398.574833 kJ/mol
# Density = 1.794681 g / cm^3
# Si number density = 17.987751 Si / 1000 Ang^3
#
#
#
# Elastic Constant Matrix: (Units=GPa)
#
#
# Indices 1 2 3 4 5 6 
#
# 1 100.9543 79.6854 41.7126 0.0000 0.0000 0.0000
# 2 79.6854 166.0552 60.9786 0.0000 0.0000 0.0000
# 3 41.7126 60.9786 48.1582 0.0000 0.0000 0.0000
# 4 0.0000 0.0000 0.0000 -35.4362 0.0000 0.0000
# 5 0.0000 0.0000 0.0000 0.0000 21.1481 0.0000
# 6 0.0000 0.0000 0.0000 0.0000 0.0000 37.2995
#
#
#
# Elastic Compliance Matrix: (Units=1/GPa)
#
#
# Indices 1 2 3 4 5 6 
#
# 1 0.017637 -0.005334 -0.008523 0.000000 0.000000 0.000000
# 2 -0.005334 0.012869 -0.011675 0.000000 0.000000 0.000000
# 3 -0.008523 -0.011675 0.042930 0.000000 0.000000 0.000000
# 4 0.000000 0.000000 0.000000 -0.028220 0.000000 0.000000
# 5 0.000000 0.000000 0.000000 0.000000 0.047285 0.000000
# 6 0.000000 0.000000 0.000000 0.000000 0.000000 0.026810
#
#
# Mechanical properties :
#
#
# Convention : Reuss Voigt Hill
#
# Bulk Modulus (GPa) = 44.69688 75.54677 60.12183
# Shear Modulus (GPa) = 28.11653 13.45503 20.78578
#
# Velocity S-wave (km/s) = 3.95789 2.73795 3.40303
# Velocity P-wave (km/s) = 6.76675 7.21702 6.99551
#
# Compressibility (1/GPa) = 0.02237292
#
# Stress axis : x y z
#
# Youngs Moduli (GPa) = 56.69895 77.70702 23.29397
#
# Poissons Ratio (x) = 0.41448 0.19853
# Poissons Ratio (y) = 0.30242 0.27195
# Poissons Ratio (z) = 0.48323 0.90721
#
# Static dielectric constant tensor:
#      x y z
#    x 3.424910 0.000000 0.000000 
#    y 0.000000 3.724230 0.000000 
#    z 0.000000 0.000000 3.058110 
# 
# 
# High freq. dielectric constant tensor:
#      x y z
#    x 1.705700 0.000000 0.000000 
#    y 0.000000 1.710890 0.000000 
#    z 0.000000 0.000000 1.666770 
# 
# From -- ./inp_files/40485.got.cif
#   From: 2010.03.12/outbox.cif.g09.slc.cpg/sg63_21_cif.got.tgz:40485.got - 2010.04.10 19:34:48.
