data_PCOD8257329
_publ_section_title
;
Structure prediction by ZEFSAII (Michael W. Deem and Ramdas Pophale) SiO2 
 PCOD8257329
Probable space group: C M C M
;
_chemical_formula_sum "Si O2"
_cell_formula_units_Z 80
_cell_length_a 7.766680
_cell_length_b 28.781857
_cell_length_c 19.444851
_cell_angle_alpha 90.000000
_cell_angle_beta 90.000000
_cell_angle_gamma 90.000000
_cell_volume 4346.691748
_symmetry_space_group_name_H-M "C M C M"
_symmetry_group_IT_number 63
_symmetry_cell_setting 'orthorhombic'
loop_
_space_group_symop_operation_xyz
x,y,z
-x,-y,1/2+z
x,-y,-z
-x,y,1/2-z
-x,-y,-z
x,y,1/2-z
-x,y,z
x,-y,1/2+z
1/2+x,1/2+y,z
1/2-x,1/2-y,1/2+z
1/2+x,1/2-y,-z
1/2-x,1/2+y,1/2-z
1/2-x,1/2-y,-z
1/2+x,1/2+y,1/2-z
1/2-x,1/2+y,z
1/2+x,1/2-y,1/2+z
loop_
_atom_site_type_symbol
_atom_site_label
_atom_site_fract_x
_atom_site_fract_y
_atom_site_fract_z
Si Si1 0.191312 0.616178 0.828727
Si Si2 0.798730 0.300676 0.568989
Si Si3 0.500000 0.448960 0.831434
Si Si4 0.803269 0.617336 0.330180
Si Si5 0.500000 0.447592 0.168349
Si Si6 0.695429 0.303102 0.080257
O O1 0.235661 0.628934 0.750000
O O2 0.329288 0.579127 0.857707
O O3 0.192279 0.663084 0.872833
O O4 0.000000 0.594212 0.834421
O O5 0.754661 0.335535 0.630493
O O6 0.706235 0.317989 0.499677
O O7 0.732423 0.249315 0.589720
O O8 0.000000 0.298186 0.552959
O O9 0.500000 0.452379 0.750000
O O10 0.326510 0.422729 0.855887
O O11 0.500000 0.500625 0.863820
O O12 0.777345 0.628022 0.250000
O O13 0.000000 0.601678 0.345839
O O14 0.500000 0.451198 0.250000
O O15 0.500000 0.307034 0.105987
#
# Coordination Sequence:
#
# PCOD8257329 Si02
#       6
#    16  16   8  16   8  16
#     4  10  20  34  53  77 105 136 171 214 261 307
#     4   9  19  33  50  74 105 141 176 211 255 308
#     4   9  18  32  53  79 105 135 171 215 262 309
#     4   9  18  33  52  76 105 135 170 212 258 306
#     4   9  18  34  53  77 107 135 171 215 262 313
#     4  10  19  32  52  75 104 141 176 214 256 305
#
# _framework density 18.404800999999999
#
# number of rings (size 3 to 8) (size 9 to 14) (size 15 to 20)
#    0.000    2.600    1.000    0.600    1.400    2.400 
#    0.000    6.000    0.000    2.400    0.000    4.200 
#    0.000    0.000    0.000    0.000    0.000    0.000 
#
# Total GULP energy -495968.267088 kJ/mol
# GULP energy per Si atom -12399.206677 kJ/mol
# Density = 1.836291 g / cm^3
# Si number density = 18.404801 Si / 1000 Ang^3
#
#
#
# Elastic Constant Matrix: (Units=GPa)
#
#
# Indices 1 2 3 4 5 6 
#
# 1 107.6105 64.8375 32.0354 0.0000 0.0000 0.0000
# 2 64.8375 139.8931 53.5090 0.0000 0.0000 0.0000
# 3 32.0354 53.5090 53.8029 0.0000 0.0000 0.0000
# 4 0.0000 0.0000 0.0000 7.1164 0.0000 0.0000
# 5 0.0000 0.0000 0.0000 0.0000 21.9048 0.0000
# 6 0.0000 0.0000 0.0000 0.0000 0.0000 22.8563
#
#
#
# Elastic Compliance Matrix: (Units=1/GPa)
#
#
# Indices 1 2 3 4 5 6 
#
# 1 0.013160 -0.005007 -0.002856 0.000000 0.000000 0.000000
# 2 -0.005007 0.013442 -0.010387 0.000000 0.000000 0.000000
# 3 -0.002856 -0.010387 0.030618 0.000000 0.000000 0.000000
# 4 0.000000 0.000000 0.000000 0.140520 0.000000 0.000000
# 5 0.000000 0.000000 0.000000 0.000000 0.045652 0.000000
# 6 0.000000 0.000000 0.000000 0.000000 0.000000 0.043752
#
#
# Mechanical properties :
#
#
# Convention : Reuss Voigt Hill
#
# Bulk Modulus (GPa) = 48.26570 66.89671 57.58121
# Shear Modulus (GPa) = 15.12630 20.43716 17.78173
#
# Velocity S-wave (km/s) = 2.86993 3.33592 3.11166
# Velocity P-wave (km/s) = 6.10438 7.15990 6.65311
#
# Compressibility (1/GPa) = 0.02071865
#
# Stress axis : x y z
#
# Youngs Moduli (GPa) = 75.98947 74.39343 32.66085
#
# Poissons Ratio (x) = 0.37247 0.09328
# Poissons Ratio (y) = 0.38046 0.33926
# Poissons Ratio (z) = 0.21704 0.77276
#
# Static dielectric constant tensor:
#      x y z
#    x 3.511810 0.000000 0.000000 
#    y 0.000000 3.460340 0.000000 
#    z 0.000000 0.000000 3.102500 
# 
# 
# High freq. dielectric constant tensor:
#      x y z
#    x 1.726950 0.000000 0.000000 
#    y 0.000000 1.701950 0.000000 
#    z 0.000000 0.000000 1.684130 
# 
# From -- ./inp_files/50932.got.cif
#   From: 2010.03.12/outbox.cif.g09.slc.cpg/sg63_26_cif.got.tgz:50932.got - 2010.04.10 19:34:48.
