data_PCOD8257705
_publ_section_title
;
Structure prediction by ZEFSAII (Michael W. Deem and Ramdas Pophale) SiO2 
 PCOD8257705
Probable space group: C M C M
;
_chemical_formula_sum "Si O2"
_cell_formula_units_Z 96
_cell_length_a 18.128813
_cell_length_b 10.776769
_cell_length_c 28.598759
_cell_angle_alpha 90.000000
_cell_angle_beta 90.000000
_cell_angle_gamma 90.000000
_cell_volume 5587.340402
_symmetry_space_group_name_H-M "C M C M"
_symmetry_group_IT_number 63
_symmetry_cell_setting 'orthorhombic'
loop_
_space_group_symop_operation_xyz
x,y,z
-x,-y,1/2+z
x,-y,-z
-x,y,1/2-z
-x,-y,-z
x,y,1/2-z
-x,y,z
x,-y,1/2+z
1/2+x,1/2+y,z
1/2-x,1/2-y,1/2+z
1/2+x,1/2-y,-z
1/2-x,1/2+y,1/2-z
1/2-x,1/2-y,-z
1/2+x,1/2+y,1/2-z
1/2-x,1/2+y,z
1/2+x,1/2-y,1/2+z
loop_
_atom_site_type_symbol
_atom_site_label
_atom_site_fract_x
_atom_site_fract_y
_atom_site_fract_z
Si Si1 0.418535 0.741109 0.396479
Si Si2 0.275323 0.260469 0.656989
Si Si3 0.195091 0.689672 0.435473
Si Si4 0.194661 0.495731 0.696158
Si Si5 0.341144 0.370103 0.517150
Si Si6 0.582643 0.023502 0.384189
O O1 0.500000 0.695524 0.380549
O O2 0.360182 0.707964 0.355918
O O3 0.399136 0.681662 0.445982
O O4 0.418816 0.887229 0.405413
O O5 0.227414 0.240692 0.610060
O O6 0.249054 0.379557 0.686622
O O7 0.268102 0.129352 0.684289
O O8 0.260682 0.611577 0.459455
O O9 0.162169 0.786258 0.471463
O O10 0.128628 0.600996 0.421492
O O11 0.171973 0.495465 0.750000
O O12 0.120379 0.475701 0.666699
O O13 0.372310 0.500000 0.500000
O O14 0.500000 0.077838 0.378823
#
# Coordination Sequence:
#
# PCOD8257705 Si02
#       6
#    16  16  16  16  16  16
#     4   9  19  34  50  73 103 135 168 207 247 296
#     4   9  19  33  55  76 104 135 166 207 258 303
#     4   9  20  32  50  73 101 133 173 207 249 293
#     4  10  19  33  56  82 102 126 167 213 256 307
#     4  10  21  30  50  73 102 134 172 214 242 285
#     4   9  19  35  53  73 101 133 166 205 258 304
#
# _framework density 17.181699999999999
#
# number of rings (size 3 to 8) (size 9 to 14) (size 15 to 20)
#    0.000    2.667    0.000    0.500   14.000    1.333 
#    0.000    1.667    0.000    1.500    0.000    0.000 
#    0.000    0.000    0.000    0.000    0.000    0.000 
#
# Total GULP energy -595068.495014 kJ/mol
# GULP energy per Si atom -12397.260313 kJ/mol
# Density = 1.714259 g / cm^3
# Si number density = 17.181700 Si / 1000 Ang^3
#
#
#
# Elastic Constant Matrix: (Units=GPa)
#
#
# Indices 1 2 3 4 5 6 
#
# 1 118.5036 53.0301 38.8808 0.0000 0.0000 0.0000
# 2 53.0301 95.1138 50.2138 0.0000 0.0000 0.0000
# 3 38.8808 50.2138 101.6297 0.0000 0.0000 0.0000
# 4 0.0000 0.0000 0.0000 24.8527 0.0000 0.0000
# 5 0.0000 0.0000 0.0000 0.0000 11.1947 0.0000
# 6 0.0000 0.0000 0.0000 0.0000 0.0000 21.5552
#
#
#
# Elastic Compliance Matrix: (Units=1/GPa)
#
#
# Indices 1 2 3 4 5 6 
#
# 1 0.011447 -0.005507 -0.001659 0.000000 0.000000 0.000000
# 2 -0.005507 0.016873 -0.006230 0.000000 0.000000 0.000000
# 3 -0.001659 -0.006230 0.013552 0.000000 0.000000 0.000000
# 4 0.000000 0.000000 0.000000 0.040237 0.000000 0.000000
# 5 0.000000 0.000000 0.000000 0.000000 0.089328 0.000000
# 6 0.000000 0.000000 0.000000 0.000000 0.000000 0.046393
#
#
# Mechanical properties :
#
#
# Convention : Reuss Voigt Hill
#
# Bulk Modulus (GPa) = 66.30468 66.61072 66.45770
# Shear Modulus (GPa) = 20.02824 23.06200 21.54512
#
# Velocity S-wave (km/s) = 3.41790 3.66764 3.54497
# Velocity P-wave (km/s) = 7.36547 7.53578 7.45111
#
# Compressibility (1/GPa) = 0.01508189
#
# Stress axis : x y z
#
# Youngs Moduli (GPa) = 87.35999 59.26677 73.78802
#
# Poissons Ratio (x) = 0.32635 0.12238
# Poissons Ratio (y) = 0.48105 0.45970
# Poissons Ratio (z) = 0.14489 0.36923
#
# Static dielectric constant tensor:
#      x y z
#    x 3.328810 0.000000 0.000000 
#    y 0.000000 3.192990 0.000000 
#    z 0.000000 0.000000 3.141030 
# 
# 
# High freq. dielectric constant tensor:
#      x y z
#    x 1.656420 0.000000 0.000000 
#    y 0.000000 1.660730 0.000000 
#    z 0.000000 0.000000 1.660470 
# 
# From -- ./inp_files/69876.got.cif
#   From: 2010.03.12/outbox.cif.g09.slc.cpg/sg63_35_cif.got.tgz:69876.got - 2010.04.10 19:34:48.
