data_PCOD8257393
_publ_section_title
;
Structure prediction by ZEFSAII (Michael W. Deem and Ramdas Pophale) SiO2 
 PCOD8257393
Probable space group: C M C M
;
_chemical_formula_sum "Si O2"
_cell_formula_units_Z 96
_cell_length_a 18.505544
_cell_length_b 12.242936
_cell_length_c 22.432966
_cell_angle_alpha 90.000000
_cell_angle_beta 90.000000
_cell_angle_gamma 90.000000
_cell_volume 5082.461924
_symmetry_space_group_name_H-M "C M C M"
_symmetry_group_IT_number 63
_symmetry_cell_setting 'orthorhombic'
loop_
_space_group_symop_operation_xyz
x,y,z
-x,-y,1/2+z
x,-y,-z
-x,y,1/2-z
-x,-y,-z
x,y,1/2-z
-x,y,z
x,-y,1/2+z
1/2+x,1/2+y,z
1/2-x,1/2-y,1/2+z
1/2+x,1/2-y,-z
1/2-x,1/2+y,1/2-z
1/2-x,1/2-y,-z
1/2+x,1/2+y,1/2-z
1/2-x,1/2+y,z
1/2+x,1/2-y,1/2+z
loop_
_atom_site_type_symbol
_atom_site_label
_atom_site_fract_x
_atom_site_fract_y
_atom_site_fract_z
Si Si1 0.844955 0.167421 0.478361
Si Si2 0.916416 0.881640 0.859695
Si Si3 0.413316 0.240297 0.750000
Si Si4 0.084879 0.508858 0.250000
Si Si5 0.811971 0.608272 0.469149
Si Si6 0.916537 0.112295 0.602770
Si Si7 0.916306 0.649648 0.362626
O O1 0.903665 0.163748 0.426049
O O2 0.827159 0.293866 0.485790
O O3 0.773545 0.104692 0.454795
O O4 0.872887 0.116285 0.540441
O O5 0.881566 0.805142 0.808037
O O6 0.000000 0.879462 0.845477
O O7 0.889119 0.008219 0.858574
O O8 0.500000 0.236216 0.750000
O O9 0.382668 0.114876 0.750000
O O10 0.109567 0.581606 0.194249
O O11 0.000000 0.497134 0.250000
O O12 0.838427 0.500000 0.500000
O O13 0.861012 0.612267 0.411776
O O14 0.906297 0.219239 0.644214
O O15 0.000000 0.097342 0.584551
O O16 0.000000 0.623993 0.379389
#
# Coordination Sequence:
#
# PCOD8257393 Si02
#       7
#    16  16   8   8  16  16  16
#     4  10  20  34  52  77 107 137 170 210 260 312
#     4  10  19  32  53  77 106 138 170 212 255 302
#     4   9  20  33  48  77 105 136 176 208 255 310
#     4   9  18  35  54  71 103 138 170 216 261 304
#     4  10  21  34  51  76 104 136 171 210 258 307
#     4   9  17  31  53  81 106 132 173 214 257 308
#     4   9  19  34  53  77 101 134 176 216 256 303
#
# _framework density 18.888483999999998
#
# number of rings (size 3 to 8) (size 9 to 14) (size 15 to 20)
#    0.000    2.500    0.000    2.000    2.333    3.000 
#    0.000    4.167    0.000    0.000    0.000    0.000 
#    0.000    0.000    0.000    0.000    0.000    0.000 
#
# Total GULP energy -594817.383744 kJ/mol
# GULP energy per Si atom -12392.028828 kJ/mol
# Density = 1.884549 g / cm^3
# Si number density = 18.888484 Si / 1000 Ang^3
#
#
#
# Elastic Constant Matrix: (Units=GPa)
#
#
# Indices 1 2 3 4 5 6 
#
# 1 45.1983 37.4722 25.1608 0.0000 0.0000 0.0000
# 2 37.4722 153.3791 87.5285 0.0000 0.0000 0.0000
# 3 25.1608 87.5285 104.8020 0.0000 0.0000 0.0000
# 4 0.0000 0.0000 0.0000 32.3505 0.0000 0.0000
# 5 0.0000 0.0000 0.0000 0.0000 -19.5317 0.0000
# 6 0.0000 0.0000 0.0000 0.0000 0.0000 13.8257
#
#
#
# Elastic Compliance Matrix: (Units=1/GPa)
#
#
# Indices 1 2 3 4 5 6 
#
# 1 0.027946 -0.005729 -0.001924 0.000000 0.000000 0.000000
# 2 -0.005729 0.013632 -0.010009 0.000000 0.000000 0.000000
# 3 -0.001924 -0.010009 0.018363 0.000000 0.000000 0.000000
# 4 0.000000 0.000000 0.000000 0.030911 0.000000 0.000000
# 5 0.000000 0.000000 0.000000 0.000000 -0.051199 0.000000
# 6 0.000000 0.000000 0.000000 0.000000 0.000000 0.072329
#
#
# Mechanical properties :
#
#
# Convention : Reuss Voigt Hill
#
# Bulk Modulus (GPa) = 40.62557 67.07806 53.85182
# Shear Modulus (GPa) = 32.15172 15.54344 23.84758
#
# Velocity S-wave (km/s) = 4.13023 2.87175 3.55709
# Velocity P-wave (km/s) = 6.65582 6.82537 6.74113
#
# Compressibility (1/GPa) = 0.02461504
#
# Stress axis : x y z
#
# Youngs Moduli (GPa) = 35.78344 73.35936 54.45659
#
# Poissons Ratio (x) = 0.42031 0.10478
# Poissons Ratio (y) = 0.20502 0.54507
# Poissons Ratio (z) = 0.06885 0.73427
#
# Static dielectric constant tensor:
#      x y z
#    x 3.288890 0.000000 0.000000 
#    y 0.000000 3.999810 0.000000 
#    z 0.000000 0.000000 3.473830 
# 
# 
# High freq. dielectric constant tensor:
#      x y z
#    x 1.707720 0.000000 0.000000 
#    y 0.000000 1.756000 0.000000 
#    z 0.000000 0.000000 1.717210 
# 
# From -- ./inp_files/56608.got.cif
#   From: 2010.03.12/outbox.cif.g09.slc.cpg/sg63_29_cif.got.tgz:56608.got - 2010.04.10 19:34:48.
