data_PCOD8257187
_publ_section_title
;
Structure prediction by ZEFSAII (Michael W. Deem and Ramdas Pophale) SiO2 
 PCOD8257187
Probable space group: C M C M
;
_chemical_formula_sum "Si O2"
_cell_formula_units_Z 88
_cell_length_a 26.039282
_cell_length_b 18.503370
_cell_length_c 9.064525
_cell_angle_alpha 90.000000
_cell_angle_beta 90.000000
_cell_angle_gamma 90.000000
_cell_volume 4367.419303
_symmetry_space_group_name_H-M "C M C M"
_symmetry_group_IT_number 63
_symmetry_cell_setting 'orthorhombic'
loop_
_space_group_symop_operation_xyz
x,y,z
-x,-y,1/2+z
x,-y,-z
-x,y,1/2-z
-x,-y,-z
x,y,1/2-z
-x,y,z
x,-y,1/2+z
1/2+x,1/2+y,z
1/2-x,1/2-y,1/2+z
1/2+x,1/2-y,-z
1/2-x,1/2+y,1/2-z
1/2-x,1/2-y,-z
1/2+x,1/2+y,1/2-z
1/2-x,1/2+y,z
1/2+x,1/2-y,1/2+z
loop_
_atom_site_type_symbol
_atom_site_label
_atom_site_fract_x
_atom_site_fract_y
_atom_site_fract_z
Si Si1 0.345822 0.422561 0.924648
Si Si2 0.887978 0.423379 0.078480
Si Si3 0.115234 0.290426 0.588296
Si Si4 0.057971 0.824675 0.920751
Si Si5 0.000000 0.427628 0.415852
Si Si6 0.213254 0.804413 0.085639
O O1 0.337365 0.429796 0.750000
O O2 0.401235 0.387089 0.961847
O O3 0.345011 0.500000 0.000000
O O4 0.297836 0.376831 0.990856
O O5 0.873562 0.431429 0.250000
O O6 0.945774 0.389563 0.050843
O O7 0.878447 0.500000 0.000000
O O8 0.857992 0.358171 0.999893
O O9 0.096415 0.316877 0.750000
O O10 0.068598 0.250202 0.505748
O O11 0.159001 0.232319 0.606984
O O12 0.063163 0.804537 0.750000
O O13 0.000000 0.851312 0.958873
O O14 0.000000 0.500000 0.500000
O O15 0.000000 0.453721 0.250000
O O16 0.235497 0.823022 0.250000
O O17 0.250000 0.750000 0.000000
#
# Coordination Sequence:
#
# PCOD8257187 Si02
#       6
#    16  16  16  16   8  16
#     4  10  20  36  59  87 119 153 189 231 279 330
#     4  10  19  32  49  70 100 138 179 223 268 317
#     4  10  21  35  52  78 108 140 179 227 279 332
#     4   9  19  35  54  78 111 152 194 231 272 326
#     4   8  16  28  42  62  88 124 167 206 247 294
#     4  10  21  39  62  85 111 142 182 228 278 336
#
# _framework density 20.1492
#
# number of rings (size 3 to 8) (size 9 to 14) (size 15 to 20)
#    0.000    2.364    0.000    2.182    1.273    4.364 
#    0.000    0.909    0.000    4.364    0.000    0.000 
#    0.000    0.000    0.000    0.000    0.000    0.000 
#
# Total GULP energy -545080.922289 kJ/mol
# GULP energy per Si atom -12388.202779 kJ/mol
# Density = 2.010334 g / cm^3
# Si number density = 20.149200 Si / 1000 Ang^3
#
#
#
# Elastic Constant Matrix: (Units=GPa)
#
#
# Indices 1 2 3 4 5 6 
#
# 1 53.4250 26.9913 29.6477 0.0000 0.0000 0.0000
# 2 26.9913 147.6156 80.5129 0.0000 0.0000 0.0000
# 3 29.6477 80.5129 147.2551 0.0000 0.0000 0.0000
# 4 0.0000 0.0000 0.0000 39.2632 0.0000 0.0000
# 5 0.0000 0.0000 0.0000 0.0000 22.4147 0.0000
# 6 0.0000 0.0000 0.0000 0.0000 0.0000 21.2783
#
#
#
# Elastic Compliance Matrix: (Units=1/GPa)
#
#
# Indices 1 2 3 4 5 6 
#
# 1 0.021583 -0.002246 -0.003117 0.000000 0.000000 0.000000
# 2 -0.002246 0.009887 -0.004953 0.000000 0.000000 0.000000
# 3 -0.003117 -0.004953 0.010127 0.000000 0.000000 0.000000
# 4 0.000000 0.000000 0.000000 0.025469 0.000000 0.000000
# 5 0.000000 0.000000 0.000000 0.000000 0.044614 0.000000
# 6 0.000000 0.000000 0.000000 0.000000 0.000000 0.046996
#
#
# Mechanical properties :
#
#
# Convention : Reuss Voigt Hill
#
# Bulk Modulus (GPa) = 47.70411 69.17771 58.44091
# Shear Modulus (GPa) = 26.83896 30.66748 28.75322
#
# Velocity S-wave (km/s) = 3.65363 3.90554 3.78168
# Velocity P-wave (km/s) = 6.44403 7.39898 6.93796
#
# Compressibility (1/GPa) = 0.02096255
#
# Stress axis : x y z
#
# Youngs Moduli (GPa) = 46.33380 101.14525 98.74694
#
# Poissons Ratio (x) = 0.22718 0.30782
# Poissons Ratio (y) = 0.10407 0.48914
# Poissons Ratio (z) = 0.14443 0.50102
#
# Static dielectric constant tensor:
#      x y z
#    x 3.691480 0.000000 0.000000 
#    y 0.000000 3.531300 0.000000 
#    z 0.000000 0.000000 4.087850 
# 
# 
# High freq. dielectric constant tensor:
#      x y z
#    x 1.764380 0.000000 0.000000 
#    y 0.000000 1.783000 0.000000 
#    z 0.000000 0.000000 1.802430 
# 
# From -- ./inp_files/10221.got.cif
#   From: 2010.03.12/outbox.cif.g09.slc.cpg/sg63_6_cif.got.tgz:10221.got - 2010.04.10 19:34:48.
