data_PCOD8257092
_publ_section_title
;
Structure prediction by ZEFSAII (Michael W. Deem and Ramdas Pophale) SiO2 
 PCOD8257092
Probable space group: C M C M
;
_chemical_formula_sum "Si O2"
_cell_formula_units_Z 80
_cell_length_a 20.733320
_cell_length_b 14.333171
_cell_length_c 14.986980
_cell_angle_alpha 90.000000
_cell_angle_beta 90.000000
_cell_angle_gamma 90.000000
_cell_volume 4453.744106
_symmetry_space_group_name_H-M "C M C M"
_symmetry_group_IT_number 63
_symmetry_cell_setting 'orthorhombic'
loop_
_space_group_symop_operation_xyz
x,y,z
-x,-y,1/2+z
x,-y,-z
-x,y,1/2-z
-x,-y,-z
x,y,1/2-z
-x,y,z
x,-y,1/2+z
1/2+x,1/2+y,z
1/2-x,1/2-y,1/2+z
1/2+x,1/2-y,-z
1/2-x,1/2+y,1/2-z
1/2-x,1/2-y,-z
1/2+x,1/2+y,1/2-z
1/2-x,1/2+y,z
1/2+x,1/2-y,1/2+z
loop_
_atom_site_type_symbol
_atom_site_label
_atom_site_fract_x
_atom_site_fract_y
_atom_site_fract_z
Si Si1 0.241754 0.600132 0.041010
Si Si2 0.075693 0.355321 0.351971
Si Si3 0.347133 0.260035 0.978698
Si Si4 0.926590 0.260570 0.853125
Si Si5 0.626413 0.953807 0.648391
O O1 0.310104 0.649659 0.060519
O O2 0.199047 0.580479 0.128565
O O3 0.256600 0.500000 0.000000
O O4 0.201418 0.671475 0.978927
O O5 0.098299 0.339231 0.250000
O O6 0.096419 0.265646 0.409697
O O7 0.106596 0.448764 0.398679
O O8 0.000000 0.366933 0.357347
O O9 0.377734 0.287434 0.075945
O O10 0.904716 0.240637 0.750000
O O11 0.923693 0.371236 0.874418
O O12 0.000000 0.226265 0.867588
O O13 0.621071 0.980302 0.750000
#
# Coordination Sequence:
#
# PCOD8257092 Si02
#       5
#    16  16  16  16  16
#     4  10  19  34  49  70 101 133 173 215 246 301
#     4  10  19  31  50  78 108 135 167 208 259 316
#     4  10  20  32  51  74 101 136 171 208 259 302
#     4   9  17  30  49  73 100 129 167 213 260 310
#     4   9  17  30  48  73 102 133 166 206 260 312
#
# _framework density 17.962416000000001
#
# number of rings (size 3 to 8) (size 9 to 14) (size 15 to 20)
#    0.000    2.400    2.000    1.200    0.000    3.200 
#    0.000    7.000    0.000    2.400    0.000    2.800 
#    0.000    0.000    0.000    0.000    0.000    0.000 
#
# Total GULP energy -495591.110654 kJ/mol
# GULP energy per Si atom -12389.777766 kJ/mol
# Density = 1.792153 g / cm^3
# Si number density = 17.962416 Si / 1000 Ang^3
#
#
#
# Elastic Constant Matrix: (Units=GPa)
#
#
# Indices 1 2 3 4 5 6 
#
# 1 82.6966 32.1198 25.6036 0.0000 0.0000 0.0000
# 2 32.1198 55.0698 6.2913 0.0000 0.0000 0.0000
# 3 25.6036 6.2913 31.7879 0.0000 0.0000 0.0000
# 4 0.0000 0.0000 0.0000 12.5645 0.0000 0.0000
# 5 0.0000 0.0000 0.0000 0.0000 27.2046 0.0000
# 6 0.0000 0.0000 0.0000 0.0000 0.0000 25.2581
#
#
#
# Elastic Compliance Matrix: (Units=1/GPa)
#
#
# Indices 1 2 3 4 5 6 
#
# 1 0.020628 -0.010368 -0.014563 0.000000 0.000000 0.000000
# 2 -0.010368 0.023790 0.003642 0.000000 0.000000 0.000000
# 3 -0.014563 0.003642 0.042467 0.000000 0.000000 0.000000
# 4 0.000000 0.000000 0.000000 0.079589 0.000000 0.000000
# 5 0.000000 0.000000 0.000000 0.000000 0.036758 0.000000
# 6 0.000000 0.000000 0.000000 0.000000 0.000000 0.039591
#
#
# Mechanical properties :
#
#
# Convention : Reuss Voigt Hill
#
# Bulk Modulus (GPa) = 22.56903 33.06486 27.81694
# Shear Modulus (GPa) = 16.65720 20.04142 18.34931
#
# Velocity S-wave (km/s) = 3.04852 3.34390 3.19962
# Velocity P-wave (km/s) = 4.99832 5.77552 5.40092
#
# Compressibility (1/GPa) = 0.04430851
#
# Stress axis : x y z
#
# Youngs Moduli (GPa) = 48.47751 42.03495 23.54743
#
# Poissons Ratio (x) = 0.43581 0.34292
# Poissons Ratio (y) = 0.50260 -0.08577
# Poissons Ratio (z) = 0.70598 -0.15311
#
# Static dielectric constant tensor:
#      x y z
#    x 3.322960 0.000000 0.000000 
#    y 0.000000 3.114960 0.000000 
#    z 0.000000 0.000000 3.339140 
# 
# 
# High freq. dielectric constant tensor:
#      x y z
#    x 1.688310 0.000000 0.000000 
#    y 0.000000 1.660890 0.000000 
#    z 0.000000 0.000000 1.687190 
# 
# From -- ./inp_files/35096.got.cif
#   From: 2010.03.12/outbox.cif.g09.slc.cpg/sg63_18_cif.got.tgz:35096.got - 2010.04.10 19:34:48.
