data_PCOD8257835
_publ_section_title
;
Structure prediction by ZEFSAII (Michael W. Deem and Ramdas Pophale) SiO2 
 PCOD8257835
Probable space group: C M C M
;
_chemical_formula_sum "Si O2"
_cell_formula_units_Z 80
_cell_length_a 11.753116
_cell_length_b 20.562584
_cell_length_c 16.115181
_cell_angle_alpha 90.000000
_cell_angle_beta 90.000000
_cell_angle_gamma 90.000000
_cell_volume 3894.627263
_symmetry_space_group_name_H-M "C M C M"
_symmetry_group_IT_number 63
_symmetry_cell_setting 'orthorhombic'
loop_
_space_group_symop_operation_xyz
x,y,z
-x,-y,1/2+z
x,-y,-z
-x,y,1/2-z
-x,-y,-z
x,y,1/2-z
-x,y,z
x,-y,1/2+z
1/2+x,1/2+y,z
1/2-x,1/2-y,1/2+z
1/2+x,1/2-y,-z
1/2-x,1/2+y,1/2-z
1/2-x,1/2-y,-z
1/2+x,1/2+y,1/2-z
1/2-x,1/2+y,z
1/2+x,1/2-y,1/2+z
loop_
_atom_site_type_symbol
_atom_site_label
_atom_site_fract_x
_atom_site_fract_y
_atom_site_fract_z
Si Si1 0.720955 0.259682 0.094819
Si Si2 0.500000 0.479268 0.155916
Si Si3 0.500000 0.674110 0.654355
Si Si4 0.371695 0.127394 0.599466
Si Si5 0.254320 0.500250 0.903346
Si Si6 0.870033 0.373544 0.900658
O O1 0.606589 0.300693 0.103146
O O2 0.820623 0.304386 0.135259
O O3 0.701078 0.188469 0.135491
O O4 0.750000 0.250000 0.000000
O O5 0.500000 0.503214 0.250000
O O6 0.500000 0.402619 0.148966
O O7 0.388108 0.507837 0.112474
O O8 0.500000 0.698111 0.750000
O O9 0.500000 0.120127 0.632280
O O10 0.297422 0.066856 0.634922
O O11 0.367520 0.127954 0.500124
O O12 0.188363 0.438453 0.864449
O O13 0.229413 0.500000 0.000000
O O14 0.000000 0.369863 0.868848
#
# Coordination Sequence:
#
# PCOD8257835 Si02
#       6
#    16   8   8  16  16  16
#     4  10  19  34  57  87 115 149 198 243 287 349
#     4  11  23  39  57  79 115 153 195 241 292 357
#     4  11  22  39  63  87 117 157 199 245 301 367
#     4   9  17  30  51  82 116 143 180 239 287 335
#     4  10  19  34  55  83 108 146 191 237 288 347
#     4   9  17  30  52  82 113 141 179 235 291 332
#
# _framework density 20.541118999999998
#
# number of rings (size 3 to 8) (size 9 to 14) (size 15 to 20)
#    0.000    2.200    3.000    0.900    1.400    2.400 
#    1.800    1.000    0.000    3.600    0.000    0.000 
#    0.000    0.000    0.000    0.000    0.000    0.000 
#
# Total GULP energy -495747.617997 kJ/mol
# GULP energy per Si atom -12393.690450 kJ/mol
# Density = 2.049437 g / cm^3
# Si number density = 20.541119 Si / 1000 Ang^3
#
#
#
# Elastic Constant Matrix: (Units=GPa)
#
#
# Indices 1 2 3 4 5 6 
#
# 1 169.3466 84.5977 8.9113 0.0000 0.0000 0.0000
# 2 84.5977 177.0333 7.4976 0.0000 0.0000 0.0000
# 3 8.9113 7.4976 24.2127 0.0000 0.0000 0.0000
# 4 0.0000 0.0000 0.0000 4.9659 0.0000 0.0000
# 5 0.0000 0.0000 0.0000 0.0000 4.3655 0.0000
# 6 0.0000 0.0000 0.0000 0.0000 0.0000 51.4409
#
#
#
# Elastic Compliance Matrix: (Units=1/GPa)
#
#
# Indices 1 2 3 4 5 6 
#
# 1 0.007829 -0.003667 -0.001746 0.000000 0.000000 0.000000
# 2 -0.003667 0.007442 -0.000955 0.000000 0.000000 0.000000
# 3 -0.001746 -0.000955 0.042239 0.000000 0.000000 0.000000
# 4 0.000000 0.000000 0.000000 0.201375 0.000000 0.000000
# 5 0.000000 0.000000 0.000000 0.000000 0.229069 0.000000
# 6 0.000000 0.000000 0.000000 0.000000 0.000000 0.019440
#
#
# Mechanical properties :
#
#
# Convention : Reuss Voigt Hill
#
# Bulk Modulus (GPa) = 22.33440 63.62285 42.97862
# Shear Modulus (GPa) = 9.34487 30.12685 19.73586
#
# Velocity S-wave (km/s) = 2.13523 3.83386 3.10304
# Velocity P-wave (km/s) = 4.12014 7.11608 5.81439
#
# Compressibility (1/GPa) = 0.04477398
#
# Stress axis : x y z
#
# Youngs Moduli (GPa) = 127.73224 134.38145 23.67491
#
# Poissons Ratio (x) = 0.49280 0.04133
# Poissons Ratio (y) = 0.46842 0.02260
# Poissons Ratio (z) = 0.22299 0.12828
#
# Static dielectric constant tensor:
#      x y z
#    x 3.884120 0.000000 0.000000 
#    y 0.000000 4.294510 0.000000 
#    z 0.000000 0.000000 3.122160 
# 
# 
# High freq. dielectric constant tensor:
#      x y z
#    x 1.812360 0.000000 0.000000 
#    y 0.000000 1.819720 0.000000 
#    z 0.000000 0.000000 1.744350 
# 
# From -- ./inp_files/42157.got.cif
#   From: 2010.03.12/outbox.cif.g09.slc.cpg/sg63_22_cif.got.tgz:42157.got - 2010.04.10 19:34:48.
