data_PCOD8257422
_publ_section_title
;
Structure prediction by ZEFSAII (Michael W. Deem and Ramdas Pophale) SiO2 
 PCOD8257422
Probable space group: C M C M
;
_chemical_formula_sum "Si O2"
_cell_formula_units_Z 112
_cell_length_a 16.391862
_cell_length_b 12.152362
_cell_length_c 29.439125
_cell_angle_alpha 90.000000
_cell_angle_beta 90.000000
_cell_angle_gamma 90.000000
_cell_volume 5864.269016
_symmetry_space_group_name_H-M "C M C M"
_symmetry_group_IT_number 63
_symmetry_cell_setting 'orthorhombic'
loop_
_space_group_symop_operation_xyz
x,y,z
-x,-y,1/2+z
x,-y,-z
-x,y,1/2-z
-x,-y,-z
x,y,1/2-z
-x,y,z
x,-y,1/2+z
1/2+x,1/2+y,z
1/2-x,1/2-y,1/2+z
1/2+x,1/2-y,-z
1/2-x,1/2+y,1/2-z
1/2-x,1/2-y,-z
1/2+x,1/2+y,1/2-z
1/2-x,1/2+y,z
1/2+x,1/2-y,1/2+z
loop_
_atom_site_type_symbol
_atom_site_label
_atom_site_fract_x
_atom_site_fract_y
_atom_site_fract_z
Si Si1 0.667610 0.938329 0.547121
Si Si2 0.407040 0.548803 0.609804
Si Si3 0.905274 0.209294 0.964125
Si Si4 0.657912 0.651602 0.440780
Si Si5 0.403588 0.790748 0.299263
Si Si6 0.403082 0.130487 0.895026
Si Si7 0.097283 0.043361 0.200280
O O1 0.604356 0.839811 0.538720
O O2 0.750115 0.888356 0.567693
O O3 0.683776 0.000000 0.500000
O O4 0.627726 0.016274 0.584766
O O5 0.500000 0.580575 0.617673
O O6 0.367897 0.648827 0.580823
O O7 0.403015 0.434737 0.582178
O O8 0.365864 0.533277 0.659834
O O9 0.000000 0.180708 0.970858
O O10 0.855585 0.157227 0.005461
O O11 0.643248 0.771373 0.420180
O O12 0.372002 0.836642 0.250000
O O13 0.500000 0.782611 0.297432
O O14 0.378158 0.867808 0.341547
O O15 0.369155 0.667244 0.306713
O O16 0.500000 0.143350 0.902388
O O17 0.124154 0.998168 0.250000
O O18 0.000000 0.045072 0.196388
#
# Coordination Sequence:
#
# PCOD8257422 Si02
#       7
#    16  16  16  16  16  16  16
#     4  12  26  39  56  79 118 157 194 232 289 345
#     4  10  19  32  53  81 111 142 183 235 289 339
#     4  11  23  38  57  79 111 152 197 240 278 340
#     4  12  23  36  57  82 113 149 189 236 289 339
#     4   8  14  28  54  87 114 138 183 243 286 322
#     4  11  22  38  63  88 114 152 195 237 283 338
#     4   8  13  24  46  79 112 138 174 233 292 334
#
# _framework density 19.098714999999999
#
# number of rings (size 3 to 8) (size 9 to 14) (size 15 to 20)
#    0.000    1.714    2.857    4.286    2.000    1.714 
#    0.000    0.000    0.000    2.571    0.000    4.000 
#    0.000    0.000    0.000    0.000    0.000    0.000 
#
# Total GULP energy -694101.728885 kJ/mol
# GULP energy per Si atom -12394.673730 kJ/mol
# Density = 1.905525 g / cm^3
# Si number density = 19.098715 Si / 1000 Ang^3
#
#
#
# Elastic Constant Matrix: (Units=GPa)
#
#
# Indices 1 2 3 4 5 6 
#
# 1 44.7725 16.7512 28.0067 0.0000 0.0000 0.0000
# 2 16.7512 88.1267 60.6259 0.0000 0.0000 0.0000
# 3 28.0067 60.6259 179.1740 0.0000 0.0000 0.0000
# 4 0.0000 0.0000 0.0000 30.6998 0.0000 0.0000
# 5 0.0000 0.0000 0.0000 0.0000 6.9433 0.0000
# 6 0.0000 0.0000 0.0000 0.0000 0.0000 25.3675
#
#
#
# Elastic Compliance Matrix: (Units=1/GPa)
#
#
# Indices 1 2 3 4 5 6 
#
# 1 0.025245 -0.002716 -0.003027 0.000000 0.000000 0.000000
# 2 -0.002716 0.015082 -0.004679 0.000000 0.000000 0.000000
# 3 -0.003027 -0.004679 0.007637 0.000000 0.000000 0.000000
# 4 0.000000 0.000000 0.000000 0.032573 0.000000 0.000000
# 5 0.000000 0.000000 0.000000 0.000000 0.144024 0.000000
# 6 0.000000 0.000000 0.000000 0.000000 0.000000 0.039421
#
#
# Mechanical properties :
#
#
# Convention : Reuss Voigt Hill
#
# Bulk Modulus (GPa) = 36.87209 58.09343 47.48276
# Shear Modulus (GPa) = 17.01455 26.38141 21.69798
#
# Velocity S-wave (km/s) = 2.98799 3.72064 3.37426
# Velocity P-wave (km/s) = 5.59036 6.99579 6.33218
#
# Compressibility (1/GPa) = 0.02712078
#
# Stress axis : x y z
#
# Youngs Moduli (GPa) = 39.61202 66.30297 130.93430
#
# Poissons Ratio (x) = 0.18009 0.39633
# Poissons Ratio (y) = 0.10759 0.61261
# Poissons Ratio (z) = 0.11990 0.31021
#
# Static dielectric constant tensor:
#      x y z
#    x 3.098590 0.000000 0.000000 
#    y 0.000000 3.443240 0.000000 
#    z 0.000000 0.000000 4.151510 
# 
# 
# High freq. dielectric constant tensor:
#      x y z
#    x 1.706100 0.000000 0.000000 
#    y 0.000000 1.727330 0.000000 
#    z 0.000000 0.000000 1.757410 
# 
# From -- ./inp_files/73413.got.cif
#   From: 2010.03.12/outbox.cif.g09.slc.cpg/sg63_37_cif.got.tgz:73413.got - 2010.04.10 19:34:48.
