data_PCOD8257591
_publ_section_title
;
Structure prediction by ZEFSAII (Michael W. Deem and Ramdas Pophale) SiO2 
 PCOD8257591
Probable space group: C M C M
;
_chemical_formula_sum "Si O2"
_cell_formula_units_Z 64
_cell_length_a 13.669404
_cell_length_b 26.789855
_cell_length_c 9.722072
_cell_angle_alpha 90.000000
_cell_angle_beta 90.000000
_cell_angle_gamma 90.000000
_cell_volume 3560.235902
_symmetry_space_group_name_H-M "C M C M"
_symmetry_group_IT_number 63
_symmetry_cell_setting 'orthorhombic'
loop_
_space_group_symop_operation_xyz
x,y,z
-x,-y,1/2+z
x,-y,-z
-x,y,1/2-z
-x,-y,-z
x,y,1/2-z
-x,y,z
x,-y,1/2+z
1/2+x,1/2+y,z
1/2-x,1/2-y,1/2+z
1/2+x,1/2-y,-z
1/2-x,1/2+y,1/2-z
1/2-x,1/2-y,-z
1/2+x,1/2+y,1/2-z
1/2-x,1/2+y,z
1/2+x,1/2-y,1/2+z
loop_
_atom_site_type_symbol
_atom_site_label
_atom_site_fract_x
_atom_site_fract_y
_atom_site_fract_z
Si Si1 0.212807 0.549227 0.591700
Si Si2 0.616489 0.197406 0.750000
Si Si3 0.765609 0.844924 0.038740
Si Si4 0.500000 0.954655 0.097840
Si Si5 0.612987 0.710324 0.750000
Si Si6 0.732729 0.293909 0.750000
O O1 0.231251 0.500000 0.500000
O O2 0.233130 0.534399 0.750000
O O3 0.280672 0.595109 0.545313
O O4 0.102893 0.573419 0.573514
O O5 0.500000 0.187214 0.750000
O O6 0.665896 0.172868 0.885067
O O7 0.639189 0.256708 0.750000
O O8 0.858481 0.820586 0.114192
O O9 0.767517 0.829287 0.881382
O O10 0.500000 0.977323 0.250000
O O11 0.500000 0.000000 0.000000
O O12 0.500000 0.722362 0.750000
O O13 0.667416 0.763018 0.750000
#
# Coordination Sequence:
#
# PCOD8257591 Si02
#       6
#    16   8  16   8   8   8
#     4  10  19  33  53  78 108 145 182 217 273 322
#     4  10  20  36  61  77 109 150 185 225 276 332
#     4  10  21  36  55  85 113 144 185 226 275 331
#     4   8  16  28  46  68 102 136 170 210 248 318
#     4  10  20  40  61  77 108 148 188 232 276 327
#     4  10  22  36  52  86 117 138 183 233 272 329
#
# _framework density 17.976337000000001
#
# number of rings (size 3 to 8) (size 9 to 14) (size 15 to 20)
#    0.000    2.500    2.500    3.000    3.500    4.000 
#    0.000    0.000    0.000    0.750    0.000    0.000 
#    0.000    0.000    0.000    0.000    0.000    0.000 
#
# Total GULP energy -396446.027948 kJ/mol
# GULP energy per Si atom -12388.938373 kJ/mol
# Density = 1.793542 g / cm^3
# Si number density = 17.976337 Si / 1000 Ang^3
#
#
#
# Elastic Constant Matrix: (Units=GPa)
#
#
# Indices 1 2 3 4 5 6 
#
# 1 66.1339 6.9989 13.7114 0.0000 0.0000 0.0000
# 2 6.9989 108.4466 58.4835 0.0000 0.0000 0.0000
# 3 13.7114 58.4835 141.6094 0.0000 0.0000 0.0000
# 4 0.0000 0.0000 0.0000 28.9623 0.0000 0.0000
# 5 0.0000 0.0000 0.0000 0.0000 7.0037 0.0000
# 6 0.0000 0.0000 0.0000 0.0000 0.0000 11.4706
#
#
#
# Elastic Compliance Matrix: (Units=1/GPa)
#
#
# Indices 1 2 3 4 5 6 
#
# 1 0.015436 -0.000245 -0.001394 0.000000 0.000000 0.000000
# 2 -0.000245 0.011867 -0.004877 0.000000 0.000000 0.000000
# 3 -0.001394 -0.004877 0.009211 0.000000 0.000000 0.000000
# 4 0.000000 0.000000 0.000000 0.034528 0.000000 0.000000
# 5 0.000000 0.000000 0.000000 0.000000 0.142781 0.000000
# 6 0.000000 0.000000 0.000000 0.000000 0.000000 0.087180
#
#
# Mechanical properties :
#
#
# Convention : Reuss Voigt Hill
#
# Bulk Modulus (GPa) = 42.58463 52.73083 47.65773
# Shear Modulus (GPa) = 15.53468 25.28706 20.41087
#
# Velocity S-wave (km/s) = 2.94287 3.75465 3.37327
# Velocity P-wave (km/s) = 5.94037 6.94217 6.46072
#
# Compressibility (1/GPa) = 0.02348265
#
# Stress axis : x y z
#
# Youngs Moduli (GPa) = 64.78506 84.26586 108.56682
#
# Poissons Ratio (x) = 0.02062 0.15129
# Poissons Ratio (y) = 0.01585 0.52952
# Poissons Ratio (z) = 0.09028 0.41100
#
# Static dielectric constant tensor:
#      x y z
#    x 2.907670 0.000000 0.000000 
#    y 0.000000 3.147910 0.000000 
#    z 0.000000 0.000000 3.373150 
# 
# 
# High freq. dielectric constant tensor:
#      x y z
#    x 1.662210 0.000000 0.000000 
#    y 0.000000 1.691710 0.000000 
#    z 0.000000 0.000000 1.705000 
# 
# From -- ./inp_files/4546.got.cif
#   From: 2010.03.12/outbox.cif.g09.slc.cpg/sg63_3_cif.got.tgz:4546.got - 2010.04.10 19:34:48.
