data_PCOD8257431
_publ_section_title
;
Structure prediction by ZEFSAII (Michael W. Deem and Ramdas Pophale) SiO2 
 PCOD8257431
Probable space group: C M C M
;
_chemical_formula_sum "Si O2"
_cell_formula_units_Z 88
_cell_length_a 17.646297
_cell_length_b 28.817660
_cell_length_c 8.890425
_cell_angle_alpha 90.000000
_cell_angle_beta 90.000000
_cell_angle_gamma 90.000000
_cell_volume 4521.003259
_symmetry_space_group_name_H-M "C M C M"
_symmetry_group_IT_number 63
_symmetry_cell_setting 'orthorhombic'
loop_
_space_group_symop_operation_xyz
x,y,z
-x,-y,1/2+z
x,-y,-z
-x,y,1/2-z
-x,-y,-z
x,y,1/2-z
-x,y,z
x,-y,1/2+z
1/2+x,1/2+y,z
1/2-x,1/2-y,1/2+z
1/2+x,1/2-y,-z
1/2-x,1/2+y,1/2-z
1/2-x,1/2-y,-z
1/2+x,1/2+y,1/2-z
1/2-x,1/2+y,z
1/2+x,1/2-y,1/2+z
loop_
_atom_site_type_symbol
_atom_site_label
_atom_site_fract_x
_atom_site_fract_y
_atom_site_fract_z
Si Si1 0.364657 0.104695 0.426341
Si Si2 0.089967 0.211025 0.581131
Si Si3 0.000000 0.550053 0.928100
Si Si4 0.410686 0.195744 0.924917
Si Si5 0.086577 0.882526 0.926897
Si Si6 0.714571 0.549290 0.424777
O O1 0.383917 0.101735 0.250000
O O2 0.425948 0.076992 0.521240
O O3 0.364752 0.157823 0.479925
O O4 0.283560 0.083117 0.465113
O O5 0.122374 0.215223 0.750000
O O6 0.118343 0.254347 0.482303
O O7 0.118813 0.163356 0.507510
O O8 0.000000 0.210654 0.582078
O O9 0.000000 0.545498 0.750000
O O10 0.000000 0.500000 0.000000
O O11 0.391068 0.190848 0.750000
O O12 0.500000 0.189017 0.954194
O O13 0.094292 0.873708 0.750000
O O14 0.137184 0.926056 0.979927
O O15 0.000000 0.893350 0.973141
O O16 0.725671 0.500000 0.500000
O O17 0.710795 0.539307 0.250000
#
# Coordination Sequence:
#
# PCOD8257431 Si02
#       6
#    16  16   8  16  16  16
#     4  11  22  37  56  80 112 148 188 234 280 328
#     4   9  17  30  52  83 115 146 183 227 277 330
#     4  12  24  38  56  80 108 144 192 238 281 332
#     4  10  19  32  53  82 114 149 189 230 274 329
#     4   9  18  36  60  84 112 145 183 228 279 336
#     4  10  23  40  58  82 111 146 185 230 285 338
#
# _framework density 19.464706
#
# number of rings (size 3 to 8) (size 9 to 14) (size 15 to 20)
#    0.000    2.000    0.909    3.000    0.000    6.909 
#    0.000    0.909    0.000    0.000    0.000    0.000 
#    0.000    0.000    0.000    0.000    0.000    0.000 
#
# Total GULP energy -545706.094183 kJ/mol
# GULP energy per Si atom -12402.411231 kJ/mol
# Density = 1.942040 g / cm^3
# Si number density = 19.464706 Si / 1000 Ang^3
#
#
#
# Elastic Constant Matrix: (Units=GPa)
#
#
# Indices 1 2 3 4 5 6 
#
# 1 77.8219 40.9441 41.3210 0.0000 0.0000 0.0000
# 2 40.9441 111.7318 52.4481 0.0000 0.0000 0.0000
# 3 41.3210 52.4481 99.4091 0.0000 0.0000 0.0000
# 4 0.0000 0.0000 0.0000 35.0523 0.0000 0.0000
# 5 0.0000 0.0000 0.0000 0.0000 9.6269 0.0000
# 6 0.0000 0.0000 0.0000 0.0000 0.0000 35.6198
#
#
#
# Elastic Compliance Matrix: (Units=1/GPa)
#
#
# Indices 1 2 3 4 5 6 
#
# 1 0.017766 -0.004046 -0.005250 0.000000 0.000000 0.000000
# 2 -0.004046 0.012818 -0.005081 0.000000 0.000000 0.000000
# 3 -0.005250 -0.005081 0.014922 0.000000 0.000000 0.000000
# 4 0.000000 0.000000 0.000000 0.028529 0.000000 0.000000
# 5 0.000000 0.000000 0.000000 0.000000 0.103876 0.000000
# 6 0.000000 0.000000 0.000000 0.000000 0.000000 0.028074
#
#
# Mechanical properties :
#
#
# Convention : Reuss Voigt Hill
#
# Bulk Modulus (GPa) = 59.69302 62.04326 60.86814
# Shear Modulus (GPa) = 20.80531 26.34311 23.57421
#
# Velocity S-wave (km/s) = 3.27291 3.68282 3.48390
# Velocity P-wave (km/s) = 6.70943 7.07306 6.89364
#
# Compressibility (1/GPa) = 0.01675238
#
# Stress axis : x y z
#
# Youngs Moduli (GPa) = 56.28660 78.01770 67.01340
#
# Poissons Ratio (x) = 0.31565 0.35183
# Poissons Ratio (y) = 0.22773 0.34048
# Poissons Ratio (z) = 0.29552 0.39639
#
# Static dielectric constant tensor:
#      x y z
#    x 3.442110 0.000000 0.000000 
#    y 0.000000 3.572990 0.000000 
#    z 0.000000 0.000000 3.581460 
# 
# 
# High freq. dielectric constant tensor:
#      x y z
#    x 1.734170 0.000000 0.000000 
#    y 0.000000 1.771200 0.000000 
#    z 0.000000 0.000000 1.763800 
# 
# From -- ./inp_files/6896.got.cif
#   From: 2010.03.12/outbox.cif.g09.slc.cpg/sg63_4_cif.got.tgz:6896.got - 2010.04.10 19:34:48.
