data_PCOD8257212
_publ_section_title
;
Structure prediction by ZEFSAII (Michael W. Deem and Ramdas Pophale) SiO2 
 PCOD8257212
Probable space group: C M C M
;
_chemical_formula_sum "Si O2"
_cell_formula_units_Z 96
_cell_length_a 8.026187
_cell_length_b 25.313789
_cell_length_c 26.708385
_cell_angle_alpha 90.000000
_cell_angle_beta 90.000000
_cell_angle_gamma 90.000000
_cell_volume 5426.428159
_symmetry_space_group_name_H-M "C M C M"
_symmetry_group_IT_number 63
_symmetry_cell_setting 'orthorhombic'
loop_
_space_group_symop_operation_xyz
x,y,z
-x,-y,1/2+z
x,-y,-z
-x,y,1/2-z
-x,-y,-z
x,y,1/2-z
-x,y,z
x,-y,1/2+z
1/2+x,1/2+y,z
1/2-x,1/2-y,1/2+z
1/2+x,1/2-y,-z
1/2-x,1/2+y,1/2-z
1/2-x,1/2-y,-z
1/2+x,1/2+y,1/2-z
1/2-x,1/2+y,z
1/2+x,1/2-y,1/2+z
loop_
_atom_site_type_symbol
_atom_site_label
_atom_site_fract_x
_atom_site_fract_y
_atom_site_fract_z
Si Si1 0.000000 0.062287 0.308167
Si Si2 0.691667 0.989926 0.445379
Si Si3 0.310493 0.795722 0.442860
Si Si4 0.809394 0.315494 0.947286
Si Si5 0.820615 0.889755 0.108901
Si Si6 0.000000 0.063365 0.692894
Si Si7 0.302716 0.908799 0.877061
O O1 0.000000 0.999213 0.314775
O O2 0.172379 0.085902 0.331101
O O3 0.000000 0.078003 0.250000
O O4 0.500000 0.974574 0.449868
O O5 0.782466 0.939506 0.424596
O O6 0.768035 0.000000 0.500000
O O7 0.720722 0.039925 0.410679
O O8 0.500000 0.778704 0.451357
O O9 0.215076 0.743180 0.424524
O O10 0.234207 0.816865 0.495971
O O11 0.304017 0.840963 0.399998
O O12 0.734953 0.359032 0.909538
O O13 0.000000 0.331344 0.951480
O O14 0.000000 0.867623 0.091380
O O15 0.834757 0.910743 0.166568
O O16 0.000000 0.080645 0.750000
O O17 0.500000 0.903322 0.859961
#
# Coordination Sequence:
#
# PCOD8257212 Si02
#       7
#     8  16  16  16  16   8  16
#     4  11  22  40  60  82 110 138 188 243 286 333
#     4  10  19  32  49  75 113 145 171 213 265 328
#     4  10  19  32  51  80 111 146 177 215 261 317
#     4   9  19  34  51  77 114 146 180 212 257 324
#     4  10  19  32  51  76 101 138 178 218 263 327
#     4   9  20  38  56  76 102 136 180 237 284 321
#     4  10  20  36  56  81 111 147 183 223 280 331
#
# _framework density 17.691195
#
# number of rings (size 3 to 8) (size 9 to 14) (size 15 to 20)
#    0.500    1.667    1.667    2.000    1.167    4.000 
#    3.000    0.000    0.000    3.000    0.000    0.000 
#    0.000    0.000    0.000    0.000    0.000    0.000 
#
# Total GULP energy -594641.981362 kJ/mol
# GULP energy per Si atom -12388.374612 kJ/mol
# Density = 1.765093 g / cm^3
# Si number density = 17.691195 Si / 1000 Ang^3
#
#
#
# Elastic Constant Matrix: (Units=GPa)
#
#
# Indices 1 2 3 4 5 6 
#
# 1 55.2573 14.5650 26.4990 0.0000 0.0000 0.0000
# 2 14.5650 89.2578 23.4282 0.0000 0.0000 0.0000
# 3 26.4990 23.4282 60.3446 0.0000 0.0000 0.0000
# 4 0.0000 0.0000 0.0000 21.2259 0.0000 0.0000
# 5 0.0000 0.0000 0.0000 0.0000 22.9567 0.0000
# 6 0.0000 0.0000 0.0000 0.0000 0.0000 30.4582
#
#
#
# Elastic Compliance Matrix: (Units=1/GPa)
#
#
# Indices 1 2 3 4 5 6 
#
# 1 0.023045 -0.001230 -0.009643 0.000000 0.000000 0.000000
# 2 -0.001230 0.012540 -0.004329 0.000000 0.000000 0.000000
# 3 -0.009643 -0.004329 0.022486 0.000000 0.000000 0.000000
# 4 0.000000 0.000000 0.000000 0.047112 0.000000 0.000000
# 5 0.000000 0.000000 0.000000 0.000000 0.043560 0.000000
# 6 0.000000 0.000000 0.000000 0.000000 0.000000 0.032832
#
#
# Mechanical properties :
#
#
# Convention : Reuss Voigt Hill
#
# Bulk Modulus (GPa) = 36.13959 37.09379 36.61669
# Shear Modulus (GPa) = 22.60379 24.28597 23.44488
#
# Velocity S-wave (km/s) = 3.57835 3.70911 3.64432
# Velocity P-wave (km/s) = 6.12741 6.27346 6.20086
#
# Compressibility (1/GPa) = 0.02767048
#
# Stress axis : x y z
#
# Youngs Moduli (GPa) = 43.39266 79.74267 44.47133
#
# Poissons Ratio (x) = 0.09805 0.42882
# Poissons Ratio (y) = 0.05335 0.19250
# Poissons Ratio (z) = 0.41841 0.34519
#
# Static dielectric constant tensor:
#      x y z
#    x 3.279130 0.000000 0.000000 
#    y 0.000000 3.343090 0.000000 
#    z 0.000000 0.000000 3.122170 
# 
# 
# High freq. dielectric constant tensor:
#      x y z
#    x 1.679290 0.000000 0.000000 
#    y 0.000000 1.691540 0.000000 
#    z 0.000000 0.000000 1.652180 
# 
# From -- ./inp_files/67281.got.cif
#   From: 2010.03.12/outbox.cif.g09.slc.cpg/sg63_34_cif.got.tgz:67281.got - 2010.04.10 19:34:48.
