data_PCOD8257939
_publ_section_title
;
Structure prediction by ZEFSAII (Michael W. Deem and Ramdas Pophale) SiO2 
 PCOD8257939
Probable space group: C M C M
;
_chemical_formula_sum "Si O2"
_cell_formula_units_Z 56
_cell_length_a 21.662234
_cell_length_b 7.836244
_cell_length_c 17.181607
_cell_angle_alpha 90.000000
_cell_angle_beta 90.000000
_cell_angle_gamma 90.000000
_cell_volume 2916.587259
_symmetry_space_group_name_H-M "C M C M"
_symmetry_group_IT_number 63
_symmetry_cell_setting 'orthorhombic'
loop_
_space_group_symop_operation_xyz
x,y,z
-x,-y,1/2+z
x,-y,-z
-x,y,1/2-z
-x,-y,-z
x,y,1/2-z
-x,y,z
x,-y,1/2+z
1/2+x,1/2+y,z
1/2-x,1/2-y,1/2+z
1/2+x,1/2-y,-z
1/2-x,1/2+y,1/2-z
1/2-x,1/2-y,-z
1/2+x,1/2+y,1/2-z
1/2-x,1/2+y,z
1/2+x,1/2-y,1/2+z
loop_
_atom_site_type_symbol
_atom_site_label
_atom_site_fract_x
_atom_site_fract_y
_atom_site_fract_z
Si Si1 0.070176 0.178660 0.043415
Si Si2 0.755598 0.337603 0.084774
Si Si3 0.355439 0.000000 0.500000
Si Si4 0.333326 0.424739 0.839130
O O1 0.102566 0.329586 0.993599
O O2 0.103698 0.151677 0.126086
O O3 0.000000 0.233428 0.059684
O O4 0.073850 0.000000 0.000000
O O5 0.689626 0.412071 0.110767
O O6 0.778489 0.212623 0.152772
O O7 0.750000 0.250000 0.000000
O O8 0.809440 0.483368 0.075011
O O9 0.344328 0.474430 0.750000
#
# Coordination Sequence:
#
# PCOD8257939 Si02
#       4
#    16  16   8  16
#     4  10  22  38  59  84 110 153 208 244 279 343
#     4  11  19  35  57  85 113 152 193 239 295 360
#     4  10  19  34  62  82 111 144 194 246 290 330
#     4  11  22  34  54  86 118 150 185 243 310 356
#
# _framework density 19.200520999999998
#
# number of rings (size 3 to 8) (size 9 to 14) (size 15 to 20)
#    0.000    1.429    2.857    4.714    0.000    0.571 
#    0.000    0.000    0.000    0.000    0.000    8.000 
#    0.000    0.000    0.000    0.000    0.000    0.000 
#
# Total GULP energy -346925.020494 kJ/mol
# GULP energy per Si atom -12390.179303 kJ/mol
# Density = 1.915682 g / cm^3
# Si number density = 19.200521 Si / 1000 Ang^3
#
#
#
# Elastic Constant Matrix: (Units=GPa)
#
#
# Indices 1 2 3 4 5 6 
#
# 1 118.8422 36.3925 39.8490 0.0000 0.0000 0.0000
# 2 36.3925 84.1355 39.1484 0.0000 0.0000 0.0000
# 3 39.8490 39.1484 107.9173 0.0000 0.0000 0.0000
# 4 0.0000 0.0000 0.0000 25.4694 0.0000 0.0000
# 5 0.0000 0.0000 0.0000 0.0000 17.4259 0.0000
# 6 0.0000 0.0000 0.0000 0.0000 0.0000 37.4624
#
#
#
# Elastic Compliance Matrix: (Units=1/GPa)
#
#
# Indices 1 2 3 4 5 6 
#
# 1 0.010283 -0.003226 -0.002627 0.000000 0.000000 0.000000
# 2 -0.003226 0.015311 -0.004363 0.000000 0.000000 0.000000
# 3 -0.002627 -0.004363 0.011819 0.000000 0.000000 0.000000
# 4 0.000000 0.000000 0.000000 0.039263 0.000000 0.000000
# 5 0.000000 0.000000 0.000000 0.000000 0.057386 0.000000
# 6 0.000000 0.000000 0.000000 0.000000 0.000000 0.026693
#
#
# Mechanical properties :
#
#
# Convention : Reuss Voigt Hill
#
# Bulk Modulus (GPa) = 58.88660 60.18610 59.53635
# Shear Modulus (GPa) = 26.75980 29.10522 27.93251
#
# Velocity S-wave (km/s) = 3.73728 3.89762 3.81829
# Velocity P-wave (km/s) = 7.02559 7.18814 7.10733
#
# Compressibility (1/GPa) = 0.01698179
#
# Stress axis : x y z
#
# Youngs Moduli (GPa) = 97.24668 65.31246 84.60818
#
# Poissons Ratio (x) = 0.21067 0.22226
# Poissons Ratio (y) = 0.31368 0.36916
# Poissons Ratio (z) = 0.25546 0.28497
#
# Static dielectric constant tensor:
#      x y z
#    x 3.856410 0.000000 0.000000 
#    y 0.000000 3.893840 0.000000 
#    z 0.000000 0.000000 3.064400 
# 
# 
# High freq. dielectric constant tensor:
#      x y z
#    x 1.748890 0.000000 0.000000 
#    y 0.000000 1.764240 0.000000 
#    z 0.000000 0.000000 1.704900 
# 
# From -- ./inp_files/34785.got.cif
#   From: 2010.03.12/outbox.cif.g09.slc.cpg/sg63_18_cif.got.tgz:34785.got - 2010.04.10 19:34:48.
