data_PCOD8257930
_publ_section_title
;
Structure prediction by ZEFSAII (Michael W. Deem and Ramdas Pophale) SiO2 
 PCOD8257930
Probable space group: C M C M
;
_chemical_formula_sum "Si O2"
_cell_formula_units_Z 112
_cell_length_a 14.181210
_cell_length_b 14.723610
_cell_length_c 24.954537
_cell_angle_alpha 90.000000
_cell_angle_beta 90.000000
_cell_angle_gamma 90.000000
_cell_volume 5210.472523
_symmetry_space_group_name_H-M "C M C M"
_symmetry_group_IT_number 63
_symmetry_cell_setting 'orthorhombic'
loop_
_space_group_symop_operation_xyz
x,y,z
-x,-y,1/2+z
x,-y,-z
-x,y,1/2-z
-x,-y,-z
x,y,1/2-z
-x,y,z
x,-y,1/2+z
1/2+x,1/2+y,z
1/2-x,1/2-y,1/2+z
1/2+x,1/2-y,-z
1/2-x,1/2+y,1/2-z
1/2-x,1/2-y,-z
1/2+x,1/2+y,1/2-z
1/2-x,1/2+y,z
1/2+x,1/2-y,1/2+z
loop_
_atom_site_type_symbol
_atom_site_label
_atom_site_fract_x
_atom_site_fract_y
_atom_site_fract_z
Si Si1 0.604608 0.566719 0.049325
Si Si2 0.113601 0.774679 0.124967
Si Si3 0.107814 0.238401 0.504149
Si Si4 0.723575 0.540522 0.870435
Si Si5 0.394061 0.248285 0.690050
Si Si6 0.394498 0.122320 0.912402
Si Si7 0.221602 0.626778 0.189927
O O1 0.500000 0.592741 0.068551
O O2 0.658655 0.657923 0.029425
O O3 0.650777 0.524487 0.100888
O O4 0.602366 0.500000 0.000000
O O5 0.170154 0.865044 0.146155
O O6 0.144857 0.684212 0.156227
O O7 0.000000 0.788448 0.130604
O O8 0.148732 0.755497 0.064031
O O9 0.117830 0.328184 0.469160
O O10 0.000000 0.209203 0.511753
O O11 0.810869 0.550228 0.912047
O O12 0.768407 0.481201 0.822193
O O13 0.378812 0.204714 0.750000
O O14 0.500000 0.285962 0.684759
O O15 0.374572 0.178065 0.642272
O O16 0.325410 0.332470 0.681835
O O17 0.500000 0.080110 0.909813
O O18 0.184649 0.635322 0.250000
#
# Coordination Sequence:
#
# PCOD8257930 Si02
#       7
#    16  16  16  16  16  16  16
#     4  10  19  34  59  96 135 167 207 262 324 393
#     4  11  24  45  70  99 134 177 221 268 334 405
#     4   9  19  38  63  91 130 170 211 267 326 389
#     4  12  24  38  64  98 130 175 221 272 325 401
#     4   9  18  37  64  89 117 159 213 270 325 378
#     4  10  21  38  61  91 126 169 217 265 320 382
#     4  11  26  45  65  94 129 167 216 279 341 396
#
# _framework density 21.495170999999999
#
# number of rings (size 3 to 8) (size 9 to 14) (size 15 to 20)
#    0.000    1.714    2.857    1.286    0.000    6.000 
#    0.000    0.000    0.000    3.000    0.000    0.000 
#    0.000    0.000    0.000    0.000    0.000    0.000 
#
# Total GULP energy -693754.862889 kJ/mol
# GULP energy per Si atom -12388.479694 kJ/mol
# Density = 2.144625 g / cm^3
# Si number density = 21.495171 Si / 1000 Ang^3
#
#
#
# Elastic Constant Matrix: (Units=GPa)
#
#
# Indices 1 2 3 4 5 6 
#
# 1 94.7213 34.8356 26.5877 0.0000 0.0000 0.0000
# 2 34.8356 69.9942 41.4266 0.0000 0.0000 0.0000
# 3 26.5877 41.4266 93.9538 0.0000 0.0000 0.0000
# 4 0.0000 0.0000 0.0000 30.7900 0.0000 0.0000
# 5 0.0000 0.0000 0.0000 0.0000 29.3289 0.0000
# 6 0.0000 0.0000 0.0000 0.0000 0.0000 26.5545
#
#
#
# Elastic Compliance Matrix: (Units=1/GPa)
#
#
# Indices 1 2 3 4 5 6 
#
# 1 0.013009 -0.005812 -0.001118 0.000000 0.000000 0.000000
# 2 -0.005812 0.021929 -0.008024 0.000000 0.000000 0.000000
# 3 -0.001118 -0.008024 0.014498 0.000000 0.000000 0.000000
# 4 0.000000 0.000000 0.000000 0.032478 0.000000 0.000000
# 5 0.000000 0.000000 0.000000 0.000000 0.034096 0.000000
# 6 0.000000 0.000000 0.000000 0.000000 0.000000 0.037658
#
#
# Mechanical properties :
#
#
# Convention : Reuss Voigt Hill
#
# Bulk Modulus (GPa) = 51.21460 51.59657 51.40559
# Shear Modulus (GPa) = 26.30372 27.72263 27.01317
#
# Velocity S-wave (km/s) = 3.50194 3.59516 3.54885
# Velocity P-wave (km/s) = 6.34266 6.42569 6.38431
#
# Compressibility (1/GPa) = 0.01952568
#
# Stress axis : x y z
#
# Youngs Moduli (GPa) = 76.87060 45.60197 68.97453
#
# Poissons Ratio (x) = 0.26506 0.07715
# Poissons Ratio (y) = 0.44681 0.55346
# Poissons Ratio (z) = 0.08598 0.36592
#
# Static dielectric constant tensor:
#      x y z
#    x 4.098610 0.000000 0.000000 
#    y 0.000000 3.727650 0.000000 
#    z 0.000000 0.000000 4.118210 
# 
# 
# High freq. dielectric constant tensor:
#      x y z
#    x 1.852430 0.000000 0.000000 
#    y 0.000000 1.823120 0.000000 
#    z 0.000000 0.000000 1.843840 
# 
# From -- ./inp_files/62998.got.cif
#   From: 2010.03.12/outbox.cif.g09.slc.cpg/sg63_32_cif.got.tgz:62998.got - 2010.04.10 19:34:48.
