data_PCOD8257839
_publ_section_title
;
Structure prediction by ZEFSAII (Michael W. Deem and Ramdas Pophale) SiO2 
 PCOD8257839
Probable space group: C M C M
;
_chemical_formula_sum "Si O2"
_cell_formula_units_Z 112
_cell_length_a 14.182911
_cell_length_b 13.049477
_cell_length_c 28.599609
_cell_angle_alpha 90.000000
_cell_angle_beta 90.000000
_cell_angle_gamma 90.000000
_cell_volume 5293.203361
_symmetry_space_group_name_H-M "C M C M"
_symmetry_group_IT_number 63
_symmetry_cell_setting 'orthorhombic'
loop_
_space_group_symop_operation_xyz
x,y,z
-x,-y,1/2+z
x,-y,-z
-x,y,1/2-z
-x,-y,-z
x,y,1/2-z
-x,y,z
x,-y,1/2+z
1/2+x,1/2+y,z
1/2-x,1/2-y,1/2+z
1/2+x,1/2-y,-z
1/2-x,1/2+y,1/2-z
1/2-x,1/2-y,-z
1/2+x,1/2+y,1/2-z
1/2-x,1/2+y,z
1/2+x,1/2-y,1/2+z
loop_
_atom_site_type_symbol
_atom_site_label
_atom_site_fract_x
_atom_site_fract_y
_atom_site_fract_z
Si Si1 0.282452 0.496275 0.085207
Si Si2 0.396279 0.703236 0.598263
Si Si3 0.358956 0.652188 0.800489
Si Si4 0.855642 0.291617 0.198878
Si Si5 0.230750 0.202687 0.449976
Si Si6 0.392096 0.568601 0.171009
Si Si7 0.895526 0.362044 0.100321
O O1 0.354173 0.402758 0.077588
O O2 0.287876 0.580609 0.043522
O O3 0.316141 0.561447 0.129668
O O4 0.175596 0.455819 0.091279
O O5 0.500000 0.720917 0.576500
O O6 0.409829 0.701114 0.654576
O O7 0.325230 0.791485 0.582035
O O8 0.391488 0.699267 0.750000
O O9 0.250172 0.672542 0.809051
O O10 0.380396 0.531487 0.796922
O O11 0.891932 0.330713 0.250000
O O12 0.865948 0.168992 0.200246
O O13 0.911222 0.340477 0.155573
O O14 0.250000 0.250000 0.500000
O O15 0.143747 0.259956 0.424981
O O16 0.500000 0.575109 0.152246
O O17 0.000000 0.388217 0.080348
#
# Coordination Sequence:
#
# PCOD8257839 Si02
#       7
#    16  16  16  16  16  16  16
#     4  10  20  40  60  86 118 152 189 243 298 354
#     4  10  21  38  60  89 119 152 195 242 295 355
#     4  10  19  34  55  85 123 159 190 234 292 348
#     4  11  21  35  57  90 125 158 199 246 290 344
#     4  11  24  43  64  86 117 155 199 254 309 363
#     4  11  20  34  59  89 119 156 199 240 288 345
#     4  11  23  40  62  89 120 159 201 244 301 362
#
# _framework density 21.159210999999999
#
# number of rings (size 3 to 8) (size 9 to 14) (size 15 to 20)
#    0.000    1.429    5.714    2.571    0.000    6.857 
#    0.000    1.429    0.000    0.000    0.000    2.000 
#    0.000    0.000    0.000    0.000    0.000    0.000 
#
# Total GULP energy -693887.059753 kJ/mol
# GULP energy per Si atom -12390.840353 kJ/mol
# Density = 2.111105 g / cm^3
# Si number density = 21.159211 Si / 1000 Ang^3
#
#
#
# Elastic Constant Matrix: (Units=GPa)
#
#
# Indices 1 2 3 4 5 6 
#
# 1 161.4250 28.9509 11.1732 0.0000 0.0000 0.0000
# 2 28.9509 66.9776 7.1251 0.0000 0.0000 0.0000
# 3 11.1732 7.1251 44.4921 0.0000 0.0000 0.0000
# 4 0.0000 0.0000 0.0000 25.8556 0.0000 0.0000
# 5 0.0000 0.0000 0.0000 0.0000 7.2053 0.0000
# 6 0.0000 0.0000 0.0000 0.0000 0.0000 0.9798
#
#
#
# Elastic Compliance Matrix: (Units=1/GPa)
#
#
# Indices 1 2 3 4 5 6 
#
# 1 0.006784 -0.002799 -0.001255 0.000000 0.000000 0.000000
# 2 -0.002799 0.016344 -0.001915 0.000000 0.000000 0.000000
# 3 -0.001255 -0.001915 0.023098 0.000000 0.000000 0.000000
# 4 0.000000 0.000000 0.000000 0.038676 0.000000 0.000000
# 5 0.000000 0.000000 0.000000 0.000000 0.138786 0.000000
# 6 0.000000 0.000000 0.000000 0.000000 0.000000 1.020609
#
#
# Mechanical properties :
#
#
# Convention : Reuss Voigt Hill
#
# Bulk Modulus (GPa) = 29.16470 40.82146 34.99308
# Shear Modulus (GPa) = 3.94427 21.85119 12.89773
#
# Velocity S-wave (km/s) = 1.36680 3.21706 2.47160
# Velocity P-wave (km/s) = 4.03785 5.75619 4.97182
#
# Compressibility (1/GPa) = 0.03428803
#
# Stress axis : x y z
#
# Youngs Moduli (GPa) = 147.41332 61.18543 43.29425
#
# Poissons Ratio (x) = 0.17124 0.05435
# Poissons Ratio (y) = 0.41256 0.08289
# Poissons Ratio (z) = 0.18506 0.11714
#
# Static dielectric constant tensor:
#      x y z
#    x 3.840640 0.000000 0.000000 
#    y 0.000000 3.854480 0.000000 
#    z 0.000000 0.000000 3.798120 
# 
# 
# High freq. dielectric constant tensor:
#      x y z
#    x 1.833180 0.000000 0.000000 
#    y 0.000000 1.812760 0.000000 
#    z 0.000000 0.000000 1.821940 
# 
# From -- ./inp_files/73527.got.cif
#   From: 2010.03.12/outbox.cif.g09.slc.cpg/sg63_37_cif.got.tgz:73527.got - 2010.04.10 19:34:48.
