data_PCOD8257069
_publ_section_title
;
Structure prediction by ZEFSAII (Michael W. Deem and Ramdas Pophale) SiO2 
 PCOD8257069
Probable space group: C M C M
;
_chemical_formula_sum "Si O2"
_cell_formula_units_Z 80
_cell_length_a 19.223336
_cell_length_b 26.116845
_cell_length_c 9.042896
_cell_angle_alpha 90.000000
_cell_angle_beta 90.000000
_cell_angle_gamma 90.000000
_cell_volume 4540.012041
_symmetry_space_group_name_H-M "C M C M"
_symmetry_group_IT_number 63
_symmetry_cell_setting 'orthorhombic'
loop_
_space_group_symop_operation_xyz
x,y,z
-x,-y,1/2+z
x,-y,-z
-x,y,1/2-z
-x,-y,-z
x,y,1/2-z
-x,y,z
x,-y,1/2+z
1/2+x,1/2+y,z
1/2-x,1/2-y,1/2+z
1/2+x,1/2-y,-z
1/2-x,1/2+y,1/2-z
1/2-x,1/2-y,-z
1/2+x,1/2+y,1/2-z
1/2-x,1/2+y,z
1/2+x,1/2-y,1/2+z
loop_
_atom_site_type_symbol
_atom_site_label
_atom_site_fract_x
_atom_site_fract_y
_atom_site_fract_z
Si Si1 0.678654 0.251222 0.918766
Si Si2 0.418922 0.552008 0.922402
Si Si3 0.680880 0.140232 0.576787
Si Si4 0.079017 0.551423 0.923982
Si Si5 0.170390 0.138201 0.424250
O O1 0.699345 0.255729 0.750000
O O2 0.642717 0.195955 0.950156
O O3 0.639051 0.304335 0.960138
O O4 0.750000 0.250000 0.000000
O O5 0.401845 0.547603 0.750000
O O6 0.500000 0.561239 0.952693
O O7 0.393356 0.500000 0.000000
O O8 0.378294 0.599271 0.990654
O O9 0.699136 0.133254 0.750000
O O10 0.626222 0.098257 0.521149
O O11 0.750808 0.133851 0.482359
O O12 0.084305 0.543847 0.750000
O O13 0.000000 0.562778 0.973789
O O14 0.107278 0.500000 0.000000
O O15 0.168928 0.125933 0.250000
#
# Coordination Sequence:
#
# PCOD8257069 Si02
#       5
#    16  16  16  16  16
#     4   8  15  28  46  69  96 127 160 195 237 282
#     4  10  21  37  55  73  96 128 163 199 242 291
#     4   9  17  31  50  71  97 129 166 205 242 282
#     4   9  18  32  49  68  92 124 160 198 241 286
#     4  10  19  31  50  76 102 127 159 198 241 290
#
# _framework density 17.621098
#
# number of rings (size 3 to 8) (size 9 to 14) (size 15 to 20)
#    0.000    2.800    0.000    1.200    0.000    3.600 
#    0.000    3.000    0.000    3.600    0.000    2.800 
#    0.000    0.000    0.000    0.000    0.000    0.000 
#
# Total GULP energy -495546.136585 kJ/mol
# GULP energy per Si atom -12388.653415 kJ/mol
# Density = 1.758099 g / cm^3
# Si number density = 17.621098 Si / 1000 Ang^3
#
#
#
# Elastic Constant Matrix: (Units=GPa)
#
#
# Indices 1 2 3 4 5 6 
#
# 1 57.9768 72.7490 35.0665 0.0000 0.0000 0.0000
# 2 72.7490 200.8699 64.1778 0.0000 0.0000 0.0000
# 3 35.0665 64.1778 65.0284 0.0000 0.0000 0.0000
# 4 0.0000 0.0000 0.0000 29.2877 0.0000 0.0000
# 5 0.0000 0.0000 0.0000 0.0000 19.0869 0.0000
# 6 0.0000 0.0000 0.0000 0.0000 0.0000 -7.9538
#
#
#
# Elastic Compliance Matrix: (Units=1/GPa)
#
#
# Indices 1 2 3 4 5 6 
#
# 1 0.035100 -0.009734 -0.009321 0.000000 0.000000 0.000000
# 2 -0.009734 0.009971 -0.004591 0.000000 0.000000 0.000000
# 3 -0.009321 -0.004591 0.024935 0.000000 0.000000 0.000000
# 4 0.000000 0.000000 0.000000 0.034144 0.000000 0.000000
# 5 0.000000 0.000000 0.000000 0.000000 0.052392 0.000000
# 6 0.000000 0.000000 0.000000 0.000000 0.000000 -0.125726
#
#
# Mechanical properties :
#
#
# Convention : Reuss Voigt Hill
#
# Bulk Modulus (GPa) = 44.02611 74.20686 59.11649
# Shear Modulus (GPa) = 58.35664 18.20961 38.28313
#
# Velocity S-wave (km/s) = 5.76102 3.21814 4.66614
# Velocity P-wave (km/s) = 8.32416 7.48415 7.91531
#
# Compressibility (1/GPa) = 0.02271380
#
# Stress axis : x y z
#
# Youngs Moduli (GPa) = 28.48970 100.29446 40.10412
#
# Poissons Ratio (x) = 0.97630 0.37381
# Poissons Ratio (y) = 0.27733 0.18412
# Poissons Ratio (z) = 0.26555 0.46045
#
# Static dielectric constant tensor:
#      x y z
#    x 2.976990 0.000000 0.000000 
#    y 0.000000 4.096960 0.000000 
#    z 0.000000 0.000000 3.323540 
# 
# 
# High freq. dielectric constant tensor:
#      x y z
#    x 1.642670 0.000000 0.000000 
#    y 0.000000 1.707770 0.000000 
#    z 0.000000 0.000000 1.686810 
# 
# From -- ./inp_files/6407.got.cif
#   From: 2010.03.12/outbox.cif.g09.slc.cpg/sg63_4_cif.got.tgz:6407.got - 2010.04.10 19:34:48.
