data_PCOD8257003
_publ_section_title
;
Structure prediction by ZEFSAII (Michael W. Deem and Ramdas Pophale) SiO2 
 PCOD8257003
Probable space group: C M C M
;
_chemical_formula_sum "Si O2"
_cell_formula_units_Z 96
_cell_length_a 18.661887
_cell_length_b 32.151053
_cell_length_c 9.105588
_cell_angle_alpha 90.000000
_cell_angle_beta 90.000000
_cell_angle_gamma 90.000000
_cell_volume 5463.346590
_symmetry_space_group_name_H-M "C M C M"
_symmetry_group_IT_number 63
_symmetry_cell_setting 'orthorhombic'
loop_
_space_group_symop_operation_xyz
x,y,z
-x,-y,1/2+z
x,-y,-z
-x,y,1/2-z
-x,-y,-z
x,y,1/2-z
-x,y,z
x,-y,1/2+z
1/2+x,1/2+y,z
1/2-x,1/2-y,1/2+z
1/2+x,1/2-y,-z
1/2-x,1/2+y,1/2-z
1/2-x,1/2-y,-z
1/2+x,1/2+y,1/2-z
1/2-x,1/2+y,z
1/2+x,1/2-y,1/2+z
loop_
_atom_site_type_symbol
_atom_site_label
_atom_site_fract_x
_atom_site_fract_y
_atom_site_fract_z
Si Si1 0.657476 0.668721 0.920905
Si Si2 0.919759 0.672632 0.418716
Si Si3 0.917604 0.243376 0.078193
Si Si4 0.781201 0.625568 0.418927
Si Si5 0.208051 0.041432 0.078255
Si Si6 0.582129 0.416087 0.420051
O O1 0.663621 0.678746 0.750000
O O2 0.601508 0.631749 0.953266
O O3 0.632244 0.709729 0.002489
O O4 0.735333 0.656337 0.980359
O O5 0.915946 0.687219 0.250000
O O6 0.896747 0.711434 0.517844
O O7 0.865039 0.634667 0.448286
O O8 0.000000 0.657136 0.458823
O O9 0.902500 0.242756 0.250000
O O10 0.000000 0.233262 0.040680
O O11 0.759859 0.633875 0.250000
O O12 0.764992 0.577695 0.459592
O O13 0.201460 0.033067 0.250000
O O14 0.129594 0.053272 0.018124
O O15 0.236663 0.000000 0.000000
O O16 0.596545 0.426492 0.250000
O O17 0.500000 0.423383 0.463931
#
# Coordination Sequence:
#
# PCOD8257003 Si02
#       6
#    16  16  16  16  16  16
#     4  10  19  31  49  72  99 134 172 206 240 280
#     4   9  18  34  55  75  95 123 160 201 245 292
#     4  10  20  32  47  70 101 135 169 205 243 282
#     4   9  19  35  53  74  98 124 158 200 245 292
#     4  10  20  34  52  73  97 125 157 194 238 289
#     4   9  18  32  49  70  97 129 166 205 240 275
#
# _framework density 17.571648
#
# number of rings (size 3 to 8) (size 9 to 14) (size 15 to 20)
#    0.000    2.500    0.000    2.000    0.000    5.000 
#    0.000    0.000    0.000    0.500    0.000    0.000 
#    0.000    0.000    0.000    0.000    0.000    0.500 
#
# Total GULP energy -595300.449516 kJ/mol
# GULP energy per Si atom -12402.092698 kJ/mol
# Density = 1.753165 g / cm^3
# Si number density = 17.571648 Si / 1000 Ang^3
#
#
#
# Elastic Constant Matrix: (Units=GPa)
#
#
# Indices 1 2 3 4 5 6 
#
# 1 101.9951 75.9873 49.9774 0.0000 0.0000 0.0000
# 2 75.9873 111.5212 55.3448 0.0000 0.0000 0.0000
# 3 49.9774 55.3448 81.3793 0.0000 0.0000 0.0000
# 4 0.0000 0.0000 0.0000 27.3267 0.0000 0.0000
# 5 0.0000 0.0000 0.0000 0.0000 22.5375 0.0000
# 6 0.0000 0.0000 0.0000 0.0000 0.0000 15.8008
#
#
#
# Elastic Compliance Matrix: (Units=1/GPa)
#
#
# Indices 1 2 3 4 5 6 
#
# 1 0.021084 -0.011985 -0.004797 0.000000 0.000000 0.000000
# 2 -0.011985 0.020348 -0.006478 0.000000 0.000000 0.000000
# 3 -0.004797 -0.006478 0.019640 0.000000 0.000000 0.000000
# 4 0.000000 0.000000 0.000000 0.036594 0.000000 0.000000
# 5 0.000000 0.000000 0.000000 0.000000 0.044370 0.000000
# 6 0.000000 0.000000 0.000000 0.000000 0.000000 0.063288
#
#
# Mechanical properties :
#
#
# Convention : Reuss Voigt Hill
#
# Bulk Modulus (GPa) = 68.72396 73.05719 70.89057
# Shear Modulus (GPa) = 19.47822 20.70542 20.09182
#
# Velocity S-wave (km/s) = 3.33303 3.43642 3.38512
# Velocity P-wave (km/s) = 7.34900 7.57709 7.46392
#
# Compressibility (1/GPa) = 0.01455097
#
# Stress axis : x y z
#
# Youngs Moduli (GPa) = 47.42845 49.14426 50.91681
#
# Poissons Ratio (x) = 0.58902 0.24427
# Poissons Ratio (y) = 0.56845 0.32983
# Poissons Ratio (z) = 0.22753 0.31835
#
# Static dielectric constant tensor:
#      x y z
#    x 3.234860 0.000000 0.000000 
#    y 0.000000 3.188230 0.000000 
#    z 0.000000 0.000000 3.349580 
# 
# 
# High freq. dielectric constant tensor:
#      x y z
#    x 1.667740 0.000000 0.000000 
#    y 0.000000 1.668510 0.000000 
#    z 0.000000 0.000000 1.687620 
# 
# From -- ./inp_files/8572.got.cif
#   From: 2010.03.12/outbox.cif.g09.slc.cpg/sg63_5_cif.got.tgz:8572.got - 2010.04.10 19:34:48.
