data_PCOD8257027
_publ_section_title
;
Structure prediction by ZEFSAII (Michael W. Deem and Ramdas Pophale) SiO2 
 PCOD8257027
Probable space group: C M C M
;
_chemical_formula_sum "Si O2"
_cell_formula_units_Z 80
_cell_length_a 9.165942
_cell_length_b 25.044068
_cell_length_c 20.002268
_cell_angle_alpha 90.000000
_cell_angle_beta 90.000000
_cell_angle_gamma 90.000000
_cell_volume 4591.570120
_symmetry_space_group_name_H-M "C M C M"
_symmetry_group_IT_number 63
_symmetry_cell_setting 'orthorhombic'
loop_
_space_group_symop_operation_xyz
x,y,z
-x,-y,1/2+z
x,-y,-z
-x,y,1/2-z
-x,-y,-z
x,y,1/2-z
-x,y,z
x,-y,1/2+z
1/2+x,1/2+y,z
1/2-x,1/2-y,1/2+z
1/2+x,1/2-y,-z
1/2-x,1/2+y,1/2-z
1/2-x,1/2-y,-z
1/2+x,1/2+y,1/2-z
1/2-x,1/2+y,z
1/2+x,1/2-y,1/2+z
loop_
_atom_site_type_symbol
_atom_site_label
_atom_site_fract_x
_atom_site_fract_y
_atom_site_fract_z
Si Si1 0.832189 0.935897 0.173138
Si Si2 0.328500 0.524601 0.430701
Si Si3 0.333796 0.128474 0.453010
Si Si4 0.330457 0.755054 0.930405
Si Si5 0.672000 0.843102 0.104277
O O1 0.812136 0.951846 0.250000
O O2 0.731270 0.885387 0.157420
O O3 0.000000 0.921412 0.156380
O O4 0.779942 0.986368 0.129684
O O5 0.268776 0.500000 0.500000
O O6 0.500000 0.532119 0.433648
O O7 0.261349 0.582801 0.418571
O O8 0.500000 0.109258 0.452320
O O9 0.314680 0.182733 0.409119
O O10 0.284755 0.137752 0.529813
O O11 0.500000 0.739590 0.938112
O O12 0.251075 0.713821 0.879975
O O13 0.250000 0.750000 0.000000
O O14 0.500000 0.835552 0.112927
#
# Coordination Sequence:
#
# PCOD8257027 Si02
#       5
#    16  16  16  16  16
#     4  10  21  36  52  72 101 136 170 209 260 312
#     4  10  19  31  50  75  99 130 173 214 253 303
#     4   9  18  30  47  74 103 132 163 205 255 299
#     4   9  17  29  46  72 103 132 164 202 251 304
#     4  10  19  31  49  74 102 132 168 209 255 304
#
# _framework density 17.423234000000001
#
# number of rings (size 3 to 8) (size 9 to 14) (size 15 to 20)
#    0.000    2.400    2.000    2.400    0.000    5.600 
#    0.000    0.000    0.000    1.200    0.000    5.600 
#    0.000    0.000    0.000    0.000    0.000    0.000 
#
# Total GULP energy -495906.540145 kJ/mol
# GULP energy per Si atom -12397.663504 kJ/mol
# Density = 1.738358 g / cm^3
# Si number density = 17.423234 Si / 1000 Ang^3
#
#
#
# Elastic Constant Matrix: (Units=GPa)
#
#
# Indices 1 2 3 4 5 6 
#
# 1 81.6322 62.5584 30.2591 0.0000 0.0000 0.0000
# 2 62.5584 139.0976 46.9455 0.0000 0.0000 0.0000
# 3 30.2591 46.9455 69.6926 0.0000 0.0000 0.0000
# 4 0.0000 0.0000 0.0000 20.5974 0.0000 0.0000
# 5 0.0000 0.0000 0.0000 0.0000 16.7519 0.0000
# 6 0.0000 0.0000 0.0000 0.0000 0.0000 39.0651
#
#
#
# Elastic Compliance Matrix: (Units=1/GPa)
#
#
# Indices 1 2 3 4 5 6 
#
# 1 0.019252 -0.007555 -0.003270 0.000000 0.000000 0.000000
# 2 -0.007555 0.012269 -0.004984 0.000000 0.000000 0.000000
# 3 -0.003270 -0.004984 0.019126 0.000000 0.000000 0.000000
# 4 0.000000 0.000000 0.000000 0.048550 0.000000 0.000000
# 5 0.000000 0.000000 0.000000 0.000000 0.059695 0.000000
# 6 0.000000 0.000000 0.000000 0.000000 0.000000 0.025598
#
#
# Mechanical properties :
#
#
# Convention : Reuss Voigt Hill
#
# Bulk Modulus (GPa) = 52.55188 63.32761 57.93975
# Shear Modulus (GPa) = 22.47691 25.32685 23.90188
#
# Velocity S-wave (km/s) = 3.59563 3.81678 3.70785
# Velocity P-wave (km/s) = 6.88952 7.47324 7.18731
#
# Compressibility (1/GPa) = 0.01902882
#
# Stress axis : x y z
#
# Youngs Moduli (GPa) = 51.94356 81.50497 52.28499
#
# Poissons Ratio (x) = 0.61575 0.17096
# Poissons Ratio (y) = 0.39242 0.26061
# Poissons Ratio (z) = 0.16984 0.40626
#
# Static dielectric constant tensor:
#      x y z
#    x 3.270440 0.000000 0.000000 
#    y 0.000000 3.876140 0.000000 
#    z 0.000000 0.000000 2.888780 
# 
# 
# High freq. dielectric constant tensor:
#      x y z
#    x 1.679070 0.000000 0.000000 
#    y 0.000000 1.686330 0.000000 
#    z 0.000000 0.000000 1.619860 
# 
# From -- ./inp_files/40466.got.cif
#   From: 2010.03.12/outbox.cif.g09.slc.cpg/sg63_21_cif.got.tgz:40466.got - 2010.04.10 19:34:48.
