data_PCOD8257542
_publ_section_title
;
Structure prediction by ZEFSAII (Michael W. Deem and Ramdas Pophale) SiO2 
 PCOD8257542
Probable space group: C M C M
;
_chemical_formula_sum "Si O2"
_cell_formula_units_Z 96
_cell_length_a 22.879299
_cell_length_b 25.410307
_cell_length_c 8.866792
_cell_angle_alpha 90.000000
_cell_angle_beta 90.000000
_cell_angle_gamma 90.000000
_cell_volume 5154.886967
_symmetry_space_group_name_H-M "C M C M"
_symmetry_group_IT_number 63
_symmetry_cell_setting 'orthorhombic'
loop_
_space_group_symop_operation_xyz
x,y,z
-x,-y,1/2+z
x,-y,-z
-x,y,1/2-z
-x,-y,-z
x,y,1/2-z
-x,y,z
x,-y,1/2+z
1/2+x,1/2+y,z
1/2-x,1/2-y,1/2+z
1/2+x,1/2-y,-z
1/2-x,1/2+y,1/2-z
1/2-x,1/2-y,-z
1/2+x,1/2+y,1/2-z
1/2-x,1/2+y,z
1/2+x,1/2-y,1/2+z
loop_
_atom_site_type_symbol
_atom_site_label
_atom_site_fract_x
_atom_site_fract_y
_atom_site_fract_z
Si Si1 0.639764 0.850043 0.916965
Si Si2 0.764030 0.802422 0.583220
Si Si3 0.067146 0.257321 0.073463
Si Si4 0.674245 0.553552 0.574078
Si Si5 0.192722 0.444896 0.071253
Si Si6 0.626314 0.660546 0.575113
O O1 0.612625 0.860317 0.750000
O O2 0.706408 0.835240 0.895920
O O3 0.604562 0.802807 0.995143
O O4 0.643488 0.903023 0.015650
O O5 0.792391 0.792931 0.750000
O O6 0.750000 0.750000 0.500000
O O7 0.807012 0.830003 0.467640
O O8 0.078777 0.260549 0.250000
O O9 0.000000 0.267204 0.032455
O O10 0.083617 0.198261 0.019201
O O11 0.651431 0.500000 0.500000
O O12 0.678506 0.543679 0.750000
O O13 0.740356 0.568169 0.517494
O O14 0.623944 0.597803 0.539112
O O15 0.188452 0.447727 0.250000
O O16 0.173330 0.500000 0.000000
O O17 0.614976 0.672876 0.750000
#
# Coordination Sequence:
#
# PCOD8257542 Si02
#       6
#    16  16  16  16  16  16
#     4  11  22  35  55  82 112 148 185 224 275 331
#     4  11  21  31  49  79 113 146 180 219 271 334
#     4  11  25  42  59  80 106 142 187 235 285 332
#     4   9  19  32  50  78 113 149 182 217 264 320
#     4  10  19  33  52  79 117 153 186 223 266 324
#     4  11  21  35  55  81 112 147 183 224 276 331
#
# _framework density 18.623104999999999
#
# number of rings (size 3 to 8) (size 9 to 14) (size 15 to 20)
#    0.000    1.500    3.333    2.500    0.000    4.667 
#    0.000    0.000    0.000    1.000    0.000    0.000 
#    0.000    0.000    0.000    0.000    0.000    0.000 
#
# Total GULP energy -594699.683310 kJ/mol
# GULP energy per Si atom -12389.576736 kJ/mol
# Density = 1.858072 g / cm^3
# Si number density = 18.623105 Si / 1000 Ang^3
#
#
#
# Elastic Constant Matrix: (Units=GPa)
#
#
# Indices 1 2 3 4 5 6 
#
# 1 48.1634 20.9155 17.7229 0.0000 0.0000 0.0000
# 2 20.9155 119.1583 49.5768 0.0000 0.0000 0.0000
# 3 17.7229 49.5768 71.4127 0.0000 0.0000 0.0000
# 4 0.0000 0.0000 0.0000 35.1703 0.0000 0.0000
# 5 0.0000 0.0000 0.0000 0.0000 20.0514 0.0000
# 6 0.0000 0.0000 0.0000 0.0000 0.0000 6.2354
#
#
#
# Elastic Compliance Matrix: (Units=1/GPa)
#
#
# Indices 1 2 3 4 5 6 
#
# 1 0.023316 -0.002369 -0.004141 0.000000 0.000000 0.000000
# 2 -0.002369 0.012041 -0.007772 0.000000 0.000000 0.000000
# 3 -0.004141 -0.007772 0.020426 0.000000 0.000000 0.000000
# 4 0.000000 0.000000 0.000000 0.028433 0.000000 0.000000
# 5 0.000000 0.000000 0.000000 0.000000 0.049872 0.000000
# 6 0.000000 0.000000 0.000000 0.000000 0.000000 0.160376
#
#
# Mechanical properties :
#
#
# Convention : Reuss Voigt Hill
#
# Bulk Modulus (GPa) = 36.73985 46.12942 41.43464
# Shear Modulus (GPa) = 15.05565 22.32603 18.69084
#
# Velocity S-wave (km/s) = 2.84639 3.46618 3.17146
# Velocity P-wave (km/s) = 5.52933 6.39085 5.97564
#
# Compressibility (1/GPa) = 0.02721840
#
# Stress axis : x y z
#
# Youngs Moduli (GPa) = 42.88985 83.04620 48.95692
#
# Poissons Ratio (x) = 0.19677 0.20275
# Poissons Ratio (y) = 0.10162 0.38047
# Poissons Ratio (z) = 0.17763 0.64539
#
# Static dielectric constant tensor:
#      x y z
#    x 3.120050 0.000000 0.000000 
#    y 0.000000 3.563940 0.000000 
#    z 0.000000 0.000000 3.594020 
# 
# 
# High freq. dielectric constant tensor:
#      x y z
#    x 1.673630 0.000000 0.000000 
#    y 0.000000 1.734560 0.000000 
#    z 0.000000 0.000000 1.739130 
# 
# From -- ./inp_files/8557.got.cif
#   From: 2010.03.12/outbox.cif.g09.slc.cpg/sg63_5_cif.got.tgz:8557.got - 2010.04.10 19:34:48.
