data_PCOD8257195
_publ_section_title
;
Structure prediction by ZEFSAII (Michael W. Deem and Ramdas Pophale) SiO2 
 PCOD8257195
Probable space group: C M C M
;
_chemical_formula_sum "Si O2"
_cell_formula_units_Z 104
_cell_length_a 26.727459
_cell_length_b 23.964714
_cell_length_c 9.288896
_cell_angle_alpha 90.000000
_cell_angle_beta 90.000000
_cell_angle_gamma 90.000000
_cell_volume 5949.685683
_symmetry_space_group_name_H-M "C M C M"
_symmetry_group_IT_number 63
_symmetry_cell_setting 'orthorhombic'
loop_
_space_group_symop_operation_xyz
x,y,z
-x,-y,1/2+z
x,-y,-z
-x,y,1/2-z
-x,-y,-z
x,y,1/2-z
-x,y,z
x,-y,1/2+z
1/2+x,1/2+y,z
1/2-x,1/2-y,1/2+z
1/2+x,1/2-y,-z
1/2-x,1/2+y,1/2-z
1/2-x,1/2-y,-z
1/2+x,1/2+y,1/2-z
1/2-x,1/2+y,z
1/2+x,1/2-y,1/2+z
loop_
_atom_site_type_symbol
_atom_site_label
_atom_site_fract_x
_atom_site_fract_y
_atom_site_fract_z
Si Si1 0.109244 0.558459 0.418055
Si Si2 0.607529 0.330145 0.919458
Si Si3 0.441905 0.236507 0.087641
Si Si4 0.000000 0.554097 0.090076
Si Si5 0.627413 0.159394 0.586897
Si Si6 0.799047 0.240053 0.090205
Si Si7 0.557204 0.444788 0.582909
O O1 0.114998 0.500000 0.500000
O O2 0.124142 0.551878 0.250000
O O3 0.052838 0.585224 0.436368
O O4 0.143838 0.603691 0.499163
O O5 0.599496 0.316983 0.750000
O O6 0.663689 0.309730 0.965259
O O7 0.596159 0.394950 0.954040
O O8 0.567591 0.295803 0.011867
O O9 0.419372 0.236655 0.250000
O O10 0.500000 0.224396 0.094995
O O11 0.418698 0.187743 0.993205
O O12 0.000000 0.530750 0.250000
O O13 0.000000 0.500000 0.000000
O O14 0.611833 0.143708 0.750000
O O15 0.673638 0.200926 0.587030
O O16 0.781703 0.224181 0.250000
O O17 0.750000 0.250000 0.000000
O O18 0.575164 0.500000 0.500000
O O19 0.559737 0.459187 0.750000
O O20 0.500000 0.428418 0.539572
#
# Coordination Sequence:
#
# PCOD8257195 Si02
#       7
#    16  16  16   8  16  16  16
#     4  10  19  32  49  70  98 132 167 205 243 286
#     4   9  18  33  51  72  99 132 168 204 246 300
#     4  10  20  31  45  69 100 131 164 204 247 292
#     4   8  16  28  42  62  90 124 162 196 227 266
#     4  10  21  35  50  72  98 128 166 204 246 301
#     4   9  19  35  55  76  97 121 159 208 257 309
#     4   9  17  29  47  72 104 141 174 202 235 282
#
# _framework density 17.479914999999998
#
# number of rings (size 3 to 8) (size 9 to 14) (size 15 to 20)
#    0.000    2.615    0.000    2.769    1.077    6.154 
#    0.000    1.538    0.000    0.923    0.000    4.308 
#    0.000    0.000    0.000    0.000    0.000    0.000 
#
# Total GULP energy -644285.903107 kJ/mol
# GULP energy per Si atom -12390.113521 kJ/mol
# Density = 1.744013 g / cm^3
# Si number density = 17.479915 Si / 1000 Ang^3
#
#
#
# Elastic Constant Matrix: (Units=GPa)
#
#
# Indices 1 2 3 4 5 6 
#
# 1 71.4257 37.5449 36.6318 0.0000 0.0000 0.0000
# 2 37.5449 119.2572 59.1672 0.0000 0.0000 0.0000
# 3 36.6318 59.1672 107.9672 0.0000 0.0000 0.0000
# 4 0.0000 0.0000 0.0000 33.1725 0.0000 0.0000
# 5 0.0000 0.0000 0.0000 0.0000 25.7261 0.0000
# 6 0.0000 0.0000 0.0000 0.0000 0.0000 15.2316
#
#
#
# Elastic Compliance Matrix: (Units=1/GPa)
#
#
# Indices 1 2 3 4 5 6 
#
# 1 0.018024 -0.003626 -0.004128 0.000000 0.000000 0.000000
# 2 -0.003626 0.012246 -0.005481 0.000000 0.000000 0.000000
# 3 -0.004128 -0.005481 0.013666 0.000000 0.000000 0.000000
# 4 0.000000 0.000000 0.000000 0.030145 0.000000 0.000000
# 5 0.000000 0.000000 0.000000 0.000000 0.038871 0.000000
# 6 0.000000 0.000000 0.000000 0.000000 0.000000 0.065653
#
#
# Mechanical properties :
#
#
# Convention : Reuss Voigt Hill
#
# Bulk Modulus (GPa) = 57.25366 62.81534 60.03450
# Shear Modulus (GPa) = 23.70823 25.84644 24.77733
#
# Velocity S-wave (km/s) = 3.68681 3.84948 3.76902
# Velocity P-wave (km/s) = 7.13782 7.46804 7.30480
#
# Compressibility (1/GPa) = 0.01746613
#
# Stress axis : x y z
#
# Youngs Moduli (GPa) = 55.48211 81.65966 73.17399
#
# Poissons Ratio (x) = 0.29612 0.30206
# Poissons Ratio (y) = 0.20119 0.40103
# Poissons Ratio (z) = 0.22903 0.44754
#
# Static dielectric constant tensor:
#      x y z
#    x 3.011820 0.000000 0.000000 
#    y 0.000000 3.254340 0.000000 
#    z 0.000000 0.000000 3.458250 
# 
# 
# High freq. dielectric constant tensor:
#      x y z
#    x 1.638440 0.000000 0.000000 
#    y 0.000000 1.673950 0.000000 
#    z 0.000000 0.000000 1.688160 
# 
# From -- ./inp_files/13098.got.cif
#   From: 2010.03.12/outbox.cif.g09.slc.cpg/sg63_7_cif.got.tgz:13098.got - 2010.04.10 19:34:48.
