data_PCOD8257735
_publ_section_title
;
Structure prediction by ZEFSAII (Michael W. Deem and Ramdas Pophale) SiO2 
 PCOD8257735
Probable space group: C M C M
;
_chemical_formula_sum "Si O2"
_cell_formula_units_Z 96
_cell_length_a 9.021681
_cell_length_b 24.996887
_cell_length_c 23.578520
_cell_angle_alpha 90.000000
_cell_angle_beta 90.000000
_cell_angle_gamma 90.000000
_cell_volume 5317.284957
_symmetry_space_group_name_H-M "C M C M"
_symmetry_group_IT_number 63
_symmetry_cell_setting 'orthorhombic'
loop_
_space_group_symop_operation_xyz
x,y,z
-x,-y,1/2+z
x,-y,-z
-x,y,1/2-z
-x,-y,-z
x,y,1/2-z
-x,y,z
x,-y,1/2+z
1/2+x,1/2+y,z
1/2-x,1/2-y,1/2+z
1/2+x,1/2-y,-z
1/2-x,1/2+y,1/2-z
1/2-x,1/2-y,-z
1/2+x,1/2+y,1/2-z
1/2-x,1/2+y,z
1/2+x,1/2-y,1/2+z
loop_
_atom_site_type_symbol
_atom_site_label
_atom_site_fract_x
_atom_site_fract_y
_atom_site_fract_z
Si Si1 0.828824 0.225103 0.553571
Si Si2 0.324581 0.142671 0.250000
Si Si3 0.324652 0.977054 0.750000
Si Si4 0.175640 0.485259 0.371200
Si Si5 0.327817 0.823019 0.628834
Si Si6 0.328625 0.605378 0.563617
Si Si7 0.828242 0.082233 0.434077
O O1 0.750000 0.250000 0.500000
O O2 0.802910 0.262351 0.608376
O O3 0.767302 0.166045 0.566919
O O4 0.000000 0.220348 0.536954
O O5 0.500000 0.139753 0.250000
O O6 0.257036 0.082856 0.250000
O O7 0.270430 0.173582 0.306322
O O8 0.500000 0.972470 0.750000
O O9 0.270690 0.007850 0.806180
O O10 0.233309 0.428179 0.391886
O O11 0.241359 0.532343 0.409096
O O12 0.000000 0.487779 0.376524
O O13 0.500000 0.839957 0.624005
O O14 0.233859 0.862331 0.589697
O O15 0.500000 0.602505 0.581701
O O16 0.305498 0.581274 0.501332
O O17 0.000000 0.077342 0.417721
#
# Coordination Sequence:
#
# PCOD8257735 Si02
#       7
#    16   8   8  16  16  16  16
#     4  10  20  35  56  81 110 143 181 222 266 321
#     4   9  16  32  55  80 110 138 172 232 279 306
#     4   9  18  34  55  78 106 138 176 230 279 312
#     4  11  22  37  57  80 106 141 188 229 267 327
#     4  10  19  33  57  83 107 140 185 223 262 320
#     4  10  22  38  52  77 117 150 175 219 279 323
#     4  11  21  34  54  80 115 146 170 218 282 326
#
# _framework density 18.054326
#
# number of rings (size 3 to 8) (size 9 to 14) (size 15 to 20)
#    0.000    1.833    3.333    1.500    0.000    4.000 
#    0.000    3.750    0.000    2.000    0.000    0.000 
#    0.000    0.000    0.000    0.000    0.000    0.000 
#
# Total GULP energy -595276.429250 kJ/mol
# GULP energy per Si atom -12401.592276 kJ/mol
# Density = 1.801323 g / cm^3
# Si number density = 18.054326 Si / 1000 Ang^3
#
#
#
# Elastic Constant Matrix: (Units=GPa)
#
#
# Indices 1 2 3 4 5 6 
#
# 1 60.4011 47.2784 43.2760 0.0000 0.0000 0.0000
# 2 47.2784 149.2650 71.1365 0.0000 0.0000 0.0000
# 3 43.2760 71.1365 126.4879 0.0000 0.0000 0.0000
# 4 0.0000 0.0000 0.0000 32.7902 0.0000 0.0000
# 5 0.0000 0.0000 0.0000 0.0000 17.5376 0.0000
# 6 0.0000 0.0000 0.0000 0.0000 0.0000 29.7251
#
#
#
# Elastic Compliance Matrix: (Units=1/GPa)
#
#
# Indices 1 2 3 4 5 6 
#
# 1 0.024523 -0.005149 -0.005494 0.000000 0.000000 0.000000
# 2 -0.005149 0.010234 -0.003994 0.000000 0.000000 0.000000
# 3 -0.005494 -0.003994 0.012032 0.000000 0.000000 0.000000
# 4 0.000000 0.000000 0.000000 0.030497 0.000000 0.000000
# 5 0.000000 0.000000 0.000000 0.000000 0.057020 0.000000
# 6 0.000000 0.000000 0.000000 0.000000 0.000000 0.033642
#
#
# Mechanical properties :
#
#
# Convention : Reuss Voigt Hill
#
# Bulk Modulus (GPa) = 57.09652 73.28175 65.18914
# Shear Modulus (GPa) = 24.62331 27.64144 26.13238
#
# Velocity S-wave (km/s) = 3.69703 3.91706 3.80864
# Velocity P-wave (km/s) = 7.06524 7.81892 7.45161
#
# Compressibility (1/GPa) = 0.01751420
#
# Stress axis : x y z
#
# Youngs Moduli (GPa) = 40.77826 97.71613 83.11277
#
# Poissons Ratio (x) = 0.50313 0.45666
# Poissons Ratio (y) = 0.20996 0.33194
# Poissons Ratio (z) = 0.22405 0.39026
#
# Static dielectric constant tensor:
#      x y z
#    x 3.259270 0.000000 0.000000 
#    y 0.000000 3.500570 0.000000 
#    z 0.000000 0.000000 3.584710 
# 
# 
# High freq. dielectric constant tensor:
#      x y z
#    x 1.684820 0.000000 0.000000 
#    y 0.000000 1.702460 0.000000 
#    z 0.000000 0.000000 1.701120 
# 
# From -- ./inp_files/60036.got.cif
#   From: 2010.03.12/outbox.cif.g09.slc.cpg/sg63_31_cif.got.tgz:60036.got - 2010.04.10 19:34:48.
