data_PCOD8257136
_publ_section_title
;
Structure prediction by ZEFSAII (Michael W. Deem and Ramdas Pophale) SiO2 
 PCOD8257136
Probable space group: C M C M
;
_chemical_formula_sum "Si O2"
_cell_formula_units_Z 104
_cell_length_a 22.222243
_cell_length_b 27.897173
_cell_length_c 9.401419
_cell_angle_alpha 90.000000
_cell_angle_beta 90.000000
_cell_angle_gamma 90.000000
_cell_volume 5828.294611
_symmetry_space_group_name_H-M "C M C M"
_symmetry_group_IT_number 63
_symmetry_cell_setting 'orthorhombic'
loop_
_space_group_symop_operation_xyz
x,y,z
-x,-y,1/2+z
x,-y,-z
-x,y,1/2-z
-x,-y,-z
x,y,1/2-z
-x,y,z
x,-y,1/2+z
1/2+x,1/2+y,z
1/2-x,1/2-y,1/2+z
1/2+x,1/2-y,-z
1/2-x,1/2+y,1/2-z
1/2-x,1/2-y,-z
1/2+x,1/2+y,1/2-z
1/2-x,1/2+y,z
1/2+x,1/2-y,1/2+z
loop_
_atom_site_type_symbol
_atom_site_label
_atom_site_fract_x
_atom_site_fract_y
_atom_site_fract_z
Si Si1 0.317889 0.207842 0.912785
Si Si2 0.432942 0.042281 0.409822
Si Si3 0.000000 0.049904 0.585761
Si Si4 0.323791 0.298827 0.412141
Si Si5 0.835166 0.380267 0.589822
Si Si6 0.126564 0.097365 0.916014
Si Si7 0.729633 0.547763 0.080519
O O1 0.336818 0.210914 0.750000
O O2 0.247500 0.196954 0.933363
O O3 0.343788 0.255876 0.985254
O O4 0.349598 0.163247 0.986215
O O5 0.433883 0.023230 0.250000
O O6 0.500000 0.053462 0.466364
O O7 0.395486 0.089987 0.422937
O O8 0.402359 0.000000 0.500000
O O9 0.942424 0.083397 0.550965
O O10 0.000000 0.034703 0.750000
O O11 0.000000 0.000000 0.500000
O O12 0.339404 0.285346 0.250000
O O13 0.358983 0.347313 0.456256
O O14 0.824550 0.361278 0.750000
O O15 0.777659 0.411288 0.542904
O O16 0.142697 0.088590 0.750000
O O17 0.165616 0.063107 0.016504
O O18 0.724763 0.538822 0.250000
O O19 0.751071 0.500000 0.000000
#
# Coordination Sequence:
#
# PCOD8257136 Si02
#       7
#    16  16   8  16  16  16  16
#     4  10  19  31  52  80 106 134 168 207 256 310
#     4   9  18  33  52  73  99 134 174 211 249 298
#     4  10  22  38  58  80 106 140 182 226 267 318
#     4   9  18  33  53  76 104 135 166 208 258 309
#     4  10  20  33  50  75 105 136 170 211 257 305
#     4  10  20  37  57  78 104 137 177 219 264 314
#     4  11  22  33  49  75 107 139 170 210 259 310
#
# _framework density 17.843983999999999
#
# number of rings (size 3 to 8) (size 9 to 14) (size 15 to 20)
#    0.000    2.154    1.538    1.846    0.000    4.308 
#    0.000    0.000    1.692    0.000    0.000    0.000 
#    0.000    0.000    0.000    0.000    0.000    0.000 
#
# Total GULP energy -644701.233452 kJ/mol
# GULP energy per Si atom -12398.100643 kJ/mol
# Density = 1.780337 g / cm^3
# Si number density = 17.843984 Si / 1000 Ang^3
#
#
#
# Elastic Constant Matrix: (Units=GPa)
#
#
# Indices 1 2 3 4 5 6 
#
# 1 63.9494 29.9265 26.5692 0.0000 0.0000 0.0000
# 2 29.9265 123.9308 69.3876 0.0000 0.0000 0.0000
# 3 26.5692 69.3876 92.5542 0.0000 0.0000 0.0000
# 4 0.0000 0.0000 0.0000 36.2334 0.0000 0.0000
# 5 0.0000 0.0000 0.0000 0.0000 21.2000 0.0000
# 6 0.0000 0.0000 0.0000 0.0000 0.0000 13.2748
#
#
#
# Elastic Compliance Matrix: (Units=1/GPa)
#
#
# Indices 1 2 3 4 5 6 
#
# 1 0.018205 -0.002534 -0.003327 0.000000 0.000000 0.000000
# 2 -0.002534 0.014259 -0.009962 0.000000 0.000000 0.000000
# 3 -0.003327 -0.009962 0.019228 0.000000 0.000000 0.000000
# 4 0.000000 0.000000 0.000000 0.027599 0.000000 0.000000
# 5 0.000000 0.000000 0.000000 0.000000 0.047170 0.000000
# 6 0.000000 0.000000 0.000000 0.000000 0.000000 0.075331
#
#
# Mechanical properties :
#
#
# Convention : Reuss Voigt Hill
#
# Bulk Modulus (GPa) = 49.88330 59.13345 54.50837
# Shear Modulus (GPa) = 20.82303 24.44506 22.63404
#
# Velocity S-wave (km/s) = 3.41977 3.70528 3.56538
# Velocity P-wave (km/s) = 6.60371 7.17750 6.89658
#
# Compressibility (1/GPa) = 0.02004679
#
# Stress axis : x y z
#
# Youngs Moduli (GPa) = 54.92953 70.13296 52.00692
#
# Poissons Ratio (x) = 0.17769 0.17301
# Poissons Ratio (y) = 0.13917 0.51811
# Poissons Ratio (z) = 0.18273 0.69869
#
# Static dielectric constant tensor:
#      x y z
#    x 3.197090 0.000000 0.000000 
#    y 0.000000 3.312790 0.000000 
#    z 0.000000 0.000000 3.456080 
# 
# 
# High freq. dielectric constant tensor:
#      x y z
#    x 1.669350 0.000000 0.000000 
#    y 0.000000 1.694440 0.000000 
#    z 0.000000 0.000000 1.696150 
# 
# From -- ./inp_files/10853.got.cif
#   From: 2010.03.12/outbox.cif.g09.slc.cpg/sg63_6_cif.got.tgz:10853.got - 2010.04.10 19:34:48.
