data_PCOD8257285
_publ_section_title
;
Structure prediction by ZEFSAII (Michael W. Deem and Ramdas Pophale) SiO2 
 PCOD8257285
Probable space group: C M C M
;
_chemical_formula_sum "Si O2"
_cell_formula_units_Z 96
_cell_length_a 8.508688
_cell_length_b 23.427010
_cell_length_c 26.017321
_cell_angle_alpha 90.000000
_cell_angle_beta 90.000000
_cell_angle_gamma 90.000000
_cell_volume 5186.113739
_symmetry_space_group_name_H-M "C M C M"
_symmetry_group_IT_number 63
_symmetry_cell_setting 'orthorhombic'
loop_
_space_group_symop_operation_xyz
x,y,z
-x,-y,1/2+z
x,-y,-z
-x,y,1/2-z
-x,-y,-z
x,y,1/2-z
-x,y,z
x,-y,1/2+z
1/2+x,1/2+y,z
1/2-x,1/2-y,1/2+z
1/2+x,1/2-y,-z
1/2-x,1/2+y,1/2-z
1/2-x,1/2-y,-z
1/2+x,1/2+y,1/2-z
1/2-x,1/2+y,z
1/2+x,1/2-y,1/2+z
loop_
_atom_site_type_symbol
_atom_site_label
_atom_site_fract_x
_atom_site_fract_y
_atom_site_fract_z
Si Si1 0.816061 0.730528 0.554696
Si Si2 0.320030 0.608422 0.570955
Si Si3 0.185096 0.910405 0.691363
Si Si4 0.321122 0.572707 0.041696
Si Si5 0.815671 0.332391 0.893187
Si Si6 0.817602 0.505858 0.622076
O O1 0.750000 0.750000 0.500000
O O2 0.784031 0.664639 0.566509
O O3 0.734447 0.766480 0.600767
O O4 0.000000 0.741817 0.555027
O O5 0.500000 0.625956 0.580669
O O6 0.303227 0.570452 0.519427
O O7 0.257137 0.569039 0.617480
O O8 0.241793 0.908254 0.750000
O O9 0.267796 0.857913 0.662002
O O10 0.000000 0.902881 0.686313
O O11 0.234192 0.971348 0.667858
O O12 0.500000 0.558450 0.058156
O O13 0.276359 0.635686 0.061043
O O14 0.205729 0.527707 0.068507
O O15 0.000000 0.340125 0.901098
O O16 0.000000 0.511558 0.634710
#
# Coordination Sequence:
#
# PCOD8257285 Si02
#       6
#    16  16  16  16  16  16
#     4  12  23  36  54  78 112 152 193 230 270 325
#     4  11  22  35  52  75 109 151 190 226 268 322
#     4  10  21  39  63  86 109 140 181 232 285 333
#     4  10  19  32  51  74 107 147 186 227 267 317
#     4  11  21  34  55  82 113 146 185 231 276 327
#     4  11  22  34  52  79 111 143 181 228 276 332
#
# _framework density 18.51097
#
# number of rings (size 3 to 8) (size 9 to 14) (size 15 to 20)
#    0.000    1.167    1.667    8.500    0.000    5.333 
#    0.000    0.000    0.000    1.000    0.000    0.000 
#    0.000    0.000    0.000    0.000    0.000    0.000 
#
# Total GULP energy -595316.115652 kJ/mol
# GULP energy per Si atom -12402.419076 kJ/mol
# Density = 1.846884 g / cm^3
# Si number density = 18.510970 Si / 1000 Ang^3
#
#
#
# Elastic Constant Matrix: (Units=GPa)
#
#
# Indices 1 2 3 4 5 6 
#
# 1 86.1062 14.5054 32.7679 0.0000 0.0000 0.0000
# 2 14.5054 86.7682 41.5774 0.0000 0.0000 0.0000
# 3 32.7679 41.5774 92.5509 0.0000 0.0000 0.0000
# 4 0.0000 0.0000 0.0000 17.6042 0.0000 0.0000
# 5 0.0000 0.0000 0.0000 0.0000 20.3373 0.0000
# 6 0.0000 0.0000 0.0000 0.0000 0.0000 33.7670
#
#
#
# Elastic Compliance Matrix: (Units=1/GPa)
#
#
# Indices 1 2 3 4 5 6 
#
# 1 0.013422 0.000042 -0.004771 0.000000 0.000000 0.000000
# 2 0.000042 0.014687 -0.006613 0.000000 0.000000 0.000000
# 3 -0.004771 -0.006613 0.015465 0.000000 0.000000 0.000000
# 4 0.000000 0.000000 0.000000 0.056805 0.000000 0.000000
# 5 0.000000 0.000000 0.000000 0.000000 0.049171 0.000000
# 6 0.000000 0.000000 0.000000 0.000000 0.000000 0.029615
#
#
# Mechanical properties :
#
#
# Convention : Reuss Voigt Hill
#
# Bulk Modulus (GPa) = 47.86889 49.23630 48.55260
# Shear Modulus (GPa) = 23.94519 26.11334 25.02926
#
# Velocity S-wave (km/s) = 3.60052 3.76000 3.68112
# Velocity P-wave (km/s) = 6.57274 6.74584 6.65985
#
# Compressibility (1/GPa) = 0.02089040
#
# Stress axis : x y z
#
# Youngs Moduli (GPa) = 74.50393 68.08938 64.66276
#
# Poissons Ratio (x) = -0.00289 0.30852
# Poissons Ratio (y) = -0.00316 0.42760
# Poissons Ratio (z) = 0.35547 0.45026
#
# Static dielectric constant tensor:
#      x y z
#    x 3.495370 0.000000 0.000000 
#    y 0.000000 3.500040 0.000000 
#    z 0.000000 0.000000 3.254500 
# 
# 
# High freq. dielectric constant tensor:
#      x y z
#    x 1.736960 0.000000 0.000000 
#    y 0.000000 1.720760 0.000000 
#    z 0.000000 0.000000 1.680370 
# 
# From -- ./inp_files/67259.got.cif
#   From: 2010.03.12/outbox.cif.g09.slc.cpg/sg63_34_cif.got.tgz:67259.got - 2010.04.10 19:34:48.
