data_PCOD8257504
_publ_section_title
;
Structure prediction by ZEFSAII (Michael W. Deem and Ramdas Pophale) SiO2 
 PCOD8257504
Probable space group: C M C M
;
_chemical_formula_sum "Si O2"
_cell_formula_units_Z 88
_cell_length_a 13.439257
_cell_length_b 28.788617
_cell_length_c 13.461214
_cell_angle_alpha 90.000000
_cell_angle_beta 90.000000
_cell_angle_gamma 90.000000
_cell_volume 5208.111693
_symmetry_space_group_name_H-M "C M C M"
_symmetry_group_IT_number 63
_symmetry_cell_setting 'orthorhombic'
loop_
_space_group_symop_operation_xyz
x,y,z
-x,-y,1/2+z
x,-y,-z
-x,y,1/2-z
-x,-y,-z
x,y,1/2-z
-x,y,z
x,-y,1/2+z
1/2+x,1/2+y,z
1/2-x,1/2-y,1/2+z
1/2+x,1/2-y,-z
1/2-x,1/2+y,1/2-z
1/2-x,1/2-y,-z
1/2+x,1/2+y,1/2-z
1/2-x,1/2+y,z
1/2+x,1/2-y,1/2+z
loop_
_atom_site_type_symbol
_atom_site_label
_atom_site_fract_x
_atom_site_fract_y
_atom_site_fract_z
Si Si1 0.385010 0.750426 0.634979
Si Si2 0.614583 0.157010 0.475038
Si Si3 0.614537 0.564420 0.864120
Si Si4 0.751052 0.000000 0.500000
Si Si5 0.885398 0.436572 0.635678
Si Si6 0.225005 0.842065 0.135874
O O1 0.366025 0.761125 0.750000
O O2 0.500000 0.739549 0.614891
O O3 0.349045 0.795051 0.573778
O O4 0.322842 0.706046 0.599050
O O5 0.500000 0.159684 0.507473
O O6 0.632195 0.116617 0.395158
O O7 0.676723 0.146571 0.573690
O O8 0.631870 0.549553 0.750000
O O9 0.500000 0.558589 0.894764
O O10 0.680342 0.532460 0.933754
O O11 0.643576 0.617977 0.880004
O O12 0.682054 0.970105 0.571223
O O13 0.854146 0.441729 0.750000
O O14 0.000000 0.450901 0.619486
O O15 0.258364 0.838985 0.250000
#
# Coordination Sequence:
#
# PCOD8257504 Si02
#       6
#    16  16  16   8  16  16
#     4   9  17  30  52  78 101 129 166 207 250 302
#     4  10  19  33  51  75 104 134 170 209 252 305
#     4  10  21  36  54  77 104 134 171 215 259 304
#     4  12  20  36  56  78 104 132 176 216 260 306
#     4  10  21  36  54  77 106 138 171 211 255 304
#     4  10  19  33  51  75 104 134 169 209 255 304
#
# _framework density 16.896718
#
# number of rings (size 3 to 8) (size 9 to 14) (size 15 to 20)
#    0.000    2.000    1.818    2.727    0.000    4.727 
#    0.000    0.000    0.000    0.000    0.000    0.000 
#    0.000    0.000    0.000    0.000    0.000    0.000 
#
# Total GULP energy -545697.274043 kJ/mol
# GULP energy per Si atom -12402.210774 kJ/mol
# Density = 1.685826 g / cm^3
# Si number density = 16.896718 Si / 1000 Ang^3
#
#
#
# Elastic Constant Matrix: (Units=GPa)
#
#
# Indices 1 2 3 4 5 6 
#
# 1 99.7873 60.0131 73.0908 0.0000 0.0000 0.0000
# 2 60.0131 111.4913 62.5827 0.0000 0.0000 0.0000
# 3 73.0908 62.5827 103.4929 0.0000 0.0000 0.0000
# 4 0.0000 0.0000 0.0000 30.7876 0.0000 0.0000
# 5 0.0000 0.0000 0.0000 0.0000 29.4283 0.0000
# 6 0.0000 0.0000 0.0000 0.0000 0.0000 30.3992
#
#
#
# Elastic Compliance Matrix: (Units=1/GPa)
#
#
# Indices 1 2 3 4 5 6 
#
# 1 0.022335 -0.004796 -0.012874 0.000000 0.000000 0.000000
# 2 -0.004796 0.014608 -0.005446 0.000000 0.000000 0.000000
# 3 -0.012874 -0.005446 0.022048 0.000000 0.000000 0.000000
# 4 0.000000 0.000000 0.000000 0.032481 0.000000 0.000000
# 5 0.000000 0.000000 0.000000 0.000000 0.033981 0.000000
# 6 0.000000 0.000000 0.000000 0.000000 0.000000 0.032896
#
#
# Mechanical properties :
#
#
# Convention : Reuss Voigt Hill
#
# Bulk Modulus (GPa) = 78.37795 78.46053 78.41924
# Shear Modulus (GPa) = 23.94241 26.06205 25.00223
#
# Velocity S-wave (km/s) = 3.76837 3.93164 3.85087
# Velocity P-wave (km/s) = 8.08835 8.19430 8.14150
#
# Compressibility (1/GPa) = 0.01275869
#
# Stress axis : x y z
#
# Youngs Moduli (GPa) = 44.77179 68.45485 45.35567
#
# Poissons Ratio (x) = 0.32833 0.58390
# Poissons Ratio (y) = 0.21474 0.24702
# Poissons Ratio (z) = 0.57639 0.37283
#
# Static dielectric constant tensor:
#      x y z
#    x 3.125900 0.000000 0.000000 
#    y 0.000000 3.271610 0.000000 
#    z 0.000000 0.000000 3.144710 
# 
# 
# High freq. dielectric constant tensor:
#      x y z
#    x 1.649020 0.000000 0.000000 
#    y 0.000000 1.664000 0.000000 
#    z 0.000000 0.000000 1.650120 
# 
# From -- ./inp_files/30287.got.cif
#   From: 2010.03.12/outbox.cif.g09.slc.cpg/sg63_16_cif.got.tgz:30287.got - 2010.04.10 19:34:48.
