data_PCOD8257662
_publ_section_title
;
Structure prediction by ZEFSAII (Michael W. Deem and Ramdas Pophale) SiO2 
 PCOD8257662
Probable space group: C M C M
;
_chemical_formula_sum "Si O2"
_cell_formula_units_Z 96
_cell_length_a 8.837188
_cell_length_b 30.239457
_cell_length_c 20.422197
_cell_angle_alpha 90.000000
_cell_angle_beta 90.000000
_cell_angle_gamma 90.000000
_cell_volume 5457.459781
_symmetry_space_group_name_H-M "C M C M"
_symmetry_group_IT_number 63
_symmetry_cell_setting 'orthorhombic'
loop_
_space_group_symop_operation_xyz
x,y,z
-x,-y,1/2+z
x,-y,-z
-x,y,1/2-z
-x,-y,-z
x,y,1/2-z
-x,y,z
x,-y,1/2+z
1/2+x,1/2+y,z
1/2-x,1/2-y,1/2+z
1/2+x,1/2-y,-z
1/2-x,1/2+y,1/2-z
1/2-x,1/2-y,-z
1/2+x,1/2+y,1/2-z
1/2-x,1/2+y,z
1/2+x,1/2-y,1/2+z
loop_
_atom_site_type_symbol
_atom_site_label
_atom_site_fract_x
_atom_site_fract_y
_atom_site_fract_z
Si Si1 0.672819 0.881040 0.495915
Si Si2 0.677630 0.688115 0.679794
Si Si3 0.173898 0.501710 0.677313
Si Si4 0.680129 0.709133 0.962478
Si Si5 0.670038 0.100277 0.847965
Si Si6 0.677573 0.463812 0.947077
O O1 0.500000 0.870755 0.515670
O O2 0.765743 0.835401 0.498203
O O3 0.685603 0.903697 0.425635
O O4 0.742740 0.916411 0.545523
O O5 0.735561 0.708781 0.750000
O O6 0.500000 0.692823 0.676708
O O7 0.742506 0.710633 0.613310
O O8 0.717141 0.636429 0.680719
O O9 0.198630 0.481398 0.750000
O O10 0.214146 0.553411 0.682101
O O11 0.285487 0.478754 0.626429
O O12 0.000000 0.495531 0.654241
O O13 0.500000 0.711407 0.965107
O O14 0.750000 0.750000 0.000000
O O15 0.500000 0.114216 0.828118
O O16 0.500000 0.457140 0.955719
O O17 0.737065 0.500000 0.000000
#
# Coordination Sequence:
#
# PCOD8257662 Si02
#       6
#    16  16  16  16  16  16
#     4  10  19  33  55  78 102 135 175 217 263 309
#     4   9  18  31  48  72 103 136 166 202 251 308
#     4  10  20  33  49  71 102 140 180 221 264 310
#     4  10  20  35  55  79 108 136 171 214 262 316
#     4   9  17  29  47  72 102 134 168 207 251 305
#     4  11  22  34  51  75 105 140 180 220 260 308
#
# _framework density 17.590600999999999
#
# number of rings (size 3 to 8) (size 9 to 14) (size 15 to 20)
#    0.000    2.167    1.667    2.000    0.000    4.000 
#    0.000    0.000    0.000    1.000    0.000    2.333 
#    0.000    0.000    0.000    0.000    0.000    0.000 
#
# Total GULP energy -594976.793826 kJ/mol
# GULP energy per Si atom -12395.349871 kJ/mol
# Density = 1.755056 g / cm^3
# Si number density = 17.590601 Si / 1000 Ang^3
#
#
#
# Elastic Constant Matrix: (Units=GPa)
#
#
# Indices 1 2 3 4 5 6 
#
# 1 52.4325 30.3878 29.3716 0.0000 0.0000 0.0000
# 2 30.3878 87.1994 53.5163 0.0000 0.0000 0.0000
# 3 29.3716 53.5163 110.1971 0.0000 0.0000 0.0000
# 4 0.0000 0.0000 0.0000 15.8865 0.0000 0.0000
# 5 0.0000 0.0000 0.0000 0.0000 18.7585 0.0000
# 6 0.0000 0.0000 0.0000 0.0000 0.0000 29.8860
#
#
#
# Elastic Compliance Matrix: (Units=1/GPa)
#
#
# Indices 1 2 3 4 5 6 
#
# 1 0.024779 -0.006527 -0.003435 0.000000 0.000000 0.000000
# 2 -0.006527 0.018057 -0.007029 0.000000 0.000000 0.000000
# 3 -0.003435 -0.007029 0.013404 0.000000 0.000000 0.000000
# 4 0.000000 0.000000 0.000000 0.062947 0.000000 0.000000
# 5 0.000000 0.000000 0.000000 0.000000 0.053309 0.000000
# 6 0.000000 0.000000 0.000000 0.000000 0.000000 0.033460
#
#
# Mechanical properties :
#
#
# Convention : Reuss Voigt Hill
#
# Bulk Modulus (GPa) = 44.92929 52.93113 48.93021
# Shear Modulus (GPa) = 20.21369 22.00977 21.11173
#
# Velocity S-wave (km/s) = 3.39354 3.54110 3.46811
# Velocity P-wave (km/s) = 6.39937 6.84654 6.62673
#
# Compressibility (1/GPa) = 0.02225719
#
# Stress axis : x y z
#
# Youngs Moduli (GPa) = 40.35660 55.38118 74.60553
#
# Poissons Ratio (x) = 0.36149 0.25624
# Poissons Ratio (y) = 0.26342 0.52443
# Poissons Ratio (z) = 0.13861 0.38929
#
# Static dielectric constant tensor:
#      x y z
#    x 3.251080 0.000000 0.000000 
#    y 0.000000 2.997490 0.000000 
#    z 0.000000 0.000000 3.531980 
# 
# 
# High freq. dielectric constant tensor:
#      x y z
#    x 1.679640 0.000000 0.000000 
#    y 0.000000 1.648590 0.000000 
#    z 0.000000 0.000000 1.682810 
# 
# From -- ./inp_files/51415.got.cif
#   From: 2010.03.12/outbox.cif.g09.slc.cpg/sg63_26_cif.got.tgz:51415.got - 2010.04.10 19:34:48.
