data_PCOD8257408
_publ_section_title
;
Structure prediction by ZEFSAII (Michael W. Deem and Ramdas Pophale) SiO2 
 PCOD8257408
Probable space group: C M C M
;
_chemical_formula_sum "Si O2"
_cell_formula_units_Z 96
_cell_length_a 10.903180
_cell_length_b 24.219632
_cell_length_c 18.912815
_cell_angle_alpha 90.000000
_cell_angle_beta 90.000000
_cell_angle_gamma 90.000000
_cell_volume 4994.326107
_symmetry_space_group_name_H-M "C M C M"
_symmetry_group_IT_number 63
_symmetry_cell_setting 'orthorhombic'
loop_
_space_group_symop_operation_xyz
x,y,z
-x,-y,1/2+z
x,-y,-z
-x,y,1/2-z
-x,-y,-z
x,y,1/2-z
-x,y,z
x,-y,1/2+z
1/2+x,1/2+y,z
1/2-x,1/2-y,1/2+z
1/2+x,1/2-y,-z
1/2-x,1/2+y,1/2-z
1/2-x,1/2-y,-z
1/2+x,1/2+y,1/2-z
1/2-x,1/2+y,z
1/2+x,1/2-y,1/2+z
loop_
_atom_site_type_symbol
_atom_site_label
_atom_site_fract_x
_atom_site_fract_y
_atom_site_fract_z
Si Si1 0.500000 0.530730 0.105511
Si Si2 0.500000 0.587870 0.965271
Si Si3 0.248081 0.507151 0.331904
Si Si4 0.138408 0.409472 0.932828
Si Si5 0.636343 0.215500 0.916642
Si Si6 0.138013 0.285793 0.582308
Si Si7 0.755457 0.400377 0.421903
O O1 0.500000 0.474118 0.063129
O O2 0.618428 0.533502 0.155400
O O3 0.500000 0.582755 0.051060
O O4 0.383866 0.620950 0.934128
O O5 0.215609 0.506535 0.250000
O O6 0.150804 0.545837 0.371265
O O7 0.236052 0.444866 0.359881
O O8 0.178219 0.349146 0.904808
O O9 0.000000 0.405440 0.958497
O O10 0.211678 0.428471 0.002698
O O11 0.500000 0.230519 0.885228
O O12 0.750816 0.249835 0.882586
O O13 0.658677 0.150716 0.901811
O O14 0.632611 0.227434 0.999559
O O15 0.000000 0.273893 0.614185
#
# Coordination Sequence:
#
# PCOD8257408 Si02
#       7
#     8   8  16  16  16  16  16
#     4   9  17  34  50  72 106 138 174 218 255 303
#     4   9  16  28  52  80 100 134 184 210 250 314
#     4  11  22  35  52  77 108 141 175 217 268 318
#     4  10  20  35  53  75 105 140 178 220 262 313
#     4   9  17  30  49  78 109 136 170 218 268 313
#     4   8  16  31  49  73 104 137 174 216 263 311
#     4  10  19  32  53  79 108 139 175 216 264 322
#
# _framework density 19.221812
#
# number of rings (size 3 to 8) (size 9 to 14) (size 15 to 20)
#    0.000    2.500    1.667    2.250    1.167    2.333 
#    6.000    0.000    0.000    1.000    0.000    0.000 
#    0.000    0.000    0.000    0.000    0.000    0.000 
#
# Total GULP energy -594882.873961 kJ/mol
# GULP energy per Si atom -12393.393208 kJ/mol
# Density = 1.917806 g / cm^3
# Si number density = 19.221812 Si / 1000 Ang^3
#
#
#
# Elastic Constant Matrix: (Units=GPa)
#
#
# Indices 1 2 3 4 5 6 
#
# 1 107.4785 29.2984 6.4439 0.0000 0.0000 0.0000
# 2 29.2984 32.5803 7.9166 0.0000 0.0000 0.0000
# 3 6.4439 7.9166 63.5639 0.0000 0.0000 0.0000
# 4 0.0000 0.0000 0.0000 5.7120 0.0000 0.0000
# 5 0.0000 0.0000 0.0000 0.0000 9.9166 0.0000
# 6 0.0000 0.0000 0.0000 0.0000 0.0000 30.6162
#
#
#
# Elastic Compliance Matrix: (Units=1/GPa)
#
#
# Indices 1 2 3 4 5 6 
#
# 1 0.012327 -0.011118 0.000135 0.000000 0.000000 0.000000
# 2 -0.011118 0.041679 -0.004064 0.000000 0.000000 0.000000
# 3 0.000135 -0.004064 0.016225 0.000000 0.000000 0.000000
# 4 0.000000 0.000000 0.000000 0.175071 0.000000 0.000000
# 5 0.000000 0.000000 0.000000 0.000000 0.100841 0.000000
# 6 0.000000 0.000000 0.000000 0.000000 0.000000 0.032662
#
#
# Mechanical properties :
#
#
# Convention : Reuss Voigt Hill
#
# Bulk Modulus (GPa) = 24.91476 32.32672 28.62074
# Shear Modulus (GPa) = 11.84057 19.91322 15.87690
#
# Velocity S-wave (km/s) = 2.48462 3.22214 2.87711
# Velocity P-wave (km/s) = 4.60662 5.54050 5.09500
#
# Compressibility (1/GPa) = 0.04013686
#
# Stress axis : x y z
#
# Youngs Moduli (GPa) = 81.12410 23.99304 61.63465
#
# Poissons Ratio (x) = 0.26675 -0.00832
# Poissons Ratio (y) = 0.90193 0.25047
# Poissons Ratio (z) = -0.01096 0.09750
#
# Static dielectric constant tensor:
#      x y z
#    x 3.994970 0.000000 0.000000 
#    y 0.000000 3.385680 0.000000 
#    z 0.000000 0.000000 2.906100 
# 
# 
# High freq. dielectric constant tensor:
#      x y z
#    x 1.771190 0.000000 0.000000 
#    y 0.000000 1.736720 0.000000 
#    z 0.000000 0.000000 1.677500 
# 
# From -- ./inp_files/42558.got.cif
#   From: 2010.03.12/outbox.cif.g09.slc.cpg/sg63_22_cif.got.tgz:42558.got - 2010.04.10 19:34:48.
