data_PCOD8257199
_publ_section_title
;
Structure prediction by ZEFSAII (Michael W. Deem and Ramdas Pophale) SiO2 
 PCOD8257199
Probable space group: C M C M
;
_chemical_formula_sum "Si O2"
_cell_formula_units_Z 80
_cell_length_a 11.317133
_cell_length_b 31.394204
_cell_length_c 12.569366
_cell_angle_alpha 90.000000
_cell_angle_beta 90.000000
_cell_angle_gamma 90.000000
_cell_volume 4465.799988
_symmetry_space_group_name_H-M "C M C M"
_symmetry_group_IT_number 63
_symmetry_cell_setting 'orthorhombic'
loop_
_space_group_symop_operation_xyz
x,y,z
-x,-y,1/2+z
x,-y,-z
-x,y,1/2-z
-x,-y,-z
x,y,1/2-z
-x,y,z
x,-y,1/2+z
1/2+x,1/2+y,z
1/2-x,1/2-y,1/2+z
1/2+x,1/2-y,-z
1/2-x,1/2+y,1/2-z
1/2-x,1/2-y,-z
1/2+x,1/2+y,1/2-z
1/2-x,1/2+y,z
1/2+x,1/2-y,1/2+z
loop_
_atom_site_type_symbol
_atom_site_label
_atom_site_fract_x
_atom_site_fract_y
_atom_site_fract_z
Si Si1 0.634681 0.416615 0.250000
Si Si2 0.781734 0.703828 0.131913
Si Si3 0.862986 0.880817 0.871195
Si Si4 0.864854 0.954183 0.022022
Si Si5 0.872000 0.715355 0.911901
Si Si6 0.362625 0.856325 0.250000
O O1 0.500000 0.394973 0.250000
O O2 0.645804 0.445802 0.353230
O O3 0.751801 0.387994 0.250000
O O4 0.839107 0.699193 0.250000
O O5 0.695754 0.664631 0.107244
O O6 0.715291 0.748558 0.126860
O O7 0.877140 0.705894 0.038378
O O8 0.842370 0.896034 0.750000
O O9 0.000000 0.873854 0.897039
O O10 0.806918 0.916441 0.950424
O O11 0.000000 0.957062 0.983816
O O12 0.802949 0.000000 0.000000
O O13 0.841264 0.671234 0.855234
O O14 0.000000 0.731269 0.875693
O O15 0.500000 0.875145 0.250000
#
# Coordination Sequence:
#
# PCOD8257199 Si02
#       6
#     8  16  16  16  16   8
#     4  10  20  34  54  79 107 137 171 218 266 308
#     4  10  19  32  49  71  99 128 169 219 256 300
#     4   9  17  28  46  69  95 128 163 200 248 306
#     4   9  18  30  47  73 105 134 163 205 261 318
#     4  10  20  33  51  71  99 138 176 213 258 312
#     4  10  20  36  56  77 105 143 183 214 256 318
#
# _framework density 17.913924000000002
#
# number of rings (size 3 to 8) (size 9 to 14) (size 15 to 20)
#    0.000    2.400    1.000    1.800    1.400    1.200 
#    0.000    4.000    0.000    0.600    0.000    0.000 
#    0.000    0.000    0.000    0.000    0.000    0.000 
#
# Total GULP energy -495525.559174 kJ/mol
# GULP energy per Si atom -12388.138979 kJ/mol
# Density = 1.787315 g / cm^3
# Si number density = 17.913924 Si / 1000 Ang^3
#
#
#
# Elastic Constant Matrix: (Units=GPa)
#
#
# Indices 1 2 3 4 5 6 
#
# 1 61.6905 34.8310 15.9959 0.0000 0.0000 0.0000
# 2 34.8310 86.5964 33.0945 0.0000 0.0000 0.0000
# 3 15.9959 33.0945 113.6123 0.0000 0.0000 0.0000
# 4 0.0000 0.0000 0.0000 27.6268 0.0000 0.0000
# 5 0.0000 0.0000 0.0000 0.0000 58.5416 0.0000
# 6 0.0000 0.0000 0.0000 0.0000 0.0000 54.6083
#
#
#
# Elastic Compliance Matrix: (Units=1/GPa)
#
#
# Indices 1 2 3 4 5 6 
#
# 1 0.021004 -0.008235 -0.000558 0.000000 0.000000 0.000000
# 2 -0.008235 0.016223 -0.003566 0.000000 0.000000 0.000000
# 3 -0.000558 -0.003566 0.009919 0.000000 0.000000 0.000000
# 4 0.000000 0.000000 0.000000 0.036197 0.000000 0.000000
# 5 0.000000 0.000000 0.000000 0.000000 0.017082 0.000000
# 6 0.000000 0.000000 0.000000 0.000000 0.000000 0.018312
#
#
# Mechanical properties :
#
#
# Convention : Reuss Voigt Hill
#
# Bulk Modulus (GPa) = 44.58857 47.74914 46.16885
# Shear Modulus (GPa) = 33.12738 40.02051 36.57394
#
# Velocity S-wave (km/s) = 4.30496 4.73170 4.52336
# Velocity P-wave (km/s) = 7.04661 7.52094 7.28764
#
# Compressibility (1/GPa) = 0.02242727
#
# Stress axis : x y z
#
# Youngs Moduli (GPa) = 47.60930 61.64087 100.81345
#
# Poissons Ratio (x) = 0.50761 0.05630
# Poissons Ratio (y) = 0.39206 0.35952
# Poissons Ratio (z) = 0.02659 0.21983
#
# Static dielectric constant tensor:
#      x y z
#    x 3.024470 0.000000 0.000000 
#    y 0.000000 3.328550 0.000000 
#    z 0.000000 0.000000 3.785020 
# 
# 
# High freq. dielectric constant tensor:
#      x y z
#    x 1.649540 0.000000 0.000000 
#    y 0.000000 1.685660 0.000000 
#    z 0.000000 0.000000 1.718110 
# 
# From -- ./inp_files/17885.got.cif
#   From: 2010.03.12/outbox.cif.g09.slc.cpg/sg63_9_cif.got.tgz:17885.got - 2010.04.10 19:34:48.
