data_PCOD8257244
_publ_section_title
;
Structure prediction by ZEFSAII (Michael W. Deem and Ramdas Pophale) SiO2 
 PCOD8257244
Probable space group: C M C M
;
_chemical_formula_sum "Si O2"
_cell_formula_units_Z 112
_cell_length_a 14.092681
_cell_length_b 13.831056
_cell_length_c 28.923836
_cell_angle_alpha 90.000000
_cell_angle_beta 90.000000
_cell_angle_gamma 90.000000
_cell_volume 5637.737510
_symmetry_space_group_name_H-M "C M C M"
_symmetry_group_IT_number 63
_symmetry_cell_setting 'orthorhombic'
loop_
_space_group_symop_operation_xyz
x,y,z
-x,-y,1/2+z
x,-y,-z
-x,y,1/2-z
-x,-y,-z
x,y,1/2-z
-x,y,z
x,-y,1/2+z
1/2+x,1/2+y,z
1/2-x,1/2-y,1/2+z
1/2+x,1/2-y,-z
1/2-x,1/2+y,1/2-z
1/2-x,1/2-y,-z
1/2+x,1/2+y,1/2-z
1/2-x,1/2+y,z
1/2+x,1/2-y,1/2+z
loop_
_atom_site_type_symbol
_atom_site_label
_atom_site_fract_x
_atom_site_fract_y
_atom_site_fract_z
Si Si1 0.388654 0.020785 0.889311
Si Si2 0.608441 0.554446 0.833480
Si Si3 0.296859 0.095710 0.525115
Si Si4 0.893060 0.669264 0.057008
Si Si5 0.210774 0.542011 0.196740
Si Si6 0.395235 0.383479 0.433026
Si Si7 0.105230 0.265892 0.695919
O O1 0.500000 0.037798 0.886062
O O2 0.343645 0.101813 0.923656
O O3 0.344477 0.031228 0.837890
O O4 0.358935 0.914798 0.908424
O O5 0.500000 0.535926 0.817036
O O6 0.676244 0.473831 0.810424
O O7 0.616643 0.546905 0.888943
O O8 0.643240 0.661349 0.819319
O O9 0.330765 0.179857 0.490238
O O10 0.182968 0.092104 0.528655
O O11 0.335766 0.000000 0.500000
O O12 0.883640 0.771455 0.083567
O O13 0.000000 0.647474 0.041144
O O14 0.183158 0.519144 0.250000
O O15 0.180842 0.651036 0.182735
O O16 0.500000 0.397841 0.455124
O O17 0.092154 0.263719 0.750000
O O18 0.000000 0.287850 0.673672
#
# Coordination Sequence:
#
# PCOD8257244 Si02
#       7
#    16  16  16  16  16  16  16
#     4  10  19  33  51  75 106 135 169 217 271 326
#     4  10  20  36  57  81 110 145 187 231 275 326
#     4  10  19  32  50  75 105 139 170 210 263 322
#     4   9  18  32  54  79 101 131 172 218 269 319
#     4  11  21  33  54  83 111 142 181 227 279 329
#     4  10  19  32  50  74 103 136 175 219 261 313
#     4   9  18  33  54  81 108 135 177 231 278 322
#
# _framework density 19.866126000000001
#
# number of rings (size 3 to 8) (size 9 to 14) (size 15 to 20)
#    0.000    2.143    1.429    2.571    0.000    6.000 
#    0.000    0.000    0.000    1.714    0.000    4.000 
#    0.000    0.000    0.000    0.000    0.000    0.000 
#
# Total GULP energy -694123.329639 kJ/mol
# GULP energy per Si atom -12395.059458 kJ/mol
# Density = 1.982091 g / cm^3
# Si number density = 19.866126 Si / 1000 Ang^3
#
#
#
# Elastic Constant Matrix: (Units=GPa)
#
#
# Indices 1 2 3 4 5 6 
#
# 1 120.5965 32.0250 35.3918 0.0000 0.0000 0.0000
# 2 32.0250 45.1117 5.4461 0.0000 0.0000 0.0000
# 3 35.3918 5.4461 69.3669 0.0000 0.0000 0.0000
# 4 0.0000 0.0000 0.0000 19.5054 0.0000 0.0000
# 5 0.0000 0.0000 0.0000 0.0000 31.6943 0.0000
# 6 0.0000 0.0000 0.0000 0.0000 0.0000 30.8143
#
#
#
# Elastic Compliance Matrix: (Units=1/GPa)
#
#
# Indices 1 2 3 4 5 6 
#
# 1 0.011991 -0.007848 -0.005502 0.000000 0.000000 0.000000
# 2 -0.007848 0.027516 0.001844 0.000000 0.000000 0.000000
# 3 -0.005502 0.001844 0.017078 0.000000 0.000000 0.000000
# 4 0.000000 0.000000 0.000000 0.051268 0.000000 0.000000
# 5 0.000000 0.000000 0.000000 0.000000 0.031551 0.000000
# 6 0.000000 0.000000 0.000000 0.000000 0.000000 0.032452
#
#
# Mechanical properties :
#
#
# Convention : Reuss Voigt Hill
#
# Bulk Modulus (GPa) = 29.78557 42.31120 36.04839
# Shear Modulus (GPa) = 24.26479 27.21695 25.74087
#
# Velocity S-wave (km/s) = 3.49867 3.70539 3.60351
# Velocity P-wave (km/s) = 5.59880 6.29690 5.95809
#
# Compressibility (1/GPa) = 0.03357330
#
# Stress axis : x y z
#
# Youngs Moduli (GPa) = 83.39711 36.34246 58.55371
#
# Poissons Ratio (x) = 0.28522 0.32214
# Poissons Ratio (y) = 0.65451 -0.10797
# Poissons Ratio (z) = 0.45882 -0.06701
#
# Static dielectric constant tensor:
#      x y z
#    x 3.624890 0.000000 0.000000 
#    y 0.000000 3.327160 0.000000 
#    z 0.000000 0.000000 3.711710 
# 
# 
# High freq. dielectric constant tensor:
#      x y z
#    x 1.773090 0.000000 0.000000 
#    y 0.000000 1.733870 0.000000 
#    z 0.000000 0.000000 1.780910 
# 
# From -- ./inp_files/73568.got.cif
#   From: 2010.03.12/outbox.cif.g09.slc.cpg/sg63_37_cif.got.tgz:73568.got - 2010.04.10 19:34:48.
