data_PCOD8257514
_publ_section_title
;
Structure prediction by ZEFSAII (Michael W. Deem and Ramdas Pophale) SiO2 
 PCOD8257514
Probable space group: C M C M
;
_chemical_formula_sum "Si O2"
_cell_formula_units_Z 128
_cell_length_a 27.813764
_cell_length_b 11.542948
_cell_length_c 22.641478
_cell_angle_alpha 90.000000
_cell_angle_beta 90.000000
_cell_angle_gamma 90.000000
_cell_volume 7269.110622
_symmetry_space_group_name_H-M "C M C M"
_symmetry_group_IT_number 63
_symmetry_cell_setting 'orthorhombic'
loop_
_space_group_symop_operation_xyz
x,y,z
-x,-y,1/2+z
x,-y,-z
-x,y,1/2-z
-x,-y,-z
x,y,1/2-z
-x,y,z
x,-y,1/2+z
1/2+x,1/2+y,z
1/2-x,1/2-y,1/2+z
1/2+x,1/2-y,-z
1/2-x,1/2+y,1/2-z
1/2-x,1/2-y,-z
1/2+x,1/2+y,1/2-z
1/2-x,1/2+y,z
1/2+x,1/2-y,1/2+z
loop_
_atom_site_type_symbol
_atom_site_label
_atom_site_fract_x
_atom_site_fract_y
_atom_site_fract_z
Si Si1 0.717412 0.478430 0.184295
Si Si2 0.787796 0.190432 0.397560
Si Si3 0.444140 0.184065 0.529339
Si Si4 0.554598 0.048322 0.090648
Si Si5 0.820563 0.367265 0.186544
Si Si6 0.364547 0.365990 0.508349
Si Si7 0.629030 0.895534 0.818114
Si Si8 0.184937 0.784316 0.393358
O O1 0.695998 0.500425 0.250000
O O2 0.727099 0.598488 0.151844
O O3 0.766246 0.409274 0.189804
O O4 0.681629 0.401814 0.144754
O O5 0.825632 0.278314 0.367235
O O6 0.816145 0.134725 0.452066
O O7 0.738583 0.254380 0.417778
O O8 0.500000 0.220109 0.540476
O O9 0.438267 0.133864 0.463993
O O10 0.409466 0.296108 0.536911
O O11 0.427534 0.082160 0.574417
O O12 0.500000 0.037999 0.109245
O O13 0.579241 0.108320 0.146888
O O14 0.833151 0.308751 0.250000
O O15 0.855675 0.472556 0.175815
O O16 0.379913 0.500000 0.500000
O O17 0.351043 0.301766 0.447684
O O18 0.623092 0.856091 0.750000
O O19 0.668347 0.817825 0.850465
#
# Coordination Sequence:
#
# PCOD8257514 Si02
#       8
#    16  16  16  16  16  16  16  16
#     4  10  19  33  52  71  99 141 185 220 257 309
#     4  11  21  35  52  74 106 145 181 225 269 310
#     4   9  19  37  60  81 104 139 178 220 274 324
#     4   9  18  35  58  83 110 137 172 219 270 331
#     4   9  19  32  50  75 101 136 181 220 256 311
#     4  12  23  37  54  77 108 140 181 229 271 325
#     4  11  20  33  55  82 111 142 177 219 270 323
#     4  11  22  37  49  75 111 146 181 219 269 320
#
# _framework density 17.608756
#
# number of rings (size 3 to 8) (size 9 to 14) (size 15 to 20)
#    0.000    1.750    3.750    2.625    0.000    1.500 
#    0.000    0.000    0.000    0.000    0.000    0.000 
#    0.000    1.000    0.000    0.000    0.000    0.000 
#
# Total GULP energy -793281.329681 kJ/mol
# GULP energy per Si atom -12395.020776 kJ/mol
# Density = 1.756868 g / cm^3
# Si number density = 17.608756 Si / 1000 Ang^3
#
#
#
# Elastic Constant Matrix: (Units=GPa)
#
#
# Indices 1 2 3 4 5 6 
#
# 1 59.9242 21.9805 21.7387 0.0000 0.0000 0.0000
# 2 21.9805 60.4124 11.5368 0.0000 0.0000 0.0000
# 3 21.7387 11.5368 73.3306 0.0000 0.0000 0.0000
# 4 0.0000 0.0000 0.0000 45.3786 0.0000 0.0000
# 5 0.0000 0.0000 0.0000 0.0000 -82.6148 0.0000
# 6 0.0000 0.0000 0.0000 0.0000 0.0000 26.0849
#
#
#
# Elastic Compliance Matrix: (Units=1/GPa)
#
#
# Indices 1 2 3 4 5 6 
#
# 1 0.021008 -0.006654 -0.005181 0.000000 0.000000 0.000000
# 2 -0.006654 0.019173 -0.001044 0.000000 0.000000 0.000000
# 3 -0.005181 -0.001044 0.015337 0.000000 0.000000 0.000000
# 4 0.000000 0.000000 0.000000 0.022037 0.000000 0.000000
# 5 0.000000 0.000000 0.000000 0.000000 -0.012104 0.000000
# 6 0.000000 0.000000 0.000000 0.000000 0.000000 0.038336
#
#
# Mechanical properties :
#
#
# Convention : Reuss Voigt Hill
#
# Bulk Modulus (GPa) = 33.60167 33.79768 33.69967
# Shear Modulus (GPa) = 35.85130 6.99716 21.42423
#
# Velocity S-wave (km/s) = 4.51709 1.99557 3.49188
# Velocity P-wave (km/s) = 6.80656 4.95430 5.95291
#
# Compressibility (1/GPa) = 0.02976043
#
# Stress axis : x y z
#
# Youngs Moduli (GPa) = 47.60095 52.15587 65.20204
#
# Poissons Ratio (x) = 0.34705 0.33780
# Poissons Ratio (y) = 0.31675 0.06806
# Poissons Ratio (z) = 0.24661 0.05444
#
# Static dielectric constant tensor:
#      x y z
#    x 3.054490 0.000000 0.000000 
#    y 0.000000 3.277540 0.000000 
#    z 0.000000 0.000000 3.095730 
# 
# 
# High freq. dielectric constant tensor:
#      x y z
#    x 1.657760 0.000000 0.000000 
#    y 0.000000 1.679120 0.000000 
#    z 0.000000 0.000000 1.683700 
# 
# From -- ./inp_files/65556.got.cif
#   From: 2010.03.12/outbox.cif.g09.slc.cpg/sg63_33_cif.got.tgz:65556.got - 2010.04.10 19:34:48.
