data_PCOD8257697
_publ_section_title
;
Structure prediction by ZEFSAII (Michael W. Deem and Ramdas Pophale) SiO2 
 PCOD8257697
Probable space group: C M C M
;
_chemical_formula_sum "Si O2"
_cell_formula_units_Z 96
_cell_length_a 7.641379
_cell_length_b 26.647470
_cell_length_c 25.300641
_cell_angle_alpha 90.000000
_cell_angle_beta 90.000000
_cell_angle_gamma 90.000000
_cell_volume 5151.802989
_symmetry_space_group_name_H-M "C M C M"
_symmetry_group_IT_number 63
_symmetry_cell_setting 'orthorhombic'
loop_
_space_group_symop_operation_xyz
x,y,z
-x,-y,1/2+z
x,-y,-z
-x,y,1/2-z
-x,-y,-z
x,y,1/2-z
-x,y,z
x,-y,1/2+z
1/2+x,1/2+y,z
1/2-x,1/2-y,1/2+z
1/2+x,1/2-y,-z
1/2-x,1/2+y,1/2-z
1/2-x,1/2-y,-z
1/2+x,1/2+y,1/2-z
1/2-x,1/2+y,z
1/2+x,1/2-y,1/2+z
loop_
_atom_site_type_symbol
_atom_site_label
_atom_site_fract_x
_atom_site_fract_y
_atom_site_fract_z
Si Si1 0.804328 0.688743 0.250000
Si Si2 0.292263 0.872487 0.651933
Si Si3 0.703248 0.799964 0.250000
Si Si4 0.196690 0.628877 0.655713
Si Si5 0.000000 0.942845 0.687840
Si Si6 0.801717 0.805971 0.062943
Si Si7 0.500000 0.439592 0.312022
Si Si8 0.705863 0.806022 0.947224
O O1 0.722033 0.666234 0.303381
O O2 0.805862 0.748274 0.250000
O O3 0.000000 0.668711 0.250000
O O4 0.500000 0.885118 0.654935
O O5 0.243811 0.846968 0.596369
O O6 0.176594 0.922286 0.659803
O O7 0.500000 0.786861 0.250000
O O8 0.759813 0.830290 0.301702
O O9 0.194315 0.654900 0.598388
O O10 0.327156 0.581996 0.659444
O O11 0.000000 0.609854 0.668417
O O12 0.000000 0.929765 0.750000
O O13 0.000000 0.001670 0.678002
O O14 0.724186 0.749457 0.069044
O O15 0.000000 0.807792 0.083273
O O16 0.792023 0.823439 0.002043
O O17 0.500000 0.426328 0.250000
O O18 0.500000 0.801836 0.955702
#
# Coordination Sequence:
#
# PCOD8257697 Si02
#       8
#     8  16   8  16   8  16   8  16
#     4  10  20  32  52  81 117 154 182 224 283 344
#     4  10  21  38  56  82 118 150 189 237 290 343
#     4  10  22  32  50  83 113 150 188 222 279 348
#     4  11  22  38  57  83 117 150 191 240 293 345
#     4  11  24  40  63  87 111 151 200 247 299 346
#     4  10  19  33  55  84 120 160 197 233 276 342
#     4  11  24  42  63  85 113 151 198 249 301 350
#     4   9  19  34  53  83 121 161 196 229 281 342
#
# _framework density 18.634253999999999
#
# number of rings (size 3 to 8) (size 9 to 14) (size 15 to 20)
#    0.000    1.833    2.500    1.500    3.500    2.667 
#    0.000    1.667    0.000    2.000    0.000    3.500 
#    0.000    0.000    0.000    0.000    0.000    0.000 
#
# Total GULP energy -595199.905537 kJ/mol
# GULP energy per Si atom -12399.998032 kJ/mol
# Density = 1.859184 g / cm^3
# Si number density = 18.634254 Si / 1000 Ang^3
#
#
#
# Elastic Constant Matrix: (Units=GPa)
#
#
# Indices 1 2 3 4 5 6 
#
# 1 83.1335 49.3023 34.0526 0.0000 0.0000 0.0000
# 2 49.3023 111.0477 57.6213 0.0000 0.0000 0.0000
# 3 34.0526 57.6213 110.2835 0.0000 0.0000 0.0000
# 4 0.0000 0.0000 0.0000 25.8000 0.0000 0.0000
# 5 0.0000 0.0000 0.0000 0.0000 22.3203 0.0000
# 6 0.0000 0.0000 0.0000 0.0000 0.0000 24.6880
#
#
#
# Elastic Compliance Matrix: (Units=1/GPa)
#
#
# Indices 1 2 3 4 5 6 
#
# 1 0.016569 -0.006450 -0.001746 0.000000 0.000000 0.000000
# 2 -0.006450 0.014866 -0.005775 0.000000 0.000000 0.000000
# 3 -0.001746 -0.005775 0.012624 0.000000 0.000000 0.000000
# 4 0.000000 0.000000 0.000000 0.038760 0.000000 0.000000
# 5 0.000000 0.000000 0.000000 0.000000 0.044802 0.000000
# 6 0.000000 0.000000 0.000000 0.000000 0.000000 0.040505
#
#
# Mechanical properties :
#
#
# Convention : Reuss Voigt Hill
#
# Bulk Modulus (GPa) = 62.05085 65.15746 63.60416
# Shear Modulus (GPa) = 24.82101 25.46091 25.14096
#
# Velocity S-wave (km/s) = 3.65363 3.70043 3.67710
# Velocity P-wave (km/s) = 7.15334 7.30068 7.22739
#
# Compressibility (1/GPa) = 0.01611581
#
# Stress axis : x y z
#
# Youngs Moduli (GPa) = 60.35209 67.26879 79.21310
#
# Poissons Ratio (x) = 0.43391 0.13830
# Poissons Ratio (y) = 0.38930 0.45749
# Poissons Ratio (z) = 0.10537 0.38850
#
# Static dielectric constant tensor:
#      x y z
#    x 3.424590 0.000000 0.000000 
#    y 0.000000 3.097270 0.000000 
#    z 0.000000 0.000000 3.467750 
# 
# 
# High freq. dielectric constant tensor:
#      x y z
#    x 1.731460 0.000000 0.000000 
#    y 0.000000 1.689230 0.000000 
#    z 0.000000 0.000000 1.726470 
# 
# From -- ./inp_files/60121.got.cif
#   From: 2010.03.12/outbox.cif.g09.slc.cpg/sg63_31_cif.got.tgz:60121.got - 2010.04.10 19:34:48.
