data_PCOD8257637
_publ_section_title
;
Structure prediction by ZEFSAII (Michael W. Deem and Ramdas Pophale) SiO2 
 PCOD8257637
Probable space group: C M C M
;
_chemical_formula_sum "Si O2"
_cell_formula_units_Z 80
_cell_length_a 17.986294
_cell_length_b 27.685538
_cell_length_c 8.527468
_cell_angle_alpha 90.000000
_cell_angle_beta 90.000000
_cell_angle_gamma 90.000000
_cell_volume 4246.339893
_symmetry_space_group_name_H-M "C M C M"
_symmetry_group_IT_number 63
_symmetry_cell_setting 'orthorhombic'
loop_
_space_group_symop_operation_xyz
x,y,z
-x,-y,1/2+z
x,-y,-z
-x,y,1/2-z
-x,-y,-z
x,y,1/2-z
-x,y,z
x,-y,1/2+z
1/2+x,1/2+y,z
1/2-x,1/2-y,1/2+z
1/2+x,1/2-y,-z
1/2-x,1/2+y,1/2-z
1/2-x,1/2-y,-z
1/2+x,1/2+y,1/2-z
1/2-x,1/2+y,z
1/2+x,1/2-y,1/2+z
loop_
_atom_site_type_symbol
_atom_site_label
_atom_site_fract_x
_atom_site_fract_y
_atom_site_fract_z
Si Si1 0.659157 0.807872 0.932559
Si Si2 0.580803 0.904123 0.565236
Si Si3 0.914115 0.785858 0.567116
Si Si4 0.269199 0.051288 0.063833
Si Si5 0.699349 0.354230 0.066254
O O1 0.680136 0.811288 0.750000
O O2 0.599550 0.848902 0.979177
O O3 0.624435 0.756544 0.969840
O O4 0.734384 0.816712 0.029381
O O5 0.575849 0.909763 0.750000
O O6 0.500000 0.917402 0.490396
O O7 0.646331 0.938934 0.501913
O O8 0.903796 0.775506 0.750000
O O9 0.875392 0.835934 0.518458
O O10 0.000000 0.789380 0.519736
O O11 0.265578 0.052691 0.250000
O O12 0.215398 0.092348 0.997754
O O13 0.241751 0.000000 0.000000
O O14 0.685712 0.356656 0.250000
#
# Coordination Sequence:
#
# PCOD8257637 Si02
#       5
#    16  16  16  16  16
#     4  10  19  33  54  79 110 147 185 220 257 308
#     4   8  15  28  47  73 106 142 177 214 255 300
#     4  11  23  37  54  79 111 143 176 217 265 318
#     4  10  20  35  55  78 104 136 177 223 271 322
#     4  11  22  37  57  79 106 140 180 223 266 315
#
# _framework density 18.839753000000002
#
# number of rings (size 3 to 8) (size 9 to 14) (size 15 to 20)
#    0.000    2.000    0.000    6.000    0.000    2.800 
#    0.000    0.000    0.000   12.000    0.000    0.000 
#    0.000    0.000    0.000    0.000    0.000    0.000 
#
# Total GULP energy -496021.324103 kJ/mol
# GULP energy per Si atom -12400.533103 kJ/mol
# Density = 1.879687 g / cm^3
# Si number density = 18.839753 Si / 1000 Ang^3
#
#
#
# Elastic Constant Matrix: (Units=GPa)
#
#
# Indices 1 2 3 4 5 6 
#
# 1 78.0216 50.7977 15.5196 0.0000 0.0000 0.0000
# 2 50.7977 114.4549 13.4413 0.0000 0.0000 0.0000
# 3 15.5196 13.4413 52.6465 0.0000 0.0000 0.0000
# 4 0.0000 0.0000 0.0000 28.8774 0.0000 0.0000
# 5 0.0000 0.0000 0.0000 0.0000 22.1824 0.0000
# 6 0.0000 0.0000 0.0000 0.0000 0.0000 13.5855
#
#
#
# Elastic Compliance Matrix: (Units=1/GPa)
#
#
# Indices 1 2 3 4 5 6 
#
# 1 0.018626 -0.007857 -0.003485 0.000000 0.000000 0.000000
# 2 -0.007857 0.012322 -0.000830 0.000000 0.000000 0.000000
# 3 -0.003485 -0.000830 0.020234 0.000000 0.000000 0.000000
# 4 0.000000 0.000000 0.000000 0.034629 0.000000 0.000000
# 5 0.000000 0.000000 0.000000 0.000000 0.045081 0.000000
# 6 0.000000 0.000000 0.000000 0.000000 0.000000 0.073608
#
#
# Mechanical properties :
#
#
# Convention : Reuss Voigt Hill
#
# Bulk Modulus (GPa) = 37.26052 44.96002 41.11027
# Shear Modulus (GPa) = 21.02713 23.95337 22.49025
#
# Velocity S-wave (km/s) = 3.34444 3.56958 3.45884
# Velocity P-wave (km/s) = 5.89358 6.39573 6.14978
#
# Compressibility (1/GPa) = 0.02683806
#
# Stress axis : x y z
#
# Youngs Moduli (GPa) = 53.68905 81.15724 49.42258
#
# Poissons Ratio (x) = 0.63768 0.17222
# Poissons Ratio (y) = 0.42185 0.04100
# Poissons Ratio (z) = 0.18708 0.06733
#
# Static dielectric constant tensor:
#      x y z
#    x 3.631600 0.000000 0.000000 
#    y 0.000000 3.222110 0.000000 
#    z 0.000000 0.000000 3.319310 
# 
# 
# High freq. dielectric constant tensor:
#      x y z
#    x 1.721410 0.000000 0.000000 
#    y 0.000000 1.725820 0.000000 
#    z 0.000000 0.000000 1.727500 
# 
# From -- ./inp_files/6423.got.cif
#   From: 2010.03.12/outbox.cif.g09.slc.cpg/sg63_4_cif.got.tgz:6423.got - 2010.04.10 19:34:48.
