data_PCOD8257178
_publ_section_title
;
Structure prediction by ZEFSAII (Michael W. Deem and Ramdas Pophale) SiO2 
 PCOD8257178
Probable space group: C M C M
;
_chemical_formula_sum "Si O2"
_cell_formula_units_Z 104
_cell_length_a 20.469431
_cell_length_b 32.090332
_cell_length_c 8.858888
_cell_angle_alpha 90.000000
_cell_angle_beta 90.000000
_cell_angle_gamma 90.000000
_cell_volume 5819.145172
_symmetry_space_group_name_H-M "C M C M"
_symmetry_group_IT_number 63
_symmetry_cell_setting 'orthorhombic'
loop_
_space_group_symop_operation_xyz
x,y,z
-x,-y,1/2+z
x,-y,-z
-x,y,1/2-z
-x,-y,-z
x,y,1/2-z
-x,y,z
x,-y,1/2+z
1/2+x,1/2+y,z
1/2-x,1/2-y,1/2+z
1/2+x,1/2-y,-z
1/2-x,1/2+y,1/2-z
1/2-x,1/2-y,-z
1/2+x,1/2+y,1/2-z
1/2-x,1/2+y,z
1/2+x,1/2-y,1/2+z
loop_
_atom_site_type_symbol
_atom_site_label
_atom_site_fract_x
_atom_site_fract_y
_atom_site_fract_z
Si Si1 0.500000 0.544983 0.071663
Si Si2 0.927206 0.227243 0.570386
Si Si3 0.696230 0.869160 0.928426
Si Si4 0.428014 0.821172 0.570544
Si Si5 0.372032 0.427663 0.420887
Si Si6 0.245350 0.458284 0.570796
Si Si7 0.319688 0.335587 0.419850
O O1 0.500000 0.541673 0.250000
O O2 0.500000 0.500000 0.000000
O O3 0.562399 0.569982 0.015591
O O4 0.926353 0.224016 0.750000
O O5 0.912305 0.274274 0.515884
O O6 0.870374 0.197287 0.504472
O O7 0.000000 0.213992 0.513229
O O8 0.698701 0.866682 0.750000
O O9 0.626871 0.852771 0.992822
O O10 0.705187 0.917144 0.981371
O O11 0.752818 0.838377 0.986738
O O12 0.427800 0.822044 0.750000
O O13 0.500000 0.834950 0.511527
O O14 0.380809 0.444614 0.250000
O O15 0.317984 0.455396 0.504291
O O16 0.354255 0.379720 0.419578
O O17 0.212357 0.500000 0.500000
O O18 0.247746 0.462122 0.750000
O O19 0.301727 0.321799 0.250000
#
# Coordination Sequence:
#
# PCOD8257178 Si02
#       7
#     8  16  16  16  16  16  16
#     4  12  24  36  48  64  88 120 160 202 246 290
#     4   8  14  25  44  69  96 126 163 201 230 266
#     4   9  18  31  48  71  98 123 153 196 241 282
#     4   8  14  27  48  73  97 124 158 193 231 278
#     4  10  20  33  48  67  92 123 158 198 239 281
#     4  10  19  32  49  68  92 121 154 193 238 287
#     4   9  18  30  47  70  96 126 161 196 234 277
#
# _framework density 17.872040999999999
#
# number of rings (size 3 to 8) (size 9 to 14) (size 15 to 20)
#    0.000    2.769    0.000    3.000    1.077    1.846 
#    0.000    0.000    0.000    0.923    0.000    2.154 
#    0.000    0.000    0.000    0.000    0.000    0.462 
#
# Total GULP energy -644542.149405 kJ/mol
# GULP energy per Si atom -12395.041335 kJ/mol
# Density = 1.783136 g / cm^3
# Si number density = 17.872041 Si / 1000 Ang^3
#
#
#
# Elastic Constant Matrix: (Units=GPa)
#
#
# Indices 1 2 3 4 5 6 
#
# 1 139.2696 75.8628 27.8444 0.0000 0.0000 0.0000
# 2 75.8628 99.0785 23.4091 0.0000 0.0000 0.0000
# 3 27.8444 23.4091 51.7913 0.0000 0.0000 0.0000
# 4 0.0000 0.0000 0.0000 14.9055 0.0000 0.0000
# 5 0.0000 0.0000 0.0000 0.0000 18.8245 0.0000
# 6 0.0000 0.0000 0.0000 0.0000 0.0000 -1.4173
#
#
#
# Elastic Compliance Matrix: (Units=1/GPa)
#
#
# Indices 1 2 3 4 5 6 
#
# 1 0.012649 -0.009045 -0.002713 0.000000 0.000000 0.000000
# 2 -0.009045 0.017767 -0.003168 0.000000 0.000000 0.000000
# 3 -0.002713 -0.003168 0.022198 0.000000 0.000000 0.000000
# 4 0.000000 0.000000 0.000000 0.067089 0.000000 0.000000
# 5 0.000000 0.000000 0.000000 0.000000 0.053122 0.000000
# 6 0.000000 0.000000 0.000000 0.000000 0.000000 -0.705578
#
#
# Mechanical properties :
#
#
# Convention : Reuss Voigt Hill
#
# Bulk Modulus (GPa) = 43.92768 60.48578 52.20673
# Shear Modulus (GPa) = -10.09461 17.33074 3.61807
#
# Velocity S-wave (km/s) = -2.37919 3.11740 1.42437
# Velocity P-wave (km/s) = 4.13340 6.84652 5.65508
#
# Compressibility (1/GPa) = 0.02276469
#
# Stress axis : x y z
#
# Youngs Moduli (GPa) = 79.05529 56.28516 45.04819
#
# Poissons Ratio (x) = 0.50907 0.12220
# Poissons Ratio (y) = 0.71502 0.14270
# Poissons Ratio (z) = 0.21445 0.17830
#
# Static dielectric constant tensor:
#      x y z
#    x 3.496850 0.000000 0.000000 
#    y 0.000000 3.469080 0.000000 
#    z 0.000000 0.000000 3.117720 
# 
# 
# High freq. dielectric constant tensor:
#      x y z
#    x 1.683260 0.000000 0.000000 
#    y 0.000000 1.692100 0.000000 
#    z 0.000000 0.000000 1.663380 
# 
# From -- ./inp_files/9180.got.cif
#   From: 2010.03.12/outbox.cif.g09.slc.cpg/sg63_5_cif.got.tgz:9180.got - 2010.04.10 19:34:48.
