data_PCOD8257116
_publ_section_title
;
Structure prediction by ZEFSAII (Michael W. Deem and Ramdas Pophale) SiO2 
 PCOD8257116
Probable space group: C M C M
;
_chemical_formula_sum "Si O2"
_cell_formula_units_Z 96
_cell_length_a 24.848242
_cell_length_b 10.332204
_cell_length_c 19.140825
_cell_angle_alpha 90.000000
_cell_angle_beta 90.000000
_cell_angle_gamma 90.000000
_cell_volume 4914.160005
_symmetry_space_group_name_H-M "C M C M"
_symmetry_group_IT_number 63
_symmetry_cell_setting 'orthorhombic'
loop_
_space_group_symop_operation_xyz
x,y,z
-x,-y,1/2+z
x,-y,-z
-x,y,1/2-z
-x,-y,-z
x,y,1/2-z
-x,y,z
x,-y,1/2+z
1/2+x,1/2+y,z
1/2-x,1/2-y,1/2+z
1/2+x,1/2-y,-z
1/2-x,1/2+y,1/2-z
1/2-x,1/2-y,-z
1/2+x,1/2+y,1/2-z
1/2-x,1/2+y,z
1/2+x,1/2-y,1/2+z
loop_
_atom_site_type_symbol
_atom_site_label
_atom_site_fract_x
_atom_site_fract_y
_atom_site_fract_z
Si Si1 0.119738 0.265291 0.328358
Si Si2 0.873033 0.385336 0.953548
Si Si3 0.754842 0.611605 0.087937
Si Si4 0.859446 0.867024 0.965664
Si Si5 0.762006 0.640682 0.670464
Si Si6 0.438418 0.979553 0.670056
O O1 0.117100 0.204673 0.250000
O O2 0.119031 0.149956 0.385625
O O3 0.173630 0.350819 0.337998
O O4 0.071811 0.366875 0.341143
O O5 0.809315 0.411239 0.953672
O O6 0.900289 0.389707 0.877471
O O7 0.899135 0.500000 0.000000
O O8 0.884570 0.247023 0.988022
O O9 0.705926 0.639100 0.034026
O O10 0.738920 0.484716 0.131736
O O11 0.765234 0.731395 0.139460
O O12 0.880190 0.000000 0.000000
O O13 0.743899 0.628929 0.750000
O O14 0.425614 0.941996 0.750000
O O15 0.500000 0.951392 0.650622
#
# Coordination Sequence:
#
# PCOD8257116 Si02
#       6
#    16  16  16  16  16  16
#     4   9  18  37  58  81 114 154 197 246 296 347
#     4  12  21  37  58  86 115 152 193 245 295 339
#     4  11  20  33  50  79 115 162 195 231 280 343
#     4  11  22  36  53  85 122 162 198 233 279 352
#     4  10  19  31  51  78 114 154 198 238 280 338
#     4  10  21  39  65  92 113 142 194 258 311 348
#
# _framework density 19.535382999999999
#
# number of rings (size 3 to 8) (size 9 to 14) (size 15 to 20)
#    0.000    1.500    3.333    3.500    0.000    1.667 
#    0.000    0.833    0.000    2.000    0.000    2.333 
#    0.000    0.000    0.000    0.000    0.000    0.000 
#
# Total GULP energy -595269.149606 kJ/mol
# GULP energy per Si atom -12401.440617 kJ/mol
# Density = 1.949092 g / cm^3
# Si number density = 19.535383 Si / 1000 Ang^3
#
#
#
# Elastic Constant Matrix: (Units=GPa)
#
#
# Indices 1 2 3 4 5 6 
#
# 1 43.0458 26.3126 34.7362 0.0000 0.0000 0.0000
# 2 26.3126 134.8008 68.4137 0.0000 0.0000 0.0000
# 3 34.7362 68.4137 129.1809 0.0000 0.0000 0.0000
# 4 0.0000 0.0000 0.0000 35.3058 0.0000 0.0000
# 5 0.0000 0.0000 0.0000 0.0000 21.5312 0.0000
# 6 0.0000 0.0000 0.0000 0.0000 0.0000 13.5786
#
#
#
# Elastic Compliance Matrix: (Units=1/GPa)
#
#
# Indices 1 2 3 4 5 6 
#
# 1 0.030239 -0.002429 -0.006845 0.000000 0.000000 0.000000
# 2 -0.002429 0.010340 -0.004823 0.000000 0.000000 0.000000
# 3 -0.006845 -0.004823 0.012136 0.000000 0.000000 0.000000
# 4 0.000000 0.000000 0.000000 0.028324 0.000000 0.000000
# 5 0.000000 0.000000 0.000000 0.000000 0.046444 0.000000
# 6 0.000000 0.000000 0.000000 0.000000 0.000000 0.073646
#
#
# Mechanical properties :
#
#
# Convention : Reuss Voigt Hill
#
# Bulk Modulus (GPa) = 40.77972 62.88361 51.83166
# Shear Modulus (GPa) = 21.05292 25.92077 23.48684
#
# Velocity S-wave (km/s) = 3.28637 3.64656 3.47114
# Velocity P-wave (km/s) = 5.94310 7.07032 6.53107
#
# Compressibility (1/GPa) = 0.02452199
#
# Stress axis : x y z
#
# Youngs Moduli (GPa) = 33.06955 96.70982 82.39963
#
# Poissons Ratio (x) = 0.23487 0.56403
# Poissons Ratio (y) = 0.08031 0.39742
# Poissons Ratio (z) = 0.22636 0.46644
#
# Static dielectric constant tensor:
#      x y z
#    x 3.213430 0.000000 0.000000 
#    y 0.000000 3.487130 0.000000 
#    z 0.000000 0.000000 3.780600 
# 
# 
# High freq. dielectric constant tensor:
#      x y z
#    x 1.716620 0.000000 0.000000 
#    y 0.000000 1.747430 0.000000 
#    z 0.000000 0.000000 1.779170 
# 
# From -- ./inp_files/58077.got.cif
#   From: 2010.03.12/outbox.cif.g09.slc.cpg/sg63_30_cif.got.tgz:58077.got - 2010.04.10 19:34:48.
