data_PCOD8257098
_publ_section_title
;
Structure prediction by ZEFSAII (Michael W. Deem and Ramdas Pophale) SiO2 
 PCOD8257098
Probable space group: C M C M
;
_chemical_formula_sum "Si O2"
_cell_formula_units_Z 104
_cell_length_a 26.333013
_cell_length_b 22.439226
_cell_length_c 9.185236
_cell_angle_alpha 90.000000
_cell_angle_beta 90.000000
_cell_angle_gamma 90.000000
_cell_volume 5427.486420
_symmetry_space_group_name_H-M "C M C M"
_symmetry_group_IT_number 63
_symmetry_cell_setting 'orthorhombic'
loop_
_space_group_symop_operation_xyz
x,y,z
-x,-y,1/2+z
x,-y,-z
-x,y,1/2-z
-x,-y,-z
x,y,1/2-z
-x,y,z
x,-y,1/2+z
1/2+x,1/2+y,z
1/2-x,1/2-y,1/2+z
1/2+x,1/2-y,-z
1/2-x,1/2+y,1/2-z
1/2-x,1/2-y,-z
1/2+x,1/2+y,1/2-z
1/2-x,1/2+y,z
1/2+x,1/2-y,1/2+z
loop_
_atom_site_type_symbol
_atom_site_label
_atom_site_fract_x
_atom_site_fract_y
_atom_site_fract_z
Si Si1 0.097480 0.864978 0.578635
Si Si2 0.500000 0.562352 0.078025
Si Si3 0.701378 0.749091 0.593339
Si Si4 0.625721 0.847396 0.923675
Si Si5 0.698803 0.936464 0.424632
Si Si6 0.059141 0.263200 0.418633
Si Si7 0.808016 0.886955 0.409126
O O1 0.103394 0.865973 0.750000
O O2 0.048739 0.901034 0.525371
O O3 0.090542 0.795749 0.528813
O O4 0.146151 0.902602 0.517659
O O5 0.500000 0.552809 0.250000
O O6 0.500000 0.500000 0.000000
O O7 0.715750 0.776081 0.750000
O O8 0.750000 0.750000 0.500000
O O9 0.659879 0.791942 0.524692
O O10 0.682279 0.682701 0.608128
O O11 0.621495 0.858591 0.750000
O O12 0.649548 0.904736 0.004134
O O13 0.572351 0.823848 0.989527
O O14 0.691783 0.940711 0.250000
O O15 0.751399 0.902501 0.467013
O O16 0.702539 0.000000 0.500000
O O17 0.070730 0.276583 0.250000
O O18 0.000000 0.249329 0.442759
O O19 0.815043 0.917583 0.250000
#
# Coordination Sequence:
#
# PCOD8257098 Si02
#       7
#    16   8  16  16  16  16  16
#     4  10  20  35  57  82 113 151 196 245 292 343
#     4  10  22  40  56  76 106 150 203 248 289 340
#     4  10  19  31  50  80 114 145 180 224 274 332
#     4  11  22  36  58  88 119 150 189 236 290 352
#     4  11  24  42  61  82 115 157 199 240 285 344
#     4  10  20  36  59  87 118 152 190 238 296 353
#     4  10  21  36  54  82 117 150 188 234 286 339
#
# _framework density 19.161722999999999
#
# number of rings (size 3 to 8) (size 9 to 14) (size 15 to 20)
#    0.000    1.692    3.846    0.923    0.000    4.000 
#    0.000    3.077    0.000    0.462    0.000    0.000 
#    0.000    0.000    0.000    0.000    0.000    0.000 
#
# Total GULP energy -644246.896144 kJ/mol
# GULP energy per Si atom -12389.363387 kJ/mol
# Density = 1.911811 g / cm^3
# Si number density = 19.161723 Si / 1000 Ang^3
#
#
#
# Elastic Constant Matrix: (Units=GPa)
#
#
# Indices 1 2 3 4 5 6 
#
# 1 66.1392 22.0294 34.7500 0.0000 0.0000 0.0000
# 2 22.0294 73.3661 33.3530 0.0000 0.0000 0.0000
# 3 34.7500 33.3530 73.2330 0.0000 0.0000 0.0000
# 4 0.0000 0.0000 0.0000 31.2312 0.0000 0.0000
# 5 0.0000 0.0000 0.0000 0.0000 32.4630 0.0000
# 6 0.0000 0.0000 0.0000 0.0000 0.0000 23.5147
#
#
#
# Elastic Compliance Matrix: (Units=1/GPa)
#
#
# Indices 1 2 3 4 5 6 
#
# 1 0.020413 -0.002177 -0.008695 0.000000 0.000000 0.000000
# 2 -0.002177 0.017421 -0.006902 0.000000 0.000000 0.000000
# 3 -0.008695 -0.006902 0.020924 0.000000 0.000000 0.000000
# 4 0.000000 0.000000 0.000000 0.032019 0.000000 0.000000
# 5 0.000000 0.000000 0.000000 0.000000 0.030804 0.000000
# 6 0.000000 0.000000 0.000000 0.000000 0.000000 0.042527
#
#
# Mechanical properties :
#
#
# Convention : Reuss Voigt Hill
#
# Bulk Modulus (GPa) = 43.08038 43.66700 43.37369
# Shear Modulus (GPa) = 24.10895 25.61552 24.86223
#
# Velocity S-wave (km/s) = 3.55094 3.66020 3.60598
# Velocity P-wave (km/s) = 6.27244 6.37973 6.32631
#
# Compressibility (1/GPa) = 0.02321242
#
# Stress axis : x y z
#
# Youngs Moduli (GPa) = 48.98853 57.40101 47.79177
#
# Poissons Ratio (x) = 0.12493 0.41555
# Poissons Ratio (y) = 0.10662 0.32984
# Poissons Ratio (z) = 0.42595 0.39615
#
# Static dielectric constant tensor:
#      x y z
#    x 3.543110 0.000000 0.000000 
#    y 0.000000 3.314250 0.000000 
#    z 0.000000 0.000000 3.627820 
# 
# 
# High freq. dielectric constant tensor:
#      x y z
#    x 1.741990 0.000000 0.000000 
#    y 0.000000 1.727580 0.000000 
#    z 0.000000 0.000000 1.746190 
# 
# From -- ./inp_files/12514.got.cif
#   From: 2010.03.12/outbox.cif.g09.slc.cpg/sg63_7_cif.got.tgz:12514.got - 2010.04.10 19:34:48.
