data_PCOD8257294
_publ_section_title
;
Structure prediction by ZEFSAII (Michael W. Deem and Ramdas Pophale) SiO2 
 PCOD8257294
Probable space group: C M C M
;
_chemical_formula_sum "Si O2"
_cell_formula_units_Z 80
_cell_length_a 26.914817
_cell_length_b 18.468826
_cell_length_c 9.099829
_cell_angle_alpha 90.000000
_cell_angle_beta 90.000000
_cell_angle_gamma 90.000000
_cell_volume 4523.389154
_symmetry_space_group_name_H-M "C M C M"
_symmetry_group_IT_number 63
_symmetry_cell_setting 'orthorhombic'
loop_
_space_group_symop_operation_xyz
x,y,z
-x,-y,1/2+z
x,-y,-z
-x,y,1/2-z
-x,-y,-z
x,y,1/2-z
-x,y,z
x,-y,1/2+z
1/2+x,1/2+y,z
1/2-x,1/2-y,1/2+z
1/2+x,1/2-y,-z
1/2-x,1/2+y,1/2-z
1/2-x,1/2-y,-z
1/2+x,1/2+y,1/2-z
1/2-x,1/2+y,z
1/2+x,1/2-y,1/2+z
loop_
_atom_site_type_symbol
_atom_site_label
_atom_site_fract_x
_atom_site_fract_y
_atom_site_fract_z
Si Si1 0.652610 0.072612 0.580188
Si Si2 0.944102 0.654632 0.579782
Si Si3 0.105676 0.219552 0.923293
Si Si4 0.443807 0.429782 0.078762
Si Si5 0.200605 0.277439 0.076410
O O1 0.654777 0.054395 0.750000
O O2 0.596209 0.094012 0.533312
O O3 0.690308 0.137923 0.540586
O O4 0.669924 0.000000 0.500000
O O5 0.935132 0.676102 0.750000
O O6 0.936418 0.725357 0.480208
O O7 0.000000 0.624869 0.554405
O O8 0.113463 0.231201 0.750000
O O9 0.088829 0.139106 0.962826
O O10 0.156436 0.230244 0.010267
O O11 0.442701 0.445057 0.250000
O O12 0.500000 0.416064 0.023602
O O13 0.420644 0.500000 0.000000
O O14 0.203857 0.264482 0.250000
O O15 0.250000 0.250000 0.000000
#
# Coordination Sequence:
#
# PCOD8257294 Si02
#       5
#    16  16  16  16  16
#     4   9  19  34  52  76 105 134 166 205 248 296
#     4   9  18  32  49  72 104 140 175 210 248 292
#     4  10  19  32  51  75 102 131 168 213 256 301
#     4   9  18  31  47  70 101 135 170 208 250 297
#     4  10  21  38  58  79 101 128 166 209 254 303
#
# _framework density 17.685853999999999
#
# number of rings (size 3 to 8) (size 9 to 14) (size 15 to 20)
#    0.000    2.600    0.000    3.000    0.000    7.200 
#    0.000    3.000    0.000    0.000    0.000    0.000 
#    0.000    0.000    0.000    0.000    0.000    0.000 
#
# Total GULP energy -495958.859273 kJ/mol
# GULP energy per Si atom -12398.971482 kJ/mol
# Density = 1.764560 g / cm^3
# Si number density = 17.685854 Si / 1000 Ang^3
#
#
#
# Elastic Constant Matrix: (Units=GPa)
#
#
# Indices 1 2 3 4 5 6 
#
# 1 104.3422 55.7814 45.6151 0.0000 0.0000 0.0000
# 2 55.7814 140.6124 67.1580 0.0000 0.0000 0.0000
# 3 45.6151 67.1580 75.1658 0.0000 0.0000 0.0000
# 4 0.0000 0.0000 0.0000 35.5307 0.0000 0.0000
# 5 0.0000 0.0000 0.0000 0.0000 30.0532 0.0000
# 6 0.0000 0.0000 0.0000 0.0000 0.0000 14.8092
#
#
#
# Elastic Compliance Matrix: (Units=1/GPa)
#
#
# Indices 1 2 3 4 5 6 
#
# 1 0.013539 -0.002524 -0.005962 0.000000 0.000000 0.000000
# 2 -0.002524 0.012876 -0.009973 0.000000 0.000000 0.000000
# 3 -0.005962 -0.009973 0.025832 0.000000 0.000000 0.000000
# 4 0.000000 0.000000 0.000000 0.028145 0.000000 0.000000
# 5 0.000000 0.000000 0.000000 0.000000 0.033274 0.000000
# 6 0.000000 0.000000 0.000000 0.000000 0.000000 0.067526
#
#
# Mechanical properties :
#
#
# Convention : Reuss Voigt Hill
#
# Bulk Modulus (GPa) = 65.22618 73.02548 69.12583
# Shear Modulus (GPa) = 22.39962 26.18303 24.29132
#
# Velocity S-wave (km/s) = 3.56269 3.85184 3.71008
# Velocity P-wave (km/s) = 7.34058 7.82062 7.58440
#
# Compressibility (1/GPa) = 0.01533127
#
# Stress axis : x y z
#
# Youngs Moduli (GPa) = 73.85938 77.66392 38.71176
#
# Poissons Ratio (x) = 0.19601 0.23078
# Poissons Ratio (y) = 0.18640 0.38606
# Poissons Ratio (z) = 0.44031 0.77452
#
# Static dielectric constant tensor:
#      x y z
#    x 3.301920 0.000000 0.000000 
#    y 0.000000 3.243340 0.000000 
#    z 0.000000 0.000000 3.329480 
# 
# 
# High freq. dielectric constant tensor:
#      x y z
#    x 1.673540 0.000000 0.000000 
#    y 0.000000 1.679870 0.000000 
#    z 0.000000 0.000000 1.689610 
# 
# From -- ./inp_files/11981.got.cif
#   From: 2010.03.12/outbox.cif.g09.slc.cpg/sg63_6_cif.got.tgz:11981.got - 2010.04.10 19:34:48.
