data_PCOD8257988
_publ_section_title
;
Structure prediction by ZEFSAII (Michael W. Deem and Ramdas Pophale) SiO2 
 PCOD8257988
Probable space group: C M C M
;
_chemical_formula_sum "Si O2"
_cell_formula_units_Z 88
_cell_length_a 16.424067
_cell_length_b 20.079192
_cell_length_c 14.520168
_cell_angle_alpha 90.000000
_cell_angle_beta 90.000000
_cell_angle_gamma 90.000000
_cell_volume 4788.489967
_symmetry_space_group_name_H-M "C M C M"
_symmetry_group_IT_number 63
_symmetry_cell_setting 'orthorhombic'
loop_
_space_group_symop_operation_xyz
x,y,z
-x,-y,1/2+z
x,-y,-z
-x,y,1/2-z
-x,-y,-z
x,y,1/2-z
-x,y,z
x,-y,1/2+z
1/2+x,1/2+y,z
1/2-x,1/2-y,1/2+z
1/2+x,1/2-y,-z
1/2-x,1/2+y,1/2-z
1/2-x,1/2-y,-z
1/2+x,1/2+y,1/2-z
1/2-x,1/2+y,z
1/2+x,1/2-y,1/2+z
loop_
_atom_site_type_symbol
_atom_site_label
_atom_site_fract_x
_atom_site_fract_y
_atom_site_fract_z
Si Si1 0.096013 0.309375 0.574511
Si Si2 0.818757 0.614211 0.918041
Si Si3 0.596701 0.890722 0.750000
Si Si4 0.715646 0.500000 0.000000
Si Si5 0.596735 0.041955 0.750000
Si Si6 0.840805 0.176152 0.854925
Si Si7 0.407516 0.466092 0.143533
O O1 0.119947 0.341980 0.477933
O O2 0.129795 0.353665 0.659087
O O3 0.133958 0.235863 0.578356
O O4 0.000000 0.302954 0.580020
O O5 0.772310 0.563862 0.986214
O O6 0.870347 0.575673 0.842035
O O7 0.754711 0.661763 0.867062
O O8 0.500000 0.891117 0.750000
O O9 0.628993 0.966252 0.750000
O O10 0.655948 0.488201 0.912491
O O11 0.500000 0.046618 0.750000
O O12 0.859008 0.197152 0.750000
O O13 0.893549 0.111326 0.881547
O O14 0.388048 0.478620 0.250000
O O15 0.500000 0.485818 0.118792
#
# Coordination Sequence:
#
# PCOD8257988 Si02
#       7
#    16  16   8   8   8  16  16
#     4  11  21  36  56  82 111 142 184 228 274 322
#     4  11  22  37  55  83 109 148 184 226 280 333
#     4   9  20  33  52  78 106 142 178 221 264 307
#     4  10  21  34  55  80 114 148 186 232 273 334
#     4  11  22  39  58  78 111 148 188 229 271 333
#     4  10  19  35  57  82 110 142 182 227 278 325
#     4   9  18  33  56  85 114 147 187 231 279 330
#
# _framework density 18.377402
#
# number of rings (size 3 to 8) (size 9 to 14) (size 15 to 20)
#    0.000    1.818    1.818    3.000    1.273    0.727 
#    1.636    3.636    0.000    0.000    0.000    0.000 
#    0.000    0.000    0.000    0.000    0.000    0.000 
#
# Total GULP energy -545699.338603 kJ/mol
# GULP energy per Si atom -12402.257696 kJ/mol
# Density = 1.833557 g / cm^3
# Si number density = 18.377402 Si / 1000 Ang^3
#
#
#
# Elastic Constant Matrix: (Units=GPa)
#
#
# Indices 1 2 3 4 5 6 
#
# 1 85.1619 42.6753 30.9230 0.0000 0.0000 0.0000
# 2 42.6753 82.3962 47.4102 0.0000 0.0000 0.0000
# 3 30.9230 47.4102 85.7938 0.0000 0.0000 0.0000
# 4 0.0000 0.0000 0.0000 30.1356 0.0000 0.0000
# 5 0.0000 0.0000 0.0000 0.0000 31.7702 0.0000
# 6 0.0000 0.0000 0.0000 0.0000 0.0000 29.1044
#
#
#
# Elastic Compliance Matrix: (Units=1/GPa)
#
#
# Indices 1 2 3 4 5 6 
#
# 1 0.016034 -0.007301 -0.001745 0.000000 0.000000 0.000000
# 2 -0.007301 0.021119 -0.009039 0.000000 0.000000 0.000000
# 3 -0.001745 -0.009039 0.017280 0.000000 0.000000 0.000000
# 4 0.000000 0.000000 0.000000 0.033183 0.000000 0.000000
# 5 0.000000 0.000000 0.000000 0.000000 0.031476 0.000000
# 6 0.000000 0.000000 0.000000 0.000000 0.000000 0.034359
#
#
# Mechanical properties :
#
#
# Convention : Reuss Voigt Hill
#
# Bulk Modulus (GPa) = 54.75317 55.04099 54.89708
# Shear Modulus (GPa) = 25.54827 27.02493 26.28660
#
# Velocity S-wave (km/s) = 3.73258 3.83894 3.78613
# Velocity P-wave (km/s) = 6.95950 7.04736 7.00357
#
# Compressibility (1/GPa) = 0.01826378
#
# Stress axis : x y z
#
# Youngs Moduli (GPa) = 62.36616 47.35164 57.87124
#
# Poissons Ratio (x) = 0.34570 0.10098
# Poissons Ratio (y) = 0.45531 0.52309
# Poissons Ratio (z) = 0.10883 0.42801
#
# Static dielectric constant tensor:
#      x y z
#    x 3.386410 0.000000 0.000000 
#    y 0.000000 3.295120 0.000000 
#    z 0.000000 0.000000 3.441400 
# 
# 
# High freq. dielectric constant tensor:
#      x y z
#    x 1.715970 0.000000 0.000000 
#    y 0.000000 1.701790 0.000000 
#    z 0.000000 0.000000 1.715240 
# 
# From -- ./inp_files/33999.got.cif
#   From: 2010.03.12/outbox.cif.g09.slc.cpg/sg63_17_cif.got.tgz:33999.got - 2010.04.10 19:34:48.
