data_PCOD8257197
_publ_section_title
;
Structure prediction by ZEFSAII (Michael W. Deem and Ramdas Pophale) SiO2 
 PCOD8257197
Probable space group: C M C M
;
_chemical_formula_sum "Si O2"
_cell_formula_units_Z 96
_cell_length_a 13.288631
_cell_length_b 12.904746
_cell_length_c 32.639588
_cell_angle_alpha 90.000000
_cell_angle_beta 90.000000
_cell_angle_gamma 90.000000
_cell_volume 5597.245696
_symmetry_space_group_name_H-M "C M C M"
_symmetry_group_IT_number 63
_symmetry_cell_setting 'orthorhombic'
loop_
_space_group_symop_operation_xyz
x,y,z
-x,-y,1/2+z
x,-y,-z
-x,y,1/2-z
-x,-y,-z
x,y,1/2-z
-x,y,z
x,-y,1/2+z
1/2+x,1/2+y,z
1/2-x,1/2-y,1/2+z
1/2+x,1/2-y,-z
1/2-x,1/2+y,1/2-z
1/2-x,1/2-y,-z
1/2+x,1/2+y,1/2-z
1/2-x,1/2+y,z
1/2+x,1/2-y,1/2+z
loop_
_atom_site_type_symbol
_atom_site_label
_atom_site_fract_x
_atom_site_fract_y
_atom_site_fract_z
Si Si1 0.385049 0.806889 0.834932
Si Si2 0.384496 0.700405 0.099811
Si Si3 0.381067 0.288705 0.250000
Si Si4 0.879724 0.021486 0.250000
Si Si5 0.794395 0.943770 0.835758
Si Si6 0.791670 0.858672 0.112122
Si Si7 0.882128 0.009282 0.046714
O O1 0.500000 0.841184 0.832285
O O2 0.342994 0.764724 0.791563
O O3 0.319479 0.907710 0.843736
O O4 0.371635 0.726885 0.872615
O O5 0.500000 0.738354 0.096685
O O6 0.372467 0.626740 0.139105
O O7 0.314753 0.802560 0.102504
O O8 0.354878 0.626004 0.061410
O O9 0.500000 0.289547 0.250000
O O10 0.340975 0.404485 0.250000
O O11 0.831641 0.073425 0.210274
O O12 0.000000 0.032647 0.250000
O O13 0.790511 0.062489 0.849733
O O14 0.825075 0.919180 0.071543
O O15 0.000000 0.988486 0.052346
O O16 0.847025 0.000000 0.000000
#
# Coordination Sequence:
#
# PCOD8257197 Si02
#       7
#    16  16   8   8  16  16  16
#     4  10  19  32  49  71  97 126 161 202 244 285
#     4   9  19  34  51  72 100 130 160 198 244 290
#     4   9  17  28  46  68  90 120 156 197 241 275
#     4  11  19  30  51  72  94 128 167 205 242 279
#     4  10  20  32  49  73  96 128 166 202 239 285
#     4  10  19  32  51  73  98 128 163 197 240 292
#     4   9  18  33  53  76  99 124 158 200 243 289
#
# _framework density 17.151292999999999
#
# number of rings (size 3 to 8) (size 9 to 14) (size 15 to 20)
#    0.000    2.333    1.667    1.500    0.000    2.667 
#    0.000    0.000    0.000    0.500    0.000    0.000 
#    0.000    0.000    0.000    0.000    0.000    0.000 
#
# Total GULP energy -594954.325877 kJ/mol
# GULP energy per Si atom -12394.881789 kJ/mol
# Density = 1.711226 g / cm^3
# Si number density = 17.151293 Si / 1000 Ang^3
#
#
#
# Elastic Constant Matrix: (Units=GPa)
#
#
# Indices 1 2 3 4 5 6 
#
# 1 81.6036 34.4796 31.2084 0.0000 0.0000 0.0000
# 2 34.4796 63.4140 28.0213 0.0000 0.0000 0.0000
# 3 31.2084 28.0213 115.2479 0.0000 0.0000 0.0000
# 4 0.0000 0.0000 0.0000 11.6185 0.0000 0.0000
# 5 0.0000 0.0000 0.0000 0.0000 22.0989 0.0000
# 6 0.0000 0.0000 0.0000 0.0000 0.0000 18.9925
#
#
#
# Elastic Compliance Matrix: (Units=1/GPa)
#
#
# Indices 1 2 3 4 5 6 
#
# 1 0.016563 -0.007869 -0.002572 0.000000 0.000000 0.000000
# 2 -0.007869 0.021406 -0.003074 0.000000 0.000000 0.000000
# 3 -0.002572 -0.003074 0.010121 0.000000 0.000000 0.000000
# 4 0.000000 0.000000 0.000000 0.086070 0.000000 0.000000
# 5 0.000000 0.000000 0.000000 0.000000 0.045251 0.000000
# 6 0.000000 0.000000 0.000000 0.000000 0.000000 0.052652
#
#
# Mechanical properties :
#
#
# Convention : Reuss Voigt Hill
#
# Bulk Modulus (GPa) = 47.48263 49.74268 48.61265
# Shear Modulus (GPa) = 18.78901 21.64572 20.21736
#
# Velocity S-wave (km/s) = 3.31340 3.55638 3.43704
# Velocity P-wave (km/s) = 6.51021 6.77710 6.64500
#
# Compressibility (1/GPa) = 0.02106033
#
# Stress axis : x y z
#
# Youngs Moduli (GPa) = 60.37611 46.71529 98.80711
#
# Poissons Ratio (x) = 0.36761 0.25411
# Poissons Ratio (y) = 0.47511 0.30371
# Poissons Ratio (z) = 0.15528 0.14359
#
# Static dielectric constant tensor:
#      x y z
#    x 3.016120 0.000000 0.000000 
#    y 0.000000 3.109920 0.000000 
#    z 0.000000 0.000000 3.311540 
# 
# 
# High freq. dielectric constant tensor:
#      x y z
#    x 1.651060 0.000000 0.000000 
#    y 0.000000 1.656000 0.000000 
#    z 0.000000 0.000000 1.664730 
# 
# From -- ./inp_files/69323.got.cif
#   From: 2010.03.12/outbox.cif.g09.slc.cpg/sg63_35_cif.got.tgz:69323.got - 2010.04.10 19:34:48.
