data_PCOD8257160
_publ_section_title
;
Structure prediction by ZEFSAII (Michael W. Deem and Ramdas Pophale) SiO2 
 PCOD8257160
Probable space group: C M C M
;
_chemical_formula_sum "Si O2"
_cell_formula_units_Z 104
_cell_length_a 17.719858
_cell_length_b 24.972693
_cell_length_c 15.118738
_cell_angle_alpha 90.000000
_cell_angle_beta 90.000000
_cell_angle_gamma 90.000000
_cell_volume 6690.231666
_symmetry_space_group_name_H-M "C M C M"
_symmetry_group_IT_number 63
_symmetry_cell_setting 'orthorhombic'
loop_
_space_group_symop_operation_xyz
x,y,z
-x,-y,1/2+z
x,-y,-z
-x,y,1/2-z
-x,-y,-z
x,y,1/2-z
-x,y,z
x,-y,1/2+z
1/2+x,1/2+y,z
1/2-x,1/2-y,1/2+z
1/2+x,1/2-y,-z
1/2-x,1/2+y,1/2-z
1/2-x,1/2-y,-z
1/2+x,1/2+y,1/2-z
1/2-x,1/2+y,z
1/2+x,1/2-y,1/2+z
loop_
_atom_site_type_symbol
_atom_site_label
_atom_site_fract_x
_atom_site_fract_y
_atom_site_fract_z
Si Si1 0.412915 0.309708 0.648864
Si Si2 0.274914 0.962136 0.151828
Si Si3 0.087782 0.891056 0.002284
Si Si4 0.813075 0.148995 0.651741
Si Si5 0.664848 0.203519 0.645555
Si Si6 0.416213 0.099214 0.855280
Si Si7 0.179168 0.000000 0.500000
O O1 0.391350 0.323844 0.750000
O O2 0.500000 0.292349 0.641783
O O3 0.396467 0.362053 0.590641
O O4 0.363279 0.260830 0.609721
O O5 0.275228 0.988115 0.250000
O O6 0.231931 0.906147 0.154842
O O7 0.360238 0.949619 0.118221
O O8 0.232983 0.002569 0.085885
O O9 0.000000 0.900197 0.019865
O O10 0.127014 0.948286 0.999376
O O11 0.119055 0.854187 0.081935
O O12 0.845851 0.161288 0.750000
O O13 0.753352 0.194973 0.622382
O O14 0.653066 0.202869 0.750000
O O15 0.614097 0.155526 0.604658
O O16 0.417028 0.103606 0.750000
O O17 0.500000 0.087578 0.892824
#
# Coordination Sequence:
#
# PCOD8257160 Si02
#       7
#    16  16  16  16  16  16   8
#     4   9  17  28  41  61  89 112 130 158 195 239
#     4   8  15  27  42  60  80 103 133 168 204 241
#     4  10  20  31  43  59  78 105 142 180 216 247
#     4   8  15  28  44  62  82 102 129 166 203 243
#     4   8  13  23  41  63  86 111 131 149 189 247
#     4   8  12  20  38  63  87 108 129 155 192 241
#     4  10  19  32  45  54  74 108 144 182 217 246
#
# _framework density 15.545052
#
# number of rings (size 3 to 8) (size 9 to 14) (size 15 to 20)
#    0.000    3.385    0.000    2.538    0.000    3.385 
#    0.000    0.385    0.000    2.769    0.000    0.000 
#    0.000    1.231    0.000    5.077    0.000    0.000 
#
# Total GULP energy -644419.819667 kJ/mol
# GULP energy per Si atom -12392.688840 kJ/mol
# Density = 1.550967 g / cm^3
# Si number density = 15.545052 Si / 1000 Ang^3
#
#
#
# Elastic Constant Matrix: (Units=GPa)
#
#
# Indices 1 2 3 4 5 6 
#
# 1 104.9294 48.9522 49.9017 0.0000 0.0000 0.0000
# 2 48.9522 58.6232 34.9326 0.0000 0.0000 0.0000
# 3 49.9017 34.9326 72.8397 0.0000 0.0000 0.0000
# 4 0.0000 0.0000 0.0000 15.4398 0.0000 0.0000
# 5 0.0000 0.0000 0.0000 0.0000 19.3799 0.0000
# 6 0.0000 0.0000 0.0000 0.0000 0.0000 21.0680
#
#
#
# Elastic Compliance Matrix: (Units=1/GPa)
#
#
# Indices 1 2 3 4 5 6 
#
# 1 0.017924 -0.010711 -0.007143 0.000000 0.000000 0.000000
# 2 -0.010711 0.030284 -0.007186 0.000000 0.000000 0.000000
# 3 -0.007143 -0.007186 0.022068 0.000000 0.000000 0.000000
# 4 0.000000 0.000000 0.000000 0.064768 0.000000 0.000000
# 5 0.000000 0.000000 0.000000 0.000000 0.051600 0.000000
# 6 0.000000 0.000000 0.000000 0.000000 0.000000 0.047465
#
#
# Mechanical properties :
#
#
# Convention : Reuss Voigt Hill
#
# Bulk Modulus (GPa) = 49.51107 55.99614 52.75361
# Shear Modulus (GPa) = 17.18684 18.01793 17.60239
#
# Velocity S-wave (km/s) = 3.32869 3.40822 3.36869
# Velocity P-wave (km/s) = 6.83321 7.18248 7.01002
#
# Compressibility (1/GPa) = 0.02019750
#
# Stress axis : x y z
#
# Youngs Moduli (GPa) = 55.79109 33.02100 45.31377
#
# Poissons Ratio (x) = 0.35368 0.32367
# Poissons Ratio (y) = 0.59757 0.32561
# Poissons Ratio (z) = 0.39851 0.23728
#
# Static dielectric constant tensor:
#      x y z
#    x 3.167440 0.000000 0.000000 
#    y 0.000000 2.818120 0.000000 
#    z 0.000000 0.000000 2.931760 
# 
# 
# High freq. dielectric constant tensor:
#      x y z
#    x 1.598120 0.000000 0.000000 
#    y 0.000000 1.572300 0.000000 
#    z 0.000000 0.000000 1.569520 
# 
# From -- ./inp_files/34470.got.cif
#   From: 2010.03.12/outbox.cif.g09.slc.cpg/sg63_18_cif.got.tgz:34470.got - 2010.04.10 19:34:48.
