data_PCOD8257910
_publ_section_title
;
Structure prediction by ZEFSAII (Michael W. Deem and Ramdas Pophale) SiO2 
 PCOD8257910
Probable space group: C M C M
;
_chemical_formula_sum "Si O2"
_cell_formula_units_Z 112
_cell_length_a 13.300896
_cell_length_b 13.120766
_cell_length_c 30.596955
_cell_angle_alpha 90.000000
_cell_angle_beta 90.000000
_cell_angle_gamma 90.000000
_cell_volume 5339.717679
_symmetry_space_group_name_H-M "C M C M"
_symmetry_group_IT_number 63
_symmetry_cell_setting 'orthorhombic'
loop_
_space_group_symop_operation_xyz
x,y,z
-x,-y,1/2+z
x,-y,-z
-x,y,1/2-z
-x,-y,-z
x,y,1/2-z
-x,y,z
x,-y,1/2+z
1/2+x,1/2+y,z
1/2-x,1/2-y,1/2+z
1/2+x,1/2-y,-z
1/2-x,1/2+y,1/2-z
1/2-x,1/2-y,-z
1/2+x,1/2+y,1/2-z
1/2-x,1/2+y,z
1/2+x,1/2-y,1/2+z
loop_
_atom_site_type_symbol
_atom_site_label
_atom_site_fract_x
_atom_site_fract_y
_atom_site_fract_z
Si Si1 0.885267 0.104708 0.178748
Si Si2 0.386761 0.658036 0.892228
Si Si3 0.681179 0.393822 0.200891
Si Si4 0.299120 0.444128 0.591507
Si Si5 0.715916 0.754418 0.049251
Si Si6 0.385209 0.963930 0.048773
Si Si7 0.392754 0.831058 0.298695
O O1 0.806968 0.105078 0.139098
O O2 0.870966 0.210200 0.203870
O O3 0.000000 0.091547 0.162313
O O4 0.856168 0.008796 0.208877
O O5 0.500000 0.691441 0.904280
O O6 0.378792 0.660340 0.838793
O O7 0.368823 0.544101 0.911154
O O8 0.309627 0.732889 0.916966
O O9 0.672055 0.341746 0.250000
O O10 0.796581 0.390369 0.182198
O O11 0.335899 0.354971 0.558656
O O12 0.183535 0.472785 0.582019
O O13 0.634973 0.843792 0.055057
O O14 0.750000 0.750000 0.000000
O O15 0.500000 0.987548 0.060458
O O16 0.358091 0.000000 0.000000
O O17 0.406642 0.871168 0.250000
O O18 0.500000 0.852340 0.323929
#
# Coordination Sequence:
#
# PCOD8257910 Si02
#       7
#    16  16  16  16  16  16  16
#     4  10  20  35  56  82 113 148 188 235 282 338
#     4  10  23  39  56  85 119 149 190 246 292 343
#     4  10  19  34  58  86 116 153 190 236 295 349
#     4  10  20  37  57  78 112 145 185 233 283 334
#     4  11  22  38  61  83 112 151 191 238 295 353
#     4  10  21  37  56  80 108 141 187 233 279 344
#     4   9  18  33  55  83 112 145 188 234 278 332
#
# _framework density 20.974889999999998
#
# number of rings (size 3 to 8) (size 9 to 14) (size 15 to 20)
#    0.000    2.000    1.429    3.000    0.000    4.000 
#    0.000   10.000    0.000    1.714    0.000    8.000 
#    0.000    0.000    0.000    0.000    0.000    0.000 
#
# Total GULP energy -693755.759578 kJ/mol
# GULP energy per Si atom -12388.495707 kJ/mol
# Density = 2.092715 g / cm^3
# Si number density = 20.974890 Si / 1000 Ang^3
#
#
#
# Elastic Constant Matrix: (Units=GPa)
#
#
# Indices 1 2 3 4 5 6 
#
# 1 125.7609 22.2569 31.9819 0.0000 0.0000 0.0000
# 2 22.2569 63.4670 13.2077 0.0000 0.0000 0.0000
# 3 31.9819 13.2077 105.7069 0.0000 0.0000 0.0000
# 4 0.0000 0.0000 0.0000 27.8326 0.0000 0.0000
# 5 0.0000 0.0000 0.0000 0.0000 14.9018 0.0000
# 6 0.0000 0.0000 0.0000 0.0000 0.0000 25.3582
#
#
#
# Elastic Compliance Matrix: (Units=1/GPa)
#
#
# Indices 1 2 3 4 5 6 
#
# 1 0.009034 -0.002669 -0.002400 0.000000 0.000000 0.000000
# 2 -0.002669 0.016965 -0.001312 0.000000 0.000000 0.000000
# 3 -0.002400 -0.001312 0.010350 0.000000 0.000000 0.000000
# 4 0.000000 0.000000 0.000000 0.035929 0.000000 0.000000
# 5 0.000000 0.000000 0.000000 0.000000 0.067106 0.000000
# 6 0.000000 0.000000 0.000000 0.000000 0.000000 0.039435
#
#
# Mechanical properties :
#
#
# Convention : Reuss Voigt Hill
#
# Bulk Modulus (GPa) = 42.39489 47.75863 45.07676
# Shear Modulus (GPa) = 25.06970 28.78443 26.92706
#
# Velocity S-wave (km/s) = 3.46095 3.70851 3.58687
# Velocity P-wave (km/s) = 6.01889 6.41532 6.22026
#
# Compressibility (1/GPa) = 0.02358775
#
# Stress axis : x y z
#
# Youngs Moduli (GPa) = 110.69043 58.94425 96.61673
#
# Poissons Ratio (x) = 0.15731 0.23187
# Poissons Ratio (y) = 0.29540 0.12679
# Poissons Ratio (z) = 0.26564 0.07735
#
# Static dielectric constant tensor:
#      x y z
#    x 4.004530 0.000000 0.000000 
#    y 0.000000 3.990870 0.000000 
#    z 0.000000 0.000000 3.738920 
# 
# 
# High freq. dielectric constant tensor:
#      x y z
#    x 1.816520 0.000000 0.000000 
#    y 0.000000 1.809600 0.000000 
#    z 0.000000 0.000000 1.818030 
# 
# From -- ./inp_files/72852.got.cif
#   From: 2010.03.12/outbox.cif.g09.slc.cpg/sg63_37_cif.got.tgz:72852.got - 2010.04.10 19:34:48.
