data_PCOD8257715
_publ_section_title
;
Structure prediction by ZEFSAII (Michael W. Deem and Ramdas Pophale) SiO2 
 PCOD8257715
Probable space group: C M C M
;
_chemical_formula_sum "Si O2"
_cell_formula_units_Z 80
_cell_length_a 26.569891
_cell_length_b 8.815322
_cell_length_c 16.257029
_cell_angle_alpha 90.000000
_cell_angle_beta 90.000000
_cell_angle_gamma 90.000000
_cell_volume 3807.756198
_symmetry_space_group_name_H-M "C M C M"
_symmetry_group_IT_number 63
_symmetry_cell_setting 'orthorhombic'
loop_
_space_group_symop_operation_xyz
x,y,z
-x,-y,1/2+z
x,-y,-z
-x,y,1/2-z
-x,-y,-z
x,y,1/2-z
-x,y,z
x,-y,1/2+z
1/2+x,1/2+y,z
1/2-x,1/2-y,1/2+z
1/2+x,1/2-y,-z
1/2-x,1/2+y,1/2-z
1/2-x,1/2-y,-z
1/2+x,1/2+y,1/2-z
1/2-x,1/2+y,z
1/2+x,1/2-y,1/2+z
loop_
_atom_site_type_symbol
_atom_site_label
_atom_site_fract_x
_atom_site_fract_y
_atom_site_fract_z
Si Si1 0.597342 0.940512 0.907299
Si Si2 0.092058 0.116784 0.656343
Si Si3 0.000000 0.938995 0.909257
Si Si4 0.293837 0.924755 0.911118
Si Si5 0.303636 0.430479 0.410885
Si Si6 0.000000 0.581879 0.589336
O O1 0.585388 0.760766 0.904315
O O2 0.652800 0.969478 0.866826
O O3 0.550952 0.027958 0.862929
O O4 0.600604 0.000000 0.000000
O O5 0.087318 0.173322 0.750000
O O6 0.146670 0.040960 0.643302
O O7 0.049563 0.993103 0.638338
O O8 0.000000 0.759902 0.915248
O O9 0.000000 0.000000 0.000000
O O10 0.290565 0.745406 0.919836
O O11 0.243986 0.987759 0.864934
O O12 0.291130 0.000000 0.000000
O O13 0.314592 0.500000 0.500000
O O14 0.000000 0.500000 0.500000
#
# Coordination Sequence:
#
# PCOD8257715 Si02
#       6
#    16  16   8  16  16   8
#     4   9  18  36  60  87 118 157 204 249 298 361
#     4  11  24  41  59  87 127 164 196 249 315 365
#     4  12  23  38  65  93 116 154 203 246 292 360
#     4   9  17  29  53  85 113 145 195 253 297 341
#     4  10  19  33  56  83 112 153 201 248 297 358
#     4  10  20  34  59  91 115 140 190 248 292 340
#
# _framework density 21.009747000000001
#
# number of rings (size 3 to 8) (size 9 to 14) (size 15 to 20)
#    0.000    2.000    0.000    6.300    0.000    6.400 
#    0.000    6.000    0.000    0.000    0.000    0.000 
#    0.000    0.000    0.000    0.000    0.000    0.000 
#
# Total GULP energy -495576.660768 kJ/mol
# GULP energy per Si atom -12389.416519 kJ/mol
# Density = 2.096193 g / cm^3
# Si number density = 21.009747 Si / 1000 Ang^3
#
#
#
# Elastic Constant Matrix: (Units=GPa)
#
#
# Indices 1 2 3 4 5 6 
#
# 1 227.6755 97.2651 28.0788 0.0000 0.0000 0.0000
# 2 97.2651 151.6405 27.9484 0.0000 0.0000 0.0000
# 3 28.0788 27.9484 51.9129 0.0000 0.0000 0.0000
# 4 0.0000 0.0000 0.0000 13.3635 0.0000 0.0000
# 5 0.0000 0.0000 0.0000 0.0000 -2.7817 0.0000
# 6 0.0000 0.0000 0.0000 0.0000 0.0000 37.6284
#
#
#
# Elastic Compliance Matrix: (Units=1/GPa)
#
#
# Indices 1 2 3 4 5 6 
#
# 1 0.006132 -0.003688 -0.001331 0.000000 0.000000 0.000000
# 2 -0.003688 0.009539 -0.003141 0.000000 0.000000 0.000000
# 3 -0.001331 -0.003141 0.021674 0.000000 0.000000 0.000000
# 4 0.000000 0.000000 0.000000 0.074831 0.000000 0.000000
# 5 0.000000 0.000000 0.000000 0.000000 -0.359488 0.000000
# 6 0.000000 0.000000 0.000000 0.000000 0.000000 0.026576
#
#
# Mechanical properties :
#
#
# Convention : Reuss Voigt Hill
#
# Bulk Modulus (GPa) = 47.56216 81.97925 64.77070
# Shear Modulus (GPa) = -25.32813 28.17115 1.42151
#
# Velocity S-wave (km/s) = -3.47586 3.66575 0.82345
# Velocity P-wave (km/s) = 2.56486 7.55124 5.63914
#
# Compressibility (1/GPa) = 0.02102512
#
# Stress axis : x y z
#
# Youngs Moduli (GPa) = 163.08380 104.83524 46.13829
#
# Poissons Ratio (x) = 0.38660 0.06142
# Poissons Ratio (y) = 0.60141 0.14491
# Poissons Ratio (z) = 0.21710 0.32926
#
# Static dielectric constant tensor:
#      x y z
#    x 5.508210 0.000000 0.000000 
#    y 0.000000 3.700210 0.000000 
#    z 0.000000 0.000000 3.200690 
# 
# 
# High freq. dielectric constant tensor:
#      x y z
#    x 1.868110 0.000000 0.000000 
#    y 0.000000 1.823790 0.000000 
#    z 0.000000 0.000000 1.757950 
# 
# From -- ./inp_files/49452.got.cif
#   From: 2010.03.12/outbox.cif.g09.slc.cpg/sg63_25_cif.got.tgz:49452.got - 2010.04.10 19:34:48.
