data_PCOD8257467
_publ_section_title
;
Structure prediction by ZEFSAII (Michael W. Deem and Ramdas Pophale) SiO2 
 PCOD8257467
Probable space group: C M C M
;
_chemical_formula_sum "Si O2"
_cell_formula_units_Z 72
_cell_length_a 20.911179
_cell_length_b 9.402862
_cell_length_c 20.022223
_cell_angle_alpha 90.000000
_cell_angle_beta 90.000000
_cell_angle_gamma 90.000000
_cell_volume 3936.868204
_symmetry_space_group_name_H-M "C M C M"
_symmetry_group_IT_number 63
_symmetry_cell_setting 'orthorhombic'
loop_
_space_group_symop_operation_xyz
x,y,z
-x,-y,1/2+z
x,-y,-z
-x,y,1/2-z
-x,-y,-z
x,y,1/2-z
-x,y,z
x,-y,1/2+z
1/2+x,1/2+y,z
1/2-x,1/2-y,1/2+z
1/2+x,1/2-y,-z
1/2-x,1/2+y,1/2-z
1/2-x,1/2-y,-z
1/2+x,1/2+y,1/2-z
1/2-x,1/2+y,z
1/2+x,1/2-y,1/2+z
loop_
_atom_site_type_symbol
_atom_site_label
_atom_site_fract_x
_atom_site_fract_y
_atom_site_fract_z
Si Si1 0.649820 0.500000 0.500000
Si Si2 0.304939 0.097945 0.325998
Si Si3 0.427326 0.047790 0.395368
Si Si4 0.381548 0.798415 0.471887
Si Si5 0.750375 0.645557 0.592783
O O1 0.605793 0.371941 0.529674
O O2 0.691707 0.564545 0.559309
O O3 0.287955 0.135553 0.250000
O O4 0.382122 0.091691 0.333829
O O5 0.273868 0.207891 0.376922
O O6 0.277137 0.944721 0.345343
O O7 0.500000 0.082337 0.375915
O O8 0.404330 0.139180 0.458211
O O9 0.420150 0.879397 0.413170
O O10 0.305240 0.825171 0.462714
#
# Coordination Sequence:
#
# PCOD8257467 Si02
#       5
#     8  16  16  16  16
#     4  12  18  30  55  84 113 140 162 222 294 336
#     4  11  22  36  56  80 111 150 185 223 268 326
#     4  10  21  38  55  78 108 146 188 226 263 321
#     4  10  19  32  56  81 111 140 170 225 284 328
#     4  11  20  34  53  86 116 138 176 225 286 336
#
# _framework density 18.288648999999999
#
# number of rings (size 3 to 8) (size 9 to 14) (size 15 to 20)
#    0.000    1.333    4.444    5.333    0.000    0.444 
#    0.000    2.222    0.000    0.000    0.000    0.000 
#    0.000    0.000    0.000    0.000    0.000    0.000 
#
# Total GULP energy -446312.936115 kJ/mol
# GULP energy per Si atom -12397.581559 kJ/mol
# Density = 1.824702 g / cm^3
# Si number density = 18.288649 Si / 1000 Ang^3
#
#
#
# Elastic Constant Matrix: (Units=GPa)
#
#
# Indices 1 2 3 4 5 6 
#
# 1 86.2969 24.8634 6.8165 0.0000 0.0000 0.0000
# 2 24.8634 113.3753 7.0278 0.0000 0.0000 0.0000
# 3 6.8165 7.0278 39.7163 0.0000 0.0000 0.0000
# 4 0.0000 0.0000 0.0000 19.8105 0.0000 0.0000
# 5 0.0000 0.0000 0.0000 0.0000 14.7180 0.0000
# 6 0.0000 0.0000 0.0000 0.0000 0.0000 17.0182
#
#
#
# Elastic Compliance Matrix: (Units=1/GPa)
#
#
# Indices 1 2 3 4 5 6 
#
# 1 0.012479 -0.002633 -0.001676 0.000000 0.000000 0.000000
# 2 -0.002633 0.009474 -0.001224 0.000000 0.000000 0.000000
# 3 -0.001676 -0.001224 0.025683 0.000000 0.000000 0.000000
# 4 0.000000 0.000000 0.000000 0.050478 0.000000 0.000000
# 5 0.000000 0.000000 0.000000 0.000000 0.067944 0.000000
# 6 0.000000 0.000000 0.000000 0.000000 0.000000 0.058761
#
#
# Mechanical properties :
#
#
# Convention : Reuss Voigt Hill
#
# Bulk Modulus (GPa) = 27.34553 35.20044 31.27299
# Shear Modulus (GPa) = 20.15526 23.68805 21.92165
#
# Velocity S-wave (km/s) = 3.32334 3.60284 3.46591
# Velocity P-wave (km/s) = 5.45076 6.04948 5.75790
#
# Compressibility (1/GPa) = 0.03656904
#
# Stress axis : x y z
#
# Youngs Moduli (GPa) = 80.13588 105.55730 38.93642
#
# Poissons Ratio (x) = 0.27791 0.06525
# Poissons Ratio (y) = 0.21098 0.04768
# Poissons Ratio (z) = 0.13430 0.12925
#
# Static dielectric constant tensor:
#      x y z
#    x 3.298680 0.000000 0.000000 
#    y 0.000000 3.793610 0.000000 
#    z 0.000000 0.000000 3.041850 
# 
# 
# High freq. dielectric constant tensor:
#      x y z
#    x 1.692010 0.000000 0.000000 
#    y 0.000000 1.720700 0.000000 
#    z 0.000000 0.000000 1.681680 
# 
# From -- ./inp_files/56328.got.cif
#   From: 2010.03.12/outbox.cif.g09.slc.cpg/sg63_29_cif.got.tgz:56328.got - 2010.04.10 19:34:48.
