data_PCOD8257957
_publ_section_title
;
Structure prediction by ZEFSAII (Michael W. Deem and Ramdas Pophale) SiO2 
 PCOD8257957
Probable space group: C M C M
;
_chemical_formula_sum "Si O2"
_cell_formula_units_Z 56
_cell_length_a 12.982841
_cell_length_b 19.073723
_cell_length_c 13.237967
_cell_angle_alpha 90.000000
_cell_angle_beta 90.000000
_cell_angle_gamma 90.000000
_cell_volume 3278.132502
_symmetry_space_group_name_H-M "C M C M"
_symmetry_group_IT_number 63
_symmetry_cell_setting 'orthorhombic'
loop_
_space_group_symop_operation_xyz
x,y,z
-x,-y,1/2+z
x,-y,-z
-x,y,1/2-z
-x,-y,-z
x,y,1/2-z
-x,y,z
x,-y,1/2+z
1/2+x,1/2+y,z
1/2-x,1/2-y,1/2+z
1/2+x,1/2-y,-z
1/2-x,1/2+y,1/2-z
1/2-x,1/2-y,-z
1/2+x,1/2+y,1/2-z
1/2-x,1/2+y,z
1/2+x,1/2-y,1/2+z
loop_
_atom_site_type_symbol
_atom_site_label
_atom_site_fract_x
_atom_site_fract_y
_atom_site_fract_z
Si Si1 0.777926 0.303222 0.913688
Si Si2 0.384403 0.281903 0.250000
Si Si3 0.812289 0.368463 0.250000
Si Si4 0.381140 0.078199 0.961668
Si Si5 0.117643 0.211964 0.250000
O O1 0.866296 0.267185 0.846879
O O2 0.675047 0.318469 0.848567
O O3 0.750000 0.250000 0.000000
O O4 0.818504 0.374932 0.959784
O O5 0.500000 0.311067 0.250000
O O6 0.308721 0.348907 0.250000
O O7 0.838098 0.414341 0.151747
O O8 0.877456 0.296559 0.250000
O O9 0.500000 0.100979 0.962487
O O10 0.365799 0.000000 0.000000
O O11 0.000000 0.186502 0.250000
#
# Coordination Sequence:
#
# PCOD8257957 Si02
#       5
#    16   8   8  16   8
#     4  10  19  35  54  85 111 142 187 234 269 320
#     4  10  20  33  57  84 113 143 184 237 275 316
#     4  10  20  36  53  83 115 144 187 230 274 339
#     4  11  22  36  58  84 115 150 181 227 286 337
#     4  10  20  33  58  83 112 149 187 231 275 327
#
# _framework density 17.082896999999999
#
# number of rings (size 3 to 8) (size 9 to 14) (size 15 to 20)
#    0.000    2.000    5.714    2.143    0.000    3.429 
#    0.000    2.857    0.000    5.143    0.000    0.000 
#    0.000    0.000    0.000    0.000    0.000    0.000 
#
# Total GULP energy -347185.195425 kJ/mol
# GULP energy per Si atom -12399.471265 kJ/mol
# Density = 1.704402 g / cm^3
# Si number density = 17.082897 Si / 1000 Ang^3
#
#
#
# Elastic Constant Matrix: (Units=GPa)
#
#
# Indices 1 2 3 4 5 6 
#
# 1 159.0948 49.7408 66.3156 0.0000 0.0000 0.0000
# 2 49.7408 82.6910 55.4661 0.0000 0.0000 0.0000
# 3 66.3156 55.4661 152.6443 0.0000 0.0000 0.0000
# 4 0.0000 0.0000 0.0000 32.2767 0.0000 0.0000
# 5 0.0000 0.0000 0.0000 0.0000 15.2347 0.0000
# 6 0.0000 0.0000 0.0000 0.0000 0.0000 24.8203
#
#
#
# Elastic Compliance Matrix: (Units=1/GPa)
#
#
# Indices 1 2 3 4 5 6 
#
# 1 0.008349 -0.003424 -0.002383 0.000000 0.000000 0.000000
# 2 -0.003424 0.017395 -0.004833 0.000000 0.000000 0.000000
# 3 -0.002383 -0.004833 0.009343 0.000000 0.000000 0.000000
# 4 0.000000 0.000000 0.000000 0.030982 0.000000 0.000000
# 5 0.000000 0.000000 0.000000 0.000000 0.065640 0.000000
# 6 0.000000 0.000000 0.000000 0.000000 0.000000 0.040290
#
#
# Mechanical properties :
#
#
# Convention : Reuss Voigt Hill
#
# Bulk Modulus (GPa) = 72.43045 81.94169 77.18607
# Shear Modulus (GPa) = 25.26771 29.32684 27.29727
#
# Velocity S-wave (km/s) = 3.85011 4.14785 4.00175
# Velocity P-wave (km/s) = 7.89024 8.42679 8.16292
#
# Compressibility (1/GPa) = 0.01380635
#
# Stress axis : x y z
#
# Youngs Moduli (GPa) = 119.76865 57.48887 107.03406
#
# Poissons Ratio (x) = 0.19683 0.25509
# Poissons Ratio (y) = 0.41006 0.51732
# Poissons Ratio (z) = 0.28544 0.27786
#
# Static dielectric constant tensor:
#      x y z
#    x 3.270260 0.000000 0.000000 
#    y 0.000000 4.880170 0.000000 
#    z 0.000000 0.000000 3.282410 
# 
# 
# High freq. dielectric constant tensor:
#      x y z
#    x 1.658190 0.000000 0.000000 
#    y 0.000000 1.631980 0.000000 
#    z 0.000000 0.000000 1.682680 
# 
# From -- ./inp_files/18875.got.cif
#   From: 2010.03.12/outbox.cif.g09.slc.cpg/sg63_10_cif.got.tgz:18875.got - 2010.04.10 19:34:48.
