data_PCOD8257352
_publ_section_title
;
Structure prediction by ZEFSAII (Michael W. Deem and Ramdas Pophale) SiO2 
 PCOD8257352
Probable space group: C M C M
;
_chemical_formula_sum "Si O2"
_cell_formula_units_Z 96
_cell_length_a 9.498066
_cell_length_b 30.107292
_cell_length_c 19.041595
_cell_angle_alpha 90.000000
_cell_angle_beta 90.000000
_cell_angle_gamma 90.000000
_cell_volume 5445.154433
_symmetry_space_group_name_H-M "C M C M"
_symmetry_group_IT_number 63
_symmetry_cell_setting 'orthorhombic'
loop_
_space_group_symop_operation_xyz
x,y,z
-x,-y,1/2+z
x,-y,-z
-x,y,1/2-z
-x,-y,-z
x,y,1/2-z
-x,y,z
x,-y,1/2+z
1/2+x,1/2+y,z
1/2-x,1/2-y,1/2+z
1/2+x,1/2-y,-z
1/2-x,1/2+y,1/2-z
1/2-x,1/2-y,-z
1/2+x,1/2+y,1/2-z
1/2-x,1/2+y,z
1/2+x,1/2-y,1/2+z
loop_
_atom_site_type_symbol
_atom_site_label
_atom_site_fract_x
_atom_site_fract_y
_atom_site_fract_z
Si Si1 0.163620 0.769319 0.563990
Si Si2 0.663326 0.370961 0.555839
Si Si3 0.165975 0.696558 0.827981
Si Si4 0.162795 0.472829 0.330828
Si Si5 0.166351 0.386372 0.082151
Si Si6 0.337034 0.442694 0.669960
O O1 0.250000 0.750000 0.500000
O O2 0.201281 0.820570 0.576135
O O3 0.205894 0.742781 0.634425
O O4 0.000000 0.762259 0.546407
O O5 0.500000 0.375655 0.534991
O O6 0.756725 0.388010 0.491969
O O7 0.701797 0.400143 0.623549
O O8 0.233856 0.696329 0.750000
O O9 0.224676 0.655459 0.873499
O O10 0.000000 0.690927 0.821056
O O11 0.197028 0.461659 0.250000
O O12 0.207561 0.430589 0.376220
O O13 0.250499 0.514997 0.357615
O O14 0.000000 0.484434 0.341362
O O15 0.000000 0.382581 0.069204
O O16 0.295800 0.431060 0.750000
O O17 0.500000 0.455207 0.663313
#
# Coordination Sequence:
#
# PCOD8257352 Si02
#       6
#    16  16  16  16  16  16
#     4  10  19  33  53  75 101 134 168 206 252 301
#     4  10  21  34  51  76 104 134 168 210 255 300
#     4   9  17  30  51  78 102 128 167 210 250 296
#     4   9  18  33  53  76 102 132 169 214 257 296
#     4  10  19  32  52  77 104 134 167 207 254 305
#     4   9  19  36  54  72  99 135 173 211 252 300
#
# _framework density 17.630352999999999
#
# number of rings (size 3 to 8) (size 9 to 14) (size 15 to 20)
#    0.000    2.500    1.667    0.500    0.000    4.667 
#    0.000    6.667    0.000    3.000    0.000    2.333 
#    0.000    0.000    0.000    0.000    0.000    0.000 
#
# Total GULP energy -595267.578570 kJ/mol
# GULP energy per Si atom -12401.407887 kJ/mol
# Density = 1.759023 g / cm^3
# Si number density = 17.630353 Si / 1000 Ang^3
#
#
#
# Elastic Constant Matrix: (Units=GPa)
#
#
# Indices 1 2 3 4 5 6 
#
# 1 40.1747 53.5757 43.0332 0.0000 0.0000 0.0000
# 2 53.5757 168.0996 80.8834 0.0000 0.0000 0.0000
# 3 43.0332 80.8834 118.1136 0.0000 0.0000 0.0000
# 4 0.0000 0.0000 0.0000 36.1398 0.0000 0.0000
# 5 0.0000 0.0000 0.0000 0.0000 26.7898 0.0000
# 6 0.0000 0.0000 0.0000 0.0000 0.0000 25.1825
#
#
#
# Elastic Compliance Matrix: (Units=1/GPa)
#
#
# Indices 1 2 3 4 5 6 
#
# 1 0.051706 -0.011059 -0.011265 0.000000 0.000000 0.000000
# 2 -0.011059 0.011238 -0.003666 0.000000 0.000000 0.000000
# 3 -0.011265 -0.003666 0.015081 0.000000 0.000000 0.000000
# 4 0.000000 0.000000 0.000000 0.027670 0.000000 0.000000
# 5 0.000000 0.000000 0.000000 0.000000 0.037328 0.000000
# 6 0.000000 0.000000 0.000000 0.000000 0.000000 0.039710
#
#
# Mechanical properties :
#
#
# Convention : Reuss Voigt Hill
#
# Bulk Modulus (GPa) = 38.39661 75.70805 57.05233
# Shear Modulus (GPa) = 20.54272 27.54881 24.04577
#
# Velocity S-wave (km/s) = 3.41719 3.95723 3.69709
# Velocity P-wave (km/s) = 6.11519 7.99467 7.11724
#
# Compressibility (1/GPa) = 0.02604397
#
# Stress axis : x y z
#
# Youngs Moduli (GPa) = 19.34011 88.98746 66.30691
#
# Poissons Ratio (x) = 0.98411 0.74697
# Poissons Ratio (y) = 0.21388 0.24309
# Poissons Ratio (z) = 0.21787 0.32625
#
# Static dielectric constant tensor:
#      x y z
#    x 3.194420 0.000000 0.000000 
#    y 0.000000 3.473020 0.000000 
#    z 0.000000 0.000000 3.402250 
# 
# 
# High freq. dielectric constant tensor:
#      x y z
#    x 1.658320 0.000000 0.000000 
#    y 0.000000 1.693400 0.000000 
#    z 0.000000 0.000000 1.683550 
# 
# From -- ./inp_files/51306.got.cif
#   From: 2010.03.12/outbox.cif.g09.slc.cpg/sg63_26_cif.got.tgz:51306.got - 2010.04.10 19:34:48.
