data_PCOD8257306
_publ_section_title
;
Structure prediction by ZEFSAII (Michael W. Deem and Ramdas Pophale) SiO2 
 PCOD8257306
Probable space group: C M C M
;
_chemical_formula_sum "Si O2"
_cell_formula_units_Z 72
_cell_length_a 24.961276
_cell_length_b 16.357757
_cell_length_c 9.542828
_cell_angle_alpha 90.000000
_cell_angle_beta 90.000000
_cell_angle_gamma 90.000000
_cell_volume 3896.436750
_symmetry_space_group_name_H-M "C M C M"
_symmetry_group_IT_number 63
_symmetry_cell_setting 'orthorhombic'
loop_
_space_group_symop_operation_xyz
x,y,z
-x,-y,1/2+z
x,-y,-z
-x,y,1/2-z
-x,-y,-z
x,y,1/2-z
-x,y,z
x,-y,1/2+z
1/2+x,1/2+y,z
1/2-x,1/2-y,1/2+z
1/2+x,1/2-y,-z
1/2-x,1/2+y,1/2-z
1/2-x,1/2-y,-z
1/2+x,1/2+y,1/2-z
1/2-x,1/2+y,z
1/2+x,1/2-y,1/2+z
loop_
_atom_site_type_symbol
_atom_site_label
_atom_site_fract_x
_atom_site_fract_y
_atom_site_fract_z
Si Si1 0.634008 0.752629 0.589449
Si Si2 0.683171 0.077224 0.084836
Si Si3 0.630603 0.500000 0.500000
Si Si4 0.715801 0.619106 0.594879
Si Si5 0.939683 0.854197 0.908265
O O1 0.618336 0.737350 0.750000
O O2 0.642744 0.848208 0.558277
O O3 0.689742 0.706342 0.554635
O O4 0.585465 0.719087 0.497919
O O5 0.689444 0.057749 0.250000
O O6 0.741801 0.096978 0.024155
O O7 0.659311 0.000000 0.000000
O O8 0.668260 0.552351 0.603054
O O9 0.593160 0.561579 0.413907
O O10 0.742533 0.622534 0.750000
O O11 0.939663 0.822666 0.750000
O O12 0.000000 0.870103 0.962299
#
# Coordination Sequence:
#
# PCOD8257306 Si02
#       5
#    16  16   8  16  16
#     4   9  21  38  54  76 105 141 181 224 274 321
#     4  11  22  35  53  77 108 141 179 224 270 322
#     4  10  19  32  52  80 116 150 179 210 256 318
#     4  10  19  32  51  76 108 144 182 216 257 314
#     4  10  21  36  56  82 110 143 184 228 271 317
#
# _framework density 18.478421999999998
#
# number of rings (size 3 to 8) (size 9 to 14) (size 15 to 20)
#    0.000    2.000    1.111    2.333    0.000    6.667 
#    0.000    0.000    0.000    0.667    0.000    0.000 
#    0.000    0.000    0.000    0.000    0.000    0.000 
#
# Total GULP energy -446354.828536 kJ/mol
# GULP energy per Si atom -12398.745237 kJ/mol
# Density = 1.843636 g / cm^3
# Si number density = 18.478422 Si / 1000 Ang^3
#
#
#
# Elastic Constant Matrix: (Units=GPa)
#
#
# Indices 1 2 3 4 5 6 
#
# 1 66.9060 27.4236 35.0821 0.0000 0.0000 0.0000
# 2 27.4236 111.3758 46.2762 0.0000 0.0000 0.0000
# 3 35.0821 46.2762 99.6306 0.0000 0.0000 0.0000
# 4 0.0000 0.0000 0.0000 28.6887 0.0000 0.0000
# 5 0.0000 0.0000 0.0000 0.0000 26.4356 0.0000
# 6 0.0000 0.0000 0.0000 0.0000 0.0000 17.4212
#
#
#
# Elastic Compliance Matrix: (Units=1/GPa)
#
#
# Indices 1 2 3 4 5 6 
#
# 1 0.018806 -0.002328 -0.005540 0.000000 0.000000 0.000000
# 2 -0.002328 0.011414 -0.004482 0.000000 0.000000 0.000000
# 3 -0.005540 -0.004482 0.014070 0.000000 0.000000 0.000000
# 4 0.000000 0.000000 0.000000 0.034857 0.000000 0.000000
# 5 0.000000 0.000000 0.000000 0.000000 0.037828 0.000000
# 6 0.000000 0.000000 0.000000 0.000000 0.000000 0.057401
#
#
# Mechanical properties :
#
#
# Convention : Reuss Voigt Hill
#
# Bulk Modulus (GPa) = 51.05061 55.05291 53.05176
# Shear Modulus (GPa) = 24.31831 25.78446 25.05139
#
# Velocity S-wave (km/s) = 3.63166 3.73953 3.68599
# Velocity P-wave (km/s) = 6.72848 6.96443 6.84747
#
# Compressibility (1/GPa) = 0.01958840
#
# Stress axis : x y z
#
# Youngs Moduli (GPa) = 53.17487 87.61134 71.07510
#
# Poissons Ratio (x) = 0.20400 0.39379
# Poissons Ratio (y) = 0.12382 0.31853
# Poissons Ratio (z) = 0.29461 0.39264
#
# Static dielectric constant tensor:
#      x y z
#    x 3.132200 0.000000 0.000000 
#    y 0.000000 3.664540 0.000000 
#    z 0.000000 0.000000 3.338420 
# 
# 
# High freq. dielectric constant tensor:
#      x y z
#    x 1.686020 0.000000 0.000000 
#    y 0.000000 1.721360 0.000000 
#    z 0.000000 0.000000 1.721940 
# 
# From -- ./inp_files/9874.got.cif
#   From: 2010.03.12/outbox.cif.g09.slc.cpg/sg63_5_cif.got.tgz:9874.got - 2010.04.10 19:34:48.
