data_PCOD8257075
_publ_section_title
;
Structure prediction by ZEFSAII (Michael W. Deem and Ramdas Pophale) SiO2 
 PCOD8257075
Probable space group: C M C M
;
_chemical_formula_sum "Si O2"
_cell_formula_units_Z 80
_cell_length_a 9.189784
_cell_length_b 26.610817
_cell_length_c 18.396291
_cell_angle_alpha 90.000000
_cell_angle_beta 90.000000
_cell_angle_gamma 90.000000
_cell_volume 4498.769922
_symmetry_space_group_name_H-M "C M C M"
_symmetry_group_IT_number 63
_symmetry_cell_setting 'orthorhombic'
loop_
_space_group_symop_operation_xyz
x,y,z
-x,-y,1/2+z
x,-y,-z
-x,y,1/2-z
-x,-y,-z
x,y,1/2-z
-x,y,z
x,-y,1/2+z
1/2+x,1/2+y,z
1/2-x,1/2-y,1/2+z
1/2+x,1/2-y,-z
1/2-x,1/2+y,1/2-z
1/2-x,1/2-y,-z
1/2+x,1/2+y,1/2-z
1/2-x,1/2+y,z
1/2+x,1/2-y,1/2+z
loop_
_atom_site_type_symbol
_atom_site_label
_atom_site_fract_x
_atom_site_fract_y
_atom_site_fract_z
Si Si1 0.667474 0.778333 0.098187
Si Si2 0.831396 0.473428 0.113029
Si Si3 0.326964 0.570254 0.750000
Si Si4 0.330198 0.325574 0.969951
Si Si5 0.332566 0.174696 0.750000
Si Si6 0.832426 0.423536 0.961683
O O1 0.500000 0.788642 0.078130
O O2 0.707507 0.720141 0.084392
O O3 0.702001 0.790416 0.181324
O O4 0.763204 0.815027 0.048963
O O5 0.728954 0.458486 0.179068
O O6 0.800584 0.531392 0.093965
O O7 0.000000 0.465511 0.134452
O O8 0.791576 0.439447 0.043628
O O9 0.500000 0.570265 0.750000
O O10 0.270759 0.626943 0.750000
O O11 0.500000 0.333496 0.979804
O O12 0.263035 0.376209 0.936720
O O13 0.500000 0.156217 0.750000
O O14 0.000000 0.407899 0.958145
#
# Coordination Sequence:
#
# PCOD8257075 Si02
#       6
#    16  16   8  16   8  16
#     4   9  19  34  51  72  98 132 172 205 240 295
#     4   9  19  36  55  74  99 134 173 206 241 297
#     4  12  24  34  49  78 109 131 158 205 259 300
#     4  10  19  31  50  76 104 131 161 205 256 298
#     4  10  20  36  55  70  93 133 172 203 239 292
#     4   9  18  34  56  77  97 129 173 212 245 291
#
# _framework density 17.782637000000001
#
# number of rings (size 3 to 8) (size 9 to 14) (size 15 to 20)
#    0.000    2.400    0.000    3.900    0.000    8.000 
#    0.000    3.000    0.000    1.200    0.000    0.000 
#    0.000    0.000    0.000    0.000    0.000    0.000 
#
# Total GULP energy -496091.677658 kJ/mol
# GULP energy per Si atom -12402.291941 kJ/mol
# Density = 1.774216 g / cm^3
# Si number density = 17.782637 Si / 1000 Ang^3
#
#
#
# Elastic Constant Matrix: (Units=GPa)
#
#
# Indices 1 2 3 4 5 6 
#
# 1 91.0524 59.3153 54.1988 0.0000 0.0000 0.0000
# 2 59.3153 122.1577 49.2902 0.0000 0.0000 0.0000
# 3 54.1988 49.2902 112.1699 0.0000 0.0000 0.0000
# 4 0.0000 0.0000 0.0000 19.0845 0.0000 0.0000
# 5 0.0000 0.0000 0.0000 0.0000 21.5710 0.0000
# 6 0.0000 0.0000 0.0000 0.0000 0.0000 36.3359
#
#
#
# Elastic Compliance Matrix: (Units=1/GPa)
#
#
# Indices 1 2 3 4 5 6 
#
# 1 0.019111 -0.006751 -0.006268 0.000000 0.000000 0.000000
# 2 -0.006751 0.012335 -0.002158 0.000000 0.000000 0.000000
# 3 -0.006268 -0.002158 0.012892 0.000000 0.000000 0.000000
# 4 0.000000 0.000000 0.000000 0.052399 0.000000 0.000000
# 5 0.000000 0.000000 0.000000 0.000000 0.046358 0.000000
# 6 0.000000 0.000000 0.000000 0.000000 0.000000 0.027521
#
#
# Mechanical properties :
#
#
# Convention : Reuss Voigt Hill
#
# Bulk Modulus (GPa) = 71.50878 72.33208 71.92043
# Shear Modulus (GPa) = 24.31530 26.23666 25.27598
#
# Velocity S-wave (km/s) = 3.70180 3.84527 3.77422
# Velocity P-wave (km/s) = 7.65317 7.77681 7.71524
#
# Compressibility (1/GPa) = 0.01398430
#
# Stress axis : x y z
#
# Youngs Moduli (GPa) = 52.32511 81.07046 77.56712
#
# Poissons Ratio (x) = 0.54728 0.48618
# Poissons Ratio (y) = 0.35323 0.16743
# Poissons Ratio (z) = 0.32797 0.17499
#
# Static dielectric constant tensor:
#      x y z
#    x 3.244380 0.000000 0.000000 
#    y 0.000000 3.380780 0.000000 
#    z 0.000000 0.000000 3.192110 
# 
# 
# High freq. dielectric constant tensor:
#      x y z
#    x 1.684910 0.000000 0.000000 
#    y 0.000000 1.697440 0.000000 
#    z 0.000000 0.000000 1.674980 
# 
# From -- ./inp_files/40567.got.cif
#   From: 2010.03.12/outbox.cif.g09.slc.cpg/sg63_21_cif.got.tgz:40567.got - 2010.04.10 19:34:48.
