data_PCOD8257953
_publ_section_title
;
Structure prediction by ZEFSAII (Michael W. Deem and Ramdas Pophale) SiO2 
 PCOD8257953
Probable space group: C M C M
;
_chemical_formula_sum "Si O2"
_cell_formula_units_Z 80
_cell_length_a 12.946664
_cell_length_b 13.194709
_cell_length_c 26.685982
_cell_angle_alpha 90.000000
_cell_angle_beta 90.000000
_cell_angle_gamma 90.000000
_cell_volume 4558.698629
_symmetry_space_group_name_H-M "C M C M"
_symmetry_group_IT_number 63
_symmetry_cell_setting 'orthorhombic'
loop_
_space_group_symop_operation_xyz
x,y,z
-x,-y,1/2+z
x,-y,-z
-x,y,1/2-z
-x,-y,-z
x,y,1/2-z
-x,y,z
x,-y,1/2+z
1/2+x,1/2+y,z
1/2-x,1/2-y,1/2+z
1/2+x,1/2-y,-z
1/2-x,1/2+y,1/2-z
1/2-x,1/2-y,-z
1/2+x,1/2+y,1/2-z
1/2-x,1/2+y,z
1/2+x,1/2-y,1/2+z
loop_
_atom_site_type_symbol
_atom_site_label
_atom_site_fract_x
_atom_site_fract_y
_atom_site_fract_z
Si Si1 0.881059 0.350302 0.139871
Si Si2 0.119841 0.150969 0.193743
Si Si3 0.731399 0.039530 0.380692
Si Si4 0.621924 0.176057 0.455397
Si Si5 0.251025 0.134227 0.950261
O O1 0.861072 0.270477 0.184297
O O2 0.835279 0.461328 0.153633
O O3 0.826952 0.308526 0.089165
O O4 0.000000 0.363026 0.127480
O O5 0.157841 0.126968 0.250000
O O6 0.179679 0.083748 0.153828
O O7 0.000000 0.124016 0.187255
O O8 0.656644 0.126821 0.402531
O O9 0.781608 0.975223 0.427180
O O10 0.500000 0.162362 0.462739
O O11 0.684675 0.118078 0.498879
O O12 0.650232 0.295508 0.457613
#
# Coordination Sequence:
#
# PCOD8257953 Si02
#       5
#    16  16  16  16  16
#     4   9  18  34  55  79 107 140 177 220 264 316
#     4  10  21  38  58  78 105 142 179 223 278 327
#     4  10  19  35  53  83 105 141 181 228 260 316
#     4  11  20  34  55  80 113 149 181 215 265 320
#     4   9  21  33  51  82 111 144 177 219 261 317
#
# _framework density 17.548867999999999
#
# number of rings (size 3 to 8) (size 9 to 14) (size 15 to 20)
#    1.200    1.000    2.000    1.800    0.000    2.400 
#    0.000    0.000    0.000    5.400    0.000    0.000 
#    0.000    0.000    0.000    0.000    0.000    0.000 
#
# Total GULP energy -495621.695177 kJ/mol
# GULP energy per Si atom -12390.542379 kJ/mol
# Density = 1.750893 g / cm^3
# Si number density = 17.548868 Si / 1000 Ang^3
#
#
#
# Elastic Constant Matrix: (Units=GPa)
#
#
# Indices 1 2 3 4 5 6 
#
# 1 82.4507 48.1388 55.5853 0.0000 0.0000 0.0000
# 2 48.1388 77.3746 39.4564 0.0000 0.0000 0.0000
# 3 55.5853 39.4564 89.5550 0.0000 0.0000 0.0000
# 4 0.0000 0.0000 0.0000 26.9699 0.0000 0.0000
# 5 0.0000 0.0000 0.0000 0.0000 28.2649 0.0000
# 6 0.0000 0.0000 0.0000 0.0000 0.0000 18.3808
#
#
#
# Elastic Compliance Matrix: (Units=1/GPa)
#
#
# Indices 1 2 3 4 5 6 
#
# 1 0.025888 -0.010205 -0.011572 0.000000 0.000000 0.000000
# 2 -0.010205 0.020692 -0.002782 0.000000 0.000000 0.000000
# 3 -0.011572 -0.002782 0.019575 0.000000 0.000000 0.000000
# 4 0.000000 0.000000 0.000000 0.037078 0.000000 0.000000
# 5 0.000000 0.000000 0.000000 0.000000 0.035380 0.000000
# 6 0.000000 0.000000 0.000000 0.000000 0.000000 0.054404
#
#
# Mechanical properties :
#
#
# Convention : Reuss Voigt Hill
#
# Bulk Modulus (GPa) = 58.70037 59.52682 59.11360
# Shear Modulus (GPa) = 20.17622 21.80311 20.98966
#
# Velocity S-wave (km/s) = 3.39442 3.52863 3.46218
# Velocity P-wave (km/s) = 6.99179 7.11308 7.05269
#
# Compressibility (1/GPa) = 0.01703567
#
# Stress axis : x y z
#
# Youngs Moduli (GPa) = 38.62722 48.32718 51.08601
#
# Poissons Ratio (x) = 0.49320 0.59118
# Poissons Ratio (y) = 0.39421 0.14214
# Poissons Ratio (z) = 0.44700 0.13446
#
# Static dielectric constant tensor:
#      x y z
#    x 3.012120 0.000000 0.000000 
#    y 0.000000 3.244910 0.000000 
#    z 0.000000 0.000000 3.134510 
# 
# 
# High freq. dielectric constant tensor:
#      x y z
#    x 1.662120 0.000000 0.000000 
#    y 0.000000 1.678820 0.000000 
#    z 0.000000 0.000000 1.666360 
# 
# From -- ./inp_files/68083.got.cif
#   From: 2010.03.12/outbox.cif.g09.slc.cpg/sg63_35_cif.got.tgz:68083.got - 2010.04.10 19:34:48.
