data_PCOD8257008
_publ_section_title
;
Structure prediction by ZEFSAII (Michael W. Deem and Ramdas Pophale) SiO2 
 PCOD8257008
Probable space group: C M C M
;
_chemical_formula_sum "Si O2"
_cell_formula_units_Z 96
_cell_length_a 8.954388
_cell_length_b 32.690741
_cell_length_c 18.403227
_cell_angle_alpha 90.000000
_cell_angle_beta 90.000000
_cell_angle_gamma 90.000000
_cell_volume 5387.095278
_symmetry_space_group_name_H-M "C M C M"
_symmetry_group_IT_number 63
_symmetry_cell_setting 'orthorhombic'
loop_
_space_group_symop_operation_xyz
x,y,z
-x,-y,1/2+z
x,-y,-z
-x,y,1/2-z
-x,-y,-z
x,y,1/2-z
-x,y,z
x,-y,1/2+z
1/2+x,1/2+y,z
1/2-x,1/2-y,1/2+z
1/2+x,1/2-y,-z
1/2-x,1/2+y,1/2-z
1/2-x,1/2-y,-z
1/2+x,1/2+y,1/2-z
1/2-x,1/2+y,z
1/2+x,1/2-y,1/2+z
loop_
_atom_site_type_symbol
_atom_site_label
_atom_site_fract_x
_atom_site_fract_y
_atom_site_fract_z
Si Si1 0.174844 0.912082 0.831871
Si Si2 0.174002 0.671422 0.665898
Si Si3 0.176145 0.661583 0.093521
Si Si4 0.824108 0.042204 0.028454
Si Si5 0.327927 0.245814 0.166424
Si Si6 0.823541 0.125451 0.956729
O O1 0.209562 0.927123 0.750000
O O2 0.262230 0.870322 0.847321
O O3 0.227436 0.947107 0.888974
O O4 0.000000 0.902793 0.843116
O O5 0.212501 0.664308 0.750000
O O6 0.228955 0.716020 0.640425
O O7 0.260176 0.636162 0.622268
O O8 0.000000 0.667942 0.649559
O O9 0.218771 0.706915 0.119082
O O10 0.000000 0.655462 0.086974
O O11 0.251896 0.655768 0.015569
O O12 0.000000 0.036716 0.027599
O O13 0.776266 0.078928 0.974993
O O14 0.748515 0.000000 0.000000
O O15 0.295806 0.234941 0.250000
O O16 0.500000 0.257685 0.154466
O O17 0.000000 0.131077 0.958522
#
# Coordination Sequence:
#
# PCOD8257008 Si02
#       6
#    16  16  16  16  16  16
#     4   9  17  29  47  72 101 132 165 203 248 297
#     4  10  21  36  53  72  96 129 167 206 246 287
#     4  10  19  31  49  73 101 132 164 201 246 294
#     4   8  15  30  51  74  99 126 160 204 249 292
#     4   9  18  32  49  70  97 130 168 207 244 283
#     4  10  20  34  53  75  98 127 162 201 247 295
#
# _framework density 17.820364000000001
#
# number of rings (size 3 to 8) (size 9 to 14) (size 15 to 20)
#    0.000    2.667    0.000    3.000    0.000    4.000 
#    0.000    2.500    0.000   15.500    0.000    0.000 
#    0.000    0.000    0.000    0.000    0.000    0.000 
#
# Total GULP energy -595171.121679 kJ/mol
# GULP energy per Si atom -12399.398368 kJ/mol
# Density = 1.777980 g / cm^3
# Si number density = 17.820364 Si / 1000 Ang^3
#
#
#
# Elastic Constant Matrix: (Units=GPa)
#
#
# Indices 1 2 3 4 5 6 
#
# 1 62.7375 45.1029 45.4542 0.0000 0.0000 0.0000
# 2 45.1029 125.7750 83.0199 0.0000 0.0000 0.0000
# 3 45.4542 83.0199 116.1131 0.0000 0.0000 0.0000
# 4 0.0000 0.0000 0.0000 25.4134 0.0000 0.0000
# 5 0.0000 0.0000 0.0000 0.0000 29.4086 0.0000
# 6 0.0000 0.0000 0.0000 0.0000 0.0000 19.9758
#
#
#
# Elastic Compliance Matrix: (Units=1/GPa)
#
#
# Indices 1 2 3 4 5 6 
#
# 1 0.023501 -0.004460 -0.006011 0.000000 0.000000 0.000000
# 2 -0.004460 0.015903 -0.009625 0.000000 0.000000 0.000000
# 3 -0.006011 -0.009625 0.017847 0.000000 0.000000 0.000000
# 4 0.000000 0.000000 0.000000 0.039349 0.000000 0.000000
# 5 0.000000 0.000000 0.000000 0.000000 0.034004 0.000000
# 6 0.000000 0.000000 0.000000 0.000000 0.000000 0.050061
#
#
# Mechanical properties :
#
#
# Convention : Reuss Voigt Hill
#
# Bulk Modulus (GPa) = 58.61740 72.41996 65.51868
# Shear Modulus (GPa) = 22.07105 23.69613 22.88359
#
# Velocity S-wave (km/s) = 3.52309 3.65049 3.58736
# Velocity P-wave (km/s) = 7.03665 7.64822 7.34880
#
# Compressibility (1/GPa) = 0.01705978
#
# Stress axis : x y z
#
# Youngs Moduli (GPa) = 42.55212 62.88209 56.03207
#
# Poissons Ratio (x) = 0.28043 0.33681
# Poissons Ratio (y) = 0.18976 0.53929
# Poissons Ratio (z) = 0.25578 0.60521
#
# Static dielectric constant tensor:
#      x y z
#    x 3.191360 0.000000 0.000000 
#    y 0.000000 3.380720 0.000000 
#    z 0.000000 0.000000 3.399250 
# 
# 
# High freq. dielectric constant tensor:
#      x y z
#    x 1.680000 0.000000 0.000000 
#    y 0.000000 1.677530 0.000000 
#    z 0.000000 0.000000 1.691960 
# 
# From -- ./inp_files/51385.got.cif
#   From: 2010.03.12/outbox.cif.g09.slc.cpg/sg63_26_cif.got.tgz:51385.got - 2010.04.10 19:34:48.
