data_PCOD8257579
_publ_section_title
;
Structure prediction by ZEFSAII (Michael W. Deem and Ramdas Pophale) SiO2 
 PCOD8257579
Probable space group: C M C M
;
_chemical_formula_sum "Si O2"
_cell_formula_units_Z 80
_cell_length_a 19.827802
_cell_length_b 25.326109
_cell_length_c 8.656237
_cell_angle_alpha 90.000000
_cell_angle_beta 90.000000
_cell_angle_gamma 90.000000
_cell_volume 4346.825275
_symmetry_space_group_name_H-M "C M C M"
_symmetry_group_IT_number 63
_symmetry_cell_setting 'orthorhombic'
loop_
_space_group_symop_operation_xyz
x,y,z
-x,-y,1/2+z
x,-y,-z
-x,y,1/2-z
-x,-y,-z
x,y,1/2-z
-x,y,z
x,-y,1/2+z
1/2+x,1/2+y,z
1/2-x,1/2-y,1/2+z
1/2+x,1/2-y,-z
1/2-x,1/2+y,1/2-z
1/2-x,1/2-y,-z
1/2+x,1/2+y,1/2-z
1/2-x,1/2+y,z
1/2+x,1/2-y,1/2+z
loop_
_atom_site_type_symbol
_atom_site_label
_atom_site_fract_x
_atom_site_fract_y
_atom_site_fract_z
Si Si1 0.500000 0.721072 0.924677
Si Si2 0.848753 0.248029 0.927197
Si Si3 0.754732 0.446054 0.569750
Si Si4 0.239820 0.334892 0.071666
Si Si5 0.891212 0.948733 0.067839
Si Si6 0.000000 0.117605 0.426476
O O1 0.500000 0.696985 0.750000
O O2 0.429745 0.752280 0.947872
O O3 0.500000 0.680107 0.064904
O O4 0.828575 0.259781 0.750000
O O5 0.813239 0.191377 0.973237
O O6 0.818581 0.293090 0.035727
O O7 0.788719 0.500000 0.500000
O O8 0.766249 0.449600 0.750000
O O9 0.781381 0.389315 0.512774
O O10 0.676955 0.445655 0.526463
O O11 0.240494 0.349706 0.250000
O O12 0.878034 0.951511 0.250000
O O13 0.934772 0.898611 0.023767
O O14 0.930414 0.000000 0.000000
O O15 0.000000 0.097483 0.250000
#
# Coordination Sequence:
#
# PCOD8257579 Si02
#       6
#     8  16  16  16  16   8
#     4  10  20  35  53  74 101 133 171 214 259 306
#     4   9  19  34  53  76 103 137 175 216 261 308
#     4  11  21  34  52  75 102 131 167 210 257 307
#     4  10  19  33  53  77 106 139 175 214 259 309
#     4  11  21  34  48  65  92 127 168 210 253 297
#     4  12  23  33  46  66  93 129 171 210 251 298
#
# _framework density 18.404236000000001
#
# number of rings (size 3 to 8) (size 9 to 14) (size 15 to 20)
#    0.000    1.600    0.000    7.800    0.000    3.200 
#    0.000    0.000    0.000    0.000    0.000    0.700 
#    0.000    0.000    0.000    0.000    0.000    0.000 
#
# Total GULP energy -495553.497200 kJ/mol
# GULP energy per Si atom -12388.837430 kJ/mol
# Density = 1.836235 g / cm^3
# Si number density = 18.404236 Si / 1000 Ang^3
#
#
#
# Elastic Constant Matrix: (Units=GPa)
#
#
# Indices 1 2 3 4 5 6 
#
# 1 74.7467 21.9508 18.1911 0.0000 0.0000 0.0000
# 2 21.9508 109.4575 52.5345 0.0000 0.0000 0.0000
# 3 18.1911 52.5345 100.0490 0.0000 0.0000 0.0000
# 4 0.0000 0.0000 0.0000 34.7478 0.0000 0.0000
# 5 0.0000 0.0000 0.0000 0.0000 2.4363 0.0000
# 6 0.0000 0.0000 0.0000 0.0000 0.0000 15.0362
#
#
#
# Elastic Compliance Matrix: (Units=1/GPa)
#
#
# Indices 1 2 3 4 5 6 
#
# 1 0.014376 -0.002177 -0.001471 0.000000 0.000000 0.000000
# 2 -0.002177 0.012544 -0.006191 0.000000 0.000000 0.000000
# 3 -0.001471 -0.006191 0.013513 0.000000 0.000000 0.000000
# 4 0.000000 0.000000 0.000000 0.028779 0.000000 0.000000
# 5 0.000000 0.000000 0.000000 0.000000 0.410464 0.000000
# 6 0.000000 0.000000 0.000000 0.000000 0.000000 0.066506
#
#
# Mechanical properties :
#
#
# Convention : Reuss Voigt Hill
#
# Bulk Modulus (GPa) = 48.17939 52.17844 50.17891
# Shear Modulus (GPa) = 8.72939 23.21584 15.97261
#
# Velocity S-wave (km/s) = 2.18024 3.55553 2.94917
# Velocity P-wave (km/s) = 5.70729 6.72819 6.23866
#
# Compressibility (1/GPa) = 0.02075576
#
# Stress axis : x y z
#
# Youngs Moduli (GPa) = 69.56142 79.72032 74.00166
#
# Poissons Ratio (x) = 0.17356 0.10883
# Poissons Ratio (y) = 0.15144 0.45813
# Poissons Ratio (z) = 0.10230 0.49353
#
# Static dielectric constant tensor:
#      x y z
#    x 3.088020 0.000000 0.000000 
#    y 0.000000 4.285430 0.000000 
#    z 0.000000 0.000000 3.451810 
# 
# 
# High freq. dielectric constant tensor:
#      x y z
#    x 1.673300 0.000000 0.000000 
#    y 0.000000 1.712910 0.000000 
#    z 0.000000 0.000000 1.725050 
# 
# From -- ./inp_files/8116.got.cif
#   From: 2010.03.12/outbox.cif.g09.slc.cpg/sg63_5_cif.got.tgz:8116.got - 2010.04.10 19:34:48.
