data_PCOD8257124
_publ_section_title
;
Structure prediction by ZEFSAII (Michael W. Deem and Ramdas Pophale) SiO2 
 PCOD8257124
Probable space group: C M C M
;
_chemical_formula_sum "Si O2"
_cell_formula_units_Z 104
_cell_length_a 21.271235
_cell_length_b 28.264542
_cell_length_c 8.854682
_cell_angle_alpha 90.000000
_cell_angle_beta 90.000000
_cell_angle_gamma 90.000000
_cell_volume 5323.627098
_symmetry_space_group_name_H-M "C M C M"
_symmetry_group_IT_number 63
_symmetry_cell_setting 'orthorhombic'
loop_
_space_group_symop_operation_xyz
x,y,z
-x,-y,1/2+z
x,-y,-z
-x,y,1/2-z
-x,-y,-z
x,y,1/2-z
-x,y,z
x,-y,1/2+z
1/2+x,1/2+y,z
1/2-x,1/2-y,1/2+z
1/2+x,1/2-y,-z
1/2-x,1/2+y,1/2-z
1/2-x,1/2-y,-z
1/2+x,1/2+y,1/2-z
1/2-x,1/2+y,z
1/2+x,1/2-y,1/2+z
loop_
_atom_site_type_symbol
_atom_site_label
_atom_site_fract_x
_atom_site_fract_y
_atom_site_fract_z
Si Si1 0.000000 0.447334 0.069222
Si Si2 0.741697 0.133950 0.428422
Si Si3 0.324897 0.548645 0.079185
Si Si4 0.842522 0.807548 0.427493
Si Si5 0.401527 0.122748 0.429212
Si Si6 0.568348 0.227135 0.428984
Si Si7 0.571353 0.617337 0.423174
O O1 0.000000 0.450781 0.250000
O O2 0.000000 0.500000 0.000000
O O3 0.062287 0.419481 0.013879
O O4 0.746176 0.140137 0.250000
O O5 0.780373 0.089141 0.490256
O O6 0.774710 0.181214 0.497035
O O7 0.670855 0.124997 0.480932
O O8 0.304838 0.540687 0.250000
O O9 0.397067 0.565465 0.062418
O O10 0.312086 0.500000 0.000000
O O11 0.831832 0.805239 0.250000
O O12 0.873240 0.758455 0.490983
O O13 0.893921 0.847121 0.465703
O O14 0.408858 0.114663 0.250000
O O15 0.429010 0.172942 0.482912
O O16 0.573049 0.228417 0.250000
O O17 0.500000 0.247467 0.481795
O O18 0.577804 0.635340 0.250000
O O19 0.500000 0.612257 0.475572
#
# Coordination Sequence:
#
# PCOD8257124 Si02
#       7
#     8  16  16  16  16  16  16
#     4  12  26  44  66  94 124 152 190 240 293 354
#     4   9  20  37  56  79 110 148 189 231 280 341
#     4   9  18  32  48  70  99 131 173 223 274 328
#     4  10  19  31  51  81 114 150 189 229 276 333
#     4  10  20  40  66  86 111 152 192 231 287 345
#     4   9  17  31  55  84 114 149 189 234 285 339
#     4   9  18  33  50  69 100 140 181 229 279 329
#
# _framework density 19.535554000000001
#
# number of rings (size 3 to 8) (size 9 to 14) (size 15 to 20)
#    0.000    2.462    0.769    2.538    0.000    5.538 
#    0.000    3.077    0.000    0.000    0.000    0.000 
#    0.000    0.000    0.000    0.000    0.000    0.000 
#
# Total GULP energy -644437.364194 kJ/mol
# GULP energy per Si atom -12393.026234 kJ/mol
# Density = 1.949109 g / cm^3
# Si number density = 19.535554 Si / 1000 Ang^3
#
#
#
# Elastic Constant Matrix: (Units=GPa)
#
#
# Indices 1 2 3 4 5 6 
#
# 1 159.0314 56.9541 34.7240 0.0000 0.0000 0.0000
# 2 56.9541 123.4146 35.9407 0.0000 0.0000 0.0000
# 3 34.7240 35.9407 51.6980 0.0000 0.0000 0.0000
# 4 0.0000 0.0000 0.0000 25.3216 0.0000 0.0000
# 5 0.0000 0.0000 0.0000 0.0000 27.8837 0.0000
# 6 0.0000 0.0000 0.0000 0.0000 0.0000 24.5918
#
#
#
# Elastic Compliance Matrix: (Units=1/GPa)
#
#
# Indices 1 2 3 4 5 6 
#
# 1 0.008015 -0.002672 -0.003526 0.000000 0.000000 0.000000
# 2 -0.002672 0.011050 -0.005888 0.000000 0.000000 0.000000
# 3 -0.003526 -0.005888 0.025804 0.000000 0.000000 0.000000
# 4 0.000000 0.000000 0.000000 0.039492 0.000000 0.000000
# 5 0.000000 0.000000 0.000000 0.000000 0.035863 0.000000
# 6 0.000000 0.000000 0.000000 0.000000 0.000000 0.040664
#
#
# Mechanical properties :
#
#
# Convention : Reuss Voigt Hill
#
# Bulk Modulus (GPa) = 48.31172 65.48684 56.89928
# Shear Modulus (GPa) = 26.04720 29.32776 27.68748
#
# Velocity S-wave (km/s) = 3.65543 3.87880 3.76877
# Velocity P-wave (km/s) = 6.52687 7.32494 6.93739
#
# Compressibility (1/GPa) = 0.02069891
#
# Stress axis : x y z
#
# Youngs Moduli (GPa) = 124.76904 90.49423 38.75314
#
# Poissons Ratio (x) = 0.24180 0.13663
# Poissons Ratio (y) = 0.33338 0.22816
# Poissons Ratio (z) = 0.43990 0.53280
#
# Static dielectric constant tensor:
#      x y z
#    x 3.871950 0.000000 0.000000 
#    y 0.000000 3.666250 0.000000 
#    z 0.000000 0.000000 3.325850 
# 
# 
# High freq. dielectric constant tensor:
#      x y z
#    x 1.772810 0.000000 0.000000 
#    y 0.000000 1.756750 0.000000 
#    z 0.000000 0.000000 1.732560 
# 
# From -- ./inp_files/8816.got.cif
#   From: 2010.03.12/outbox.cif.g09.slc.cpg/sg63_5_cif.got.tgz:8816.got - 2010.04.10 19:34:48.
