data_PCOD8257711
_publ_section_title
;
Structure prediction by ZEFSAII (Michael W. Deem and Ramdas Pophale) SiO2 
 PCOD8257711
Probable space group: C M C M
;
_chemical_formula_sum "Si O2"
_cell_formula_units_Z 80
_cell_length_a 8.647694
_cell_length_b 18.498017
_cell_length_c 26.073564
_cell_angle_alpha 90.000000
_cell_angle_beta 90.000000
_cell_angle_gamma 90.000000
_cell_volume 4170.862635
_symmetry_space_group_name_H-M "C M C M"
_symmetry_group_IT_number 63
_symmetry_cell_setting 'orthorhombic'
loop_
_space_group_symop_operation_xyz
x,y,z
-x,-y,1/2+z
x,-y,-z
-x,y,1/2-z
-x,-y,-z
x,y,1/2-z
-x,y,z
x,-y,1/2+z
1/2+x,1/2+y,z
1/2-x,1/2-y,1/2+z
1/2+x,1/2-y,-z
1/2-x,1/2+y,1/2-z
1/2-x,1/2-y,-z
1/2+x,1/2+y,1/2-z
1/2-x,1/2+y,z
1/2+x,1/2-y,1/2+z
loop_
_atom_site_type_symbol
_atom_site_label
_atom_site_fract_x
_atom_site_fract_y
_atom_site_fract_z
Si Si1 0.175253 0.059478 0.250000
Si Si2 0.180885 0.452121 0.451771
Si Si3 0.822036 0.957725 0.862867
Si Si4 0.315032 0.799613 0.640382
Si Si5 0.824153 0.293076 0.750000
Si Si6 0.318432 0.294879 0.453978
O O1 0.197471 0.015261 0.303319
O O2 0.305787 0.120454 0.250000
O O3 0.000000 0.092556 0.250000
O O4 0.235173 0.500000 0.500000
O O5 0.221572 0.490270 0.398383
O O6 0.267395 0.376904 0.455988
O O7 0.000000 0.437077 0.454117
O O8 0.766071 0.875776 0.870739
O O9 0.000000 0.962992 0.880011
O O10 0.500000 0.812020 0.640907
O O11 0.254272 0.766689 0.695412
O O12 0.261214 0.741755 0.598659
O O13 0.000000 0.269568 0.750000
O O14 0.500000 0.290804 0.458147
O O15 0.250000 0.250000 0.500000
#
# Coordination Sequence:
#
# PCOD8257711 Si02
#       6
#     8  16  16  16   8  16
#     4   8  16  30  49  78 111 139 171 213 259 306
#     4  11  24  40  56  76 105 140 179 224 271 318
#     4  10  19  33  56  83 110 141 177 217 261 312
#     4   9  18  33  54  80 108 138 173 213 257 307
#     4   8  14  28  51  76 103 137 173 207 249 304
#     4  11  23  38  56  79 107 139 176 218 267 322
#
# _framework density 19.180686000000001
#
# number of rings (size 3 to 8) (size 9 to 14) (size 15 to 20)
#    0.000    2.200    0.000    3.000    0.000    8.800 
#    0.000    1.000    0.000    3.600    0.000    0.000 
#    0.000    0.000    0.000    0.000    0.000    0.000 
#
# Total GULP energy -495692.769014 kJ/mol
# GULP energy per Si atom -12392.319225 kJ/mol
# Density = 1.913703 g / cm^3
# Si number density = 19.180686 Si / 1000 Ang^3
#
#
#
# Elastic Constant Matrix: (Units=GPa)
#
#
# Indices 1 2 3 4 5 6 
#
# 1 31.3886 13.0011 31.0955 0.0000 0.0000 0.0000
# 2 13.0011 94.3179 71.5444 0.0000 0.0000 0.0000
# 3 31.0955 71.5444 182.0527 0.0000 0.0000 0.0000
# 4 0.0000 0.0000 0.0000 32.3226 0.0000 0.0000
# 5 0.0000 0.0000 0.0000 0.0000 25.3726 0.0000
# 6 0.0000 0.0000 0.0000 0.0000 0.0000 28.3685
#
#
#
# Elastic Compliance Matrix: (Units=1/GPa)
#
#
# Indices 1 2 3 4 5 6 
#
# 1 0.038361 -0.000452 -0.006374 0.000000 0.000000 0.000000
# 2 -0.000452 0.015111 -0.005861 0.000000 0.000000 0.000000
# 3 -0.006374 -0.005861 0.008885 0.000000 0.000000 0.000000
# 4 0.000000 0.000000 0.000000 0.030938 0.000000 0.000000
# 5 0.000000 0.000000 0.000000 0.000000 0.039413 0.000000
# 6 0.000000 0.000000 0.000000 0.000000 0.000000 0.035250
#
#
# Mechanical properties :
#
#
# Convention : Reuss Voigt Hill
#
# Bulk Modulus (GPa) = 27.04108 59.89346 43.46727
# Shear Modulus (GPa) = 24.31191 30.02062 27.16626
#
# Velocity S-wave (km/s) = 3.56409 3.96049 3.76750
# Velocity P-wave (km/s) = 5.57366 7.22549 6.45265
#
# Compressibility (1/GPa) = 0.03698077
#
# Stress axis : x y z
#
# Youngs Moduli (GPa) = 26.06816 66.17842 112.54918
#
# Poissons Ratio (x) = 0.02995 0.71744
# Poissons Ratio (y) = 0.01180 0.65965
# Poissons Ratio (z) = 0.16617 0.38787
#
# Static dielectric constant tensor:
#      x y z
#    x 3.529040 0.000000 0.000000 
#    y 0.000000 3.205650 0.000000 
#    z 0.000000 0.000000 4.139840 
# 
# 
# High freq. dielectric constant tensor:
#      x y z
#    x 1.747160 0.000000 0.000000 
#    y 0.000000 1.711000 0.000000 
#    z 0.000000 0.000000 1.777040 
# 
# From -- ./inp_files/66665.got.cif
#   From: 2010.03.12/outbox.cif.g09.slc.cpg/sg63_34_cif.got.tgz:66665.got - 2010.04.10 19:34:48.
