data_PCOD8257147
_publ_section_title
;
Structure prediction by ZEFSAII (Michael W. Deem and Ramdas Pophale) SiO2 
 PCOD8257147
Probable space group: C M C M
;
_chemical_formula_sum "Si O2"
_cell_formula_units_Z 96
_cell_length_a 20.406282
_cell_length_b 28.743512
_cell_length_c 8.660604
_cell_angle_alpha 90.000000
_cell_angle_beta 90.000000
_cell_angle_gamma 90.000000
_cell_volume 5079.861787
_symmetry_space_group_name_H-M "C M C M"
_symmetry_group_IT_number 63
_symmetry_cell_setting 'orthorhombic'
loop_
_space_group_symop_operation_xyz
x,y,z
-x,-y,1/2+z
x,-y,-z
-x,y,1/2-z
-x,-y,-z
x,y,1/2-z
-x,y,z
x,-y,1/2+z
1/2+x,1/2+y,z
1/2-x,1/2-y,1/2+z
1/2+x,1/2-y,-z
1/2-x,1/2+y,1/2-z
1/2-x,1/2-y,-z
1/2+x,1/2+y,1/2-z
1/2-x,1/2+y,z
1/2+x,1/2-y,1/2+z
loop_
_atom_site_type_symbol
_atom_site_label
_atom_site_fract_x
_atom_site_fract_y
_atom_site_fract_z
Si Si1 0.575175 0.373333 0.068973
Si Si2 0.698748 0.095893 0.929226
Si Si3 0.069861 0.449927 0.069210
Si Si4 0.667416 0.710826 0.572779
Si Si5 0.700112 0.810328 0.576815
Si Si6 0.328509 0.551728 0.067843
O O1 0.579765 0.383210 0.250000
O O2 0.500000 0.371905 0.012374
O O3 0.607087 0.322993 0.028864
O O4 0.611554 0.415786 0.985030
O O5 0.709457 0.084735 0.750000
O O6 0.633019 0.074495 0.003250
O O7 0.685706 0.150434 0.951316
O O8 0.761065 0.076151 0.018604
O O9 0.080951 0.453605 0.250000
O O10 0.000000 0.424089 0.033405
O O11 0.065424 0.500000 0.000000
O O12 0.689907 0.700373 0.750000
O O13 0.650796 0.766065 0.557663
O O14 0.724608 0.703555 0.449752
O O15 0.694037 0.830455 0.750000
O O16 0.329892 0.547078 0.250000
O O17 0.335238 0.500000 0.000000
#
# Coordination Sequence:
#
# PCOD8257147 Si02
#       6
#    16  16  16  16  16  16
#     4  10  21  39  62  85 113 151 193 239 292 346
#     4  11  21  35  56  83 115 150 186 233 284 333
#     4   9  19  35  54  76 104 141 183 224 272 330
#     4   9  18  34  55  80 111 145 182 224 274 330
#     4  10  19  31  53  84 113 144 182 226 272 326
#     4  12  25  40  59  84 114 148 191 242 291 345
#
# _framework density 18.898150999999999
#
# number of rings (size 3 to 8) (size 9 to 14) (size 15 to 20)
#    0.000    1.833    1.667    3.000    0.000    4.000 
#    0.000    0.833    0.000    1.000    0.000    0.000 
#    0.000    0.000    0.000    0.000    0.000    0.000 
#
# Total GULP energy -594780.749938 kJ/mol
# GULP energy per Si atom -12391.265624 kJ/mol
# Density = 1.885514 g / cm^3
# Si number density = 18.898151 Si / 1000 Ang^3
#
#
#
# Elastic Constant Matrix: (Units=GPa)
#
#
# Indices 1 2 3 4 5 6 
#
# 1 139.0795 73.8445 36.8549 0.0000 0.0000 0.0000
# 2 73.8445 132.2785 36.1224 0.0000 0.0000 0.0000
# 3 36.8549 36.1224 60.9896 0.0000 0.0000 0.0000
# 4 0.0000 0.0000 0.0000 26.9503 0.0000 0.0000
# 5 0.0000 0.0000 0.0000 0.0000 -19.4510 0.0000
# 6 0.0000 0.0000 0.0000 0.0000 0.0000 28.3354
#
#
#
# Elastic Compliance Matrix: (Units=1/GPa)
#
#
# Indices 1 2 3 4 5 6 
#
# 1 0.010822 -0.005076 -0.003533 0.000000 0.000000 0.000000
# 2 -0.005076 0.011400 -0.003684 0.000000 0.000000 0.000000
# 3 -0.003533 -0.003684 0.020713 0.000000 0.000000 0.000000
# 4 0.000000 0.000000 0.000000 0.037105 0.000000 0.000000
# 5 0.000000 0.000000 0.000000 0.000000 -0.051411 0.000000
# 6 0.000000 0.000000 0.000000 0.000000 0.000000 0.035292
#
#
# Mechanical properties :
#
#
# Convention : Reuss Voigt Hill
#
# Bulk Modulus (GPa) = 54.50235 69.55459 62.02847
# Shear Modulus (GPa) = 52.84155 19.53534 36.18845
#
# Velocity S-wave (km/s) = 5.29357 3.21863 4.38073
# Velocity P-wave (km/s) = 8.14035 7.12023 7.64732
#
# Compressibility (1/GPa) = 0.01834783
#
# Stress axis : x y z
#
# Youngs Moduli (GPa) = 92.40761 87.72066 48.27886
#
# Poissons Ratio (x) = 0.44531 0.17055
# Poissons Ratio (y) = 0.46911 0.17787
# Poissons Ratio (z) = 0.32644 0.32318
#
# Static dielectric constant tensor:
#      x y z
#    x 3.808030 0.000000 0.000000 
#    y 0.000000 3.723670 0.000000 
#    z 0.000000 0.000000 3.413540 
# 
# 
# High freq. dielectric constant tensor:
#      x y z
#    x 1.722170 0.000000 0.000000 
#    y 0.000000 1.740090 0.000000 
#    z 0.000000 0.000000 1.734430 
# 
# From -- ./inp_files/8589.got.cif
#   From: 2010.03.12/outbox.cif.g09.slc.cpg/sg63_5_cif.got.tgz:8589.got - 2010.04.10 19:34:48.
