data_PCOD8257720
_publ_section_title
;
Structure prediction by ZEFSAII (Michael W. Deem and Ramdas Pophale) SiO2 
 PCOD8257720
Probable space group: C M C M
;
_chemical_formula_sum "Si O2"
_cell_formula_units_Z 96
_cell_length_a 18.512538
_cell_length_b 28.502701
_cell_length_c 9.218371
_cell_angle_alpha 90.000000
_cell_angle_beta 90.000000
_cell_angle_gamma 90.000000
_cell_volume 4864.141078
_symmetry_space_group_name_H-M "C M C M"
_symmetry_group_IT_number 63
_symmetry_cell_setting 'orthorhombic'
loop_
_space_group_symop_operation_xyz
x,y,z
-x,-y,1/2+z
x,-y,-z
-x,y,1/2-z
-x,-y,-z
x,y,1/2-z
-x,y,z
x,-y,1/2+z
1/2+x,1/2+y,z
1/2-x,1/2-y,1/2+z
1/2+x,1/2-y,-z
1/2-x,1/2+y,1/2-z
1/2-x,1/2-y,-z
1/2+x,1/2+y,1/2-z
1/2-x,1/2+y,z
1/2+x,1/2-y,1/2+z
loop_
_atom_site_type_symbol
_atom_site_label
_atom_site_fract_x
_atom_site_fract_y
_atom_site_fract_z
Si Si1 0.378717 0.959028 0.090076
Si Si2 0.078876 0.359163 0.091551
Si Si3 0.824410 0.299988 0.917746
Si Si4 0.184474 0.857171 0.582263
Si Si5 0.082367 0.223573 0.082031
Si Si6 0.785394 0.047876 0.922985
O O1 0.371594 0.979271 0.250000
O O2 0.430429 0.914697 0.079634
O O3 0.298387 0.946468 0.034734
O O4 0.415924 0.000000 0.000000
O O5 0.114474 0.346928 0.250000
O O6 0.000000 0.335614 0.084640
O O7 0.123815 0.343423 0.953330
O O8 0.825912 0.286429 0.750000
O O9 0.745509 0.318717 0.966899
O O10 0.857615 0.256569 0.006554
O O11 0.198630 0.871138 0.750000
O O12 0.108184 0.830262 0.562509
O O13 0.179015 0.904511 0.487021
O O14 0.082885 0.237953 0.250000
O O15 0.000000 0.228345 0.019979
O O16 0.799970 0.045519 0.750000
O O17 0.815657 0.000000 0.000000
#
# Coordination Sequence:
#
# PCOD8257720 Si02
#       6
#    16  16  16  16  16  16
#     4   9  18  31  47  69  97 133 176 221 268 318
#     4  10  20  34  50  69 100 143 186 225 268 322
#     4  11  22  35  54  81 111 142 181 229 273 320
#     4  10  21  37  58  85 113 144 185 229 274 326
#     4  10  22  40  60  81 110 148 185 225 277 334
#     4  10  19  33  56  84 114 146 181 227 278 327
#
# _framework density 19.736270999999999
#
# number of rings (size 3 to 8) (size 9 to 14) (size 15 to 20)
#    0.000    2.000    1.667    2.000    0.000    5.667 
#    0.000    0.000    0.000    0.500    0.000    0.000 
#    0.000    0.000    0.000    0.000    0.000    0.000 
#
# Total GULP energy -594651.191181 kJ/mol
# GULP energy per Si atom -12388.566483 kJ/mol
# Density = 1.969135 g / cm^3
# Si number density = 19.736271 Si / 1000 Ang^3
#
#
#
# Elastic Constant Matrix: (Units=GPa)
#
#
# Indices 1 2 3 4 5 6 
#
# 1 53.4101 45.8482 25.2432 0.0000 0.0000 0.0000
# 2 45.8482 119.4716 55.0796 0.0000 0.0000 0.0000
# 3 25.2432 55.0796 71.2333 0.0000 0.0000 0.0000
# 4 0.0000 0.0000 0.0000 40.0679 0.0000 0.0000
# 5 0.0000 0.0000 0.0000 0.0000 17.2840 0.0000
# 6 0.0000 0.0000 0.0000 0.0000 0.0000 -53.1157
#
#
#
# Elastic Compliance Matrix: (Units=1/GPa)
#
#
# Indices 1 2 3 4 5 6 
#
# 1 0.028211 -0.009661 -0.002527 0.000000 0.000000 0.000000
# 2 -0.009661 0.016315 -0.009192 0.000000 0.000000 0.000000
# 3 -0.002527 -0.009192 0.022041 0.000000 0.000000 0.000000
# 4 0.000000 0.000000 0.000000 0.024958 0.000000 0.000000
# 5 0.000000 0.000000 0.000000 0.000000 0.057857 0.000000
# 6 0.000000 0.000000 0.000000 0.000000 0.000000 -0.018827
#
#
# Mechanical properties :
#
#
# Convention : Reuss Voigt Hill
#
# Bulk Modulus (GPa) = 42.00348 55.16189 48.58268
# Shear Modulus (GPa) = 27.58609 8.71016 18.14813
#
# Velocity S-wave (km/s) = 3.74269 2.10306 3.03567
# Velocity P-wave (km/s) = 6.32499 5.82300 6.07918
#
# Compressibility (1/GPa) = 0.02380755
#
# Stress axis : x y z
#
# Youngs Moduli (GPa) = 35.44766 61.29172 45.36942
#
# Poissons Ratio (x) = 0.59215 0.11464
# Poissons Ratio (y) = 0.34246 0.41703
# Poissons Ratio (z) = 0.08957 0.56339
#
# Static dielectric constant tensor:
#      x y z
#    x 3.426090 0.000000 0.000000 
#    y 0.000000 3.645740 0.000000 
#    z 0.000000 0.000000 3.552980 
# 
# 
# High freq. dielectric constant tensor:
#      x y z
#    x 1.741020 0.000000 0.000000 
#    y 0.000000 1.776660 0.000000 
#    z 0.000000 0.000000 1.761690 
# 
# From -- ./inp_files/8620.got.cif
#   From: 2010.03.12/outbox.cif.g09.slc.cpg/sg63_5_cif.got.tgz:8620.got - 2010.04.10 19:34:48.
