data_PCOD8257239
_publ_section_title
;
Structure prediction by ZEFSAII (Michael W. Deem and Ramdas Pophale) SiO2 
 PCOD8257239
Probable space group: C M C M
;
_chemical_formula_sum "Si O2"
_cell_formula_units_Z 96
_cell_length_a 9.748647
_cell_length_b 24.660022
_cell_length_c 21.303490
_cell_angle_alpha 90.000000
_cell_angle_beta 90.000000
_cell_angle_gamma 90.000000
_cell_volume 5121.398397
_symmetry_space_group_name_H-M "C M C M"
_symmetry_group_IT_number 63
_symmetry_cell_setting 'orthorhombic'
loop_
_space_group_symop_operation_xyz
x,y,z
-x,-y,1/2+z
x,-y,-z
-x,y,1/2-z
-x,-y,-z
x,y,1/2-z
-x,y,z
x,-y,1/2+z
1/2+x,1/2+y,z
1/2-x,1/2-y,1/2+z
1/2+x,1/2-y,-z
1/2-x,1/2+y,1/2-z
1/2-x,1/2-y,-z
1/2+x,1/2+y,1/2-z
1/2-x,1/2+y,z
1/2+x,1/2-y,1/2+z
loop_
_atom_site_type_symbol
_atom_site_label
_atom_site_fract_x
_atom_site_fract_y
_atom_site_fract_z
Si Si1 0.840600 0.313779 0.681654
Si Si2 0.348286 0.376123 0.400162
Si Si3 0.655201 0.047238 0.822119
Si Si4 0.841876 0.570486 0.364219
Si Si5 0.163232 0.755963 0.435709
Si Si6 0.346822 0.442603 0.976379
O O1 0.779840 0.293901 0.750000
O O2 0.816308 0.378587 0.681055
O O3 0.780908 0.285518 0.618456
O O4 0.000000 0.299509 0.681219
O O5 0.500000 0.381659 0.370278
O O6 0.244483 0.409413 0.358253
O O7 0.304654 0.313877 0.404747
O O8 0.348800 0.398593 0.469877
O O9 0.666610 0.062324 0.750000
O O10 0.500000 0.052703 0.846589
O O11 0.706523 0.985431 0.831702
O O12 0.753003 0.581755 0.425223
O O13 0.000000 0.567236 0.384461
O O14 0.250000 0.750000 0.500000
O O15 0.000000 0.748633 0.450503
O O16 0.500000 0.451717 0.948745
O O17 0.287201 0.500000 0.000000
#
# Coordination Sequence:
#
# PCOD8257239 Si02
#       6
#    16  16  16  16  16  16
#     4   9  18  34  56  81 108 141 183 229 276 326
#     4  10  21  36  53  77 106 139 177 215 261 318
#     4  10  21  35  51  75 106 138 172 214 264 314
#     4  10  19  32  54  80 105 135 175 221 266 318
#     4  10  21  37  59  84 110 142 182 229 277 324
#     4  10  19  32  50  73 107 143 171 208 263 322
#
# _framework density 18.744879999999998
#
# number of rings (size 3 to 8) (size 9 to 14) (size 15 to 20)
#    0.000    2.167    1.667    1.500    0.000    4.667 
#    0.000    1.667    0.000    3.000    0.000    0.000 
#    0.000    0.000    0.000    0.000    0.000    0.000 
#
# Total GULP energy -594933.626602 kJ/mol
# GULP energy per Si atom -12394.450554 kJ/mol
# Density = 1.870222 g / cm^3
# Si number density = 18.744880 Si / 1000 Ang^3
#
#
#
# Elastic Constant Matrix: (Units=GPa)
#
#
# Indices 1 2 3 4 5 6 
#
# 1 59.4759 45.1508 51.6754 0.0000 0.0000 0.0000
# 2 45.1508 114.4088 52.3601 0.0000 0.0000 0.0000
# 3 51.6754 52.3601 121.0655 0.0000 0.0000 0.0000
# 4 0.0000 0.0000 0.0000 21.8962 0.0000 0.0000
# 5 0.0000 0.0000 0.0000 0.0000 89.3590 0.0000
# 6 0.0000 0.0000 0.0000 0.0000 0.0000 53.6295
#
#
#
# Elastic Compliance Matrix: (Units=1/GPa)
#
#
# Indices 1 2 3 4 5 6 
#
# 1 0.031493 -0.007825 -0.010058 0.000000 0.000000 0.000000
# 2 -0.007825 0.012842 -0.002214 0.000000 0.000000 0.000000
# 3 -0.010058 -0.002214 0.013511 0.000000 0.000000 0.000000
# 4 0.000000 0.000000 0.000000 0.045670 0.000000 0.000000
# 5 0.000000 0.000000 0.000000 0.000000 0.011191 0.000000
# 6 0.000000 0.000000 0.000000 0.000000 0.000000 0.018646
#
#
# Mechanical properties :
#
#
# Convention : Reuss Voigt Hill
#
# Bulk Modulus (GPa) = 56.65384 65.92477 61.28930
# Shear Modulus (GPa) = 27.86580 42.69453 35.28017
#
# Velocity S-wave (km/s) = 3.85980 4.77767 4.34305
# Velocity P-wave (km/s) = 7.08190 8.10436 7.61032
#
# Compressibility (1/GPa) = 0.01765106
#
# Stress axis : x y z
#
# Youngs Moduli (GPa) = 31.75305 77.86905 74.01573
#
# Poissons Ratio (x) = 0.60936 0.74445
# Poissons Ratio (y) = 0.24848 0.16387
# Poissons Ratio (z) = 0.31937 0.17240
#
# Static dielectric constant tensor:
#      x y z
#    x 3.365770 0.000000 0.000000 
#    y 0.000000 3.536210 0.000000 
#    z 0.000000 0.000000 3.448490 
# 
# 
# High freq. dielectric constant tensor:
#      x y z
#    x 1.703000 0.000000 0.000000 
#    y 0.000000 1.738130 0.000000 
#    z 0.000000 0.000000 1.727220 
# 
# From -- ./inp_files/51276.got.cif
#   From: 2010.03.12/outbox.cif.g09.slc.cpg/sg63_26_cif.got.tgz:51276.got - 2010.04.10 19:34:48.
