data_PCOD8257938
_publ_section_title
;
Structure prediction by ZEFSAII (Michael W. Deem and Ramdas Pophale) SiO2 
 PCOD8257938
Probable space group: C M C M
;
_chemical_formula_sum "Si O2"
_cell_formula_units_Z 64
_cell_length_a 5.306021
_cell_length_b 19.286739
_cell_length_c 29.349202
_cell_angle_alpha 90.000000
_cell_angle_beta 90.000000
_cell_angle_gamma 90.000000
_cell_volume 3003.475303
_symmetry_space_group_name_H-M "C M C M"
_symmetry_group_IT_number 63
_symmetry_cell_setting 'orthorhombic'
loop_
_space_group_symop_operation_xyz
x,y,z
-x,-y,1/2+z
x,-y,-z
-x,y,1/2-z
-x,-y,-z
x,y,1/2-z
-x,y,z
x,-y,1/2+z
1/2+x,1/2+y,z
1/2-x,1/2-y,1/2+z
1/2+x,1/2-y,-z
1/2-x,1/2+y,1/2-z
1/2-x,1/2-y,-z
1/2+x,1/2+y,1/2-z
1/2-x,1/2+y,z
1/2+x,1/2-y,1/2+z
loop_
_atom_site_type_symbol
_atom_site_label
_atom_site_fract_x
_atom_site_fract_y
_atom_site_fract_z
Si Si1 0.500000 0.799166 0.887383
Si Si2 0.000000 0.897235 0.964891
Si Si3 0.000000 0.597870 0.896009
Si Si4 0.000000 0.447284 0.565233
Si Si5 0.500000 0.946859 0.300840
Si Si6 0.000000 0.963785 0.800420
Si Si7 0.000000 0.835132 0.634318
Si Si8 0.500000 0.663145 0.938244
O O1 0.500000 0.879042 0.903399
O O2 0.749544 0.789410 0.855906
O O3 0.500000 0.745454 0.929082
O O4 0.248961 0.946039 0.966219
O O5 0.000000 0.849855 0.920002
O O6 0.000000 0.846052 0.007736
O O7 0.000000 0.515170 0.903727
O O8 0.749561 0.630229 0.916903
O O9 0.000000 0.610315 0.841136
O O10 0.500000 0.912809 0.250000
O O11 0.750704 0.991654 0.307422
O O12 0.000000 0.930212 0.750000
O O13 0.000000 0.905117 0.837954
#
# Coordination Sequence:
#
# PCOD8257938 Si02
#       8
#     8   8   8   8   8   8   8   8
#     4  10  22  39  59  82 113 157 196 236 285 341
#     4  10  21  36  57  85 117 156 198 240 288 344
#     4  12  24  40  60  87 120 152 193 249 298 345
#     4  10  21  37  60  83 112 150 194 243 296 340
#     4  10  20  36  60  87 116 151 192 237 291 354
#     4  10  19  34  61  95 120 143 187 248 301 345
#     4  10  19  35  60  83 116 152 192 241 293 345
#     4  12  26  39  57  85 122 161 202 239 282 344
#
# _framework density 21.308647000000001
#
# number of rings (size 3 to 8) (size 9 to 14) (size 15 to 20)
#    0.000    1.500    0.000    6.750    0.000    7.000 
#    0.000    0.000    0.000    4.500    0.000    0.000 
#    0.000    0.000    0.000    0.000    0.000    0.000 
#
# Total GULP energy -396608.466194 kJ/mol
# GULP energy per Si atom -12394.014569 kJ/mol
# Density = 2.126015 g / cm^3
# Si number density = 21.308647 Si / 1000 Ang^3
#
#
#
# Elastic Constant Matrix: (Units=GPa)
#
#
# Indices 1 2 3 4 5 6 
#
# 1 224.0765 16.4272 28.6081 0.0000 0.0000 0.0000
# 2 16.4272 67.8096 10.4813 0.0000 0.0000 0.0000
# 3 28.6081 10.4813 92.7710 0.0000 0.0000 0.0000
# 4 0.0000 0.0000 0.0000 16.8943 0.0000 0.0000
# 5 0.0000 0.0000 0.0000 0.0000 25.3082 0.0000
# 6 0.0000 0.0000 0.0000 0.0000 0.0000 25.4029
#
#
#
# Elastic Compliance Matrix: (Units=1/GPa)
#
#
# Indices 1 2 3 4 5 6 
#
# 1 0.004703 -0.000931 -0.001345 0.000000 0.000000 0.000000
# 2 -0.000931 0.015194 -0.001429 0.000000 0.000000 0.000000
# 3 -0.001345 -0.001429 0.011355 0.000000 0.000000 0.000000
# 4 0.000000 0.000000 0.000000 0.059191 0.000000 0.000000
# 5 0.000000 0.000000 0.000000 0.000000 0.039513 0.000000
# 6 0.000000 0.000000 0.000000 0.000000 0.000000 0.039366
#
#
# Mechanical properties :
#
#
# Convention : Reuss Voigt Hill
#
# Bulk Modulus (GPa) = 41.94540 55.07668 48.51104
# Shear Modulus (GPa) = 27.07383 35.46380 31.26881
#
# Velocity S-wave (km/s) = 3.56835 4.08400 3.83485
# Velocity P-wave (km/s) = 6.05846 6.93844 6.51333
#
# Compressibility (1/GPa) = 0.02384052
#
# Stress axis : x y z
#
# Youngs Moduli (GPa) = 212.64132 65.81653 88.06328
#
# Poissons Ratio (x) = 0.06130 0.11844
# Poissons Ratio (y) = 0.19805 0.12588
# Poissons Ratio (z) = 0.28600 0.09408
#
# Static dielectric constant tensor:
#      x y z
#    x 5.996450 0.000000 0.000000 
#    y 0.000000 3.483540 0.000000 
#    z 0.000000 0.000000 3.880320 
# 
# 
# High freq. dielectric constant tensor:
#      x y z
#    x 1.884640 0.000000 0.000000 
#    y 0.000000 1.800470 0.000000 
#    z 0.000000 0.000000 1.818510 
# 
# From -- ./inp_files/71208.got.cif
#   From: 2010.03.12/outbox.cif.g09.slc.cpg/sg63_36_cif.got.tgz:71208.got - 2010.04.10 19:34:48.
