data_PCOD8257996
_publ_section_title
;
Structure prediction by ZEFSAII (Michael W. Deem and Ramdas Pophale) SiO2 
 PCOD8257996
Probable space group: C M C M
;
_chemical_formula_sum "Si O2"
_cell_formula_units_Z 96
_cell_length_a 12.197478
_cell_length_b 22.801179
_cell_length_c 19.138126
_cell_angle_alpha 90.000000
_cell_angle_beta 90.000000
_cell_angle_gamma 90.000000
_cell_volume 5322.635877
_symmetry_space_group_name_H-M "C M C M"
_symmetry_group_IT_number 63
_symmetry_cell_setting 'orthorhombic'
loop_
_space_group_symop_operation_xyz
x,y,z
-x,-y,1/2+z
x,-y,-z
-x,y,1/2-z
-x,-y,-z
x,y,1/2-z
-x,y,z
x,-y,1/2+z
1/2+x,1/2+y,z
1/2-x,1/2-y,1/2+z
1/2+x,1/2-y,-z
1/2-x,1/2+y,1/2-z
1/2-x,1/2-y,-z
1/2+x,1/2+y,1/2-z
1/2-x,1/2+y,z
1/2+x,1/2-y,1/2+z
loop_
_atom_site_type_symbol
_atom_site_label
_atom_site_fract_x
_atom_site_fract_y
_atom_site_fract_z
Si Si1 0.875346 0.060687 0.539773
Si Si2 0.261391 0.034236 0.829742
Si Si3 0.128352 0.652409 0.674788
Si Si4 0.871147 0.589276 0.331374
Si Si5 0.873764 0.731364 0.944508
Si Si6 0.745614 0.342605 0.949792
O O1 0.840568 0.047374 0.619420
O O2 0.793423 0.106049 0.501752
O O3 0.000000 0.085086 0.539870
O O4 0.868382 0.000000 0.500000
O O5 0.217080 0.032897 0.750000
O O6 0.350436 0.084667 0.842695
O O7 0.324327 0.974742 0.848315
O O8 0.180774 0.668124 0.750000
O O9 0.183731 0.695526 0.618738
O O10 0.000000 0.662634 0.676936
O O11 0.852829 0.605847 0.250000
O O12 0.803073 0.633695 0.379863
O O13 0.000000 0.591206 0.350373
O O14 0.857859 0.801028 0.931804
O O15 0.000000 0.716957 0.946077
O O16 0.827806 0.704484 0.016002
#
# Coordination Sequence:
#
# PCOD8257996 Si02
#       6
#    16  16  16  16  16  16
#     4  11  22  37  56  80 111 146 185 229 276 324
#     4  10  19  35  57  83 113 144 179 219 272 329
#     4   9  17  31  53  81 111 140 172 215 268 322
#     4  10  21  37  58  84 113 142 176 224 278 330
#     4  10  21  35  55  80 107 142 185 229 269 317
#     4  11  21  37  56  80 108 146 184 226 277 328
#
# _framework density 18.036176999999999
#
# number of rings (size 3 to 8) (size 9 to 14) (size 15 to 20)
#    0.000    1.833    3.333    1.500    0.000    3.000 
#    0.000    0.833    0.000    1.500    0.000    0.000 
#    0.000    0.000    0.000    0.000    0.000    0.000 
#
# Total GULP energy -594904.761353 kJ/mol
# GULP energy per Si atom -12393.849195 kJ/mol
# Density = 1.799513 g / cm^3
# Si number density = 18.036177 Si / 1000 Ang^3
#
#
#
# Elastic Constant Matrix: (Units=GPa)
#
#
# Indices 1 2 3 4 5 6 
#
# 1 63.5191 23.8053 35.1128 0.0000 0.0000 0.0000
# 2 23.8053 99.7413 48.2043 0.0000 0.0000 0.0000
# 3 35.1128 48.2043 104.4345 0.0000 0.0000 0.0000
# 4 0.0000 0.0000 0.0000 30.6477 0.0000 0.0000
# 5 0.0000 0.0000 0.0000 0.0000 24.2592 0.0000
# 6 0.0000 0.0000 0.0000 0.0000 0.0000 24.0227
#
#
#
# Elastic Compliance Matrix: (Units=1/GPa)
#
#
# Indices 1 2 3 4 5 6 
#
# 1 0.019620 -0.001924 -0.005709 0.000000 0.000000 0.000000
# 2 -0.001924 0.013093 -0.005397 0.000000 0.000000 0.000000
# 3 -0.005709 -0.005397 0.013986 0.000000 0.000000 0.000000
# 4 0.000000 0.000000 0.000000 0.032629 0.000000 0.000000
# 5 0.000000 0.000000 0.000000 0.000000 0.041222 0.000000
# 6 0.000000 0.000000 0.000000 0.000000 0.000000 0.041627
#
#
# Mechanical properties :
#
#
# Convention : Reuss Voigt Hill
#
# Bulk Modulus (GPa) = 48.44790 53.54884 50.99837
# Shear Modulus (GPa) = 25.62589 26.49074 26.05832
#
# Velocity S-wave (km/s) = 3.77345 3.83659 3.80515
# Velocity P-wave (km/s) = 6.77532 7.02710 6.90236
#
# Compressibility (1/GPa) = 0.02064073
#
# Stress axis : x y z
#
# Youngs Moduli (GPa) = 50.96851 76.37510 71.50154
#
# Poissons Ratio (x) = 0.14693 0.40818
# Poissons Ratio (y) = 0.09805 0.38587
# Poissons Ratio (z) = 0.29096 0.41217
#
# Static dielectric constant tensor:
#      x y z
#    x 3.211250 0.000000 0.000000 
#    y 0.000000 3.451020 0.000000 
#    z 0.000000 0.000000 3.703500 
# 
# 
# High freq. dielectric constant tensor:
#      x y z
#    x 1.682350 0.000000 0.000000 
#    y 0.000000 1.704480 0.000000 
#    z 0.000000 0.000000 1.706450 
# 
# From -- ./inp_files/42495.got.cif
#   From: 2010.03.12/outbox.cif.g09.slc.cpg/sg63_22_cif.got.tgz:42495.got - 2010.04.10 19:34:48.
