data_PCOD8257434
_publ_section_title
;
Structure prediction by ZEFSAII (Michael W. Deem and Ramdas Pophale) SiO2 
 PCOD8257434
Probable space group: C M C M
;
_chemical_formula_sum "Si O2"
_cell_formula_units_Z 64
_cell_length_a 24.409332
_cell_length_b 8.911050
_cell_length_c 14.761062
_cell_angle_alpha 90.000000
_cell_angle_beta 90.000000
_cell_angle_gamma 90.000000
_cell_volume 3210.719601
_symmetry_space_group_name_H-M "C M C M"
_symmetry_group_IT_number 63
_symmetry_cell_setting 'orthorhombic'
loop_
_space_group_symop_operation_xyz
x,y,z
-x,-y,1/2+z
x,-y,-z
-x,y,1/2-z
-x,-y,-z
x,y,1/2-z
-x,y,z
x,-y,1/2+z
1/2+x,1/2+y,z
1/2-x,1/2-y,1/2+z
1/2+x,1/2-y,-z
1/2-x,1/2+y,1/2-z
1/2-x,1/2-y,-z
1/2+x,1/2+y,1/2-z
1/2-x,1/2+y,z
1/2+x,1/2-y,1/2+z
loop_
_atom_site_type_symbol
_atom_site_label
_atom_site_fract_x
_atom_site_fract_y
_atom_site_fract_z
Si Si1 0.500000 0.800182 0.348334
Si Si2 0.896816 0.800756 0.144449
Si Si3 0.808402 0.175132 0.998894
Si Si4 0.106253 0.848284 0.854388
Si Si5 0.000000 0.606265 0.090179
O O1 0.500000 0.721030 0.250000
O O2 0.445240 0.741798 0.397663
O O3 0.500000 0.979407 0.332691
O O4 0.889188 0.757510 0.250000
O O5 0.841224 0.764910 0.089420
O O6 0.946772 0.710004 0.100060
O O7 0.907890 0.977253 0.132482
O O8 0.750000 0.250000 0.000000
O O9 0.841777 0.211971 0.090249
O O10 0.798081 0.000000 0.000000
O O11 0.117651 0.807179 0.750000
O O12 0.000000 0.500000 0.000000
#
# Coordination Sequence:
#
# PCOD8257434 Si02
#       5
#     8  16  16  16   8
#     4  10  19  32  53  84 113 136 172 228 283 332
#     4  10  21  39  60  82 113 157 197 232 285 359
#     4  10  22  38  56  80 110 146 193 242 285 337
#     4   9  19  37  60  83 112 151 193 234 285 350
#     4  12  23  34  54  86 121 150 185 236 295 348
#
# _framework density 19.933226999999999
#
# number of rings (size 3 to 8) (size 9 to 14) (size 15 to 20)
#    0.000    2.000    0.000    3.375    0.000    6.000 
#    0.000    5.000    0.000    0.000    0.000    0.000 
#    0.000    0.000    0.000    0.000    0.000    0.000 
#
# Total GULP energy -396579.678141 kJ/mol
# GULP energy per Si atom -12393.114942 kJ/mol
# Density = 1.988786 g / cm^3
# Si number density = 19.933227 Si / 1000 Ang^3
#
#
#
# Elastic Constant Matrix: (Units=GPa)
#
#
# Indices 1 2 3 4 5 6 
#
# 1 211.6931 77.7265 81.5880 0.0000 0.0000 0.0000
# 2 77.7265 68.4423 42.1221 0.0000 0.0000 0.0000
# 3 81.5880 42.1221 137.8526 0.0000 0.0000 0.0000
# 4 0.0000 0.0000 0.0000 27.0048 0.0000 0.0000
# 5 0.0000 0.0000 0.0000 0.0000 22.3675 0.0000
# 6 0.0000 0.0000 0.0000 0.0000 0.0000 44.4896
#
#
#
# Elastic Compliance Matrix: (Units=1/GPa)
#
#
# Indices 1 2 3 4 5 6 
#
# 1 0.008830 -0.008389 -0.002663 0.000000 0.000000 0.000000
# 2 -0.008389 0.025965 -0.002969 0.000000 0.000000 0.000000
# 3 -0.002663 -0.002969 0.009737 0.000000 0.000000 0.000000
# 4 0.000000 0.000000 0.000000 0.037030 0.000000 0.000000
# 5 0.000000 0.000000 0.000000 0.000000 0.044708 0.000000
# 6 0.000000 0.000000 0.000000 0.000000 0.000000 0.022477
#
#
# Mechanical properties :
#
#
# Convention : Reuss Voigt Hill
#
# Bulk Modulus (GPa) = 60.63858 91.20680 75.92269
# Shear Modulus (GPa) = 27.42925 33.20913 30.31919
#
# Velocity S-wave (km/s) = 3.71355 4.08612 3.90428
# Velocity P-wave (km/s) = 6.99101 8.25332 7.64825
#
# Compressibility (1/GPa) = 0.01649115
#
# Stress axis : x y z
#
# Youngs Moduli (GPa) = 113.24502 38.51286 102.69893
#
# Poissons Ratio (x) = 0.32310 0.27347
# Poissons Ratio (y) = 0.95006 0.30488
# Poissons Ratio (z) = 0.30155 0.11433
#
# Static dielectric constant tensor:
#      x y z
#    x 3.760440 0.000000 0.000000 
#    y 0.000000 3.766730 0.000000 
#    z 0.000000 0.000000 4.016970 
# 
# 
# High freq. dielectric constant tensor:
#      x y z
#    x 1.772890 0.000000 0.000000 
#    y 0.000000 1.774190 0.000000 
#    z 0.000000 0.000000 1.793980 
# 
# From -- ./inp_files/36225.got.cif
#   From: 2010.03.12/outbox.cif.g09.slc.cpg/sg63_19_cif.got.tgz:36225.got - 2010.04.10 19:34:48.
