data_PCOD8257822
_publ_section_title
;
Structure prediction by ZEFSAII (Michael W. Deem and Ramdas Pophale) SiO2 
 PCOD8257822
Probable space group: C M C M
;
_chemical_formula_sum "Si O2"
_cell_formula_units_Z 104
_cell_length_a 26.159882
_cell_length_b 22.069401
_cell_length_c 9.512058
_cell_angle_alpha 90.000000
_cell_angle_beta 90.000000
_cell_angle_gamma 90.000000
_cell_volume 5491.624277
_symmetry_space_group_name_H-M "C M C M"
_symmetry_group_IT_number 63
_symmetry_cell_setting 'orthorhombic'
loop_
_space_group_symop_operation_xyz
x,y,z
-x,-y,1/2+z
x,-y,-z
-x,y,1/2-z
-x,-y,-z
x,y,1/2-z
-x,y,z
x,-y,1/2+z
1/2+x,1/2+y,z
1/2-x,1/2-y,1/2+z
1/2+x,1/2-y,-z
1/2-x,1/2+y,1/2-z
1/2-x,1/2-y,-z
1/2+x,1/2+y,1/2-z
1/2-x,1/2+y,z
1/2+x,1/2-y,1/2+z
loop_
_atom_site_type_symbol
_atom_site_label
_atom_site_fract_x
_atom_site_fract_y
_atom_site_fract_z
Si Si1 0.943222 0.890024 0.910191
Si Si2 0.000000 0.562444 0.415832
Si Si3 0.657899 0.553745 0.092207
Si Si4 0.559522 0.717652 0.597260
Si Si5 0.186653 0.311215 0.084905
Si Si6 0.288065 0.322491 0.587391
Si Si7 0.092482 0.349153 0.915499
O O1 0.945071 0.868330 0.750000
O O2 0.903747 0.945418 0.928312
O O3 0.000000 0.910160 0.961411
O O4 0.919485 0.832765 0.992040
O O5 0.000000 0.500000 0.500000
O O6 0.051314 0.599450 0.457420
O O7 0.000000 0.549185 0.250000
O O8 0.673552 0.537840 0.250000
O O9 0.677977 0.619638 0.049892
O O10 0.681866 0.500000 0.000000
O O11 0.586006 0.708992 0.750000
O O12 0.500000 0.706978 0.612351
O O13 0.568275 0.785100 0.541576
O O14 0.186538 0.327385 0.250000
O O15 0.178727 0.238765 0.059519
O O16 0.240744 0.327678 0.017502
O O17 0.144171 0.352970 0.007595
O O18 0.269403 0.322696 0.750000
O O19 0.105564 0.353376 0.750000
#
# Coordination Sequence:
#
# PCOD8257822 Si02
#       7
#    16   8  16  16  16  16  16
#     4   9  18  32  49  73 107 141 172 214 266 309
#     4  10  22  40  58  78 110 152 191 228 271 330
#     4  10  21  36  53  73 102 142 183 218 257 308
#     4   9  16  28  48  75 104 135 171 209 250 304
#     4  10  20  34  58  88 111 133 174 225 274 331
#     4   9  19  37  56  78 112 145 174 219 279 329
#     4  10  19  34  55  79 110 145 177 215 271 326
#
# _framework density 18.937932
#
# number of rings (size 3 to 8) (size 9 to 14) (size 15 to 20)
#    0.000    2.462    0.769    1.385    0.000    4.615 
#    0.000    0.769    0.000    0.000    0.000    0.000 
#    0.000    0.000    0.000    0.000    0.000    0.000 
#
# Total GULP energy -644427.675330 kJ/mol
# GULP energy per Si atom -12392.839910 kJ/mol
# Density = 1.889483 g / cm^3
# Si number density = 18.937932 Si / 1000 Ang^3
#
#
#
# Elastic Constant Matrix: (Units=GPa)
#
#
# Indices 1 2 3 4 5 6 
#
# 1 86.3729 40.5414 47.8149 0.0000 0.0000 0.0000
# 2 40.5414 86.3506 46.4119 0.0000 0.0000 0.0000
# 3 47.8149 46.4119 74.8395 0.0000 0.0000 0.0000
# 4 0.0000 0.0000 0.0000 34.1774 0.0000 0.0000
# 5 0.0000 0.0000 0.0000 0.0000 26.3511 0.0000
# 6 0.0000 0.0000 0.0000 0.0000 0.0000 18.0445
#
#
#
# Elastic Compliance Matrix: (Units=1/GPa)
#
#
# Indices 1 2 3 4 5 6 
#
# 1 0.018600 -0.003518 -0.009702 0.000000 0.000000 0.000000
# 2 -0.003518 0.018036 -0.008937 0.000000 0.000000 0.000000
# 3 -0.009702 -0.008937 0.025103 0.000000 0.000000 0.000000
# 4 0.000000 0.000000 0.000000 0.029259 0.000000 0.000000
# 5 0.000000 0.000000 0.000000 0.000000 0.037949 0.000000
# 6 0.000000 0.000000 0.000000 0.000000 0.000000 0.055419
#
#
# Mechanical properties :
#
#
# Convention : Reuss Voigt Hill
#
# Bulk Modulus (GPa) = 57.39067 57.45549 57.42308
# Shear Modulus (GPa) = 21.32310 23.23428 22.27869
#
# Velocity S-wave (km/s) = 3.35915 3.50646 3.43360
# Velocity P-wave (km/s) = 6.73911 6.84094 6.79021
#
# Compressibility (1/GPa) = 0.01742444
#
# Stress axis : x y z
#
# Youngs Moduli (GPa) = 53.76445 55.44421 39.83618
#
# Poissons Ratio (x) = 0.19506 0.38647
# Poissons Ratio (y) = 0.18915 0.35603
# Poissons Ratio (z) = 0.52160 0.49553
#
# Static dielectric constant tensor:
#      x y z
#    x 3.421610 0.000000 0.000000 
#    y 0.000000 3.251160 0.000000 
#    z 0.000000 0.000000 3.640460 
# 
# 
# High freq. dielectric constant tensor:
#      x y z
#    x 1.730820 0.000000 0.000000 
#    y 0.000000 1.715270 0.000000 
#    z 0.000000 0.000000 1.735280 
# 
# From -- ./inp_files/12904.got.cif
#   From: 2010.03.12/outbox.cif.g09.slc.cpg/sg63_7_cif.got.tgz:12904.got - 2010.04.10 19:34:48.
