data_PCOD8257653
_publ_section_title
;
Structure prediction by ZEFSAII (Michael W. Deem and Ramdas Pophale) SiO2 
 PCOD8257653
Probable space group: C M C M
;
_chemical_formula_sum "Si O2"
_cell_formula_units_Z 72
_cell_length_a 7.562108
_cell_length_b 22.163668
_cell_length_c 25.152650
_cell_angle_alpha 90.000000
_cell_angle_beta 90.000000
_cell_angle_gamma 90.000000
_cell_volume 4215.686036
_symmetry_space_group_name_H-M "C M C M"
_symmetry_group_IT_number 63
_symmetry_cell_setting 'orthorhombic'
loop_
_space_group_symop_operation_xyz
x,y,z
-x,-y,1/2+z
x,-y,-z
-x,y,1/2-z
-x,-y,-z
x,y,1/2-z
-x,y,z
x,-y,1/2+z
1/2+x,1/2+y,z
1/2-x,1/2-y,1/2+z
1/2+x,1/2-y,-z
1/2-x,1/2+y,1/2-z
1/2-x,1/2-y,-z
1/2+x,1/2+y,1/2-z
1/2-x,1/2+y,z
1/2+x,1/2-y,1/2+z
loop_
_atom_site_type_symbol
_atom_site_label
_atom_site_fract_x
_atom_site_fract_y
_atom_site_fract_z
Si Si1 0.500000 0.529633 0.941362
Si Si2 0.000000 0.093406 0.397481
Si Si3 0.797966 0.240484 0.628976
Si Si4 0.500000 0.307454 0.811687
Si Si5 0.801468 0.660133 0.046565
Si Si6 0.201727 0.626854 0.930270
O O1 0.500000 0.479138 0.894576
O O2 0.324739 0.568590 0.931956
O O3 0.500000 0.500000 0.000000
O O4 0.173807 0.109538 0.430599
O O5 0.000000 0.127422 0.340891
O O6 0.673195 0.268315 0.674271
O O7 0.760605 0.275784 0.573886
O O8 0.752911 0.170439 0.618733
O O9 0.000000 0.247231 0.648173
O O10 0.500000 0.322341 0.750000
O O11 0.000000 0.638677 0.059538
O O12 0.770703 0.666064 0.983716
O O13 0.000000 0.604656 0.924089
#
# Coordination Sequence:
#
# PCOD8257653 Si02
#       6
#     8   8  16   8  16  16
#     4  12  22  34  50  76 120 159 193 217 247 330
#     4  10  20  36  52  76 110 151 185 220 268 316
#     4  10  19  33  54  82 112 138 177 222 286 336
#     4  10  22  40  62  82 103 132 180 242 289 327
#     4   9  18  29  48  77 112 148 178 216 260 330
#     4  11  20  31  50  79 115 152 185 217 266 320
#
# _framework density 17.079070999999999
#
# number of rings (size 3 to 8) (size 9 to 14) (size 15 to 20)
#    0.000    1.778    4.444    0.667    0.000    1.778 
#    0.000    0.000    0.000    1.333    0.000    0.000 
#    0.000    0.000    0.000    0.000    0.000    0.000 
#
# Total GULP energy -446341.029270 kJ/mol
# GULP energy per Si atom -12398.361924 kJ/mol
# Density = 1.704020 g / cm^3
# Si number density = 17.079071 Si / 1000 Ang^3
#
#
#
# Elastic Constant Matrix: (Units=GPa)
#
#
# Indices 1 2 3 4 5 6 
#
# 1 123.6696 53.1441 36.8370 0.0000 0.0000 0.0000
# 2 53.1441 107.6332 35.3573 0.0000 0.0000 0.0000
# 3 36.8370 35.3573 77.1805 0.0000 0.0000 0.0000
# 4 0.0000 0.0000 0.0000 12.7113 0.0000 0.0000
# 5 0.0000 0.0000 0.0000 0.0000 11.6759 0.0000
# 6 0.0000 0.0000 0.0000 0.0000 0.0000 8.3422
#
#
#
# Elastic Compliance Matrix: (Units=1/GPa)
#
#
# Indices 1 2 3 4 5 6 
#
# 1 0.010905 -0.004326 -0.003223 0.000000 0.000000 0.000000
# 2 -0.004326 0.012652 -0.003732 0.000000 0.000000 0.000000
# 3 -0.003223 -0.003732 0.016205 0.000000 0.000000 0.000000
# 4 0.000000 0.000000 0.000000 0.078670 0.000000 0.000000
# 5 0.000000 0.000000 0.000000 0.000000 0.085647 0.000000
# 6 0.000000 0.000000 0.000000 0.000000 0.000000 0.119872
#
#
# Mechanical properties :
#
#
# Convention : Reuss Voigt Hill
#
# Bulk Modulus (GPa) = 58.13594 62.12890 60.13242
# Shear Modulus (GPa) = 14.19464 18.75554 16.47509
#
# Velocity S-wave (km/s) = 2.88603 3.31744 3.10923
# Velocity P-wave (km/s) = 6.72449 7.15053 6.94078
#
# Compressibility (1/GPa) = 0.01720106
#
# Stress axis : x y z
#
# Youngs Moduli (GPa) = 91.70166 79.03641 61.71111
#
# Poissons Ratio (x) = 0.34187 0.19891
# Poissons Ratio (y) = 0.39666 0.23029
# Poissons Ratio (z) = 0.29557 0.29494
#
# Static dielectric constant tensor:
#      x y z
#    x 3.445800 0.000000 0.000000 
#    y 0.000000 3.088480 0.000000 
#    z 0.000000 0.000000 2.764970 
# 
# 
# High freq. dielectric constant tensor:
#      x y z
#    x 1.683220 0.000000 0.000000 
#    y 0.000000 1.649080 0.000000 
#    z 0.000000 0.000000 1.608420 
# 
# From -- ./inp_files/50738.got.cif
#   From: 2010.03.12/outbox.cif.g09.slc.cpg/sg63_26_cif.got.tgz:50738.got - 2010.04.10 19:34:48.
