data_PCOD8257881
_publ_section_title
;
Structure prediction by ZEFSAII (Michael W. Deem and Ramdas Pophale) SiO2 
 PCOD8257881
Probable space group: C M C M
;
_chemical_formula_sum "Si O2"
_cell_formula_units_Z 96
_cell_length_a 12.023618
_cell_length_b 27.859134
_cell_length_c 14.478695
_cell_angle_alpha 90.000000
_cell_angle_beta 90.000000
_cell_angle_gamma 90.000000
_cell_volume 4849.893498
_symmetry_space_group_name_H-M "C M C M"
_symmetry_group_IT_number 63
_symmetry_cell_setting 'orthorhombic'
loop_
_space_group_symop_operation_xyz
x,y,z
-x,-y,1/2+z
x,-y,-z
-x,y,1/2-z
-x,-y,-z
x,y,1/2-z
-x,y,z
x,-y,1/2+z
1/2+x,1/2+y,z
1/2-x,1/2-y,1/2+z
1/2+x,1/2-y,-z
1/2-x,1/2+y,1/2-z
1/2-x,1/2-y,-z
1/2+x,1/2+y,1/2-z
1/2-x,1/2+y,z
1/2+x,1/2-y,1/2+z
loop_
_atom_site_type_symbol
_atom_site_label
_atom_site_fract_x
_atom_site_fract_y
_atom_site_fract_z
Si Si1 0.123563 0.809331 0.859651
Si Si2 0.500000 0.421340 0.359072
Si Si3 0.000000 0.029830 0.140180
Si Si4 0.262370 0.613655 0.859228
Si Si5 0.374251 0.204117 0.859568
Si Si6 0.623656 0.943645 0.003214
Si Si7 0.787735 0.091067 0.140780
O O1 0.117969 0.811414 0.750000
O O2 0.169009 0.756962 0.891748
O O3 0.197159 0.853919 0.893929
O O4 0.000000 0.816123 0.899746
O O5 0.500000 0.427364 0.250000
O O6 0.500000 0.475550 0.401602
O O7 0.608846 0.391400 0.390051
O O8 0.108796 0.058598 0.106107
O O9 0.000000 0.028337 0.250000
O O10 0.248073 0.607221 0.750000
O O11 0.213697 0.664565 0.895391
O O12 0.193606 0.571425 0.907121
O O13 0.378343 0.202175 0.750000
O O14 0.500000 0.194401 0.897043
O O15 0.500000 0.921851 0.011031
O O16 0.675913 0.925827 0.907553
O O17 0.619194 0.000000 0.000000
O O18 0.772093 0.086988 0.250000
#
# Coordination Sequence:
#
# PCOD8257881 Si02
#       7
#    16   8   8  16  16  16  16
#     4   8  13  26  51  84 112 136 174 224 269 320
#     4   9  18  31  51  79 110 141 177 214 267 330
#     4   9  16  29  53  83 106 137 179 218 263 322
#     4  10  20  37  58  79 108 144 180 227 277 324
#     4   8  14  26  51  82 107 137 180 223 266 313
#     4  11  25  40  54  77 107 142 189 233 269 322
#     4  10  19  34  57  82 113 144 175 220 275 329
#
# _framework density 19.794249000000001
#
# number of rings (size 3 to 8) (size 9 to 14) (size 15 to 20)
#    0.000    2.667    0.833    2.500    0.000    4.000 
#    0.000    4.167    1.833    0.000    0.000    0.000 
#    0.000    0.000    0.000    0.000    0.000    0.000 
#
# Total GULP energy -594933.643983 kJ/mol
# GULP energy per Si atom -12394.450916 kJ/mol
# Density = 1.974920 g / cm^3
# Si number density = 19.794249 Si / 1000 Ang^3
#
#
#
# Elastic Constant Matrix: (Units=GPa)
#
#
# Indices 1 2 3 4 5 6 
#
# 1 155.8208 77.3597 33.3702 0.0000 0.0000 0.0000
# 2 77.3597 145.3773 21.3717 0.0000 0.0000 0.0000
# 3 33.3702 21.3717 36.2675 0.0000 0.0000 0.0000
# 4 0.0000 0.0000 0.0000 17.1471 0.0000 0.0000
# 5 0.0000 0.0000 0.0000 0.0000 16.7413 0.0000
# 6 0.0000 0.0000 0.0000 0.0000 0.0000 144.8019
#
#
#
# Elastic Compliance Matrix: (Units=1/GPa)
#
#
# Indices 1 2 3 4 5 6 
#
# 1 0.009995 -0.004343 -0.006637 0.000000 0.000000 0.000000
# 2 -0.004343 0.009418 -0.001554 0.000000 0.000000 0.000000
# 3 -0.006637 -0.001554 0.034596 0.000000 0.000000 0.000000
# 4 0.000000 0.000000 0.000000 0.058319 0.000000 0.000000
# 5 0.000000 0.000000 0.000000 0.000000 0.059733 0.000000
# 6 0.000000 0.000000 0.000000 0.000000 0.000000 0.006906
#
#
# Mechanical properties :
#
#
# Convention : Reuss Voigt Hill
#
# Bulk Modulus (GPa) = 34.55377 66.85210 50.70293
# Shear Modulus (GPa) = 23.39922 49.42898 36.41410
#
# Velocity S-wave (km/s) = 3.44193 5.00256 4.29374
# Velocity P-wave (km/s) = 5.76977 8.19843 7.08888
#
# Compressibility (1/GPa) = 0.02894040
#
# Stress axis : x y z
#
# Youngs Moduli (GPa) = 100.04749 106.17813 28.90527
#
# Poissons Ratio (x) = 0.46113 0.19186
# Poissons Ratio (y) = 0.43451 0.04491
# Poissons Ratio (z) = 0.66406 0.16499
#
# Static dielectric constant tensor:
#      x y z
#    x 3.741850 0.000000 0.000000 
#    y 0.000000 4.055210 0.000000 
#    z 0.000000 0.000000 3.152700 
# 
# 
# High freq. dielectric constant tensor:
#      x y z
#    x 1.759680 0.000000 0.000000 
#    y 0.000000 1.784980 0.000000 
#    z 0.000000 0.000000 1.743020 
# 
# From -- ./inp_files/30330.got.cif
#   From: 2010.03.12/outbox.cif.g09.slc.cpg/sg63_16_cif.got.tgz:30330.got - 2010.04.10 19:34:48.
