data_PCOD8257716
_publ_section_title
;
Structure prediction by ZEFSAII (Michael W. Deem and Ramdas Pophale) SiO2 
 PCOD8257716
Probable space group: C M C M
;
_chemical_formula_sum "Si O2"
_cell_formula_units_Z 96
_cell_length_a 12.155654
_cell_length_b 21.598981
_cell_length_c 19.299924
_cell_angle_alpha 90.000000
_cell_angle_beta 90.000000
_cell_angle_gamma 90.000000
_cell_volume 5067.190024
_symmetry_space_group_name_H-M "C M C M"
_symmetry_group_IT_number 63
_symmetry_cell_setting 'orthorhombic'
loop_
_space_group_symop_operation_xyz
x,y,z
-x,-y,1/2+z
x,-y,-z
-x,y,1/2-z
-x,-y,-z
x,y,1/2-z
-x,y,z
x,-y,1/2+z
1/2+x,1/2+y,z
1/2-x,1/2-y,1/2+z
1/2+x,1/2-y,-z
1/2-x,1/2+y,1/2-z
1/2-x,1/2-y,-z
1/2+x,1/2+y,1/2-z
1/2-x,1/2+y,z
1/2+x,1/2-y,1/2+z
loop_
_atom_site_type_symbol
_atom_site_label
_atom_site_fract_x
_atom_site_fract_y
_atom_site_fract_z
Si Si1 0.122029 0.308077 0.039445
Si Si2 0.877151 0.374141 0.669182
Si Si3 0.000000 0.975379 0.331394
Si Si4 0.500000 0.336179 0.332421
Si Si5 0.678002 0.750051 0.604346
Si Si6 0.372040 0.948226 0.444940
Si Si7 0.759907 0.991434 0.832172
O O1 0.200178 0.277209 0.096458
O O2 0.152190 0.379925 0.024265
O O3 0.000000 0.303521 0.070665
O O4 0.127429 0.269637 0.968878
O O5 0.892507 0.381175 0.750000
O O6 0.818774 0.309391 0.653784
O O7 0.797580 0.428192 0.642317
O O8 0.000000 0.378191 0.634431
O O9 0.888909 0.011262 0.354378
O O10 0.000000 0.968987 0.250000
O O11 0.000000 0.905959 0.361825
O O12 0.500000 0.332825 0.250000
O O13 0.607706 0.303398 0.360932
O O14 0.500000 0.957394 0.426525
O O15 0.301850 0.954271 0.374032
O O16 0.333094 0.000000 0.500000
O O17 0.746819 0.003875 0.750000
#
# Coordination Sequence:
#
# PCOD8257716 Si02
#       7
#    16  16   8   8  16  16  16
#     4  10  21  36  52  79 114 152 186 225 282 346
#     4  10  19  33  56  84 109 136 186 246 291 331
#     4   9  20  36  53  79 115 154 187 227 288 346
#     4  11  20  34  60  85 108 142 194 251 284 324
#     4  11  20  34  57  80 111 147 187 237 282 334
#     4  10  20  35  58  83 112 146 184 234 288 341
#     4  10  20  36  57  82 113 149 189 231 283 345
#
# _framework density 18.945409999999999
#
# number of rings (size 3 to 8) (size 9 to 14) (size 15 to 20)
#    0.000    1.833    1.667    3.000    0.000    2.333 
#    1.500    1.250    0.000    3.500    0.000    0.000 
#    0.000    0.000    0.000    0.000    0.000    0.000 
#
# Total GULP energy -595167.006463 kJ/mol
# GULP energy per Si atom -12399.312635 kJ/mol
# Density = 1.890229 g / cm^3
# Si number density = 18.945410 Si / 1000 Ang^3
#
#
#
# Elastic Constant Matrix: (Units=GPa)
#
#
# Indices 1 2 3 4 5 6 
#
# 1 137.2302 75.7432 41.2224 0.0000 0.0000 0.0000
# 2 75.7432 124.4316 21.3923 0.0000 0.0000 0.0000
# 3 41.2224 21.3923 40.6937 0.0000 0.0000 0.0000
# 4 0.0000 0.0000 0.0000 20.3002 0.0000 0.0000
# 5 0.0000 0.0000 0.0000 0.0000 28.2522 0.0000
# 6 0.0000 0.0000 0.0000 0.0000 0.0000 23.2312
#
#
#
# Elastic Compliance Matrix: (Units=1/GPa)
#
#
# Indices 1 2 3 4 5 6 
#
# 1 0.014360 -0.006860 -0.010940 0.000000 0.000000 0.000000
# 2 -0.006860 0.012112 0.000582 0.000000 0.000000 0.000000
# 3 -0.010940 0.000582 0.035350 0.000000 0.000000 0.000000
# 4 0.000000 0.000000 0.000000 0.049261 0.000000 0.000000
# 5 0.000000 0.000000 0.000000 0.000000 0.035396 0.000000
# 6 0.000000 0.000000 0.000000 0.000000 0.000000 0.043046
#
#
# Mechanical properties :
#
#
# Convention : Reuss Voigt Hill
#
# Bulk Modulus (GPa) = 36.51537 64.34125 50.42831
# Shear Modulus (GPa) = 21.45108 25.28989 23.37048
#
# Velocity S-wave (km/s) = 3.36855 3.65757 3.51603
# Velocity P-wave (km/s) = 5.86902 7.20223 6.56953
#
# Compressibility (1/GPa) = 0.02738573
#
# Stress axis : x y z
#
# Youngs Moduli (GPa) = 69.63961 82.56038 28.28852
#
# Poissons Ratio (x) = 0.56637 0.30947
# Poissons Ratio (y) = 0.47774 -0.01646
# Poissons Ratio (z) = 0.76185 -0.04804
#
# Static dielectric constant tensor:
#      x y z
#    x 3.722760 0.000000 0.000000 
#    y 0.000000 3.595610 0.000000 
#    z 0.000000 0.000000 3.295140 
# 
# 
# High freq. dielectric constant tensor:
#      x y z
#    x 1.738010 0.000000 0.000000 
#    y 0.000000 1.741520 0.000000 
#    z 0.000000 0.000000 1.720130 
# 
# From -- ./inp_files/52944.got.cif
#   From: 2010.03.12/outbox.cif.g09.slc.cpg/sg63_27_cif.got.tgz:52944.got - 2010.04.10 19:34:48.
