data_PCOD8257883
_publ_section_title
;
Structure prediction by ZEFSAII (Michael W. Deem and Ramdas Pophale) SiO2 
 PCOD8257883
Probable space group: C M C M
;
_chemical_formula_sum "Si O2"
_cell_formula_units_Z 96
_cell_length_a 8.945416
_cell_length_b 19.858026
_cell_length_c 27.980131
_cell_angle_alpha 90.000000
_cell_angle_beta 90.000000
_cell_angle_gamma 90.000000
_cell_volume 4970.343003
_symmetry_space_group_name_H-M "C M C M"
_symmetry_group_IT_number 63
_symmetry_cell_setting 'orthorhombic'
loop_
_space_group_symop_operation_xyz
x,y,z
-x,-y,1/2+z
x,-y,-z
-x,y,1/2-z
-x,-y,-z
x,y,1/2-z
-x,y,z
x,-y,1/2+z
1/2+x,1/2+y,z
1/2-x,1/2-y,1/2+z
1/2+x,1/2-y,-z
1/2-x,1/2+y,1/2-z
1/2-x,1/2-y,-z
1/2+x,1/2+y,1/2-z
1/2-x,1/2+y,z
1/2+x,1/2-y,1/2+z
loop_
_atom_site_type_symbol
_atom_site_label
_atom_site_fract_x
_atom_site_fract_y
_atom_site_fract_z
Si Si1 0.832026 0.607469 0.303822
Si Si2 0.323117 0.703277 0.039518
Si Si3 0.172483 0.261324 0.635360
Si Si4 0.822228 0.134938 0.803997
Si Si5 0.178077 0.951540 0.542314
Si Si6 0.324349 0.495693 0.356834
O O1 0.802879 0.631394 0.250000
O O2 0.804301 0.669746 0.337590
O O3 0.714532 0.550361 0.316980
O O4 0.000000 0.579267 0.310099
O O5 0.500000 0.705572 0.033823
O O6 0.276512 0.736555 0.089299
O O7 0.265321 0.625559 0.035381
O O8 0.250000 0.750000 0.000000
O O9 0.230201 0.203199 0.670639
O O10 0.000000 0.249401 0.620287
O O11 0.756013 0.130976 0.750000
O O12 0.000000 0.131432 0.800731
O O13 0.759212 0.074840 0.837409
O O14 0.243739 0.982568 0.591740
O O15 0.000000 0.951390 0.543535
O O16 0.237509 0.000000 0.500000
O O17 0.500000 0.490248 0.362324
#
# Coordination Sequence:
#
# PCOD8257883 Si02
#       6
#    16  16  16  16  16  16
#     4  10  20  34  54  80 113 150 182 219 274 335
#     4  11  23  39  60  85 113 142 181 228 278 335
#     4  10  20  36  58  81 111 147 186 227 272 323
#     4   9  18  32  54  84 112 144 191 236 269 314
#     4   9  19  35  57  83 110 140 180 228 279 329
#     4  10  19  34  57  83 109 140 184 235 276 319
#
# _framework density 19.314563
#
# number of rings (size 3 to 8) (size 9 to 14) (size 15 to 20)
#    0.000    2.167    1.667    1.500    2.333    3.000 
#    0.000    0.833    0.000    5.000    0.000    0.000 
#    0.000    0.000    0.000    0.000    0.000    0.000 
#
# Total GULP energy -595118.806541 kJ/mol
# GULP energy per Si atom -12398.308470 kJ/mol
# Density = 1.927060 g / cm^3
# Si number density = 19.314563 Si / 1000 Ang^3
#
#
#
# Elastic Constant Matrix: (Units=GPa)
#
#
# Indices 1 2 3 4 5 6 
#
# 1 21.9034 22.8907 24.0412 0.0000 0.0000 0.0000
# 2 22.8907 120.9494 54.2996 0.0000 0.0000 0.0000
# 3 24.0412 54.2996 135.9212 0.0000 0.0000 0.0000
# 4 0.0000 0.0000 0.0000 40.9910 0.0000 0.0000
# 5 0.0000 0.0000 0.0000 0.0000 28.6026 0.0000
# 6 0.0000 0.0000 0.0000 0.0000 0.0000 23.6839
#
#
#
# Elastic Compliance Matrix: (Units=1/GPa)
#
#
# Indices 1 2 3 4 5 6 
#
# 1 0.063002 -0.008433 -0.007774 0.000000 0.000000 0.000000
# 2 -0.008433 0.011204 -0.002984 0.000000 0.000000 0.000000
# 3 -0.007774 -0.002984 0.009924 0.000000 0.000000 0.000000
# 4 0.000000 0.000000 0.000000 0.024396 0.000000 0.000000
# 5 0.000000 0.000000 0.000000 0.000000 0.034962 0.000000
# 6 0.000000 0.000000 0.000000 0.000000 0.000000 0.042223
#
#
# Mechanical properties :
#
#
# Convention : Reuss Voigt Hill
#
# Bulk Modulus (GPa) = 21.85976 53.47077 37.66527
# Shear Modulus (GPa) = 20.89053 30.49166 25.69109
#
# Velocity S-wave (km/s) = 3.29233 3.97758 3.65107
# Velocity P-wave (km/s) = 5.07887 6.98850 6.10877
#
# Compressibility (1/GPa) = 0.04574615
#
# Stress axis : x y z
#
# Youngs Moduli (GPa) = 15.87255 89.25605 100.76112
#
# Poissons Ratio (x) = 0.75273 0.78336
# Poissons Ratio (y) = 0.13386 0.30069
# Poissons Ratio (z) = 0.12340 0.26635
#
# Static dielectric constant tensor:
#      x y z
#    x 3.136990 0.000000 0.000000 
#    y 0.000000 4.144350 0.000000 
#    z 0.000000 0.000000 3.326440 
# 
# 
# High freq. dielectric constant tensor:
#      x y z
#    x 1.705230 0.000000 0.000000 
#    y 0.000000 1.763840 0.000000 
#    z 0.000000 0.000000 1.768220 
# 
# From -- ./inp_files/66945.got.cif
#   From: 2010.03.12/outbox.cif.g09.slc.cpg/sg63_34_cif.got.tgz:66945.got - 2010.04.10 19:34:48.
