data_PCOD8257774
_publ_section_title
;
Structure prediction by ZEFSAII (Michael W. Deem and Ramdas Pophale) SiO2 
 PCOD8257774
Probable space group: C M C M
;
_chemical_formula_sum "Si O2"
_cell_formula_units_Z 112
_cell_length_a 12.638584
_cell_length_b 14.682954
_cell_length_c 32.248492
_cell_angle_alpha 90.000000
_cell_angle_beta 90.000000
_cell_angle_gamma 90.000000
_cell_volume 5984.409015
_symmetry_space_group_name_H-M "C M C M"
_symmetry_group_IT_number 63
_symmetry_cell_setting 'orthorhombic'
loop_
_space_group_symop_operation_xyz
x,y,z
-x,-y,1/2+z
x,-y,-z
-x,y,1/2-z
-x,-y,-z
x,y,1/2-z
-x,y,z
x,-y,1/2+z
1/2+x,1/2+y,z
1/2-x,1/2-y,1/2+z
1/2+x,1/2-y,-z
1/2-x,1/2+y,1/2-z
1/2-x,1/2-y,-z
1/2+x,1/2+y,1/2-z
1/2-x,1/2+y,z
1/2+x,1/2-y,1/2+z
loop_
_atom_site_type_symbol
_atom_site_label
_atom_site_fract_x
_atom_site_fract_y
_atom_site_fract_z
Si Si1 0.124128 0.073958 0.083210
Si Si2 0.880832 0.275352 0.580979
Si Si3 0.756028 0.600123 0.573770
Si Si4 0.239197 0.646631 0.013853
Si Si5 0.878762 0.538134 0.298585
Si Si6 0.622158 0.145699 0.652701
Si Si7 0.744891 0.323430 0.847516
O O1 0.154024 0.115372 0.038067
O O2 0.154243 0.138758 0.121669
O O3 0.000000 0.054765 0.083828
O O4 0.188457 0.982112 0.091789
O O5 0.817480 0.186550 0.569037
O O6 0.854129 0.357049 0.548500
O O7 0.852382 0.307118 0.626982
O O8 0.000000 0.247223 0.578510
O O9 0.791027 0.582194 0.525652
O O10 0.852982 0.621745 0.604535
O O11 0.250000 0.750000 0.000000
O O12 0.867661 0.523835 0.250000
O O13 0.852222 0.442072 0.319782
O O14 0.786762 0.610152 0.311373
O O15 0.000000 0.568558 0.309810
O O16 0.500000 0.174380 0.656053
O O17 0.695667 0.228652 0.669722
#
# Coordination Sequence:
#
# PCOD8257774 Si02
#       7
#    16  16  16  16  16  16  16
#     4  11  21  34  55  80 110 149 195 244 293 339
#     4   9  18  32  51  74 106 145 186 233 286 335
#     4  10  19  34  52  80 110 149 192 239 283 337
#     4   9  20  32  45  71 108 144 194 238 284 337
#     4  10  21  39  64  90 116 151 190 230 284 350
#     4  10  21  38  61  88 120 156 194 235 288 349
#     4  10  20  36  58  86 114 150 190 241 282 340
#
# _framework density 18.715298000000001
#
# number of rings (size 3 to 8) (size 9 to 14) (size 15 to 20)
#    0.000    2.143    1.429    2.571    0.000    4.571 
#    0.000    0.000    0.000    3.857    0.000    0.000 
#    0.000    0.000    0.000    0.000    0.000    0.000 
#
# Total GULP energy -693955.701170 kJ/mol
# GULP energy per Si atom -12392.066092 kJ/mol
# Density = 1.867270 g / cm^3
# Si number density = 18.715298 Si / 1000 Ang^3
#
#
#
# Elastic Constant Matrix: (Units=GPa)
#
#
# Indices 1 2 3 4 5 6 
#
# 1 81.2853 38.6107 46.9046 0.0000 0.0000 0.0000
# 2 38.6107 75.4526 40.5485 0.0000 0.0000 0.0000
# 3 46.9046 40.5485 80.9228 0.0000 0.0000 0.0000
# 4 0.0000 0.0000 0.0000 23.8612 0.0000 0.0000
# 5 0.0000 0.0000 0.0000 0.0000 15.9027 0.0000
# 6 0.0000 0.0000 0.0000 0.0000 0.0000 -10.1230
#
#
#
# Elastic Compliance Matrix: (Units=1/GPa)
#
#
# Indices 1 2 3 4 5 6 
#
# 1 0.020017 -0.005485 -0.008854 0.000000 0.000000 0.000000
# 2 -0.005485 0.019640 -0.006662 0.000000 0.000000 0.000000
# 3 -0.008854 -0.006662 0.020827 0.000000 0.000000 0.000000
# 4 0.000000 0.000000 0.000000 0.041909 0.000000 0.000000
# 5 0.000000 0.000000 0.000000 0.000000 0.062882 0.000000
# 6 0.000000 0.000000 0.000000 0.000000 0.000000 -0.098785
#
#
# Mechanical properties :
#
#
# Convention : Reuss Voigt Hill
#
# Bulk Modulus (GPa) = 54.10392 54.42092 54.26242
# Shear Modulus (GPa) = 43.60985 13.36799 28.48892
#
# Velocity S-wave (km/s) = 4.83242 2.67550 3.90580
# Velocity P-wave (km/s) = 7.75294 6.21980 7.02830
#
# Compressibility (1/GPa) = 0.01848295
#
# Stress axis : x y z
#
# Youngs Moduli (GPa) = 49.95859 50.91563 48.01346
#
# Poissons Ratio (x) = 0.27927 0.42510
# Poissons Ratio (y) = 0.27402 0.31987
# Poissons Ratio (z) = 0.44232 0.33921
#
# Static dielectric constant tensor:
#      x y z
#    x 3.194730 0.000000 0.000000 
#    y 0.000000 3.591190 0.000000 
#    z 0.000000 0.000000 3.635640 
# 
# 
# High freq. dielectric constant tensor:
#      x y z
#    x 1.709530 0.000000 0.000000 
#    y 0.000000 1.735570 0.000000 
#    z 0.000000 0.000000 1.718100 
# 
# From -- ./inp_files/72865.got.cif
#   From: 2010.03.12/outbox.cif.g09.slc.cpg/sg63_37_cif.got.tgz:72865.got - 2010.04.10 19:34:48.
