data_PCOD8257847
_publ_section_title
;
Structure prediction by ZEFSAII (Michael W. Deem and Ramdas Pophale) SiO2 
 PCOD8257847
Probable space group: C M C M
;
_chemical_formula_sum "Si O2"
_cell_formula_units_Z 80
_cell_length_a 9.671149
_cell_length_b 25.304709
_cell_length_c 17.736084
_cell_angle_alpha 90.000000
_cell_angle_beta 90.000000
_cell_angle_gamma 90.000000
_cell_volume 4340.473996
_symmetry_space_group_name_H-M "C M C M"
_symmetry_group_IT_number 63
_symmetry_cell_setting 'orthorhombic'
loop_
_space_group_symop_operation_xyz
x,y,z
-x,-y,1/2+z
x,-y,-z
-x,y,1/2-z
-x,-y,-z
x,y,1/2-z
-x,y,z
x,-y,1/2+z
1/2+x,1/2+y,z
1/2-x,1/2-y,1/2+z
1/2+x,1/2-y,-z
1/2-x,1/2+y,1/2-z
1/2-x,1/2-y,-z
1/2+x,1/2+y,1/2-z
1/2-x,1/2+y,z
1/2+x,1/2-y,1/2+z
loop_
_atom_site_type_symbol
_atom_site_label
_atom_site_fract_x
_atom_site_fract_y
_atom_site_fract_z
Si Si1 0.000000 0.719962 0.411874
Si Si2 0.500000 0.616294 0.835694
Si Si3 0.000000 0.728763 0.909503
Si Si4 0.716718 0.294331 0.161798
Si Si5 0.000000 0.840912 0.836849
Si Si6 0.206323 0.931345 0.663339
Si Si7 0.000000 0.608593 0.337462
Si Si8 0.500000 0.493811 0.412270
O O1 0.137356 0.746403 0.378292
O O2 0.000000 0.724053 0.501315
O O3 0.000000 0.658952 0.390589
O O4 0.500000 0.595425 0.750000
O O5 0.636205 0.651035 0.851315
O O6 0.500000 0.567707 0.892296
O O7 0.132755 0.699624 0.874516
O O8 0.000000 0.790528 0.890068
O O9 0.727660 0.280492 0.250000
O O10 0.864582 0.875319 0.856131
O O11 0.000000 0.822100 0.750000
O O12 0.179226 0.944858 0.750000
O O13 0.367776 0.927598 0.643908
O O14 0.139505 0.979212 0.617755
O O15 0.000000 0.626771 0.250000
O O16 0.500000 0.500000 0.500000
#
# Coordination Sequence:
#
# PCOD8257847 Si02
#       8
#     8   8   8  16   8  16   8   8
#     4  11  22  34  52  81 117 152 177 213 274 330
#     4   9  20  39  58  71  96 141 184 220 262 317
#     4  12  22  32  52  84 117 143 177 232 272 302
#     4  10  21  37  55  76 105 148 194 223 252 315
#     4   9  17  31  52  76 106 144 177 214 262 314
#     4   9  19  35  56  80 103 132 177 222 261 315
#     4  10  19  34  56  79 106 141 175 216 268 321
#     4  11  22  36  58  81 104 135 170 217 277 328
#
# _framework density 18.431166999999999
#
# number of rings (size 3 to 8) (size 9 to 14) (size 15 to 20)
#    0.000    2.000    0.000    5.700    0.000    6.400 
#    0.000    1.500    0.000    2.400    0.000    0.000 
#    0.000    0.000    0.000    0.000    0.000    0.000 
#
# Total GULP energy -496149.695971 kJ/mol
# GULP energy per Si atom -12403.742399 kJ/mol
# Density = 1.838922 g / cm^3
# Si number density = 18.431167 Si / 1000 Ang^3
#
#
#
# Elastic Constant Matrix: (Units=GPa)
#
#
# Indices 1 2 3 4 5 6 
#
# 1 161.8239 52.1100 66.0853 0.0000 0.0000 0.0000
# 2 52.1100 96.1565 58.9586 0.0000 0.0000 0.0000
# 3 66.0853 58.9586 135.8780 0.0000 0.0000 0.0000
# 4 0.0000 0.0000 0.0000 16.2126 0.0000 0.0000
# 5 0.0000 0.0000 0.0000 0.0000 18.4224 0.0000
# 6 0.0000 0.0000 0.0000 0.0000 0.0000 11.4524
#
#
#
# Elastic Compliance Matrix: (Units=1/GPa)
#
#
# Indices 1 2 3 4 5 6 
#
# 1 0.008203 -0.002724 -0.002808 0.000000 0.000000 0.000000
# 2 -0.002724 0.015074 -0.005216 0.000000 0.000000 0.000000
# 3 -0.002808 -0.005216 0.010988 0.000000 0.000000 0.000000
# 4 0.000000 0.000000 0.000000 0.061680 0.000000 0.000000
# 5 0.000000 0.000000 0.000000 0.000000 0.054282 0.000000
# 6 0.000000 0.000000 0.000000 0.000000 0.000000 0.087318
#
#
# Mechanical properties :
#
#
# Convention : Reuss Voigt Hill
#
# Bulk Modulus (GPa) = 78.30644 83.12958 80.71801
# Shear Modulus (GPa) = 18.98991 23.66447 21.32719
#
# Velocity S-wave (km/s) = 3.21333 3.58709 3.40535
# Velocity P-wave (km/s) = 7.50636 7.89664 7.70397
#
# Compressibility (1/GPa) = 0.01277034
#
# Stress axis : x y z
#
# Youngs Moduli (GPa) = 121.90091 66.33892 91.00538
#
# Poissons Ratio (x) = 0.18071 0.25552
# Poissons Ratio (y) = 0.33206 0.47468
# Poissons Ratio (z) = 0.34227 0.34602
#
# Static dielectric constant tensor:
#      x y z
#    x 2.486970 0.000000 0.000000 
#    y 0.000000 3.141950 0.000000 
#    z 0.000000 0.000000 3.347540 
# 
# 
# High freq. dielectric constant tensor:
#      x y z
#    x 1.726360 0.000000 0.000000 
#    y 0.000000 1.698840 0.000000 
#    z 0.000000 0.000000 1.712980 
# 
# From -- ./inp_files/40668.got.cif
#   From: 2010.03.12/outbox.cif.g09.slc.cpg/sg63_21_cif.got.tgz:40668.got - 2010.04.10 19:34:48.
