data_PCOD8257475
_publ_section_title
;
Structure prediction by ZEFSAII (Michael W. Deem and Ramdas Pophale) SiO2 
 PCOD8257475
Probable space group: C M C M
;
_chemical_formula_sum "Si O2"
_cell_formula_units_Z 72
_cell_length_a 10.639473
_cell_length_b 15.203924
_cell_length_c 18.494141
_cell_angle_alpha 90.000000
_cell_angle_beta 90.000000
_cell_angle_gamma 90.000000
_cell_volume 2991.644407
_symmetry_space_group_name_H-M "C M C M"
_symmetry_group_IT_number 63
_symmetry_cell_setting 'orthorhombic'
loop_
_space_group_symop_operation_xyz
x,y,z
-x,-y,1/2+z
x,-y,-z
-x,y,1/2-z
-x,-y,-z
x,y,1/2-z
-x,y,z
x,-y,1/2+z
1/2+x,1/2+y,z
1/2-x,1/2-y,1/2+z
1/2+x,1/2-y,-z
1/2-x,1/2+y,1/2-z
1/2-x,1/2-y,-z
1/2+x,1/2+y,1/2-z
1/2-x,1/2+y,z
1/2+x,1/2-y,1/2+z
loop_
_atom_site_type_symbol
_atom_site_label
_atom_site_fract_x
_atom_site_fract_y
_atom_site_fract_z
Si Si1 0.500000 0.645605 0.664164
Si Si2 0.000000 0.769025 0.832315
Si Si3 0.855717 0.484994 0.669473
Si Si4 0.240412 0.584348 0.036461
Si Si5 0.764295 0.666204 0.892096
Si Si6 0.500000 0.549250 0.101599
O O1 0.500000 0.655470 0.750000
O O2 0.375922 0.695198 0.632298
O O3 0.500000 0.543372 0.641978
O O4 0.127900 0.733623 0.868754
O O5 0.000000 0.874133 0.837743
O O6 0.000000 0.737353 0.750000
O O7 0.811909 0.457413 0.750000
O O8 0.826129 0.402903 0.615199
O O9 0.779426 0.570268 0.643924
O O10 0.000000 0.511207 0.668918
O O11 0.385016 0.561386 0.047763
O O12 0.172597 0.500000 0.000000
O O13 0.226300 0.664455 0.980193
#
# Coordination Sequence:
#
# PCOD8257475 Si02
#       6
#     8   8  16  16  16   8
#     4  12  22  39  70  98 122 170 228 269 319 387
#     4  12  27  44  63  96 139 172 213 270 330 391
#     4  10  19  32  58  94 130 163 215 275 323 374
#     4  10  21  37  64  94 126 163 218 275 319 380
#     4  11  23  39  66  92 129 175 218 265 322 393
#     4  12  23  40  65  97 131 163 210 275 334 374
#
# _framework density 24.067031
#
# number of rings (size 3 to 8) (size 9 to 14) (size 15 to 20)
#    0.000    1.111    5.556    3.333    1.556    3.111 
#    0.000    0.000    2.444    0.000    0.000    0.000 
#    0.000    0.000    0.000    0.000    0.000    0.000 
#
# Total GULP energy -446170.457723 kJ/mol
# GULP energy per Si atom -12393.623826 kJ/mol
# Density = 2.401225 g / cm^3
# Si number density = 24.067031 Si / 1000 Ang^3
#
#
#
# Elastic Constant Matrix: (Units=GPa)
#
#
# Indices 1 2 3 4 5 6 
#
# 1 133.1614 18.5606 25.3190 0.0000 0.0000 0.0000
# 2 18.5606 56.6512 14.0919 0.0000 0.0000 0.0000
# 3 25.3190 14.0919 145.8940 0.0000 0.0000 0.0000
# 4 0.0000 0.0000 0.0000 7.2034 0.0000 0.0000
# 5 0.0000 0.0000 0.0000 0.0000 39.7256 0.0000
# 6 0.0000 0.0000 0.0000 0.0000 0.0000 -0.6309
#
#
#
# Elastic Compliance Matrix: (Units=1/GPa)
#
#
# Indices 1 2 3 4 5 6 
#
# 1 0.008060 -0.002349 -0.001172 0.000000 0.000000 0.000000
# 2 -0.002349 0.018771 -0.001405 0.000000 0.000000 0.000000
# 3 -0.001172 -0.001405 0.007193 0.000000 0.000000 0.000000
# 4 0.000000 0.000000 0.000000 0.138822 0.000000 0.000000
# 5 0.000000 0.000000 0.000000 0.000000 0.025173 0.000000
# 6 0.000000 0.000000 0.000000 0.000000 0.000000 -1.585040
#
#
# Mechanical properties :
#
#
# Convention : Reuss Voigt Hill
#
# Bulk Modulus (GPa) = 41.37086 50.18328 45.77707
# Shear Modulus (GPa) = -3.65201 27.77531 12.06165
#
# Velocity S-wave (km/s) = -1.23318 3.40086 2.24111
# Velocity P-wave (km/s) = 3.89866 6.02643 5.07530
#
# Compressibility (1/GPa) = 0.02417160
#
# Stress axis : x y z
#
# Youngs Moduli (GPa) = 124.07044 53.27324 139.01620
#
# Poissons Ratio (x) = 0.12515 0.16291
# Poissons Ratio (y) = 0.29146 0.19538
# Poissons Ratio (z) = 0.14539 0.07487
#
# Static dielectric constant tensor:
#      x y z
#    x 4.518760 0.000000 0.000000 
#    y 0.000000 3.902640 0.000000 
#    z 0.000000 0.000000 4.727210 
# 
# 
# High freq. dielectric constant tensor:
#      x y z
#    x 1.965870 0.000000 0.000000 
#    y 0.000000 1.914630 0.000000 
#    z 0.000000 0.000000 1.976320 
# 
# From -- ./inp_files/41936.got.cif
#   From: 2010.03.12/outbox.cif.g09.slc.cpg/sg63_21_cif.got.tgz:41936.got - 2010.04.10 19:34:48.
