data_PCOD8257661
_publ_section_title
;
Structure prediction by ZEFSAII (Michael W. Deem and Ramdas Pophale) SiO2 
 PCOD8257661
Probable space group: C M C M
;
_chemical_formula_sum "Si O2"
_cell_formula_units_Z 104
_cell_length_a 20.776175
_cell_length_b 29.951176
_cell_length_c 8.970473
_cell_angle_alpha 90.000000
_cell_angle_beta 90.000000
_cell_angle_gamma 90.000000
_cell_volume 5582.064074
_symmetry_space_group_name_H-M "C M C M"
_symmetry_group_IT_number 63
_symmetry_cell_setting 'orthorhombic'
loop_
_space_group_symop_operation_xyz
x,y,z
-x,-y,1/2+z
x,-y,-z
-x,y,1/2-z
-x,-y,-z
x,y,1/2-z
-x,y,z
x,-y,1/2+z
1/2+x,1/2+y,z
1/2-x,1/2-y,1/2+z
1/2+x,1/2-y,-z
1/2-x,1/2+y,1/2-z
1/2-x,1/2-y,-z
1/2+x,1/2+y,1/2-z
1/2-x,1/2+y,z
1/2+x,1/2-y,1/2+z
loop_
_atom_site_type_symbol
_atom_site_label
_atom_site_fract_x
_atom_site_fract_y
_atom_site_fract_z
Si Si1 0.280497 0.873319 0.423713
Si Si2 0.500000 0.953797 0.578562
Si Si3 0.189596 0.274297 0.424973
Si Si4 0.640377 0.951143 0.926182
Si Si5 0.072357 0.956396 0.924782
Si Si6 0.353332 0.369203 0.924256
Si Si7 0.071144 0.781783 0.925356
O O1 0.282614 0.885160 0.250000
O O2 0.317012 0.826975 0.458771
O O3 0.309651 0.915158 0.511919
O O4 0.208584 0.863332 0.474747
O O5 0.500000 0.965336 0.750000
O O6 0.431578 0.930527 0.537704
O O7 0.500000 0.000000 0.500000
O O8 0.197233 0.264901 0.250000
O O9 0.250000 0.250000 0.500000
O O10 0.123222 0.253389 0.488651
O O11 0.651642 0.956568 0.750000
O O12 0.650524 0.000000 0.000000
O O13 0.072708 0.963221 0.750000
O O14 0.115451 0.915347 0.973482
O O15 0.000000 0.948569 0.984041
O O16 0.103140 0.000000 0.000000
O O17 0.334298 0.367780 0.750000
O O18 0.404861 0.331321 0.963944
O O19 0.065299 0.775499 0.750000
O O20 0.000000 0.774311 0.997167
#
# Coordination Sequence:
#
# PCOD8257661 Si02
#       7
#    16   8  16  16  16  16  16
#     4  11  23  36  52  81 115 147 184 225 270 326
#     4   8  16  32  56  82 106 138 180 222 270 324
#     4  10  20  36  58  82 110 146 186 230 278 332
#     4  10  20  37  60  84 112 145 183 227 275 329
#     4   9  18  32  50  74 103 134 173 218 267 320
#     4  10  19  33  55  78 101 139 185 228 274 325
#     4   9  17  32  57  84 106 134 181 236 284 333
#
# _framework density 18.631101999999998
#
# number of rings (size 3 to 8) (size 9 to 14) (size 15 to 20)
#    0.000    2.308    1.538    1.385    0.000    4.308 
#    1.385    1.538    0.000    2.769    0.000    0.000 
#    0.000    0.000    0.000    0.000    0.000    0.000 
#
# Total GULP energy -644456.025083 kJ/mol
# GULP energy per Si atom -12393.385098 kJ/mol
# Density = 1.858870 g / cm^3
# Si number density = 18.631102 Si / 1000 Ang^3
#
#
#
# Elastic Constant Matrix: (Units=GPa)
#
#
# Indices 1 2 3 4 5 6 
#
# 1 132.7871 60.9208 30.8353 0.0000 0.0000 0.0000
# 2 60.9208 125.2031 36.8096 0.0000 0.0000 0.0000
# 3 30.8353 36.8096 44.7555 0.0000 0.0000 0.0000
# 4 0.0000 0.0000 0.0000 22.6121 0.0000 0.0000
# 5 0.0000 0.0000 0.0000 0.0000 23.6199 0.0000
# 6 0.0000 0.0000 0.0000 0.0000 0.0000 -13.3362
#
#
#
# Elastic Compliance Matrix: (Units=1/GPa)
#
#
# Indices 1 2 3 4 5 6 
#
# 1 0.010181 -0.003814 -0.003878 0.000000 0.000000 0.000000
# 2 -0.003814 0.011963 -0.007211 0.000000 0.000000 0.000000
# 3 -0.003878 -0.007211 0.030946 0.000000 0.000000 0.000000
# 4 0.000000 0.000000 0.000000 0.044224 0.000000 0.000000
# 5 0.000000 0.000000 0.000000 0.000000 0.042337 0.000000
# 6 0.000000 0.000000 0.000000 0.000000 0.000000 -0.074984
#
#
# Mechanical properties :
#
#
# Convention : Reuss Voigt Hill
#
# Bulk Modulus (GPa) = 42.94717 62.20854 52.57786
# Shear Modulus (GPa) = 48.90688 18.19116 33.54902
#
# Velocity S-wave (km/s) = 5.12905 3.12811 4.24807
# Velocity P-wave (km/s) = 7.62742 6.81974 7.23486
#
# Compressibility (1/GPa) = 0.02328442
#
# Stress axis : x y z
#
# Youngs Moduli (GPa) = 98.22183 83.59208 32.31396
#
# Poissons Ratio (x) = 0.31880 0.12531
# Poissons Ratio (y) = 0.37460 0.23303
# Poissons Ratio (z) = 0.38088 0.60281
#
# Static dielectric constant tensor:
#      x y z
#    x 4.997070 0.000000 0.000000 
#    y 0.000000 4.073940 0.000000 
#    z 0.000000 0.000000 3.268630 
# 
# 
# High freq. dielectric constant tensor:
#      x y z
#    x 1.731010 0.000000 0.000000 
#    y 0.000000 1.723210 0.000000 
#    z 0.000000 0.000000 1.705350 
# 
# From -- ./inp_files/9081.got.cif
#   From: 2010.03.12/outbox.cif.g09.slc.cpg/sg63_5_cif.got.tgz:9081.got - 2010.04.10 19:34:48.
