data_PCOD8257679
_publ_section_title
;
Structure prediction by ZEFSAII (Michael W. Deem and Ramdas Pophale) SiO2 
 PCOD8257679
Probable space group: C M C M
;
_chemical_formula_sum "Si O2"
_cell_formula_units_Z 72
_cell_length_a 18.109841
_cell_length_b 21.780832
_cell_length_c 9.567762
_cell_angle_alpha 90.000000
_cell_angle_beta 90.000000
_cell_angle_gamma 90.000000
_cell_volume 3773.978887
_symmetry_space_group_name_H-M "C M C M"
_symmetry_group_IT_number 63
_symmetry_cell_setting 'orthorhombic'
loop_
_space_group_symop_operation_xyz
x,y,z
-x,-y,1/2+z
x,-y,-z
-x,y,1/2-z
-x,-y,-z
x,y,1/2-z
-x,y,z
x,-y,1/2+z
1/2+x,1/2+y,z
1/2-x,1/2-y,1/2+z
1/2+x,1/2-y,-z
1/2-x,1/2+y,1/2-z
1/2-x,1/2-y,-z
1/2+x,1/2+y,1/2-z
1/2-x,1/2+y,z
1/2+x,1/2-y,1/2+z
loop_
_atom_site_type_symbol
_atom_site_label
_atom_site_fract_x
_atom_site_fract_y
_atom_site_fract_z
Si Si1 0.619736 0.552852 0.593763
Si Si2 0.084788 0.707249 0.587187
Si Si3 0.761423 0.500000 0.000000
Si Si4 0.317708 0.875927 0.593004
Si Si5 0.846739 0.163595 0.088099
O O1 0.579558 0.500000 0.500000
O O2 0.585703 0.557615 0.750000
O O3 0.706887 0.535058 0.609166
O O4 0.609160 0.616748 0.511602
O O5 0.092610 0.693603 0.750000
O O6 0.119769 0.649551 0.508705
O O7 0.128291 0.768685 0.544971
O O8 0.000000 0.714714 0.542473
O O9 0.812171 0.449541 0.924690
O O10 0.342921 0.861694 0.750000
O O11 0.240256 0.842588 0.561143
O O12 0.866113 0.148710 0.250000
#
# Coordination Sequence:
#
# PCOD8257679 Si02
#       5
#    16  16   8  16  16
#     4   9  16  27  48  77 108 134 163 208 260 310
#     4  10  22  38  53  73 106 145 178 212 260 313
#     4   8  18  30  51  76 109 136 164 208 264 316
#     4  10  19  33  55  82 106 132 173 219 261 307
#     4   9  18  33  53  77 106 136 172 216 262 309
#
# _framework density 19.078009000000002
#
# number of rings (size 3 to 8) (size 9 to 14) (size 15 to 20)
#    0.667    2.000    0.000    2.000    0.000    5.778 
#    0.000    0.556    0.000    0.667    0.000    0.000 
#    0.000    0.000    0.000    0.000    0.000    0.000 
#
# Total GULP energy -446196.130665 kJ/mol
# GULP energy per Si atom -12394.336963 kJ/mol
# Density = 1.903459 g / cm^3
# Si number density = 19.078009 Si / 1000 Ang^3
#
#
#
# Elastic Constant Matrix: (Units=GPa)
#
#
# Indices 1 2 3 4 5 6 
#
# 1 67.7601 44.5526 29.1084 0.0000 0.0000 0.0000
# 2 44.5526 106.7764 31.6989 0.0000 0.0000 0.0000
# 3 29.1084 31.6989 83.3063 0.0000 0.0000 0.0000
# 4 0.0000 0.0000 0.0000 31.4199 0.0000 0.0000
# 5 0.0000 0.0000 0.0000 0.0000 9.6946 0.0000
# 6 0.0000 0.0000 0.0000 0.0000 0.0000 -5.3260
#
#
#
# Elastic Compliance Matrix: (Units=1/GPa)
#
#
# Indices 1 2 3 4 5 6 
#
# 1 0.021855 -0.007724 -0.004697 0.000000 0.000000 0.000000
# 2 -0.007724 0.013288 -0.002357 0.000000 0.000000 0.000000
# 3 -0.004697 -0.002357 0.014542 0.000000 0.000000 0.000000
# 4 0.000000 0.000000 0.000000 0.031827 0.000000 0.000000
# 5 0.000000 0.000000 0.000000 0.000000 0.103151 0.000000
# 6 0.000000 0.000000 0.000000 0.000000 0.000000 -0.187757
#
#
# Mechanical properties :
#
#
# Convention : Reuss Voigt Hill
#
# Bulk Modulus (GPa) = 49.68374 52.06253 50.87314
# Shear Modulus (GPa) = 150.73034 17.32321 84.02678
#
# Velocity S-wave (km/s) = 8.89825 3.01661 6.64375
# Velocity P-wave (km/s) = 11.47479 6.28345 9.25074
#
# Compressibility (1/GPa) = 0.02012731
#
# Stress axis : x y z
#
# Youngs Moduli (GPa) = 45.75708 75.25473 68.76594
#
# Poissons Ratio (x) = 0.58130 0.32300
# Poissons Ratio (y) = 0.35345 0.16210
# Poissons Ratio (z) = 0.21492 0.17740
#
# Static dielectric constant tensor:
#      x y z
#    x 3.092830 0.000000 0.000000 
#    y 0.000000 3.408090 0.000000 
#    z 0.000000 0.000000 3.351030 
# 
# 
# High freq. dielectric constant tensor:
#      x y z
#    x 1.703220 0.000000 0.000000 
#    y 0.000000 1.742060 0.000000 
#    z 0.000000 0.000000 1.738950 
# 
# From -- ./inp_files/7826.got.cif
#   From: 2010.03.12/outbox.cif.g09.slc.cpg/sg63_4_cif.got.tgz:7826.got - 2010.04.10 19:34:48.
