data_PCOD8257642
_publ_section_title
;
Structure prediction by ZEFSAII (Michael W. Deem and Ramdas Pophale) SiO2 
 PCOD8257642
Probable space group: C M C M
;
_chemical_formula_sum "Si O2"
_cell_formula_units_Z 96
_cell_length_a 22.161926
_cell_length_b 24.412429
_cell_length_c 9.307510
_cell_angle_alpha 90.000000
_cell_angle_beta 90.000000
_cell_angle_gamma 90.000000
_cell_volume 5035.609047
_symmetry_space_group_name_H-M "C M C M"
_symmetry_group_IT_number 63
_symmetry_cell_setting 'orthorhombic'
loop_
_space_group_symop_operation_xyz
x,y,z
-x,-y,1/2+z
x,-y,-z
-x,y,1/2-z
-x,-y,-z
x,y,1/2-z
-x,y,z
x,-y,1/2+z
1/2+x,1/2+y,z
1/2-x,1/2-y,1/2+z
1/2+x,1/2-y,-z
1/2-x,1/2+y,1/2-z
1/2-x,1/2-y,-z
1/2+x,1/2+y,1/2-z
1/2-x,1/2+y,z
1/2+x,1/2-y,1/2+z
loop_
_atom_site_type_symbol
_atom_site_label
_atom_site_fract_x
_atom_site_fract_y
_atom_site_fract_z
Si Si1 0.895289 0.656790 0.412806
Si Si2 0.760378 0.696362 0.411496
Si Si3 0.096512 0.053254 0.916618
Si Si4 0.500000 0.359493 0.419694
Si Si5 0.642348 0.945659 0.081954
Si Si6 0.500000 0.763722 0.920297
Si Si7 0.225953 0.096383 0.585895
O O1 0.912063 0.638472 0.250000
O O2 0.830574 0.684113 0.415552
O O3 0.896301 0.604296 0.516843
O O4 0.941571 0.702312 0.472312
O O5 0.736846 0.704380 0.250000
O O6 0.750000 0.750000 0.500000
O O7 0.721882 0.648147 0.482197
O O8 0.083313 0.042948 0.750000
O O9 0.167569 0.059976 0.947262
O O10 0.059569 0.106900 0.969220
O O11 0.072976 0.000000 0.000000
O O12 0.500000 0.352731 0.250000
O O13 0.500000 0.297948 0.487721
O O14 0.627553 0.950877 0.250000
O O15 0.713790 0.938158 0.054433
O O16 0.621317 0.000000 0.000000
O O17 0.500000 0.758538 0.750000
O O18 0.225615 0.117504 0.750000
#
# Coordination Sequence:
#
# PCOD8257642 Si02
#       7
#    16  16  16   8  16   8  16
#     4   9  19  35  56  80 104 137 177 221 266 312
#     4  10  20  32  51  78 108 140 174 217 264 317
#     4  10  20  34  54  78 107 141 180 223 267 316
#     4   9  19  33  54  79 101 138 183 225 268 313
#     4  10  19  33  54  80 111 142 174 214 262 319
#     4   9  18  35  59  81 102 134 182 227 264 313
#     4   9  19  33  51  77 107 141 176 216 265 316
#
# _framework density 19.064228
#
# number of rings (size 3 to 8) (size 9 to 14) (size 15 to 20)
#    0.000    2.500    0.000    1.750    2.333    2.000 
#    0.000    0.833    0.000    1.000    0.000    0.000 
#    0.000    0.000    0.000    0.000    0.000    0.000 
#
# Total GULP energy -595177.670470 kJ/mol
# GULP energy per Si atom -12399.534801 kJ/mol
# Density = 1.902084 g / cm^3
# Si number density = 19.064228 Si / 1000 Ang^3
#
#
#
# Elastic Constant Matrix: (Units=GPa)
#
#
# Indices 1 2 3 4 5 6 
#
# 1 67.2186 46.3019 17.7639 0.0000 0.0000 0.0000
# 2 46.3019 168.6429 74.3210 0.0000 0.0000 0.0000
# 3 17.7639 74.3210 95.2125 0.0000 0.0000 0.0000
# 4 0.0000 0.0000 0.0000 38.5845 0.0000 0.0000
# 5 0.0000 0.0000 0.0000 0.0000 14.5920 0.0000
# 6 0.0000 0.0000 0.0000 0.0000 0.0000 21.3446
#
#
#
# Elastic Compliance Matrix: (Units=1/GPa)
#
#
# Indices 1 2 3 4 5 6 
#
# 1 0.018384 -0.005390 0.000777 0.000000 0.000000 0.000000
# 2 -0.005390 0.010620 -0.007284 0.000000 0.000000 0.000000
# 3 0.000777 -0.007284 0.016043 0.000000 0.000000 0.000000
# 4 0.000000 0.000000 0.000000 0.025917 0.000000 0.000000
# 5 0.000000 0.000000 0.000000 0.000000 0.068530 0.000000
# 6 0.000000 0.000000 0.000000 0.000000 0.000000 0.046850
#
#
# Mechanical properties :
#
#
# Convention : Reuss Voigt Hill
#
# Bulk Modulus (GPa) = 47.04940 67.53863 57.29402
# Shear Modulus (GPa) = 23.01786 27.75004 25.38395
#
# Velocity S-wave (km/s) = 3.47851 3.81938 3.65293
# Velocity P-wave (km/s) = 6.39268 7.41310 6.92172
#
# Compressibility (1/GPa) = 0.02125425
#
# Stress axis : x y z
#
# Youngs Moduli (GPa) = 54.39443 94.16609 62.33125
#
# Poissons Ratio (x) = 0.50757 -0.04846
# Poissons Ratio (y) = 0.29319 0.45401
# Poissons Ratio (z) = -0.04229 0.68588
#
# Static dielectric constant tensor:
#      x y z
#    x 3.355770 0.000000 0.000000 
#    y 0.000000 3.558130 0.000000 
#    z 0.000000 0.000000 3.438980 
# 
# 
# High freq. dielectric constant tensor:
#      x y z
#    x 1.733030 0.000000 0.000000 
#    y 0.000000 1.746700 0.000000 
#    z 0.000000 0.000000 1.724450 
# 
# From -- ./inp_files/10552.got.cif
#   From: 2010.03.12/outbox.cif.g09.slc.cpg/sg63_6_cif.got.tgz:10552.got - 2010.04.10 19:34:48.
