data_PCOD8257148
_publ_section_title
;
Structure prediction by ZEFSAII (Michael W. Deem and Ramdas Pophale) SiO2 
 PCOD8257148
Probable space group: C M C M
;
_chemical_formula_sum "Si O2"
_cell_formula_units_Z 80
_cell_length_a 7.813820
_cell_length_b 23.101471
_cell_length_c 24.342994
_cell_angle_alpha 90.000000
_cell_angle_beta 90.000000
_cell_angle_gamma 90.000000
_cell_volume 4394.171767
_symmetry_space_group_name_H-M "C M C M"
_symmetry_group_IT_number 63
_symmetry_cell_setting 'orthorhombic'
loop_
_space_group_symop_operation_xyz
x,y,z
-x,-y,1/2+z
x,-y,-z
-x,y,1/2-z
-x,-y,-z
x,y,1/2-z
-x,y,z
x,-y,1/2+z
1/2+x,1/2+y,z
1/2-x,1/2-y,1/2+z
1/2+x,1/2-y,-z
1/2-x,1/2+y,1/2-z
1/2-x,1/2-y,-z
1/2+x,1/2+y,1/2-z
1/2-x,1/2+y,z
1/2+x,1/2-y,1/2+z
loop_
_atom_site_type_symbol
_atom_site_label
_atom_site_fract_x
_atom_site_fract_y
_atom_site_fract_z
Si Si1 0.691660 0.672179 0.886805
Si Si2 0.199870 0.692912 0.378071
Si Si3 0.000000 0.133712 0.315086
Si Si4 0.302801 0.184287 0.000900
Si Si5 0.189900 0.425366 0.187003
Si Si6 0.000000 0.996529 0.815090
O O1 0.500000 0.662313 0.866128
O O2 0.745266 0.739104 0.880957
O O3 0.810464 0.633382 0.848240
O O4 0.704451 0.652189 0.951096
O O5 0.325714 0.664426 0.334307
O O6 0.236562 0.662014 0.437284
O O7 0.000000 0.684147 0.361480
O O8 0.000000 0.068386 0.338552
O O9 0.000000 0.135360 0.250000
O O10 0.500000 0.177487 0.986989
O O11 0.250000 0.250000 0.000000
O O12 0.231805 0.409158 0.250000
O O13 0.329258 0.470750 0.163806
O O14 0.000000 0.453043 0.182132
O O15 0.000000 0.993842 0.750000
#
# Coordination Sequence:
#
# PCOD8257148 Si02
#       6
#    16  16   8  16  16   8
#     4  10  19  31  53  84 115 144 176 222 279 324
#     4   9  21  36  52  81 115 145 180 221 271 320
#     4  11  24  38  59  79 107 153 186 221 269 329
#     4   9  17  29  49  77 108 145 182 220 261 322
#     4  10  20  34  55  80 107 141 180 230 281 326
#     4   9  20  40  55  75 103 139 195 232 263 320
#
# _framework density 18.205932000000001
#
# number of rings (size 3 to 8) (size 9 to 14) (size 15 to 20)
#    0.000    2.400    1.000    2.400    8.400    2.000 
#    0.000    4.000    0.000    2.400    0.000    4.200 
#    0.000    0.000    0.000    0.000    0.000    0.000 
#
# Total GULP energy -495703.459574 kJ/mol
# GULP energy per Si atom -12392.586489 kJ/mol
# Density = 1.816449 g / cm^3
# Si number density = 18.205932 Si / 1000 Ang^3
#
#
#
# Elastic Constant Matrix: (Units=GPa)
#
#
# Indices 1 2 3 4 5 6 
#
# 1 110.8165 51.0341 42.8218 0.0000 0.0000 0.0000
# 2 51.0341 77.8272 38.1421 0.0000 0.0000 0.0000
# 3 42.8218 38.1421 85.6093 0.0000 0.0000 0.0000
# 4 0.0000 0.0000 0.0000 3.5828 0.0000 0.0000
# 5 0.0000 0.0000 0.0000 0.0000 31.3505 0.0000
# 6 0.0000 0.0000 0.0000 0.0000 0.0000 19.4612
#
#
#
# Elastic Compliance Matrix: (Units=1/GPa)
#
#
# Indices 1 2 3 4 5 6 
#
# 1 0.013772 -0.007234 -0.003666 0.000000 0.000000 0.000000
# 2 -0.007234 0.020238 -0.005398 0.000000 0.000000 0.000000
# 3 -0.003666 -0.005398 0.015920 0.000000 0.000000 0.000000
# 4 0.000000 0.000000 0.000000 0.279108 0.000000 0.000000
# 5 0.000000 0.000000 0.000000 0.000000 0.031897 0.000000
# 6 0.000000 0.000000 0.000000 0.000000 0.000000 0.051384
#
#
# Mechanical properties :
#
#
# Convention : Reuss Voigt Hill
#
# Bulk Modulus (GPa) = 57.69159 59.80544 58.74852
# Shear Modulus (GPa) = 11.09400 20.36258 15.72829
#
# Velocity S-wave (km/s) = 2.47120 3.34796 2.94242
# Velocity P-wave (km/s) = 6.31661 6.91852 6.62441
#
# Compressibility (1/GPa) = 0.01733355
#
# Stress axis : x y z
#
# Youngs Moduli (GPa) = 72.61104 49.41085 62.81531
#
# Poissons Ratio (x) = 0.35745 0.23026
# Poissons Ratio (y) = 0.52529 0.33910
# Poissons Ratio (z) = 0.26616 0.26674
#
# Static dielectric constant tensor:
#      x y z
#    x 3.663070 0.000000 0.000000 
#    y 0.000000 3.094190 0.000000 
#    z 0.000000 0.000000 3.552910 
# 
# 
# High freq. dielectric constant tensor:
#      x y z
#    x 1.723120 0.000000 0.000000 
#    y 0.000000 1.660740 0.000000 
#    z 0.000000 0.000000 1.701650 
# 
# From -- ./inp_files/50903.got.cif
#   From: 2010.03.12/outbox.cif.g09.slc.cpg/sg63_26_cif.got.tgz:50903.got - 2010.04.10 19:34:48.
