data_PCOD8257569
_publ_section_title
;
Structure prediction by ZEFSAII (Michael W. Deem and Ramdas Pophale) SiO2 
 PCOD8257569
Probable space group: C M C M
;
_chemical_formula_sum "Si O2"
_cell_formula_units_Z 96
_cell_length_a 9.024398
_cell_length_b 27.446066
_cell_length_c 20.253669
_cell_angle_alpha 90.000000
_cell_angle_beta 90.000000
_cell_angle_gamma 90.000000
_cell_volume 5016.514272
_symmetry_space_group_name_H-M "C M C M"
_symmetry_group_IT_number 63
_symmetry_cell_setting 'orthorhombic'
loop_
_space_group_symop_operation_xyz
x,y,z
-x,-y,1/2+z
x,-y,-z
-x,y,1/2-z
-x,-y,-z
x,y,1/2-z
-x,y,z
x,-y,1/2+z
1/2+x,1/2+y,z
1/2-x,1/2-y,1/2+z
1/2+x,1/2-y,-z
1/2-x,1/2+y,1/2-z
1/2-x,1/2-y,-z
1/2+x,1/2+y,1/2-z
1/2-x,1/2+y,z
1/2+x,1/2-y,1/2+z
loop_
_atom_site_type_symbol
_atom_site_label
_atom_site_fract_x
_atom_site_fract_y
_atom_site_fract_z
Si Si1 0.324093 0.305275 0.322578
Si Si2 0.676452 0.086691 0.250000
Si Si3 0.324658 0.055247 0.996806
Si Si4 0.176699 0.731588 0.433407
Si Si5 0.824531 0.373912 0.888613
Si Si6 0.174735 0.089271 0.866095
Si Si7 0.673858 0.482871 0.250000
O O1 0.264826 0.290446 0.250000
O O2 0.500000 0.305203 0.322641
O O3 0.264703 0.266549 0.375295
O O4 0.266496 0.359204 0.339237
O O5 0.500000 0.083817 0.250000
O O6 0.735913 0.115009 0.314927
O O7 0.735325 0.032147 0.250000
O O8 0.500000 0.057424 0.988693
O O9 0.253126 0.081541 0.935147
O O10 0.271482 0.083002 0.062816
O O11 0.266826 0.000000 0.000000
O O12 0.250000 0.750000 0.500000
O O13 0.235479 0.677592 0.415651
O O14 0.000000 0.733099 0.441116
O O15 0.000000 0.371543 0.885990
O O16 0.220093 0.047448 0.814657
O O17 0.000000 0.090167 0.877240
O O18 0.500000 0.494223 0.250000
#
# Coordination Sequence:
#
# PCOD8257569 Si02
#       7
#    16   8  16  16  16  16   8
#     4   9  17  31  53  79 103 132 172 214 256 306
#     4  10  20  36  57  77 101 137 180 216 251 306
#     4  10  20  34  51  73 105 141 173 211 259 306
#     4  10  20  34  55  80 106 136 171 213 260 308
#     4   9  19  34  53  79 106 134 173 219 259 300
#     4  10  19  33  53  76 103 134 171 215 258 304
#     4  10  20  34  51  75 107 137 168 216 267 302
#
# _framework density 19.136793999999998
#
# number of rings (size 3 to 8) (size 9 to 14) (size 15 to 20)
#    0.000    2.333    0.833    2.000    1.167    2.333 
#    0.000    1.667    0.000    1.500    0.000    0.000 
#    0.000    0.000    0.000    0.000    0.000    0.000 
#
# Total GULP energy -595206.961853 kJ/mol
# GULP energy per Si atom -12400.145039 kJ/mol
# Density = 1.909324 g / cm^3
# Si number density = 19.136794 Si / 1000 Ang^3
#
#
#
# Elastic Constant Matrix: (Units=GPa)
#
#
# Indices 1 2 3 4 5 6 
#
# 1 15.7926 21.1245 26.5876 0.0000 0.0000 0.0000
# 2 21.1245 168.8507 96.1841 0.0000 0.0000 0.0000
# 3 26.5876 96.1841 200.9526 0.0000 0.0000 0.0000
# 4 0.0000 0.0000 0.0000 41.1599 0.0000 0.0000
# 5 0.0000 0.0000 0.0000 0.0000 28.3365 0.0000
# 6 0.0000 0.0000 0.0000 0.0000 0.0000 16.0416
#
#
#
# Elastic Compliance Matrix: (Units=1/GPa)
#
#
# Indices 1 2 3 4 5 6 
#
# 1 0.085466 -0.005845 -0.008510 0.000000 0.000000 0.000000
# 2 -0.005845 0.008542 -0.003315 0.000000 0.000000 0.000000
# 3 -0.008510 -0.003315 0.007689 0.000000 0.000000 0.000000
# 4 0.000000 0.000000 0.000000 0.024295 0.000000 0.000000
# 5 0.000000 0.000000 0.000000 0.000000 0.035290 0.000000
# 6 0.000000 0.000000 0.000000 0.000000 0.000000 0.062338
#
#
# Mechanical properties :
#
#
# Convention : Reuss Voigt Hill
#
# Bulk Modulus (GPa) = 15.07004 74.82092 44.94548
# Shear Modulus (GPa) = 17.78849 33.22092 25.50470
#
# Velocity S-wave (km/s) = 3.05215 4.17102 3.65466
# Velocity P-wave (km/s) = 4.50697 7.89806 6.43009
#
# Compressibility (1/GPa) = 0.06635683
#
# Stress axis : x y z
#
# Youngs Moduli (GPa) = 11.70053 117.06668 130.05368
#
# Poissons Ratio (x) = 0.68421 1.10680
# Poissons Ratio (y) = 0.06839 0.43117
# Poissons Ratio (z) = 0.09958 0.38811
#
# Static dielectric constant tensor:
#      x y z
#    x 3.022560 0.000000 0.000000 
#    y 0.000000 3.802440 0.000000 
#    z 0.000000 0.000000 3.782010 
# 
# 
# High freq. dielectric constant tensor:
#      x y z
#    x 1.695030 0.000000 0.000000 
#    y 0.000000 1.759410 0.000000 
#    z 0.000000 0.000000 1.764370 
# 
# From -- ./inp_files/42725.got.cif
#   From: 2010.03.12/outbox.cif.g09.slc.cpg/sg63_22_cif.got.tgz:42725.got - 2010.04.10 19:34:48.
