data_PCOD8257846
_publ_section_title
;
Structure prediction by ZEFSAII (Michael W. Deem and Ramdas Pophale) SiO2 
 PCOD8257846
Probable space group: C M C M
;
_chemical_formula_sum "Si O2"
_cell_formula_units_Z 72
_cell_length_a 14.640622
_cell_length_b 34.024047
_cell_length_c 7.530616
_cell_angle_alpha 90.000000
_cell_angle_beta 90.000000
_cell_angle_gamma 90.000000
_cell_volume 3751.249929
_symmetry_space_group_name_H-M "C M C M"
_symmetry_group_IT_number 63
_symmetry_cell_setting 'orthorhombic'
loop_
_space_group_symop_operation_xyz
x,y,z
-x,-y,1/2+z
x,-y,-z
-x,y,1/2-z
-x,-y,-z
x,y,1/2-z
-x,y,z
x,-y,1/2+z
1/2+x,1/2+y,z
1/2-x,1/2-y,1/2+z
1/2+x,1/2-y,-z
1/2-x,1/2+y,1/2-z
1/2-x,1/2-y,-z
1/2+x,1/2+y,1/2-z
1/2-x,1/2+y,z
1/2+x,1/2-y,1/2+z
loop_
_atom_site_type_symbol
_atom_site_label
_atom_site_fract_x
_atom_site_fract_y
_atom_site_fract_z
Si Si1 0.100578 0.317573 0.059321
Si Si2 0.389587 0.127492 0.250000
Si Si3 0.150087 0.764520 0.452444
Si Si4 0.206160 0.907200 0.750000
Si Si5 0.604061 0.326107 0.750000
Si Si6 0.605393 0.455256 0.044137
O O1 0.154035 0.318436 0.250000
O O2 0.000000 0.333960 0.091475
O O3 0.144522 0.346887 0.917932
O O4 0.088298 0.273543 0.985577
O O5 0.500000 0.117127 0.250000
O O6 0.318639 0.090828 0.250000
O O7 0.141398 0.778796 0.250000
O O8 0.250000 0.750000 0.500000
O O9 0.120466 0.800540 0.574199
O O10 0.172433 0.862457 0.750000
O O11 0.170406 0.928055 0.572790
O O12 0.500000 0.341400 0.750000
O O13 0.625045 0.446392 0.250000
O O14 0.500000 0.446501 0.995673
O O15 0.629308 0.500000 0.000000
#
# Coordination Sequence:
#
# PCOD8257846 Si02
#       6
#    16   8  16   8   8  16
#     4  10  19  34  56  78 103 147 210 262 294 338
#     4  10  22  38  60  88 121 163 210 259 304 344
#     4  12  22  36  56  77 109 158 211 258 301 354
#     4  12  24  40  62  92 130 157 191 247 308 358
#     4  12  26  38  54  88 129 160 191 252 326 370
#     4  10  20  38  68 100 124 154 195 233 279 358
#
# _framework density 19.193603
#
# number of rings (size 3 to 8) (size 9 to 14) (size 15 to 20)
#    0.000    1.111    4.444    3.000    0.000    3.111 
#    0.000    0.000    0.000    0.667    0.000    0.000 
#    0.000    0.000    0.000    0.000    0.000    0.000 
#
# Total GULP energy -446147.513251 kJ/mol
# GULP energy per Si atom -12392.986479 kJ/mol
# Density = 1.914992 g / cm^3
# Si number density = 19.193603 Si / 1000 Ang^3
#
#
#
# Elastic Constant Matrix: (Units=GPa)
#
#
# Indices 1 2 3 4 5 6 
#
# 1 101.1304 47.6548 41.2406 0.0000 0.0000 0.0000
# 2 47.6548 85.5428 52.1258 0.0000 0.0000 0.0000
# 3 41.2406 52.1258 174.8106 0.0000 0.0000 0.0000
# 4 0.0000 0.0000 0.0000 36.5369 0.0000 0.0000
# 5 0.0000 0.0000 0.0000 0.0000 -74.6240 0.0000
# 6 0.0000 0.0000 0.0000 0.0000 0.0000 29.5583
#
#
#
# Elastic Compliance Matrix: (Units=1/GPa)
#
#
# Indices 1 2 3 4 5 6 
#
# 1 0.013598 -0.006868 -0.001160 0.000000 0.000000 0.000000
# 2 -0.006868 0.017755 -0.003674 0.000000 0.000000 0.000000
# 3 -0.001160 -0.003674 0.007090 0.000000 0.000000 0.000000
# 4 0.000000 0.000000 0.000000 0.027370 0.000000 0.000000
# 5 0.000000 0.000000 0.000000 0.000000 -0.013401 0.000000
# 6 0.000000 0.000000 0.000000 0.000000 0.000000 0.033831
#
#
# Mechanical properties :
#
#
# Convention : Reuss Voigt Hill
#
# Bulk Modulus (GPa) = 66.49786 71.50292 69.00039
# Shear Modulus (GPa) = 43.60723 12.99176 28.29950
#
# Velocity S-wave (km/s) = 4.77169 2.60451 3.84399
# Velocity P-wave (km/s) = 8.06720 6.81022 7.46521
#
# Compressibility (1/GPa) = 0.01503808
#
# Stress axis : x y z
#
# Youngs Moduli (GPa) = 73.54174 56.32208 141.05132
#
# Poissons Ratio (x) = 0.38684 0.16360
# Poissons Ratio (y) = 0.50511 0.51821
# Poissons Ratio (z) = 0.08530 0.20692
#
# Static dielectric constant tensor:
#      x y z
#    x 3.579110 0.000000 0.000000 
#    y 0.000000 3.354500 0.000000 
#    z 0.000000 0.000000 4.139630 
# 
# 
# High freq. dielectric constant tensor:
#      x y z
#    x 1.742890 0.000000 0.000000 
#    y 0.000000 1.710380 0.000000 
#    z 0.000000 0.000000 1.772700 
# 
# From -- ./inp_files/4703.got.cif
#   From: 2010.03.12/outbox.cif.g09.slc.cpg/sg63_3_cif.got.tgz:4703.got - 2010.04.10 19:34:48.
