data_PCOD8257857
_publ_section_title
;
Structure prediction by ZEFSAII (Michael W. Deem and Ramdas Pophale) SiO2 
 PCOD8257857
Probable space group: C M C M
;
_chemical_formula_sum "Si O2"
_cell_formula_units_Z 96
_cell_length_a 8.667673
_cell_length_b 25.163745
_cell_length_c 23.532953
_cell_angle_alpha 90.000000
_cell_angle_beta 90.000000
_cell_angle_gamma 90.000000
_cell_volume 5132.798574
_symmetry_space_group_name_H-M "C M C M"
_symmetry_group_IT_number 63
_symmetry_cell_setting 'orthorhombic'
loop_
_space_group_symop_operation_xyz
x,y,z
-x,-y,1/2+z
x,-y,-z
-x,y,1/2-z
-x,-y,-z
x,y,1/2-z
-x,y,z
x,-y,1/2+z
1/2+x,1/2+y,z
1/2-x,1/2-y,1/2+z
1/2+x,1/2-y,-z
1/2-x,1/2+y,1/2-z
1/2-x,1/2-y,-z
1/2+x,1/2+y,1/2-z
1/2-x,1/2+y,z
1/2+x,1/2-y,1/2+z
loop_
_atom_site_type_symbol
_atom_site_label
_atom_site_fract_x
_atom_site_fract_y
_atom_site_fract_z
Si Si1 0.318657 0.937538 0.750000
Si Si2 0.681603 0.403426 0.865259
Si Si3 0.183325 0.997687 0.063132
Si Si4 0.679710 0.445583 0.250000
Si Si5 0.178779 0.311502 0.562908
Si Si6 0.818750 0.895465 0.131340
Si Si7 0.679490 0.800741 0.433789
O O1 0.500000 0.936801 0.750000
O O2 0.259104 0.904781 0.803935
O O3 0.265627 0.998519 0.750000
O O4 0.500000 0.408309 0.856993
O O5 0.748499 0.452782 0.901390
O O6 0.719930 0.349461 0.897873
O O7 0.000000 0.000748 0.061531
O O8 0.238662 0.943445 0.091812
O O9 0.253535 0.000000 0.000000
O O10 0.500000 0.460307 0.250000
O O11 0.724196 0.410195 0.304214
O O12 0.220831 0.251351 0.578822
O O13 0.218451 0.322777 0.496780
O O14 0.000000 0.321433 0.575894
O O15 0.724513 0.843666 0.113479
O O16 0.000000 0.884640 0.123906
O O17 0.500000 0.786195 0.429010
#
# Coordination Sequence:
#
# PCOD8257857 Si02
#       7
#     8  16  16   8  16  16  16
#     4  12  24  38  57  82 117 156 194 236 286 338
#     4  11  21  37  60  84 114 150 194 239 284 342
#     4   9  17  29  51  83 113 142 179 227 283 340
#     4  10  20  38  59  80 109 154 200 234 278 336
#     4  10  21  38  59  85 116 150 190 236 288 345
#     4  10  19  34  56  81 112 148 192 238 283 338
#     4  10  21  37  58  85 117 152 189 233 289 348
#
# _framework density 18.703247999999999
#
# number of rings (size 3 to 8) (size 9 to 14) (size 15 to 20)
#    0.000    1.833    1.667    3.250    0.000    4.000 
#    0.000    0.833    0.000    4.500    0.000    0.000 
#    0.000    0.000    0.000    0.000    0.000    0.000 
#
# Total GULP energy -595390.372140 kJ/mol
# GULP energy per Si atom -12403.966086 kJ/mol
# Density = 1.866068 g / cm^3
# Si number density = 18.703248 Si / 1000 Ang^3
#
#
#
# Elastic Constant Matrix: (Units=GPa)
#
#
# Indices 1 2 3 4 5 6 
#
# 1 59.2573 20.4827 28.5924 0.0000 0.0000 0.0000
# 2 20.4827 85.5978 44.7237 0.0000 0.0000 0.0000
# 3 28.5924 44.7237 122.2611 0.0000 0.0000 0.0000
# 4 0.0000 0.0000 0.0000 20.4905 0.0000 0.0000
# 5 0.0000 0.0000 0.0000 0.0000 22.8887 0.0000
# 6 0.0000 0.0000 0.0000 0.0000 0.0000 31.7413
#
#
#
# Elastic Compliance Matrix: (Units=1/GPa)
#
#
# Indices 1 2 3 4 5 6 
#
# 1 0.019562 -0.002832 -0.003539 0.000000 0.000000 0.000000
# 2 -0.002832 0.014853 -0.004771 0.000000 0.000000 0.000000
# 3 -0.003539 -0.004771 0.010752 0.000000 0.000000 0.000000
# 4 0.000000 0.000000 0.000000 0.048803 0.000000 0.000000
# 5 0.000000 0.000000 0.000000 0.000000 0.043690 0.000000
# 6 0.000000 0.000000 0.000000 0.000000 0.000000 0.031505
#
#
# Mechanical properties :
#
#
# Convention : Reuss Voigt Hill
#
# Bulk Modulus (GPa) = 43.69988 50.52376 47.11182
# Shear Modulus (GPa) = 25.11602 26.57859 25.84731
#
# Velocity S-wave (km/s) = 3.66849 3.77380 3.72152
# Velocity P-wave (km/s) = 6.43113 6.78680 6.61136
#
# Compressibility (1/GPa) = 0.02288336
#
# Stress axis : x y z
#
# Youngs Moduli (GPa) = 51.11952 67.32649 93.00517
#
# Poissons Ratio (x) = 0.19067 0.32914
# Poissons Ratio (y) = 0.14477 0.44373
# Poissons Ratio (z) = 0.18091 0.32121
#
# Static dielectric constant tensor:
#      x y z
#    x 3.242600 0.000000 0.000000 
#    y 0.000000 3.337450 0.000000 
#    z 0.000000 0.000000 3.625260 
# 
# 
# High freq. dielectric constant tensor:
#      x y z
#    x 1.714520 0.000000 0.000000 
#    y 0.000000 1.725560 0.000000 
#    z 0.000000 0.000000 1.731200 
# 
# From -- ./inp_files/60070.got.cif
#   From: 2010.03.12/outbox.cif.g09.slc.cpg/sg63_31_cif.got.tgz:60070.got - 2010.04.10 19:34:48.
