data_PCOD8257411
_publ_section_title
;
Structure prediction by ZEFSAII (Michael W. Deem and Ramdas Pophale) SiO2 
 PCOD8257411
Probable space group: C M C M
;
_chemical_formula_sum "Si O2"
_cell_formula_units_Z 64
_cell_length_a 8.743234
_cell_length_b 15.197313
_cell_length_c 24.708459
_cell_angle_alpha 90.000000
_cell_angle_beta 90.000000
_cell_angle_gamma 90.000000
_cell_volume 3283.103472
_symmetry_space_group_name_H-M "C M C M"
_symmetry_group_IT_number 63
_symmetry_cell_setting 'orthorhombic'
loop_
_space_group_symop_operation_xyz
x,y,z
-x,-y,1/2+z
x,-y,-z
-x,y,1/2-z
-x,-y,-z
x,y,1/2-z
-x,y,z
x,-y,1/2+z
1/2+x,1/2+y,z
1/2-x,1/2-y,1/2+z
1/2+x,1/2-y,-z
1/2-x,1/2+y,1/2-z
1/2-x,1/2-y,-z
1/2+x,1/2+y,1/2-z
1/2-x,1/2+y,z
1/2+x,1/2-y,1/2+z
loop_
_atom_site_type_symbol
_atom_site_label
_atom_site_fract_x
_atom_site_fract_y
_atom_site_fract_z
Si Si1 0.833873 0.149620 0.250000
Si Si2 0.816435 0.838451 0.865710
Si Si3 0.818924 0.149675 0.638778
Si Si4 0.668673 0.857486 0.250000
Si Si5 0.681596 0.504245 0.060465
O O1 0.751688 0.125833 0.192989
O O2 0.851042 0.253970 0.250000
O O3 0.000000 0.103655 0.250000
O O4 0.749749 0.743069 0.879129
O O5 0.759508 0.906269 0.911164
O O6 0.000000 0.831113 0.862341
O O7 0.760270 0.113625 0.696489
O O8 0.000000 0.157651 0.641638
O O9 0.763009 0.080609 0.593633
O O10 0.500000 0.901664 0.250000
O O11 0.500000 0.506388 0.058534
O O12 0.750697 0.500000 0.000000
#
# Coordination Sequence:
#
# PCOD8257411 Si02
#       5
#     8  16  16   8  16
#     4   7  12  24  45  71  92 118 160 201 239 295
#     4   9  17  32  53  73 100 139 175 209 258 315
#     4  10  19  32  53  80 106 132 170 219 261 300
#     4   9  17  32  53  77 106 136 166 203 259 325
#     4   9  19  34  51  74 105 142 182 216 250 304
#
# _framework density 19.493752000000001
#
# number of rings (size 3 to 8) (size 9 to 14) (size 15 to 20)
#    0.000    3.000    0.000    2.625    0.000    2.000 
#    0.000    6.250    0.000    5.250    0.000    0.000 
#    0.000    0.000    0.000    0.000    0.000    0.000 
#
# Total GULP energy -396517.145499 kJ/mol
# GULP energy per Si atom -12391.160797 kJ/mol
# Density = 1.944938 g / cm^3
# Si number density = 19.493752 Si / 1000 Ang^3
#
#
#
# Elastic Constant Matrix: (Units=GPa)
#
#
# Indices 1 2 3 4 5 6 
#
# 1 49.5292 29.8231 31.5801 0.0000 0.0000 0.0000
# 2 29.8231 122.7008 96.7297 0.0000 0.0000 0.0000
# 3 31.5801 96.7297 205.9932 0.0000 0.0000 0.0000
# 4 0.0000 0.0000 0.0000 33.8500 0.0000 0.0000
# 5 0.0000 0.0000 0.0000 0.0000 17.7338 0.0000
# 6 0.0000 0.0000 0.0000 0.0000 0.0000 22.5880
#
#
#
# Elastic Compliance Matrix: (Units=1/GPa)
#
#
# Indices 1 2 3 4 5 6 
#
# 1 0.023936 -0.004644 -0.001489 0.000000 0.000000 0.000000
# 2 -0.004644 0.013841 -0.005788 0.000000 0.000000 0.000000
# 3 -0.001489 -0.005788 0.007800 0.000000 0.000000 0.000000
# 4 0.000000 0.000000 0.000000 0.029542 0.000000 0.000000
# 5 0.000000 0.000000 0.000000 0.000000 0.056390 0.000000
# 6 0.000000 0.000000 0.000000 0.000000 0.000000 0.044271
#
#
# Mechanical properties :
#
#
# Convention : Reuss Voigt Hill
#
# Bulk Modulus (GPa) = 46.00530 77.16547 61.58538
# Shear Modulus (GPa) = 24.17018 29.50705 26.83861
#
# Velocity S-wave (km/s) = 3.52503 3.89481 3.71452
# Velocity P-wave (km/s) = 6.34185 7.73930 7.07516
#
# Compressibility (1/GPa) = 0.02173663
#
# Stress axis : x y z
#
# Youngs Moduli (GPa) = 41.77865 72.24796 128.19737
#
# Poissons Ratio (x) = 0.33552 0.19085
# Poissons Ratio (y) = 0.19402 0.74195
# Poissons Ratio (z) = 0.06220 0.41814
#
# Static dielectric constant tensor:
#      x y z
#    x 3.204940 0.000000 0.000000 
#    y 0.000000 3.417820 0.000000 
#    z 0.000000 0.000000 4.095950 
# 
# 
# High freq. dielectric constant tensor:
#      x y z
#    x 1.719700 0.000000 0.000000 
#    y 0.000000 1.749180 0.000000 
#    z 0.000000 0.000000 1.770180 
# 
# From -- ./inp_files/59115.got.cif
#   From: 2010.03.12/outbox.cif.g09.slc.cpg/sg63_30_cif.got.tgz:59115.got - 2010.04.10 19:34:48.
