data_PCOD8257001
_publ_section_title
;
Structure prediction by ZEFSAII (Michael W. Deem and Ramdas Pophale) SiO2 
 PCOD8257001
Probable space group: C M C M
;
_chemical_formula_sum "Si O2"
_cell_formula_units_Z 112
_cell_length_a 13.866120
_cell_length_b 17.866062
_cell_length_c 24.887142
_cell_angle_alpha 90.000000
_cell_angle_beta 90.000000
_cell_angle_gamma 90.000000
_cell_volume 6165.365344
_symmetry_space_group_name_H-M "C M C M"
_symmetry_group_IT_number 63
_symmetry_cell_setting 'orthorhombic'
loop_
_space_group_symop_operation_xyz
x,y,z
-x,-y,1/2+z
x,-y,-z
-x,y,1/2-z
-x,-y,-z
x,y,1/2-z
-x,y,z
x,-y,1/2+z
1/2+x,1/2+y,z
1/2-x,1/2-y,1/2+z
1/2+x,1/2-y,-z
1/2-x,1/2+y,1/2-z
1/2-x,1/2-y,-z
1/2+x,1/2+y,1/2-z
1/2-x,1/2+y,z
1/2+x,1/2-y,1/2+z
loop_
_atom_site_type_symbol
_atom_site_label
_atom_site_fract_x
_atom_site_fract_y
_atom_site_fract_z
Si Si1 0.285313 0.179355 0.811412
Si Si2 0.606471 0.280375 0.981572
Si Si3 0.889140 0.475699 0.187672
Si Si4 0.785562 0.250994 0.585755
Si Si5 0.106895 0.048228 0.449448
Si Si6 0.102567 0.175053 0.189734
Si Si7 0.239673 0.590189 0.372698
O O1 0.241322 0.182229 0.750000
O O2 0.208557 0.203884 0.857984
O O3 0.373143 0.237496 0.815682
O O4 0.326646 0.097870 0.824390
O O5 0.500000 0.245002 0.974256
O O6 0.680996 0.237192 0.942530
O O7 0.605804 0.365701 0.964708
O O8 0.633366 0.276535 0.044654
O O9 0.882507 0.497354 0.250000
O O10 0.847108 0.544395 0.153511
O O11 0.000000 0.462684 0.170556
O O12 0.804587 0.339631 0.594765
O O13 0.193081 0.034291 0.407354
O O14 0.000000 0.024165 0.428138
O O15 0.136923 0.000000 0.500000
O O16 0.084898 0.151609 0.250000
O O17 0.188947 0.123809 0.171183
O O18 0.000000 0.161508 0.158438
#
# Coordination Sequence:
#
# PCOD8257001 Si02
#       7
#    16  16  16  16  16  16  16
#     4   9  18  32  52  75 101 132 170 216 260 302
#     4   9  18  33  52  75 102 132 167 209 256 304
#     4  10  21  35  50  72 103 140 176 208 249 299
#     4   9  19  33  53  78 101 133 171 213 255 304
#     4   9  18  31  49  73  97 125 159 199 250 304
#     4   9  16  28  49  75  98 120 154 203 255 299
#     4  10  19  31  49  72  99 130 163 204 245 300
#
# _framework density 18.165994999999999
#
# number of rings (size 3 to 8) (size 9 to 14) (size 15 to 20)
#    0.000    2.714    0.000    1.286    2.000    6.857 
#    0.000    0.000    0.000    0.857    0.000    2.000 
#    0.000    0.000    0.000    0.000    0.000    0.000 
#
# Total GULP energy -693879.134556 kJ/mol
# GULP energy per Si atom -12390.698831 kJ/mol
# Density = 1.812465 g / cm^3
# Si number density = 18.165995 Si / 1000 Ang^3
#
#
#
# Elastic Constant Matrix: (Units=GPa)
#
#
# Indices 1 2 3 4 5 6 
#
# 1 49.5004 19.9877 22.3764 0.0000 0.0000 0.0000
# 2 19.9877 41.4836 19.0737 0.0000 0.0000 0.0000
# 3 22.3764 19.0737 82.4837 0.0000 0.0000 0.0000
# 4 0.0000 0.0000 0.0000 30.1602 0.0000 0.0000
# 5 0.0000 0.0000 0.0000 0.0000 24.6443 0.0000
# 6 0.0000 0.0000 0.0000 0.0000 0.0000 18.5707
#
#
#
# Elastic Compliance Matrix: (Units=1/GPa)
#
#
# Indices 1 2 3 4 5 6 
#
# 1 0.026659 -0.010652 -0.004769 0.000000 0.000000 0.000000
# 2 -0.010652 0.031230 -0.004332 0.000000 0.000000 0.000000
# 3 -0.004769 -0.004332 0.014419 0.000000 0.000000 0.000000
# 4 0.000000 0.000000 0.000000 0.033156 0.000000 0.000000
# 5 0.000000 0.000000 0.000000 0.000000 0.040577 0.000000
# 6 0.000000 0.000000 0.000000 0.000000 0.000000 0.053848
#
#
# Mechanical properties :
#
#
# Convention : Reuss Voigt Hill
#
# Bulk Modulus (GPa) = 30.48591 32.92705 31.70648
# Shear Modulus (GPa) = 19.97365 22.14370 21.05867
#
# Velocity S-wave (km/s) = 3.31948 3.49515 3.40845
# Velocity P-wave (km/s) = 5.61340 5.86968 5.74297
#
# Compressibility (1/GPa) = 0.03280204
#
# Stress axis : x y z
#
# Youngs Moduli (GPa) = 37.51101 32.02037 69.35267
#
# Poissons Ratio (x) = 0.34109 0.33073
# Poissons Ratio (y) = 0.39957 0.30043
# Poissons Ratio (z) = 0.17889 0.13871
#
# Static dielectric constant tensor:
#      x y z
#    x 3.527890 0.000000 0.000000 
#    y 0.000000 3.222050 0.000000 
#    z 0.000000 0.000000 3.601070 
# 
# 
# High freq. dielectric constant tensor:
#      x y z
#    x 1.685200 0.000000 0.000000 
#    y 0.000000 1.687680 0.000000 
#    z 0.000000 0.000000 1.711580 
# 
# From -- ./inp_files/69426.got.cif
#   From: 2010.03.12/outbox.cif.g09.slc.cpg/sg63_35_cif.got.tgz:69426.got - 2010.04.10 19:34:48.
