data_PCOD8257908
_publ_section_title
;
Structure prediction by ZEFSAII (Michael W. Deem and Ramdas Pophale) SiO2 
 PCOD8257908
Probable space group: C M C M
;
_chemical_formula_sum "Si O2"
_cell_formula_units_Z 96
_cell_length_a 9.316314
_cell_length_b 29.864176
_cell_length_c 18.573539
_cell_angle_alpha 90.000000
_cell_angle_beta 90.000000
_cell_angle_gamma 90.000000
_cell_volume 5167.605076
_symmetry_space_group_name_H-M "C M C M"
_symmetry_group_IT_number 63
_symmetry_cell_setting 'orthorhombic'
loop_
_space_group_symop_operation_xyz
x,y,z
-x,-y,1/2+z
x,-y,-z
-x,y,1/2-z
-x,-y,-z
x,y,1/2-z
-x,y,z
x,-y,1/2+z
1/2+x,1/2+y,z
1/2-x,1/2-y,1/2+z
1/2+x,1/2-y,-z
1/2-x,1/2+y,1/2-z
1/2-x,1/2-y,-z
1/2+x,1/2+y,1/2-z
1/2-x,1/2+y,z
1/2+x,1/2-y,1/2+z
loop_
_atom_site_type_symbol
_atom_site_label
_atom_site_fract_x
_atom_site_fract_y
_atom_site_fract_z
Si Si1 0.166983 0.339127 0.921974
Si Si2 0.333502 0.819733 0.415217
Si Si3 0.330795 0.031004 0.603693
Si Si4 0.664905 0.605580 0.831455
Si Si5 0.831149 0.437409 0.948091
Si Si6 0.332540 0.731108 0.166798
O O1 0.230538 0.389858 0.921238
O O2 0.250076 0.312383 0.860746
O O3 0.000000 0.338615 0.901750
O O4 0.193144 0.316399 0.999566
O O5 0.500000 0.829215 0.397670
O O6 0.242846 0.860389 0.384338
O O7 0.280368 0.774017 0.378504
O O8 0.500000 0.038593 0.615586
O O9 0.241043 0.056951 0.664296
O O10 0.275521 0.050763 0.527617
O O11 0.293102 0.977885 0.606706
O O12 0.678640 0.623141 0.750000
O O13 0.500000 0.601137 0.854862
O O14 0.000000 0.432442 0.955536
O O15 0.294717 0.739422 0.250000
O O16 0.500000 0.722640 0.155071
#
# Coordination Sequence:
#
# PCOD8257908 Si02
#       6
#    16  16  16  16  16  16
#     4  10  19  34  58  86 109 134 177 229 275 318
#     4  10  20  37  60  81 103 139 185 229 271 322
#     4   9  16  32  56  77 103 139 176 217 265 317
#     4  11  23  35  49  77 116 148 178 223 275 326
#     4   8  15  30  55  83 105 129 172 226 265 305
#     4  10  22  38  54  77 110 146 183 220 265 326
#
# _framework density 18.577269999999999
#
# number of rings (size 3 to 8) (size 9 to 14) (size 15 to 20)
#    0.000    2.333    1.667    2.500    0.000    3.667 
#    0.000    3.333    0.000    5.000    0.000    0.000 
#    0.000    0.000    0.000    0.000    0.000    0.000 
#
# Total GULP energy -595146.726982 kJ/mol
# GULP energy per Si atom -12398.890145 kJ/mol
# Density = 1.853499 g / cm^3
# Si number density = 18.577270 Si / 1000 Ang^3
#
#
#
# Elastic Constant Matrix: (Units=GPa)
#
#
# Indices 1 2 3 4 5 6 
#
# 1 56.0723 36.9715 26.1711 0.0000 0.0000 0.0000
# 2 36.9715 135.7769 33.6773 0.0000 0.0000 0.0000
# 3 26.1711 33.6773 48.9315 0.0000 0.0000 0.0000
# 4 0.0000 0.0000 0.0000 23.7893 0.0000 0.0000
# 5 0.0000 0.0000 0.0000 0.0000 28.0880 0.0000
# 6 0.0000 0.0000 0.0000 0.0000 0.0000 24.6725
#
#
#
# Elastic Compliance Matrix: (Units=1/GPa)
#
#
# Indices 1 2 3 4 5 6 
#
# 1 0.025719 -0.004330 -0.010775 0.000000 0.000000 0.000000
# 2 -0.004330 0.009610 -0.004298 0.000000 0.000000 0.000000
# 3 -0.010775 -0.004298 0.029158 0.000000 0.000000 0.000000
# 4 0.000000 0.000000 0.000000 0.042036 0.000000 0.000000
# 5 0.000000 0.000000 0.000000 0.000000 0.035602 0.000000
# 6 0.000000 0.000000 0.000000 0.000000 0.000000 0.040531
#
#
# Mechanical properties :
#
#
# Convention : Reuss Voigt Hill
#
# Bulk Modulus (GPa) = 38.94176 48.26894 43.60535
# Shear Modulus (GPa) = 21.73691 24.90733 23.32212
#
# Velocity S-wave (km/s) = 3.42436 3.66559 3.54702
# Velocity P-wave (km/s) = 6.05330 6.62982 6.34811
#
# Compressibility (1/GPa) = 0.02567938
#
# Stress axis : x y z
#
# Youngs Moduli (GPa) = 38.88236 104.05520 34.29584
#
# Poissons Ratio (x) = 0.45061 0.36954
# Poissons Ratio (y) = 0.16838 0.14741
# Poissons Ratio (z) = 0.41896 0.44725
#
# Static dielectric constant tensor:
#      x y z
#    x 3.164800 0.000000 0.000000 
#    y 0.000000 3.759850 0.000000 
#    z 0.000000 0.000000 3.247130 
# 
# 
# High freq. dielectric constant tensor:
#      x y z
#    x 1.695930 0.000000 0.000000 
#    y 0.000000 1.733470 0.000000 
#    z 0.000000 0.000000 1.704600 
# 
# From -- ./inp_files/51361.got.cif
#   From: 2010.03.12/outbox.cif.g09.slc.cpg/sg63_26_cif.got.tgz:51361.got - 2010.04.10 19:34:48.
