data_PCOD8257759
_publ_section_title
;
Structure prediction by ZEFSAII (Michael W. Deem and Ramdas Pophale) SiO2 
 PCOD8257759
Probable space group: C M C M
;
_chemical_formula_sum "Si O2"
_cell_formula_units_Z 64
_cell_length_a 15.322252
_cell_length_b 22.553343
_cell_length_c 9.428373
_cell_angle_alpha 90.000000
_cell_angle_beta 90.000000
_cell_angle_gamma 90.000000
_cell_volume 3258.144047
_symmetry_space_group_name_H-M "C M C M"
_symmetry_group_IT_number 63
_symmetry_cell_setting 'orthorhombic'
loop_
_space_group_symop_operation_xyz
x,y,z
-x,-y,1/2+z
x,-y,-z
-x,y,1/2-z
-x,-y,-z
x,y,1/2-z
-x,y,z
x,-y,1/2+z
1/2+x,1/2+y,z
1/2-x,1/2-y,1/2+z
1/2+x,1/2-y,-z
1/2-x,1/2+y,1/2-z
1/2-x,1/2-y,-z
1/2+x,1/2+y,1/2-z
1/2-x,1/2+y,z
1/2+x,1/2-y,1/2+z
loop_
_atom_site_type_symbol
_atom_site_label
_atom_site_fract_x
_atom_site_fract_y
_atom_site_fract_z
Si Si1 0.100213 0.890714 0.410685
Si Si2 0.000000 0.439284 0.417126
Si Si3 0.282818 0.694564 0.410974
Si Si4 0.288034 0.500000 0.000000
Si Si5 0.346662 0.090574 0.401117
O O1 0.107709 0.867141 0.250000
O O2 0.137559 0.839766 0.513297
O O3 0.151197 0.953304 0.417393
O O4 0.000000 0.902073 0.454237
O O5 0.000000 0.500000 0.500000
O O6 0.912150 0.406608 0.465910
O O7 0.000000 0.447184 0.250000
O O8 0.311213 0.712341 0.250000
O O9 0.250000 0.750000 0.500000
O O10 0.199667 0.652975 0.405993
O O11 0.223885 0.537476 0.100423
O O12 0.396932 0.084087 0.250000
#
# Coordination Sequence:
#
# PCOD8257759 Si02
#       5
#    16   8  16   8  16
#     4  10  21  37  59  89 123 158 195 239 287 341
#     4  12  24  36  56  84 120 154 192 239 290 347
#     4  10  22  41  64  87 114 152 196 244 294 347
#     4  10  19  33  60  88 120 154 196 229 289 340
#     4  10  21  37  58  85 116 151 194 240 292 344
#
# _framework density 19.643084999999999
#
# number of rings (size 3 to 8) (size 9 to 14) (size 15 to 20)
#    0.000    1.750    1.250    3.000    0.000    6.500 
#    2.250    0.000    0.000    0.000    0.000    0.000 
#    0.000    0.000    0.000    0.000    0.000    0.000 
#
# Total GULP energy -396569.702476 kJ/mol
# GULP energy per Si atom -12392.803202 kJ/mol
# Density = 1.959838 g / cm^3
# Si number density = 19.643085 Si / 1000 Ang^3
#
#
#
# Elastic Constant Matrix: (Units=GPa)
#
#
# Indices 1 2 3 4 5 6 
#
# 1 121.1952 38.9500 64.3576 0.0000 0.0000 0.0000
# 2 38.9500 112.4062 55.3660 0.0000 0.0000 0.0000
# 3 64.3576 55.3660 175.0183 0.0000 0.0000 0.0000
# 4 0.0000 0.0000 0.0000 23.9880 0.0000 0.0000
# 5 0.0000 0.0000 0.0000 0.0000 32.9959 0.0000
# 6 0.0000 0.0000 0.0000 0.0000 0.0000 16.9292
#
#
#
# Elastic Compliance Matrix: (Units=1/GPa)
#
#
# Indices 1 2 3 4 5 6 
#
# 1 0.010651 -0.002087 -0.003256 0.000000 0.000000 0.000000
# 2 -0.002087 0.010947 -0.002696 0.000000 0.000000 0.000000
# 3 -0.003256 -0.002696 0.007764 0.000000 0.000000 0.000000
# 4 0.000000 0.000000 0.000000 0.041688 0.000000 0.000000
# 5 0.000000 0.000000 0.000000 0.000000 0.030307 0.000000
# 6 0.000000 0.000000 0.000000 0.000000 0.000000 0.059070
#
#
# Mechanical properties :
#
#
# Convention : Reuss Voigt Hill
#
# Bulk Modulus (GPa) = 75.27692 80.66298 77.96995
# Shear Modulus (GPa) = 27.63469 31.44569 29.54019
#
# Velocity S-wave (km/s) = 3.75486 4.00541 3.88215
# Velocity P-wave (km/s) = 7.56334 7.90851 7.73785
#
# Compressibility (1/GPa) = 0.01328428
#
# Stress axis : x y z
#
# Youngs Moduli (GPa) = 93.88739 91.34775 128.80058
#
# Poissons Ratio (x) = 0.19062 0.41944
# Poissons Ratio (y) = 0.19592 0.34721
# Poissons Ratio (z) = 0.30574 0.24625
#
# Static dielectric constant tensor:
#      x y z
#    x 3.381440 0.000000 0.000000 
#    y 0.000000 3.573930 0.000000 
#    z 0.000000 0.000000 3.821490 
# 
# 
# High freq. dielectric constant tensor:
#      x y z
#    x 1.767220 0.000000 0.000000 
#    y 0.000000 1.756880 0.000000 
#    z 0.000000 0.000000 1.776530 
# 
# From -- ./inp_files/4339.got.cif
#   From: 2010.03.12/outbox.cif.g09.slc.cpg/sg63_3_cif.got.tgz:4339.got - 2010.04.10 19:34:48.
