data_PCOD8257471
_publ_section_title
;
Structure prediction by ZEFSAII (Michael W. Deem and Ramdas Pophale) SiO2 
 PCOD8257471
Probable space group: C M C M
;
_chemical_formula_sum "Si O2"
_cell_formula_units_Z 104
_cell_length_a 17.581982
_cell_length_b 15.322452
_cell_length_c 20.385303
_cell_angle_alpha 90.000000
_cell_angle_beta 90.000000
_cell_angle_gamma 90.000000
_cell_volume 5491.781777
_symmetry_space_group_name_H-M "C M C M"
_symmetry_group_IT_number 63
_symmetry_cell_setting 'orthorhombic'
loop_
_space_group_symop_operation_xyz
x,y,z
-x,-y,1/2+z
x,-y,-z
-x,y,1/2-z
-x,-y,-z
x,y,1/2-z
-x,y,z
x,-y,1/2+z
1/2+x,1/2+y,z
1/2-x,1/2-y,1/2+z
1/2+x,1/2-y,-z
1/2-x,1/2+y,1/2-z
1/2-x,1/2-y,-z
1/2+x,1/2+y,1/2-z
1/2-x,1/2+y,z
1/2+x,1/2-y,1/2+z
loop_
_atom_site_type_symbol
_atom_site_label
_atom_site_fract_x
_atom_site_fract_y
_atom_site_fract_z
Si Si1 0.329343 0.000000 0.000000
Si Si2 0.588556 0.264390 0.932605
Si Si3 0.193530 0.355334 0.823347
Si Si4 0.192412 0.299436 0.176847
Si Si5 0.737275 0.468038 0.124355
Si Si6 0.410936 0.838256 0.941440
Si Si7 0.586057 0.533924 0.426475
O O1 0.385430 0.068526 0.032474
O O2 0.273676 0.955587 0.052655
O O3 0.500000 0.248099 0.923909
O O4 0.626309 0.203144 0.877348
O O5 0.610678 0.365049 0.924793
O O6 0.613904 0.234827 0.005515
O O7 0.159252 0.354906 0.750000
O O8 0.264079 0.291116 0.829312
O O9 0.222432 0.451904 0.839379
O O10 0.129248 0.319807 0.872372
O O11 0.157211 0.308316 0.250000
O O12 0.249153 0.380358 0.165314
O O13 0.646091 0.482160 0.118684
O O14 0.500000 0.837750 0.928500
O O15 0.589796 0.500000 0.500000
O O16 0.500000 0.521135 0.398790
#
# Coordination Sequence:
#
# PCOD8257471 Si02
#       7
#     8  16  16  16  16  16  16
#     4  10  19  32  57  88 114 148 188 240 291 350
#     4  10  21  39  62  91 121 152 197 252 304 357
#     4  10  23  39  56  83 116 154 201 245 296 361
#     4  11  23  39  60  85 120 160 201 250 296 354
#     4  11  20  36  61  85 118 155 199 247 300 349
#     4  10  21  36  58  84 115 150 188 242 295 350
#     4  10  21  36  58  91 126 154 192 248 308 359
#
# _framework density 18.937387000000001
#
# number of rings (size 3 to 8) (size 9 to 14) (size 15 to 20)
#    0.000    1.692    3.846    0.692    2.154    1.231 
#    0.000    0.000    0.000    4.615    0.000    0.000 
#    0.000    0.000    0.000    0.000    0.000    0.000 
#
# Total GULP energy -644831.819168 kJ/mol
# GULP energy per Si atom -12400.611907 kJ/mol
# Density = 1.889428 g / cm^3
# Si number density = 18.937387 Si / 1000 Ang^3
#
#
#
# Elastic Constant Matrix: (Units=GPa)
#
#
# Indices 1 2 3 4 5 6 
#
# 1 74.9716 22.7197 56.5682 0.0000 0.0000 0.0000
# 2 22.7197 78.7678 29.5171 0.0000 0.0000 0.0000
# 3 56.5682 29.5171 137.9755 0.0000 0.0000 0.0000
# 4 0.0000 0.0000 0.0000 26.2287 0.0000 0.0000
# 5 0.0000 0.0000 0.0000 0.0000 19.1525 0.0000
# 6 0.0000 0.0000 0.0000 0.0000 0.0000 23.1060
#
#
#
# Elastic Compliance Matrix: (Units=1/GPa)
#
#
# Indices 1 2 3 4 5 6 
#
# 1 0.019911 -0.002918 -0.007539 0.000000 0.000000 0.000000
# 2 -0.002918 0.014230 -0.001848 0.000000 0.000000 0.000000
# 3 -0.007539 -0.001848 0.010734 0.000000 0.000000 0.000000
# 4 0.000000 0.000000 0.000000 0.038126 0.000000 0.000000
# 5 0.000000 0.000000 0.000000 0.000000 0.052212 0.000000
# 6 0.000000 0.000000 0.000000 0.000000 0.000000 0.043279
#
#
# Mechanical properties :
#
#
# Convention : Reuss Voigt Hill
#
# Bulk Modulus (GPa) = 49.34636 56.59167 52.96902
# Shear Modulus (GPa) = 23.82578 25.89143 24.85861
#
# Velocity S-wave (km/s) = 3.55087 3.70160 3.62701
# Velocity P-wave (km/s) = 6.55177 6.94388 6.75068
#
# Compressibility (1/GPa) = 0.02026492
#
# Stress axis : x y z
#
# Youngs Moduli (GPa) = 50.22331 70.27582 93.16296
#
# Poissons Ratio (x) = 0.20506 0.70236
# Poissons Ratio (y) = 0.14655 0.17215
# Poissons Ratio (z) = 0.37864 0.12986
#
# Static dielectric constant tensor:
#      x y z
#    x 3.434140 0.000000 0.000000 
#    y 0.000000 3.521280 0.000000 
#    z 0.000000 0.000000 3.586760 
# 
# 
# High freq. dielectric constant tensor:
#      x y z
#    x 1.729490 0.000000 0.000000 
#    y 0.000000 1.742680 0.000000 
#    z 0.000000 0.000000 1.733540 
# 
# From -- ./inp_files/55624.got.cif
#   From: 2010.03.12/outbox.cif.g09.slc.cpg/sg63_28_cif.got.tgz:55624.got - 2010.04.10 19:34:48.
