data_PCOD8257503
_publ_section_title
;
Structure prediction by ZEFSAII (Michael W. Deem and Ramdas Pophale) SiO2 
 PCOD8257503
Probable space group: C M C M
;
_chemical_formula_sum "Si O2"
_cell_formula_units_Z 80
_cell_length_a 14.436161
_cell_length_b 21.876609
_cell_length_c 14.183366
_cell_angle_alpha 90.000000
_cell_angle_beta 90.000000
_cell_angle_gamma 90.000000
_cell_volume 4479.309091
_symmetry_space_group_name_H-M "C M C M"
_symmetry_group_IT_number 63
_symmetry_cell_setting 'orthorhombic'
loop_
_space_group_symop_operation_xyz
x,y,z
-x,-y,1/2+z
x,-y,-z
-x,y,1/2-z
-x,-y,-z
x,y,1/2-z
-x,y,z
x,-y,1/2+z
1/2+x,1/2+y,z
1/2-x,1/2-y,1/2+z
1/2+x,1/2-y,-z
1/2-x,1/2+y,1/2-z
1/2-x,1/2-y,-z
1/2+x,1/2+y,1/2-z
1/2-x,1/2+y,z
1/2+x,1/2-y,1/2+z
loop_
_atom_site_type_symbol
_atom_site_label
_atom_site_fract_x
_atom_site_fract_y
_atom_site_fract_z
Si Si1 0.104640 0.254716 0.352873
Si Si2 0.608966 0.331560 0.355537
Si Si3 0.894844 0.071954 0.009744
Si Si4 0.107072 0.296177 0.552375
Si Si5 0.232893 0.138244 0.355878
O O1 0.117766 0.287045 0.250000
O O2 0.123512 0.300669 0.439336
O O3 0.173004 0.198872 0.362151
O O4 0.000000 0.229109 0.362882
O O5 0.653559 0.334572 0.250000
O O6 0.500000 0.329828 0.344699
O O7 0.638255 0.391248 0.415988
O O8 0.642022 0.269831 0.408607
O O9 0.823506 0.085217 0.093072
O O10 0.000000 0.092408 0.035197
O O11 0.890714 0.000000 0.000000
O O12 0.166844 0.350093 0.597967
O O13 0.000000 0.307224 0.579032
O O14 0.249848 0.116250 0.250000
#
# Coordination Sequence:
#
# PCOD8257503 Si02
#       5
#    16  16  16  16  16
#     4   9  17  29  47  73 104 136 166 200 250 311
#     4   9  17  30  48  70  98 132 167 204 251 308
#     4  10  21  36  52  72 101 136 173 213 258 309
#     4  10  19  33  51  74 107 138 169 211 259 312
#     4  11  21  32  51  77 104 135 174 215 259 308
#
# _framework density 17.859897
#
# number of rings (size 3 to 8) (size 9 to 14) (size 15 to 20)
#    0.000    2.200    2.000    1.800    0.000    3.200 
#    0.000    2.000    0.000    0.600    0.000    0.000 
#    0.000    0.000    0.000    0.000    0.000    0.000 
#
# Total GULP energy -495797.015687 kJ/mol
# GULP energy per Si atom -12394.925392 kJ/mol
# Density = 1.781925 g / cm^3
# Si number density = 17.859897 Si / 1000 Ang^3
#
#
#
# Elastic Constant Matrix: (Units=GPa)
#
#
# Indices 1 2 3 4 5 6 
#
# 1 70.2561 35.4922 48.3622 0.0000 0.0000 0.0000
# 2 35.4922 55.9507 39.5073 0.0000 0.0000 0.0000
# 3 48.3622 39.5073 156.0023 0.0000 0.0000 0.0000
# 4 0.0000 0.0000 0.0000 13.8314 0.0000 0.0000
# 5 0.0000 0.0000 0.0000 0.0000 24.0326 0.0000
# 6 0.0000 0.0000 0.0000 0.0000 0.0000 21.8179
#
#
#
# Elastic Compliance Matrix: (Units=1/GPa)
#
#
# Indices 1 2 3 4 5 6 
#
# 1 0.022987 -0.011629 -0.004181 0.000000 0.000000 0.000000
# 2 -0.011629 0.027648 -0.003397 0.000000 0.000000 0.000000
# 3 -0.004181 -0.003397 0.008567 0.000000 0.000000 0.000000
# 4 0.000000 0.000000 0.000000 0.072299 0.000000 0.000000
# 5 0.000000 0.000000 0.000000 0.000000 0.041610 0.000000
# 6 0.000000 0.000000 0.000000 0.000000 0.000000 0.045834
#
#
# Mechanical properties :
#
#
# Convention : Reuss Voigt Hill
#
# Bulk Modulus (GPa) = 48.10574 58.77029 53.43802
# Shear Modulus (GPa) = 18.91877 22.52621 20.72249
#
# Velocity S-wave (km/s) = 3.25820 3.55529 3.40998
# Velocity P-wave (km/s) = 6.41467 7.05912 6.74460
#
# Compressibility (1/GPa) = 0.02078754
#
# Stress axis : x y z
#
# Youngs Moduli (GPa) = 43.50361 36.16849 116.73363
#
# Poissons Ratio (x) = 0.42061 0.48806
# Poissons Ratio (y) = 0.50592 0.39651
# Poissons Ratio (z) = 0.18189 0.12285
#
# Static dielectric constant tensor:
#      x y z
#    x 3.345330 0.000000 0.000000 
#    y 0.000000 2.832810 0.000000 
#    z 0.000000 0.000000 3.845200 
# 
# 
# High freq. dielectric constant tensor:
#      x y z
#    x 1.687430 0.000000 0.000000 
#    y 0.000000 1.628550 0.000000 
#    z 0.000000 0.000000 1.712300 
# 
# From -- ./inp_files/31621.got.cif
#   From: 2010.03.12/outbox.cif.g09.slc.cpg/sg63_16_cif.got.tgz:31621.got - 2010.04.10 19:34:48.
