data_PCOD8257891
_publ_section_title
;
Structure prediction by ZEFSAII (Michael W. Deem and Ramdas Pophale) SiO2 
 PCOD8257891
Probable space group: C M C M
;
_chemical_formula_sum "Si O2"
_cell_formula_units_Z 64
_cell_length_a 7.683210
_cell_length_b 23.341348
_cell_length_c 19.710081
_cell_angle_alpha 90.000000
_cell_angle_beta 90.000000
_cell_angle_gamma 90.000000
_cell_volume 3534.736515
_symmetry_space_group_name_H-M "C M C M"
_symmetry_group_IT_number 63
_symmetry_cell_setting 'orthorhombic'
loop_
_space_group_symop_operation_xyz
x,y,z
-x,-y,1/2+z
x,-y,-z
-x,y,1/2-z
-x,-y,-z
x,y,1/2-z
-x,y,z
x,-y,1/2+z
1/2+x,1/2+y,z
1/2-x,1/2-y,1/2+z
1/2+x,1/2-y,-z
1/2-x,1/2+y,1/2-z
1/2-x,1/2-y,-z
1/2+x,1/2+y,1/2-z
1/2-x,1/2+y,z
1/2+x,1/2-y,1/2+z
loop_
_atom_site_type_symbol
_atom_site_label
_atom_site_fract_x
_atom_site_fract_y
_atom_site_fract_z
Si Si1 0.500000 0.072796 0.828420
Si Si2 0.000000 0.531170 0.071468
Si Si3 0.693824 0.640595 0.893192
Si Si4 0.798273 0.117547 0.449643
Si Si5 0.200489 0.758084 0.923129
O O1 0.500000 0.057162 0.750000
O O2 0.327716 0.108921 0.844633
O O3 0.500000 0.013561 0.868172
O O4 0.825336 0.568474 0.079285
O O5 0.000000 0.500000 0.000000
O O6 0.500000 0.618505 0.876390
O O7 0.697984 0.709706 0.879929
O O8 0.744101 0.627402 0.971113
O O9 0.757483 0.175449 0.405995
O O10 0.000000 0.099567 0.440431
O O11 0.000000 0.744867 0.911531
O O12 0.250000 0.750000 0.000000
#
# Coordination Sequence:
#
# PCOD8257891 Si02
#       5
#     8   8  16  16  16
#     4  12  26  42  56  80 118 158 198 238 285 350
#     4  12  22  36  60  80 114 160 199 239 285 335
#     4  10  19  34  57  86 118 148 182 236 297 352
#     4   9  19  32  54  91 118 142 183 244 295 335
#     4   9  16  27  50  86 121 142 171 225 288 342
#
# _framework density 18.106016
#
# number of rings (size 3 to 8) (size 9 to 14) (size 15 to 20)
#    0.000    2.000    3.750    2.250    7.000    2.000 
#    0.000    0.000    0.000    1.500    0.000    0.000 
#    0.000    0.000    0.000    0.000    0.000    0.000 
#
# Total GULP energy -396579.037461 kJ/mol
# GULP energy per Si atom -12393.094921 kJ/mol
# Density = 1.806481 g / cm^3
# Si number density = 18.106016 Si / 1000 Ang^3
#
#
#
# Elastic Constant Matrix: (Units=GPa)
#
#
# Indices 1 2 3 4 5 6 
#
# 1 110.4740 67.2958 37.2802 0.0000 0.0000 0.0000
# 2 67.2958 136.1228 50.0948 0.0000 0.0000 0.0000
# 3 37.2802 50.0948 71.3507 0.0000 0.0000 0.0000
# 4 0.0000 0.0000 0.0000 15.0949 0.0000 0.0000
# 5 0.0000 0.0000 0.0000 0.0000 12.4154 0.0000
# 6 0.0000 0.0000 0.0000 0.0000 0.0000 34.0469
#
#
#
# Elastic Compliance Matrix: (Units=1/GPa)
#
#
# Indices 1 2 3 4 5 6 
#
# 1 0.013469 -0.005486 -0.003185 0.000000 0.000000 0.000000
# 2 -0.005486 0.012141 -0.005657 0.000000 0.000000 0.000000
# 3 -0.003185 -0.005657 0.019652 0.000000 0.000000 0.000000
# 4 0.000000 0.000000 0.000000 0.066247 0.000000 0.000000
# 5 0.000000 0.000000 0.000000 0.000000 0.080545 0.000000
# 6 0.000000 0.000000 0.000000 0.000000 0.000000 0.029371
#
#
# Mechanical properties :
#
#
# Convention : Reuss Voigt Hill
#
# Bulk Modulus (GPa) = 60.23040 69.69879 64.96459
# Shear Modulus (GPa) = 19.56049 23.19655 21.37852
#
# Velocity S-wave (km/s) = 3.29040 3.58320 3.43992
# Velocity P-wave (km/s) = 6.91182 7.46308 7.19273
#
# Compressibility (1/GPa) = 0.01660291
#
# Stress axis : x y z
#
# Youngs Moduli (GPa) = 74.24489 82.36843 50.88668
#
# Poissons Ratio (x) = 0.45191 0.16210
# Poissons Ratio (y) = 0.40734 0.28787
# Poissons Ratio (z) = 0.23650 0.46597
#
# Static dielectric constant tensor:
#      x y z
#    x 3.333900 0.000000 0.000000 
#    y 0.000000 3.805760 0.000000 
#    z 0.000000 0.000000 2.531830 
# 
# 
# High freq. dielectric constant tensor:
#      x y z
#    x 1.720210 0.000000 0.000000 
#    y 0.000000 1.715840 0.000000 
#    z 0.000000 0.000000 1.623330 
# 
# From -- ./inp_files/50629.got.cif
#   From: 2010.03.12/outbox.cif.g09.slc.cpg/sg63_26_cif.got.tgz:50629.got - 2010.04.10 19:34:48.
