data_PCOD8257070
_publ_section_title
;
Structure prediction by ZEFSAII (Michael W. Deem and Ramdas Pophale) SiO2 
 PCOD8257070
Probable space group: C M C M
;
_chemical_formula_sum "Si O2"
_cell_formula_units_Z 80
_cell_length_a 25.405533
_cell_length_b 19.880629
_cell_length_c 9.070587
_cell_angle_alpha 90.000000
_cell_angle_beta 90.000000
_cell_angle_gamma 90.000000
_cell_volume 4581.353724
_symmetry_space_group_name_H-M "C M C M"
_symmetry_group_IT_number 63
_symmetry_cell_setting 'orthorhombic'
loop_
_space_group_symop_operation_xyz
x,y,z
-x,-y,1/2+z
x,-y,-z
-x,y,1/2-z
-x,-y,-z
x,y,1/2-z
-x,y,z
x,-y,1/2+z
1/2+x,1/2+y,z
1/2-x,1/2-y,1/2+z
1/2+x,1/2-y,-z
1/2-x,1/2+y,1/2-z
1/2-x,1/2-y,-z
1/2+x,1/2+y,1/2-z
1/2-x,1/2+y,z
1/2+x,1/2-y,1/2+z
loop_
_atom_site_type_symbol
_atom_site_label
_atom_site_fract_x
_atom_site_fract_y
_atom_site_fract_z
Si Si1 0.137699 0.317308 0.577546
Si Si2 0.251966 0.318694 0.582141
Si Si3 0.134500 0.825959 0.576276
Si Si4 0.061433 0.068405 0.578549
Si Si5 0.439868 0.932550 0.577308
O O1 0.129746 0.299107 0.750000
O O2 0.195270 0.353913 0.553086
O O3 0.131103 0.250400 0.481260
O O4 0.094457 0.369937 0.521196
O O5 0.257495 0.298024 0.750000
O O6 0.250000 0.250000 0.500000
O O7 0.306618 0.356929 0.540076
O O8 0.121874 0.827642 0.750000
O O9 0.091984 0.869433 0.490839
O O10 0.075211 0.062203 0.750000
O O11 0.000000 0.081883 0.552120
O O12 0.079643 0.000000 0.500000
O O13 0.432933 0.943215 0.750000
O O14 0.500000 0.917342 0.533172
O O15 0.419344 0.000000 0.500000
#
# Coordination Sequence:
#
# PCOD8257070 Si02
#       5
#    16  16  16  16  16
#     4   9  17  31  50  71  98 131 166 203 241 283
#     4   8  15  28  46  68  96 129 161 195 237 283
#     4  10  19  31  50  76 102 127 160 200 241 288
#     4  10  21  37  55  73  96 128 163 199 243 294
#     4   9  18  32  49  68  92 124 160 198 241 286
#
# _framework density 17.462087
#
# number of rings (size 3 to 8) (size 9 to 14) (size 15 to 20)
#    0.000    2.800    0.000    1.200    0.000    3.600 
#    0.000    3.000    0.000    2.400    0.000    0.000 
#    0.000    0.000    0.000    0.000    0.000    0.000 
#
# Total GULP energy -495563.206740 kJ/mol
# GULP energy per Si atom -12389.080168 kJ/mol
# Density = 1.742234 g / cm^3
# Si number density = 17.462087 Si / 1000 Ang^3
#
#
#
# Elastic Constant Matrix: (Units=GPa)
#
#
# Indices 1 2 3 4 5 6 
#
# 1 105.6439 66.9536 47.3666 0.0000 0.0000 0.0000
# 2 66.9536 92.7422 42.3463 0.0000 0.0000 0.0000
# 3 47.3666 42.3463 69.5227 0.0000 0.0000 0.0000
# 4 0.0000 0.0000 0.0000 30.6223 0.0000 0.0000
# 5 0.0000 0.0000 0.0000 0.0000 17.2343 0.0000
# 6 0.0000 0.0000 0.0000 0.0000 0.0000 5.2462
#
#
#
# Elastic Compliance Matrix: (Units=1/GPa)
#
#
# Indices 1 2 3 4 5 6 
#
# 1 0.019347 -0.011011 -0.006475 0.000000 0.000000 0.000000
# 2 -0.011011 0.021203 -0.005413 0.000000 0.000000 0.000000
# 3 -0.006475 -0.005413 0.022092 0.000000 0.000000 0.000000
# 4 0.000000 0.000000 0.000000 0.032656 0.000000 0.000000
# 5 0.000000 0.000000 0.000000 0.000000 0.058024 0.000000
# 6 0.000000 0.000000 0.000000 0.000000 0.000000 0.190613
#
#
# Mechanical properties :
#
#
# Convention : Reuss Voigt Hill
#
# Bulk Modulus (GPa) = 59.36386 64.58245 61.97316
# Shear Modulus (GPa) = 12.64710 18.03672 15.34191
#
# Velocity S-wave (km/s) = 2.69413 3.21737 2.96731
# Velocity P-wave (km/s) = 6.61418 7.13209 6.87801
#
# Compressibility (1/GPa) = 0.01684526
#
# Stress axis : x y z
#
# Youngs Moduli (GPa) = 51.68726 47.16225 45.26495
#
# Poissons Ratio (x) = 0.51930 0.29307
# Poissons Ratio (y) = 0.56913 0.24502
# Poissons Ratio (z) = 0.33466 0.25529
#
# Static dielectric constant tensor:
#      x y z
#    x 3.980730 0.000000 0.000000 
#    y 0.000000 2.970050 0.000000 
#    z 0.000000 0.000000 3.308870 
# 
# 
# High freq. dielectric constant tensor:
#      x y z
#    x 1.692790 0.000000 0.000000 
#    y 0.000000 1.641810 0.000000 
#    z 0.000000 0.000000 1.681350 
# 
# From -- ./inp_files/11974.got.cif
#   From: 2010.03.12/outbox.cif.g09.slc.cpg/sg63_6_cif.got.tgz:11974.got - 2010.04.10 19:34:48.
