data_PCOD8257968
_publ_section_title
;
Structure prediction by ZEFSAII (Michael W. Deem and Ramdas Pophale) SiO2 
 PCOD8257968
Probable space group: C M C M
;
_chemical_formula_sum "Si O2"
_cell_formula_units_Z 112
_cell_length_a 12.366210
_cell_length_b 26.863539
_cell_length_c 17.657356
_cell_angle_alpha 90.000000
_cell_angle_beta 90.000000
_cell_angle_gamma 90.000000
_cell_volume 5865.776570
_symmetry_space_group_name_H-M "C M C M"
_symmetry_group_IT_number 63
_symmetry_cell_setting 'orthorhombic'
loop_
_space_group_symop_operation_xyz
x,y,z
-x,-y,1/2+z
x,-y,-z
-x,y,1/2-z
-x,-y,-z
x,y,1/2-z
-x,y,z
x,-y,1/2+z
1/2+x,1/2+y,z
1/2-x,1/2-y,1/2+z
1/2+x,1/2-y,-z
1/2-x,1/2+y,1/2-z
1/2-x,1/2-y,-z
1/2+x,1/2+y,1/2-z
1/2-x,1/2+y,z
1/2+x,1/2-y,1/2+z
loop_
_atom_site_type_symbol
_atom_site_label
_atom_site_fract_x
_atom_site_fract_y
_atom_site_fract_z
Si Si1 0.875513 0.445015 0.476154
Si Si2 0.271700 0.976145 0.167095
Si Si3 0.377294 0.566330 0.338372
Si Si4 0.372208 0.788729 0.663092
Si Si5 0.628952 0.696528 0.941278
Si Si6 0.255891 0.639597 0.435183
Si Si7 0.879745 0.886366 0.332328
O O1 0.836374 0.500000 0.500000
O O2 0.860952 0.449710 0.385512
O O3 0.804771 0.400850 0.511816
O O4 0.000000 0.434742 0.497004
O O5 0.325061 0.983946 0.250000
O O6 0.171453 0.939782 0.172053
O O7 0.216452 0.027098 0.138082
O O8 0.365864 0.580106 0.250000
O O9 0.500000 0.547589 0.354981
O O10 0.355101 0.614134 0.390763
O O11 0.330458 0.780517 0.750000
O O12 0.500000 0.793100 0.664448
O O13 0.335307 0.745056 0.605695
O O14 0.326094 0.839749 0.628210
O O15 0.500000 0.697076 0.955521
O O16 0.673317 0.650558 0.891862
O O17 0.694504 0.687104 0.019059
O O18 0.876741 0.859974 0.250000
O O19 0.000000 0.896303 0.360166
#
# Coordination Sequence:
#
# PCOD8257968 Si02
#       7
#    16  16  16  16  16  16  16
#     4  11  23  39  55  78 113 152 193 238 280 318
#     4  10  19  35  55  79 111 152 190 221 269 328
#     4  10  21  36  55  82 116 149 182 224 272 329
#     4  10  22  40  60  82 108 142 187 235 277 323
#     4  10  20  34  56  85 114 141 177 227 284 337
#     4  12  21  37  58  84 111 149 185 227 279 341
#     4   9  16  28  50  80 112 145 180 219 267 327
#
# _framework density 19.093805
#
# number of rings (size 3 to 8) (size 9 to 14) (size 15 to 20)
#    0.000    1.714    2.857    2.571    0.000    3.714 
#    0.000    0.714    0.000    0.000    0.000    0.000 
#    0.000    0.000    0.000    0.000    0.000    0.000 
#
# Total GULP energy -693766.752680 kJ/mol
# GULP energy per Si atom -12388.692012 kJ/mol
# Density = 1.905035 g / cm^3
# Si number density = 19.093805 Si / 1000 Ang^3
#
#
#
# Elastic Constant Matrix: (Units=GPa)
#
#
# Indices 1 2 3 4 5 6 
#
# 1 45.3737 25.9396 34.4337 0.0000 0.0000 0.0000
# 2 25.9396 75.1257 41.1586 0.0000 0.0000 0.0000
# 3 34.4337 41.1586 100.2609 0.0000 0.0000 0.0000
# 4 0.0000 0.0000 0.0000 36.7912 0.0000 0.0000
# 5 0.0000 0.0000 0.0000 0.0000 29.2776 0.0000
# 6 0.0000 0.0000 0.0000 0.0000 0.0000 28.1403
#
#
#
# Elastic Compliance Matrix: (Units=1/GPa)
#
#
# Indices 1 2 3 4 5 6 
#
# 1 0.032098 -0.006507 -0.008353 0.000000 0.000000 0.000000
# 2 -0.006507 0.018492 -0.005357 0.000000 0.000000 0.000000
# 3 -0.008353 -0.005357 0.015042 0.000000 0.000000 0.000000
# 4 0.000000 0.000000 0.000000 0.027180 0.000000 0.000000
# 5 0.000000 0.000000 0.000000 0.000000 0.034156 0.000000
# 6 0.000000 0.000000 0.000000 0.000000 0.000000 0.035536
#
#
# Mechanical properties :
#
#
# Convention : Reuss Voigt Hill
#
# Bulk Modulus (GPa) = 39.68302 47.09159 43.38730
# Shear Modulus (GPa) = 23.65896 26.79036 25.22466
#
# Velocity S-wave (km/s) = 3.52389 3.74985 3.63863
# Velocity P-wave (km/s) = 6.11436 6.59282 6.35809
#
# Compressibility (1/GPa) = 0.02519969
#
# Stress axis : x y z
#
# Youngs Moduli (GPa) = 31.15485 54.07602 66.48221
#
# Poissons Ratio (x) = 0.35186 0.55530
# Poissons Ratio (y) = 0.20272 0.35613
# Poissons Ratio (z) = 0.26022 0.28967
#
# Static dielectric constant tensor:
#      x y z
#    x 3.162900 0.000000 0.000000 
#    y 0.000000 3.459580 0.000000 
#    z 0.000000 0.000000 3.897120 
# 
# 
# High freq. dielectric constant tensor:
#      x y z
#    x 1.720340 0.000000 0.000000 
#    y 0.000000 1.738010 0.000000 
#    z 0.000000 0.000000 1.755380 
# 
# From -- ./inp_files/32289.got.cif
#   From: 2010.03.12/outbox.cif.g09.slc.cpg/sg63_17_cif.got.tgz:32289.got - 2010.04.10 19:34:48.
