data_PCOD8257993
_publ_section_title
;
Structure prediction by ZEFSAII (Michael W. Deem and Ramdas Pophale) SiO2 
 PCOD8257993
Probable space group: C M C M
;
_chemical_formula_sum "Si O2"
_cell_formula_units_Z 80
_cell_length_a 20.393059
_cell_length_b 22.978848
_cell_length_c 9.030964
_cell_angle_alpha 90.000000
_cell_angle_beta 90.000000
_cell_angle_gamma 90.000000
_cell_volume 4231.991036
_symmetry_space_group_name_H-M "C M C M"
_symmetry_group_IT_number 63
_symmetry_cell_setting 'orthorhombic'
loop_
_space_group_symop_operation_xyz
x,y,z
-x,-y,1/2+z
x,-y,-z
-x,y,1/2-z
-x,-y,-z
x,y,1/2-z
-x,y,z
x,-y,1/2+z
1/2+x,1/2+y,z
1/2-x,1/2-y,1/2+z
1/2+x,1/2-y,-z
1/2-x,1/2+y,1/2-z
1/2-x,1/2-y,-z
1/2+x,1/2+y,1/2-z
1/2-x,1/2+y,z
1/2+x,1/2-y,1/2+z
loop_
_atom_site_type_symbol
_atom_site_label
_atom_site_fract_x
_atom_site_fract_y
_atom_site_fract_z
Si Si1 0.864970 0.380938 0.922940
Si Si2 0.753120 0.940745 0.424490
Si Si3 0.500000 0.061752 0.077664
Si Si4 0.500000 0.436292 0.427904
Si Si5 0.875278 0.134957 0.923925
Si Si6 0.679795 0.246007 0.075865
O O1 0.850633 0.391022 0.750000
O O2 0.937646 0.399902 0.968557
O O3 0.856135 0.313663 0.966970
O O4 0.816954 0.420978 0.016828
O O5 0.749065 0.949555 0.250000
O O6 0.807481 0.894420 0.472980
O O7 0.775029 0.000000 0.500000
O O8 0.500000 0.048345 0.250000
O O9 0.500000 0.000000 0.000000
O O10 0.500000 0.500000 0.500000
O O11 0.500000 0.443160 0.250000
O O12 0.562552 0.399821 0.489555
O O13 0.884433 0.132896 0.750000
O O14 0.868865 0.201994 0.978061
O O15 0.692586 0.251570 0.250000
O O16 0.750000 0.250000 0.000000
#
# Coordination Sequence:
#
# PCOD8257993 Si02
#       6
#    16  16   8   8  16  16
#     4  10  21  36  57  82 109 143 183 227 276 327
#     4  11  21  34  53  79 110 142 185 230 272 325
#     4  10  22  39  55  79 111 144 183 226 274 325
#     4  10  20  37  57  79 111 148 185 226 273 326
#     4   9  19  34  55  81 109 143 181 223 273 324
#     4  10  19  35  57  83 112 142 180 227 276 327
#
# _framework density 18.903632999999999
#
# number of rings (size 3 to 8) (size 9 to 14) (size 15 to 20)
#    0.000    2.000    2.000    1.800    0.000    3.200 
#    0.000    6.000    0.000    0.000    0.000    2.800 
#    0.000    0.000    0.000    0.000    0.000    0.000 
#
# Total GULP energy -495983.614851 kJ/mol
# GULP energy per Si atom -12399.590371 kJ/mol
# Density = 1.886061 g / cm^3
# Si number density = 18.903633 Si / 1000 Ang^3
#
#
#
# Elastic Constant Matrix: (Units=GPa)
#
#
# Indices 1 2 3 4 5 6 
#
# 1 133.8968 55.2761 30.4673 0.0000 0.0000 0.0000
# 2 55.2761 145.6847 32.2586 0.0000 0.0000 0.0000
# 3 30.4673 32.2586 37.9442 0.0000 0.0000 0.0000
# 4 0.0000 0.0000 0.0000 24.9640 0.0000 0.0000
# 5 0.0000 0.0000 0.0000 0.0000 24.9328 0.0000
# 6 0.0000 0.0000 0.0000 0.0000 0.0000 110.6782
#
#
#
# Elastic Compliance Matrix: (Units=1/GPa)
#
#
# Indices 1 2 3 4 5 6 
#
# 1 0.009791 -0.002432 -0.005794 0.000000 0.000000 0.000000
# 2 -0.002432 0.009060 -0.005750 0.000000 0.000000 0.000000
# 3 -0.005794 -0.005750 0.035895 0.000000 0.000000 0.000000
# 4 0.000000 0.000000 0.000000 0.040058 0.000000 0.000000
# 5 0.000000 0.000000 0.000000 0.000000 0.040108 0.000000
# 6 0.000000 0.000000 0.000000 0.000000 0.000000 0.009035
#
#
# Mechanical properties :
#
#
# Convention : Reuss Voigt Hill
#
# Bulk Modulus (GPa) = 37.32112 61.50327 49.41220
# Shear Modulus (GPa) = 27.65039 45.41658 36.53348
#
# Velocity S-wave (km/s) = 3.82868 4.90688 4.40092
# Velocity P-wave (km/s) = 6.27142 8.04420 7.21248
#
# Compressibility (1/GPa) = 0.02679448
#
# Stress axis : x y z
#
# Youngs Moduli (GPa) = 102.13695 110.37520 27.85904
#
# Poissons Ratio (x) = 0.26842 0.16142
# Poissons Ratio (y) = 0.24839 0.16018
# Poissons Ratio (z) = 0.59178 0.63463
#
# Static dielectric constant tensor:
#      x y z
#    x 3.769230 0.000000 0.000000 
#    y 0.000000 3.529960 0.000000 
#    z 0.000000 0.000000 3.248760 
# 
# 
# High freq. dielectric constant tensor:
#      x y z
#    x 1.739090 0.000000 0.000000 
#    y 0.000000 1.754860 0.000000 
#    z 0.000000 0.000000 1.709100 
# 
# From -- ./inp_files/8093.got.cif
#   From: 2010.03.12/outbox.cif.g09.slc.cpg/sg63_5_cif.got.tgz:8093.got - 2010.04.10 19:34:48.
