data_PCOD8257096
_publ_section_title
;
Structure prediction by ZEFSAII (Michael W. Deem and Ramdas Pophale) SiO2 
 PCOD8257096
Probable space group: C M C M
;
_chemical_formula_sum "Si O2"
_cell_formula_units_Z 96
_cell_length_a 24.164705
_cell_length_b 14.723199
_cell_length_c 13.727598
_cell_angle_alpha 90.000000
_cell_angle_beta 90.000000
_cell_angle_gamma 90.000000
_cell_volume 4884.028984
_symmetry_space_group_name_H-M "C M C M"
_symmetry_group_IT_number 63
_symmetry_cell_setting 'orthorhombic'
loop_
_space_group_symop_operation_xyz
x,y,z
-x,-y,1/2+z
x,-y,-z
-x,y,1/2-z
-x,-y,-z
x,y,1/2-z
-x,y,z
x,-y,1/2+z
1/2+x,1/2+y,z
1/2-x,1/2-y,1/2+z
1/2+x,1/2-y,-z
1/2-x,1/2+y,1/2-z
1/2-x,1/2-y,-z
1/2+x,1/2+y,1/2-z
1/2-x,1/2+y,z
1/2+x,1/2-y,1/2+z
loop_
_atom_site_type_symbol
_atom_site_label
_atom_site_fract_x
_atom_site_fract_y
_atom_site_fract_z
Si Si1 0.242921 0.823431 0.637540
Si Si2 0.371830 0.921447 0.069793
Si Si3 0.061783 0.416198 0.250000
Si Si4 0.062925 0.200675 0.250000
Si Si5 0.242022 0.527138 0.638410
Si Si6 0.126728 0.781923 0.556825
Si Si7 0.334362 0.328526 0.360799
O O1 0.225245 0.828378 0.750000
O O2 0.191857 0.781171 0.579849
O O3 0.296695 0.760996 0.624262
O O4 0.253959 0.924864 0.595916
O O5 0.404717 0.956606 0.161855
O O6 0.305752 0.918167 0.083391
O O7 0.393095 0.821430 0.040646
O O8 0.391031 0.000000 0.000000
O O9 0.063182 0.307874 0.250000
O O10 0.000000 0.454373 0.250000
O O11 0.093477 0.170101 0.352252
O O12 0.000000 0.161808 0.250000
O O13 0.224200 0.522807 0.750000
O O14 0.299543 0.579526 0.625653
O O15 0.119839 0.829146 0.448905
O O16 0.359905 0.327024 0.250000
#
# Coordination Sequence:
#
# PCOD8257096 Si02
#       7
#    16  16   8   8  16  16  16
#     4  10  19  31  50  79 112 151 186 224 266 327
#     4  11  21  32  52  79 103 145 185 223 272 325
#     4   9  20  38  55  72 102 139 186 241 280 311
#     4   9  20  38  63  84 100 133 190 247 284 313
#     4  10  20  32  48  75 116 151 183 213 265 336
#     4  11  20  35  55  78 110 144 182 231 278 316
#     4  10  21  33  48  75 118 158 180 211 268 333
#
# _framework density 19.655904
#
# number of rings (size 3 to 8) (size 9 to 14) (size 15 to 20)
#    0.000    1.833    3.333    1.500    2.333    0.333 
#    1.500    0.000    0.000    0.500    0.000    2.333 
#    0.000    0.000    0.000    0.167    0.000    0.000 
#
# Total GULP energy -594726.975215 kJ/mol
# GULP energy per Si atom -12390.145317 kJ/mol
# Density = 1.961117 g / cm^3
# Si number density = 19.655904 Si / 1000 Ang^3
#
#
#
# Elastic Constant Matrix: (Units=GPa)
#
#
# Indices 1 2 3 4 5 6 
#
# 1 53.0518 0.0149 48.9740 0.0000 0.0000 0.0000
# 2 0.0149 74.7875 12.9935 0.0000 0.0000 0.0000
# 3 48.9740 12.9935 154.2233 0.0000 0.0000 0.0000
# 4 0.0000 0.0000 0.0000 26.4526 0.0000 0.0000
# 5 0.0000 0.0000 0.0000 0.0000********** 0.0000
# 6 0.0000 0.0000 0.0000 0.0000 0.0000 7.5760
#
#
#
# Elastic Compliance Matrix: (Units=1/GPa)
#
#
# Indices 1 2 3 4 5 6 
#
# 1 0.026831 0.001497 -0.008646 0.000000 0.000000 0.000000
# 2 0.001497 0.013653 -0.001626 0.000000 0.000000 0.000000
# 3 -0.008646 -0.001626 0.009367 0.000000 0.000000 0.000000
# 4 0.000000 0.000000 0.000000 0.037803 0.000000 0.000000
# 5 0.000000 0.000000 0.000000 0.000000 -0.000042 0.000000
# 6 0.000000 0.000000 0.000000 0.000000 0.000000 0.131996
#
#
# Mechanical properties :
#
#
# Convention : Reuss Voigt Hill
#
# Bulk Modulus (GPa) = 30.95912 45.11416 38.03664
# Shear Modulus (GPa) = 20.16730 -4783.53027 -2381.68149
#
# Velocity S-wave (km/s) = 3.20663 -49.38541 -34.84707
# Velocity P-wave (km/s) = 5.43090 56.82332 39.99622
#
# Compressibility (1/GPa) = 0.03230066
#
# Stress axis : x y z
#
# Youngs Moduli (GPa) = 37.27067 73.24206 106.76100
#
# Poissons Ratio (x) = -0.10963 0.92309
# Poissons Ratio (y) = -0.05579 0.17355
# Poissons Ratio (z) = 0.32225 0.11907
#
# Static dielectric constant tensor:
#      x y z
#    x 3.233320 0.000000 0.000000 
#    y 0.000000 3.451510 0.000000 
#    z 0.000000 0.000000 4.070000 
# 
# 
# High freq. dielectric constant tensor:
#      x y z
#    x 1.702570 0.000000 0.000000 
#    y 0.000000 1.747430 0.000000 
#    z 0.000000 0.000000 1.794010 
# 
# From -- ./inp_files/37877.got.cif
#   From: 2010.03.12/outbox.cif.g09.slc.cpg/sg63_19_cif.got.tgz:37877.got - 2010.04.10 19:34:48.
