data_PCOD8257886
_publ_section_title
;
Structure prediction by ZEFSAII (Michael W. Deem and Ramdas Pophale) SiO2 
 PCOD8257886
Probable space group: C M C M
;
_chemical_formula_sum "Si O2"
_cell_formula_units_Z 64
_cell_length_a 8.593652
_cell_length_b 20.009468
_cell_length_c 19.710137
_cell_angle_alpha 90.000000
_cell_angle_beta 90.000000
_cell_angle_gamma 90.000000
_cell_volume 3389.244874
_symmetry_space_group_name_H-M "C M C M"
_symmetry_group_IT_number 63
_symmetry_cell_setting 'orthorhombic'
loop_
_space_group_symop_operation_xyz
x,y,z
-x,-y,1/2+z
x,-y,-z
-x,y,1/2-z
-x,-y,-z
x,y,1/2-z
-x,y,z
x,-y,1/2+z
1/2+x,1/2+y,z
1/2-x,1/2-y,1/2+z
1/2+x,1/2-y,-z
1/2-x,1/2+y,1/2-z
1/2-x,1/2-y,-z
1/2+x,1/2+y,1/2-z
1/2-x,1/2+y,z
1/2+x,1/2-y,1/2+z
loop_
_atom_site_type_symbol
_atom_site_label
_atom_site_fract_x
_atom_site_fract_y
_atom_site_fract_z
Si Si1 0.682538 0.083664 0.560071
Si Si2 0.320140 0.447894 0.582303
Si Si3 0.681756 0.276583 0.070033
Si Si4 0.179867 0.174823 0.327832
O O1 0.500000 0.077962 0.570701
O O2 0.721834 0.080768 0.480425
O O3 0.742415 0.153032 0.590907
O O4 0.764078 0.022653 0.600291
O O5 0.500000 0.448830 0.560570
O O6 0.291428 0.400800 0.646880
O O7 0.500000 0.286616 0.059714
O O8 0.713841 0.225396 0.130453
O O9 0.750000 0.250000 0.000000
O O10 0.231412 0.178210 0.250000
O O11 0.000000 0.194991 0.337708
#
# Coordination Sequence:
#
# PCOD8257886 Si02
#       4
#    16  16  16  16
#     4  11  21  34  56  85 117 149 191 245 291 340
#     4  10  19  34  57  84 116 151 190 238 289 350
#     4  12  23  37  59  87 118 154 198 247 296 351
#     4  10  22  40  61  86 119 157 194 238 297 359
#
# _framework density 18.88326
#
# number of rings (size 3 to 8) (size 9 to 14) (size 15 to 20)
#    0.000    1.250    2.500    6.750    0.000    1.500 
#    0.000    1.250    0.000    4.500    0.000    0.000 
#    0.000    0.000    0.000    0.000    0.000    0.000 
#
# Total GULP energy -396935.949413 kJ/mol
# GULP energy per Si atom -12404.248419 kJ/mol
# Density = 1.884028 g / cm^3
# Si number density = 18.883260 Si / 1000 Ang^3
#
#
#
# Elastic Constant Matrix: (Units=GPa)
#
#
# Indices 1 2 3 4 5 6 
#
# 1 90.1116 39.5973 23.5529 0.0000 0.0000 0.0000
# 2 39.5973 145.2640 48.2287 0.0000 0.0000 0.0000
# 3 23.5529 48.2287 92.6313 0.0000 0.0000 0.0000
# 4 0.0000 0.0000 0.0000 27.3377 0.0000 0.0000
# 5 0.0000 0.0000 0.0000 0.0000 22.9785 0.0000
# 6 0.0000 0.0000 0.0000 0.0000 0.0000 35.9233
#
#
#
# Elastic Compliance Matrix: (Units=1/GPa)
#
#
# Indices 1 2 3 4 5 6 
#
# 1 0.012836 -0.002920 -0.001743 0.000000 0.000000 0.000000
# 2 -0.002920 0.008987 -0.003937 0.000000 0.000000 0.000000
# 3 -0.001743 -0.003937 0.013288 0.000000 0.000000 0.000000
# 4 0.000000 0.000000 0.000000 0.036579 0.000000 0.000000
# 5 0.000000 0.000000 0.000000 0.000000 0.043519 0.000000
# 6 0.000000 0.000000 0.000000 0.000000 0.000000 0.027837
#
#
# Mechanical properties :
#
#
# Convention : Reuss Voigt Hill
#
# Bulk Modulus (GPa) = 55.83090 61.19607 58.51348
# Shear Modulus (GPa) = 30.08098 31.68976 30.88537
#
# Velocity S-wave (km/s) = 3.99557 4.10102 4.04864
# Velocity P-wave (km/s) = 7.13559 7.40962 7.27389
#
# Compressibility (1/GPa) = 0.01791123
#
# Stress axis : x y z
#
# Youngs Moduli (GPa) = 77.90441 111.27170 75.25369
#
# Poissons Ratio (x) = 0.32493 0.13120
# Poissons Ratio (y) = 0.22750 0.29624
# Poissons Ratio (z) = 0.13582 0.43803
#
# Static dielectric constant tensor:
#      x y z
#    x 3.535850 0.000000 0.000000 
#    y 0.000000 3.839100 0.000000 
#    z 0.000000 0.000000 3.202790 
# 
# 
# High freq. dielectric constant tensor:
#      x y z
#    x 1.746050 0.000000 0.000000 
#    y 0.000000 1.753180 0.000000 
#    z 0.000000 0.000000 1.696360 
# 
# From -- ./inp_files/40102.got.cif
#   From: 2010.03.12/outbox.cif.g09.slc.cpg/sg63_21_cif.got.tgz:40102.got - 2010.04.10 19:34:48.
