data_PCOD8257310
_publ_section_title
;
Structure prediction by ZEFSAII (Michael W. Deem and Ramdas Pophale) SiO2 
 PCOD8257310
Probable space group: C M C M
;
_chemical_formula_sum "Si O2"
_cell_formula_units_Z 96
_cell_length_a 14.175821
_cell_length_b 14.544384
_cell_length_c 25.160675
_cell_angle_alpha 90.000000
_cell_angle_beta 90.000000
_cell_angle_gamma 90.000000
_cell_volume 5187.592347
_symmetry_space_group_name_H-M "C M C M"
_symmetry_group_IT_number 63
_symmetry_cell_setting 'orthorhombic'
loop_
_space_group_symop_operation_xyz
x,y,z
-x,-y,1/2+z
x,-y,-z
-x,y,1/2-z
-x,-y,-z
x,y,1/2-z
-x,y,z
x,-y,1/2+z
1/2+x,1/2+y,z
1/2-x,1/2-y,1/2+z
1/2+x,1/2-y,-z
1/2-x,1/2+y,1/2-z
1/2-x,1/2-y,-z
1/2+x,1/2+y,1/2-z
1/2-x,1/2+y,z
1/2+x,1/2-y,1/2+z
loop_
_atom_site_type_symbol
_atom_site_label
_atom_site_fract_x
_atom_site_fract_y
_atom_site_fract_z
Si Si1 0.606527 0.951771 0.688109
Si Si2 0.605689 0.526732 0.900005
Si Si3 0.893773 0.823494 0.575434
Si Si4 0.283334 0.216640 0.136317
Si Si5 0.766225 0.087072 0.811645
Si Si6 0.389083 0.706449 0.958125
O O1 0.598161 0.932831 0.750000
O O2 0.500000 0.955610 0.663545
O O3 0.668721 0.868249 0.665725
O O4 0.659551 0.049508 0.677514
O O5 0.500000 0.549390 0.881437
O O6 0.610709 0.432851 0.932806
O O7 0.666374 0.521578 0.846177
O O8 0.643269 0.604968 0.939766
O O9 0.827163 0.796490 0.624198
O O10 0.860995 0.777742 0.519698
O O11 0.000000 0.792261 0.590108
O O12 0.286188 0.307768 0.172160
O O13 0.336487 0.221806 0.079737
O O14 0.792438 0.075387 0.750000
O O15 0.500000 0.720243 0.951108
#
# Coordination Sequence:
#
# PCOD8257310 Si02
#       6
#    16  16  16  16  16  16
#     4  10  21  38  58  78 105 143 184 226 275 329
#     4   9  17  32  53  78 104 136 172 213 266 319
#     4  10  19  32  51  77 109 142 174 213 265 322
#     4  11  20  34  56  81 106 142 184 227 265 322
#     4  10  21  36  54  78 107 138 176 225 275 323
#     4   9  18  31  51  79 108 137 175 220 264 315
#
# _framework density 18.505693999999998
#
# number of rings (size 3 to 8) (size 9 to 14) (size 15 to 20)
#    0.000    2.167    1.667    2.000    0.000    3.667 
#    0.000    0.000    0.000    1.500    0.000    5.833 
#    0.000    0.000    0.000    0.000    0.000    0.000 
#
# Total GULP energy -594927.565243 kJ/mol
# GULP energy per Si atom -12394.324276 kJ/mol
# Density = 1.846357 g / cm^3
# Si number density = 18.505694 Si / 1000 Ang^3
#
#
#
# Elastic Constant Matrix: (Units=GPa)
#
#
# Indices 1 2 3 4 5 6 
#
# 1 80.5576 8.3074 40.3887 0.0000 0.0000 0.0000
# 2 8.3074 38.3639 4.6337 0.0000 0.0000 0.0000
# 3 40.3887 4.6337 59.8291 0.0000 0.0000 0.0000
# 4 0.0000 0.0000 0.0000 17.7179 0.0000 0.0000
# 5 0.0000 0.0000 0.0000 0.0000 32.6443 0.0000
# 6 0.0000 0.0000 0.0000 0.0000 0.0000 23.4151
#
#
#
# Elastic Compliance Matrix: (Units=1/GPa)
#
#
# Indices 1 2 3 4 5 6 
#
# 1 0.019016 -0.002592 -0.012637 0.000000 0.000000 0.000000
# 2 -0.002592 0.026665 -0.000316 0.000000 0.000000 0.000000
# 3 -0.012637 -0.000316 0.025269 0.000000 0.000000 0.000000
# 4 0.000000 0.000000 0.000000 0.056440 0.000000 0.000000
# 5 0.000000 0.000000 0.000000 0.000000 0.030633 0.000000
# 6 0.000000 0.000000 0.000000 0.000000 0.000000 0.042707
#
#
# Mechanical properties :
#
#
# Convention : Reuss Voigt Hill
#
# Bulk Modulus (GPa) = 25.08572 31.71224 28.39898
# Shear Modulus (GPa) = 20.39925 23.11686 21.75805
#
# Velocity S-wave (km/s) = 3.32373 3.53820 3.43264
# Velocity P-wave (km/s) = 5.32115 5.81941 5.57585
#
# Compressibility (1/GPa) = 0.03986332
#
# Stress axis : x y z
#
# Youngs Moduli (GPa) = 52.58670 37.50168 39.57379
#
# Poissons Ratio (x) = 0.09719 0.50008
# Poissons Ratio (y) = 0.13628 0.01250
# Poissons Ratio (z) = 0.66451 0.01184
#
# Static dielectric constant tensor:
#      x y z
#    x 3.580180 0.000000 0.000000 
#    y 0.000000 3.254860 0.000000 
#    z 0.000000 0.000000 3.338460 
# 
# 
# High freq. dielectric constant tensor:
#      x y z
#    x 1.723180 0.000000 0.000000 
#    y 0.000000 1.704850 0.000000 
#    z 0.000000 0.000000 1.712750 
# 
# From -- ./inp_files/54165.got.cif
#   From: 2010.03.12/outbox.cif.g09.slc.cpg/sg63_28_cif.got.tgz:54165.got - 2010.04.10 19:34:48.
