data_PCOD8257755
_publ_section_title
;
Structure prediction by ZEFSAII (Michael W. Deem and Ramdas Pophale) SiO2 
 PCOD8257755
Probable space group: C M C M
;
_chemical_formula_sum "Si O2"
_cell_formula_units_Z 76
_cell_length_a 12.174792
_cell_length_b 14.455182
_cell_length_c 23.661483
_cell_angle_alpha 90.000000
_cell_angle_beta 90.000000
_cell_angle_gamma 90.000000
_cell_volume 4164.156808
_symmetry_space_group_name_H-M "C M C M"
_symmetry_group_IT_number 63
_symmetry_cell_setting 'orthorhombic'
loop_
_space_group_symop_operation_xyz
x,y,z
-x,-y,1/2+z
x,-y,-z
-x,y,1/2-z
-x,-y,-z
x,y,1/2-z
-x,y,z
x,-y,1/2+z
1/2+x,1/2+y,z
1/2-x,1/2-y,1/2+z
1/2+x,1/2-y,-z
1/2-x,1/2+y,1/2-z
1/2-x,1/2-y,-z
1/2+x,1/2+y,1/2-z
1/2-x,1/2+y,z
1/2+x,1/2-y,1/2+z
loop_
_atom_site_type_symbol
_atom_site_label
_atom_site_fract_x
_atom_site_fract_y
_atom_site_fract_z
Si Si1 0.500000 0.077585 0.750000
Si Si2 0.627229 0.687234 0.869845
Si Si3 0.711827 0.947032 0.750000
Si Si4 0.000000 0.241356 0.312287
Si Si5 0.627388 0.498482 0.065110
Si Si6 0.627885 0.390494 0.250000
Si Si7 0.719533 0.655193 0.358939
O O1 0.605614 0.012266 0.750000
O O2 0.500000 0.145868 0.805181
O O3 0.500000 0.714407 0.873018
O O4 0.654216 0.601830 0.910208
O O5 0.663753 0.665450 0.805435
O O6 0.699758 0.773181 0.890473
O O7 0.820480 0.008532 0.750000
O O8 0.714786 0.881936 0.804610
O O9 0.892882 0.207878 0.345057
O O10 0.000000 0.194662 0.250000
O O11 0.500000 0.523410 0.073675
O O12 0.699767 0.572471 0.097911
O O13 0.661646 0.500000 0.000000
O O14 0.500000 0.411392 0.250000
#
# Coordination Sequence:
#
# PCOD8257755 Si02
#       7
#     4  16   8   8  16   8  16
#     4  10  24  38  52  84 134 156 180 228 286 354
#     4  10  22  38  58  85 120 146 188 238 282 345
#     4  12  22  33  60  86 120 156 186 223 288 351
#     4  10  22  36  53  86 118 146 189 237 278 345
#     4  10  22  40  61  85 110 149 201 246 287 331
#     4  10  19  33  59  85 113 149 188 230 279 334
#     4  12  22  36  62  85 115 154 193 231 291 344
#
# _framework density 18.250993000000001
#
# number of rings (size 3 to 8) (size 9 to 14) (size 15 to 20)
#    0.316    1.053    4.211    1.895    2.947    0.842 
#    0.000    0.000    0.000    0.632    0.000    0.000 
#    0.000    0.000    0.000    0.000    0.000    0.000 
#
# Total GULP energy -471288.998978 kJ/mol
# GULP energy per Si atom -12402.342078 kJ/mol
# Density = 1.820945 g / cm^3
# Si number density = 18.250993 Si / 1000 Ang^3
#
#
#
# Elastic Constant Matrix: (Units=GPa)
#
#
# Indices 1 2 3 4 5 6 
#
# 1 75.7092 65.4452 37.8693 0.0000 0.0000 0.0000
# 2 65.4452 118.1002 54.9540 0.0000 0.0000 0.0000
# 3 37.8693 54.9540 112.5378 0.0000 0.0000 0.0000
# 4 0.0000 0.0000 0.0000 -8.7889 0.0000 0.0000
# 5 0.0000 0.0000 0.0000 0.0000 3.8382 0.0000
# 6 0.0000 0.0000 0.0000 0.0000 0.0000 35.9472
#
#
#
# Elastic Compliance Matrix: (Units=1/GPa)
#
#
# Indices 1 2 3 4 5 6 
#
# 1 0.025766 -0.013256 -0.002197 0.000000 0.000000 0.000000
# 2 -0.013256 0.017777 -0.004220 0.000000 0.000000 0.000000
# 3 -0.002197 -0.004220 0.011686 0.000000 0.000000 0.000000
# 4 0.000000 0.000000 0.000000 -0.113780 0.000000 0.000000
# 5 0.000000 0.000000 0.000000 0.000000 0.260541 0.000000
# 6 0.000000 0.000000 0.000000 0.000000 0.000000 0.027819
#
#
# Mechanical properties :
#
#
# Convention : Reuss Voigt Hill
#
# Bulk Modulus (GPa) = 62.96232 69.20934 66.08583
# Shear Modulus (GPa) = 18.21829 16.07121 17.14475
#
# Velocity S-wave (km/s) = 3.16287 2.97065 3.06827
# Velocity P-wave (km/s) = 6.92180 7.05475 6.98859
#
# Compressibility (1/GPa) = 0.01588251
#
# Stress axis : x y z
#
# Youngs Moduli (GPa) = 38.81025 56.25300 85.57223
#
# Poissons Ratio (x) = 0.74569 0.18803
# Poissons Ratio (y) = 0.51447 0.36112
# Poissons Ratio (z) = 0.08528 0.23739
#
# Static dielectric constant tensor:
#      x y z
#    x 3.295800 0.000000 0.000000 
#    y 0.000000 3.401760 0.000000 
#    z 0.000000 0.000000 3.254360 
# 
# 
# High freq. dielectric constant tensor:
#      x y z
#    x 1.704530 0.000000 0.000000 
#    y 0.000000 1.718620 0.000000 
#    z 0.000000 0.000000 1.686730 
# 
# From -- ./inp_files/61213.got.cif
#   From: 2010.03.12/outbox.cif.g09.slc.cpg/sg63_31_cif.got.tgz:61213.got - 2010.04.10 19:34:48.
