data_PCOD8257557
_publ_section_title
;
Structure prediction by ZEFSAII (Michael W. Deem and Ramdas Pophale) SiO2 
 PCOD8257557
Probable space group: C M C M
;
_chemical_formula_sum "Si O2"
_cell_formula_units_Z 112
_cell_length_a 8.970884
_cell_length_b 32.683834
_cell_length_c 19.695646
_cell_angle_alpha 90.000000
_cell_angle_beta 90.000000
_cell_angle_gamma 90.000000
_cell_volume 5774.820199
_symmetry_space_group_name_H-M "C M C M"
_symmetry_group_IT_number 63
_symmetry_cell_setting 'orthorhombic'
loop_
_space_group_symop_operation_xyz
x,y,z
-x,-y,1/2+z
x,-y,-z
-x,y,1/2-z
-x,-y,-z
x,y,1/2-z
-x,y,z
x,-y,1/2+z
1/2+x,1/2+y,z
1/2-x,1/2-y,1/2+z
1/2+x,1/2-y,-z
1/2-x,1/2+y,1/2-z
1/2-x,1/2-y,-z
1/2+x,1/2+y,1/2-z
1/2-x,1/2+y,z
1/2+x,1/2-y,1/2+z
loop_
_atom_site_type_symbol
_atom_site_label
_atom_site_fract_x
_atom_site_fract_y
_atom_site_fract_z
Si Si1 0.674714 0.917440 0.591432
Si Si2 0.675843 0.257825 0.676524
Si Si3 0.676084 0.785048 0.044209
Si Si4 0.668181 0.651662 0.170223
Si Si5 0.174596 0.574060 0.673351
Si Si6 0.824600 0.011967 0.173055
Si Si7 0.676156 0.876117 0.454809
O O1 0.500000 0.925858 0.596518
O O2 0.715216 0.878753 0.636864
O O3 0.724233 0.907623 0.513938
O O4 0.759241 0.957277 0.617686
O O5 0.745567 0.246007 0.750000
O O6 0.500000 0.261130 0.684540
O O7 0.721108 0.223763 0.622287
O O8 0.729120 0.302938 0.653044
O O9 0.500000 0.782267 0.032583
O O10 0.740307 0.830548 0.029356
O O11 0.750000 0.750000 0.000000
O O12 0.667844 0.643946 0.250000
O O13 0.500000 0.644344 0.141978
O O14 0.208793 0.589878 0.750000
O O15 0.260107 0.532449 0.657869
O O16 0.231708 0.607388 0.618463
O O17 0.000000 0.565290 0.664047
O O18 0.782771 0.025837 0.250000
O O19 0.000000 0.010465 0.163486
O O20 0.500000 0.871439 0.452698
#
# Coordination Sequence:
#
# PCOD8257557 Si02
#       7
#    16  16  16  16  16  16  16
#     4  11  21  32  48  72 105 139 170 204 245 301
#     4   8  15  28  48  73  97 126 168 214 255 296
#     4  10  19  33  53  75 103 137 172 210 253 302
#     4   9  17  30  47  69 100 134 169 213 258 295
#     4   9  18  36  60  80 100 131 171 210 251 304
#     4  10  21  37  56  78 104 132 164 207 254 296
#     4   9  20  35  51  77 108 135 165 209 260 297
#
# _framework density 19.394544
#
# number of rings (size 3 to 8) (size 9 to 14) (size 15 to 20)
#    0.000    2.571    0.000    3.000    0.000    4.000 
#    0.000    8.571    0.000    1.286    0.000    0.000 
#    0.000    0.000    0.000    0.000    0.000    0.000 
#
# Total GULP energy -694157.070563 kJ/mol
# GULP energy per Si atom -12395.661974 kJ/mol
# Density = 1.935040 g / cm^3
# Si number density = 19.394544 Si / 1000 Ang^3
#
#
#
# Elastic Constant Matrix: (Units=GPa)
#
#
# Indices 1 2 3 4 5 6 
#
# 1 41.7168 37.4636 34.8942 0.0000 0.0000 0.0000
# 2 37.4636 127.3742 81.6393 0.0000 0.0000 0.0000
# 3 34.8942 81.6393 115.0278 0.0000 0.0000 0.0000
# 4 0.0000 0.0000 0.0000 29.1838 0.0000 0.0000
# 5 0.0000 0.0000 0.0000 0.0000 18.4175 0.0000
# 6 0.0000 0.0000 0.0000 0.0000 0.0000 25.2183
#
#
#
# Elastic Compliance Matrix: (Units=1/GPa)
#
#
# Indices 1 2 3 4 5 6 
#
# 1 0.034711 -0.006348 -0.006024 0.000000 0.000000 0.000000
# 2 -0.006348 0.015564 -0.009120 0.000000 0.000000 0.000000
# 3 -0.006024 -0.009120 0.016994 0.000000 0.000000 0.000000
# 4 0.000000 0.000000 0.000000 0.034266 0.000000 0.000000
# 5 0.000000 0.000000 0.000000 0.000000 0.054296 0.000000
# 6 0.000000 0.000000 0.000000 0.000000 0.000000 0.039654
#
#
# Mechanical properties :
#
#
# Convention : Reuss Voigt Hill
#
# Bulk Modulus (GPa) = 41.18051 65.79033 53.48542
# Shear Modulus (GPa) = 20.27872 23.23870 21.75871
#
# Velocity S-wave (km/s) = 3.23706 3.46527 3.35311
# Velocity P-wave (km/s) = 5.93722 7.07153 6.52905
#
# Compressibility (1/GPa) = 0.02428333
#
# Stress axis : x y z
#
# Youngs Moduli (GPa) = 28.80926 64.25257 58.84416
#
# Poissons Ratio (x) = 0.40788 0.35449
# Poissons Ratio (y) = 0.18288 0.53668
# Poissons Ratio (z) = 0.17355 0.58600
#
# Static dielectric constant tensor:
#      x y z
#    x 3.281270 0.000000 0.000000 
#    y 0.000000 3.682810 0.000000 
#    z 0.000000 0.000000 3.575760 
# 
# 
# High freq. dielectric constant tensor:
#      x y z
#    x 1.720740 0.000000 0.000000 
#    y 0.000000 1.755650 0.000000 
#    z 0.000000 0.000000 1.763610 
# 
# From -- ./inp_files/53325.got.cif
#   From: 2010.03.12/outbox.cif.g09.slc.cpg/sg63_27_cif.got.tgz:53325.got - 2010.04.10 19:34:48.
