data_PCOD8257862
_publ_section_title
;
Structure prediction by ZEFSAII (Michael W. Deem and Ramdas Pophale) SiO2 
 PCOD8257862
Probable space group: C M C M
;
_chemical_formula_sum "Si O2"
_cell_formula_units_Z 112
_cell_length_a 13.984420
_cell_length_b 15.070219
_cell_length_c 26.157744
_cell_angle_alpha 90.000000
_cell_angle_beta 90.000000
_cell_angle_gamma 90.000000
_cell_volume 5512.699347
_symmetry_space_group_name_H-M "C M C M"
_symmetry_group_IT_number 63
_symmetry_cell_setting 'orthorhombic'
loop_
_space_group_symop_operation_xyz
x,y,z
-x,-y,1/2+z
x,-y,-z
-x,y,1/2-z
-x,-y,-z
x,y,1/2-z
-x,y,z
x,-y,1/2+z
1/2+x,1/2+y,z
1/2-x,1/2-y,1/2+z
1/2+x,1/2-y,-z
1/2-x,1/2+y,1/2-z
1/2-x,1/2-y,-z
1/2+x,1/2+y,1/2-z
1/2-x,1/2+y,z
1/2+x,1/2-y,1/2+z
loop_
_atom_site_type_symbol
_atom_site_label
_atom_site_fract_x
_atom_site_fract_y
_atom_site_fract_z
Si Si1 0.258060 0.448703 0.191908
Si Si2 0.224476 0.840208 0.808417
Si Si3 0.609261 0.654755 0.404074
Si Si4 0.393031 0.708566 0.809923
Si Si5 0.274339 0.071444 0.043776
Si Si6 0.104840 0.314690 0.476911
Si Si7 0.105327 0.542621 0.888594
O O1 0.233692 0.423409 0.250000
O O2 0.276302 0.553407 0.186696
O O3 0.346342 0.386224 0.172940
O O4 0.166768 0.422005 0.158739
O O5 0.197110 0.813163 0.750000
O O6 0.144824 0.806997 0.849144
O O7 0.325107 0.793130 0.824197
O O8 0.500000 0.623626 0.398302
O O9 0.676662 0.575448 0.423571
O O10 0.624298 0.721607 0.450718
O O11 0.406988 0.707318 0.750000
O O12 0.500000 0.718153 0.834897
O O13 0.353278 0.045587 0.085532
O O14 0.313315 0.162823 0.018488
O O15 0.257676 0.000000 0.000000
O O16 0.103922 0.384213 0.431654
O O17 0.000000 0.315130 0.503600
O O18 0.000000 0.521705 0.867532
#
# Coordination Sequence:
#
# PCOD8257862 Si02
#       7
#    16  16  16  16  16  16  16
#     4  10  20  35  56  85 122 162 202 247 304 362
#     4  10  21  38  59  87 124 162 202 246 297 360
#     4  11  22  37  57  83 116 152 192 240 297 359
#     4   9  19  37  60  85 118 161 206 251 297 351
#     4  10  20  37  58  80 110 147 190 246 298 355
#     4   9  19  35  58  82 106 144 188 236 300 363
#     4  10  19  34  56  82 113 149 192 242 297 355
#
# _framework density 20.316725000000002
#
# number of rings (size 3 to 8) (size 9 to 14) (size 15 to 20)
#    0.000    2.143    1.429    1.714    0.000    3.714 
#    0.000    2.857    0.000    9.429    0.000    0.000 
#    0.000    0.000    0.000    0.000    0.000    0.000 
#
# Total GULP energy -693805.870496 kJ/mol
# GULP energy per Si atom -12389.390545 kJ/mol
# Density = 2.027048 g / cm^3
# Si number density = 20.316725 Si / 1000 Ang^3
#
#
#
# Elastic Constant Matrix: (Units=GPa)
#
#
# Indices 1 2 3 4 5 6 
#
# 1 183.1505 39.2903 61.2681 0.0000 0.0000 0.0000
# 2 39.2903 73.5708 1.3941 0.0000 0.0000 0.0000
# 3 61.2681 1.3941 80.4957 0.0000 0.0000 0.0000
# 4 0.0000 0.0000 0.0000 -20.9307 0.0000 0.0000
# 5 0.0000 0.0000 0.0000 0.0000 32.5070 0.0000
# 6 0.0000 0.0000 0.0000 0.0000 0.0000 22.1909
#
#
#
# Elastic Compliance Matrix: (Units=1/GPa)
#
#
# Indices 1 2 3 4 5 6 
#
# 1 0.008573 -0.004456 -0.006448 0.000000 0.000000 0.000000
# 2 -0.004456 0.015913 0.003116 0.000000 0.000000 0.000000
# 3 -0.006448 0.003116 0.017277 0.000000 0.000000 0.000000
# 4 0.000000 0.000000 0.000000 -0.047777 0.000000 0.000000
# 5 0.000000 0.000000 0.000000 0.000000 0.030763 0.000000
# 6 0.000000 0.000000 0.000000 0.000000 0.000000 0.045064
#
#
# Mechanical properties :
#
#
# Convention : Reuss Voigt Hill
#
# Bulk Modulus (GPa) = 38.18705 60.12465 49.15585
# Shear Modulus (GPa) = 53.12519 22.43774 37.78146
#
# Velocity S-wave (km/s) = 5.11911 3.32685 4.31701
# Velocity P-wave (km/s) = 7.33328 6.66447 7.00686
#
# Compressibility (1/GPa) = 0.02618689
#
# Stress axis : x y z
#
# Youngs Moduli (GPa) = 116.64581 62.84122 57.88087
#
# Poissons Ratio (x) = 0.28003 0.37322
# Poissons Ratio (y) = 0.51980 -0.18037
# Poissons Ratio (z) = 0.75213 -0.19582
#
# Static dielectric constant tensor:
#      x y z
#    x 3.917280 0.000000 0.000000 
#    y 0.000000 3.336810 0.000000 
#    z 0.000000 0.000000 3.735640 
# 
# 
# High freq. dielectric constant tensor:
#      x y z
#    x 1.790940 0.000000 0.000000 
#    y 0.000000 1.785370 0.000000 
#    z 0.000000 0.000000 1.790220 
# 
# From -- ./inp_files/72867.got.cif
#   From: 2010.03.12/outbox.cif.g09.slc.cpg/sg63_37_cif.got.tgz:72867.got - 2010.04.10 19:34:48.
