data_PCOD8257744
_publ_section_title
;
Structure prediction by ZEFSAII (Michael W. Deem and Ramdas Pophale) SiO2 
 PCOD8257744
Probable space group: C M C M
;
_chemical_formula_sum "Si O2"
_cell_formula_units_Z 96
_cell_length_a 8.983227
_cell_length_b 20.378943
_cell_length_c 27.738027
_cell_angle_alpha 90.000000
_cell_angle_beta 90.000000
_cell_angle_gamma 90.000000
_cell_volume 5077.963739
_symmetry_space_group_name_H-M "C M C M"
_symmetry_group_IT_number 63
_symmetry_cell_setting 'orthorhombic'
loop_
_space_group_symop_operation_xyz
x,y,z
-x,-y,1/2+z
x,-y,-z
-x,y,1/2-z
-x,-y,-z
x,y,1/2-z
-x,y,z
x,-y,1/2+z
1/2+x,1/2+y,z
1/2-x,1/2-y,1/2+z
1/2+x,1/2-y,-z
1/2-x,1/2+y,1/2-z
1/2-x,1/2-y,-z
1/2+x,1/2+y,1/2-z
1/2-x,1/2+y,z
1/2+x,1/2-y,1/2+z
loop_
_atom_site_type_symbol
_atom_site_label
_atom_site_fract_x
_atom_site_fract_y
_atom_site_fract_z
Si Si1 0.329575 0.190732 0.554953
Si Si2 0.325006 0.630870 0.140856
Si Si3 0.828840 0.749281 0.305656
Si Si4 0.827386 0.626754 0.845987
Si Si5 0.325845 0.498751 0.306002
Si Si6 0.672425 0.826113 0.552153
O O1 0.500000 0.216499 0.555174
O O2 0.301943 0.138267 0.597034
O O3 0.293708 0.156328 0.503664
O O4 0.221885 0.251883 0.563546
O O5 0.500000 0.639176 0.138833
O O6 0.259061 0.696429 0.163555
O O7 0.277607 0.568634 0.172416
O O8 0.261995 0.623638 0.086460
O O9 0.811899 0.730766 0.250000
O O10 0.761149 0.820933 0.314133
O O11 0.000000 0.749681 0.321888
O O12 0.767418 0.555080 0.834317
O O13 0.000000 0.631547 0.832086
O O14 0.282952 0.498065 0.250000
O O15 0.500000 0.485334 0.313763
O O16 0.500000 0.832850 0.564597
#
# Coordination Sequence:
#
# PCOD8257744 Si02
#       6
#    16  16  16  16  16  16
#     4   9  19  35  55  84 118 151 187 231 285 344
#     4  11  22  38  59  84 114 150 193 239 290 342
#     4  11  23  37  56  84 115 146 187 239 289 341
#     4  11  22  37  59  86 115 149 190 235 285 342
#     4  10  23  42  60  79 111 155 196 237 288 344
#     4  10  19  33  57  86 116 150 188 233 288 341
#
# _framework density 18.905214999999998
#
# number of rings (size 3 to 8) (size 9 to 14) (size 15 to 20)
#    0.000    1.667    1.667    3.000    0.000    7.000 
#    0.000    0.833    0.000    5.000    0.000    0.000 
#    0.000    0.000    0.000    0.000    0.000    0.000 
#
# Total GULP energy -595380.311384 kJ/mol
# GULP energy per Si atom -12403.756487 kJ/mol
# Density = 1.886219 g / cm^3
# Si number density = 18.905215 Si / 1000 Ang^3
#
#
#
# Elastic Constant Matrix: (Units=GPa)
#
#
# Indices 1 2 3 4 5 6 
#
# 1 90.4712 43.8984 49.9193 0.0000 0.0000 0.0000
# 2 43.8984 76.1423 41.6594 0.0000 0.0000 0.0000
# 3 49.9193 41.6594 122.1595 0.0000 0.0000 0.0000
# 4 0.0000 0.0000 0.0000 33.9619 0.0000 0.0000
# 5 0.0000 0.0000 0.0000 0.0000 32.2897 0.0000
# 6 0.0000 0.0000 0.0000 0.0000 0.0000 32.8880
#
#
#
# Elastic Compliance Matrix: (Units=1/GPa)
#
#
# Indices 1 2 3 4 5 6 
#
# 1 0.017120 -0.007429 -0.004463 0.000000 0.000000 0.000000
# 2 -0.007429 0.019369 -0.003570 0.000000 0.000000 0.000000
# 3 -0.004463 -0.003570 0.011227 0.000000 0.000000 0.000000
# 4 0.000000 0.000000 0.000000 0.029445 0.000000 0.000000
# 5 0.000000 0.000000 0.000000 0.000000 0.030970 0.000000
# 6 0.000000 0.000000 0.000000 0.000000 0.000000 0.030406
#
#
# Mechanical properties :
#
#
# Convention : Reuss Voigt Hill
#
# Bulk Modulus (GPa) = 59.54394 62.19192 60.86793
# Shear Modulus (GPa) = 28.56211 30.04766 29.30488
#
# Velocity S-wave (km/s) = 3.89113 3.99103 3.94140
# Velocity P-wave (km/s) = 7.19390 7.36247 7.27867
#
# Compressibility (1/GPa) = 0.01679432
#
# Stress axis : x y z
#
# Youngs Moduli (GPa) = 58.41081 51.62815 89.07109
#
# Poissons Ratio (x) = 0.38353 0.39749
# Poissons Ratio (y) = 0.43392 0.31796
# Poissons Ratio (z) = 0.26066 0.18430
#
# Static dielectric constant tensor:
#      x y z
#    x 3.564330 0.000000 0.000000 
#    y 0.000000 3.228030 0.000000 
#    z 0.000000 0.000000 3.871910 
# 
# 
# High freq. dielectric constant tensor:
#      x y z
#    x 1.745310 0.000000 0.000000 
#    y 0.000000 1.709450 0.000000 
#    z 0.000000 0.000000 1.754860 
# 
# From -- ./inp_files/67018.got.cif
#   From: 2010.03.12/outbox.cif.g09.slc.cpg/sg63_34_cif.got.tgz:67018.got - 2010.04.10 19:34:48.
