data_PCOD8257421
_publ_section_title
;
Structure prediction by ZEFSAII (Michael W. Deem and Ramdas Pophale) SiO2 
 PCOD8257421
Probable space group: C M C M
;
_chemical_formula_sum "Si O2"
_cell_formula_units_Z 88
_cell_length_a 16.896366
_cell_length_b 29.736164
_cell_length_c 9.123902
_cell_angle_alpha 90.000000
_cell_angle_beta 90.000000
_cell_angle_gamma 90.000000
_cell_volume 4584.150461
_symmetry_space_group_name_H-M "C M C M"
_symmetry_group_IT_number 63
_symmetry_cell_setting 'orthorhombic'
loop_
_space_group_symop_operation_xyz
x,y,z
-x,-y,1/2+z
x,-y,-z
-x,y,1/2-z
-x,-y,-z
x,y,1/2-z
-x,y,z
x,-y,1/2+z
1/2+x,1/2+y,z
1/2-x,1/2-y,1/2+z
1/2+x,1/2-y,-z
1/2-x,1/2+y,1/2-z
1/2-x,1/2-y,-z
1/2+x,1/2+y,1/2-z
1/2-x,1/2+y,z
1/2+x,1/2-y,1/2+z
loop_
_atom_site_type_symbol
_atom_site_label
_atom_site_fract_x
_atom_site_fract_y
_atom_site_fract_z
Si Si1 0.500000 0.951346 0.577825
Si Si2 0.312768 0.383583 0.581588
Si Si3 0.355562 0.210521 0.914808
Si Si4 0.627248 0.122077 0.418124
Si Si5 0.832551 0.203997 0.914877
Si Si6 0.912782 0.953837 0.416686
O O1 0.500000 0.961294 0.750000
O O2 0.576932 0.921671 0.531888
O O3 0.500000 0.000000 0.500000
O O4 0.338089 0.385428 0.750000
O O5 0.219163 0.388148 0.561811
O O6 0.351175 0.338826 0.514554
O O7 0.347179 0.424722 0.494112
O O8 0.389130 0.215890 0.750000
O O9 0.261271 0.209480 0.910651
O O10 0.394102 0.165686 0.984517
O O11 0.377970 0.253472 0.014205
O O12 0.606878 0.133932 0.250000
O O13 0.865111 0.197157 0.750000
O O14 0.886454 0.961978 0.250000
O O15 0.000000 0.931146 0.423958
O O16 0.915592 0.000000 0.500000
#
# Coordination Sequence:
#
# PCOD8257421 Si02
#       6
#     8  16  16  16  16  16
#     4  10  22  40  58  76 104 142 184 230 281 328
#     4  10  19  32  53  81 110 139 176 221 267 316
#     4   9  16  27  47  75 104 135 172 214 259 312
#     4   9  19  35  54  77 105 140 179 221 270 323
#     4   9  16  27  46  74 107 140 172 209 257 312
#     4  10  21  37  56  77 103 137 174 211 258 315
#
# _framework density 19.196577999999999
#
# number of rings (size 3 to 8) (size 9 to 14) (size 15 to 20)
#    0.000    2.545    0.000    2.182    0.000    7.636 
#    0.000    1.818    2.000    0.000    0.000    0.000 
#    0.000    0.000    0.000    0.000    0.000    0.000 
#
# Total GULP energy -545462.019589 kJ/mol
# GULP energy per Si atom -12396.864082 kJ/mol
# Density = 1.915289 g / cm^3
# Si number density = 19.196578 Si / 1000 Ang^3
#
#
#
# Elastic Constant Matrix: (Units=GPa)
#
#
# Indices 1 2 3 4 5 6 
#
# 1 39.2074 44.4142 40.8575 0.0000 0.0000 0.0000
# 2 44.4142 137.5589 75.8987 0.0000 0.0000 0.0000
# 3 40.8575 75.8987 161.6091 0.0000 0.0000 0.0000
# 4 0.0000 0.0000 0.0000 44.5805 0.0000 0.0000
# 5 0.0000 0.0000 0.0000 0.0000 -1.7695 0.0000
# 6 0.0000 0.0000 0.0000 0.0000 0.0000 18.8590
#
#
#
# Elastic Compliance Matrix: (Units=1/GPa)
#
#
# Indices 1 2 3 4 5 6 
#
# 1 0.044181 -0.010936 -0.006034 0.000000 0.000000 0.000000
# 2 -0.010936 0.012519 -0.003115 0.000000 0.000000 0.000000
# 3 -0.006034 -0.003115 0.009176 0.000000 0.000000 0.000000
# 4 0.000000 0.000000 0.000000 0.022431 0.000000 0.000000
# 5 0.000000 0.000000 0.000000 0.000000 -0.565144 0.000000
# 6 0.000000 0.000000 0.000000 0.000000 0.000000 0.053025
#
#
# Mechanical properties :
#
#
# Convention : Reuss Voigt Hill
#
# Bulk Modulus (GPa) = 38.89895 73.41290 56.15592
# Shear Modulus (GPa) = -13.33073 24.14766 5.40847
#
# Velocity S-wave (km/s) = -2.63807 3.55056 1.68034
# Velocity P-wave (km/s) = 3.32088 7.42525 5.75163
#
# Compressibility (1/GPa) = 0.02570763
#
# Stress axis : x y z
#
# Youngs Moduli (GPa) = 22.63400 79.87802 108.97939
#
# Poissons Ratio (x) = 0.87353 0.65756
# Poissons Ratio (y) = 0.24752 0.33944
# Poissons Ratio (z) = 0.13657 0.24880
#
# Static dielectric constant tensor:
#      x y z
#    x 3.451910 0.000000 0.000000 
#    y 0.000000 3.485810 0.000000 
#    z 0.000000 0.000000 3.718730 
# 
# 
# High freq. dielectric constant tensor:
#      x y z
#    x 1.715100 0.000000 0.000000 
#    y 0.000000 1.748270 0.000000 
#    z 0.000000 0.000000 1.760910 
# 
# From -- ./inp_files/6834.got.cif
#   From: 2010.03.12/outbox.cif.g09.slc.cpg/sg63_4_cif.got.tgz:6834.got - 2010.04.10 19:34:48.
