data_PCOD8257722
_publ_section_title
;
Structure prediction by ZEFSAII (Michael W. Deem and Ramdas Pophale) SiO2 
 PCOD8257722
Probable space group: C M C M
;
_chemical_formula_sum "Si O2"
_cell_formula_units_Z 88
_cell_length_a 27.133372
_cell_length_b 19.445593
_cell_length_c 9.154029
_cell_angle_alpha 90.000000
_cell_angle_beta 90.000000
_cell_angle_gamma 90.000000
_cell_volume 4829.890053
_symmetry_space_group_name_H-M "C M C M"
_symmetry_group_IT_number 63
_symmetry_cell_setting 'orthorhombic'
loop_
_space_group_symop_operation_xyz
x,y,z
-x,-y,1/2+z
x,-y,-z
-x,y,1/2-z
-x,-y,-z
x,y,1/2-z
-x,y,z
x,-y,1/2+z
1/2+x,1/2+y,z
1/2-x,1/2-y,1/2+z
1/2+x,1/2-y,-z
1/2-x,1/2+y,1/2-z
1/2-x,1/2-y,-z
1/2+x,1/2+y,1/2-z
1/2-x,1/2+y,z
1/2+x,1/2-y,1/2+z
loop_
_atom_site_type_symbol
_atom_site_label
_atom_site_fract_x
_atom_site_fract_y
_atom_site_fract_z
Si Si1 0.627120 0.929496 0.080544
Si Si2 0.086507 0.825791 0.077300
Si Si3 0.443501 0.190039 0.916367
Si Si4 0.314426 0.312106 0.580268
Si Si5 0.000000 0.927842 0.079311
Si Si6 0.218470 0.339832 0.082710
O O1 0.618469 0.942782 0.250000
O O2 0.588319 0.873320 0.022712
O O3 0.682363 0.903018 0.049300
O O4 0.617315 0.000000 0.000000
O O5 0.093178 0.819926 0.250000
O O6 0.048684 0.885830 0.033321
O O7 0.064803 0.754812 0.018885
O O8 0.138824 0.842936 0.004030
O O9 0.427088 0.208700 0.750000
O O10 0.500000 0.167184 0.921594
O O11 0.319850 0.329364 0.750000
O O12 0.265350 0.348959 0.521211
O O13 0.311126 0.230549 0.549787
O O14 0.000000 0.942141 0.250000
O O15 0.000000 0.000000 0.000000
O O16 0.236663 0.339342 0.250000
#
# Coordination Sequence:
#
# PCOD8257722 Si02
#       6
#    16  16  16  16   8  16
#     4  10  21  37  54  79 115 154 194 235 283 337
#     4  11  21  36  58  87 118 145 183 233 282 331
#     4  10  20  36  58  83 112 149 193 237 282 334
#     4  10  19  33  56  85 111 141 186 231 281 336
#     4  10  24  42  60  86 117 148 183 226 279 342
#     4   9  18  34  53  78 113 145 183 235 282 329
#
# _framework density 18.219875999999999
#
# number of rings (size 3 to 8) (size 9 to 14) (size 15 to 20)
#    0.000    2.000    2.727    1.091    0.000    4.000 
#    0.000    0.909    0.000    0.000    0.000    0.000 
#    0.000    0.000    0.000    0.000    0.000    0.000 
#
# Total GULP energy -545759.810518 kJ/mol
# GULP energy per Si atom -12403.632057 kJ/mol
# Density = 1.817841 g / cm^3
# Si number density = 18.219876 Si / 1000 Ang^3
#
#
#
# Elastic Constant Matrix: (Units=GPa)
#
#
# Indices 1 2 3 4 5 6 
#
# 1 126.2702 63.2032 65.6350 0.0000 0.0000 0.0000
# 2 63.2032 126.5032 57.4564 0.0000 0.0000 0.0000
# 3 65.6350 57.4564 88.7983 0.0000 0.0000 0.0000
# 4 0.0000 0.0000 0.0000 31.8645 0.0000 0.0000
# 5 0.0000 0.0000 0.0000 0.0000 31.9475 0.0000
# 6 0.0000 0.0000 0.0000 0.0000 0.0000 23.1471
#
#
#
# Elastic Compliance Matrix: (Units=1/GPa)
#
#
# Indices 1 2 3 4 5 6 
#
# 1 0.013709 -0.003182 -0.008074 0.000000 0.000000 0.000000
# 2 -0.003182 0.011934 -0.005369 0.000000 0.000000 0.000000
# 3 -0.008074 -0.005369 0.020704 0.000000 0.000000 0.000000
# 4 0.000000 0.000000 0.000000 0.031383 0.000000 0.000000
# 5 0.000000 0.000000 0.000000 0.000000 0.031301 0.000000
# 6 0.000000 0.000000 0.000000 0.000000 0.000000 0.043202
#
#
# Mechanical properties :
#
#
# Convention : Reuss Voigt Hill
#
# Bulk Modulus (GPa) = 76.36501 79.35121 77.85811
# Shear Modulus (GPa) = 26.33670 27.74363 27.04017
#
# Velocity S-wave (km/s) = 3.80609 3.90643 3.85658
# Velocity P-wave (km/s) = 7.83065 7.99959 7.91557
#
# Compressibility (1/GPa) = 0.01309500
#
# Stress axis : x y z
#
# Youngs Moduli (GPa) = 72.94339 83.79729 48.30055
#
# Poissons Ratio (x) = 0.26666 0.38999
# Poissons Ratio (y) = 0.23212 0.25935
# Poissons Ratio (z) = 0.58895 0.44994
#
# Static dielectric constant tensor:
#      x y z
#    x 3.539930 0.000000 0.000000 
#    y 0.000000 3.141810 0.000000 
#    z 0.000000 0.000000 3.352420 
# 
# 
# High freq. dielectric constant tensor:
#      x y z
#    x 1.722030 0.000000 0.000000 
#    y 0.000000 1.682250 0.000000 
#    z 0.000000 0.000000 1.706910 
# 
# From -- ./inp_files/14216.got.cif
#   From: 2010.03.12/outbox.cif.g09.slc.cpg/sg63_8_cif.got.tgz:14216.got - 2010.04.10 19:34:48.
