data_PCOD8257648
_publ_section_title
;
Structure prediction by ZEFSAII (Michael W. Deem and Ramdas Pophale) SiO2 
 PCOD8257648
Probable space group: C M C M
;
_chemical_formula_sum "Si O2"
_cell_formula_units_Z 112
_cell_length_a 15.159710
_cell_length_b 14.231111
_cell_length_c 25.844112
_cell_angle_alpha 90.000000
_cell_angle_beta 90.000000
_cell_angle_gamma 90.000000
_cell_volume 5575.596208
_symmetry_space_group_name_H-M "C M C M"
_symmetry_group_IT_number 63
_symmetry_cell_setting 'orthorhombic'
loop_
_space_group_symop_operation_xyz
x,y,z
-x,-y,1/2+z
x,-y,-z
-x,y,1/2-z
-x,-y,-z
x,y,1/2-z
-x,y,z
x,-y,1/2+z
1/2+x,1/2+y,z
1/2-x,1/2-y,1/2+z
1/2+x,1/2-y,-z
1/2-x,1/2+y,1/2-z
1/2-x,1/2-y,-z
1/2+x,1/2+y,1/2-z
1/2-x,1/2+y,z
1/2+x,1/2-y,1/2+z
loop_
_atom_site_type_symbol
_atom_site_label
_atom_site_fract_x
_atom_site_fract_y
_atom_site_fract_z
Si Si1 0.224759 0.367477 0.307135
Si Si2 0.600627 0.825915 0.923508
Si Si3 0.405094 0.667532 0.843511
Si Si4 0.400823 0.732421 0.139014
Si Si5 0.595570 0.471286 0.894131
Si Si6 0.101522 0.651367 0.540477
Si Si7 0.714085 0.998988 0.406200
O O1 0.203020 0.407935 0.250000
O O2 0.323290 0.322719 0.304849
O O3 0.160241 0.280916 0.318614
O O4 0.214790 0.448372 0.350169
O O5 0.500000 0.860884 0.916831
O O6 0.616045 0.726572 0.895499
O O7 0.665393 0.902143 0.898122
O O8 0.623566 0.809580 0.983705
O O9 0.500000 0.700792 0.819574
O O10 0.414251 0.558578 0.856523
O O11 0.500000 0.763256 0.152385
O O12 0.389315 0.620545 0.141343
O O13 0.375786 0.766366 0.080933
O O14 0.500000 0.460297 0.924818
O O15 0.685315 0.485543 0.927555
O O16 0.161797 0.560630 0.551202
O O17 0.000000 0.618932 0.544910
#
# Coordination Sequence:
#
# PCOD8257648 Si02
#       7
#    16  16  16  16  16  16  16
#     4  10  21  37  56  79 107 138 174 220 273 322
#     4  10  19  34  57  82 109 141 175 216 269 324
#     4   9  19  36  56  78 105 139 180 221 261 313
#     4   9  18  35  57  80 107 138 176 223 270 317
#     4   9  18  35  54  71 101 141 177 217 261 303
#     4   9  18  33  55  82 109 139 176 218 268 323
#     4  10  19  33  54  81 109 140 177 219 265 318
#
# _framework density 20.087537000000001
#
# number of rings (size 3 to 8) (size 9 to 14) (size 15 to 20)
#    0.000    2.571    0.000    1.714    0.000    2.286 
#    0.000   21.429    0.000   17.143    0.000    0.000 
#    0.000    0.000    0.000    0.000    0.000    0.000 
#
# Total GULP energy -693907.816592 kJ/mol
# GULP energy per Si atom -12391.211011 kJ/mol
# Density = 2.004182 g / cm^3
# Si number density = 20.087537 Si / 1000 Ang^3
#
#
#
# Elastic Constant Matrix: (Units=GPa)
#
#
# Indices 1 2 3 4 5 6 
#
# 1 125.5016 48.5965 37.3512 0.0000 0.0000 0.0000
# 2 48.5965 104.3719 32.1599 0.0000 0.0000 0.0000
# 3 37.3512 32.1599 90.9194 0.0000 0.0000 0.0000
# 4 0.0000 0.0000 0.0000 13.9060 0.0000 0.0000
# 5 0.0000 0.0000 0.0000 0.0000 11.2949 0.0000
# 6 0.0000 0.0000 0.0000 0.0000 0.0000 21.3643
#
#
#
# Elastic Compliance Matrix: (Units=1/GPa)
#
#
# Indices 1 2 3 4 5 6 
#
# 1 0.010342 -0.003935 -0.002857 0.000000 0.000000 0.000000
# 2 -0.003935 0.012250 -0.002717 0.000000 0.000000 0.000000
# 3 -0.002857 -0.002717 0.013133 0.000000 0.000000 0.000000
# 4 0.000000 0.000000 0.000000 0.071912 0.000000 0.000000
# 5 0.000000 0.000000 0.000000 0.000000 0.088536 0.000000
# 6 0.000000 0.000000 0.000000 0.000000 0.000000 0.046807
#
#
# Mechanical properties :
#
#
# Convention : Reuss Voigt Hill
#
# Bulk Modulus (GPa) = 59.84876 61.88981 60.86929
# Shear Modulus (GPa) = 18.68697 22.82539 20.75618
#
# Velocity S-wave (km/s) = 3.05335 3.37456 3.21796
# Velocity P-wave (km/s) = 6.50302 6.78678 6.64642
#
# Compressibility (1/GPa) = 0.01670878
#
# Stress axis : x y z
#
# Youngs Moduli (GPa) = 96.69333 81.63006 76.14251
#
# Poissons Ratio (x) = 0.32122 0.21752
# Poissons Ratio (y) = 0.38050 0.20685
# Poissons Ratio (z) = 0.27623 0.22176
#
# Static dielectric constant tensor:
#      x y z
#    x 4.394820 0.000000 0.000000 
#    y 0.000000 3.602910 0.000000 
#    z 0.000000 0.000000 3.183210 
# 
# 
# High freq. dielectric constant tensor:
#      x y z
#    x 1.813480 0.000000 0.000000 
#    y 0.000000 1.782490 0.000000 
#    z 0.000000 0.000000 1.733850 
# 
# From -- ./inp_files/62953.got.cif
#   From: 2010.03.12/outbox.cif.g09.slc.cpg/sg63_32_cif.got.tgz:62953.got - 2010.04.10 19:34:48.
