data_PCOD8257915
_publ_section_title
;
Structure prediction by ZEFSAII (Michael W. Deem and Ramdas Pophale) SiO2 
 PCOD8257915
Probable space group: C M C M
;
_chemical_formula_sum "Si O2"
_cell_formula_units_Z 112
_cell_length_a 23.685155
_cell_length_b 16.763706
_cell_length_c 13.541689
_cell_angle_alpha 90.000000
_cell_angle_beta 90.000000
_cell_angle_gamma 90.000000
_cell_volume 5376.740820
_symmetry_space_group_name_H-M "C M C M"
_symmetry_group_IT_number 63
_symmetry_cell_setting 'orthorhombic'
loop_
_space_group_symop_operation_xyz
x,y,z
-x,-y,1/2+z
x,-y,-z
-x,y,1/2-z
-x,-y,-z
x,y,1/2-z
-x,y,z
x,-y,1/2+z
1/2+x,1/2+y,z
1/2-x,1/2-y,1/2+z
1/2+x,1/2-y,-z
1/2-x,1/2+y,1/2-z
1/2-x,1/2-y,-z
1/2+x,1/2+y,1/2-z
1/2-x,1/2+y,z
1/2+x,1/2-y,1/2+z
loop_
_atom_site_type_symbol
_atom_site_label
_atom_site_fract_x
_atom_site_fract_y
_atom_site_fract_z
Si Si1 0.564228 0.091943 0.477121
Si Si2 0.437038 0.456365 0.368065
Si Si3 0.661199 0.657519 0.862223
Si Si4 0.265906 0.590889 0.023775
Si Si5 0.879576 0.115274 0.133184
Si Si6 0.661765 0.842473 0.638923
Si Si7 0.065792 0.277999 0.137127
O O1 0.500000 0.109886 0.445762
O O2 0.603811 0.112403 0.385129
O O3 0.581561 0.144751 0.572375
O O4 0.573132 0.000000 0.500000
O O5 0.435963 0.455359 0.250000
O O6 0.500000 0.436485 0.406623
O O7 0.392485 0.390392 0.407729
O O8 0.418875 0.543669 0.409005
O O9 0.672769 0.631356 0.750000
O O10 0.647969 0.749837 0.871523
O O11 0.717073 0.635238 0.922861
O O12 0.315264 0.599159 0.103860
O O13 0.210324 0.633078 0.063707
O O14 0.251475 0.500000 0.000000
O O15 0.884167 0.114660 0.250000
O O16 0.900420 0.201429 0.094470
O O17 0.680269 0.864519 0.750000
O O18 0.083298 0.297211 0.250000
O O19 0.000000 0.257121 0.130731
#
# Coordination Sequence:
#
# PCOD8257915 Si02
#       7
#    16  16  16  16  16  16  16
#     4  10  22  42  65  90 121 155 196 255 318 377
#     4   9  17  32  56  87 125 166 204 244 298 365
#     4  10  22  40  59  85 123 165 208 257 309 364
#     4  12  23  39  62  87 120 161 207 261 309 364
#     4  10  19  34  58  89 127 167 206 250 303 360
#     4  11  25  43  63  87 117 157 207 257 312 378
#     4   9  18  34  60  93 127 164 206 253 305 364
#
# _framework density 20.830462000000001
#
# number of rings (size 3 to 8) (size 9 to 14) (size 15 to 20)
#    0.000    1.857    1.429    2.571    0.000    3.714 
#    0.000    7.143    0.000    0.000    0.000    0.000 
#    0.000    0.000    0.000    0.000    0.000    0.000 
#
# Total GULP energy -694623.503174 kJ/mol
# GULP energy per Si atom -12403.991128 kJ/mol
# Density = 2.078305 g / cm^3
# Si number density = 20.830462 Si / 1000 Ang^3
#
#
#
# Elastic Constant Matrix: (Units=GPa)
#
#
# Indices 1 2 3 4 5 6 
#
# 1 122.4157 67.3865 52.4370 0.0000 0.0000 0.0000
# 2 67.3865 140.2726 47.1574 0.0000 0.0000 0.0000
# 3 52.4370 47.1574 63.5051 0.0000 0.0000 0.0000
# 4 0.0000 0.0000 0.0000 31.8760 0.0000 0.0000
# 5 0.0000 0.0000 0.0000 0.0000 36.5595 0.0000
# 6 0.0000 0.0000 0.0000 0.0000 0.0000 25.9998
#
#
#
# Elastic Compliance Matrix: (Units=1/GPa)
#
#
# Indices 1 2 3 4 5 6 
#
# 1 0.014000 -0.003784 -0.008750 0.000000 0.000000 0.000000
# 2 -0.003784 0.010523 -0.004690 0.000000 0.000000 0.000000
# 3 -0.008750 -0.004690 0.026455 0.000000 0.000000 0.000000
# 4 0.000000 0.000000 0.000000 0.031372 0.000000 0.000000
# 5 0.000000 0.000000 0.000000 0.000000 0.027353 0.000000
# 6 0.000000 0.000000 0.000000 0.000000 0.000000 0.038462
#
#
# Mechanical properties :
#
#
# Convention : Reuss Voigt Hill
#
# Bulk Modulus (GPa) = 60.49659 73.35058 66.92358
# Shear Modulus (GPa) = 26.57843 29.50119 28.03981
#
# Velocity S-wave (km/s) = 3.57591 3.76740 3.67290
# Velocity P-wave (km/s) = 6.79374 7.36301 7.08410
#
# Compressibility (1/GPa) = 0.01652986
#
# Stress axis : x y z
#
# Youngs Moduli (GPa) = 71.42887 95.02566 37.80053
#
# Poissons Ratio (x) = 0.35956 0.33076
# Poissons Ratio (y) = 0.27028 0.17729
# Poissons Ratio (z) = 0.62501 0.44568
#
# Static dielectric constant tensor:
#      x y z
#    x 3.685040 0.000000 0.000000 
#    y 0.000000 3.871230 0.000000 
#    z 0.000000 0.000000 3.846420 
# 
# 
# High freq. dielectric constant tensor:
#      x y z
#    x 1.807980 0.000000 0.000000 
#    y 0.000000 1.823190 0.000000 
#    z 0.000000 0.000000 1.824170 
# 
# From -- ./inp_files/36893.got.cif
#   From: 2010.03.12/outbox.cif.g09.slc.cpg/sg63_19_cif.got.tgz:36893.got - 2010.04.10 19:34:48.
