data_PCOD8257022
_publ_section_title
;
Structure prediction by ZEFSAII (Michael W. Deem and Ramdas Pophale) SiO2 
 PCOD8257022
Probable space group: C M C M
;
_chemical_formula_sum "Si O2"
_cell_formula_units_Z 96
_cell_length_a 8.921099
_cell_length_b 25.807055
_cell_length_c 23.544941
_cell_angle_alpha 90.000000
_cell_angle_beta 90.000000
_cell_angle_gamma 90.000000
_cell_volume 5420.688020
_symmetry_space_group_name_H-M "C M C M"
_symmetry_group_IT_number 63
_symmetry_cell_setting 'orthorhombic'
loop_
_space_group_symop_operation_xyz
x,y,z
-x,-y,1/2+z
x,-y,-z
-x,y,1/2-z
-x,-y,-z
x,y,1/2-z
-x,y,z
x,-y,1/2+z
1/2+x,1/2+y,z
1/2-x,1/2-y,1/2+z
1/2+x,1/2-y,-z
1/2-x,1/2+y,1/2-z
1/2-x,1/2-y,-z
1/2+x,1/2+y,1/2-z
1/2-x,1/2+y,z
1/2+x,1/2-y,1/2+z
loop_
_atom_site_type_symbol
_atom_site_label
_atom_site_fract_x
_atom_site_fract_y
_atom_site_fract_z
Si Si1 0.326731 0.496067 0.683593
Si Si2 0.676804 0.440491 0.994948
Si Si3 0.677549 0.095327 0.119146
Si Si4 0.822242 0.095827 0.616571
Si Si5 0.821667 0.191768 0.814002
Si Si6 0.678092 0.193606 0.313492
O O1 0.305059 0.504516 0.750000
O O2 0.500000 0.486229 0.667362
O O3 0.230491 0.447683 0.663404
O O4 0.263079 0.546858 0.652247
O O5 0.500000 0.437998 0.985174
O O6 0.728126 0.409826 0.051310
O O7 0.729271 0.500000 0.000000
O O8 0.756221 0.412702 0.942928
O O9 0.500000 0.093837 0.115298
O O10 0.737390 0.150645 0.142476
O O11 0.754200 0.148747 0.643042
O O12 0.000000 0.096802 0.621082
O O13 0.766296 0.179640 0.750000
O O14 0.766319 0.249117 0.832807
O O15 0.000000 0.189636 0.815455
O O16 0.739047 0.181513 0.250000
O O17 0.500000 0.192658 0.311786
#
# Coordination Sequence:
#
# PCOD8257022 Si02
#       6
#    16  16  16  16  16  16
#     4  10  19  31  49  74 101 125 155 199 248 293
#     4  10  19  34  51  67  96 132 164 200 244 289
#     4  11  21  32  48  70  99 131 166 199 234 286
#     4   9  16  28  47  70  94 123 159 201 244 285
#     4   8  13  24  45  71  95 120 155 198 243 287
#     4   8  15  28  45  67  97 128 155 192 241 287
#
# _framework density 17.70993
#
# number of rings (size 3 to 8) (size 9 to 14) (size 15 to 20)
#    0.000    2.667    1.667    2.500    0.000    3.333 
#    0.000    0.833    0.000    0.000    0.000    3.500 
#    0.000    5.333    0.000    0.000    0.000    0.000 
#
# Total GULP energy -595024.331661 kJ/mol
# GULP energy per Si atom -12396.340243 kJ/mol
# Density = 1.766962 g / cm^3
# Si number density = 17.709930 Si / 1000 Ang^3
#
#
#
# Elastic Constant Matrix: (Units=GPa)
#
#
# Indices 1 2 3 4 5 6 
#
# 1 21.5607 25.8438 28.2379 0.0000 0.0000 0.0000
# 2 25.8438 162.1119 80.6536 0.0000 0.0000 0.0000
# 3 28.2379 80.6536 115.0560 0.0000 0.0000 0.0000
# 4 0.0000 0.0000 0.0000 32.2545 0.0000 0.0000
# 5 0.0000 0.0000 0.0000 0.0000 20.6686 0.0000
# 6 0.0000 0.0000 0.0000 0.0000 0.0000 13.8608
#
#
#
# Elastic Compliance Matrix: (Units=1/GPa)
#
#
# Indices 1 2 3 4 5 6 
#
# 1 0.070010 -0.004011 -0.014370 0.000000 0.000000 0.000000
# 2 -0.004011 0.009702 -0.005816 0.000000 0.000000 0.000000
# 3 -0.014370 -0.005816 0.016296 0.000000 0.000000 0.000000
# 4 0.000000 0.000000 0.000000 0.031003 0.000000 0.000000
# 5 0.000000 0.000000 0.000000 0.000000 0.048383 0.000000
# 6 0.000000 0.000000 0.000000 0.000000 0.000000 0.072146
#
#
# Mechanical properties :
#
#
# Convention : Reuss Voigt Hill
#
# Bulk Modulus (GPa) = 21.00369 63.13326 42.06847
# Shear Modulus (GPa) = 16.03564 24.28967 20.16266
#
# Velocity S-wave (km/s) = 3.01235 3.70743 3.37782
# Velocity P-wave (km/s) = 4.89741 7.35205 6.24649
#
# Compressibility (1/GPa) = 0.04761069
#
# Stress axis : x y z
#
# Youngs Moduli (GPa) = 14.28377 103.07305 61.36635
#
# Poissons Ratio (x) = 0.41347 0.88185
# Poissons Ratio (y) = 0.05730 0.35693
# Poissons Ratio (z) = 0.20526 0.59952
#
# Static dielectric constant tensor:
#      x y z
#    x 2.814430 0.000000 0.000000 
#    y 0.000000 3.697370 0.000000 
#    z 0.000000 0.000000 3.418330 
# 
# 
# High freq. dielectric constant tensor:
#      x y z
#    x 1.631250 0.000000 0.000000 
#    y 0.000000 1.693580 0.000000 
#    z 0.000000 0.000000 1.689910 
# 
# From -- ./inp_files/53041.got.cif
#   From: 2010.03.12/outbox.cif.g09.slc.cpg/sg63_27_cif.got.tgz:53041.got - 2010.04.10 19:34:48.
