data_PCOD8257137
_publ_section_title
;
Structure prediction by ZEFSAII (Michael W. Deem and Ramdas Pophale) SiO2 
 PCOD8257137
Probable space group: C M C M
;
_chemical_formula_sum "Si O2"
_cell_formula_units_Z 128
_cell_length_a 17.581290
_cell_length_b 19.257776
_cell_length_c 19.738985
_cell_angle_alpha 90.000000
_cell_angle_beta 90.000000
_cell_angle_gamma 90.000000
_cell_volume 6683.157335
_symmetry_space_group_name_H-M "C M C M"
_symmetry_group_IT_number 63
_symmetry_cell_setting 'orthorhombic'
loop_
_space_group_symop_operation_xyz
x,y,z
-x,-y,1/2+z
x,-y,-z
-x,y,1/2-z
-x,-y,-z
x,y,1/2-z
-x,y,z
x,-y,1/2+z
1/2+x,1/2+y,z
1/2-x,1/2-y,1/2+z
1/2+x,1/2-y,-z
1/2-x,1/2+y,1/2-z
1/2-x,1/2-y,-z
1/2+x,1/2+y,1/2-z
1/2-x,1/2+y,z
1/2+x,1/2-y,1/2+z
loop_
_atom_site_type_symbol
_atom_site_label
_atom_site_fract_x
_atom_site_fract_y
_atom_site_fract_z
Si Si1 0.750401 0.081406 0.445215
Si Si2 0.582963 0.287658 0.330027
Si Si3 0.714199 0.813414 0.827676
Si Si4 0.863605 0.934894 0.329881
Si Si5 0.712810 0.069357 0.588014
Si Si6 0.915659 0.362795 0.327534
Si Si7 0.615999 0.711854 0.174298
Si Si8 0.415110 0.571086 0.097700
O O1 0.723722 0.123911 0.379914
O O2 0.726046 0.113611 0.518064
O O3 0.842584 0.070203 0.452573
O O4 0.706748 0.009877 0.434498
O O5 0.590622 0.286872 0.250000
O O6 0.500000 0.259899 0.353527
O O7 0.648897 0.237040 0.357721
O O8 0.589818 0.367257 0.354756
O O9 0.696540 0.839438 0.750000
O O10 0.793733 0.773349 0.828253
O O11 0.856283 0.938699 0.250000
O O12 0.780120 0.923074 0.358804
O O13 0.904888 0.005612 0.352420
O O14 0.635410 0.091783 0.623166
O O15 0.884915 0.364943 0.250000
O O16 0.919617 0.283063 0.353751
O O17 0.000000 0.394680 0.331446
O O18 0.587760 0.698080 0.250000
O O19 0.587568 0.645152 0.134254
O O20 0.500000 0.564964 0.063595
#
# Coordination Sequence:
#
# PCOD8257137 Si02
#       8
#    16  16  16  16  16  16  16  16
#     4   9  21  38  55  76 102 138 180 215 259 321
#     4   9  17  30  48  74 108 139 172 217 262 304
#     4   9  17  32  54  76 100 136 178 219 262 310
#     4  10  19  31  52  80 107 141 180 212 250 309
#     4  10  20  38  56  73 104 142 174 212 264 317
#     4  10  20  34  55  82 107 133 171 220 268 311
#     4   9  17  30  50  77 108 138 168 208 264 322
#     4  10  19  32  52  78 109 140 172 216 261 302
#
# _framework density 19.152625
#
# number of rings (size 3 to 8) (size 9 to 14) (size 15 to 20)
#    0.000    2.500    0.000    2.250    0.000    7.500 
#    0.000   13.750    0.000    1.500    0.000    0.000 
#    0.000    0.000    0.000    0.000    0.000    0.000 
#
# Total GULP energy -792897.379348 kJ/mol
# GULP energy per Si atom -12389.021552 kJ/mol
# Density = 1.910903 g / cm^3
# Si number density = 19.152625 Si / 1000 Ang^3
#
#
#
# Elastic Constant Matrix: (Units=GPa)
#
#
# Indices 1 2 3 4 5 6 
#
# 1 126.1621 53.8117 46.2639 0.0000 0.0000 0.0000
# 2 53.8117 74.2459 32.2892 0.0000 0.0000 0.0000
# 3 46.2639 32.2892 73.9087 0.0000 0.0000 0.0000
# 4 0.0000 0.0000 0.0000 11.4943 0.0000 0.0000
# 5 0.0000 0.0000 0.0000 0.0000 23.5015 0.0000
# 6 0.0000 0.0000 0.0000 0.0000 0.0000 9.9574
#
#
#
# Elastic Compliance Matrix: (Units=1/GPa)
#
#
# Indices 1 2 3 4 5 6 
#
# 1 0.012750 -0.007124 -0.004869 0.000000 0.000000 0.000000
# 2 -0.007124 0.020608 -0.004544 0.000000 0.000000 0.000000
# 3 -0.004869 -0.004544 0.018563 0.000000 0.000000 0.000000
# 4 0.000000 0.000000 0.000000 0.087000 0.000000 0.000000
# 5 0.000000 0.000000 0.000000 0.000000 0.042551 0.000000
# 6 0.000000 0.000000 0.000000 0.000000 0.000000 0.100427
#
#
# Mechanical properties :
#
#
# Convention : Reuss Voigt Hill
#
# Bulk Modulus (GPa) = 53.05588 59.89404 56.47496
# Shear Modulus (GPa) = 15.56397 18.45411 17.00904
#
# Velocity S-wave (km/s) = 2.85376 3.10744 2.98330
# Velocity P-wave (km/s) = 6.21453 6.64942 6.43565
#
# Compressibility (1/GPa) = 0.01884805
#
# Stress axis : x y z
#
# Youngs Moduli (GPa) = 78.43049 48.52498 53.86995
#
# Poissons Ratio (x) = 0.34567 0.26229
# Poissons Ratio (y) = 0.55870 0.24479
# Poissons Ratio (z) = 0.38188 0.22050
#
# Static dielectric constant tensor:
#      x y z
#    x 3.689510 0.000000 0.000000 
#    y 0.000000 3.473650 0.000000 
#    z 0.000000 0.000000 3.466670 
# 
# 
# High freq. dielectric constant tensor:
#      x y z
#    x 1.748830 0.000000 0.000000 
#    y 0.000000 1.737650 0.000000 
#    z 0.000000 0.000000 1.723240 
# 
# From -- ./inp_files/56045.got.cif
#   From: 2010.03.12/outbox.cif.g09.slc.cpg/sg63_29_cif.got.tgz:56045.got - 2010.04.10 19:34:48.
