data_PCOD8257918
_publ_section_title
;
Structure prediction by ZEFSAII (Michael W. Deem and Ramdas Pophale) SiO2 
 PCOD8257918
Probable space group: C M C M
;
_chemical_formula_sum "Si O2"
_cell_formula_units_Z 96
_cell_length_a 9.115786
_cell_length_b 24.864768
_cell_length_c 23.371714
_cell_angle_alpha 90.000000
_cell_angle_beta 90.000000
_cell_angle_gamma 90.000000
_cell_volume 5297.477196
_symmetry_space_group_name_H-M "C M C M"
_symmetry_group_IT_number 63
_symmetry_cell_setting 'orthorhombic'
loop_
_space_group_symop_operation_xyz
x,y,z
-x,-y,1/2+z
x,-y,-z
-x,y,1/2-z
-x,-y,-z
x,y,1/2-z
-x,y,z
x,-y,1/2+z
1/2+x,1/2+y,z
1/2-x,1/2-y,1/2+z
1/2+x,1/2-y,-z
1/2-x,1/2+y,1/2-z
1/2-x,1/2-y,-z
1/2+x,1/2+y,1/2-z
1/2-x,1/2+y,z
1/2+x,1/2-y,1/2+z
loop_
_atom_site_type_symbol
_atom_site_label
_atom_site_fract_x
_atom_site_fract_y
_atom_site_fract_z
Si Si1 0.829229 0.417518 0.944007
Si Si2 0.174286 0.143235 0.250000
Si Si3 0.326861 0.605336 0.559786
Si Si4 0.170146 0.772765 0.054856
Si Si5 0.170446 0.679273 0.138675
Si Si6 0.669636 0.979172 0.130358
Si Si7 0.829710 0.529707 0.250000
O O1 0.782888 0.366424 0.906340
O O2 0.788663 0.470739 0.909415
O O3 0.000000 0.415109 0.960095
O O4 0.737405 0.419007 0.001747
O O5 0.230998 0.175079 0.305264
O O6 0.232526 0.082745 0.250000
O O7 0.000000 0.142547 0.250000
O O8 0.500000 0.599637 0.558067
O O9 0.276391 0.666935 0.567900
O O10 0.265407 0.572281 0.613523
O O11 0.203551 0.737009 0.110640
O O12 0.000000 0.771251 0.039508
O O13 0.250000 0.750000 0.000000
O O14 0.000000 0.672291 0.155522
O O15 0.500000 0.964121 0.123469
O O16 0.708483 0.993840 0.195304
O O17 0.000000 0.547847 0.250000
#
# Coordination Sequence:
#
# PCOD8257918 Si02
#       7
#    16   8  16  16  16  16   8
#     4  10  19  34  59  85 110 148 193 230 271 334
#     4  12  24  36  57  90 121 145 180 238 296 335
#     4  11  23  36  53  84 122 151 181 230 291 340
#     4  10  21  37  59  84 111 148 190 232 280 336
#     4  10  20  38  61  83 112 153 193 230 275 335
#     4  10  21  37  58  82 110 148 196 234 271 337
#     4  10  20  40  63  82 107 149 198 236 274 337
#
# _framework density 18.121834
#
# number of rings (size 3 to 8) (size 9 to 14) (size 15 to 20)
#    0.000    1.667    3.333    1.750    0.000    5.333 
#    0.000    0.833    0.000    3.000    0.000    0.000 
#    0.000    0.000    0.000    0.000    0.000    0.000 
#
# Total GULP energy -595435.423870 kJ/mol
# GULP energy per Si atom -12404.904664 kJ/mol
# Density = 1.808059 g / cm^3
# Si number density = 18.121834 Si / 1000 Ang^3
#
#
#
# Elastic Constant Matrix: (Units=GPa)
#
#
# Indices 1 2 3 4 5 6 
#
# 1 74.1253 52.4016 60.6169 0.0000 0.0000 0.0000
# 2 52.4016 136.2726 70.7370 0.0000 0.0000 0.0000
# 3 60.6169 70.7370 134.8580 0.0000 0.0000 0.0000
# 4 0.0000 0.0000 0.0000 30.2320 0.0000 0.0000
# 5 0.0000 0.0000 0.0000 0.0000 23.3338 0.0000
# 6 0.0000 0.0000 0.0000 0.0000 0.0000 28.0017
#
#
#
# Elastic Compliance Matrix: (Units=1/GPa)
#
#
# Indices 1 2 3 4 5 6 
#
# 1 0.023476 -0.004878 -0.007993 0.000000 0.000000 0.000000
# 2 -0.004878 0.011097 -0.003628 0.000000 0.000000 0.000000
# 3 -0.007993 -0.003628 0.012911 0.000000 0.000000 0.000000
# 4 0.000000 0.000000 0.000000 0.033078 0.000000 0.000000
# 5 0.000000 0.000000 0.000000 0.000000 0.042856 0.000000
# 6 0.000000 0.000000 0.000000 0.000000 0.000000 0.035712
#
#
# Mechanical properties :
#
#
# Convention : Reuss Voigt Hill
#
# Bulk Modulus (GPa) = 69.03676 79.19634 74.11655
# Shear Modulus (GPa) = 25.38609 27.08019 26.23314
#
# Velocity S-wave (km/s) = 3.74686 3.86986 3.80886
# Velocity P-wave (km/s) = 7.54303 7.98529 7.76731
#
# Compressibility (1/GPa) = 0.01448504
#
# Stress axis : x y z
#
# Youngs Moduli (GPa) = 42.59708 90.11118 77.45162
#
# Poissons Ratio (x) = 0.43956 0.61910
# Poissons Ratio (y) = 0.20779 0.28102
# Poissons Ratio (z) = 0.34050 0.32695
#
# Static dielectric constant tensor:
#      x y z
#    x 3.274680 0.000000 0.000000 
#    y 0.000000 3.510690 0.000000 
#    z 0.000000 0.000000 3.410130 
# 
# 
# High freq. dielectric constant tensor:
#      x y z
#    x 1.695760 0.000000 0.000000 
#    y 0.000000 1.706280 0.000000 
#    z 0.000000 0.000000 1.703590 
# 
# From -- ./inp_files/60053.got.cif
#   From: 2010.03.12/outbox.cif.g09.slc.cpg/sg63_31_cif.got.tgz:60053.got - 2010.04.10 19:34:48.
