data_PCOD8257309
_publ_section_title
;
Structure prediction by ZEFSAII (Michael W. Deem and Ramdas Pophale) SiO2 
 PCOD8257309
Probable space group: C M C M
;
_chemical_formula_sum "Si O2"
_cell_formula_units_Z 80
_cell_length_a 8.838866
_cell_length_b 25.267596
_cell_length_c 18.919923
_cell_angle_alpha 90.000000
_cell_angle_beta 90.000000
_cell_angle_gamma 90.000000
_cell_volume 4225.516860
_symmetry_space_group_name_H-M "C M C M"
_symmetry_group_IT_number 63
_symmetry_cell_setting 'orthorhombic'
loop_
_space_group_symop_operation_xyz
x,y,z
-x,-y,1/2+z
x,-y,-z
-x,y,1/2-z
-x,-y,-z
x,y,1/2-z
-x,y,z
x,-y,1/2+z
1/2+x,1/2+y,z
1/2-x,1/2-y,1/2+z
1/2+x,1/2-y,-z
1/2-x,1/2+y,1/2-z
1/2-x,1/2-y,-z
1/2+x,1/2+y,1/2-z
1/2-x,1/2+y,z
1/2+x,1/2-y,1/2+z
loop_
_atom_site_type_symbol
_atom_site_label
_atom_site_fract_x
_atom_site_fract_y
_atom_site_fract_z
Si Si1 0.678987 0.890299 0.067094
Si Si2 0.821808 0.777146 0.067548
Si Si3 0.320939 0.186837 0.171533
Si Si4 0.679797 0.914821 0.910344
Si Si5 0.320053 0.982419 0.329950
O O1 0.500000 0.881062 0.067587
O O2 0.758828 0.835055 0.081806
O O3 0.732555 0.930137 0.128416
O O4 0.731385 0.914517 0.991969
O O5 0.776313 0.741861 0.134996
O O6 0.000000 0.779453 0.056065
O O7 0.750000 0.750000 0.000000
O O8 0.250552 0.186351 0.250000
O O9 0.500000 0.180646 0.175175
O O10 0.253948 0.137498 0.127423
O O11 0.500000 0.915571 0.906097
O O12 0.745905 0.966318 0.870621
O O13 0.255870 0.980668 0.250000
O O14 0.500000 0.985506 0.328784
#
# Coordination Sequence:
#
# PCOD8257309 Si02
#       5
#    16  16  16  16  16
#     4  10  19  32  51  77 105 135 172 212 256 308
#     4  11  21  35  54  77 104 136 172 212 258 310
#     4   9  17  29  48  75 102 128 167 217 260 298
#     4   9  15  27  48  74 102 132 168 213 256 297
#     4   9  17  28  46  75 108 137 168 212 262 305
#
# _framework density 18.932594000000002
#
# number of rings (size 3 to 8) (size 9 to 14) (size 15 to 20)
#    0.000    2.400    2.000    1.800    0.000    5.600 
#    0.000    0.000    0.000    4.200    0.000    0.000 
#    0.000    0.000    0.000    0.000    0.000    0.000 
#
# Total GULP energy -495952.744427 kJ/mol
# GULP energy per Si atom -12398.818611 kJ/mol
# Density = 1.888950 g / cm^3
# Si number density = 18.932594 Si / 1000 Ang^3
#
#
#
# Elastic Constant Matrix: (Units=GPa)
#
#
# Indices 1 2 3 4 5 6 
#
# 1 25.3964 30.2833 22.0557 0.0000 0.0000 0.0000
# 2 30.2833 190.2860 95.3997 0.0000 0.0000 0.0000
# 3 22.0557 95.3997 164.6324 0.0000 0.0000 0.0000
# 4 0.0000 0.0000 0.0000 37.3893 0.0000 0.0000
# 5 0.0000 0.0000 0.0000 0.0000 11.7197 0.0000
# 6 0.0000 0.0000 0.0000 0.0000 0.0000 26.9160
#
#
#
# Elastic Compliance Matrix: (Units=1/GPa)
#
#
# Indices 1 2 3 4 5 6 
#
# 1 0.049572 -0.006427 -0.002917 0.000000 0.000000 0.000000
# 2 -0.006427 0.008240 -0.003914 0.000000 0.000000 0.000000
# 3 -0.002917 -0.003914 0.008733 0.000000 0.000000 0.000000
# 4 0.000000 0.000000 0.000000 0.026746 0.000000 0.000000
# 5 0.000000 0.000000 0.000000 0.000000 0.085327 0.000000
# 6 0.000000 0.000000 0.000000 0.000000 0.000000 0.037153
#
#
# Mechanical properties :
#
#
# Convention : Reuss Voigt Hill
#
# Bulk Modulus (GPa) = 24.98125 75.08803 50.03464
# Shear Modulus (GPa) = 19.55955 30.71009 25.13482
#
# Velocity S-wave (km/s) = 3.21770 4.03187 3.64757
# Velocity P-wave (km/s) = 5.19887 7.83718 6.65018
#
# Compressibility (1/GPa) = 0.04003002
#
# Stress axis : x y z
#
# Youngs Moduli (GPa) = 20.17250 121.35396 114.50806
#
# Poissons Ratio (x) = 0.77992 0.33402
# Poissons Ratio (y) = 0.12964 0.44819
# Poissons Ratio (z) = 0.05884 0.47499
#
# Static dielectric constant tensor:
#      x y z
#    x 2.872740 0.000000 0.000000 
#    y 0.000000 3.376010 0.000000 
#    z 0.000000 0.000000 2.395170 
# 
# 
# High freq. dielectric constant tensor:
#      x y z
#    x 1.667910 0.000000 0.000000 
#    y 0.000000 1.752110 0.000000 
#    z 0.000000 0.000000 1.749470 
# 
# From -- ./inp_files/40461.got.cif
#   From: 2010.03.12/outbox.cif.g09.slc.cpg/sg63_21_cif.got.tgz:40461.got - 2010.04.10 19:34:48.
