data_PCOD8257455
_publ_section_title
;
Structure prediction by ZEFSAII (Michael W. Deem and Ramdas Pophale) SiO2 
 PCOD8257455
Probable space group: C M C M
;
_chemical_formula_sum "Si O2"
_cell_formula_units_Z 104
_cell_length_a 22.542560
_cell_length_b 28.401031
_cell_length_c 8.669163
_cell_angle_alpha 90.000000
_cell_angle_beta 90.000000
_cell_angle_gamma 90.000000
_cell_volume 5550.275092
_symmetry_space_group_name_H-M "C M C M"
_symmetry_group_IT_number 63
_symmetry_cell_setting 'orthorhombic'
loop_
_space_group_symop_operation_xyz
x,y,z
-x,-y,1/2+z
x,-y,-z
-x,y,1/2-z
-x,-y,-z
x,y,1/2-z
-x,y,z
x,-y,1/2+z
1/2+x,1/2+y,z
1/2-x,1/2-y,1/2+z
1/2+x,1/2-y,-z
1/2-x,1/2+y,1/2-z
1/2-x,1/2-y,-z
1/2+x,1/2+y,1/2-z
1/2-x,1/2+y,z
1/2+x,1/2-y,1/2+z
loop_
_atom_site_type_symbol
_atom_site_label
_atom_site_fract_x
_atom_site_fract_y
_atom_site_fract_z
Si Si1 0.335202 0.882446 0.069575
Si Si2 0.311923 0.789556 0.929326
Si Si3 0.771399 0.950488 0.067158
Si Si4 0.934346 0.452539 0.431059
Si Si5 0.678229 0.695747 0.067985
Si Si6 0.618150 0.400829 0.933709
Si Si7 0.500000 0.553402 0.565973
O O1 0.334268 0.870370 0.250000
O O2 0.275686 0.910269 0.022374
O O3 0.391944 0.911309 0.017056
O O4 0.347412 0.836233 0.969558
O O5 0.309669 0.778620 0.750000
O O6 0.245885 0.801602 0.996122
O O7 0.346874 0.746010 0.010314
O O8 0.780020 0.954189 0.250000
O O9 0.833182 0.938710 0.984603
O O10 0.748483 0.000000 0.000000
O O11 0.907519 0.500000 0.500000
O O12 0.935174 0.458218 0.250000
O O13 0.000000 0.442537 0.497211
O O14 0.677974 0.692487 0.250000
O O15 0.640035 0.651094 0.005754
O O16 0.610490 0.401377 0.750000
O O17 0.556593 0.416362 0.010803
O O18 0.500000 0.500000 0.500000
O O19 0.500000 0.549713 0.750000
#
# Coordination Sequence:
#
# PCOD8257455 Si02
#       7
#    16  16  16  16  16  16   8
#     4  10  20  33  51  77 109 144 181 225 277 330
#     4  10  19  32  54  84 113 143 179 222 273 327
#     4  11  22  34  51  78 112 146 180 225 279 334
#     4   9  18  33  52  74 102 140 184 224 265 317
#     4   9  19  35  56  82 111 143 177 220 272 330
#     4  11  22  40  62  84 112 147 189 232 281 338
#     4  12  26  44  64  88 116 152 196 240 289 342
#
# _framework density 18.737808999999999
#
# number of rings (size 3 to 8) (size 9 to 14) (size 15 to 20)
#    0.000    1.846    1.538    3.000    0.000    3.077 
#    0.000    0.000    1.692    0.000    0.000    0.000 
#    0.000    0.000    0.000    0.000    0.000    0.000 
#
# Total GULP energy -644584.169045 kJ/mol
# GULP energy per Si atom -12395.849405 kJ/mol
# Density = 1.869516 g / cm^3
# Si number density = 18.737809 Si / 1000 Ang^3
#
#
#
# Elastic Constant Matrix: (Units=GPa)
#
#
# Indices 1 2 3 4 5 6 
#
# 1 77.3097 45.4385 27.2073 0.0000 0.0000 0.0000
# 2 45.4385 145.6328 33.3632 0.0000 0.0000 0.0000
# 3 27.2073 33.3632 46.2663 0.0000 0.0000 0.0000
# 4 0.0000 0.0000 0.0000 34.0506 0.0000 0.0000
# 5 0.0000 0.0000 0.0000 0.0000 13.4593 0.0000
# 6 0.0000 0.0000 0.0000 0.0000 0.0000 29.6705
#
#
#
# Elastic Compliance Matrix: (Units=1/GPa)
#
#
# Indices 1 2 3 4 5 6 
#
# 1 0.017912 -0.003804 -0.007790 0.000000 0.000000 0.000000
# 2 -0.003804 0.009033 -0.004277 0.000000 0.000000 0.000000
# 3 -0.007790 -0.004277 0.029279 0.000000 0.000000 0.000000
# 4 0.000000 0.000000 0.000000 0.029368 0.000000 0.000000
# 5 0.000000 0.000000 0.000000 0.000000 0.074298 0.000000
# 6 0.000000 0.000000 0.000000 0.000000 0.000000 0.033703
#
#
# Mechanical properties :
#
#
# Convention : Reuss Voigt Hill
#
# Bulk Modulus (GPa) = 40.84601 53.46965 47.15783
# Shear Modulus (GPa) = 21.41341 26.31607 23.86474
#
# Velocity S-wave (km/s) = 3.38419 3.75165 3.57265
# Velocity P-wave (km/s) = 6.09232 6.88216 6.49925
#
# Compressibility (1/GPa) = 0.02448219
#
# Stress axis : x y z
#
# Youngs Moduli (GPa) = 55.82697 110.70126 34.15368
#
# Poissons Ratio (x) = 0.42112 0.26607
# Poissons Ratio (y) = 0.21237 0.14608
# Poissons Ratio (z) = 0.43491 0.47347
#
# Static dielectric constant tensor:
#      x y z
#    x 3.619430 0.000000 0.000000 
#    y 0.000000 3.681770 0.000000 
#    z 0.000000 0.000000 3.332110 
# 
# 
# High freq. dielectric constant tensor:
#      x y z
#    x 1.706070 0.000000 0.000000 
#    y 0.000000 1.741470 0.000000 
#    z 0.000000 0.000000 1.726990 
# 
# From -- ./inp_files/8834.got.cif
#   From: 2010.03.12/outbox.cif.g09.slc.cpg/sg63_5_cif.got.tgz:8834.got - 2010.04.10 19:34:48.
