data_PCOD8257313
_publ_section_title
;
Structure prediction by ZEFSAII (Michael W. Deem and Ramdas Pophale) SiO2 
 PCOD8257313
Probable space group: C M C M
;
_chemical_formula_sum "Si O2"
_cell_formula_units_Z 72
_cell_length_a 27.499453
_cell_length_b 14.321413
_cell_length_c 9.060069
_cell_angle_alpha 90.000000
_cell_angle_beta 90.000000
_cell_angle_gamma 90.000000
_cell_volume 3568.136249
_symmetry_space_group_name_H-M "C M C M"
_symmetry_group_IT_number 63
_symmetry_cell_setting 'orthorhombic'
loop_
_space_group_symop_operation_xyz
x,y,z
-x,-y,1/2+z
x,-y,-z
-x,y,1/2-z
-x,-y,-z
x,y,1/2-z
-x,y,z
x,-y,1/2+z
1/2+x,1/2+y,z
1/2-x,1/2-y,1/2+z
1/2+x,1/2-y,-z
1/2-x,1/2+y,1/2-z
1/2-x,1/2-y,-z
1/2+x,1/2+y,1/2-z
1/2-x,1/2+y,z
1/2+x,1/2-y,1/2+z
loop_
_atom_site_type_symbol
_atom_site_label
_atom_site_fract_x
_atom_site_fract_y
_atom_site_fract_z
Si Si1 0.783305 0.372382 0.585271
Si Si2 0.097077 0.204497 0.423367
Si Si3 0.307776 0.342793 0.085547
Si Si4 0.000000 0.099160 0.076743
Si Si5 0.120232 0.411511 0.423094
O O1 0.786556 0.415968 0.750000
O O2 0.731462 0.399311 0.512215
O O3 0.789228 0.262142 0.597242
O O4 0.824462 0.413296 0.479421
O O5 0.107387 0.194636 0.250000
O O6 0.139760 0.150864 0.508432
O O7 0.046805 0.158102 0.472854
O O8 0.094556 0.314115 0.467504
O O9 0.311774 0.386123 0.250000
O O10 0.000000 0.082108 0.250000
O O11 0.000000 0.000000 0.000000
O O12 0.092990 0.500000 0.500000
O O13 0.119313 0.427243 0.250000
#
# Coordination Sequence:
#
# PCOD8257313 Si02
#       5
#    16  16  16   8  16
#     4   9  16  27  45  71 105 144 183 220 259 306
#     4   9  19  36  57  79 107 143 180 221 274 331
#     4   9  16  27  47  75 105 138 179 224 266 309
#     4  10  22  42  65  86 106 132 171 222 279 332
#     4  10  19  32  51  77 111 149 185 220 261 315
#
# _framework density 20.178602999999999
#
# number of rings (size 3 to 8) (size 9 to 14) (size 15 to 20)
#    0.000    2.667    0.000    2.000    0.000    7.111 
#    0.000    1.667    0.000    2.667    0.000    0.000 
#    0.000    0.000    0.000    0.000    0.000    0.000 
#
# Total GULP energy -446310.074377 kJ/mol
# GULP energy per Si atom -12397.502066 kJ/mol
# Density = 2.013268 g / cm^3
# Si number density = 20.178603 Si / 1000 Ang^3
#
#
#
# Elastic Constant Matrix: (Units=GPa)
#
#
# Indices 1 2 3 4 5 6 
#
# 1 145.0801 53.1746 53.3773 0.0000 0.0000 0.0000
# 2 53.1746 94.3369 37.9580 0.0000 0.0000 0.0000
# 3 53.3773 37.9580 93.6974 0.0000 0.0000 0.0000
# 4 0.0000 0.0000 0.0000 28.9345 0.0000 0.0000
# 5 0.0000 0.0000 0.0000 0.0000 24.8854 0.0000
# 6 0.0000 0.0000 0.0000 0.0000 0.0000 9.0413
#
#
#
# Elastic Compliance Matrix: (Units=1/GPa)
#
#
# Indices 1 2 3 4 5 6 
#
# 1 0.009798 -0.003915 -0.003996 0.000000 0.000000 0.000000
# 2 -0.003915 0.014229 -0.003534 0.000000 0.000000 0.000000
# 3 -0.003996 -0.003534 0.014381 0.000000 0.000000 0.000000
# 4 0.000000 0.000000 0.000000 0.034561 0.000000 0.000000
# 5 0.000000 0.000000 0.000000 0.000000 0.040184 0.000000
# 6 0.000000 0.000000 0.000000 0.000000 0.000000 0.110604
#
#
# Mechanical properties :
#
#
# Convention : Reuss Voigt Hill
#
# Bulk Modulus (GPa) = 64.44094 69.12602 66.78348
# Shear Modulus (GPa) = 19.85562 25.14587 22.50075
#
# Velocity S-wave (km/s) = 3.14027 3.53394 3.34290
# Velocity P-wave (km/s) = 6.71960 7.14024 6.93311
#
# Compressibility (1/GPa) = 0.01551809
#
# Stress axis : x y z
#
# Youngs Moduli (GPa) = 102.06509 70.27883 69.53855
#
# Poissons Ratio (x) = 0.27514 0.27784
# Poissons Ratio (y) = 0.39958 0.24576
# Poissons Ratio (z) = 0.40780 0.24837
#
# Static dielectric constant tensor:
#      x y z
#    x 3.504170 0.000000 0.000000 
#    y 0.000000 3.781170 0.000000 
#    z 0.000000 0.000000 3.804490 
# 
# 
# High freq. dielectric constant tensor:
#      x y z
#    x 1.761810 0.000000 0.000000 
#    y 0.000000 1.782640 0.000000 
#    z 0.000000 0.000000 1.795410 
# 
# From -- ./inp_files/11685.got.cif
#   From: 2010.03.12/outbox.cif.g09.slc.cpg/sg63_6_cif.got.tgz:11685.got - 2010.04.10 19:34:48.
