data_PCOD8257311
_publ_section_title
;
Structure prediction by ZEFSAII (Michael W. Deem and Ramdas Pophale) SiO2 
 PCOD8257311
Probable space group: C M C M
;
_chemical_formula_sum "Si O2"
_cell_formula_units_Z 96
_cell_length_a 9.071176
_cell_length_b 23.179894
_cell_length_c 23.141259
_cell_angle_alpha 90.000000
_cell_angle_beta 90.000000
_cell_angle_gamma 90.000000
_cell_volume 4865.887031
_symmetry_space_group_name_H-M "C M C M"
_symmetry_group_IT_number 63
_symmetry_cell_setting 'orthorhombic'
loop_
_space_group_symop_operation_xyz
x,y,z
-x,-y,1/2+z
x,-y,-z
-x,y,1/2-z
-x,-y,-z
x,y,1/2-z
-x,y,z
x,-y,1/2+z
1/2+x,1/2+y,z
1/2-x,1/2-y,1/2+z
1/2+x,1/2-y,-z
1/2-x,1/2+y,1/2-z
1/2-x,1/2-y,-z
1/2+x,1/2+y,1/2-z
1/2-x,1/2+y,z
1/2+x,1/2-y,1/2+z
loop_
_atom_site_type_symbol
_atom_site_label
_atom_site_fract_x
_atom_site_fract_y
_atom_site_fract_z
Si Si1 0.175697 0.154086 0.750000
Si Si2 0.329293 0.217169 0.856172
Si Si3 0.340205 0.963420 0.444715
Si Si4 0.672911 0.162230 0.523331
Si Si5 0.175683 0.979101 0.250000
Si Si6 0.671863 0.335723 0.905033
Si Si7 0.173369 0.041874 0.362387
O O1 0.233442 0.186229 0.807228
O O2 0.232029 0.087476 0.750000
O O3 0.000000 0.157251 0.750000
O O4 0.500000 0.201742 0.844391
O O5 0.280451 0.198326 0.920411
O O6 0.303162 0.286344 0.856328
O O7 0.500000 0.956519 0.411982
O O8 0.275087 0.902354 0.463254
O O9 0.374463 0.000000 0.500000
O O10 0.213906 0.994309 0.409021
O O11 0.500000 0.166693 0.511131
O O12 0.754218 0.183231 0.465453
O O13 0.000000 0.977217 0.250000
O O14 0.238805 0.016007 0.303353
O O15 0.500000 0.343089 0.918657
O O16 0.739843 0.395277 0.879056
O O17 0.000000 0.048018 0.357697
#
# Coordination Sequence:
#
# PCOD8257311 Si02
#       7
#     8  16  16  16   8  16  16
#     4  11  23  40  61  83 105 137 184 233 274 320
#     4  10  22  39  58  81 111 148 186 224 273 329
#     4  10  19  32  51  77 110 145 179 222 275 324
#     4  10  20  35  56  81 113 151 185 225 277 327
#     4   9  20  38  57  79 109 139 176 227 278 322
#     4  10  21  35  55  84 113 144 184 226 271 327
#     4  10  20  35  56  81 109 145 184 225 274 326
#
# _framework density 19.729189000000002
#
# number of rings (size 3 to 8) (size 9 to 14) (size 15 to 20)
#    0.000    2.000    1.667    1.750    0.000    3.000 
#    0.000    3.750    0.000    0.000    0.000    0.000 
#    0.000    0.000    0.000    0.000    0.000    0.000 
#
# Total GULP energy -594944.886145 kJ/mol
# GULP energy per Si atom -12394.685128 kJ/mol
# Density = 1.968428 g / cm^3
# Si number density = 19.729189 Si / 1000 Ang^3
#
#
#
# Elastic Constant Matrix: (Units=GPa)
#
#
# Indices 1 2 3 4 5 6 
#
# 1 39.5216 28.6586 40.4786 0.0000 0.0000 0.0000
# 2 28.6586 93.0123 55.0380 0.0000 0.0000 0.0000
# 3 40.4786 55.0380 127.2414 0.0000 0.0000 0.0000
# 4 0.0000 0.0000 0.0000 30.6254 0.0000 0.0000
# 5 0.0000 0.0000 0.0000 0.0000 32.7261 0.0000
# 6 0.0000 0.0000 0.0000 0.0000 0.0000 24.7344
#
#
#
# Elastic Compliance Matrix: (Units=1/GPa)
#
#
# Indices 1 2 3 4 5 6 
#
# 1 0.040245 -0.006484 -0.009998 0.000000 0.000000 0.000000
# 2 -0.006484 0.015494 -0.004639 0.000000 0.000000 0.000000
# 3 -0.009998 -0.004639 0.013047 0.000000 0.000000 0.000000
# 4 0.000000 0.000000 0.000000 0.032653 0.000000 0.000000
# 5 0.000000 0.000000 0.000000 0.000000 0.030557 0.000000
# 6 0.000000 0.000000 0.000000 0.000000 0.000000 0.040429
#
#
# Mechanical properties :
#
#
# Convention : Reuss Voigt Hill
#
# Bulk Modulus (GPa) = 37.67527 56.45840 47.06684
# Shear Modulus (GPa) = 22.36993 26.65718 24.51355
#
# Velocity S-wave (km/s) = 3.37092 3.67979 3.52874
# Velocity P-wave (km/s) = 5.85564 6.83618 6.36482
#
# Compressibility (1/GPa) = 0.02654261
#
# Stress axis : x y z
#
# Youngs Moduli (GPa) = 24.84810 64.54001 76.64883
#
# Poissons Ratio (x) = 0.41846 0.76635
# Poissons Ratio (y) = 0.16111 0.35560
# Poissons Ratio (z) = 0.24844 0.29943
#
# Static dielectric constant tensor:
#      x y z
#    x 3.333790 0.000000 0.000000 
#    y 0.000000 3.841830 0.000000 
#    z 0.000000 0.000000 3.539290 
# 
# 
# High freq. dielectric constant tensor:
#      x y z
#    x 1.745290 0.000000 0.000000 
#    y 0.000000 1.790020 0.000000 
#    z 0.000000 0.000000 1.762640 
# 
# From -- ./inp_files/60015.got.cif
#   From: 2010.03.12/outbox.cif.g09.slc.cpg/sg63_31_cif.got.tgz:60015.got - 2010.04.10 19:34:48.
