data_PCOD8257798
_publ_section_title
;
Structure prediction by ZEFSAII (Michael W. Deem and Ramdas Pophale) SiO2 
 PCOD8257798
Probable space group: C M C M
;
_chemical_formula_sum "Si O2"
_cell_formula_units_Z 72
_cell_length_a 7.507086
_cell_length_b 31.319590
_cell_length_c 17.377093
_cell_angle_alpha 90.000000
_cell_angle_beta 90.000000
_cell_angle_gamma 90.000000
_cell_volume 4085.682220
_symmetry_space_group_name_H-M "C M C M"
_symmetry_group_IT_number 63
_symmetry_cell_setting 'orthorhombic'
loop_
_space_group_symop_operation_xyz
x,y,z
-x,-y,1/2+z
x,-y,-z
-x,y,1/2-z
-x,-y,-z
x,y,1/2-z
-x,y,z
x,-y,1/2+z
1/2+x,1/2+y,z
1/2-x,1/2-y,1/2+z
1/2+x,1/2-y,-z
1/2-x,1/2+y,1/2-z
1/2-x,1/2-y,-z
1/2+x,1/2+y,1/2-z
1/2-x,1/2+y,z
1/2+x,1/2-y,1/2+z
loop_
_atom_site_type_symbol
_atom_site_label
_atom_site_fract_x
_atom_site_fract_y
_atom_site_fract_z
Si Si1 0.703586 0.315662 0.837909
Si Si2 0.000000 0.250557 0.840070
Si Si3 0.500000 0.340907 0.414980
Si Si4 0.000000 0.069437 0.840471
Si Si5 0.702553 0.869076 0.524332
Si Si6 0.794601 0.458202 0.453965
O O1 0.748014 0.327986 0.750000
O O2 0.500000 0.301230 0.847776
O O3 0.824528 0.276334 0.866830
O O4 0.747264 0.357576 0.888040
O O5 0.000000 0.203858 0.873730
O O6 0.000000 0.244789 0.750000
O O7 0.500000 0.379579 0.353805
O O8 0.324071 0.342041 0.466881
O O9 0.175403 0.048183 0.878047
O O10 0.000000 0.059694 0.750000
O O11 0.500000 0.856900 0.505310
O O12 0.737090 0.919303 0.513087
O O13 0.733644 0.500000 0.500000
O O14 0.000000 0.461313 0.427186
#
# Coordination Sequence:
#
# PCOD8257798 Si02
#       6
#    16   8   8   8  16  16
#     4  10  20  35  52  72 101 136 169 211 262 309
#     4  10  21  36  53  72 100 138 174 210 260 312
#     4  10  21  35  52  76 105 134 175 219 254 304
#     4  10  20  35  56  80 110 142 174 215 265 312
#     4  10  19  34  54  78 102 134 175 210 257 309
#     4   9  19  36  58  80 107 141 176 216 259 310
#
# _framework density 17.622515
#
# number of rings (size 3 to 8) (size 9 to 14) (size 15 to 20)
#    0.000    2.222    2.222    0.667    0.000    2.222 
#    0.000    1.111    0.000    8.000    0.000    0.000 
#    0.000    0.000    0.000    0.000    0.000    0.000 
#
# Total GULP energy -446420.253703 kJ/mol
# GULP energy per Si atom -12400.562603 kJ/mol
# Density = 1.758241 g / cm^3
# Si number density = 17.622515 Si / 1000 Ang^3
#
#
#
# Elastic Constant Matrix: (Units=GPa)
#
#
# Indices 1 2 3 4 5 6 
#
# 1 134.2788 56.3762 58.3614 0.0000 0.0000 0.0000
# 2 56.3762 113.6041 69.3921 0.0000 0.0000 0.0000
# 3 58.3614 69.3921 106.6020 0.0000 0.0000 0.0000
# 4 0.0000 0.0000 0.0000 25.1397 0.0000 0.0000
# 5 0.0000 0.0000 0.0000 0.0000 19.5454 0.0000
# 6 0.0000 0.0000 0.0000 0.0000 0.0000 22.5171
#
#
#
# Elastic Compliance Matrix: (Units=1/GPa)
#
#
# Indices 1 2 3 4 5 6 
#
# 1 0.010268 -0.002759 -0.003826 0.000000 0.000000 0.000000
# 2 -0.002759 0.015354 -0.008484 0.000000 0.000000 0.000000
# 3 -0.003826 -0.008484 0.016998 0.000000 0.000000 0.000000
# 4 0.000000 0.000000 0.000000 0.039778 0.000000 0.000000
# 5 0.000000 0.000000 0.000000 0.000000 0.051163 0.000000
# 6 0.000000 0.000000 0.000000 0.000000 0.000000 0.044411
#
#
# Mechanical properties :
#
#
# Convention : Reuss Voigt Hill
#
# Bulk Modulus (GPa) = 80.11143 80.30493 80.20818
# Shear Modulus (GPa) = 23.55494 24.79745 24.17619
#
# Velocity S-wave (km/s) = 3.65997 3.75526 3.70792
# Velocity P-wave (km/s) = 7.96360 8.02939 7.99656
#
# Compressibility (1/GPa) = 0.01248261
#
# Stress axis : x y z
#
# Youngs Moduli (GPa) = 97.38789 65.13009 58.83077
#
# Poissons Ratio (x) = 0.17968 0.22507
# Poissons Ratio (y) = 0.26867 0.49913
# Poissons Ratio (z) = 0.37258 0.55258
#
# Static dielectric constant tensor:
#      x y z
#    x 3.648470 0.000000 0.000000 
#    y 0.000000 3.226100 0.000000 
#    z 0.000000 0.000000 3.163920 
# 
# 
# High freq. dielectric constant tensor:
#      x y z
#    x 1.703430 0.000000 0.000000 
#    y 0.000000 1.673660 0.000000 
#    z 0.000000 0.000000 1.668060 
# 
# From -- ./inp_files/28140.got.cif
#   From: 2010.03.12/outbox.cif.g09.slc.cpg/sg63_15_cif.got.tgz:28140.got - 2010.04.10 19:34:48.
