data_PCOD8257316
_publ_section_title
;
Structure prediction by ZEFSAII (Michael W. Deem and Ramdas Pophale) SiO2 
 PCOD8257316
Probable space group: C M C M
;
_chemical_formula_sum "Si O2"
_cell_formula_units_Z 112
_cell_length_a 18.111324
_cell_length_b 20.032817
_cell_length_c 18.313561
_cell_angle_alpha 90.000000
_cell_angle_beta 90.000000
_cell_angle_gamma 90.000000
_cell_volume 6644.541573
_symmetry_space_group_name_H-M "C M C M"
_symmetry_group_IT_number 63
_symmetry_cell_setting 'orthorhombic'
loop_
_space_group_symop_operation_xyz
x,y,z
-x,-y,1/2+z
x,-y,-z
-x,y,1/2-z
-x,-y,-z
x,y,1/2-z
-x,y,z
x,-y,1/2+z
1/2+x,1/2+y,z
1/2-x,1/2-y,1/2+z
1/2+x,1/2-y,-z
1/2-x,1/2+y,1/2-z
1/2-x,1/2-y,-z
1/2+x,1/2+y,1/2-z
1/2-x,1/2+y,z
1/2+x,1/2-y,1/2+z
loop_
_atom_site_type_symbol
_atom_site_label
_atom_site_fract_x
_atom_site_fract_y
_atom_site_fract_z
Si Si1 0.806566 0.571559 0.533866
Si Si2 0.084673 0.367271 0.564608
Si Si3 0.783224 0.381080 0.666408
Si Si4 0.916217 0.105366 0.665919
Si Si5 0.782760 0.814561 0.961190
Si Si6 0.582483 0.711617 0.544102
Si Si7 0.771442 0.027559 0.668097
O O1 0.792971 0.500000 0.500000
O O2 0.888011 0.599976 0.512522
O O3 0.746097 0.619191 0.499156
O O4 0.790279 0.566431 0.620081
O O5 0.136250 0.394840 0.630070
O O6 0.096633 0.288473 0.562727
O O7 0.000000 0.387711 0.578645
O O8 0.794282 0.359036 0.750000
O O9 0.739508 0.321140 0.624277
O O10 0.734690 0.447983 0.659699
O O11 0.909289 0.128184 0.750000
O O12 0.898457 0.170120 0.616953
O O13 0.855851 0.048080 0.647478
O O14 0.000000 0.078783 0.650371
O O15 0.750000 0.750000 0.000000
O O16 0.870279 0.811640 0.974116
O O17 0.500000 0.699224 0.517872
O O18 0.752700 0.049892 0.750000
#
# Coordination Sequence:
#
# PCOD8257316 Si02
#       7
#    16  16  16  16  16  16  16
#     4  11  19  34  55  79 103 141 180 223 264 320
#     4  10  21  35  54  79 107 140 176 221 275 324
#     4  10  21  36  55  79 108 140 175 222 272 318
#     4   9  18  31  50  78 112 144 174 215 270 325
#     4  11  19  35  56  78 106 141 179 218 263 318
#     4  10  19  32  51  78 110 138 172 220 269 313
#     4  10  19  33  52  77 110 144 179 221 267 318
#
# _framework density 16.855941000000001
#
# number of rings (size 3 to 8) (size 9 to 14) (size 15 to 20)
#    0.000    1.857    7.143    0.000    0.000    1.143 
#    0.000    2.857    0.000    4.286    0.000    2.000 
#    0.000    0.000    0.000    0.000    0.000    0.000 
#
# Total GULP energy -693934.839290 kJ/mol
# GULP energy per Si atom -12391.693559 kJ/mol
# Density = 1.681758 g / cm^3
# Si number density = 16.855941 Si / 1000 Ang^3
#
#
#
# Elastic Constant Matrix: (Units=GPa)
#
#
# Indices 1 2 3 4 5 6 
#
# 1 118.7985 57.0242 67.1752 0.0000 0.0000 0.0000
# 2 57.0242 89.3212 35.0067 0.0000 0.0000 0.0000
# 3 67.1752 35.0067 115.0261 0.0000 0.0000 0.0000
# 4 0.0000 0.0000 0.0000 24.6708 0.0000 0.0000
# 5 0.0000 0.0000 0.0000 0.0000 22.9423 0.0000
# 6 0.0000 0.0000 0.0000 0.0000 0.0000 27.4203
#
#
#
# Elastic Compliance Matrix: (Units=1/GPa)
#
#
# Indices 1 2 3 4 5 6 
#
# 1 0.015985 -0.007433 -0.007073 0.000000 0.000000 0.000000
# 2 -0.007433 0.016168 -0.000580 0.000000 0.000000 0.000000
# 3 -0.007073 -0.000580 0.013001 0.000000 0.000000 0.000000
# 4 0.000000 0.000000 0.000000 0.040534 0.000000 0.000000
# 5 0.000000 0.000000 0.000000 0.000000 0.043588 0.000000
# 6 0.000000 0.000000 0.000000 0.000000 0.000000 0.036469
#
#
# Mechanical properties :
#
#
# Convention : Reuss Voigt Hill
#
# Bulk Modulus (GPa) = 66.74538 71.28423 69.01481
# Shear Modulus (GPa) = 24.88671 25.93599 25.41135
#
# Velocity S-wave (km/s) = 3.84661 3.92686 3.88694
# Velocity P-wave (km/s) = 7.70792 7.93363 7.82159
#
# Compressibility (1/GPa) = 0.01498231
#
# Stress axis : x y z
#
# Youngs Moduli (GPa) = 62.55833 61.85013 76.91835
#
# Poissons Ratio (x) = 0.45974 0.54405
# Poissons Ratio (y) = 0.46500 0.04459
# Poissons Ratio (z) = 0.44248 0.03585
#
# Static dielectric constant tensor:
#      x y z
#    x 3.255040 0.000000 0.000000 
#    y 0.000000 2.898220 0.000000 
#    z 0.000000 0.000000 3.372890 
# 
# 
# High freq. dielectric constant tensor:
#      x y z
#    x 1.648650 0.000000 0.000000 
#    y 0.000000 1.648480 0.000000 
#    z 0.000000 0.000000 1.639240 
# 
# From -- ./inp_files/46057.got.cif
#   From: 2010.03.12/outbox.cif.g09.slc.cpg/sg63_24_cif.got.tgz:46057.got - 2010.04.10 19:34:48.
