data_PCOD8257198
_publ_section_title
;
Structure prediction by ZEFSAII (Michael W. Deem and Ramdas Pophale) SiO2 
 PCOD8257198
Probable space group: C M C M
;
_chemical_formula_sum "Si O2"
_cell_formula_units_Z 88
_cell_length_a 27.440762
_cell_length_b 19.077410
_cell_length_c 9.104414
_cell_angle_alpha 90.000000
_cell_angle_beta 90.000000
_cell_angle_gamma 90.000000
_cell_volume 4766.148596
_symmetry_space_group_name_H-M "C M C M"
_symmetry_group_IT_number 63
_symmetry_cell_setting 'orthorhombic'
loop_
_space_group_symop_operation_xyz
x,y,z
-x,-y,1/2+z
x,-y,-z
-x,y,1/2-z
-x,-y,-z
x,y,1/2-z
-x,y,z
x,-y,1/2+z
1/2+x,1/2+y,z
1/2-x,1/2-y,1/2+z
1/2+x,1/2-y,-z
1/2-x,1/2+y,1/2-z
1/2-x,1/2-y,-z
1/2+x,1/2+y,1/2-z
1/2-x,1/2+y,z
1/2+x,1/2-y,1/2+z
loop_
_atom_site_type_symbol
_atom_site_label
_atom_site_fract_x
_atom_site_fract_y
_atom_site_fract_z
Si Si1 0.446955 0.806938 0.418749
Si Si2 0.000000 0.927202 0.577025
Si Si3 0.253684 0.926868 0.422546
Si Si4 0.818629 0.193446 0.917038
Si Si5 0.071376 0.832487 0.082934
Si Si6 0.159324 0.335013 0.419677
O O1 0.443278 0.780604 0.250000
O O2 0.500000 0.846161 0.440485
O O3 0.446648 0.742819 0.529703
O O4 0.398000 0.851925 0.456180
O O5 0.951330 0.888754 0.525439
O O6 0.000000 0.935495 0.750000
O O7 0.000000 0.000000 0.500000
O O8 0.245725 0.938199 0.250000
O O9 0.218873 0.864139 0.481308
O O10 0.309163 0.903551 0.461687
O O11 0.241394 0.000000 0.500000
O O12 0.804742 0.211389 0.750000
O O13 0.871170 0.157933 0.928839
O O14 0.818353 0.266837 0.002013
O O15 0.053329 0.843005 0.250000
O O16 0.166123 0.317759 0.250000
#
# Coordination Sequence:
#
# PCOD8257198 Si02
#       6
#    16   8  16  16  16  16
#     4   9  16  28  49  75 101 128 161 202 249 298
#     4  12  24  36  48  64  92 132 171 206 247 296
#     4  10  21  36  52  73 103 137 174 213 258 311
#     4   9  19  34  53  77 103 131 167 213 258 305
#     4  10  19  32  49  71  98 125 159 204 251 296
#     4   9  18  32  52  78 104 133 171 214 256 304
#
# _framework density 18.463543999999999
#
# number of rings (size 3 to 8) (size 9 to 14) (size 15 to 20)
#    0.000    2.364    0.909    1.909    0.000    2.909 
#    0.000    1.818    0.000    0.545    0.000    0.000 
#    0.000    0.000    0.000    0.000    0.000    0.000 
#
# Total GULP energy -545204.572145 kJ/mol
# GULP energy per Si atom -12391.013003 kJ/mol
# Density = 1.842152 g / cm^3
# Si number density = 18.463544 Si / 1000 Ang^3
#
#
#
# Elastic Constant Matrix: (Units=GPa)
#
#
# Indices 1 2 3 4 5 6 
#
# 1 114.7876 25.1981 17.4033 0.0000 0.0000 0.0000
# 2 25.1981 50.2642 19.8565 0.0000 0.0000 0.0000
# 3 17.4033 19.8565 73.4515 0.0000 0.0000 0.0000
# 4 0.0000 0.0000 0.0000 22.9165 0.0000 0.0000
# 5 0.0000 0.0000 0.0000 0.0000 19.8842 0.0000
# 6 0.0000 0.0000 0.0000 0.0000 0.0000 1.2003
#
#
#
# Elastic Compliance Matrix: (Units=1/GPa)
#
#
# Indices 1 2 3 4 5 6 
#
# 1 0.009871 -0.004506 -0.001121 0.000000 0.000000 0.000000
# 2 -0.004506 0.024330 -0.005510 0.000000 0.000000 0.000000
# 3 -0.001121 -0.005510 0.015369 0.000000 0.000000 0.000000
# 4 0.000000 0.000000 0.000000 0.043637 0.000000 0.000000
# 5 0.000000 0.000000 0.000000 0.000000 0.050291 0.000000
# 6 0.000000 0.000000 0.000000 0.000000 0.000000 0.833104
#
#
# Mechanical properties :
#
#
# Convention : Reuss Voigt Hill
#
# Bulk Modulus (GPa) = 36.63244 40.37991 38.50617
# Shear Modulus (GPa) = 4.96045 20.53656 12.74851
#
# Velocity S-wave (km/s) = 1.64087 3.33870 2.63053
# Velocity P-wave (km/s) = 4.84494 6.06466 5.48879
#
# Compressibility (1/GPa) = 0.02729821
#
# Stress axis : x y z
#
# Youngs Moduli (GPa) = 101.30978 41.10124 65.06414
#
# Poissons Ratio (x) = 0.18518 0.07292
# Poissons Ratio (y) = 0.45646 0.35849
# Poissons Ratio (z) = 0.11354 0.22646
#
# Static dielectric constant tensor:
#      x y z
#    x 3.793800 0.000000 0.000000 
#    y 0.000000 2.969750 0.000000 
#    z 0.000000 0.000000 3.400430 
# 
# 
# High freq. dielectric constant tensor:
#      x y z
#    x 1.741200 0.000000 0.000000 
#    y 0.000000 1.671800 0.000000 
#    z 0.000000 0.000000 1.715470 
# 
# From -- ./inp_files/14158.got.cif
#   From: 2010.03.12/outbox.cif.g09.slc.cpg/sg63_8_cif.got.tgz:14158.got - 2010.04.10 19:34:48.
