data_PCOD8257402
_publ_section_title
;
Structure prediction by ZEFSAII (Michael W. Deem and Ramdas Pophale) SiO2 
 PCOD8257402
Probable space group: C M C M
;
_chemical_formula_sum "Si O2"
_cell_formula_units_Z 96
_cell_length_a 9.006759
_cell_length_b 20.629835
_cell_length_c 28.084754
_cell_angle_alpha 90.000000
_cell_angle_beta 90.000000
_cell_angle_gamma 90.000000
_cell_volume 5218.370625
_symmetry_space_group_name_H-M "C M C M"
_symmetry_group_IT_number 63
_symmetry_cell_setting 'orthorhombic'
loop_
_space_group_symop_operation_xyz
x,y,z
-x,-y,1/2+z
x,-y,-z
-x,y,1/2-z
-x,-y,-z
x,y,1/2-z
-x,y,z
x,-y,1/2+z
1/2+x,1/2+y,z
1/2-x,1/2-y,1/2+z
1/2+x,1/2-y,-z
1/2-x,1/2+y,1/2-z
1/2-x,1/2-y,-z
1/2+x,1/2+y,1/2-z
1/2-x,1/2+y,z
1/2+x,1/2-y,1/2+z
loop_
_atom_site_type_symbol
_atom_site_label
_atom_site_fract_x
_atom_site_fract_y
_atom_site_fract_z
Si Si1 0.823046 0.498033 0.696139
Si Si2 0.324296 0.128360 0.850589
Si Si3 0.829845 0.760745 0.805644
Si Si4 0.672964 0.178378 0.950958
Si Si5 0.324360 0.873010 0.638674
Si Si6 0.172578 0.828988 0.547346
O O1 0.761476 0.493407 0.750000
O O2 0.756476 0.562500 0.671154
O O3 0.766532 0.436384 0.666433
O O4 0.000000 0.500369 0.696954
O O5 0.500000 0.123596 0.849821
O O6 0.273743 0.188590 0.818004
O O7 0.271186 0.138554 0.904964
O O8 0.815228 0.772593 0.750000
O O9 0.724453 0.810469 0.832124
O O10 0.000000 0.770483 0.823148
O O11 0.500000 0.167513 0.961604
O O12 0.705579 0.253924 0.941100
O O13 0.764899 0.152198 0.995667
O O14 0.500000 0.872943 0.633375
O O15 0.253494 0.873221 0.586327
O O16 0.000000 0.845055 0.548404
#
# Coordination Sequence:
#
# PCOD8257402 Si02
#       6
#    16  16  16  16  16  16
#     4   9  18  32  51  76 106 140 176 216 261 306
#     4   9  16  31  53  78 104 133 174 221 262 305
#     4  10  19  32  53  79 104 133 174 222 267 310
#     4   9  17  31  53  80 106 131 169 219 268 312
#     4  11  21  33  51  77 109 141 175 214 262 313
#     4  10  19  33  53  78 107 137 174 215 262 317
#
# _framework density 18.396546000000001
#
# number of rings (size 3 to 8) (size 9 to 14) (size 15 to 20)
#    0.000    2.333    1.667    2.000    0.000    3.667 
#    0.000    0.833    0.000    9.000    0.000    0.000 
#    0.000    0.000    0.000    0.000    0.000    0.000 
#
# Total GULP energy -595252.036749 kJ/mol
# GULP energy per Si atom -12401.084099 kJ/mol
# Density = 1.835467 g / cm^3
# Si number density = 18.396546 Si / 1000 Ang^3
#
#
#
# Elastic Constant Matrix: (Units=GPa)
#
#
# Indices 1 2 3 4 5 6 
#
# 1 45.4616 18.0401 35.3953 0.0000 0.0000 0.0000
# 2 18.0401 74.5118 48.9583 0.0000 0.0000 0.0000
# 3 35.3953 48.9583 135.5067 0.0000 0.0000 0.0000
# 4 0.0000 0.0000 0.0000 36.7534 0.0000 0.0000
# 5 0.0000 0.0000 0.0000 0.0000 28.2704 0.0000
# 6 0.0000 0.0000 0.0000 0.0000 0.0000 16.6853
#
#
#
# Elastic Compliance Matrix: (Units=1/GPa)
#
#
# Indices 1 2 3 4 5 6 
#
# 1 0.027987 -0.002587 -0.006376 0.000000 0.000000 0.000000
# 2 -0.002587 0.017837 -0.005769 0.000000 0.000000 0.000000
# 3 -0.006376 -0.005769 0.011129 0.000000 0.000000 0.000000
# 4 0.000000 0.000000 0.000000 0.027208 0.000000 0.000000
# 5 0.000000 0.000000 0.000000 0.000000 0.035373 0.000000
# 6 0.000000 0.000000 0.000000 0.000000 0.000000 0.059933
#
#
# Mechanical properties :
#
#
# Convention : Reuss Voigt Hill
#
# Bulk Modulus (GPa) = 36.37555 51.14080 43.75817
# Shear Modulus (GPa) = 22.92581 26.54759 24.73670
#
# Velocity S-wave (km/s) = 3.53399 3.80290 3.67091
# Velocity P-wave (km/s) = 6.03888 6.86602 6.46569
#
# Compressibility (1/GPa) = 0.02749100
#
# Stress axis : x y z
#
# Youngs Moduli (GPa) = 35.73072 56.06167 89.85171
#
# Poissons Ratio (x) = 0.14501 0.57288
# Poissons Ratio (y) = 0.09242 0.51835
# Poissons Ratio (z) = 0.22781 0.32342
#
# Static dielectric constant tensor:
#      x y z
#    x 3.067350 0.000000 0.000000 
#    y 0.000000 3.434670 0.000000 
#    z 0.000000 0.000000 3.632230 
# 
# 
# High freq. dielectric constant tensor:
#      x y z
#    x 1.678810 0.000000 0.000000 
#    y 0.000000 1.699470 0.000000 
#    z 0.000000 0.000000 1.732700 
# 
# From -- ./inp_files/66979.got.cif
#   From: 2010.03.12/outbox.cif.g09.slc.cpg/sg63_34_cif.got.tgz:66979.got - 2010.04.10 19:34:48.
