data_PCOD8257954
_publ_section_title
;
Structure prediction by ZEFSAII (Michael W. Deem and Ramdas Pophale) SiO2 
 PCOD8257954
Probable space group: C M C M
;
_chemical_formula_sum "Si O2"
_cell_formula_units_Z 96
_cell_length_a 23.070190
_cell_length_b 12.853287
_cell_length_c 17.706783
_cell_angle_alpha 90.000000
_cell_angle_beta 90.000000
_cell_angle_gamma 90.000000
_cell_volume 5250.552934
_symmetry_space_group_name_H-M "C M C M"
_symmetry_group_IT_number 63
_symmetry_cell_setting 'orthorhombic'
loop_
_space_group_symop_operation_xyz
x,y,z
-x,-y,1/2+z
x,-y,-z
-x,y,1/2-z
-x,-y,-z
x,y,1/2-z
-x,y,z
x,-y,1/2+z
1/2+x,1/2+y,z
1/2-x,1/2-y,1/2+z
1/2+x,1/2-y,-z
1/2-x,1/2+y,1/2-z
1/2-x,1/2-y,-z
1/2+x,1/2+y,1/2-z
1/2-x,1/2+y,z
1/2+x,1/2-y,1/2+z
loop_
_atom_site_type_symbol
_atom_site_label
_atom_site_fract_x
_atom_site_fract_y
_atom_site_fract_z
Si Si1 0.279453 0.479937 0.164389
Si Si2 0.175318 0.171482 0.426233
Si Si3 0.435939 0.979865 0.333382
Si Si4 0.671283 0.043869 0.082854
Si Si5 0.564920 0.265753 0.665132
Si Si6 0.207890 0.779245 0.411728
O O1 0.288168 0.515529 0.250000
O O2 0.311349 0.560900 0.110498
O O3 0.211559 0.482905 0.142302
O O4 0.304422 0.362207 0.155059
O O5 0.111085 0.200216 0.398186
O O6 0.181636 0.159990 0.516131
O O7 0.222472 0.261578 0.408027
O O8 0.416028 0.018006 0.250000
O O9 0.500000 0.023140 0.350932
O O10 0.395147 0.023023 0.398630
O O11 0.436579 0.856909 0.334985
O O12 0.677947 0.167587 0.093267
O O13 0.686557 0.000000 0.000000
O O14 0.582262 0.304889 0.750000
O O15 0.500000 0.307884 0.644824
#
# Coordination Sequence:
#
# PCOD8257954 Si02
#       6
#    16  16  16  16  16  16
#     4  11  22  34  52  77 103 135 173 212 259 313
#     4  10  19  35  54  74 103 139 171 210 262 311
#     4   9  18  32  50  74 105 138 171 211 257 305
#     4  11  21  34  52  77 105 137 174 212 257 310
#     4   9  17  30  52  81 107 135 177 224 263 301
#     4  10  21  34  52  77 107 136 168 213 261 313
#
# _framework density 18.283788999999999
#
# number of rings (size 3 to 8) (size 9 to 14) (size 15 to 20)
#    0.000    2.000    0.000    7.500    0.000    5.667 
#    0.000    0.833    0.000    3.000    0.000    2.333 
#    0.000    0.000    0.000    0.000    0.000    0.000 
#
# Total GULP energy -594719.202478 kJ/mol
# GULP energy per Si atom -12389.983385 kJ/mol
# Density = 1.824217 g / cm^3
# Si number density = 18.283789 Si / 1000 Ang^3
#
#
#
# Elastic Constant Matrix: (Units=GPa)
#
#
# Indices 1 2 3 4 5 6 
#
# 1 110.8732 24.9175 35.0772 0.0000 0.0000 0.0000
# 2 24.9175 87.1547 36.5554 0.0000 0.0000 0.0000
# 3 35.0772 36.5554 65.5855 0.0000 0.0000 0.0000
# 4 0.0000 0.0000 0.0000 22.7693 0.0000 0.0000
# 5 0.0000 0.0000 0.0000 0.0000 27.2702 0.0000
# 6 0.0000 0.0000 0.0000 0.0000 0.0000 16.4569
#
#
#
# Elastic Compliance Matrix: (Units=1/GPa)
#
#
# Indices 1 2 3 4 5 6 
#
# 1 0.010907 -0.000877 -0.005345 0.000000 0.000000 0.000000
# 2 -0.000877 0.015045 -0.007917 0.000000 0.000000 0.000000
# 3 -0.005345 -0.007917 0.022519 0.000000 0.000000 0.000000
# 4 0.000000 0.000000 0.000000 0.043919 0.000000 0.000000
# 5 0.000000 0.000000 0.000000 0.000000 0.036670 0.000000
# 6 0.000000 0.000000 0.000000 0.000000 0.000000 0.060765
#
#
# Mechanical properties :
#
#
# Convention : Reuss Voigt Hill
#
# Bulk Modulus (GPa) = 49.51940 50.74596 50.13268
# Shear Modulus (GPa) = 22.23876 24.43684 23.33780
#
# Velocity S-wave (km/s) = 3.49135 3.65982 3.57658
# Velocity P-wave (km/s) = 6.58751 6.75825 6.67343
#
# Compressibility (1/GPa) = 0.02019410
#
# Stress axis : x y z
#
# Youngs Moduli (GPa) = 91.68157 66.46716 44.40776
#
# Poissons Ratio (x) = 0.05826 0.23736
# Poissons Ratio (y) = 0.08036 0.35157
# Poissons Ratio (z) = 0.49004 0.52621
#
# Static dielectric constant tensor:
#      x y z
#    x 3.597470 0.000000 0.000000 
#    y 0.000000 3.192440 0.000000 
#    z 0.000000 0.000000 3.575220 
# 
# 
# High freq. dielectric constant tensor:
#      x y z
#    x 1.693510 0.000000 0.000000 
#    y 0.000000 1.698910 0.000000 
#    z 0.000000 0.000000 1.705200 
# 
# From -- ./inp_files/48054.got.cif
#   From: 2010.03.12/outbox.cif.g09.slc.cpg/sg63_25_cif.got.tgz:48054.got - 2010.04.10 19:34:48.
