data_PCOD8257223
_publ_section_title
;
Structure prediction by ZEFSAII (Michael W. Deem and Ramdas Pophale) SiO2 
 PCOD8257223
Probable space group: C M C M
;
_chemical_formula_sum "Si O2"
_cell_formula_units_Z 96
_cell_length_a 18.050668
_cell_length_b 28.804542
_cell_length_c 9.634113
_cell_angle_alpha 90.000000
_cell_angle_beta 90.000000
_cell_angle_gamma 90.000000
_cell_volume 5009.172511
_symmetry_space_group_name_H-M "C M C M"
_symmetry_group_IT_number 63
_symmetry_cell_setting 'orthorhombic'
loop_
_space_group_symop_operation_xyz
x,y,z
-x,-y,1/2+z
x,-y,-z
-x,y,1/2-z
-x,-y,-z
x,y,1/2-z
-x,y,z
x,-y,1/2+z
1/2+x,1/2+y,z
1/2-x,1/2-y,1/2+z
1/2+x,1/2-y,-z
1/2-x,1/2+y,1/2-z
1/2-x,1/2-y,-z
1/2+x,1/2+y,1/2-z
1/2-x,1/2+y,z
1/2+x,1/2-y,1/2+z
loop_
_atom_site_type_symbol
_atom_site_label
_atom_site_fract_x
_atom_site_fract_y
_atom_site_fract_z
Si Si1 0.714442 0.045160 0.090525
Si Si2 0.917576 0.795273 0.586878
Si Si3 0.850356 0.889751 0.910453
Si Si4 0.584832 0.889769 0.910553
Si Si5 0.084956 0.039106 0.903302
Si Si6 0.911934 0.305455 0.095311
O O1 0.720587 0.029858 0.250000
O O2 0.770289 0.088001 0.058430
O O3 0.632799 0.064531 0.054641
O O4 0.731893 0.000000 0.000000
O O5 0.926465 0.789277 0.750000
O O6 0.856602 0.835009 0.552549
O O7 0.888375 0.745073 0.532284
O O8 0.000000 0.807470 0.526299
O O9 0.873788 0.898265 0.750000
O O10 0.909032 0.912833 0.014759
O O11 0.593074 0.876202 0.750000
O O12 0.500000 0.901310 0.950096
O O13 0.617250 0.846224 0.995993
O O14 0.122834 0.040661 0.750000
O O15 0.000000 0.025983 0.882304
O O16 0.124625 0.000000 0.000000
O O17 0.879266 0.313605 0.250000
O O18 0.000000 0.306704 0.100564
#
# Coordination Sequence:
#
# PCOD8257223 Si02
#       6
#    16  16  16  16  16  16
#     4  10  22  37  52  72  97 127 164 206 253 303
#     4   8  14  26  47  74 101 130 164 198 232 276
#     4  10  19  32  50  70  96 131 167 203 243 287
#     4   9  18  34  54  74  98 127 158 197 250 308
#     4  10  20  32  46  66  92 123 163 209 250 289
#     4   8  14  27  49  76 101 125 158 197 235 282
#
# _framework density 19.164843000000001
#
# number of rings (size 3 to 8) (size 9 to 14) (size 15 to 20)
#    0.000    2.833    0.000    2.500    0.000    4.667 
#    0.000    1.667    0.000    3.000    0.000    0.000 
#    0.000    0.000    0.000    0.000    0.000    0.000 
#
# Total GULP energy -594778.445802 kJ/mol
# GULP energy per Si atom -12391.217621 kJ/mol
# Density = 1.912122 g / cm^3
# Si number density = 19.164843 Si / 1000 Ang^3
#
#
#
# Elastic Constant Matrix: (Units=GPa)
#
#
# Indices 1 2 3 4 5 6 
#
# 1 60.0274 40.4210 24.8022 0.0000 0.0000 0.0000
# 2 40.4210 110.0480 46.8830 0.0000 0.0000 0.0000
# 3 24.8022 46.8830 83.2424 0.0000 0.0000 0.0000
# 4 0.0000 0.0000 0.0000 32.1755 0.0000 0.0000
# 5 0.0000 0.0000 0.0000 0.0000 15.1591 0.0000
# 6 0.0000 0.0000 0.0000 0.0000 0.0000 22.0747
#
#
#
# Elastic Compliance Matrix: (Units=1/GPa)
#
#
# Indices 1 2 3 4 5 6 
#
# 1 0.022588 -0.007143 -0.002707 0.000000 0.000000 0.000000
# 2 -0.007143 0.014215 -0.005877 0.000000 0.000000 0.000000
# 3 -0.002707 -0.005877 0.016130 0.000000 0.000000 0.000000
# 4 0.000000 0.000000 0.000000 0.031080 0.000000 0.000000
# 5 0.000000 0.000000 0.000000 0.000000 0.065967 0.000000
# 6 0.000000 0.000000 0.000000 0.000000 0.000000 0.045301
#
#
# Mechanical properties :
#
#
# Convention : Reuss Voigt Hill
#
# Bulk Modulus (GPa) = 46.56170 53.05892 49.81031
# Shear Modulus (GPa) = 21.37721 23.29595 22.33658
#
# Velocity S-wave (km/s) = 3.34344 3.49027 3.41764
# Velocity P-wave (km/s) = 6.26522 6.63236 6.45140
#
# Compressibility (1/GPa) = 0.02147688
#
# Stress axis : x y z
#
# Youngs Moduli (GPa) = 44.27200 70.34985 61.99677
#
# Poissons Ratio (x) = 0.50253 0.16781
# Poissons Ratio (y) = 0.31625 0.36438
# Poissons Ratio (z) = 0.11984 0.41348
#
# Static dielectric constant tensor:
#      x y z
#    x 3.252770 0.000000 0.000000 
#    y 0.000000 3.734780 0.000000 
#    z 0.000000 0.000000 3.540500 
# 
# 
# High freq. dielectric constant tensor:
#      x y z
#    x 1.716430 0.000000 0.000000 
#    y 0.000000 1.746770 0.000000 
#    z 0.000000 0.000000 1.727500 
# 
# From -- ./inp_files/8523.got.cif
#   From: 2010.03.12/outbox.cif.g09.slc.cpg/sg63_5_cif.got.tgz:8523.got - 2010.04.10 19:34:48.
