data_PCOD8257647
_publ_section_title
;
Structure prediction by ZEFSAII (Michael W. Deem and Ramdas Pophale) SiO2 
 PCOD8257647
Probable space group: C M C M
;
_chemical_formula_sum "Si O2"
_cell_formula_units_Z 80
_cell_length_a 13.149197
_cell_length_b 18.437842
_cell_length_c 18.007053
_cell_angle_alpha 90.000000
_cell_angle_beta 90.000000
_cell_angle_gamma 90.000000
_cell_volume 4365.680650
_symmetry_space_group_name_H-M "C M C M"
_symmetry_group_IT_number 63
_symmetry_cell_setting 'orthorhombic'
loop_
_space_group_symop_operation_xyz
x,y,z
-x,-y,1/2+z
x,-y,-z
-x,y,1/2-z
-x,-y,-z
x,y,1/2-z
-x,y,z
x,-y,1/2+z
1/2+x,1/2+y,z
1/2-x,1/2-y,1/2+z
1/2+x,1/2-y,-z
1/2-x,1/2+y,1/2-z
1/2-x,1/2-y,-z
1/2+x,1/2+y,1/2-z
1/2-x,1/2+y,z
1/2+x,1/2-y,1/2+z
loop_
_atom_site_type_symbol
_atom_site_label
_atom_site_fract_x
_atom_site_fract_y
_atom_site_fract_z
Si Si1 0.883505 0.501052 0.665784
Si Si2 0.755349 0.355142 0.664022
Si Si3 0.194636 0.424954 0.465815
Si Si4 0.117482 0.138412 0.468115
Si Si5 0.115539 0.712975 0.451230
O O1 0.877975 0.526775 0.750000
O O2 0.823027 0.426575 0.653877
O O3 0.829650 0.567051 0.621451
O O4 0.000000 0.488639 0.640673
O O5 0.732871 0.336670 0.750000
O O6 0.649933 0.366095 0.618823
O O7 0.816801 0.289677 0.623977
O O8 0.153102 0.500000 0.500000
O O9 0.315287 0.416611 0.482273
O O10 0.132948 0.358201 0.499432
O O11 0.143899 0.218260 0.498467
O O12 0.000000 0.117080 0.475904
O O13 0.000000 0.717983 0.424951
#
# Coordination Sequence:
#
# PCOD8257647 Si02
#       5
#    16  16  16  16  16
#     4  10  20  33  51  81 115 138 167 220 281 329
#     4  10  19  33  54  81 108 137 175 222 272 318
#     4  11  19  33  56  82 105 137 180 223 266 312
#     4  10  22  39  54  76 110 147 187 219 255 313
#     4  10  20  35  56  80 109 140 175 219 267 323
#
# _framework density 18.324748
#
# number of rings (size 3 to 8) (size 9 to 14) (size 15 to 20)
#    0.000    1.800    4.000    3.600    0.000    2.800 
#    0.000    4.000    0.000    3.000    0.000    0.000 
#    0.000    0.000    0.000    0.000    0.000    0.000 
#
# Total GULP energy -495830.836386 kJ/mol
# GULP energy per Si atom -12395.770910 kJ/mol
# Density = 1.828304 g / cm^3
# Si number density = 18.324748 Si / 1000 Ang^3
#
#
#
# Elastic Constant Matrix: (Units=GPa)
#
#
# Indices 1 2 3 4 5 6 
#
# 1 94.5487 15.3369 56.5239 0.0000 0.0000 0.0000
# 2 15.3369 60.1342 35.1914 0.0000 0.0000 0.0000
# 3 56.5239 35.1914 128.1364 0.0000 0.0000 0.0000
# 4 0.0000 0.0000 0.0000 24.5659 0.0000 0.0000
# 5 0.0000 0.0000 0.0000 0.0000 27.0515 0.0000
# 6 0.0000 0.0000 0.0000 0.0000 0.0000 25.8288
#
#
#
# Elastic Compliance Matrix: (Units=1/GPa)
#
#
# Indices 1 2 3 4 5 6 
#
# 1 0.014365 0.000053 -0.006351 0.000000 0.000000 0.000000
# 2 0.000053 0.019814 -0.005465 0.000000 0.000000 0.000000
# 3 -0.006351 -0.005465 0.012107 0.000000 0.000000 0.000000
# 4 0.000000 0.000000 0.000000 0.040707 0.000000 0.000000
# 5 0.000000 0.000000 0.000000 0.000000 0.036967 0.000000
# 6 0.000000 0.000000 0.000000 0.000000 0.000000 0.038717
#
#
# Mechanical properties :
#
#
# Convention : Reuss Voigt Hill
#
# Bulk Modulus (GPa) = 43.93809 55.21374 49.57591
# Shear Modulus (GPa) = 25.80124 27.20703 26.50414
#
# Velocity S-wave (km/s) = 3.75640 3.85738 3.80723
# Velocity P-wave (km/s) = 6.54550 7.07356 6.81465
#
# Compressibility (1/GPa) = 0.02275930
#
# Stress axis : x y z
#
# Youngs Moduli (GPa) = 69.61404 50.46876 82.59778
#
# Poissons Ratio (x) = -0.00268 0.52460
# Poissons Ratio (y) = -0.00370 0.45142
# Poissons Ratio (z) = 0.44214 0.27582
#
# Static dielectric constant tensor:
#      x y z
#    x 3.424600 0.000000 0.000000 
#    y 0.000000 3.313910 0.000000 
#    z 0.000000 0.000000 3.629080 
# 
# 
# High freq. dielectric constant tensor:
#      x y z
#    x 1.714060 0.000000 0.000000 
#    y 0.000000 1.696300 0.000000 
#    z 0.000000 0.000000 1.708580 
# 
# From -- ./inp_files/43969.got.cif
#   From: 2010.03.12/outbox.cif.g09.slc.cpg/sg63_22_cif.got.tgz:43969.got - 2010.04.10 19:34:48.
