data_PCOD8257633
_publ_section_title
;
Structure prediction by ZEFSAII (Michael W. Deem and Ramdas Pophale) SiO2 
 PCOD8257633
Probable space group: C M C M
;
_chemical_formula_sum "Si O2"
_cell_formula_units_Z 80
_cell_length_a 27.035133
_cell_length_b 18.545537
_cell_length_c 8.582869
_cell_angle_alpha 90.000000
_cell_angle_beta 90.000000
_cell_angle_gamma 90.000000
_cell_volume 4303.287951
_symmetry_space_group_name_H-M "C M C M"
_symmetry_group_IT_number 63
_symmetry_cell_setting 'orthorhombic'
loop_
_space_group_symop_operation_xyz
x,y,z
-x,-y,1/2+z
x,-y,-z
-x,y,1/2-z
-x,-y,-z
x,y,1/2-z
-x,y,z
x,-y,1/2+z
1/2+x,1/2+y,z
1/2-x,1/2-y,1/2+z
1/2+x,1/2-y,-z
1/2-x,1/2+y,1/2-z
1/2-x,1/2-y,-z
1/2+x,1/2+y,1/2-z
1/2-x,1/2+y,z
1/2+x,1/2-y,1/2+z
loop_
_atom_site_type_symbol
_atom_site_label
_atom_site_fract_x
_atom_site_fract_y
_atom_site_fract_z
Si Si1 0.446038 0.354843 0.933027
Si Si2 0.108127 0.287253 0.431340
Si Si3 0.653554 0.423273 0.565140
Si Si4 0.700879 0.284239 0.067548
Si Si5 0.557535 0.923616 0.931598
O O1 0.449166 0.366334 0.750000
O O2 0.500000 0.373715 0.007799
O O3 0.433824 0.271684 0.971731
O O4 0.401999 0.405394 0.999221
O O5 0.122367 0.283794 0.250000
O O6 0.156696 0.270709 0.530870
O O7 0.088574 0.365233 0.475018
O O8 0.670870 0.500000 0.500000
O O9 0.654153 0.424213 0.750000
O O10 0.691562 0.362420 0.508767
O O11 0.706444 0.295268 0.250000
O O12 0.750000 0.250000 0.000000
O O13 0.570241 0.920004 0.750000
O O14 0.500000 0.909822 0.963734
O O15 0.574114 0.000000 0.000000
#
# Coordination Sequence:
#
# PCOD8257633 Si02
#       5
#    16  16  16  16  16
#     4   8  15  28  48  75 107 143 180 215 253 302
#     4  10  19  33  54  79 107 140 179 223 271 322
#     4  10  20  35  55  81 112 146 182 220 265 314
#     4  11  22  39  61  83 107 137 176 222 272 325
#     4  10  20  33  50  75 108 146 185 224 269 321
#
# _framework density 18.590437000000001
#
# number of rings (size 3 to 8) (size 9 to 14) (size 15 to 20)
#    0.000    2.200    0.000    5.400    0.000    2.400 
#    0.000    1.000    0.000   11.400    0.000    0.000 
#    0.000    0.000    0.000    0.000    0.000    0.000 
#
# Total GULP energy -495980.140364 kJ/mol
# GULP energy per Si atom -12399.503509 kJ/mol
# Density = 1.854812 g / cm^3
# Si number density = 18.590437 Si / 1000 Ang^3
#
#
#
# Elastic Constant Matrix: (Units=GPa)
#
#
# Indices 1 2 3 4 5 6 
#
# 1 101.9421 52.6039 31.7692 0.0000 0.0000 0.0000
# 2 52.6039 138.6450 37.6176 0.0000 0.0000 0.0000
# 3 31.7692 37.6176 84.2628 0.0000 0.0000 0.0000
# 4 0.0000 0.0000 0.0000 31.1961 0.0000 0.0000
# 5 0.0000 0.0000 0.0000 0.0000 25.9075 0.0000
# 6 0.0000 0.0000 0.0000 0.0000 0.0000 16.1982
#
#
#
# Elastic Compliance Matrix: (Units=1/GPa)
#
#
# Indices 1 2 3 4 5 6 
#
# 1 0.012845 -0.004050 -0.003035 0.000000 0.000000 0.000000
# 2 -0.004050 0.009484 -0.002707 0.000000 0.000000 0.000000
# 3 -0.003035 -0.002707 0.014220 0.000000 0.000000 0.000000
# 4 0.000000 0.000000 0.000000 0.032055 0.000000 0.000000
# 5 0.000000 0.000000 0.000000 0.000000 0.038599 0.000000
# 6 0.000000 0.000000 0.000000 0.000000 0.000000 0.061735
#
#
# Mechanical properties :
#
#
# Convention : Reuss Voigt Hill
#
# Bulk Modulus (GPa) = 58.94310 63.20347 61.07329
# Shear Modulus (GPa) = 25.74960 28.18431 26.96695
#
# Velocity S-wave (km/s) = 3.72573 3.89789 3.81278
# Velocity P-wave (km/s) = 7.09105 7.37087 7.23232
#
# Compressibility (1/GPa) = 0.01696551
#
# Stress axis : x y z
#
# Youngs Moduli (GPa) = 77.84973 105.44274 70.32226
#
# Poissons Ratio (x) = 0.42707 0.21341
# Poissons Ratio (y) = 0.31531 0.19035
# Poissons Ratio (z) = 0.23626 0.28542
#
# Static dielectric constant tensor:
#      x y z
#    x 3.523730 0.000000 0.000000 
#    y 0.000000 3.433690 0.000000 
#    z 0.000000 0.000000 3.346070 
# 
# 
# High freq. dielectric constant tensor:
#      x y z
#    x 1.711050 0.000000 0.000000 
#    y 0.000000 1.724010 0.000000 
#    z 0.000000 0.000000 1.718890 
# 
# From -- ./inp_files/12011.got.cif
#   From: 2010.03.12/outbox.cif.g09.slc.cpg/sg63_7_cif.got.tgz:12011.got - 2010.04.10 19:34:48.
