data_PCOD8257507
_publ_section_title
;
Structure prediction by ZEFSAII (Michael W. Deem and Ramdas Pophale) SiO2 
 PCOD8257507
Probable space group: C M C M
;
_chemical_formula_sum "Si O2"
_cell_formula_units_Z 80
_cell_length_a 17.953917
_cell_length_b 15.499980
_cell_length_c 16.091493
_cell_angle_alpha 90.000000
_cell_angle_beta 90.000000
_cell_angle_gamma 90.000000
_cell_volume 4478.026833
_symmetry_space_group_name_H-M "C M C M"
_symmetry_group_IT_number 63
_symmetry_cell_setting 'orthorhombic'
loop_
_space_group_symop_operation_xyz
x,y,z
-x,-y,1/2+z
x,-y,-z
-x,y,1/2-z
-x,-y,-z
x,y,1/2-z
-x,y,z
x,-y,1/2+z
1/2+x,1/2+y,z
1/2-x,1/2-y,1/2+z
1/2+x,1/2-y,-z
1/2-x,1/2+y,1/2-z
1/2-x,1/2-y,-z
1/2+x,1/2+y,1/2-z
1/2-x,1/2+y,z
1/2+x,1/2-y,1/2+z
loop_
_atom_site_type_symbol
_atom_site_label
_atom_site_fract_x
_atom_site_fract_y
_atom_site_fract_z
Si Si1 0.235807 0.951691 0.154216
Si Si2 0.584875 0.216172 0.043814
Si Si3 0.581401 0.381792 0.343702
Si Si4 0.294032 0.135177 0.154574
Si Si5 0.795627 0.278497 0.079507
O O1 0.256668 0.938852 0.250000
O O2 0.146456 0.950500 0.140124
O O3 0.276729 0.875833 0.104863
O O4 0.261333 0.044670 0.121988
O O5 0.500000 0.183284 0.037624
O O6 0.590567 0.306744 0.090116
O O7 0.633516 0.149692 0.097799
O O8 0.617719 0.225075 0.949567
O O9 0.589311 0.343199 0.250000
O O10 0.500000 0.426257 0.354128
O O11 0.319462 0.129805 0.250000
O O12 0.229588 0.209351 0.149192
O O13 0.750000 0.250000 0.000000
#
# Coordination Sequence:
#
# PCOD8257507 Si02
#       5
#    16  16  16  16  16
#     4  10  19  33  53  78 107 140 183 224 262 316
#     4  10  20  34  53  80 108 138 177 221 270 313
#     4   9  16  29  51  77 105 134 169 221 274 313
#     4  10  20  34  56  81 103 140 184 223 264 313
#     4  10  19  33  51  76 108 141 172 214 266 326
#
# _framework density 17.865012
#
# number of rings (size 3 to 8) (size 9 to 14) (size 15 to 20)
#    0.000    2.200    4.000    1.200    0.000    4.400 
#    0.000    3.000    0.000    7.200    0.000    0.000 
#    0.000    0.000    0.000    0.000    0.000    0.000 
#
# Total GULP energy -495676.384139 kJ/mol
# GULP energy per Si atom -12391.909603 kJ/mol
# Density = 1.782435 g / cm^3
# Si number density = 17.865012 Si / 1000 Ang^3
#
#
#
# Elastic Constant Matrix: (Units=GPa)
#
#
# Indices 1 2 3 4 5 6 
#
# 1 156.3207 58.7764 42.2313 0.0000 0.0000 0.0000
# 2 58.7764 108.6945 20.1398 0.0000 0.0000 0.0000
# 3 42.2313 20.1398 42.5218 0.0000 0.0000 0.0000
# 4 0.0000 0.0000 0.0000 15.7088 0.0000 0.0000
# 5 0.0000 0.0000 0.0000 0.0000 28.9361 0.0000
# 6 0.0000 0.0000 0.0000 0.0000 0.0000 27.3632
#
#
#
# Elastic Compliance Matrix: (Units=1/GPa)
#
#
# Indices 1 2 3 4 5 6 
#
# 1 0.010079 -0.003941 -0.008143 0.000000 0.000000 0.000000
# 2 -0.003941 0.011626 -0.001592 0.000000 0.000000 0.000000
# 3 -0.008143 -0.001592 0.032359 0.000000 0.000000 0.000000
# 4 0.000000 0.000000 0.000000 0.063659 0.000000 0.000000
# 5 0.000000 0.000000 0.000000 0.000000 0.034559 0.000000
# 6 0.000000 0.000000 0.000000 0.000000 0.000000 0.036545
#
#
# Mechanical properties :
#
#
# Convention : Reuss Voigt Hill
#
# Bulk Modulus (GPa) = 37.43819 61.09245 49.26532
# Shear Modulus (GPa) = 22.21379 26.82759 24.52069
#
# Velocity S-wave (km/s) = 3.53005 3.87936 3.70882
# Velocity P-wave (km/s) = 6.13324 7.37135 6.78061
#
# Compressibility (1/GPa) = 0.02671069
#
# Stress axis : x y z
#
# Youngs Moduli (GPa) = 99.21544 86.01114 30.90302
#
# Poissons Ratio (x) = 0.33900 0.25166
# Poissons Ratio (y) = 0.39104 0.04920
# Poissons Ratio (z) = 0.80796 0.13695
#
# Static dielectric constant tensor:
#      x y z
#    x 3.891880 0.000000 0.000000 
#    y 0.000000 3.275860 0.000000 
#    z 0.000000 0.000000 3.681170 
# 
# 
# High freq. dielectric constant tensor:
#      x y z
#    x 1.686460 0.000000 0.000000 
#    y 0.000000 1.674250 0.000000 
#    z 0.000000 0.000000 1.689180 
# 
# From -- ./inp_files/35104.got.cif
#   From: 2010.03.12/outbox.cif.g09.slc.cpg/sg63_18_cif.got.tgz:35104.got - 2010.04.10 19:34:48.
