data_PCOD8257811
_publ_section_title
;
Structure prediction by ZEFSAII (Michael W. Deem and Ramdas Pophale) SiO2 
 PCOD8257811
Probable space group: C M C M
;
_chemical_formula_sum "Si O2"
_cell_formula_units_Z 96
_cell_length_a 18.849650
_cell_length_b 29.783574
_cell_length_c 9.135659
_cell_angle_alpha 90.000000
_cell_angle_beta 90.000000
_cell_angle_gamma 90.000000
_cell_volume 5128.849823
_symmetry_space_group_name_H-M "C M C M"
_symmetry_group_IT_number 63
_symmetry_cell_setting 'orthorhombic'
loop_
_space_group_symop_operation_xyz
x,y,z
-x,-y,1/2+z
x,-y,-z
-x,y,1/2-z
-x,-y,-z
x,y,1/2-z
-x,y,z
x,-y,1/2+z
1/2+x,1/2+y,z
1/2-x,1/2-y,1/2+z
1/2+x,1/2-y,-z
1/2-x,1/2+y,1/2-z
1/2-x,1/2-y,-z
1/2+x,1/2+y,1/2-z
1/2-x,1/2+y,z
1/2+x,1/2-y,1/2+z
loop_
_atom_site_type_symbol
_atom_site_label
_atom_site_fract_x
_atom_site_fract_y
_atom_site_fract_z
Si Si1 0.580682 0.043375 0.079844
Si Si2 0.312694 0.722284 0.423090
Si Si3 0.321535 0.370962 0.416113
Si Si4 0.921936 0.705605 0.921204
Si Si5 0.918006 0.954109 0.078450
Si Si6 0.157869 0.618099 0.584972
O O1 0.587932 0.035039 0.250000
O O2 0.500000 0.052302 0.031195
O O3 0.626710 0.085054 0.033392
O O4 0.611875 0.000000 0.000000
O O5 0.296752 0.721408 0.250000
O O6 0.250000 0.750000 0.500000
O O7 0.325584 0.672320 0.481002
O O8 0.386374 0.747109 0.460903
O O9 0.343485 0.357846 0.250000
O O10 0.371833 0.411226 0.475483
O O11 0.241517 0.387995 0.419187
O O12 0.932608 0.701518 0.750000
O O13 0.867636 0.666780 0.971399
O O14 0.000000 0.701762 0.996862
O O15 0.906518 0.961621 0.250000
O O16 0.000000 0.944004 0.039836
O O17 0.892537 0.000000 0.000000
O O18 0.129851 0.608411 0.750000
#
# Coordination Sequence:
#
# PCOD8257811 Si02
#       6
#    16  16  16  16  16  16
#     4  10  21  36  53  75 104 138 178 222 267 319
#     4  11  21  36  57  81 112 149 187 231 280 331
#     4  10  21  37  57  84 114 146 186 227 278 338
#     4   9  18  33  54  79 106 141 184 224 268 323
#     4   9  19  37  60  84 115 152 189 235 288 341
#     4  10  19  34  55  77 105 142 179 223 273 325
#
# _framework density 18.717645999999998
#
# number of rings (size 3 to 8) (size 9 to 14) (size 15 to 20)
#    0.000    2.167    1.667    1.500    0.000    4.333 
#    0.000    1.667    0.000    2.500    0.000    0.000 
#    0.000    0.000    0.000    0.000    0.000    0.000 
#
# Total GULP energy -595077.089815 kJ/mol
# GULP energy per Si atom -12397.439371 kJ/mol
# Density = 1.867504 g / cm^3
# Si number density = 18.717646 Si / 1000 Ang^3
#
#
#
# Elastic Constant Matrix: (Units=GPa)
#
#
# Indices 1 2 3 4 5 6 
#
# 1 98.7732 61.3834 32.3500 0.0000 0.0000 0.0000
# 2 61.3834 149.1379 54.5498 0.0000 0.0000 0.0000
# 3 32.3500 54.5498 64.6252 0.0000 0.0000 0.0000
# 4 0.0000 0.0000 0.0000 38.5652 0.0000 0.0000
# 5 0.0000 0.0000 0.0000 0.0000 -22.7241 0.0000
# 6 0.0000 0.0000 0.0000 0.0000 0.0000 35.6435
#
#
#
# Elastic Compliance Matrix: (Units=1/GPa)
#
#
# Indices 1 2 3 4 5 6 
#
# 1 0.014022 -0.004635 -0.003107 0.000000 0.000000 0.000000
# 2 -0.004635 0.011232 -0.007161 0.000000 0.000000 0.000000
# 3 -0.003107 -0.007161 0.023073 0.000000 0.000000 0.000000
# 4 0.000000 0.000000 0.000000 0.025930 0.000000 0.000000
# 5 0.000000 0.000000 0.000000 0.000000 -0.044006 0.000000
# 6 0.000000 0.000000 0.000000 0.000000 0.000000 0.028056
#
#
# Mechanical properties :
#
#
# Convention : Reuss Voigt Hill
#
# Bulk Modulus (GPa) = 53.98836 67.67808 60.83322
# Shear Modulus (GPa) = 53.02983 21.24714 37.13849
#
# Velocity S-wave (km/s) = 5.32851 3.37284 4.45920
# Velocity P-wave (km/s) = 8.17089 7.16965 7.68659
#
# Compressibility (1/GPa) = 0.01852251
#
# Stress axis : x y z
#
# Youngs Moduli (GPa) = 71.31553 89.03069 43.33993
#
# Poissons Ratio (x) = 0.41266 0.13465
# Poissons Ratio (y) = 0.33055 0.31035
# Poissons Ratio (z) = 0.22157 0.63753
#
# Static dielectric constant tensor:
#      x y z
#    x 3.679010 0.000000 0.000000 
#    y 0.000000 3.617200 0.000000 
#    z 0.000000 0.000000 3.295200 
# 
# 
# High freq. dielectric constant tensor:
#      x y z
#    x 1.728160 0.000000 0.000000 
#    y 0.000000 1.733290 0.000000 
#    z 0.000000 0.000000 1.710110 
# 
# From -- ./inp_files/8664.got.cif
#   From: 2010.03.12/outbox.cif.g09.slc.cpg/sg63_5_cif.got.tgz:8664.got - 2010.04.10 19:34:48.
