data_PCOD8257875
_publ_section_title
;
Structure prediction by ZEFSAII (Michael W. Deem and Ramdas Pophale) SiO2 
 PCOD8257875
Probable space group: C M C M
;
_chemical_formula_sum "Si O2"
_cell_formula_units_Z 64
_cell_length_a 13.615117
_cell_length_b 18.577500
_cell_length_c 13.639346
_cell_angle_alpha 90.000000
_cell_angle_beta 90.000000
_cell_angle_gamma 90.000000
_cell_volume 3449.865745
_symmetry_space_group_name_H-M "C M C M"
_symmetry_group_IT_number 63
_symmetry_cell_setting 'orthorhombic'
loop_
_space_group_symop_operation_xyz
x,y,z
-x,-y,1/2+z
x,-y,-z
-x,y,1/2-z
-x,-y,-z
x,y,1/2-z
-x,y,z
x,-y,1/2+z
1/2+x,1/2+y,z
1/2-x,1/2-y,1/2+z
1/2+x,1/2-y,-z
1/2-x,1/2+y,1/2-z
1/2-x,1/2-y,-z
1/2+x,1/2+y,1/2-z
1/2-x,1/2+y,z
1/2+x,1/2-y,1/2+z
loop_
_atom_site_type_symbol
_atom_site_label
_atom_site_fract_x
_atom_site_fract_y
_atom_site_fract_z
Si Si1 0.500000 0.618515 0.862812
Si Si2 0.162148 0.304491 0.481114
Si Si3 0.000000 0.711031 0.365760
Si Si4 0.890854 0.819665 0.641886
Si Si5 0.307755 0.418044 0.019493
O O1 0.500000 0.596228 0.750000
O O2 0.500000 0.703307 0.879143
O O3 0.401948 0.585766 0.910103
O O4 0.250000 0.250000 0.500000
O O5 0.099782 0.262128 0.399402
O O6 0.209212 0.378859 0.438322
O O7 0.097065 0.319170 0.579239
O O8 0.000000 0.689495 0.250000
O O9 0.844505 0.815812 0.750000
O O10 0.825579 0.875652 0.581560
O O11 0.000000 0.852251 0.643798
O O12 0.280739 0.500000 0.000000
#
# Coordination Sequence:
#
# PCOD8257875 Si02
#       5
#     8  16   8  16  16
#     4  11  21  35  57  86 117 152 185 233 292 341
#     4  10  19  36  57  85 112 146 188 236 280 330
#     4  11  20  37  62  86 112 146 194 243 281 329
#     4  10  19  34  57  81 108 144 185 231 282 332
#     4  11  22  38  55  84 121 151 187 230 285 349
#
# _framework density 18.551447
#
# number of rings (size 3 to 8) (size 9 to 14) (size 15 to 20)
#    0.000    1.500    7.500    0.375    0.000    6.000 
#    0.000    0.625    0.000    0.000    0.000    0.000 
#    0.000    0.000    0.000    0.000    0.000    0.000 
#
# Total GULP energy -396513.135257 kJ/mol
# GULP energy per Si atom -12391.035477 kJ/mol
# Density = 1.850922 g / cm^3
# Si number density = 18.551447 Si / 1000 Ang^3
#
#
#
# Elastic Constant Matrix: (Units=GPa)
#
#
# Indices 1 2 3 4 5 6 
#
# 1 86.7766 31.2393 26.5989 0.0000 0.0000 0.0000
# 2 31.2393 126.4921 33.6513 0.0000 0.0000 0.0000
# 3 26.5989 33.6513 110.2115 0.0000 0.0000 0.0000
# 4 0.0000 0.0000 0.0000 10.3501 0.0000 0.0000
# 5 0.0000 0.0000 0.0000 0.0000 12.4767 0.0000
# 6 0.0000 0.0000 0.0000 0.0000 0.0000 18.1956
#
#
#
# Elastic Compliance Matrix: (Units=1/GPa)
#
#
# Indices 1 2 3 4 5 6 
#
# 1 0.013200 -0.002626 -0.002384 0.000000 0.000000 0.000000
# 2 -0.002626 0.009127 -0.002153 0.000000 0.000000 0.000000
# 3 -0.002384 -0.002153 0.010306 0.000000 0.000000 0.000000
# 4 0.000000 0.000000 0.000000 0.096617 0.000000 0.000000
# 5 0.000000 0.000000 0.000000 0.000000 0.080149 0.000000
# 6 0.000000 0.000000 0.000000 0.000000 0.000000 0.054958
#
#
# Mechanical properties :
#
#
# Convention : Reuss Voigt Hill
#
# Bulk Modulus (GPa) = 54.62251 56.27325 55.44788
# Shear Modulus (GPa) = 17.55704 23.67052 20.61378
#
# Velocity S-wave (km/s) = 3.07969 3.57590 3.33704
# Velocity P-wave (km/s) = 6.49259 6.88832 6.69338
#
# Compressibility (1/GPa) = 0.01830747
#
# Stress axis : x y z
#
# Youngs Moduli (GPa) = 75.75857 109.56650 97.02876
#
# Poissons Ratio (x) = 0.28769 0.23132
# Poissons Ratio (y) = 0.19892 0.20891
# Poissons Ratio (z) = 0.18061 0.23590
#
# Static dielectric constant tensor:
#      x y z
#    x 3.480860 0.000000 0.000000 
#    y 0.000000 3.545300 0.000000 
#    z 0.000000 0.000000 3.617020 
# 
# 
# High freq. dielectric constant tensor:
#      x y z
#    x 1.723730 0.000000 0.000000 
#    y 0.000000 1.690100 0.000000 
#    z 0.000000 0.000000 1.712320 
# 
# From -- ./inp_files/31377.got.cif
#   From: 2010.03.12/outbox.cif.g09.slc.cpg/sg63_16_cif.got.tgz:31377.got - 2010.04.10 19:34:48.
