data_PCOD8257702
_publ_section_title
;
Structure prediction by ZEFSAII (Michael W. Deem and Ramdas Pophale) SiO2 
 PCOD8257702
Probable space group: C M C M
;
_chemical_formula_sum "Si O2"
_cell_formula_units_Z 112
_cell_length_a 12.707134
_cell_length_b 22.157248
_cell_length_c 20.606493
_cell_angle_alpha 90.000000
_cell_angle_beta 90.000000
_cell_angle_gamma 90.000000
_cell_volume 5801.863597
_symmetry_space_group_name_H-M "C M C M"
_symmetry_group_IT_number 63
_symmetry_cell_setting 'orthorhombic'
loop_
_space_group_symop_operation_xyz
x,y,z
-x,-y,1/2+z
x,-y,-z
-x,y,1/2-z
-x,-y,-z
x,y,1/2-z
-x,y,z
x,-y,1/2+z
1/2+x,1/2+y,z
1/2-x,1/2-y,1/2+z
1/2+x,1/2-y,-z
1/2-x,1/2+y,1/2-z
1/2-x,1/2-y,-z
1/2+x,1/2+y,1/2-z
1/2-x,1/2+y,z
1/2+x,1/2-y,1/2+z
loop_
_atom_site_type_symbol
_atom_site_label
_atom_site_fract_x
_atom_site_fract_y
_atom_site_fract_z
Si Si1 0.881352 0.114581 0.676944
Si Si2 0.384916 0.600180 0.172844
Si Si3 0.280390 0.709482 0.590680
Si Si4 0.374254 0.175294 0.475340
Si Si5 0.884325 0.766587 0.673730
Si Si6 0.268276 0.998372 0.324612
Si Si7 0.878767 0.540405 0.057015
O O1 0.869571 0.141918 0.750000
O O2 0.864289 0.162569 0.619563
O O3 0.000000 0.088570 0.668972
O O4 0.794865 0.063013 0.667807
O O5 0.386802 0.597651 0.250000
O O6 0.500000 0.583826 0.145501
O O7 0.353104 0.666685 0.148505
O O8 0.304153 0.551601 0.146723
O O9 0.346312 0.768866 0.571696
O O10 0.204563 0.682261 0.535922
O O11 0.202519 0.720791 0.650330
O O12 0.500000 0.178618 0.492990
O O13 0.342929 0.110954 0.442986
O O14 0.888406 0.764995 0.750000
O O15 0.000000 0.749415 0.646173
O O16 0.305286 0.008085 0.250000
O O17 0.365073 0.004990 0.374172
O O18 0.000000 0.542024 0.041330
O O19 0.823609 0.500000 0.000000
#
# Coordination Sequence:
#
# PCOD8257702 Si02
#       7
#    16  16  16  16  16  16  16
#     4  10  21  36  55  81 111 140 170 209 263 326
#     4   8  14  26  46  73 103 132 163 205 260 314
#     4  11  20  34  55  75 105 144 184 222 259 316
#     4  10  22  37  54  77 104 142 188 228 268 316
#     4   9  17  29  48  76 106 134 169 217 269 316
#     4  10  19  33  56  81 103 132 173 218 262 313
#     4  10  21  38  57  76 104 140 176 218 272 327
#
# _framework density 19.304143
#
# number of rings (size 3 to 8) (size 9 to 14) (size 15 to 20)
#    0.000    2.286    0.000    4.286    0.000    2.000 
#    0.000    1.429    0.000   13.714    0.000    0.000 
#    0.000    0.000    0.000    0.000    0.000    0.000 
#
# Total GULP energy -693758.293584 kJ/mol
# GULP energy per Si atom -12388.540957 kJ/mol
# Density = 1.926021 g / cm^3
# Si number density = 19.304143 Si / 1000 Ang^3
#
#
#
# Elastic Constant Matrix: (Units=GPa)
#
#
# Indices 1 2 3 4 5 6 
#
# 1 47.4321 34.4147 27.8300 0.0000 0.0000 0.0000
# 2 34.4147 86.2655 39.2066 0.0000 0.0000 0.0000
# 3 27.8300 39.2066 74.8783 0.0000 0.0000 0.0000
# 4 0.0000 0.0000 0.0000 30.0581 0.0000 0.0000
# 5 0.0000 0.0000 0.0000 0.0000 24.8243 0.0000
# 6 0.0000 0.0000 0.0000 0.0000 0.0000 18.3380
#
#
#
# Elastic Compliance Matrix: (Units=1/GPa)
#
#
# Indices 1 2 3 4 5 6 
#
# 1 0.032155 -0.009706 -0.006869 0.000000 0.000000 0.000000
# 2 -0.009706 0.018142 -0.005892 0.000000 0.000000 0.000000
# 3 -0.006869 -0.005892 0.018993 0.000000 0.000000 0.000000
# 4 0.000000 0.000000 0.000000 0.033269 0.000000 0.000000
# 5 0.000000 0.000000 0.000000 0.000000 0.040283 0.000000
# 6 0.000000 0.000000 0.000000 0.000000 0.000000 0.054532
#
#
# Mechanical properties :
#
#
# Convention : Reuss Voigt Hill
#
# Bulk Modulus (GPa) = 41.05676 45.71984 43.38830
# Shear Modulus (GPa) = 19.96593 21.78572 20.87582
#
# Velocity S-wave (km/s) = 3.21951 3.36304 3.29206
# Velocity P-wave (km/s) = 5.92747 6.23020 6.08072
#
# Compressibility (1/GPa) = 0.02435652
#
# Stress axis : x y z
#
# Youngs Moduli (GPa) = 31.09897 55.12063 52.65110
#
# Poissons Ratio (x) = 0.53501 0.36166
# Poissons Ratio (y) = 0.30185 0.31021
# Poissons Ratio (z) = 0.21362 0.32476
#
# Static dielectric constant tensor:
#      x y z
#    x 3.649770 0.000000 0.000000 
#    y 0.000000 3.851390 0.000000 
#    z 0.000000 0.000000 3.293390 
# 
# 
# High freq. dielectric constant tensor:
#      x y z
#    x 1.748230 0.000000 0.000000 
#    y 0.000000 1.755440 0.000000 
#    z 0.000000 0.000000 1.736500 
# 
# From -- ./inp_files/53172.got.cif
#   From: 2010.03.12/outbox.cif.g09.slc.cpg/sg63_27_cif.got.tgz:53172.got - 2010.04.10 19:34:48.
