data_PCOD8257365
_publ_section_title
;
Structure prediction by ZEFSAII (Michael W. Deem and Ramdas Pophale) SiO2 
 PCOD8257365
Probable space group: C M C M
;
_chemical_formula_sum "Si O2"
_cell_formula_units_Z 88
_cell_length_a 19.520777
_cell_length_b 24.604483
_cell_length_c 9.420236
_cell_angle_alpha 90.000000
_cell_angle_beta 90.000000
_cell_angle_gamma 90.000000
_cell_volume 4524.526406
_symmetry_space_group_name_H-M "C M C M"
_symmetry_group_IT_number 63
_symmetry_cell_setting 'orthorhombic'
loop_
_space_group_symop_operation_xyz
x,y,z
-x,-y,1/2+z
x,-y,-z
-x,y,1/2-z
-x,-y,-z
x,y,1/2-z
-x,y,z
x,-y,1/2+z
1/2+x,1/2+y,z
1/2-x,1/2-y,1/2+z
1/2+x,1/2-y,-z
1/2-x,1/2+y,1/2-z
1/2-x,1/2-y,-z
1/2+x,1/2+y,1/2-z
1/2-x,1/2+y,z
1/2+x,1/2-y,1/2+z
loop_
_atom_site_type_symbol
_atom_site_label
_atom_site_fract_x
_atom_site_fract_y
_atom_site_fract_z
Si Si1 0.135799 0.124680 0.912989
Si Si2 0.721300 0.450016 0.909602
Si Si3 0.820284 0.244815 0.584663
Si Si4 0.424344 0.833910 0.581308
Si Si5 0.000000 0.942432 0.416388
Si Si6 0.883682 0.549818 0.409191
O O1 0.153519 0.110802 0.750000
O O2 0.136370 0.189421 0.936907
O O3 0.064861 0.095454 0.957173
O O4 0.196217 0.104477 0.015057
O O5 0.692087 0.453839 0.750000
O O6 0.802283 0.450136 0.909037
O O7 0.690873 0.500000 0.000000
O O8 0.803048 0.253484 0.750000
O O9 0.750000 0.250000 0.500000
O O10 0.869315 0.291586 0.521416
O O11 0.418080 0.835539 0.750000
O O12 0.500000 0.815486 0.533126
O O13 0.409494 0.894127 0.521110
O O14 0.000000 0.956484 0.250000
O O15 0.000000 0.000000 0.500000
O O16 0.913210 0.500000 0.500000
O O17 0.912198 0.543198 0.250000
#
# Coordination Sequence:
#
# PCOD8257365 Si02
#       6
#    16  16  16  16   8  16
#     4  10  21  35  54  79 108 142 183 228 278 334
#     4  10  19  32  52  77 108 141 179 224 272 323
#     4  10  21  37  59  84 110 143 185 234 282 332
#     4   9  18  33  55  80 106 139 181 222 263 318
#     4  10  22  38  54  78 112 146 185 230 280 338
#     4   9  18  32  51  77 106 137 174 218 265 317
#
# _framework density 19.449549999999999
#
# number of rings (size 3 to 8) (size 9 to 14) (size 15 to 20)
#    0.000    2.364    0.000    2.182    1.273    5.455 
#    0.000    0.909    0.000    1.636    0.000    0.000 
#    0.000    0.000    0.000    0.000    0.000    0.000 
#
# Total GULP energy -545495.399927 kJ/mol
# GULP energy per Si atom -12397.622726 kJ/mol
# Density = 1.940528 g / cm^3
# Si number density = 19.449550 Si / 1000 Ang^3
#
#
#
# Elastic Constant Matrix: (Units=GPa)
#
#
# Indices 1 2 3 4 5 6 
#
# 1 84.5960 71.8579 37.8052 0.0000 0.0000 0.0000
# 2 71.8579 156.8115 52.3219 0.0000 0.0000 0.0000
# 3 37.8052 52.3219 71.6394 0.0000 0.0000 0.0000
# 4 0.0000 0.0000 0.0000 30.4306 0.0000 0.0000
# 5 0.0000 0.0000 0.0000 0.0000 17.2887 0.0000
# 6 0.0000 0.0000 0.0000 0.0000 0.0000 35.4265
#
#
#
# Elastic Compliance Matrix: (Units=1/GPa)
#
#
# Indices 1 2 3 4 5 6 
#
# 1 0.020774 -0.007750 -0.005302 0.000000 0.000000 0.000000
# 2 -0.007750 0.011323 -0.004180 0.000000 0.000000 0.000000
# 3 -0.005302 -0.004180 0.019810 0.000000 0.000000 0.000000
# 4 0.000000 0.000000 0.000000 0.032862 0.000000 0.000000
# 5 0.000000 0.000000 0.000000 0.000000 0.057841 0.000000
# 6 0.000000 0.000000 0.000000 0.000000 0.000000 0.028227
#
#
# Mechanical properties :
#
#
# Convention : Reuss Voigt Hill
#
# Bulk Modulus (GPa) = 57.33377 70.77965 64.05671
# Shear Modulus (GPa) = 23.68368 26.69997 25.19183
#
# Velocity S-wave (km/s) = 3.49334 3.70913 3.60285
# Velocity P-wave (km/s) = 6.76856 7.40364 7.09321
#
# Compressibility (1/GPa) = 0.01744173
#
# Stress axis : x y z
#
# Youngs Moduli (GPa) = 48.13794 88.31345 50.48021
#
# Poissons Ratio (x) = 0.68445 0.26765
# Poissons Ratio (y) = 0.37308 0.21101
# Poissons Ratio (z) = 0.25524 0.36915
#
# Static dielectric constant tensor:
#      x y z
#    x 3.466760 0.000000 0.000000 
#    y 0.000000 3.797250 0.000000 
#    z 0.000000 0.000000 3.479290 
# 
# 
# High freq. dielectric constant tensor:
#      x y z
#    x 1.757100 0.000000 0.000000 
#    y 0.000000 1.770640 0.000000 
#    z 0.000000 0.000000 1.731190 
# 
# From -- ./inp_files/8222.got.cif
#   From: 2010.03.12/outbox.cif.g09.slc.cpg/sg63_5_cif.got.tgz:8222.got - 2010.04.10 19:34:48.
