data_PCOD8257990
_publ_section_title
;
Structure prediction by ZEFSAII (Michael W. Deem and Ramdas Pophale) SiO2 
 PCOD8257990
Probable space group: C M C M
;
_chemical_formula_sum "Si O2"
_cell_formula_units_Z 104
_cell_length_a 31.654460
_cell_length_b 19.352315
_cell_length_c 8.968881
_cell_angle_alpha 90.000000
_cell_angle_beta 90.000000
_cell_angle_gamma 90.000000
_cell_volume 5494.220632
_symmetry_space_group_name_H-M "C M C M"
_symmetry_group_IT_number 63
_symmetry_cell_setting 'orthorhombic'
loop_
_space_group_symop_operation_xyz
x,y,z
-x,-y,1/2+z
x,-y,-z
-x,y,1/2-z
-x,-y,-z
x,y,1/2-z
-x,y,z
x,-y,1/2+z
1/2+x,1/2+y,z
1/2-x,1/2-y,1/2+z
1/2+x,1/2-y,-z
1/2-x,1/2+y,1/2-z
1/2-x,1/2-y,-z
1/2+x,1/2+y,1/2-z
1/2-x,1/2+y,z
1/2+x,1/2-y,1/2+z
loop_
_atom_site_type_symbol
_atom_site_label
_atom_site_fract_x
_atom_site_fract_y
_atom_site_fract_z
Si Si1 0.804902 0.699608 0.921727
Si Si2 0.500000 0.425775 0.575077
Si Si3 0.344912 0.571256 0.926550
Si Si4 0.401984 0.811916 0.078661
Si Si5 0.548227 0.930878 0.924637
Si Si6 0.083746 0.845010 0.923054
Si Si7 0.226838 0.852012 0.922896
O O1 0.795605 0.682693 0.750000
O O2 0.852929 0.685537 0.965758
O O3 0.795611 0.779388 0.955407
O O4 0.775201 0.650555 0.021508
O O5 0.500000 0.500000 0.500000
O O6 0.500000 0.437778 0.750000
O O7 0.459020 0.382651 0.525346
O O8 0.344362 0.563979 0.750000
O O9 0.360021 0.500000 0.000000
O O10 0.377957 0.629494 0.975449
O O11 0.298218 0.590042 0.984966
O O12 0.408270 0.833690 0.250000
O O13 0.421662 0.736480 0.050571
O O14 0.425678 0.864607 0.973072
O O15 0.552367 0.940490 0.750000
O O16 0.500000 0.919573 0.975673
O O17 0.566818 0.000000 0.000000
O O18 0.094690 0.859961 0.750000
O O19 0.225915 0.872190 0.750000
#
# Coordination Sequence:
#
# PCOD8257990 Si02
#       7
#    16   8  16  16  16  16  16
#     4   9  18  34  56  84 115 148 185 231 283 341
#     4  10  22  38  58  80 113 156 199 242 293 346
#     4  12  24  38  58  83 115 156 199 247 295 344
#     4  10  20  36  61  89 120 153 190 239 290 346
#     4  10  22  40  61  87 118 152 192 237 287 348
#     4  10  21  39  59  85 116 153 199 243 290 348
#     4  10  19  35  57  82 113 149 190 236 282 339
#
# _framework density 18.928981
#
# number of rings (size 3 to 8) (size 9 to 14) (size 15 to 20)
#    0.000    1.846    1.538    2.769    1.077    4.615 
#    0.000    0.769    0.000    3.692    0.000    0.000 
#    0.000    0.000    0.000    0.000    0.000    0.000 
#
# Total GULP energy -645044.709957 kJ/mol
# GULP energy per Si atom -12404.705961 kJ/mol
# Density = 1.888590 g / cm^3
# Si number density = 18.928981 Si / 1000 Ang^3
#
#
#
# Elastic Constant Matrix: (Units=GPa)
#
#
# Indices 1 2 3 4 5 6 
#
# 1 102.5597 49.9029 43.5358 0.0000 0.0000 0.0000
# 2 49.9029 95.5890 44.8050 0.0000 0.0000 0.0000
# 3 43.5358 44.8050 91.2723 0.0000 0.0000 0.0000
# 4 0.0000 0.0000 0.0000 34.6134 0.0000 0.0000
# 5 0.0000 0.0000 0.0000 0.0000 32.7752 0.0000
# 6 0.0000 0.0000 0.0000 0.0000 0.0000 25.4754
#
#
#
# Elastic Compliance Matrix: (Units=1/GPa)
#
#
# Indices 1 2 3 4 5 6 
#
# 1 0.014138 -0.005481 -0.004053 0.000000 0.000000 0.000000
# 2 -0.005481 0.015713 -0.005099 0.000000 0.000000 0.000000
# 3 -0.004053 -0.005099 0.015393 0.000000 0.000000 0.000000
# 4 0.000000 0.000000 0.000000 0.028891 0.000000 0.000000
# 5 0.000000 0.000000 0.000000 0.000000 0.030511 0.000000
# 6 0.000000 0.000000 0.000000 0.000000 0.000000 0.039253
#
#
# Mechanical properties :
#
#
# Convention : Reuss Voigt Hill
#
# Bulk Modulus (GPa) = 62.58892 62.87870 62.73381
# Shear Modulus (GPa) = 28.01282 28.65130 28.33206
#
# Velocity S-wave (km/s) = 3.85111 3.89475 3.87299
# Velocity P-wave (km/s) = 7.27404 7.31545 7.29477
#
# Compressibility (1/GPa) = 0.01597727
#
# Stress axis : x y z
#
# Youngs Moduli (GPa) = 70.73252 63.64209 64.96668
#
# Poissons Ratio (x) = 0.34882 0.26331
# Poissons Ratio (y) = 0.38768 0.33126
# Poissons Ratio (z) = 0.28668 0.32451
#
# Static dielectric constant tensor:
#      x y z
#    x 3.568430 0.000000 0.000000 
#    y 0.000000 3.383110 0.000000 
#    z 0.000000 0.000000 3.418770 
# 
# 
# High freq. dielectric constant tensor:
#      x y z
#    x 1.739720 0.000000 0.000000 
#    y 0.000000 1.728740 0.000000 
#    z 0.000000 0.000000 1.735200 
# 
# From -- ./inp_files/14448.got.cif
#   From: 2010.03.12/outbox.cif.g09.slc.cpg/sg63_8_cif.got.tgz:14448.got - 2010.04.10 19:34:48.
