data_PCOD8257145
_publ_section_title
;
Structure prediction by ZEFSAII (Michael W. Deem and Ramdas Pophale) SiO2 
 PCOD8257145
Probable space group: C M C M
;
_chemical_formula_sum "Si O2"
_cell_formula_units_Z 96
_cell_length_a 9.149416
_cell_length_b 20.665703
_cell_length_c 27.989688
_cell_angle_alpha 90.000000
_cell_angle_beta 90.000000
_cell_angle_gamma 90.000000
_cell_volume 5292.265399
_symmetry_space_group_name_H-M "C M C M"
_symmetry_group_IT_number 63
_symmetry_cell_setting 'orthorhombic'
loop_
_space_group_symop_operation_xyz
x,y,z
-x,-y,1/2+z
x,-y,-z
-x,y,1/2-z
-x,-y,-z
x,y,1/2-z
-x,y,z
x,-y,1/2+z
1/2+x,1/2+y,z
1/2-x,1/2-y,1/2+z
1/2+x,1/2-y,-z
1/2-x,1/2+y,1/2-z
1/2-x,1/2-y,-z
1/2+x,1/2+y,1/2-z
1/2-x,1/2+y,z
1/2+x,1/2-y,1/2+z
loop_
_atom_site_type_symbol
_atom_site_label
_atom_site_fract_x
_atom_site_fract_y
_atom_site_fract_z
Si Si1 0.827020 0.500805 0.695441
Si Si2 0.169331 0.882055 0.353894
Si Si3 0.327088 0.127309 0.359707
Si Si4 0.170254 0.819178 0.944435
Si Si5 0.826424 0.752036 0.196884
Si Si6 0.667531 0.687203 0.552408
O O1 0.768473 0.502855 0.750000
O O2 0.762079 0.558168 0.664184
O O3 0.776372 0.434253 0.670935
O O4 0.000000 0.507065 0.695009
O O5 0.226894 0.818021 0.327311
O O6 0.195637 0.871383 0.410577
O O7 0.000000 0.895282 0.342336
O O8 0.500000 0.127832 0.367177
O O9 0.250303 0.127471 0.411590
O O10 0.268224 0.190545 0.332214
O O11 0.231938 0.747769 0.934148
O O12 0.000000 0.819127 0.932436
O O13 0.201096 0.838951 0.999397
O O14 0.760533 0.749056 0.250000
O O15 0.000000 0.749246 0.198255
O O16 0.500000 0.711520 0.556854
#
# Coordination Sequence:
#
# PCOD8257145 Si02
#       6
#    16  16  16  16  16  16
#     4  10  22  38  55  77 108 145 180 219 269 318
#     4  10  19  34  56  79 104 138 180 220 261 313
#     4  10  19  35  55  75 105 143 180 216 261 319
#     4  10  19  31  53  83 111 136 171 222 272 311
#     4   9  16  28  51  78  98 126 176 224 256 301
#     4   9  18  34  54  79 109 142 176 213 264 324
#
# _framework density 18.139679999999998
#
# number of rings (size 3 to 8) (size 9 to 14) (size 15 to 20)
#    0.000    2.333    1.667    1.500    0.000    5.000 
#    0.000    0.833    0.000    6.500    0.000    0.000 
#    0.000    0.000    0.000    0.000    0.000    0.000 
#
# Total GULP energy -595207.085260 kJ/mol
# GULP energy per Si atom -12400.147610 kJ/mol
# Density = 1.809839 g / cm^3
# Si number density = 18.139680 Si / 1000 Ang^3
#
#
#
# Elastic Constant Matrix: (Units=GPa)
#
#
# Indices 1 2 3 4 5 6 
#
# 1 36.4499 36.0004 39.5184 0.0000 0.0000 0.0000
# 2 36.0004 120.6196 65.0201 0.0000 0.0000 0.0000
# 3 39.5184 65.0201 145.4091 0.0000 0.0000 0.0000
# 4 0.0000 0.0000 0.0000 32.4716 0.0000 0.0000
# 5 0.0000 0.0000 0.0000 0.0000 27.8315 0.0000
# 6 0.0000 0.0000 0.0000 0.0000 0.0000 29.2485
#
#
#
# Elastic Compliance Matrix: (Units=1/GPa)
#
#
# Indices 1 2 3 4 5 6 
#
# 1 0.045372 -0.009085 -0.008269 0.000000 0.000000 0.000000
# 2 -0.009085 0.012742 -0.003229 0.000000 0.000000 0.000000
# 3 -0.008269 -0.003229 0.010568 0.000000 0.000000 0.000000
# 4 0.000000 0.000000 0.000000 0.030796 0.000000 0.000000
# 5 0.000000 0.000000 0.000000 0.000000 0.035930 0.000000
# 6 0.000000 0.000000 0.000000 0.000000 0.000000 0.034190
#
#
# Mechanical properties :
#
#
# Convention : Reuss Voigt Hill
#
# Bulk Modulus (GPa) = 36.33926 64.83959 50.58943
# Shear Modulus (GPa) = 22.73377 28.70629 25.72003
#
# Velocity S-wave (km/s) = 3.54398 3.98240 3.76957
# Velocity P-wave (km/s) = 6.06819 7.54773 6.84803
#
# Compressibility (1/GPa) = 0.02751845
#
# Stress axis : x y z
#
# Youngs Moduli (GPa) = 22.03980 78.47758 94.62358
#
# Poissons Ratio (x) = 0.71294 0.78242
# Poissons Ratio (y) = 0.20022 0.30553
# Poissons Ratio (z) = 0.18224 0.25339
#
# Static dielectric constant tensor:
#      x y z
#    x 3.107270 0.000000 0.000000 
#    y 0.000000 3.206290 0.000000 
#    z 0.000000 0.000000 3.710770 
# 
# 
# High freq. dielectric constant tensor:
#      x y z
#    x 1.679500 0.000000 0.000000 
#    y 0.000000 1.684320 0.000000 
#    z 0.000000 0.000000 1.722810 
# 
# From -- ./inp_files/66865.got.cif
#   From: 2010.03.12/outbox.cif.g09.slc.cpg/sg63_34_cif.got.tgz:66865.got - 2010.04.10 19:34:48.
