data_PCOD8257506
_publ_section_title
;
Structure prediction by ZEFSAII (Michael W. Deem and Ramdas Pophale) SiO2 
 PCOD8257506
Probable space group: C M C M
;
_chemical_formula_sum "Si O2"
_cell_formula_units_Z 72
_cell_length_a 33.413974
_cell_length_b 14.491629
_cell_length_c 8.398606
_cell_angle_alpha 90.000000
_cell_angle_beta 90.000000
_cell_angle_gamma 90.000000
_cell_volume 4066.797476
_symmetry_space_group_name_H-M "C M C M"
_symmetry_group_IT_number 63
_symmetry_cell_setting 'orthorhombic'
loop_
_space_group_symop_operation_xyz
x,y,z
-x,-y,1/2+z
x,-y,-z
-x,y,1/2-z
-x,-y,-z
x,y,1/2-z
-x,y,z
x,-y,1/2+z
1/2+x,1/2+y,z
1/2-x,1/2-y,1/2+z
1/2+x,1/2-y,-z
1/2-x,1/2+y,1/2-z
1/2-x,1/2-y,-z
1/2+x,1/2+y,1/2-z
1/2-x,1/2+y,z
1/2+x,1/2-y,1/2+z
loop_
_atom_site_type_symbol
_atom_site_label
_atom_site_fract_x
_atom_site_fract_y
_atom_site_fract_z
Si Si1 0.913216 0.104248 0.061145
Si Si2 0.500000 0.600935 0.064338
Si Si3 0.814656 0.600256 0.563941
Si Si4 0.159525 0.216765 0.566031
Si Si5 0.728164 0.596631 0.064889
O O1 0.905787 0.105846 0.250000
O O2 0.957426 0.146051 0.013440
O O3 0.882560 0.170878 0.973990
O O4 0.907723 0.000000 0.000000
O O5 0.500000 0.591784 0.250000
O O6 0.500000 0.500000 0.000000
O O7 0.826757 0.500000 0.500000
O O8 0.822909 0.605281 0.750000
O O9 0.842585 0.675005 0.475915
O O10 0.768285 0.622811 0.529164
O O11 0.169728 0.201525 0.750000
O O12 0.194780 0.173600 0.460154
O O13 0.738985 0.587765 0.250000
O O14 0.710696 0.500000 0.000000
#
# Coordination Sequence:
#
# PCOD8257506 Si02
#       5
#    16   8  16  16  16
#     4  10  19  33  51  76 105 136 167 202 244 294
#     4   8  16  30  50  72 101 134 165 196 238 292
#     4  11  22  38  55  73  96 128 167 210 253 298
#     4  12  23  35  50  73 101 133 169 209 249 292
#     4  11  21  35  52  73 100 133 168 207 250 298
#
# _framework density 17.704349000000001
#
# number of rings (size 3 to 8) (size 9 to 14) (size 15 to 20)
#    0.000    1.333    0.000    9.333    0.000    0.889 
#    0.000    0.000    0.000    0.000    0.000    0.778 
#    0.000    0.000    0.000    0.000    0.000    0.000 
#
# Total GULP energy -446344.142071 kJ/mol
# GULP energy per Si atom -12398.448391 kJ/mol
# Density = 1.766405 g / cm^3
# Si number density = 17.704349 Si / 1000 Ang^3
#
#
#
# Elastic Constant Matrix: (Units=GPa)
#
#
# Indices 1 2 3 4 5 6 
#
# 1 88.2850 58.1360 21.3771 0.0000 0.0000 0.0000
# 2 58.1360 98.9597 20.0306 0.0000 0.0000 0.0000
# 3 21.3771 20.0306 80.1580 0.0000 0.0000 0.0000
# 4 0.0000 0.0000 0.0000 29.2035 0.0000 0.0000
# 5 0.0000 0.0000 0.0000 0.0000 23.8419 0.0000
# 6 0.0000 0.0000 0.0000 0.0000 0.0000 12.3166
#
#
#
# Elastic Compliance Matrix: (Units=1/GPa)
#
#
# Indices 1 2 3 4 5 6 
#
# 1 0.018897 -0.010619 -0.002386 0.000000 0.000000 0.000000
# 2 -0.010619 0.016610 -0.001319 0.000000 0.000000 0.000000
# 3 -0.002386 -0.001319 0.013441 0.000000 0.000000 0.000000
# 4 0.000000 0.000000 0.000000 0.034242 0.000000 0.000000
# 5 0.000000 0.000000 0.000000 0.000000 0.041943 0.000000
# 6 0.000000 0.000000 0.000000 0.000000 0.000000 0.081191
#
#
# Mechanical properties :
#
#
# Convention : Reuss Voigt Hill
#
# Bulk Modulus (GPa) = 49.25761 51.83224 50.54492
# Shear Modulus (GPa) = 20.68343 24.26299 22.47321
#
# Velocity S-wave (km/s) = 3.42170 3.70598 3.56667
# Velocity P-wave (km/s) = 6.59496 6.90308 6.75078
#
# Compressibility (1/GPa) = 0.02030143
#
# Stress axis : x y z
#
# Youngs Moduli (GPa) = 52.91824 60.20409 74.39764
#
# Poissons Ratio (x) = 0.63928 0.17752
# Poissons Ratio (y) = 0.56191 0.09812
# Poissons Ratio (z) = 0.12627 0.07940
#
# Static dielectric constant tensor:
#      x y z
#    x 3.512910 0.000000 0.000000 
#    y 0.000000 3.302470 0.000000 
#    z 0.000000 0.000000 3.416370 
# 
# 
# High freq. dielectric constant tensor:
#      x y z
#    x 1.669400 0.000000 0.000000 
#    y 0.000000 1.666360 0.000000 
#    z 0.000000 0.000000 1.705790 
# 
# From -- ./inp_files/13925.got.cif
#   From: 2010.03.12/outbox.cif.g09.slc.cpg/sg63_7_cif.got.tgz:13925.got - 2010.04.10 19:34:48.
