data_PCOD8257646
_publ_section_title
;
Structure prediction by ZEFSAII (Michael W. Deem and Ramdas Pophale) SiO2 
 PCOD8257646
Probable space group: C M C M
;
_chemical_formula_sum "Si O2"
_cell_formula_units_Z 104
_cell_length_a 22.921847
_cell_length_b 28.467596
_cell_length_c 8.691978
_cell_angle_alpha 90.000000
_cell_angle_beta 90.000000
_cell_angle_gamma 90.000000
_cell_volume 5671.775361
_symmetry_space_group_name_H-M "C M C M"
_symmetry_group_IT_number 63
_symmetry_cell_setting 'orthorhombic'
loop_
_space_group_symop_operation_xyz
x,y,z
-x,-y,1/2+z
x,-y,-z
-x,y,1/2-z
-x,-y,-z
x,y,1/2-z
-x,y,z
x,-y,1/2+z
1/2+x,1/2+y,z
1/2-x,1/2-y,1/2+z
1/2+x,1/2-y,-z
1/2-x,1/2+y,1/2-z
1/2-x,1/2-y,-z
1/2+x,1/2+y,1/2-z
1/2-x,1/2+y,z
1/2+x,1/2-y,1/2+z
loop_
_atom_site_type_symbol
_atom_site_label
_atom_site_fract_x
_atom_site_fract_y
_atom_site_fract_z
Si Si1 0.379796 0.602916 0.932041
Si Si2 0.691050 0.788659 0.928888
Si Si3 0.500000 0.446928 0.431528
Si Si4 0.175995 0.195699 0.430675
Si Si5 0.435681 0.951067 0.567354
Si Si6 0.773729 0.050101 0.433108
Si Si7 0.666273 0.109883 0.070028
O O1 0.374535 0.603974 0.750000
O O2 0.443944 0.584459 0.983236
O O3 0.363459 0.655318 0.991846
O O4 0.335993 0.564891 0.001252
O O5 0.692803 0.774904 0.750000
O O6 0.756520 0.801830 0.986912
O O7 0.655816 0.835688 0.964667
O O8 0.655618 0.748072 0.020488
O O9 0.500000 0.500000 0.500000
O O10 0.500000 0.454041 0.250000
O O11 0.171643 0.186832 0.250000
O O12 0.434142 0.953305 0.750000
O O13 0.500000 0.937471 0.507847
O O14 0.390349 0.914145 0.497035
O O15 0.415086 0.000000 0.500000
O O16 0.777644 0.047859 0.250000
O O17 0.726537 0.088136 0.494540
O O18 0.755338 0.000000 0.500000
O O19 0.668853 0.099996 0.250000
#
# Coordination Sequence:
#
# PCOD8257646 Si02
#       7
#    16  16   8  16  16  16  16
#     4  11  22  38  58  80 106 140 179 223 271 326
#     4   9  17  32  52  76 107 141 172 211 262 314
#     4  10  24  42  60  82 108 142 186 228 275 332
#     4  10  19  33  54  81 107 136 172 215 263 318
#     4   9  17  30  49  71  97 133 174 210 247 297
#     4  11  21  34  50  76 109 140 173 215 266 321
#     4   9  17  31  50  73 104 137 172 215 259 305
#
# _framework density 18.336410000000001
#
# number of rings (size 3 to 8) (size 9 to 14) (size 15 to 20)
#    0.000    2.154    1.538    2.308    0.000    3.077 
#    0.000    1.538    1.692    0.000    0.000    0.000 
#    0.000    0.000    0.000    0.000    0.000    0.000 
#
# Total GULP energy -644372.131441 kJ/mol
# GULP energy per Si atom -12391.771758 kJ/mol
# Density = 1.829468 g / cm^3
# Si number density = 18.336410 Si / 1000 Ang^3
#
#
#
# Elastic Constant Matrix: (Units=GPa)
#
#
# Indices 1 2 3 4 5 6 
#
# 1 89.9609 64.1850 23.6426 0.0000 0.0000 0.0000
# 2 64.1850 128.8241 31.9198 0.0000 0.0000 0.0000
# 3 23.6426 31.9198 48.0847 0.0000 0.0000 0.0000
# 4 0.0000 0.0000 0.0000 32.1102 0.0000 0.0000
# 5 0.0000 0.0000 0.0000 0.0000 17.7559 0.0000
# 6 0.0000 0.0000 0.0000 0.0000 0.0000 39.7258
#
#
#
# Elastic Compliance Matrix: (Units=1/GPa)
#
#
# Indices 1 2 3 4 5 6 
#
# 1 0.017702 -0.007975 -0.003410 0.000000 0.000000 0.000000
# 2 -0.007975 0.012883 -0.004631 0.000000 0.000000 0.000000
# 3 -0.003410 -0.004631 0.025548 0.000000 0.000000 0.000000
# 4 0.000000 0.000000 0.000000 0.031143 0.000000 0.000000
# 5 0.000000 0.000000 0.000000 0.000000 0.056319 0.000000
# 6 0.000000 0.000000 0.000000 0.000000 0.000000 0.025173
#
#
# Mechanical properties :
#
#
# Convention : Reuss Voigt Hill
#
# Bulk Modulus (GPa) = 41.49205 56.26270 48.87737
# Shear Modulus (GPa) = 23.94257 27.72654 25.83456
#
# Velocity S-wave (km/s) = 3.61742 3.89280 3.75763
# Velocity P-wave (km/s) = 6.33443 7.13830 6.74835
#
# Compressibility (1/GPa) = 0.02410100
#
# Stress axis : x y z
#
# Youngs Moduli (GPa) = 56.49083 77.61909 39.14273
#
# Poissons Ratio (x) = 0.61900 0.13347
# Poissons Ratio (y) = 0.45051 0.18128
# Poissons Ratio (z) = 0.19263 0.35947
#
# Static dielectric constant tensor:
#      x y z
#    x 3.567900 0.000000 0.000000 
#    y 0.000000 3.627120 0.000000 
#    z 0.000000 0.000000 3.301210 
# 
# 
# High freq. dielectric constant tensor:
#      x y z
#    x 1.694580 0.000000 0.000000 
#    y 0.000000 1.723920 0.000000 
#    z 0.000000 0.000000 1.697820 
# 
# From -- ./inp_files/10817.got.cif
#   From: 2010.03.12/outbox.cif.g09.slc.cpg/sg63_6_cif.got.tgz:10817.got - 2010.04.10 19:34:48.
