data_PCOD8257169
_publ_section_title
;
Structure prediction by ZEFSAII (Michael W. Deem and Ramdas Pophale) SiO2 
 PCOD8257169
Probable space group: C M C M
;
_chemical_formula_sum "Si O2"
_cell_formula_units_Z 96
_cell_length_a 12.563651
_cell_length_b 23.446707
_cell_length_c 19.027311
_cell_angle_alpha 90.000000
_cell_angle_beta 90.000000
_cell_angle_gamma 90.000000
_cell_volume 5604.993805
_symmetry_space_group_name_H-M "C M C M"
_symmetry_group_IT_number 63
_symmetry_cell_setting 'orthorhombic'
loop_
_space_group_symop_operation_xyz
x,y,z
-x,-y,1/2+z
x,-y,-z
-x,y,1/2-z
-x,-y,-z
x,y,1/2-z
-x,y,z
x,-y,1/2+z
1/2+x,1/2+y,z
1/2-x,1/2-y,1/2+z
1/2+x,1/2-y,-z
1/2-x,1/2+y,1/2-z
1/2-x,1/2-y,-z
1/2+x,1/2+y,1/2-z
1/2-x,1/2+y,z
1/2+x,1/2-y,1/2+z
loop_
_atom_site_type_symbol
_atom_site_label
_atom_site_fract_x
_atom_site_fract_y
_atom_site_fract_z
Si Si1 0.882636 0.740613 0.170681
Si Si2 0.377434 0.306377 0.551970
Si Si3 0.881918 0.467702 0.667319
Si Si4 0.125349 0.403166 0.329410
Si Si5 0.761935 0.866725 0.669619
Si Si6 0.267897 0.809926 0.423278
O O1 0.884915 0.762473 0.250000
O O2 0.831446 0.678978 0.164770
O O3 0.822666 0.788311 0.127982
O O4 0.000000 0.734909 0.138676
O O5 0.500000 0.313993 0.528325
O O6 0.359589 0.345006 0.621618
O O7 0.356358 0.239153 0.565198
O O8 0.291628 0.328333 0.494845
O O9 0.891766 0.458167 0.750000
O O10 0.845246 0.531971 0.650572
O O11 0.790470 0.424966 0.639118
O O12 0.000000 0.455829 0.634489
O O13 0.165377 0.388610 0.250000
O O14 0.178383 0.364396 0.388403
O O15 0.000000 0.393896 0.332104
O O16 0.803448 0.873468 0.750000
#
# Coordination Sequence:
#
# PCOD8257169 Si02
#       6
#    16  16  16  16  16  16
#     4   9  16  26  44  70  95 120 152 189 228 273
#     4  10  21  34  48  67  92 126 162 197 239 280
#     4   8  14  27  49  75  99 121 147 185 234 282
#     4   9  17  30  51  77 101 124 150 185 231 280
#     4   9  17  30  49  71  93 120 156 197 238 279
#     4  10  19  32  48  67  96 127 157 191 233 285
#
# _framework density 17.127583000000001
#
# number of rings (size 3 to 8) (size 9 to 14) (size 15 to 20)
#    0.000    2.833    0.000    3.000    0.000    3.000 
#    0.000    3.333    0.000    5.000    0.000    4.667 
#    0.000    0.000    0.000    0.000    0.000    0.000 
#
# Total GULP energy -594944.296005 kJ/mol
# GULP energy per Si atom -12394.672833 kJ/mol
# Density = 1.708860 g / cm^3
# Si number density = 17.127583 Si / 1000 Ang^3
#
#
#
# Elastic Constant Matrix: (Units=GPa)
#
#
# Indices 1 2 3 4 5 6 
#
# 1 68.5985 30.8374 31.9891 0.0000 0.0000 0.0000
# 2 30.8374 84.9381 43.7319 0.0000 0.0000 0.0000
# 3 31.9891 43.7319 70.4175 0.0000 0.0000 0.0000
# 4 0.0000 0.0000 0.0000 18.9607 0.0000 0.0000
# 5 0.0000 0.0000 0.0000 0.0000 18.1146 0.0000
# 6 0.0000 0.0000 0.0000 0.0000 0.0000 14.7298
#
#
#
# Elastic Compliance Matrix: (Units=1/GPa)
#
#
# Indices 1 2 3 4 5 6 
#
# 1 0.019237 -0.003653 -0.006470 0.000000 0.000000 0.000000
# 2 -0.003653 0.018001 -0.009520 0.000000 0.000000 0.000000
# 3 -0.006470 -0.009520 0.023053 0.000000 0.000000 0.000000
# 4 0.000000 0.000000 0.000000 0.052741 0.000000 0.000000
# 5 0.000000 0.000000 0.000000 0.000000 0.055204 0.000000
# 6 0.000000 0.000000 0.000000 0.000000 0.000000 0.067890
#
#
# Mechanical properties :
#
#
# Convention : Reuss Voigt Hill
#
# Bulk Modulus (GPa) = 47.60913 48.56342 48.08628
# Shear Modulus (GPa) = 17.70461 18.18740 17.94600
#
# Velocity S-wave (km/s) = 3.21859 3.26218 3.24046
# Velocity P-wave (km/s) = 6.45520 6.52722 6.49131
#
# Compressibility (1/GPa) = 0.02100437
#
# Stress axis : x y z
#
# Youngs Moduli (GPa) = 51.98343 55.55271 43.37900
#
# Poissons Ratio (x) = 0.20292 0.28068
# Poissons Ratio (y) = 0.18988 0.41297
# Poissons Ratio (z) = 0.33636 0.52886
#
# Static dielectric constant tensor:
#      x y z
#    x 3.091890 0.000000 0.000000 
#    y 0.000000 3.235330 0.000000 
#    z 0.000000 0.000000 3.387490 
# 
# 
# High freq. dielectric constant tensor:
#      x y z
#    x 1.647690 0.000000 0.000000 
#    y 0.000000 1.649120 0.000000 
#    z 0.000000 0.000000 1.651080 
# 
# From -- ./inp_files/52858.got.cif
#   From: 2010.03.12/outbox.cif.g09.slc.cpg/sg63_27_cif.got.tgz:52858.got - 2010.04.10 19:34:48.
