data_PCOD8257776
_publ_section_title
;
Structure prediction by ZEFSAII (Michael W. Deem and Ramdas Pophale) SiO2 
 PCOD8257776
Probable space group: C M C M
;
_chemical_formula_sum "Si O2"
_cell_formula_units_Z 96
_cell_length_a 9.425451
_cell_length_b 19.858785
_cell_length_c 28.777736
_cell_angle_alpha 90.000000
_cell_angle_beta 90.000000
_cell_angle_gamma 90.000000
_cell_volume 5386.559211
_symmetry_space_group_name_H-M "C M C M"
_symmetry_group_IT_number 63
_symmetry_cell_setting 'orthorhombic'
loop_
_space_group_symop_operation_xyz
x,y,z
-x,-y,1/2+z
x,-y,-z
-x,y,1/2-z
-x,-y,-z
x,y,1/2-z
-x,y,z
x,-y,1/2+z
1/2+x,1/2+y,z
1/2-x,1/2-y,1/2+z
1/2+x,1/2-y,-z
1/2-x,1/2+y,1/2-z
1/2-x,1/2-y,-z
1/2+x,1/2+y,1/2-z
1/2-x,1/2+y,z
1/2+x,1/2-y,1/2+z
loop_
_atom_site_type_symbol
_atom_site_label
_atom_site_fract_x
_atom_site_fract_y
_atom_site_fract_z
Si Si1 0.165024 0.934641 0.972118
Si Si2 0.666456 0.257742 0.372187
Si Si3 0.834826 0.869283 0.303681
Si Si4 0.167515 0.393570 0.618446
Si Si5 0.664446 0.999495 0.696812
Si Si6 0.662836 0.302971 0.028056
O O1 0.255896 0.926471 0.925629
O O2 0.000000 0.938201 0.957845
O O3 0.196565 0.876071 0.008700
O O4 0.214846 0.000000 0.000000
O O5 0.500000 0.249826 0.365870
O O6 0.725947 0.303394 0.330133
O O7 0.729299 0.181879 0.372993
O O8 0.708161 0.298653 0.418356
O O9 0.807232 0.854927 0.250000
O O10 0.752934 0.935953 0.320149
O O11 0.000000 0.881066 0.315126
O O12 0.203748 0.436402 0.664371
O O13 0.000000 0.392471 0.608022
O O14 0.702994 0.980070 0.750000
O O15 0.500000 0.018423 0.692196
O O16 0.500000 0.282988 0.022105
O O17 0.750000 0.250000 0.000000
#
# Coordination Sequence:
#
# PCOD8257776 Si02
#       6
#    16  16  16  16  16  16
#     4  10  22  36  52  76 104 137 172 210 257 304
#     4   9  18  32  52  76 102 130 165 209 251 294
#     4   9  18  33  55  80 102 130 169 209 250 300
#     4  10  20  35  54  76 102 135 172 211 254 299
#     4   9  19  35  53  75 104 135 166 205 256 307
#     4  10  19  34  53  73 101 136 168 205 252 298
#
# _framework density 17.822136
#
# number of rings (size 3 to 8) (size 9 to 14) (size 15 to 20)
#    0.000    2.500    1.667    0.000    2.333    1.667 
#    0.000    5.000    0.000    0.000    0.000    4.667 
#    0.000    0.000    0.000    0.000    0.000    0.000 
#
# Total GULP energy -595148.955696 kJ/mol
# GULP energy per Si atom -12398.936577 kJ/mol
# Density = 1.778157 g / cm^3
# Si number density = 17.822136 Si / 1000 Ang^3
#
#
#
# Elastic Constant Matrix: (Units=GPa)
#
#
# Indices 1 2 3 4 5 6 
#
# 1 39.4285 49.0697 42.7396 0.0000 0.0000 0.0000
# 2 49.0697 157.1216 88.9304 0.0000 0.0000 0.0000
# 3 42.7396 88.9304 119.1141 0.0000 0.0000 0.0000
# 4 0.0000 0.0000 0.0000 40.2200 0.0000 0.0000
# 5 0.0000 0.0000 0.0000 0.0000 25.7750 0.0000
# 6 0.0000 0.0000 0.0000 0.0000 0.0000 26.8819
#
#
#
# Elastic Compliance Matrix: (Units=1/GPa)
#
#
# Indices 1 2 3 4 5 6 
#
# 1 0.047968 -0.009073 -0.010438 0.000000 0.000000 0.000000
# 2 -0.009073 0.012738 -0.006255 0.000000 0.000000 0.000000
# 3 -0.010438 -0.006255 0.016810 0.000000 0.000000 0.000000
# 4 0.000000 0.000000 0.000000 0.024863 0.000000 0.000000
# 5 0.000000 0.000000 0.000000 0.000000 0.038797 0.000000
# 6 0.000000 0.000000 0.000000 0.000000 0.000000 0.037200
#
#
# Mechanical properties :
#
#
# Convention : Reuss Voigt Hill
#
# Bulk Modulus (GPa) = 38.48273 75.23818 56.86045
# Shear Modulus (GPa) = 20.95823 27.57035 24.26429
#
# Velocity S-wave (km/s) = 3.43296 3.93742 3.69381
# Velocity P-wave (km/s) = 6.11172 7.93592 7.08280
#
# Compressibility (1/GPa) = 0.02598568
#
# Stress axis : x y z
#
# Youngs Moduli (GPa) = 20.84722 78.50370 59.48710
#
# Poissons Ratio (x) = 0.71226 0.62091
# Poissons Ratio (y) = 0.18914 0.37209
# Poissons Ratio (z) = 0.21760 0.49103
#
# Static dielectric constant tensor:
#      x y z
#    x 3.128200 0.000000 0.000000 
#    y 0.000000 3.447120 0.000000 
#    z 0.000000 0.000000 3.358890 
# 
# 
# High freq. dielectric constant tensor:
#      x y z
#    x 1.665200 0.000000 0.000000 
#    y 0.000000 1.699850 0.000000 
#    z 0.000000 0.000000 1.697200 
# 
# From -- ./inp_files/61486.got.cif
#   From: 2010.03.12/outbox.cif.g09.slc.cpg/sg63_31_cif.got.tgz:61486.got - 2010.04.10 19:34:48.
