data_PCOD8257778
_publ_section_title
;
Structure prediction by ZEFSAII (Michael W. Deem and Ramdas Pophale) SiO2 
 PCOD8257778
Probable space group: C M C M
;
_chemical_formula_sum "Si O2"
_cell_formula_units_Z 96
_cell_length_a 18.211083
_cell_length_b 28.554688
_cell_length_c 9.530127
_cell_angle_alpha 90.000000
_cell_angle_beta 90.000000
_cell_angle_gamma 90.000000
_cell_volume 4955.778431
_symmetry_space_group_name_H-M "C M C M"
_symmetry_group_IT_number 63
_symmetry_cell_setting 'orthorhombic'
loop_
_space_group_symop_operation_xyz
x,y,z
-x,-y,1/2+z
x,-y,-z
-x,y,1/2-z
-x,-y,-z
x,y,1/2-z
-x,y,z
x,-y,1/2+z
1/2+x,1/2+y,z
1/2-x,1/2-y,1/2+z
1/2+x,1/2-y,-z
1/2-x,1/2+y,1/2-z
1/2-x,1/2-y,-z
1/2+x,1/2+y,1/2-z
1/2-x,1/2+y,z
1/2+x,1/2-y,1/2+z
loop_
_atom_site_type_symbol
_atom_site_label
_atom_site_fract_x
_atom_site_fract_y
_atom_site_fract_z
Si Si1 0.418842 0.628311 0.093742
Si Si2 0.788198 0.544111 0.591190
Si Si3 0.114057 0.957206 0.090670
Si Si4 0.828121 0.193167 0.592243
Si Si5 0.583284 0.786098 0.591378
Si Si6 0.172685 0.648220 0.588868
O O1 0.392193 0.612455 0.250000
O O2 0.500000 0.649835 0.103707
O O3 0.421031 0.587098 0.982429
O O4 0.365919 0.667487 0.035907
O O5 0.818079 0.500000 0.500000
O O6 0.815777 0.536131 0.750000
O O7 0.701078 0.545969 0.586072
O O8 0.813685 0.595002 0.533165
O O9 0.085430 0.961287 0.250000
O O10 0.084136 0.000000 0.000000
O O11 0.850888 0.175520 0.750000
O O12 0.854211 0.246442 0.573723
O O13 0.741952 0.183368 0.571543
O O14 0.584160 0.804320 0.750000
O O15 0.500000 0.768929 0.552660
O O16 0.604785 0.830140 0.495473
O O17 0.149534 0.645262 0.750000
#
# Coordination Sequence:
#
# PCOD8257778 Si02
#       6
#    16  16  16  16  16  16
#     4  11  23  35  49  74 107 144 189 235 280 333
#     4   9  18  33  54  83 113 141 179 226 277 333
#     4  10  19  34  53  73 102 140 183 232 283 336
#     4  10  20  38  59  80 110 148 189 233 278 330
#     4  10  22  38  57  84 116 151 190 229 279 340
#     4  10  20  36  59  87 115 145 187 232 278 334
#
# _framework density 19.371326
#
# number of rings (size 3 to 8) (size 9 to 14) (size 15 to 20)
#    0.000    2.000    1.667    2.000    0.000    5.333 
#    0.000    0.000    0.000    0.500    0.000    0.000 
#    0.000    0.000    0.000    0.000    0.000    0.000 
#
# Total GULP energy -594857.560837 kJ/mol
# GULP energy per Si atom -12392.865851 kJ/mol
# Density = 1.932724 g / cm^3
# Si number density = 19.371326 Si / 1000 Ang^3
#
#
#
# Elastic Constant Matrix: (Units=GPa)
#
#
# Indices 1 2 3 4 5 6 
#
# 1 48.7964 38.9341 33.2918 0.0000 0.0000 0.0000
# 2 38.9341 100.9501 49.6826 0.0000 0.0000 0.0000
# 3 33.2918 49.6826 121.5048 0.0000 0.0000 0.0000
# 4 0.0000 0.0000 0.0000 39.7572 0.0000 0.0000
# 5 0.0000 0.0000 0.0000 0.0000 25.2683 0.0000
# 6 0.0000 0.0000 0.0000 0.0000 0.0000 36.0489
#
#
#
# Elastic Compliance Matrix: (Units=1/GPa)
#
#
# Indices 1 2 3 4 5 6 
#
# 1 0.031523 -0.009899 -0.004590 0.000000 0.000000 0.000000
# 2 -0.009899 0.015510 -0.003630 0.000000 0.000000 0.000000
# 3 -0.004590 -0.003630 0.010972 0.000000 0.000000 0.000000
# 4 0.000000 0.000000 0.000000 0.025153 0.000000 0.000000
# 5 0.000000 0.000000 0.000000 0.000000 0.039575 0.000000
# 6 0.000000 0.000000 0.000000 0.000000 0.000000 0.027740
#
#
# Mechanical properties :
#
#
# Convention : Reuss Voigt Hill
#
# Bulk Modulus (GPa) = 45.93816 57.22983 51.58400
# Shear Modulus (GPa) = 25.77784 30.17105 27.97444
#
# Velocity S-wave (km/s) = 3.65186 3.95081 3.80428
# Velocity P-wave (km/s) = 6.44573 7.10068 6.78112
#
# Compressibility (1/GPa) = 0.02176840
#
# Stress axis : x y z
#
# Youngs Moduli (GPa) = 31.72310 64.47450 91.14274
#
# Poissons Ratio (x) = 0.63822 0.41830
# Poissons Ratio (y) = 0.31402 0.33082
# Poissons Ratio (z) = 0.14559 0.23402
#
# Static dielectric constant tensor:
#      x y z
#    x 3.256080 0.000000 0.000000 
#    y 0.000000 3.722320 0.000000 
#    z 0.000000 0.000000 4.873730 
# 
# 
# High freq. dielectric constant tensor:
#      x y z
#    x 1.724720 0.000000 0.000000 
#    y 0.000000 1.748080 0.000000 
#    z 0.000000 0.000000 1.762750 
# 
# From -- ./inp_files/8529.got.cif
#   From: 2010.03.12/outbox.cif.g09.slc.cpg/sg63_5_cif.got.tgz:8529.got - 2010.04.10 19:34:48.
