data_PCOD8257615
_publ_section_title
;
Structure prediction by ZEFSAII (Michael W. Deem and Ramdas Pophale) SiO2 
 PCOD8257615
Probable space group: C M C M
;
_chemical_formula_sum "Si O2"
_cell_formula_units_Z 96
_cell_length_a 13.582730
_cell_length_b 22.879278
_cell_length_c 17.950646
_cell_angle_alpha 90.000000
_cell_angle_beta 90.000000
_cell_angle_gamma 90.000000
_cell_volume 5578.397602
_symmetry_space_group_name_H-M "C M C M"
_symmetry_group_IT_number 63
_symmetry_cell_setting 'orthorhombic'
loop_
_space_group_symop_operation_xyz
x,y,z
-x,-y,1/2+z
x,-y,-z
-x,y,1/2-z
-x,-y,-z
x,y,1/2-z
-x,y,z
x,-y,1/2+z
1/2+x,1/2+y,z
1/2-x,1/2-y,1/2+z
1/2+x,1/2-y,-z
1/2-x,1/2+y,1/2-z
1/2-x,1/2-y,-z
1/2+x,1/2+y,1/2-z
1/2-x,1/2+y,z
1/2+x,1/2-y,1/2+z
loop_
_atom_site_type_symbol
_atom_site_label
_atom_site_fract_x
_atom_site_fract_y
_atom_site_fract_z
Si Si1 0.112989 0.088254 0.835038
Si Si2 0.112903 0.312253 0.585103
Si Si3 0.785391 0.207638 0.664717
Si Si4 0.282080 0.030089 0.920976
Si Si5 0.613143 0.070215 0.163244
Si Si6 0.387712 0.848621 0.081020
O O1 0.138095 0.070699 0.750000
O O2 0.135236 0.156547 0.847003
O O3 0.175782 0.049443 0.891477
O O4 0.000000 0.076520 0.854250
O O5 0.183110 0.261306 0.613666
O O6 0.151388 0.372727 0.620067
O O7 0.122965 0.314734 0.496561
O O8 0.000000 0.300665 0.609805
O O9 0.781223 0.228441 0.750000
O O10 0.677594 0.184585 0.642031
O O11 0.355457 0.084447 0.929041
O O12 0.325521 0.985690 0.861098
O O13 0.267659 0.000000 0.000000
O O14 0.628737 0.081281 0.250000
O O15 0.500000 0.058237 0.142667
O O16 0.500000 0.847740 0.109209
#
# Coordination Sequence:
#
# PCOD8257615 Si02
#       6
#    16  16  16  16  16  16
#     4   9  19  35  53  74 100 131 170 216 261 304
#     4  10  19  33  54  78 104 135 173 217 264 309
#     4  10  20  34  54  78 103 133 171 216 264 311
#     4  11  20  33  53  76 106 140 173 212 259 309
#     4  10  20  32  50  78 107 137 175 215 256 306
#     4  10  21  35  53  77 107 141 175 212 258 312
#
# _framework density 17.209244000000002
#
# number of rings (size 3 to 8) (size 9 to 14) (size 15 to 20)
#    0.000    2.000    1.667    2.500    0.000    3.667 
#    0.000    0.000    0.000    1.000    0.000    0.000 
#    0.000    0.000    0.000    0.000    0.000    0.000 
#
# Total GULP energy -595393.497742 kJ/mol
# GULP energy per Si atom -12404.031203 kJ/mol
# Density = 1.717007 g / cm^3
# Si number density = 17.209244 Si / 1000 Ang^3
#
#
#
# Elastic Constant Matrix: (Units=GPa)
#
#
# Indices 1 2 3 4 5 6 
#
# 1 84.7046 36.8715 17.8086 0.0000 0.0000 0.0000
# 2 36.8715 79.2911 14.8209 0.0000 0.0000 0.0000
# 3 17.8086 14.8209 39.8178 0.0000 0.0000 0.0000
# 4 0.0000 0.0000 0.0000 25.8745 0.0000 0.0000
# 5 0.0000 0.0000 0.0000 0.0000 26.0443 0.0000
# 6 0.0000 0.0000 0.0000 0.0000 0.0000 20.5238
#
#
#
# Elastic Compliance Matrix: (Units=1/GPa)
#
#
# Indices 1 2 3 4 5 6 
#
# 1 0.015542 -0.006371 -0.004580 0.000000 0.000000 0.000000
# 2 -0.006371 0.016167 -0.003168 0.000000 0.000000 0.000000
# 3 -0.004580 -0.003168 0.028342 0.000000 0.000000 0.000000
# 4 0.000000 0.000000 0.000000 0.038648 0.000000 0.000000
# 5 0.000000 0.000000 0.000000 0.000000 0.038396 0.000000
# 6 0.000000 0.000000 0.000000 0.000000 0.000000 0.048724
#
#
# Mechanical properties :
#
#
# Convention : Reuss Voigt Hill
#
# Bulk Modulus (GPa) = 31.43402 38.09060 34.76231
# Shear Modulus (GPa) = 22.25582 23.44270 22.84926
#
# Velocity S-wave (km/s) = 3.60008 3.69482 3.64776
# Velocity P-wave (km/s) = 5.96541 6.35485 6.16321
#
# Compressibility (1/GPa) = 0.03181266
#
# Stress axis : x y z
#
# Youngs Moduli (GPa) = 64.34207 61.85596 35.28357
#
# Poissons Ratio (x) = 0.39410 0.16159
# Poissons Ratio (y) = 0.40994 0.11178
# Poissons Ratio (z) = 0.29467 0.19596
#
# Static dielectric constant tensor:
#      x y z
#    x 3.118760 0.000000 0.000000 
#    y 0.000000 3.181180 0.000000 
#    z 0.000000 0.000000 3.200170 
# 
# 
# High freq. dielectric constant tensor:
#      x y z
#    x 1.656120 0.000000 0.000000 
#    y 0.000000 1.665150 0.000000 
#    z 0.000000 0.000000 1.672450 
# 
# From -- ./inp_files/31867.got.cif
#   From: 2010.03.12/outbox.cif.g09.slc.cpg/sg63_16_cif.got.tgz:31867.got - 2010.04.10 19:34:48.
