data_PCOD8257554
_publ_section_title
;
Structure prediction by ZEFSAII (Michael W. Deem and Ramdas Pophale) SiO2 
 PCOD8257554
Probable space group: C M C M
;
_chemical_formula_sum "Si O2"
_cell_formula_units_Z 104
_cell_length_a 20.973809
_cell_length_b 28.196002
_cell_length_c 9.540068
_cell_angle_alpha 90.000000
_cell_angle_beta 90.000000
_cell_angle_gamma 90.000000
_cell_volume 5641.782141
_symmetry_space_group_name_H-M "C M C M"
_symmetry_group_IT_number 63
_symmetry_cell_setting 'orthorhombic'
loop_
_space_group_symop_operation_xyz
x,y,z
-x,-y,1/2+z
x,-y,-z
-x,y,1/2-z
-x,-y,-z
x,y,1/2-z
-x,y,z
x,-y,1/2+z
1/2+x,1/2+y,z
1/2-x,1/2-y,1/2+z
1/2+x,1/2-y,-z
1/2-x,1/2+y,1/2-z
1/2-x,1/2-y,-z
1/2+x,1/2+y,1/2-z
1/2-x,1/2+y,z
1/2+x,1/2-y,1/2+z
loop_
_atom_site_type_symbol
_atom_site_label
_atom_site_fract_x
_atom_site_fract_y
_atom_site_fract_z
Si Si1 0.000000 0.453694 0.910269
Si Si2 0.925650 0.312877 0.413731
Si Si3 0.573159 0.459819 0.403994
Si Si4 0.369376 0.612634 0.412147
Si Si5 0.570363 0.707844 0.085551
Si Si6 0.124824 0.395381 0.913014
Si Si7 0.750461 0.548104 0.413659
O O1 0.938579 0.423640 0.948781
O O2 0.000000 0.469570 0.750000
O O3 0.000000 0.500000 0.000000
O O4 0.910705 0.319258 0.250000
O O5 0.909124 0.259764 0.469507
O O6 0.878189 0.347054 0.498781
O O7 0.000000 0.324001 0.444736
O O8 0.607478 0.500000 0.500000
O O9 0.606177 0.458224 0.250000
O O10 0.500000 0.473098 0.382771
O O11 0.578503 0.410688 0.486133
O O12 0.388170 0.603868 0.250000
O O13 0.375018 0.668660 0.449444
O O14 0.301360 0.589215 0.446907
O O15 0.562493 0.713165 0.250000
O O16 0.500000 0.693618 0.024894
O O17 0.130898 0.381921 0.750000
O O18 0.183191 0.428487 0.961039
O O19 0.737917 0.500000 0.500000
O O20 0.750552 0.534664 0.250000
#
# Coordination Sequence:
#
# PCOD8257554 Si02
#       7
#     8  16  16  16  16  16  16
#     4  10  20  32  50  74 100 130 164 206 257 310
#     4   9  17  31  53  80 104 130 168 211 254 305
#     4  10  20  32  47  70  99 129 166 214 263 311
#     4  10  19  33  53  74  99 136 175 213 257 301
#     4   8  15  29  51  78 105 132 168 212 255 303
#     4  10  20  35  52  74 104 136 169 208 261 315
#     4  10  22  37  53  74 102 137 176 215 256 308
#
# _framework density 18.433892
#
# number of rings (size 3 to 8) (size 9 to 14) (size 15 to 20)
#    0.000    2.462    0.769    2.769    0.000    4.615 
#    0.000    1.538    0.000    0.923    0.000    0.000 
#    0.000    0.000    0.000    0.000    0.000    0.000 
#
# Total GULP energy -644466.507547 kJ/mol
# GULP energy per Si atom -12393.586684 kJ/mol
# Density = 1.839194 g / cm^3
# Si number density = 18.433892 Si / 1000 Ang^3
#
#
#
# Elastic Constant Matrix: (Units=GPa)
#
#
# Indices 1 2 3 4 5 6 
#
# 1 81.9591 55.1788 28.5873 0.0000 0.0000 0.0000
# 2 55.1788 145.9766 58.7874 0.0000 0.0000 0.0000
# 3 28.5873 58.7874 74.4463 0.0000 0.0000 0.0000
# 4 0.0000 0.0000 0.0000 30.0484 0.0000 0.0000
# 5 0.0000 0.0000 0.0000 0.0000 15.9418 0.0000
# 6 0.0000 0.0000 0.0000 0.0000 0.0000 133.0187
#
#
#
# Elastic Compliance Matrix: (Units=1/GPa)
#
#
# Indices 1 2 3 4 5 6 
#
# 1 0.016583 -0.005431 -0.002079 0.000000 0.000000 0.000000
# 2 -0.005431 0.011823 -0.007251 0.000000 0.000000 0.000000
# 3 -0.002079 -0.007251 0.019957 0.000000 0.000000 0.000000
# 4 0.000000 0.000000 0.000000 0.033280 0.000000 0.000000
# 5 0.000000 0.000000 0.000000 0.000000 0.062728 0.000000
# 6 0.000000 0.000000 0.000000 0.000000 0.000000 0.007518
#
#
# Mechanical properties :
#
#
# Convention : Reuss Voigt Hill
#
# Bulk Modulus (GPa) = 53.07661 65.27655 59.17658
# Shear Modulus (GPa) = 26.63953 46.45700 36.54826
#
# Velocity S-wave (km/s) = 3.80562 5.02560 4.45755
# Velocity P-wave (km/s) = 6.94016 8.31646 7.65929
#
# Compressibility (1/GPa) = 0.01884069
#
# Stress axis : x y z
#
# Youngs Moduli (GPa) = 60.30346 84.57802 50.10834
#
# Poissons Ratio (x) = 0.45934 0.10418
# Poissons Ratio (y) = 0.32750 0.36334
# Poissons Ratio (z) = 0.12538 0.61328
#
# Static dielectric constant tensor:
#      x y z
#    x 3.279150 0.000000 0.000000 
#    y 0.000000 3.548210 0.000000 
#    z 0.000000 0.000000 3.360630 
# 
# 
# High freq. dielectric constant tensor:
#      x y z
#    x 1.697720 0.000000 0.000000 
#    y 0.000000 1.719840 0.000000 
#    z 0.000000 0.000000 1.699200 
# 
# From -- ./inp_files/8753.got.cif
#   From: 2010.03.12/outbox.cif.g09.slc.cpg/sg63_5_cif.got.tgz:8753.got - 2010.04.10 19:34:48.
