data_PCOD8257754
_publ_section_title
;
Structure prediction by ZEFSAII (Michael W. Deem and Ramdas Pophale) SiO2 
 PCOD8257754
Probable space group: C M C M
;
_chemical_formula_sum "Si O2"
_cell_formula_units_Z 112
_cell_length_a 28.745826
_cell_length_b 10.970433
_cell_length_c 17.244020
_cell_angle_alpha 90.000000
_cell_angle_beta 90.000000
_cell_angle_gamma 90.000000
_cell_volume 5437.973410
_symmetry_space_group_name_H-M "C M C M"
_symmetry_group_IT_number 63
_symmetry_cell_setting 'orthorhombic'
loop_
_space_group_symop_operation_xyz
x,y,z
-x,-y,1/2+z
x,-y,-z
-x,y,1/2-z
-x,-y,-z
x,y,1/2-z
-x,y,z
x,-y,1/2+z
1/2+x,1/2+y,z
1/2-x,1/2-y,1/2+z
1/2+x,1/2-y,-z
1/2-x,1/2+y,1/2-z
1/2-x,1/2-y,-z
1/2+x,1/2+y,1/2-z
1/2-x,1/2+y,z
1/2+x,1/2-y,1/2+z
loop_
_atom_site_type_symbol
_atom_site_label
_atom_site_fract_x
_atom_site_fract_y
_atom_site_fract_z
Si Si1 0.210816 0.533690 0.161490
Si Si2 0.890185 0.211873 0.339171
Si Si3 0.448011 0.523547 0.082686
Si Si4 0.317394 0.502603 0.161648
Si Si5 0.848127 0.747282 0.099280
Si Si6 0.552527 0.728261 0.659281
Si Si7 0.851308 0.610693 0.949824
O O1 0.202757 0.488152 0.250000
O O2 0.265186 0.542781 0.142632
O O3 0.185692 0.664536 0.152279
O O4 0.192827 0.436446 0.098868
O O5 0.896805 0.245828 0.250000
O O6 0.886828 0.338223 0.386153
O O7 0.934538 0.145225 0.373006
O O8 0.846363 0.124211 0.355010
O O9 0.500000 0.548630 0.058303
O O10 0.441896 0.414748 0.143424
O O11 0.421103 0.500000 0.000000
O O12 0.323277 0.459850 0.250000
O O13 0.336644 0.389658 0.111201
O O14 0.902694 0.711240 0.116803
O O15 0.837275 0.718019 0.009339
O O16 0.557380 0.753325 0.750000
O O17 0.500000 0.771262 0.631179
O O18 0.873552 0.500000 0.000000
#
# Coordination Sequence:
#
# PCOD8257754 Si02
#       7
#    16  16  16  16  16  16  16
#     4  10  22  40  60  83 119 163 207 255 301 364
#     4  11  22  38  61  89 122 161 203 253 308 373
#     4  10  20  34  55  90 129 160 191 240 312 378
#     4  10  22  36  58  92 121 157 201 247 313 372
#     4  11  21  39  60  87 126 157 199 255 313 367
#     4  10  19  33  58  90 121 155 196 245 306 374
#     4  10  24  42  58  84 115 160 212 251 305 359
#
# _framework density 20.595908999999999
#
# number of rings (size 3 to 8) (size 9 to 14) (size 15 to 20)
#    0.000    1.714    1.429    3.000    2.000    1.429 
#    5.143    0.000    0.000    7.714    0.000    0.000 
#    0.000    0.000    0.000    0.000    0.000    0.000 
#
# Total GULP energy -693973.132206 kJ/mol
# GULP energy per Si atom -12392.377361 kJ/mol
# Density = 2.054903 g / cm^3
# Si number density = 20.595909 Si / 1000 Ang^3
#
#
#
# Elastic Constant Matrix: (Units=GPa)
#
#
# Indices 1 2 3 4 5 6 
#
# 1 92.9785 24.2378 26.5644 0.0000 0.0000 0.0000
# 2 24.2378 65.9471 44.4705 0.0000 0.0000 0.0000
# 3 26.5644 44.4705 128.9366 0.0000 0.0000 0.0000
# 4 0.0000 0.0000 0.0000 43.9757 0.0000 0.0000
# 5 0.0000 0.0000 0.0000 0.0000 19.7791 0.0000
# 6 0.0000 0.0000 0.0000 0.0000 0.0000 26.2768
#
#
#
# Elastic Compliance Matrix: (Units=1/GPa)
#
#
# Indices 1 2 3 4 5 6 
#
# 1 0.012046 -0.003588 -0.001244 0.000000 0.000000 0.000000
# 2 -0.003588 0.020828 -0.006444 0.000000 0.000000 0.000000
# 3 -0.001244 -0.006444 0.010235 0.000000 0.000000 0.000000
# 4 0.000000 0.000000 0.000000 0.022740 0.000000 0.000000
# 5 0.000000 0.000000 0.000000 0.000000 0.050558 0.000000
# 6 0.000000 0.000000 0.000000 0.000000 0.000000 0.038056
#
#
# Mechanical properties :
#
#
# Convention : Reuss Voigt Hill
#
# Bulk Modulus (GPa) = 48.64952 53.15640 50.90296
# Shear Modulus (GPa) = 27.19324 30.84562 29.01943
#
# Velocity S-wave (km/s) = 3.63757 3.87416 3.75772
# Velocity P-wave (km/s) = 6.42766 6.77328 6.60273
#
# Compressibility (1/GPa) = 0.02055519
#
# Stress axis : x y z
#
# Youngs Moduli (GPa) = 83.01469 48.01182 97.70609
#
# Poissons Ratio (x) = 0.17228 0.12156
# Poissons Ratio (y) = 0.29788 0.62966
# Poissons Ratio (z) = 0.10329 0.30941
#
# Static dielectric constant tensor:
#      x y z
#    x 3.855520 0.000000 0.000000 
#    y 0.000000 3.411740 0.000000 
#    z 0.000000 0.000000 3.982510 
# 
# 
# High freq. dielectric constant tensor:
#      x y z
#    x 1.798280 0.000000 0.000000 
#    y 0.000000 1.783360 0.000000 
#    z 0.000000 0.000000 1.822890 
# 
# From -- ./inp_files/38513.got.cif
#   From: 2010.03.12/outbox.cif.g09.slc.cpg/sg63_20_cif.got.tgz:38513.got - 2010.04.10 19:34:48.
