data_PCOD8257718
_publ_section_title
;
Structure prediction by ZEFSAII (Michael W. Deem and Ramdas Pophale) SiO2 
 PCOD8257718
Probable space group: C M C M
;
_chemical_formula_sum "Si O2"
_cell_formula_units_Z 96
_cell_length_a 27.941682
_cell_length_b 19.932449
_cell_length_c 9.328291
_cell_angle_alpha 90.000000
_cell_angle_beta 90.000000
_cell_angle_gamma 90.000000
_cell_volume 5195.355772
_symmetry_space_group_name_H-M "C M C M"
_symmetry_group_IT_number 63
_symmetry_cell_setting 'orthorhombic'
loop_
_space_group_symop_operation_xyz
x,y,z
-x,-y,1/2+z
x,-y,-z
-x,y,1/2-z
-x,-y,-z
x,y,1/2-z
-x,y,z
x,-y,1/2+z
1/2+x,1/2+y,z
1/2-x,1/2-y,1/2+z
1/2+x,1/2-y,-z
1/2-x,1/2+y,1/2-z
1/2-x,1/2-y,-z
1/2+x,1/2+y,1/2-z
1/2-x,1/2+y,z
1/2+x,1/2-y,1/2+z
loop_
_atom_site_type_symbol
_atom_site_label
_atom_site_fract_x
_atom_site_fract_y
_atom_site_fract_z
Si Si1 0.556297 0.330108 0.584376
Si Si2 0.207345 0.165403 0.915980
Si Si3 0.945095 0.559034 0.093166
Si Si4 0.623998 0.570053 0.920276
Si Si5 0.809431 0.703739 0.912973
Si Si6 0.914775 0.320047 0.086570
O O1 0.569790 0.344995 0.750000
O O2 0.500000 0.338054 0.558838
O O3 0.582851 0.381430 0.479734
O O4 0.572788 0.255539 0.541550
O O5 0.200285 0.180367 0.750000
O O6 0.176599 0.100020 0.958320
O O7 0.263831 0.157003 0.955961
O O8 0.186466 0.229600 0.994842
O O9 0.920202 0.562689 0.250000
O O10 0.000000 0.539794 0.114848
O O11 0.919935 0.500000 0.000000
O O12 0.943008 0.630446 0.015923
O O13 0.616946 0.560662 0.750000
O O14 0.619352 0.500000 0.000000
O O15 0.803871 0.728188 0.750000
O O16 0.858456 0.663174 0.933488
O O17 0.931130 0.332699 0.250000
#
# Coordination Sequence:
#
# PCOD8257718 Si02
#       6
#    16  16  16  16  16  16
#     4  10  21  37  57  82 111 144 186 232 279 332
#     4   9  18  33  53  80 108 137 174 218 264 317
#     4  10  21  36  54  76 105 143 184 224 268 321
#     4  11  23  38  57  79 109 147 188 233 281 334
#     4   9  17  31  55  82 109 138 171 214 264 318
#     4  10  19  33  56  84 113 145 178 220 269 324
#
# _framework density 18.478041000000001
#
# number of rings (size 3 to 8) (size 9 to 14) (size 15 to 20)
#    0.000    2.167    1.667    1.500    0.000    4.333 
#    0.000    0.833    0.000    2.000    0.000    0.000 
#    0.000    0.000    0.000    0.000    0.000    0.000 
#
# Total GULP energy -595057.216058 kJ/mol
# GULP energy per Si atom -12397.025335 kJ/mol
# Density = 1.843598 g / cm^3
# Si number density = 18.478041 Si / 1000 Ang^3
#
#
#
# Elastic Constant Matrix: (Units=GPa)
#
#
# Indices 1 2 3 4 5 6 
#
# 1 73.8004 43.4067 37.9300 0.0000 0.0000 0.0000
# 2 43.4067 122.5133 70.7067 0.0000 0.0000 0.0000
# 3 37.9300 70.7067 97.4991 0.0000 0.0000 0.0000
# 4 0.0000 0.0000 0.0000 31.6495 0.0000 0.0000
# 5 0.0000 0.0000 0.0000 0.0000 24.6218 0.0000
# 6 0.0000 0.0000 0.0000 0.0000 0.0000 24.7942
#
#
#
# Elastic Compliance Matrix: (Units=1/GPa)
#
#
# Indices 1 2 3 4 5 6 
#
# 1 0.018019 -0.004022 -0.004093 0.000000 0.000000 0.000000
# 2 -0.004022 0.014935 -0.009267 0.000000 0.000000 0.000000
# 3 -0.004093 -0.009267 0.018569 0.000000 0.000000 0.000000
# 4 0.000000 0.000000 0.000000 0.031596 0.000000 0.000000
# 5 0.000000 0.000000 0.000000 0.000000 0.040614 0.000000
# 6 0.000000 0.000000 0.000000 0.000000 0.000000 0.040332
#
#
# Mechanical properties :
#
#
# Convention : Reuss Voigt Hill
#
# Bulk Modulus (GPa) = 59.66509 66.43327 63.04918
# Shear Modulus (GPa) = 24.45983 25.66439 25.06211
#
# Velocity S-wave (km/s) = 3.64225 3.73086 3.68682
# Velocity P-wave (km/s) = 7.07445 7.38848 7.23317
#
# Compressibility (1/GPa) = 0.01676022
#
# Stress axis : x y z
#
# Youngs Moduli (GPa) = 55.49579 66.95507 53.85293
#
# Poissons Ratio (x) = 0.26928 0.22044
# Poissons Ratio (y) = 0.22320 0.49903
# Poissons Ratio (z) = 0.22717 0.62044
#
# Static dielectric constant tensor:
#      x y z
#    x 3.602680 0.000000 0.000000 
#    y 0.000000 3.176460 0.000000 
#    z 0.000000 0.000000 3.565360 
# 
# 
# High freq. dielectric constant tensor:
#      x y z
#    x 1.718160 0.000000 0.000000 
#    y 0.000000 1.697430 0.000000 
#    z 0.000000 0.000000 1.723410 
# 
# From -- ./inp_files/12414.got.cif
#   From: 2010.03.12/outbox.cif.g09.slc.cpg/sg63_7_cif.got.tgz:12414.got - 2010.04.10 19:34:48.
