data_PCOD8257340
_publ_section_title
;
Structure prediction by ZEFSAII (Michael W. Deem and Ramdas Pophale) SiO2 
 PCOD8257340
Probable space group: C M C M
;
_chemical_formula_sum "Si O2"
_cell_formula_units_Z 104
_cell_length_a 27.578993
_cell_length_b 22.783089
_cell_length_c 9.362780
_cell_angle_alpha 90.000000
_cell_angle_beta 90.000000
_cell_angle_gamma 90.000000
_cell_volume 5882.959114
_symmetry_space_group_name_H-M "C M C M"
_symmetry_group_IT_number 63
_symmetry_cell_setting 'orthorhombic'
loop_
_space_group_symop_operation_xyz
x,y,z
-x,-y,1/2+z
x,-y,-z
-x,y,1/2-z
-x,-y,-z
x,y,1/2-z
-x,y,z
x,-y,1/2+z
1/2+x,1/2+y,z
1/2-x,1/2-y,1/2+z
1/2+x,1/2-y,-z
1/2-x,1/2+y,1/2-z
1/2-x,1/2-y,-z
1/2+x,1/2+y,1/2-z
1/2-x,1/2+y,z
1/2+x,1/2-y,1/2+z
loop_
_atom_site_type_symbol
_atom_site_label
_atom_site_fract_x
_atom_site_fract_y
_atom_site_fract_z
Si Si1 0.201977 0.260271 0.589052
Si Si2 0.945520 0.441211 0.915604
Si Si3 0.000000 0.942510 0.589380
Si Si4 0.269243 0.056858 0.583424
Si Si5 0.849204 0.621586 0.417204
Si Si6 0.104108 0.060395 0.084624
Si Si7 0.823407 0.131195 0.908365
O O1 0.218887 0.273677 0.750000
O O2 0.250000 0.250000 0.500000
O O3 0.167063 0.312899 0.534503
O O4 0.171159 0.200900 0.580926
O O5 0.943168 0.458003 0.750000
O O6 0.906317 0.389809 0.950137
O O7 0.000000 0.419173 0.956764
O O8 0.931809 0.500000 0.000000
O O9 0.949198 0.909081 0.559804
O O10 0.000000 0.965429 0.750000
O O11 0.000000 0.000000 0.500000
O O12 0.277631 0.042108 0.750000
O O13 0.319566 0.074836 0.510427
O O14 0.231547 0.110206 0.563166
O O15 0.248547 0.000000 0.500000
O O16 0.838237 0.611352 0.250000
O O17 0.114310 0.047277 0.250000
O O18 0.142577 0.106431 0.030074
O O19 0.109342 0.000000 0.000000
O O20 0.839470 0.109806 0.750000
#
# Coordination Sequence:
#
# PCOD8257340 Si02
#       7
#    16  16   8  16  16  16  16
#     4  10  20  36  55  75 101 134 174 214 252 299
#     4   9  18  33  53  79 108 137 169 210 262 315
#     4   8  16  30  48  72  98 126 162 202 247 300
#     4  11  22  34  49  73 106 138 167 207 254 304
#     4  10  20  34  55  78 102 135 173 214 257 308
#     4  10  19  32  52  76 102 133 167 208 258 308
#     4  10  21  35  50  72 103 135 171 212 252 301
#
# _framework density 17.678177999999999
#
# number of rings (size 3 to 8) (size 9 to 14) (size 15 to 20)
#    0.000    2.154    1.538    1.846    0.000    5.538 
#    0.000    0.000    1.692    0.000    0.000    0.000 
#    0.000    0.000    0.000    0.000    0.000    0.000 
#
# Total GULP energy -644486.842467 kJ/mol
# GULP energy per Si atom -12393.977740 kJ/mol
# Density = 1.763794 g / cm^3
# Si number density = 17.678178 Si / 1000 Ang^3
#
#
#
# Elastic Constant Matrix: (Units=GPa)
#
#
# Indices 1 2 3 4 5 6 
#
# 1 122.6089 48.6782 52.0777 0.0000 0.0000 0.0000
# 2 48.6782 91.9659 35.1440 0.0000 0.0000 0.0000
# 3 52.0777 35.1440 79.5691 0.0000 0.0000 0.0000
# 4 0.0000 0.0000 0.0000 23.8787 0.0000 0.0000
# 5 0.0000 0.0000 0.0000 0.0000 23.6669 0.0000
# 6 0.0000 0.0000 0.0000 0.0000 0.0000 21.7722
#
#
#
# Elastic Compliance Matrix: (Units=1/GPa)
#
#
# Indices 1 2 3 4 5 6 
#
# 1 0.012516 -0.004204 -0.006335 0.000000 0.000000 0.000000
# 2 -0.004204 0.014494 -0.003650 0.000000 0.000000 0.000000
# 3 -0.006335 -0.003650 0.018326 0.000000 0.000000 0.000000
# 4 0.000000 0.000000 0.000000 0.041878 0.000000 0.000000
# 5 0.000000 0.000000 0.000000 0.000000 0.042253 0.000000
# 6 0.000000 0.000000 0.000000 0.000000 0.000000 0.045930
#
#
# Mechanical properties :
#
#
# Convention : Reuss Voigt Hill
#
# Bulk Modulus (GPa) = 58.96983 62.88263 60.92623
# Shear Modulus (GPa) = 23.87469 24.41315 24.14392
#
# Velocity S-wave (km/s) = 3.67893 3.72018 3.69961
# Velocity P-wave (km/s) = 7.17467 7.35534 7.26556
#
# Compressibility (1/GPa) = 0.01695782
#
# Stress axis : x y z
#
# Youngs Moduli (GPa) = 79.89980 68.99605 54.56753
#
# Poissons Ratio (x) = 0.29005 0.34567
# Poissons Ratio (y) = 0.33589 0.19918
# Poissons Ratio (z) = 0.50614 0.25184
#
# Static dielectric constant tensor:
#      x y z
#    x 3.615550 0.000000 0.000000 
#    y 0.000000 3.183770 0.000000 
#    z 0.000000 0.000000 3.373510 
# 
# 
# High freq. dielectric constant tensor:
#      x y z
#    x 1.684710 0.000000 0.000000 
#    y 0.000000 1.661340 0.000000 
#    z 0.000000 0.000000 1.691880 
# 
# From -- ./inp_files/12869.got.cif
#   From: 2010.03.12/outbox.cif.g09.slc.cpg/sg63_7_cif.got.tgz:12869.got - 2010.04.10 19:34:48.
