data_PCOD8257549
_publ_section_title
;
Structure prediction by ZEFSAII (Michael W. Deem and Ramdas Pophale) SiO2 
 PCOD8257549
Probable space group: C M C M
;
_chemical_formula_sum "Si O2"
_cell_formula_units_Z 96
_cell_length_a 20.372829
_cell_length_b 8.280247
_cell_length_c 30.256752
_cell_angle_alpha 90.000000
_cell_angle_beta 90.000000
_cell_angle_gamma 90.000000
_cell_volume 5104.073709
_symmetry_space_group_name_H-M "C M C M"
_symmetry_group_IT_number 63
_symmetry_cell_setting 'orthorhombic'
loop_
_space_group_symop_operation_xyz
x,y,z
-x,-y,1/2+z
x,-y,-z
-x,y,1/2-z
-x,-y,-z
x,y,1/2-z
-x,y,z
x,-y,1/2+z
1/2+x,1/2+y,z
1/2-x,1/2-y,1/2+z
1/2+x,1/2-y,-z
1/2-x,1/2+y,1/2-z
1/2-x,1/2-y,-z
1/2+x,1/2+y,1/2-z
1/2-x,1/2+y,z
1/2+x,1/2-y,1/2+z
loop_
_atom_site_type_symbol
_atom_site_label
_atom_site_fract_x
_atom_site_fract_y
_atom_site_fract_z
Si Si1 0.770717 0.591031 0.645592
Si Si2 0.921901 0.723675 0.961827
Si Si3 0.422949 0.344330 0.358838
Si Si4 0.673744 0.195580 0.301568
Si Si5 0.660785 0.391714 0.893484
Si Si6 0.423007 0.136922 0.440899
O O1 0.725319 0.670781 0.682757
O O2 0.815717 0.467274 0.671642
O O3 0.726310 0.504983 0.606950
O O4 0.820346 0.717307 0.624600
O O5 0.875939 0.863085 0.940469
O O6 0.904120 0.551950 0.938943
O O7 0.000000 0.762821 0.956449
O O8 0.900604 0.716805 0.012994
O O9 0.500000 0.355864 0.358420
O O10 0.398973 0.260526 0.313611
O O11 0.393404 0.524388 0.362096
O O12 0.393290 0.238331 0.400033
O O13 0.680064 0.163792 0.250000
O O14 0.500000 0.151557 0.437932
#
# Coordination Sequence:
#
# PCOD8257549 Si02
#       6
#    16  16  16  16  16  16
#     4   9  20  35  52  77 101 132 175 208 245 292
#     4   9  16  29  53  80 103 131 168 209 255 302
#     4  10  20  33  52  78 105 132 163 206 261 305
#     4  10  19  34  57  77  99 129 164 207 247 299
#     4  10  19  33  53  73 103 136 170 214 250 294
#     4   8  16  30  49  76 105 133 167 206 248 305
#
# _framework density 18.808505
#
# number of rings (size 3 to 8) (size 9 to 14) (size 15 to 20)
#    0.000    2.667    0.000    3.000    0.000    1.000 
#    0.000    4.167    0.000   34.000    0.000    0.000 
#    0.000    0.000    0.000    0.000    0.000    0.000 
#
# Total GULP energy -594797.055907 kJ/mol
# GULP energy per Si atom -12391.605331 kJ/mol
# Density = 1.876570 g / cm^3
# Si number density = 18.808505 Si / 1000 Ang^3
#
#
#
# Elastic Constant Matrix: (Units=GPa)
#
#
# Indices 1 2 3 4 5 6 
#
# 1 74.9046 40.0578 35.7893 0.0000 0.0000 0.0000
# 2 40.0578 80.0838 14.7250 0.0000 0.0000 0.0000
# 3 35.7893 14.7250 50.1741 0.0000 0.0000 0.0000
# 4 0.0000 0.0000 0.0000 14.1871 0.0000 0.0000
# 5 0.0000 0.0000 0.0000 0.0000 26.1171 0.0000
# 6 0.0000 0.0000 0.0000 0.0000 0.0000 30.0566
#
#
#
# Elastic Compliance Matrix: (Units=1/GPa)
#
#
# Indices 1 2 3 4 5 6 
#
# 1 0.026422 -0.010307 -0.015822 0.000000 0.000000 0.000000
# 2 -0.010307 0.017220 0.002298 0.000000 0.000000 0.000000
# 3 -0.015822 0.002298 0.030542 0.000000 0.000000 0.000000
# 4 0.000000 0.000000 0.000000 0.070486 0.000000 0.000000
# 5 0.000000 0.000000 0.000000 0.000000 0.038289 0.000000
# 6 0.000000 0.000000 0.000000 0.000000 0.000000 0.033271
#
#
# Mechanical properties :
#
#
# Convention : Reuss Voigt Hill
#
# Bulk Modulus (GPa) = 37.70381 42.92297 40.31339
# Shear Modulus (GPa) = 18.33299 21.71154 20.02227
#
# Velocity S-wave (km/s) = 3.12543 3.40125 3.26626
# Velocity P-wave (km/s) = 5.75449 6.18832 5.97534
#
# Compressibility (1/GPa) = 0.02652252
#
# Stress axis : x y z
#
# Youngs Moduli (GPa) = 37.84702 58.07231 32.74182
#
# Poissons Ratio (x) = 0.59856 0.51804
# Poissons Ratio (y) = 0.39009 -0.07526
# Poissons Ratio (z) = 0.59882 -0.13348
#
# Static dielectric constant tensor:
#      x y z
#    x 3.335840 0.000000 0.000000 
#    y 0.000000 3.690080 0.000000 
#    z 0.000000 0.000000 3.470770 
# 
# 
# High freq. dielectric constant tensor:
#      x y z
#    x 1.720920 0.000000 0.000000 
#    y 0.000000 1.742050 0.000000 
#    z 0.000000 0.000000 1.708010 
# 
# From -- ./inp_files/70324.got.cif
#   From: 2010.03.12/outbox.cif.g09.slc.cpg/sg63_36_cif.got.tgz:70324.got - 2010.04.10 19:34:48.
