data_PCOD8257186
_publ_section_title
;
Structure prediction by ZEFSAII (Michael W. Deem and Ramdas Pophale) SiO2 
 PCOD8257186
Probable space group: C M C M
;
_chemical_formula_sum "Si O2"
_cell_formula_units_Z 104
_cell_length_a 31.967754
_cell_length_b 19.602030
_cell_length_c 9.588941
_cell_angle_alpha 90.000000
_cell_angle_beta 90.000000
_cell_angle_gamma 90.000000
_cell_volume 6008.745647
_symmetry_space_group_name_H-M "C M C M"
_symmetry_group_IT_number 63
_symmetry_cell_setting 'orthorhombic'
loop_
_space_group_symop_operation_xyz
x,y,z
-x,-y,1/2+z
x,-y,-z
-x,y,1/2-z
-x,-y,-z
x,y,1/2-z
-x,y,z
x,-y,1/2+z
1/2+x,1/2+y,z
1/2-x,1/2-y,1/2+z
1/2+x,1/2-y,-z
1/2-x,1/2+y,1/2-z
1/2-x,1/2-y,-z
1/2+x,1/2+y,1/2-z
1/2-x,1/2+y,z
1/2+x,1/2-y,1/2+z
loop_
_atom_site_type_symbol
_atom_site_label
_atom_site_fract_x
_atom_site_fract_y
_atom_site_fract_z
Si Si1 0.500000 0.570820 0.417272
Si Si2 0.899722 0.694778 0.915948
Si Si3 0.767255 0.155724 0.409193
Si Si4 0.951332 0.435038 0.088276
Si Si5 0.079063 0.842000 0.585485
Si Si6 0.694730 0.197977 0.911605
Si Si7 0.155628 0.933663 0.911983
O O1 0.500000 0.500000 0.500000
O O2 0.500000 0.557609 0.250000
O O3 0.539916 0.614287 0.469163
O O4 0.899648 0.698694 0.750000
O O5 0.926575 0.630697 0.968837
O O6 0.920206 0.764762 0.975801
O O7 0.852081 0.686330 0.968534
O O8 0.752110 0.154441 0.250000
O O9 0.726348 0.148834 0.505122
O O10 0.793234 0.224011 0.440381
O O11 0.797752 0.092920 0.442910
O O12 0.941391 0.449364 0.250000
O O13 0.000000 0.420148 0.064201
O O14 0.936246 0.500000 0.000000
O O15 0.075609 0.837147 0.750000
O O16 0.122203 0.877319 0.540160
O O17 0.698437 0.178698 0.750000
O O18 0.149705 0.951319 0.750000
O O19 0.146491 0.000000 0.000000
#
# Coordination Sequence:
#
# PCOD8257186 Si02
#       7
#     8  16  16  16  16  16  16
#     4  10  20  32  50  72  99 134 166 202 245 288
#     4   9  16  29  51  77  99 123 162 205 240 282
#     4   9  17  30  47  68  94 124 157 197 242 284
#     4   9  18  32  52  76 100 127 158 194 238 291
#     4   9  17  30  49  74  99 126 165 207 243 280
#     4   9  16  29  50  71  93 121 155 198 242 284
#     4  10  19  32  49  69  98 133 166 203 243 283
#
# _framework density 17.308105000000001
#
# number of rings (size 3 to 8) (size 9 to 14) (size 15 to 20)
#    0.000    2.769    1.538    0.462    1.077    0.615 
#    0.000    1.538    0.000    6.462    0.000    0.000 
#    0.000    0.000    0.000    0.000    0.000    0.000 
#
# Total GULP energy -644700.510850 kJ/mol
# GULP energy per Si atom -12398.086747 kJ/mol
# Density = 1.726871 g / cm^3
# Si number density = 17.308105 Si / 1000 Ang^3
#
#
#
# Elastic Constant Matrix: (Units=GPa)
#
#
# Indices 1 2 3 4 5 6 
#
# 1 116.6931 71.7481 37.1765 0.0000 0.0000 0.0000
# 2 71.7481 138.7677 43.2613 0.0000 0.0000 0.0000
# 3 37.1765 43.2613 38.8376 0.0000 0.0000 0.0000
# 4 0.0000 0.0000 0.0000 26.0534 0.0000 0.0000
# 5 0.0000 0.0000 0.0000 0.0000 19.7390 0.0000
# 6 0.0000 0.0000 0.0000 0.0000 0.0000 7.8886
#
#
#
# Elastic Compliance Matrix: (Units=1/GPa)
#
#
# Indices 1 2 3 4 5 6 
#
# 1 0.014095 -0.004721 -0.008234 0.000000 0.000000 0.000000
# 2 -0.004721 0.012621 -0.009540 0.000000 0.000000 0.000000
# 3 -0.008234 -0.009540 0.044256 0.000000 0.000000 0.000000
# 4 0.000000 0.000000 0.000000 0.038383 0.000000 0.000000
# 5 0.000000 0.000000 0.000000 0.000000 0.050661 0.000000
# 6 0.000000 0.000000 0.000000 0.000000 0.000000 0.126766
#
#
# Mechanical properties :
#
#
# Convention : Reuss Voigt Hill
#
# Bulk Modulus (GPa) = 38.48552 66.51889 52.50221
# Shear Modulus (GPa) = 14.68717 20.21035 17.44876
#
# Velocity S-wave (km/s) = 2.91619 3.42084 3.17855
# Velocity P-wave (km/s) = 5.79851 7.35653 6.62349
#
# Compressibility (1/GPa) = 0.02598380
#
# Stress axis : x y z
#
# Youngs Moduli (GPa) = 70.94596 79.23156 22.59555
#
# Poissons Ratio (x) = 0.37404 0.18605
# Poissons Ratio (y) = 0.33492 0.21556
# Poissons Ratio (z) = 0.58416 0.75586
#
# Static dielectric constant tensor:
#      x y z
#    x 3.419350 0.000000 0.000000 
#    y 0.000000 3.271960 0.000000 
#    z 0.000000 0.000000 2.920430 
# 
# 
# High freq. dielectric constant tensor:
#      x y z
#    x 1.676930 0.000000 0.000000 
#    y 0.000000 1.663270 0.000000 
#    z 0.000000 0.000000 1.629800 
# 
# From -- ./inp_files/14508.got.cif
#   From: 2010.03.12/outbox.cif.g09.slc.cpg/sg63_8_cif.got.tgz:14508.got - 2010.04.10 19:34:48.
