data_PCOD8257671
_publ_section_title
;
Structure prediction by ZEFSAII (Michael W. Deem and Ramdas Pophale) SiO2 
 PCOD8257671
Probable space group: C M C M
;
_chemical_formula_sum "Si O2"
_cell_formula_units_Z 80
_cell_length_a 10.576381
_cell_length_b 13.440345
_cell_length_c 26.838147
_cell_angle_alpha 90.000000
_cell_angle_beta 90.000000
_cell_angle_gamma 90.000000
_cell_volume 3815.048218
_symmetry_space_group_name_H-M "C M C M"
_symmetry_group_IT_number 63
_symmetry_cell_setting 'orthorhombic'
loop_
_space_group_symop_operation_xyz
x,y,z
-x,-y,1/2+z
x,-y,-z
-x,y,1/2-z
-x,-y,-z
x,y,1/2-z
-x,y,z
x,-y,1/2+z
1/2+x,1/2+y,z
1/2-x,1/2-y,1/2+z
1/2+x,1/2-y,-z
1/2-x,1/2+y,1/2-z
1/2-x,1/2-y,-z
1/2+x,1/2+y,1/2-z
1/2-x,1/2+y,z
1/2+x,1/2-y,1/2+z
loop_
_atom_site_type_symbol
_atom_site_label
_atom_site_fract_x
_atom_site_fract_y
_atom_site_fract_z
Si Si1 0.226427 0.762589 0.885052
Si Si2 0.140114 0.447342 0.114344
Si Si3 0.353234 0.892014 0.693818
Si Si4 0.362014 0.305770 0.474007
Si Si5 0.641069 0.454365 0.555225
O O1 0.133313 0.670418 0.874296
O O2 0.276973 0.803907 0.832937
O O3 0.343973 0.711916 0.915249
O O4 0.157636 0.847875 0.917214
O O5 0.172870 0.504511 0.165407
O O6 0.244493 0.473464 0.072387
O O7 0.000000 0.480454 0.095397
O O8 0.302083 0.903201 0.750000
O O9 0.500000 0.863827 0.693458
O O10 0.500000 0.263234 0.489122
O O11 0.250000 0.250000 0.500000
O O12 0.355030 0.421620 0.494574
O O13 0.500000 0.494911 0.569851
#
# Coordination Sequence:
#
# PCOD8257671 Si02
#       5
#    16  16  16  16  16
#     4  10  19  33  55  80 108 142 183 224 268 318
#     4  10  21  36  56  81 109 142 182 223 267 321
#     4   9  19  36  56  79 108 140 176 224 279 329
#     4   9  18  32  52  79 110 147 184 221 264 314
#     4   9  19  35  53  76 111 146 179 220 266 315
#
# _framework density 20.969591000000001
#
# number of rings (size 3 to 8) (size 9 to 14) (size 15 to 20)
#    0.000    2.600    0.000    1.200    0.000    8.800 
#    0.000    3.000    0.000   14.400    0.000    0.000 
#    0.000    0.000    0.000    0.000    0.000    0.000 
#
# Total GULP energy -495695.106550 kJ/mol
# GULP energy per Si atom -12392.377664 kJ/mol
# Density = 2.092186 g / cm^3
# Si number density = 20.969591 Si / 1000 Ang^3
#
#
#
# Elastic Constant Matrix: (Units=GPa)
#
#
# Indices 1 2 3 4 5 6 
#
# 1 141.8280 51.8955 64.8200 0.0000 0.0000 0.0000
# 2 51.8955 131.9685 42.8036 0.0000 0.0000 0.0000
# 3 64.8200 42.8036 145.6506 0.0000 0.0000 0.0000
# 4 0.0000 0.0000 0.0000 29.9930 0.0000 0.0000
# 5 0.0000 0.0000 0.0000 0.0000 25.7130 0.0000
# 6 0.0000 0.0000 0.0000 0.0000 0.0000 28.2126
#
#
#
# Elastic Compliance Matrix: (Units=1/GPa)
#
#
# Indices 1 2 3 4 5 6 
#
# 1 0.009621 -0.002647 -0.003504 0.000000 0.000000 0.000000
# 2 -0.002647 0.009104 -0.001498 0.000000 0.000000 0.000000
# 3 -0.003504 -0.001498 0.008865 0.000000 0.000000 0.000000
# 4 0.000000 0.000000 0.000000 0.033341 0.000000 0.000000
# 5 0.000000 0.000000 0.000000 0.000000 0.038891 0.000000
# 6 0.000000 0.000000 0.000000 0.000000 0.000000 0.035445
#
#
# Mechanical properties :
#
#
# Convention : Reuss Voigt Hill
#
# Bulk Modulus (GPa) = 81.34247 82.05392 81.69820
# Shear Modulus (GPa) = 32.32877 34.11225 33.22051
#
# Velocity S-wave (km/s) = 3.93071 4.03767 3.98455
# Velocity P-wave (km/s) = 7.71204 7.80717 7.75975
#
# Compressibility (1/GPa) = 0.01229370
#
# Stress axis : x y z
#
# Youngs Moduli (GPa) = 103.94400 109.84025 112.80155
#
# Poissons Ratio (x) = 0.29073 0.39522
# Poissons Ratio (y) = 0.27512 0.16893
# Poissons Ratio (z) = 0.36419 0.16449
#
# Static dielectric constant tensor:
#      x y z
#    x 3.822770 0.000000 0.000000 
#    y 0.000000 4.310590 0.000000 
#    z 0.000000 0.000000 4.002080 
# 
# 
# High freq. dielectric constant tensor:
#      x y z
#    x 1.822560 0.000000 0.000000 
#    y 0.000000 1.849310 0.000000 
#    z 0.000000 0.000000 1.804510 
# 
# From -- ./inp_files/72676.got.cif
#   From: 2010.03.12/outbox.cif.g09.slc.cpg/sg63_37_cif.got.tgz:72676.got - 2010.04.10 19:34:48.
