data_PCOD8257044
_publ_section_title
;
Structure prediction by ZEFSAII (Michael W. Deem and Ramdas Pophale) SiO2 
 PCOD8257044
Probable space group: C M C M
;
_chemical_formula_sum "Si O2"
_cell_formula_units_Z 96
_cell_length_a 23.350644
_cell_length_b 13.738303
_cell_length_c 17.147315
_cell_angle_alpha 90.000000
_cell_angle_beta 90.000000
_cell_angle_gamma 90.000000
_cell_volume 5500.828173
_symmetry_space_group_name_H-M "C M C M"
_symmetry_group_IT_number 63
_symmetry_cell_setting 'orthorhombic'
loop_
_space_group_symop_operation_xyz
x,y,z
-x,-y,1/2+z
x,-y,-z
-x,y,1/2-z
-x,-y,-z
x,y,1/2-z
-x,y,z
x,-y,1/2+z
1/2+x,1/2+y,z
1/2-x,1/2-y,1/2+z
1/2+x,1/2-y,-z
1/2-x,1/2+y,1/2-z
1/2-x,1/2-y,-z
1/2+x,1/2+y,1/2-z
1/2-x,1/2+y,z
1/2+x,1/2-y,1/2+z
loop_
_atom_site_type_symbol
_atom_site_label
_atom_site_fract_x
_atom_site_fract_y
_atom_site_fract_z
Si Si1 0.674754 0.712779 0.086602
Si Si2 0.665933 0.854667 0.657846
Si Si3 0.723900 0.535269 0.159862
Si Si4 0.066285 0.304742 0.341131
Si Si5 0.561693 0.972204 0.842090
Si Si6 0.287790 0.330629 0.414823
O O1 0.679954 0.624160 0.147890
O O2 0.610086 0.749638 0.101058
O O3 0.721381 0.799301 0.097943
O O4 0.687533 0.669682 0.001697
O O5 0.666458 0.860233 0.750000
O O6 0.716249 0.923971 0.625182
O O7 0.672299 0.743184 0.633189
O O8 0.607757 0.898299 0.621399
O O9 0.728392 0.507389 0.250000
O O10 0.704023 0.439688 0.114670
O O11 0.080539 0.284258 0.250000
O O12 0.076895 0.417070 0.361360
O O13 0.000000 0.275190 0.358389
O O14 0.559448 0.959007 0.750000
O O15 0.500000 0.944958 0.878462
#
# Coordination Sequence:
#
# PCOD8257044 Si02
#       6
#    16  16  16  16  16  16
#     4  10  20  33  49  71 100 130 158 194 247 301
#     4   9  17  29  47  71  96 125 163 201 237 283
#     4  10  19  31  50  72  93 123 164 206 243 283
#     4   9  17  31  53  77  98 125 166 213 252 285
#     4   8  14  26  46  71  97 124 154 192 236 278
#     4  10  20  32  47  70 102 133 157 191 243 300
#
# _framework density 17.451919
#
# number of rings (size 3 to 8) (size 9 to 14) (size 15 to 20)
#    0.000    2.667    0.000    3.500    0.000    3.333 
#    0.000    3.333    0.000    5.000    0.000    2.333 
#    0.000    0.000    0.000    0.000    0.000    0.000 
#
# Total GULP energy -594840.274653 kJ/mol
# GULP energy per Si atom -12392.505722 kJ/mol
# Density = 1.741220 g / cm^3
# Si number density = 17.451919 Si / 1000 Ang^3
#
#
#
# Elastic Constant Matrix: (Units=GPa)
#
#
# Indices 1 2 3 4 5 6 
#
# 1 119.5092 51.0980 24.5635 0.0000 0.0000 0.0000
# 2 51.0980 83.0794 16.7632 0.0000 0.0000 0.0000
# 3 24.5635 16.7632 33.9394 0.0000 0.0000 0.0000
# 4 0.0000 0.0000 0.0000 20.6280 0.0000 0.0000
# 5 0.0000 0.0000 0.0000 0.0000 20.1506 0.0000
# 6 0.0000 0.0000 0.0000 0.0000 0.0000 24.2940
#
#
#
# Elastic Compliance Matrix: (Units=1/GPa)
#
#
# Indices 1 2 3 4 5 6 
#
# 1 0.012280 -0.006397 -0.005728 0.000000 0.000000 0.000000
# 2 -0.006397 0.016701 -0.003619 0.000000 0.000000 0.000000
# 3 -0.005728 -0.003619 0.035398 0.000000 0.000000 0.000000
# 4 0.000000 0.000000 0.000000 0.048478 0.000000 0.000000
# 5 0.000000 0.000000 0.000000 0.000000 0.049626 0.000000
# 6 0.000000 0.000000 0.000000 0.000000 0.000000 0.041162
#
#
# Mechanical properties :
#
#
# Convention : Reuss Voigt Hill
#
# Bulk Modulus (GPa) = 30.40406 46.81969 38.61188
# Shear Modulus (GPa) = 20.31714 22.62141 21.46927
#
# Velocity S-wave (km/s) = 3.41571 3.60420 3.51122
# Velocity P-wave (km/s) = 5.74591 6.64879 6.21377
#
# Compressibility (1/GPa) = 0.03289034
#
# Stress axis : x y z
#
# Youngs Moduli (GPa) = 81.43299 59.87502 28.25056
#
# Poissons Ratio (x) = 0.38302 0.16182
# Poissons Ratio (y) = 0.52093 0.10225
# Poissons Ratio (z) = 0.46645 0.21670
#
# Static dielectric constant tensor:
#      x y z
#    x 3.530980 0.000000 0.000000 
#    y 0.000000 3.167050 0.000000 
#    z 0.000000 0.000000 3.064840 
# 
# 
# High freq. dielectric constant tensor:
#      x y z
#    x 1.663850 0.000000 0.000000 
#    y 0.000000 1.668480 0.000000 
#    z 0.000000 0.000000 1.660200 
# 
# From -- ./inp_files/48036.got.cif
#   From: 2010.03.12/outbox.cif.g09.slc.cpg/sg63_25_cif.got.tgz:48036.got - 2010.04.10 19:34:48.
