data_PCOD8257243
_publ_section_title
;
Structure prediction by ZEFSAII (Michael W. Deem and Ramdas Pophale) SiO2 
 PCOD8257243
Probable space group: C M C M
;
_chemical_formula_sum "Si O2"
_cell_formula_units_Z 64
_cell_length_a 21.790992
_cell_length_b 9.123982
_cell_length_c 13.583395
_cell_angle_alpha 90.000000
_cell_angle_beta 90.000000
_cell_angle_gamma 90.000000
_cell_volume 2700.658999
_symmetry_space_group_name_H-M "C M C M"
_symmetry_group_IT_number 63
_symmetry_cell_setting 'orthorhombic'
loop_
_space_group_symop_operation_xyz
x,y,z
-x,-y,1/2+z
x,-y,-z
-x,y,1/2-z
-x,-y,-z
x,y,1/2-z
-x,y,z
x,-y,1/2+z
1/2+x,1/2+y,z
1/2-x,1/2-y,1/2+z
1/2+x,1/2-y,-z
1/2-x,1/2+y,1/2-z
1/2-x,1/2-y,-z
1/2+x,1/2+y,1/2-z
1/2-x,1/2+y,z
1/2+x,1/2-y,1/2+z
loop_
_atom_site_type_symbol
_atom_site_label
_atom_site_fract_x
_atom_site_fract_y
_atom_site_fract_z
Si Si1 0.639236 0.164531 0.143612
Si Si2 0.068407 0.605166 0.632965
Si Si3 0.254099 0.459591 0.141420
Si Si4 0.676605 0.713074 0.451933
O O1 0.618690 0.229845 0.250000
O O2 0.696496 0.059994 0.160725
O O3 0.587073 0.059318 0.094726
O O4 0.659094 0.295245 0.069488
O O5 0.071507 0.596646 0.750000
O O6 0.115216 0.731047 0.600677
O O7 0.000000 0.642826 0.595495
O O8 0.274821 0.397532 0.250000
O O9 0.308080 0.553215 0.090002
O O10 0.233322 0.328270 0.067086
#
# Coordination Sequence:
#
# PCOD8257243 Si02
#       4
#    16  16  16  16
#     4   9  19  32  47  71 104 138 172 211 254 303
#     4   9  17  30  49  74 102 131 167 212 259 306
#     4  10  19  32  50  74 103 133 168 210 258 312
#     4  11  20  33  52  76 106 139 171 209 260 309
#
# _framework density 23.697921000000001
#
# number of rings (size 3 to 8) (size 9 to 14) (size 15 to 20)
#    0.000    2.250    0.000    7.500    0.000    2.000 
#    0.000    6.250    0.000    0.000    0.000    7.000 
#    0.000   52.000    0.000    7.250    0.000    7.500 
#
# Total GULP energy -396643.710249 kJ/mol
# GULP energy per Si atom -12395.115945 kJ/mol
# Density = 2.364398 g / cm^3
# Si number density = 23.697921 Si / 1000 Ang^3
#
#
#
# Elastic Constant Matrix: (Units=GPa)
#
#
# Indices 1 2 3 4 5 6 
#
# 1 142.0371 52.8353 25.1720 0.0000 0.0000 0.0000
# 2 52.8353 101.8419 51.3223 0.0000 0.0000 0.0000
# 3 25.1720 51.3223 169.1475 0.0000 0.0000 0.0000
# 4 0.0000 0.0000 0.0000 12.9175 0.0000 0.0000
# 5 0.0000 0.0000 0.0000 0.0000 24.8437 0.0000
# 6 0.0000 0.0000 0.0000 0.0000 0.0000 28.8576
#
#
#
# Elastic Compliance Matrix: (Units=1/GPa)
#
#
# Indices 1 2 3 4 5 6 
#
# 1 0.008725 -0.004571 0.000089 0.000000 0.000000 0.000000
# 2 -0.004571 0.013986 -0.003563 0.000000 0.000000 0.000000
# 3 0.000089 -0.003563 0.006980 0.000000 0.000000 0.000000
# 4 0.000000 0.000000 0.000000 0.077414 0.000000 0.000000
# 5 0.000000 0.000000 0.000000 0.000000 0.040252 0.000000
# 6 0.000000 0.000000 0.000000 0.000000 0.000000 0.034653
#
#
# Mechanical properties :
#
#
# Convention : Reuss Voigt Hill
#
# Bulk Modulus (GPa) = 73.53280 74.63175 74.08227
# Shear Modulus (GPa) = 24.67480 32.23690 28.45585
#
# Velocity S-wave (km/s) = 3.23030 3.69226 3.46898
# Velocity P-wave (km/s) = 6.70893 7.05254 6.88288
#
# Compressibility (1/GPa) = 0.01359937
#
# Stress axis : x y z
#
# Youngs Moduli (GPa) = 114.61152 71.49784 143.26564
#
# Poissons Ratio (x) = 0.32683 -0.01268
# Poissons Ratio (y) = 0.52391 0.51052
# Poissons Ratio (z) = -0.01015 0.25478
#
# Static dielectric constant tensor:
#      x y z
#    x 4.448580 0.000000 0.000000 
#    y 0.000000 4.260530 0.000000 
#    z 0.000000 0.000000 4.882830 
# 
# 
# High freq. dielectric constant tensor:
#      x y z
#    x 1.916370 0.000000 0.000000 
#    y 0.000000 1.914730 0.000000 
#    z 0.000000 0.000000 1.977650 
# 
# From -- ./inp_files/36184.got.cif
#   From: 2010.03.12/outbox.cif.g09.slc.cpg/sg63_19_cif.got.tgz:36184.got - 2010.04.10 19:34:48.
