data_PCOD8257296
_publ_section_title
;
Structure prediction by ZEFSAII (Michael W. Deem and Ramdas Pophale) SiO2 
 PCOD8257296
Probable space group: C M C M
;
_chemical_formula_sum "Si O2"
_cell_formula_units_Z 112
_cell_length_a 14.329059
_cell_length_b 32.839588
_cell_length_c 13.985051
_cell_angle_alpha 90.000000
_cell_angle_beta 90.000000
_cell_angle_gamma 90.000000
_cell_volume 6580.811108
_symmetry_space_group_name_H-M "C M C M"
_symmetry_group_IT_number 63
_symmetry_cell_setting 'orthorhombic'
loop_
_space_group_symop_operation_xyz
x,y,z
-x,-y,1/2+z
x,-y,-z
-x,y,1/2-z
-x,-y,-z
x,y,1/2-z
-x,y,z
x,-y,1/2+z
1/2+x,1/2+y,z
1/2-x,1/2-y,1/2+z
1/2+x,1/2-y,-z
1/2-x,1/2+y,1/2-z
1/2-x,1/2-y,-z
1/2+x,1/2+y,1/2-z
1/2-x,1/2+y,z
1/2+x,1/2-y,1/2+z
loop_
_atom_site_type_symbol
_atom_site_label
_atom_site_fract_x
_atom_site_fract_y
_atom_site_fract_z
Si Si1 0.723251 0.040705 0.035862
Si Si2 0.890525 0.322216 0.513131
Si Si3 0.105425 0.999222 0.859076
Si Si4 0.108045 0.245290 0.859849
Si Si5 0.893909 0.601910 0.358727
Si Si6 0.264993 0.328890 0.140868
Si Si7 0.708869 0.419847 0.356631
O O1 0.667825 0.062200 0.120478
O O2 0.825945 0.027372 0.074319
O O3 0.721558 0.070170 0.943492
O O4 0.670444 0.000000 0.000000
O O5 0.862218 0.282200 0.572133
O O6 0.862220 0.360183 0.578401
O O7 0.831180 0.325438 0.416923
O O8 0.000000 0.322263 0.486863
O O9 0.119082 0.984803 0.750000
O O10 0.123786 0.048066 0.866435
O O11 0.000000 0.990959 0.893743
O O12 0.130653 0.257003 0.750000
O O13 0.163439 0.205447 0.894229
O O14 0.000000 0.234862 0.871934
O O15 0.879175 0.615139 0.250000
O O16 0.000000 0.589822 0.380100
O O17 0.235831 0.321567 0.250000
O O18 0.318291 0.372416 0.129559
O O19 0.754520 0.425291 0.250000
#
# Coordination Sequence:
#
# PCOD8257296 Si02
#       7
#    16  16  16  16  16  16  16
#     4  10  19  32  52  72  99 130 164 208 252 293
#     4  10  19  33  53  74 100 132 166 205 247 292
#     4   9  18  32  51  75 101 131 167 204 247 297
#     4   9  18  32  51  77 104 130 163 203 246 292
#     4  10  20  34  53  75  97 126 166 209 253 297
#     4  10  19  32  51  75 104 133 165 203 245 294
#     4   9  18  31  46  68 101 134 164 200 239 289
#
# _framework density 17.019178
#
# number of rings (size 3 to 8) (size 9 to 14) (size 15 to 20)
#    0.000    2.429    1.429    1.286    0.000    6.000 
#    0.000    2.857    0.000    0.429    0.000    0.000 
#    0.000    0.000    0.000    0.000    0.000    0.000 
#
# Total GULP energy -693983.258768 kJ/mol
# GULP energy per Si atom -12392.558192 kJ/mol
# Density = 1.698044 g / cm^3
# Si number density = 17.019178 Si / 1000 Ang^3
#
#
#
# Elastic Constant Matrix: (Units=GPa)
#
#
# Indices 1 2 3 4 5 6 
#
# 1 69.2293 52.6380 42.1839 0.0000 0.0000 0.0000
# 2 52.6380 120.2057 48.6728 0.0000 0.0000 0.0000
# 3 42.1839 48.6728 88.5181 0.0000 0.0000 0.0000
# 4 0.0000 0.0000 0.0000 28.2927 0.0000 0.0000
# 5 0.0000 0.0000 0.0000 0.0000 24.3400 0.0000
# 6 0.0000 0.0000 0.0000 0.0000 0.0000 23.0521
#
#
#
# Elastic Compliance Matrix: (Units=1/GPa)
#
#
# Indices 1 2 3 4 5 6 
#
# 1 0.025095 -0.007907 -0.007611 0.000000 0.000000 0.000000
# 2 -0.007907 0.013193 -0.003486 0.000000 0.000000 0.000000
# 3 -0.007611 -0.003486 0.016841 0.000000 0.000000 0.000000
# 4 0.000000 0.000000 0.000000 0.035345 0.000000 0.000000
# 5 0.000000 0.000000 0.000000 0.000000 0.041085 0.000000
# 6 0.000000 0.000000 0.000000 0.000000 0.000000 0.043380
#
#
# Mechanical properties :
#
#
# Convention : Reuss Voigt Hill
#
# Bulk Modulus (GPa) = 58.41126 62.77138 60.59132
# Shear Modulus (GPa) = 22.86715 24.10085 23.48400
#
# Velocity S-wave (km/s) = 3.66951 3.76719 3.71867
# Velocity P-wave (km/s) = 7.23526 7.47564 7.35643
#
# Compressibility (1/GPa) = 0.01711999
#
# Stress axis : x y z
#
# Youngs Moduli (GPa) = 39.84925 75.79655 59.37793
#
# Poissons Ratio (x) = 0.59933 0.45194
# Poissons Ratio (y) = 0.31509 0.20701
# Poissons Ratio (z) = 0.30330 0.26425
#
# Static dielectric constant tensor:
#      x y z
#    x 2.908100 0.000000 0.000000 
#    y 0.000000 3.314940 0.000000 
#    z 0.000000 0.000000 3.340170 
# 
# 
# High freq. dielectric constant tensor:
#      x y z
#    x 1.626610 0.000000 0.000000 
#    y 0.000000 1.663000 0.000000 
#    z 0.000000 0.000000 1.670700 
# 
# From -- ./inp_files/32547.got.cif
#   From: 2010.03.12/outbox.cif.g09.slc.cpg/sg63_17_cif.got.tgz:32547.got - 2010.04.10 19:34:48.
