data_PCOD8257829
_publ_section_title
;
Structure prediction by ZEFSAII (Michael W. Deem and Ramdas Pophale) SiO2 
 PCOD8257829
Probable space group: C M C M
;
_chemical_formula_sum "Si O2"
_cell_formula_units_Z 80
_cell_length_a 9.371665
_cell_length_b 18.997435
_cell_length_c 24.347364
_cell_angle_alpha 90.000000
_cell_angle_beta 90.000000
_cell_angle_gamma 90.000000
_cell_volume 4334.746172
_symmetry_space_group_name_H-M "C M C M"
_symmetry_group_IT_number 63
_symmetry_cell_setting 'orthorhombic'
loop_
_space_group_symop_operation_xyz
x,y,z
-x,-y,1/2+z
x,-y,-z
-x,y,1/2-z
-x,-y,-z
x,y,1/2-z
-x,y,z
x,-y,1/2+z
1/2+x,1/2+y,z
1/2-x,1/2-y,1/2+z
1/2+x,1/2-y,-z
1/2-x,1/2+y,1/2-z
1/2-x,1/2-y,-z
1/2+x,1/2+y,1/2-z
1/2-x,1/2+y,z
1/2+x,1/2-y,1/2+z
loop_
_atom_site_type_symbol
_atom_site_label
_atom_site_fract_x
_atom_site_fract_y
_atom_site_fract_z
Si Si1 0.331926 0.766409 0.153048
Si Si2 0.670931 0.864501 0.250000
Si Si3 0.667240 0.512337 0.250000
Si Si4 0.331458 0.606483 0.355226
Si Si5 0.837407 0.437554 0.536877
Si Si6 0.159199 0.301646 0.465396
O O1 0.500000 0.763389 0.160843
O O2 0.270996 0.818589 0.199027
O O3 0.274586 0.685862 0.156835
O O4 0.281826 0.802723 0.096534
O O5 0.500000 0.875184 0.250000
O O6 0.743008 0.940827 0.250000
O O7 0.500000 0.494105 0.250000
O O8 0.708544 0.557799 0.196421
O O9 0.500000 0.606940 0.366281
O O10 0.256561 0.576150 0.409516
O O11 0.773191 0.500000 0.500000
O O12 0.833168 0.376265 0.492858
O O13 0.000000 0.452889 0.556142
O O14 0.250000 0.250000 0.500000
O O15 0.000000 0.270905 0.463703
#
# Coordination Sequence:
#
# PCOD8257829 Si02
#       6
#    16   8   8  16  16  16
#     4   9  18  34  58  83 104 136 185 227 261 314
#     4  10  21  37  61  85 105 140 184 224 272 330
#     4  10  23  39  55  81 113 142 176 228 282 320
#     4  10  20  38  60  79 107 146 187 226 268 326
#     4  10  22  36  54  82 117 147 178 226 277 323
#     4  10  19  34  55  81 111 141 178 223 268 319
#
# _framework density 18.455521999999998
#
# number of rings (size 3 to 8) (size 9 to 14) (size 15 to 20)
#    0.000    2.200    2.000    0.600    2.800    3.600 
#    0.000    2.000    0.000    1.200    0.000    0.000 
#    0.000    0.000    0.000    0.000    0.000    0.000 
#
# Total GULP energy -495801.994320 kJ/mol
# GULP energy per Si atom -12395.049858 kJ/mol
# Density = 1.841352 g / cm^3
# Si number density = 18.455522 Si / 1000 Ang^3
#
#
#
# Elastic Constant Matrix: (Units=GPa)
#
#
# Indices 1 2 3 4 5 6 
#
# 1 43.1752 45.0333 50.8869 0.0000 0.0000 0.0000
# 2 45.0333 121.1744 82.3885 0.0000 0.0000 0.0000
# 3 50.8869 82.3885 184.1025 0.0000 0.0000 0.0000
# 4 0.0000 0.0000 0.0000 36.9338 0.0000 0.0000
# 5 0.0000 0.0000 0.0000 0.0000 29.4404 0.0000
# 6 0.0000 0.0000 0.0000 0.0000 0.0000 28.9488
#
#
#
# Elastic Compliance Matrix: (Units=1/GPa)
#
#
# Indices 1 2 3 4 5 6 
#
# 1 0.043045 -0.011366 -0.006811 0.000000 0.000000 0.000000
# 2 -0.011366 0.014863 -0.003510 0.000000 0.000000 0.000000
# 3 -0.006811 -0.003510 0.008885 0.000000 0.000000 0.000000
# 4 0.000000 0.000000 0.000000 0.027075 0.000000 0.000000
# 5 0.000000 0.000000 0.000000 0.000000 0.033967 0.000000
# 6 0.000000 0.000000 0.000000 0.000000 0.000000 0.034544
#
#
# Mechanical properties :
#
#
# Convention : Reuss Voigt Hill
#
# Bulk Modulus (GPa) = 42.70128 78.34107 60.52118
# Shear Modulus (GPa) = 23.41272 30.40747 26.91010
#
# Velocity S-wave (km/s) = 3.56561 4.06348 3.82266
# Velocity P-wave (km/s) = 6.33554 8.03471 7.23518
#
# Compressibility (1/GPa) = 0.02341850
#
# Stress axis : x y z
#
# Youngs Moduli (GPa) = 23.23176 67.28121 112.54774
#
# Poissons Ratio (x) = 0.76472 0.76660
# Poissons Ratio (y) = 0.26405 0.39502
# Poissons Ratio (z) = 0.15824 0.23614
#
# Static dielectric constant tensor:
#      x y z
#    x 3.167020 0.000000 0.000000 
#    y 0.000000 3.404070 0.000000 
#    z 0.000000 0.000000 3.624530 
# 
# 
# High freq. dielectric constant tensor:
#      x y z
#    x 1.683900 0.000000 0.000000 
#    y 0.000000 1.728750 0.000000 
#    z 0.000000 0.000000 1.734680 
# 
# From -- ./inp_files/61396.got.cif
#   From: 2010.03.12/outbox.cif.g09.slc.cpg/sg63_31_cif.got.tgz:61396.got - 2010.04.10 19:34:48.
