data_PCOD8257781
_publ_section_title
;
Structure prediction by ZEFSAII (Michael W. Deem and Ramdas Pophale) SiO2 
 PCOD8257781
Probable space group: C M C M
;
_chemical_formula_sum "Si O2"
_cell_formula_units_Z 88
_cell_length_a 27.663896
_cell_length_b 18.970405
_cell_length_c 8.919936
_cell_angle_alpha 90.000000
_cell_angle_beta 90.000000
_cell_angle_gamma 90.000000
_cell_volume 4681.140587
_symmetry_space_group_name_H-M "C M C M"
_symmetry_group_IT_number 63
_symmetry_cell_setting 'orthorhombic'
loop_
_space_group_symop_operation_xyz
x,y,z
-x,-y,1/2+z
x,-y,-z
-x,y,1/2-z
-x,-y,-z
x,y,1/2-z
-x,y,z
x,-y,1/2+z
1/2+x,1/2+y,z
1/2-x,1/2-y,1/2+z
1/2+x,1/2-y,-z
1/2-x,1/2+y,1/2-z
1/2-x,1/2-y,-z
1/2+x,1/2+y,1/2-z
1/2-x,1/2+y,z
1/2+x,1/2-y,1/2+z
loop_
_atom_site_type_symbol
_atom_site_label
_atom_site_fract_x
_atom_site_fract_y
_atom_site_fract_z
Si Si1 0.342282 0.834981 0.072866
Si Si2 0.552269 0.821198 0.080892
Si Si3 0.078976 0.160694 0.079985
Si Si4 0.000000 0.926246 0.075218
Si Si5 0.754289 0.426185 0.423054
Si Si6 0.677031 0.690155 0.928286
O O1 0.345428 0.815676 0.250000
O O2 0.397154 0.850481 0.009307
O O3 0.309944 0.904152 0.044098
O O4 0.316299 0.769554 0.990133
O O5 0.549528 0.849227 0.250000
O O6 0.500000 0.842669 0.002956
O O7 0.555971 0.737580 0.076412
O O8 0.079953 0.131897 0.250000
O O9 0.047950 0.112504 0.973976
O O10 0.131614 0.156499 0.010045
O O11 0.000000 0.935290 0.250000
O O12 0.000000 0.000000 0.000000
O O13 0.741499 0.500000 0.500000
O O14 0.745360 0.439924 0.250000
O O15 0.721318 0.360517 0.475738
O O16 0.670128 0.693529 0.750000
#
# Coordination Sequence:
#
# PCOD8257781 Si02
#       6
#    16  16  16   8  16  16
#     4   9  18  33  54  80 106 137 178 222 270 324
#     4   8  13  25  50  78 101 126 162 207 253 307
#     4  10  19  34  53  74 102 134 174 217 262 314
#     4  12  24  36  50  70 100 140 181 220 265 316
#     4  10  22  37  53  75 105 141 181 223 271 332
#     4  10  20  34  53  79 107 136 177 225 272 322
#
# _framework density 18.798836999999999
#
# number of rings (size 3 to 8) (size 9 to 14) (size 15 to 20)
#    0.000    2.364    0.909    3.545    0.000    2.909 
#    0.000    1.818    0.000    0.545    0.000    0.000 
#    0.000    0.000    0.000    0.000    0.000    0.000 
#
# Total GULP energy -545135.210682 kJ/mol
# GULP energy per Si atom -12389.436606 kJ/mol
# Density = 1.875605 g / cm^3
# Si number density = 18.798837 Si / 1000 Ang^3
#
#
#
# Elastic Constant Matrix: (Units=GPa)
#
#
# Indices 1 2 3 4 5 6 
#
# 1 117.7174 27.6437 26.3837 0.0000 0.0000 0.0000
# 2 27.6437 46.0337 21.3509 0.0000 0.0000 0.0000
# 3 26.3837 21.3509 78.7226 0.0000 0.0000 0.0000
# 4 0.0000 0.0000 0.0000 21.7473 0.0000 0.0000
# 5 0.0000 0.0000 0.0000 0.0000 24.7986 0.0000
# 6 0.0000 0.0000 0.0000 0.0000 0.0000 12.3023
#
#
#
# Elastic Compliance Matrix: (Units=1/GPa)
#
#
# Indices 1 2 3 4 5 6 
#
# 1 0.010158 -0.005172 -0.002002 0.000000 0.000000 0.000000
# 2 -0.005172 0.027482 -0.005720 0.000000 0.000000 0.000000
# 3 -0.002002 -0.005720 0.014925 0.000000 0.000000 0.000000
# 4 0.000000 0.000000 0.000000 0.045983 0.000000 0.000000
# 5 0.000000 0.000000 0.000000 0.000000 0.040325 0.000000
# 6 0.000000 0.000000 0.000000 0.000000 0.000000 0.081286
#
#
# Mechanical properties :
#
#
# Convention : Reuss Voigt Hill
#
# Bulk Modulus (GPa) = 37.34445 43.69225 40.51835
# Shear Modulus (GPa) = 19.61772 22.90934 21.26353
#
# Velocity S-wave (km/s) = 3.23392 3.49471 3.36684
# Velocity P-wave (km/s) = 5.81831 6.29098 6.05926
#
# Compressibility (1/GPa) = 0.02677774
#
# Stress axis : x y z
#
# Youngs Moduli (GPa) = 98.44433 36.38759 67.00086
#
# Poissons Ratio (x) = 0.18818 0.13412
# Poissons Ratio (y) = 0.50911 0.38327
# Poissons Ratio (z) = 0.19707 0.20815
#
# Static dielectric constant tensor:
#      x y z
#    x 3.876410 0.000000 0.000000 
#    y 0.000000 3.109530 0.000000 
#    z 0.000000 0.000000 3.335490 
# 
# 
# High freq. dielectric constant tensor:
#      x y z
#    x 1.754090 0.000000 0.000000 
#    y 0.000000 1.695950 0.000000 
#    z 0.000000 0.000000 1.711800 
# 
# From -- ./inp_files/14172.got.cif
#   From: 2010.03.12/outbox.cif.g09.slc.cpg/sg63_8_cif.got.tgz:14172.got - 2010.04.10 19:34:48.
