data_PCOD8257234
_publ_section_title
;
Structure prediction by ZEFSAII (Michael W. Deem and Ramdas Pophale) SiO2 
 PCOD8257234
Probable space group: C M C M
;
_chemical_formula_sum "Si O2"
_cell_formula_units_Z 88
_cell_length_a 19.393156
_cell_length_b 27.318934
_cell_length_c 8.887539
_cell_angle_alpha 90.000000
_cell_angle_beta 90.000000
_cell_angle_gamma 90.000000
_cell_volume 4708.621262
_symmetry_space_group_name_H-M "C M C M"
_symmetry_group_IT_number 63
_symmetry_cell_setting 'orthorhombic'
loop_
_space_group_symop_operation_xyz
x,y,z
-x,-y,1/2+z
x,-y,-z
-x,y,1/2-z
-x,-y,-z
x,y,1/2-z
-x,y,z
x,-y,1/2+z
1/2+x,1/2+y,z
1/2-x,1/2-y,1/2+z
1/2+x,1/2-y,-z
1/2-x,1/2+y,1/2-z
1/2-x,1/2-y,-z
1/2+x,1/2+y,1/2-z
1/2-x,1/2+y,z
1/2+x,1/2-y,1/2+z
loop_
_atom_site_type_symbol
_atom_site_label
_atom_site_fract_x
_atom_site_fract_y
_atom_site_fract_z
Si Si1 0.684979 0.306833 0.418417
Si Si2 0.186586 0.345890 0.575093
Si Si3 0.268719 0.048837 0.428855
Si Si4 0.864942 0.083455 0.920069
Si Si5 0.076907 0.729292 0.427146
Si Si6 0.500000 0.552740 0.428082
O O1 0.701167 0.288060 0.250000
O O2 0.756975 0.308399 0.507477
O O3 0.654646 0.360504 0.415361
O O4 0.627659 0.271149 0.494134
O O5 0.202809 0.346935 0.750000
O O6 0.190850 0.402016 0.515528
O O7 0.111007 0.323920 0.538758
O O8 0.268149 0.044065 0.250000
O O9 0.191501 0.051259 0.493242
O O10 0.303966 0.000000 0.500000
O O11 0.873958 0.062838 0.750000
O O12 0.934216 0.081886 0.014685
O O13 0.069915 0.737792 0.250000
O O14 0.000000 0.731407 0.500066
O O15 0.500000 0.500000 0.500000
O O16 0.500000 0.549258 0.250000
#
# Coordination Sequence:
#
# PCOD8257234 Si02
#       6
#    16  16  16  16  16   8
#     4   9  18  31  52  76  99 132 167 202 242 292
#     4   9  18  32  51  75 102 131 164 207 250 292
#     4  10  19  32  50  72  97 125 163 206 252 298
#     4  10  20  33  49  71  98 127 164 205 247 294
#     4   9  17  30  51  77 103 132 167 204 244 294
#     4  12  24  36  48  64  92 132 170 208 253 294
#
# _framework density 18.689122000000001
#
# number of rings (size 3 to 8) (size 9 to 14) (size 15 to 20)
#    0.000    2.364    0.000    3.000    1.273    1.455 
#    0.000    0.000    0.000    2.182    0.000    0.000 
#    0.000    0.000    0.000    0.000    0.000    0.545 
#
# Total GULP energy -545385.390632 kJ/mol
# GULP energy per Si atom -12395.122514 kJ/mol
# Density = 1.864658 g / cm^3
# Si number density = 18.689122 Si / 1000 Ang^3
#
#
#
# Elastic Constant Matrix: (Units=GPa)
#
#
# Indices 1 2 3 4 5 6 
#
# 1 100.8041 45.5913 22.0189 0.0000 0.0000 0.0000
# 2 45.5913 93.4824 17.6624 0.0000 0.0000 0.0000
# 3 22.0189 17.6624 65.8803 0.0000 0.0000 0.0000
# 4 0.0000 0.0000 0.0000 18.7498 0.0000 0.0000
# 5 0.0000 0.0000 0.0000 0.0000 19.4204 0.0000
# 6 0.0000 0.0000 0.0000 0.0000 0.0000 12.9730
#
#
#
# Elastic Compliance Matrix: (Units=1/GPa)
#
#
# Indices 1 2 3 4 5 6 
#
# 1 0.013211 -0.005908 -0.002831 0.000000 0.000000 0.000000
# 2 -0.005908 0.013910 -0.001755 0.000000 0.000000 0.000000
# 3 -0.002831 -0.001755 0.016596 0.000000 0.000000 0.000000
# 4 0.000000 0.000000 0.000000 0.053334 0.000000 0.000000
# 5 0.000000 0.000000 0.000000 0.000000 0.051492 0.000000
# 6 0.000000 0.000000 0.000000 0.000000 0.000000 0.077083
#
#
# Mechanical properties :
#
#
# Convention : Reuss Voigt Hill
#
# Bulk Modulus (GPa) = 43.99768 47.85689 45.92729
# Shear Modulus (GPa) = 19.67030 21.88824 20.77927
#
# Velocity S-wave (km/s) = 3.24775 3.42596 3.33804
# Velocity P-wave (km/s) = 6.13651 6.42744 6.28366
#
# Compressibility (1/GPa) = 0.02272847
#
# Stress axis : x y z
#
# Youngs Moduli (GPa) = 75.69612 71.89073 60.25613
#
# Poissons Ratio (x) = 0.42472 0.17061
# Poissons Ratio (y) = 0.44720 0.10573
# Poissons Ratio (z) = 0.21433 0.12614
#
# Static dielectric constant tensor:
#      x y z
#    x 3.315030 0.000000 0.000000 
#    y 0.000000 3.652880 0.000000 
#    z 0.000000 0.000000 3.436830 
# 
# 
# High freq. dielectric constant tensor:
#      x y z
#    x 1.702890 0.000000 0.000000 
#    y 0.000000 1.738990 0.000000 
#    z 0.000000 0.000000 1.708310 
# 
# From -- ./inp_files/6787.got.cif
#   From: 2010.03.12/outbox.cif.g09.slc.cpg/sg63_4_cif.got.tgz:6787.got - 2010.04.10 19:34:48.
