data_PCOD8257640
_publ_section_title
;
Structure prediction by ZEFSAII (Michael W. Deem and Ramdas Pophale) SiO2 
 PCOD8257640
Probable space group: C M C M
;
_chemical_formula_sum "Si O2"
_cell_formula_units_Z 80
_cell_length_a 12.570777
_cell_length_b 19.199971
_cell_length_c 18.501331
_cell_angle_alpha 90.000000
_cell_angle_beta 90.000000
_cell_angle_gamma 90.000000
_cell_volume 4465.454494
_symmetry_space_group_name_H-M "C M C M"
_symmetry_group_IT_number 63
_symmetry_cell_setting 'orthorhombic'
loop_
_space_group_symop_operation_xyz
x,y,z
-x,-y,1/2+z
x,-y,-z
-x,y,1/2-z
-x,-y,-z
x,y,1/2-z
-x,y,z
x,-y,1/2+z
1/2+x,1/2+y,z
1/2-x,1/2-y,1/2+z
1/2+x,1/2-y,-z
1/2-x,1/2+y,1/2-z
1/2-x,1/2-y,-z
1/2+x,1/2+y,1/2-z
1/2-x,1/2+y,z
1/2+x,1/2-y,1/2+z
loop_
_atom_site_type_symbol
_atom_site_label
_atom_site_fract_x
_atom_site_fract_y
_atom_site_fract_z
Si Si1 0.878746 0.997302 0.669473
Si Si2 0.882897 0.075274 0.534897
Si Si3 0.193366 0.393887 0.831848
Si Si4 0.000000 0.476992 0.884906
Si Si5 0.500000 0.109998 0.970236
Si Si6 0.293388 0.175413 0.021921
O O1 0.862695 0.025909 0.750000
O O2 0.849520 0.062673 0.618356
O O3 0.000000 0.972915 0.654504
O O4 0.807259 0.929500 0.655598
O O5 0.797904 0.120908 0.494658
O O6 0.000000 0.110407 0.529617
O O7 0.884695 0.000000 0.500000
O O8 0.184756 0.362928 0.750000
O O9 0.179538 0.332364 0.891927
O O10 0.104326 0.453847 0.840952
O O11 0.000000 0.560845 0.898489
O O12 0.000000 0.439972 0.961561
O O13 0.396247 0.159196 0.972797
O O14 0.250000 0.250000 0.000000
#
# Coordination Sequence:
#
# PCOD8257640 Si02
#       6
#    16  16  16   8   8  16
#     4   9  17  30  51  82 109 132 170 226 280 318
#     4  10  19  33  56  81 106 138 183 232 272 319
#     4  10  19  33  54  80 108 140 182 224 277 335
#     4   9  17  32  58  82 107 133 177 231 280 321
#     4   9  20  34  54  82 109 140 179 233 275 328
#     4  11  23  36  54  79 115 150 188 226 277 337
#
# _framework density 17.915310000000002
#
# number of rings (size 3 to 8) (size 9 to 14) (size 15 to 20)
#    0.000    2.200    2.000    1.500    4.200    0.000 
#    0.000    1.000    0.000    2.400    0.000    0.000 
#    0.000    0.000    0.000    0.000    0.000    0.000 
#
# Total GULP energy -495769.497552 kJ/mol
# GULP energy per Si atom -12394.237439 kJ/mol
# Density = 1.787453 g / cm^3
# Si number density = 17.915310 Si / 1000 Ang^3
#
#
#
# Elastic Constant Matrix: (Units=GPa)
#
#
# Indices 1 2 3 4 5 6 
#
# 1 92.9515 36.7032 34.0032 0.0000 0.0000 0.0000
# 2 36.7032 73.8562 39.7926 0.0000 0.0000 0.0000
# 3 34.0032 39.7926 107.0967 0.0000 0.0000 0.0000
# 4 0.0000 0.0000 0.0000 19.1955 0.0000 0.0000
# 5 0.0000 0.0000 0.0000 0.0000 21.3141 0.0000
# 6 0.0000 0.0000 0.0000 0.0000 0.0000 23.1824
#
#
#
# Elastic Compliance Matrix: (Units=1/GPa)
#
#
# Indices 1 2 3 4 5 6 
#
# 1 0.013822 -0.005632 -0.002296 0.000000 0.000000 0.000000
# 2 -0.005632 0.019224 -0.005355 0.000000 0.000000 0.000000
# 3 -0.002296 -0.005355 0.012056 0.000000 0.000000 0.000000
# 4 0.000000 0.000000 0.000000 0.052096 0.000000 0.000000
# 5 0.000000 0.000000 0.000000 0.000000 0.046917 0.000000
# 6 0.000000 0.000000 0.000000 0.000000 0.000000 0.043136
#
#
# Mechanical properties :
#
#
# Convention : Reuss Voigt Hill
#
# Bulk Modulus (GPa) = 53.94705 54.98916 54.46810
# Shear Modulus (GPa) = 22.72786 23.63207 23.17997
#
# Velocity S-wave (km/s) = 3.56564 3.63588 3.60093
# Velocity P-wave (km/s) = 6.86509 6.95606 6.91072
#
# Compressibility (1/GPa) = 0.01853670
#
# Stress axis : x y z
#
# Youngs Moduli (GPa) = 72.34830 52.01945 82.94744
#
# Poissons Ratio (x) = 0.29297 0.19044
# Poissons Ratio (y) = 0.40746 0.44414
# Poissons Ratio (z) = 0.16611 0.27854
#
# Static dielectric constant tensor:
#      x y z
#    x 3.820930 0.000000 0.000000 
#    y 0.000000 2.610510 0.000000 
#    z 0.000000 0.000000 3.660800 
# 
# 
# High freq. dielectric constant tensor:
#      x y z
#    x 1.714720 0.000000 0.000000 
#    y 0.000000 1.637070 0.000000 
#    z 0.000000 0.000000 1.701360 
# 
# From -- ./inp_files/52435.got.cif
#   From: 2010.03.12/outbox.cif.g09.slc.cpg/sg63_27_cif.got.tgz:52435.got - 2010.04.10 19:34:48.
