data_PCOD8257698
_publ_section_title
;
Structure prediction by ZEFSAII (Michael W. Deem and Ramdas Pophale) SiO2 
 PCOD8257698
Probable space group: C M C M
;
_chemical_formula_sum "Si O2"
_cell_formula_units_Z 96
_cell_length_a 7.561465
_cell_length_b 25.097160
_cell_length_c 26.911833
_cell_angle_alpha 90.000000
_cell_angle_beta 90.000000
_cell_angle_gamma 90.000000
_cell_volume 5107.093451
_symmetry_space_group_name_H-M "C M C M"
_symmetry_group_IT_number 63
_symmetry_cell_setting 'orthorhombic'
loop_
_space_group_symop_operation_xyz
x,y,z
-x,-y,1/2+z
x,-y,-z
-x,y,1/2-z
-x,-y,-z
x,y,1/2-z
-x,y,z
x,-y,1/2+z
1/2+x,1/2+y,z
1/2-x,1/2-y,1/2+z
1/2+x,1/2-y,-z
1/2-x,1/2+y,1/2-z
1/2-x,1/2-y,-z
1/2+x,1/2+y,1/2-z
1/2-x,1/2+y,z
1/2+x,1/2-y,1/2+z
loop_
_atom_site_type_symbol
_atom_site_label
_atom_site_fract_x
_atom_site_fract_y
_atom_site_fract_z
Si Si1 0.289051 0.477003 0.447745
Si Si2 0.500000 0.399717 0.807481
Si Si3 0.698773 0.359240 0.057346
Si Si4 0.205807 0.664065 0.050265
Si Si5 0.000000 0.773898 0.692489
Si Si6 0.209580 0.238076 0.879864
Si Si7 0.798480 0.569938 0.121155
O O1 0.218211 0.500000 0.500000
O O2 0.500000 0.477515 0.447143
O O3 0.208854 0.417303 0.441384
O O4 0.213953 0.511429 0.402424
O O5 0.500000 0.414731 0.750000
O O6 0.500000 0.336801 0.816346
O O7 0.675630 0.425967 0.830616
O O8 0.500000 0.367630 0.074792
O O9 0.780477 0.317342 0.096492
O O10 0.696869 0.334406 0.002299
O O11 0.256330 0.716711 0.080184
O O12 0.271148 0.612615 0.080900
O O13 0.000000 0.659977 0.039218
O O14 0.821427 0.748865 0.669617
O O15 0.000000 0.758792 0.750000
O O16 0.000000 0.238249 0.867234
O O17 0.000000 0.582343 0.137322
#
# Coordination Sequence:
#
# PCOD8257698 Si02
#       7
#    16   8  16  16   8  16  16
#     4  10  19  33  55  84 120 161 198 233 278 338
#     4  11  24  42  65  89 113 146 193 248 302 351
#     4  10  21  33  54  84 119 165 199 229 280 342
#     4  10  20  32  51  82 121 158 189 228 283 342
#     4  11  24  40  66  89 106 148 194 242 303 345
#     4  10  22  39  55  84 121 151 193 239 289 350
#     4  11  22  37  59  87 121 155 190 239 290 347
#
# _framework density 18.797384000000001
#
# number of rings (size 3 to 8) (size 9 to 14) (size 15 to 20)
#    0.000    1.667    4.167    0.500    3.500    1.667 
#    0.000    1.667    0.000    1.000    0.000    0.000 
#    0.000    0.000    0.000    0.000    0.000    0.000 
#
# Total GULP energy -595225.327168 kJ/mol
# GULP energy per Si atom -12400.527649 kJ/mol
# Density = 1.875460 g / cm^3
# Si number density = 18.797384 Si / 1000 Ang^3
#
#
#
# Elastic Constant Matrix: (Units=GPa)
#
#
# Indices 1 2 3 4 5 6 
#
# 1 73.3291 30.6397 49.6108 0.0000 0.0000 0.0000
# 2 30.6397 141.2974 66.0048 0.0000 0.0000 0.0000
# 3 49.6108 66.0048 132.9397 0.0000 0.0000 0.0000
# 4 0.0000 0.0000 0.0000 25.9717 0.0000 0.0000
# 5 0.0000 0.0000 0.0000 0.0000 21.8392 0.0000
# 6 0.0000 0.0000 0.0000 0.0000 0.0000 11.1095
#
#
#
# Elastic Compliance Matrix: (Units=1/GPa)
#
#
# Indices 1 2 3 4 5 6 
#
# 1 0.018354 -0.001016 -0.006345 0.000000 0.000000 0.000000
# 2 -0.001016 0.009271 -0.004224 0.000000 0.000000 0.000000
# 3 -0.006345 -0.004224 0.011987 0.000000 0.000000 0.000000
# 4 0.000000 0.000000 0.000000 0.038503 0.000000 0.000000
# 5 0.000000 0.000000 0.000000 0.000000 0.045789 0.000000
# 6 0.000000 0.000000 0.000000 0.000000 0.000000 0.090013
#
#
# Mechanical properties :
#
#
# Convention : Reuss Voigt Hill
#
# Bulk Modulus (GPa) = 60.81792 71.11966 65.96879
# Shear Modulus (GPa) = 20.61271 25.20480 22.90875
#
# Velocity S-wave (km/s) = 3.31505 3.66576 3.49480
# Velocity P-wave (km/s) = 6.86130 7.47222 7.17327
#
# Compressibility (1/GPa) = 0.01644252
#
# Stress axis : x y z
#
# Youngs Moduli (GPa) = 54.48263 107.86745 83.42263
#
# Poissons Ratio (x) = 0.10960 0.52932
# Poissons Ratio (y) = 0.05536 0.35235
# Poissons Ratio (z) = 0.34570 0.45560
#
# Static dielectric constant tensor:
#      x y z
#    x 3.354660 0.000000 0.000000 
#    y 0.000000 3.720230 0.000000 
#    z 0.000000 0.000000 3.169140 
# 
# 
# High freq. dielectric constant tensor:
#      x y z
#    x 1.732520 0.000000 0.000000 
#    y 0.000000 1.736280 0.000000 
#    z 0.000000 0.000000 1.696190 
# 
# From -- ./inp_files/67297.got.cif
#   From: 2010.03.12/outbox.cif.g09.slc.cpg/sg63_34_cif.got.tgz:67297.got - 2010.04.10 19:34:48.
