data_PCOD8257463
_publ_section_title
;
Structure prediction by ZEFSAII (Michael W. Deem and Ramdas Pophale) SiO2 
 PCOD8257463
Probable space group: C M C M
;
_chemical_formula_sum "Si O2"
_cell_formula_units_Z 96
_cell_length_a 28.377950
_cell_length_b 19.878061
_cell_length_c 9.152626
_cell_angle_alpha 90.000000
_cell_angle_beta 90.000000
_cell_angle_gamma 90.000000
_cell_volume 5162.983707
_symmetry_space_group_name_H-M "C M C M"
_symmetry_group_IT_number 63
_symmetry_cell_setting 'orthorhombic'
loop_
_space_group_symop_operation_xyz
x,y,z
-x,-y,1/2+z
x,-y,-z
-x,y,1/2-z
-x,-y,-z
x,y,1/2-z
-x,y,z
x,-y,1/2+z
1/2+x,1/2+y,z
1/2-x,1/2-y,1/2+z
1/2+x,1/2-y,-z
1/2-x,1/2+y,1/2-z
1/2-x,1/2-y,-z
1/2+x,1/2+y,1/2-z
1/2-x,1/2+y,z
1/2+x,1/2-y,1/2+z
loop_
_atom_site_type_symbol
_atom_site_label
_atom_site_fract_x
_atom_site_fract_y
_atom_site_fract_z
Si Si1 0.099465 0.197465 0.576774
Si Si2 0.055253 0.662866 0.421935
Si Si3 0.555562 0.562347 0.587551
Si Si4 0.304457 0.690259 0.087667
Si Si5 0.628404 0.928728 0.075705
Si Si6 0.280297 0.154496 0.911824
O O1 0.101441 0.199951 0.750000
O O2 0.074942 0.265609 0.520149
O O3 0.069217 0.134203 0.518677
O O4 0.151241 0.186918 0.516970
O O5 0.065043 0.653231 0.250000
O O6 0.081074 0.604462 0.511896
O O7 0.000000 0.658788 0.456635
O O8 0.578109 0.500000 0.500000
O O9 0.576383 0.557434 0.750000
O O10 0.500000 0.556420 0.588077
O O11 0.316443 0.663377 0.250000
O O12 0.288550 0.766618 0.097027
O O13 0.263362 0.642478 0.021431
O O14 0.623447 0.936110 0.250000
O O15 0.673092 0.883018 0.030246
O O16 0.635881 0.000000 0.000000
O O17 0.267424 0.127229 0.750000
#
# Coordination Sequence:
#
# PCOD8257463 Si02
#       6
#    16  16  16  16  16  16
#     4  10  19  33  55  82 113 147 182 227 279 329
#     4  10  21  37  58  84 112 146 191 238 284 336
#     4   9  18  33  52  75 105 143 184 223 267 322
#     4  10  19  32  55  84 111 137 175 222 270 324
#     4  11  23  40  60  83 113 149 189 234 285 339
#     4   9  19  36  55  79 109 140 176 219 269 326
#
# _framework density 18.593900999999999
#
# number of rings (size 3 to 8) (size 9 to 14) (size 15 to 20)
#    0.000    2.167    1.667    1.500    0.000    5.333 
#    0.000    0.833    0.000    3.000    0.000    0.000 
#    0.000    0.000    0.000    0.000    0.000    0.000 
#
# Total GULP energy -595106.062717 kJ/mol
# GULP energy per Si atom -12398.042973 kJ/mol
# Density = 1.855158 g / cm^3
# Si number density = 18.593901 Si / 1000 Ang^3
#
#
#
# Elastic Constant Matrix: (Units=GPa)
#
#
# Indices 1 2 3 4 5 6 
#
# 1 101.2180 39.2975 33.5203 0.0000 0.0000 0.0000
# 2 39.2975 66.6639 31.0250 0.0000 0.0000 0.0000
# 3 33.5203 31.0250 38.6771 0.0000 0.0000 0.0000
# 4 0.0000 0.0000 0.0000 24.9307 0.0000 0.0000
# 5 0.0000 0.0000 0.0000 0.0000 29.0415 0.0000
# 6 0.0000 0.0000 0.0000 0.0000 0.0000 17.2251
#
#
#
# Elastic Compliance Matrix: (Units=1/GPa)
#
#
# Indices 1 2 3 4 5 6 
#
# 1 0.014603 -0.004337 -0.009176 0.000000 0.000000 0.000000
# 2 -0.004337 0.025225 -0.016475 0.000000 0.000000 0.000000
# 3 -0.009176 -0.016475 0.047024 0.000000 0.000000 0.000000
# 4 0.000000 0.000000 0.000000 0.040111 0.000000 0.000000
# 5 0.000000 0.000000 0.000000 0.000000 0.034434 0.000000
# 6 0.000000 0.000000 0.000000 0.000000 0.000000 0.058055
#
#
# Mechanical properties :
#
#
# Convention : Reuss Voigt Hill
#
# Bulk Modulus (GPa) = 37.21177 46.02719 41.61948
# Shear Modulus (GPa) = 17.33787 21.08720 19.21253
#
# Velocity S-wave (km/s) = 3.05692 3.37128 3.21794
# Velocity P-wave (km/s) = 5.70228 6.32153 6.01987
#
# Compressibility (1/GPa) = 0.02687322
#
# Stress axis : x y z
#
# Youngs Moduli (GPa) = 68.48102 39.64333 21.26592
#
# Poissons Ratio (x) = 0.17195 0.19514
# Poissons Ratio (y) = 0.29703 0.35036
# Poissons Ratio (z) = 0.62841 0.65313
#
# Static dielectric constant tensor:
#      x y z
#    x 3.418410 0.000000 0.000000 
#    y 0.000000 3.489180 0.000000 
#    z 0.000000 0.000000 3.589160 
# 
# 
# High freq. dielectric constant tensor:
#      x y z
#    x 1.720420 0.000000 0.000000 
#    y 0.000000 1.711260 0.000000 
#    z 0.000000 0.000000 1.720260 
# 
# From -- ./inp_files/12384.got.cif
#   From: 2010.03.12/outbox.cif.g09.slc.cpg/sg63_7_cif.got.tgz:12384.got - 2010.04.10 19:34:48.
