data_PCOD8257627
_publ_section_title
;
Structure prediction by ZEFSAII (Michael W. Deem and Ramdas Pophale) SiO2 
 PCOD8257627
Probable space group: C M C M
;
_chemical_formula_sum "Si O2"
_cell_formula_units_Z 112
_cell_length_a 12.599491
_cell_length_b 14.828465
_cell_length_c 31.838585
_cell_angle_alpha 90.000000
_cell_angle_beta 90.000000
_cell_angle_gamma 90.000000
_cell_volume 5948.438218
_symmetry_space_group_name_H-M "C M C M"
_symmetry_group_IT_number 63
_symmetry_cell_setting 'orthorhombic'
loop_
_space_group_symop_operation_xyz
x,y,z
-x,-y,1/2+z
x,-y,-z
-x,y,1/2-z
-x,-y,-z
x,y,1/2-z
-x,y,z
x,-y,1/2+z
1/2+x,1/2+y,z
1/2-x,1/2-y,1/2+z
1/2+x,1/2-y,-z
1/2-x,1/2+y,1/2-z
1/2-x,1/2-y,-z
1/2+x,1/2+y,1/2-z
1/2-x,1/2+y,z
1/2+x,1/2-y,1/2+z
loop_
_atom_site_type_symbol
_atom_site_label
_atom_site_fract_x
_atom_site_fract_y
_atom_site_fract_z
Si Si1 0.624543 0.815189 0.651159
Si Si2 0.272142 0.630263 0.655056
Si Si3 0.621113 0.457908 0.415451
Si Si4 0.383025 0.181816 0.914109
Si Si5 0.231427 0.600153 0.985507
Si Si6 0.121750 0.497353 0.701008
Si Si7 0.267679 0.644360 0.076537
O O1 0.500000 0.792582 0.651323
O O2 0.690808 0.729745 0.670701
O O3 0.661699 0.832652 0.603219
O O4 0.650646 0.903554 0.678304
O O5 0.373933 0.586505 0.631225
O O6 0.188258 0.626774 0.617633
O O7 0.213041 0.572408 0.691163
O O8 0.500000 0.481111 0.426102
O O9 0.665583 0.397259 0.454352
O O10 0.693636 0.545572 0.412939
O O11 0.500000 0.163060 0.898854
O O12 0.367079 0.143467 0.960967
O O13 0.360558 0.287754 0.910590
O O14 0.201679 0.500000 0.000000
O O15 0.248118 0.659765 0.027096
O O16 0.129219 0.477810 0.750000
O O17 0.000000 0.527824 0.689414
#
# Coordination Sequence:
#
# PCOD8257627 Si02
#       7
#    16  16  16  16  16  16  16
#     4  10  21  37  60  88 117 151 192 234 282 342
#     4  10  20  37  57  85 114 149 186 236 278 336
#     4  10  19  33  54  78 109 150 192 237 287 335
#     4  10  20  32  49  73 104 142 187 233 282 332
#     4   9  20  33  46  72 106 142 193 238 281 334
#     4  10  21  39  64  90 115 148 185 225 282 346
#     4  10  19  34  51  77 108 148 191 237 280 333
#
# _framework density 18.828472000000001
#
# number of rings (size 3 to 8) (size 9 to 14) (size 15 to 20)
#    0.000    2.143    1.429    1.714    0.000    4.571 
#    0.000    0.000    0.000    1.286    0.000    0.000 
#    0.000    0.000    0.000    0.000    0.000    0.000 
#
# Total GULP energy -693989.000611 kJ/mol
# GULP energy per Si atom -12392.660725 kJ/mol
# Density = 1.878562 g / cm^3
# Si number density = 18.828472 Si / 1000 Ang^3
#
#
#
# Elastic Constant Matrix: (Units=GPa)
#
#
# Indices 1 2 3 4 5 6 
#
# 1 96.2508 37.5577 28.7714 0.0000 0.0000 0.0000
# 2 37.5577 75.5455 29.4754 0.0000 0.0000 0.0000
# 3 28.7714 29.4754 76.1518 0.0000 0.0000 0.0000
# 4 0.0000 0.0000 0.0000 21.1909 0.0000 0.0000
# 5 0.0000 0.0000 0.0000 0.0000 18.3715 0.0000
# 6 0.0000 0.0000 0.0000 0.0000 0.0000 21.5826
#
#
#
# Elastic Compliance Matrix: (Units=1/GPa)
#
#
# Indices 1 2 3 4 5 6 
#
# 1 0.013424 -0.005530 -0.002931 0.000000 0.000000 0.000000
# 2 -0.005530 0.017870 -0.004827 0.000000 0.000000 0.000000
# 3 -0.002931 -0.004827 0.016108 0.000000 0.000000 0.000000
# 4 0.000000 0.000000 0.000000 0.047190 0.000000 0.000000
# 5 0.000000 0.000000 0.000000 0.000000 0.054432 0.000000
# 6 0.000000 0.000000 0.000000 0.000000 0.000000 0.046334
#
#
# Mechanical properties :
#
#
# Convention : Reuss Voigt Hill
#
# Bulk Modulus (GPa) = 48.02177 48.83967 48.43072
# Shear Modulus (GPa) = 21.84600 22.37192 22.10896
#
# Velocity S-wave (km/s) = 3.40996 3.45076 3.43042
# Velocity P-wave (km/s) = 6.40812 6.47090 6.43959
#
# Compressibility (1/GPa) = 0.02082389
#
# Stress axis : x y z
#
# Youngs Moduli (GPa) = 74.49609 55.96047 62.08232
#
# Poissons Ratio (x) = 0.30945 0.18198
# Poissons Ratio (y) = 0.41195 0.29970
# Poissons Ratio (z) = 0.21837 0.27014
#
# Static dielectric constant tensor:
#      x y z
#    x 3.436490 0.000000 0.000000 
#    y 0.000000 3.522140 0.000000 
#    z 0.000000 0.000000 3.459700 
# 
# 
# High freq. dielectric constant tensor:
#      x y z
#    x 1.719640 0.000000 0.000000 
#    y 0.000000 1.740900 0.000000 
#    z 0.000000 0.000000 1.715870 
# 
# From -- ./inp_files/72849.got.cif
#   From: 2010.03.12/outbox.cif.g09.slc.cpg/sg63_37_cif.got.tgz:72849.got - 2010.04.10 19:34:48.
