data_PCOD8257208
_publ_section_title
;
Structure prediction by ZEFSAII (Michael W. Deem and Ramdas Pophale) SiO2 
 PCOD8257208
Probable space group: C M C M
;
_chemical_formula_sum "Si O2"
_cell_formula_units_Z 88
_cell_length_a 27.122108
_cell_length_b 18.389559
_cell_length_c 9.454996
_cell_angle_alpha 90.000000
_cell_angle_beta 90.000000
_cell_angle_gamma 90.000000
_cell_volume 4715.807893
_symmetry_space_group_name_H-M "C M C M"
_symmetry_group_IT_number 63
_symmetry_cell_setting 'orthorhombic'
loop_
_space_group_symop_operation_xyz
x,y,z
-x,-y,1/2+z
x,-y,-z
-x,y,1/2-z
-x,-y,-z
x,y,1/2-z
-x,y,z
x,-y,1/2+z
1/2+x,1/2+y,z
1/2-x,1/2-y,1/2+z
1/2+x,1/2-y,-z
1/2-x,1/2+y,1/2-z
1/2-x,1/2-y,-z
1/2+x,1/2+y,1/2-z
1/2-x,1/2+y,z
1/2+x,1/2-y,1/2+z
loop_
_atom_site_type_symbol
_atom_site_label
_atom_site_fract_x
_atom_site_fract_y
_atom_site_fract_z
Si Si1 0.338699 0.856213 0.088610
Si Si2 0.554146 0.816196 0.088615
Si Si3 0.083088 0.181152 0.912831
Si Si4 0.000000 0.931917 0.094309
Si Si5 0.758052 0.429051 0.583344
Si Si6 0.675590 0.688048 0.088671
O O1 0.326822 0.878953 0.250000
O O2 0.397632 0.865687 0.057581
O O3 0.318778 0.774301 0.060832
O O4 0.311633 0.910300 0.980945
O O5 0.558755 0.788222 0.250000
O O6 0.500000 0.854862 0.066382
O O7 0.556012 0.748127 0.985936
O O8 0.092126 0.201612 0.750000
O O9 0.048879 0.112770 0.933794
O O10 0.134078 0.158282 0.984553
O O11 0.000000 0.963265 0.250000
O O12 0.000000 0.000000 0.000000
O O13 0.737320 0.500000 0.500000
O O14 0.762380 0.446221 0.750000
O O15 0.724393 0.358199 0.554596
O O16 0.659079 0.674934 0.250000
#
# Coordination Sequence:
#
# PCOD8257208 Si02
#       6
#    16  16  16   8  16  16
#     4   9  18  34  56  83 111 138 176 221 264 319
#     4   9  17  31  54  81 108 138 169 208 262 317
#     4  10  19  32  49  73 103 131 170 221 264 306
#     4  10  22  34  44  64  96 136 177 216 259 308
#     4  11  23  38  56  78 108 144 181 222 271 325
#     4   9  20  37  56  79 105 138 180 221 267 322
#
# _framework density 18.660641999999999
#
# number of rings (size 3 to 8) (size 9 to 14) (size 15 to 20)
#    0.000    2.364    0.909    2.727    0.000    6.545 
#    0.000    3.636    0.000    0.545    0.000    0.000 
#    0.000    0.000    0.000    0.000    0.000    0.000 
#
# Total GULP energy -545310.859203 kJ/mol
# GULP energy per Si atom -12393.428618 kJ/mol
# Density = 1.861817 g / cm^3
# Si number density = 18.660642 Si / 1000 Ang^3
#
#
#
# Elastic Constant Matrix: (Units=GPa)
#
#
# Indices 1 2 3 4 5 6 
#
# 1 105.7942 16.5557 40.0028 0.0000 0.0000 0.0000
# 2 16.5557 36.0374 24.2827 0.0000 0.0000 0.0000
# 3 40.0028 24.2827 92.6692 0.0000 0.0000 0.0000
# 4 0.0000 0.0000 0.0000 30.6777 0.0000 0.0000
# 5 0.0000 0.0000 0.0000 0.0000 26.2275 0.0000
# 6 0.0000 0.0000 0.0000 0.0000 0.0000 22.2805
#
#
#
# Elastic Compliance Matrix: (Units=1/GPa)
#
#
# Indices 1 2 3 4 5 6 
#
# 1 0.011457 -0.002345 -0.004331 0.000000 0.000000 0.000000
# 2 -0.002345 0.034179 -0.007944 0.000000 0.000000 0.000000
# 3 -0.004331 -0.007944 0.014742 0.000000 0.000000 0.000000
# 4 0.000000 0.000000 0.000000 0.032597 0.000000 0.000000
# 5 0.000000 0.000000 0.000000 0.000000 0.038128 0.000000
# 6 0.000000 0.000000 0.000000 0.000000 0.000000 0.044882
#
#
# Mechanical properties :
#
#
# Convention : Reuss Voigt Hill
#
# Bulk Modulus (GPa) = 32.11485 44.02035 38.06760
# Shear Modulus (GPa) = 23.19056 26.08112 24.63584
#
# Velocity S-wave (km/s) = 3.52909 3.74258 3.63740
# Velocity P-wave (km/s) = 5.81836 6.50515 6.17132
#
# Compressibility (1/GPa) = 0.03113824
#
# Stress axis : x y z
#
# Youngs Moduli (GPa) = 87.28308 29.25772 67.83183
#
# Poissons Ratio (x) = 0.06861 0.29379
# Poissons Ratio (y) = 0.20467 0.53885
# Poissons Ratio (z) = 0.37804 0.23242
#
# Static dielectric constant tensor:
#      x y z
#    x 3.607500 0.000000 0.000000 
#    y 0.000000 3.075830 0.000000 
#    z 0.000000 0.000000 3.527050 
# 
# 
# High freq. dielectric constant tensor:
#      x y z
#    x 1.734260 0.000000 0.000000 
#    y 0.000000 1.688610 0.000000 
#    z 0.000000 0.000000 1.734330 
# 
# From -- ./inp_files/14174.got.cif
#   From: 2010.03.12/outbox.cif.g09.slc.cpg/sg63_8_cif.got.tgz:14174.got - 2010.04.10 19:34:48.
