data_PCOD8257171
_publ_section_title
;
Structure prediction by ZEFSAII (Michael W. Deem and Ramdas Pophale) SiO2 
 PCOD8257171
Probable space group: C M C M
;
_chemical_formula_sum "Si O2"
_cell_formula_units_Z 80
_cell_length_a 28.791073
_cell_length_b 9.253190
_cell_length_c 15.625661
_cell_angle_alpha 90.000000
_cell_angle_beta 90.000000
_cell_angle_gamma 90.000000
_cell_volume 4162.820921
_symmetry_space_group_name_H-M "C M C M"
_symmetry_group_IT_number 63
_symmetry_cell_setting 'orthorhombic'
loop_
_space_group_symop_operation_xyz
x,y,z
-x,-y,1/2+z
x,-y,-z
-x,y,1/2-z
-x,-y,-z
x,y,1/2-z
-x,y,z
x,-y,1/2+z
1/2+x,1/2+y,z
1/2-x,1/2-y,1/2+z
1/2+x,1/2-y,-z
1/2-x,1/2+y,1/2-z
1/2-x,1/2-y,-z
1/2+x,1/2+y,1/2-z
1/2-x,1/2+y,z
1/2+x,1/2-y,1/2+z
loop_
_atom_site_type_symbol
_atom_site_label
_atom_site_fract_x
_atom_site_fract_y
_atom_site_fract_z
Si Si1 0.380430 0.863155 0.654817
Si Si2 0.785389 0.555349 0.406812
Si Si3 0.708269 0.253377 0.845356
Si Si4 0.447936 0.828340 0.990705
Si Si5 0.104317 0.296498 0.154866
O O1 0.388276 0.797952 0.750000
O O2 0.326863 0.841850 0.627233
O O3 0.414652 0.782082 0.588168
O O4 0.390613 0.032229 0.655188
O O5 0.799529 0.500000 0.500000
O O6 0.738585 0.650570 0.410352
O O7 0.778049 0.415215 0.348183
O O8 0.719249 0.308417 0.750000
O O9 0.653982 0.275076 0.867005
O O10 0.500000 0.773837 0.971203
O O11 0.431318 0.752868 0.079559
O O12 0.446819 0.000000 0.000000
O O13 0.087046 0.246781 0.250000
#
# Coordination Sequence:
#
# PCOD8257171 Si02
#       5
#    16  16  16  16  16
#     4   9  16  27  41  58  85 120 154 190 237 285
#     4  11  20  31  48  70  96 129 165 202 242 289
#     4  10  19  32  48  68  96 129 163 198 241 293
#     4   9  16  25  38  58  84 114 151 191 230 280
#     4   8  15  27  42  60  86 119 151 188 236 285
#
# _framework density 19.217737
#
# number of rings (size 3 to 8) (size 9 to 14) (size 15 to 20)
#    0.000    2.600    0.000    6.600    0.000    0.800 
#    0.000    4.000    0.000    0.000    0.000    0.000 
#    0.000    7.200    0.000   11.200    0.000   20.200 
#
# Total GULP energy -495807.434922 kJ/mol
# GULP energy per Si atom -12395.185873 kJ/mol
# Density = 1.917400 g / cm^3
# Si number density = 19.217737 Si / 1000 Ang^3
#
#
#
# Elastic Constant Matrix: (Units=GPa)
#
#
# Indices 1 2 3 4 5 6 
#
# 1 124.2233 23.6239 75.0064 0.0000 0.0000 0.0000
# 2 23.6239 16.5932 9.2060 0.0000 0.0000 0.0000
# 3 75.0064 9.2060 154.8553 0.0000 0.0000 0.0000
# 4 0.0000 0.0000 0.0000 6.4295 0.0000 0.0000
# 5 0.0000 0.0000 0.0000 0.0000 28.6955 0.0000
# 6 0.0000 0.0000 0.0000 0.0000 0.0000 15.8900
#
#
#
# Elastic Compliance Matrix: (Units=1/GPa)
#
#
# Indices 1 2 3 4 5 6 
#
# 1 0.015384 -0.018374 -0.006359 0.000000 0.000000 0.000000
# 2 -0.018374 0.084267 0.003890 0.000000 0.000000 0.000000
# 3 -0.006359 0.003890 0.009306 0.000000 0.000000 0.000000
# 4 0.000000 0.000000 0.000000 0.155534 0.000000 0.000000
# 5 0.000000 0.000000 0.000000 0.000000 0.034849 0.000000
# 6 0.000000 0.000000 0.000000 0.000000 0.000000 0.062933
#
#
# Mechanical properties :
#
#
# Convention : Reuss Voigt Hill
#
# Bulk Modulus (GPa) = 14.86518 56.81606 35.84062
# Shear Modulus (GPa) = 11.72655 22.72535 17.22595
#
# Velocity S-wave (km/s) = 2.47289 3.44251 2.99717
# Velocity P-wave (km/s) = 3.98817 6.74016 5.53784
#
# Compressibility (1/GPa) = 0.06727129
#
# Stress axis : x y z
#
# Youngs Moduli (GPa) = 65.00278 11.86702 107.45184
#
# Poissons Ratio (x) = 0.21805 0.68330
# Poissons Ratio (y) = 1.19438 -0.41801
# Poissons Ratio (z) = 0.41336 -0.04617
#
# Static dielectric constant tensor:
#      x y z
#    x 3.580680 0.000000 0.000000 
#    y 0.000000 2.771100 0.000000 
#    z 0.000000 0.000000 3.868890 
# 
# 
# High freq. dielectric constant tensor:
#      x y z
#    x 1.743460 0.000000 0.000000 
#    y 0.000000 1.663620 0.000000 
#    z 0.000000 0.000000 1.766630 
# 
# From -- ./inp_files/36436.got.cif
#   From: 2010.03.12/outbox.cif.g09.slc.cpg/sg63_19_cif.got.tgz:36436.got - 2010.04.10 19:34:48.
