data_PCOD8257842
_publ_section_title
;
Structure prediction by ZEFSAII (Michael W. Deem and Ramdas Pophale) SiO2 
 PCOD8257842
Probable space group: C M C M
;
_chemical_formula_sum "Si O2"
_cell_formula_units_Z 96
_cell_length_a 8.877909
_cell_length_b 23.419171
_cell_length_c 25.771773
_cell_angle_alpha 90.000000
_cell_angle_beta 90.000000
_cell_angle_gamma 90.000000
_cell_volume 5358.293572
_symmetry_space_group_name_H-M "C M C M"
_symmetry_group_IT_number 63
_symmetry_cell_setting 'orthorhombic'
loop_
_space_group_symop_operation_xyz
x,y,z
-x,-y,1/2+z
x,-y,-z
-x,y,1/2-z
-x,-y,-z
x,y,1/2-z
-x,y,z
x,-y,1/2+z
1/2+x,1/2+y,z
1/2-x,1/2-y,1/2+z
1/2+x,1/2-y,-z
1/2-x,1/2+y,1/2-z
1/2-x,1/2-y,-z
1/2+x,1/2+y,1/2-z
1/2-x,1/2+y,z
1/2+x,1/2-y,1/2+z
loop_
_atom_site_type_symbol
_atom_site_label
_atom_site_fract_x
_atom_site_fract_y
_atom_site_fract_z
Si Si1 0.178816 0.364832 0.154240
Si Si2 0.327110 0.438404 0.750000
Si Si3 0.823270 0.247361 0.810422
Si Si4 0.821473 0.372585 0.657559
Si Si5 0.321134 0.935625 0.057197
Si Si6 0.826452 0.927018 0.250000
Si Si7 0.821137 0.436499 0.557377
O O1 0.234206 0.299905 0.157190
O O2 0.238717 0.391137 0.099948
O O3 0.247649 0.402278 0.199642
O O4 0.000000 0.366847 0.158536
O O5 0.500000 0.419632 0.750000
O O6 0.248963 0.414662 0.800927
O O7 0.307225 0.505770 0.750000
O O8 0.780613 0.242671 0.750000
O O9 0.768187 0.308108 0.832288
O O10 0.000000 0.238673 0.818899
O O11 0.762876 0.392233 0.600831
O O12 0.000000 0.377337 0.663131
O O13 0.500000 0.936283 0.057919
O O14 0.261540 0.999548 0.069872
O O15 0.263688 0.917037 0.999737
O O16 0.000000 0.907524 0.250000
O O17 0.000000 0.437456 0.557708
#
# Coordination Sequence:
#
# PCOD8257842 Si02
#       7
#    16   8  16  16  16   8  16
#     4  11  21  33  53  78 101 131 175 216 251 299
#     4  11  23  34  49  76 109 136 158 205 270 311
#     4  10  20  35  51  70 102 140 174 211 257 302
#     4  10  19  34  56  77  98 134 181 214 242 300
#     4   8  15  28  48  79 108 127 157 209 264 302
#     4  11  23  36  49  72 107 138 164 203 260 315
#     4   8  14  28  52  77 103 131 161 206 259 303
#
# _framework density 17.916152
#
# number of rings (size 3 to 8) (size 9 to 14) (size 15 to 20)
#    0.000    2.333    1.667    3.000    0.000    3.333 
#    0.000    0.833    0.000    2.000    0.000    8.167 
#    0.000    0.000    0.000    0.000    0.000    0.000 
#
# Total GULP energy -595105.446217 kJ/mol
# GULP energy per Si atom -12398.030130 kJ/mol
# Density = 1.787537 g / cm^3
# Si number density = 17.916152 Si / 1000 Ang^3
#
#
#
# Elastic Constant Matrix: (Units=GPa)
#
#
# Indices 1 2 3 4 5 6 
#
# 1 33.2906 22.7817 22.4293 0.0000 0.0000 0.0000
# 2 22.7817 94.8507 59.4155 0.0000 0.0000 0.0000
# 3 22.4293 59.4155 138.0986 0.0000 0.0000 0.0000
# 4 0.0000 0.0000 0.0000 27.7762 0.0000 0.0000
# 5 0.0000 0.0000 0.0000 0.0000 -44.2090 0.0000
# 6 0.0000 0.0000 0.0000 0.0000 0.0000 25.6010
#
#
#
# Elastic Compliance Matrix: (Units=1/GPa)
#
#
# Indices 1 2 3 4 5 6 
#
# 1 0.036820 -0.006978 -0.002978 0.000000 0.000000 0.000000
# 2 -0.006978 0.015755 -0.005645 0.000000 0.000000 0.000000
# 3 -0.002978 -0.005645 0.010154 0.000000 0.000000 0.000000
# 4 0.000000 0.000000 0.000000 0.036002 0.000000 0.000000
# 5 0.000000 0.000000 0.000000 0.000000 -0.022620 0.000000
# 6 0.000000 0.000000 0.000000 0.000000 0.000000 0.039061
#
#
# Mechanical properties :
#
#
# Convention : Reuss Voigt Hill
#
# Bulk Modulus (GPa) = 31.71935 52.83252 42.27594
# Shear Modulus (GPa) = 31.87081 12.60787 22.23934
#
# Velocity S-wave (km/s) = 4.22226 2.65564 3.52703
# Velocity P-wave (km/s) = 6.44304 6.24148 6.34306
#
# Compressibility (1/GPa) = 0.03152649
#
# Stress axis : x y z
#
# Youngs Moduli (GPa) = 27.15898 63.47146 98.48738
#
# Poissons Ratio (x) = 0.44292 0.29328
# Poissons Ratio (y) = 0.18952 0.55597
# Poissons Ratio (z) = 0.08087 0.35830
#
# Static dielectric constant tensor:
#      x y z
#    x 3.042180 0.000000 0.000000 
#    y 0.000000 3.470670 0.000000 
#    z 0.000000 0.000000 3.214630 
# 
# 
# High freq. dielectric constant tensor:
#      x y z
#    x 1.662080 0.000000 0.000000 
#    y 0.000000 1.697150 0.000000 
#    z 0.000000 0.000000 1.701340 
# 
# From -- ./inp_files/67295.got.cif
#   From: 2010.03.12/outbox.cif.g09.slc.cpg/sg63_34_cif.got.tgz:67295.got - 2010.04.10 19:34:48.
