data_PCOD8257565
_publ_section_title
;
Structure prediction by ZEFSAII (Michael W. Deem and Ramdas Pophale) SiO2 
 PCOD8257565
Probable space group: C M C M
;
_chemical_formula_sum "Si O2"
_cell_formula_units_Z 72
_cell_length_a 15.655278
_cell_length_b 27.752991
_cell_length_c 8.982901
_cell_angle_alpha 90.000000
_cell_angle_beta 90.000000
_cell_angle_gamma 90.000000
_cell_volume 3902.897918
_symmetry_space_group_name_H-M "C M C M"
_symmetry_group_IT_number 63
_symmetry_cell_setting 'orthorhombic'
loop_
_space_group_symop_operation_xyz
x,y,z
-x,-y,1/2+z
x,-y,-z
-x,y,1/2-z
-x,-y,-z
x,y,1/2-z
-x,y,z
x,-y,1/2+z
1/2+x,1/2+y,z
1/2-x,1/2-y,1/2+z
1/2+x,1/2-y,-z
1/2-x,1/2+y,1/2-z
1/2-x,1/2-y,-z
1/2+x,1/2+y,1/2-z
1/2-x,1/2+y,z
1/2+x,1/2-y,1/2+z
loop_
_atom_site_type_symbol
_atom_site_label
_atom_site_fract_x
_atom_site_fract_y
_atom_site_fract_z
Si Si1 0.670016 0.612018 0.421251
Si Si2 0.829704 0.773988 0.921228
Si Si3 0.000000 0.773714 0.081926
Si Si4 0.000000 0.549702 0.579815
Si Si5 0.500000 0.611667 0.918203
Si Si6 0.185155 0.552179 0.925372
O O1 0.669498 0.596009 0.250000
O O2 0.677635 0.668999 0.438462
O O3 0.583368 0.592347 0.496356
O O4 0.749644 0.589391 0.504786
O O5 0.831727 0.758097 0.750000
O O6 0.750000 0.750000 0.000000
O O7 0.916117 0.754432 0.997701
O O8 0.000000 0.753549 0.250000
O O9 0.000000 0.831023 0.081307
O O10 0.000000 0.500000 0.500000
O O11 0.090366 0.575641 0.541926
O O12 0.000000 0.535547 0.750000
O O13 0.500000 0.591539 0.750000
O O14 0.202624 0.546999 0.750000
O O15 0.195364 0.500000 0.000000
#
# Coordination Sequence:
#
# PCOD8257565 Si02
#       6
#    16  16   8   8   8  16
#     4  10  20  34  52  76 104 134 168 208 252 300
#     4  10  20  34  53  76 103 135 172 212 254 301
#     4   9  17  31  52  75 100 131 169 209 252 306
#     4   8  16  30  49  72  97 128 166 203 241 290
#     4   9  17  31  52  75  98 131 170 206 247 300
#     4  10  19  33  53  76 102 133 169 209 252 300
#
# _framework density 18.44783
#
# number of rings (size 3 to 8) (size 9 to 14) (size 15 to 20)
#    0.000    2.444    0.000    2.667    0.000    6.222 
#    0.000    1.667    0.000    5.333    0.000    0.000 
#    0.000    0.000    0.000    0.000    0.000    0.000 
#
# Total GULP energy -446215.385734 kJ/mol
# GULP energy per Si atom -12394.871826 kJ/mol
# Density = 1.840584 g / cm^3
# Si number density = 18.447830 Si / 1000 Ang^3
#
#
#
# Elastic Constant Matrix: (Units=GPa)
#
#
# Indices 1 2 3 4 5 6 
#
# 1 203.8902 33.4189 104.5348 0.0000 0.0000 0.0000
# 2 33.4189 18.2873 32.0722 0.0000 0.0000 0.0000
# 3 104.5348 32.0722 164.2137 0.0000 0.0000 0.0000
# 4 0.0000 0.0000 0.0000 26.7780 0.0000 0.0000
# 5 0.0000 0.0000 0.0000 0.0000 38.6716 0.0000
# 6 0.0000 0.0000 0.0000 0.0000 0.0000 19.8480
#
#
#
# Elastic Compliance Matrix: (Units=1/GPa)
#
#
# Indices 1 2 3 4 5 6 
#
# 1 0.008111 -0.008772 -0.003450 0.000000 0.000000 0.000000
# 2 -0.008772 0.092658 -0.012513 0.000000 0.000000 0.000000
# 3 -0.003450 -0.012513 0.010730 0.000000 0.000000 0.000000
# 4 0.000000 0.000000 0.000000 0.037344 0.000000 0.000000
# 5 0.000000 0.000000 0.000000 0.000000 0.025859 0.000000
# 6 0.000000 0.000000 0.000000 0.000000 0.000000 0.050383
#
#
# Mechanical properties :
#
#
# Convention : Reuss Voigt Hill
#
# Bulk Modulus (GPa) = 16.12149 80.71588 48.41868
# Shear Modulus (GPa) = 16.93591 31.48386 24.20988
#
# Velocity S-wave (km/s) = 3.03321 4.13564 3.62656
# Velocity P-wave (km/s) = 4.58531 8.16414 6.62111
#
# Compressibility (1/GPa) = 0.06202900
#
# Stress axis : x y z
#
# Youngs Moduli (GPa) = 123.28446 10.79242 93.19813
#
# Poissons Ratio (x) = 0.09467 0.32156
# Poissons Ratio (y) = 1.08143 1.16617
# Poissons Ratio (z) = 0.42537 0.13504
#
# Static dielectric constant tensor:
#      x y z
#    x 4.259600 0.000000 0.000000 
#    y 0.000000 2.891910 0.000000 
#    z 0.000000 0.000000 3.664550 
# 
# 
# High freq. dielectric constant tensor:
#      x y z
#    x 1.741050 0.000000 0.000000 
#    y 0.000000 1.662710 0.000000 
#    z 0.000000 0.000000 1.737010 
# 
# From -- ./inp_files/4997.got.cif
#   From: 2010.03.12/outbox.cif.g09.slc.cpg/sg63_3_cif.got.tgz:4997.got - 2010.04.10 19:34:48.
