data_PCOD8257745
_publ_section_title
;
Structure prediction by ZEFSAII (Michael W. Deem and Ramdas Pophale) SiO2 
 PCOD8257745
Probable space group: C M C M
;
_chemical_formula_sum "Si O2"
_cell_formula_units_Z 96
_cell_length_a 12.389272
_cell_length_b 18.746472
_cell_length_c 19.907800
_cell_angle_alpha 90.000000
_cell_angle_beta 90.000000
_cell_angle_gamma 90.000000
_cell_volume 4623.688889
_symmetry_space_group_name_H-M "C M C M"
_symmetry_group_IT_number 63
_symmetry_cell_setting 'orthorhombic'
loop_
_space_group_symop_operation_xyz
x,y,z
-x,-y,1/2+z
x,-y,-z
-x,y,1/2-z
-x,-y,-z
x,y,1/2-z
-x,y,z
x,-y,1/2+z
1/2+x,1/2+y,z
1/2-x,1/2-y,1/2+z
1/2+x,1/2-y,-z
1/2-x,1/2+y,1/2-z
1/2-x,1/2-y,-z
1/2+x,1/2+y,1/2-z
1/2-x,1/2+y,z
1/2+x,1/2-y,1/2+z
loop_
_atom_site_type_symbol
_atom_site_label
_atom_site_fract_x
_atom_site_fract_y
_atom_site_fract_z
Si Si1 0.118053 0.096753 0.372576
Si Si2 0.739630 0.026734 0.925622
Si Si3 0.374631 0.868212 0.171880
Si Si4 0.169638 0.151243 0.989375
Si Si5 0.880554 0.699765 0.444399
Si Si6 0.760662 0.778256 0.823705
O O1 0.105582 0.137227 0.442979
O O2 0.151466 0.157876 0.319552
O O3 0.000000 0.065790 0.352137
O O4 0.208872 0.035843 0.380766
O O5 0.652004 0.065498 0.877711
O O6 0.835916 0.082748 0.940820
O O7 0.695029 0.000000 0.000000
O O8 0.347670 0.887237 0.250000
O O9 0.500000 0.850500 0.164106
O O10 0.310736 0.796391 0.148836
O O11 0.109628 0.216081 0.955108
O O12 0.298628 0.164980 0.002319
O O13 0.835235 0.690968 0.369438
O O14 0.000000 0.664855 0.450473
O O15 0.713607 0.764627 0.750000
#
# Coordination Sequence:
#
# PCOD8257745 Si02
#       6
#    16  16  16  16  16  16
#     4  10  21  36  59  86 115 152 189 238 304 356
#     4  10  21  38  57  88 123 152 194 247 301 362
#     4  10  21  39  62  84 113 159 206 250 301 356
#     4   9  19  35  52  85 119 150 187 234 288 353
#     4  10  19  33  57  86 117 151 189 241 297 342
#     4  10  21  39  60  86 117 149 201 254 293 357
#
# _framework density 20.762642
#
# number of rings (size 3 to 8) (size 9 to 14) (size 15 to 20)
#    0.000    2.167    1.667    1.000    0.000    6.667 
#    0.000    6.667    0.000    0.000    0.000    0.000 
#    0.000    0.000    0.000    0.000    0.000    0.000 
#
# Total GULP energy -594697.015124 kJ/mol
# GULP energy per Si atom -12389.521148 kJ/mol
# Density = 2.071539 g / cm^3
# Si number density = 20.762642 Si / 1000 Ang^3
#
#
#
# Elastic Constant Matrix: (Units=GPa)
#
#
# Indices 1 2 3 4 5 6 
#
# 1 107.3449 13.9542 18.8631 0.0000 0.0000 0.0000
# 2 13.9542 99.7555 22.4334 0.0000 0.0000 0.0000
# 3 18.8631 22.4334 66.0227 0.0000 0.0000 0.0000
# 4 0.0000 0.0000 0.0000 33.1042 0.0000 0.0000
# 5 0.0000 0.0000 0.0000 0.0000 10.1269 0.0000
# 6 0.0000 0.0000 0.0000 0.0000 0.0000 17.6345
#
#
#
# Elastic Compliance Matrix: (Units=1/GPa)
#
#
# Indices 1 2 3 4 5 6 
#
# 1 0.009868 -0.000808 -0.002545 0.000000 0.000000 0.000000
# 2 -0.000808 0.010920 -0.003480 0.000000 0.000000 0.000000
# 3 -0.002545 -0.003480 0.017056 0.000000 0.000000 0.000000
# 4 0.000000 0.000000 0.000000 0.030208 0.000000 0.000000
# 5 0.000000 0.000000 0.000000 0.000000 0.098747 0.000000
# 6 0.000000 0.000000 0.000000 0.000000 0.000000 0.056707
#
#
# Mechanical properties :
#
#
# Convention : Reuss Voigt Hill
#
# Bulk Modulus (GPa) = 41.35849 42.62494 41.99172
# Shear Modulus (GPa) = 20.38903 26.69795 23.54349
#
# Velocity S-wave (km/s) = 3.13710 3.58979 3.37105
# Velocity P-wave (km/s) = 5.75193 6.14461 5.95151
#
# Compressibility (1/GPa) = 0.02417883
#
# Stress axis : x y z
#
# Youngs Moduli (GPa) = 101.33777 91.57465 58.63160
#
# Poissons Ratio (x) = 0.07400 0.14920
# Poissons Ratio (y) = 0.08189 0.20401
# Poissons Ratio (z) = 0.25788 0.31864
#
# Static dielectric constant tensor:
#      x y z
#    x 3.534030 0.000000 0.000000 
#    y 0.000000 3.869710 0.000000 
#    z 0.000000 0.000000 3.699330 
# 
# 
# High freq. dielectric constant tensor:
#      x y z
#    x 1.785930 0.000000 0.000000 
#    y 0.000000 1.815860 0.000000 
#    z 0.000000 0.000000 1.805660 
# 
# From -- ./inp_files/52879.got.cif
#   From: 2010.03.12/outbox.cif.g09.slc.cpg/sg63_27_cif.got.tgz:52879.got - 2010.04.10 19:34:48.
