data_PCOD8257138
_publ_section_title
;
Structure prediction by ZEFSAII (Michael W. Deem and Ramdas Pophale) SiO2 
 PCOD8257138
Probable space group: C M C M
;
_chemical_formula_sum "Si O2"
_cell_formula_units_Z 96
_cell_length_a 23.524842
_cell_length_b 23.439704
_cell_length_c 8.838697
_cell_angle_alpha 90.000000
_cell_angle_beta 90.000000
_cell_angle_gamma 90.000000
_cell_volume 4873.793051
_symmetry_space_group_name_H-M "C M C M"
_symmetry_group_IT_number 63
_symmetry_cell_setting 'orthorhombic'
loop_
_space_group_symop_operation_xyz
x,y,z
-x,-y,1/2+z
x,-y,-z
-x,y,1/2-z
-x,-y,-z
x,y,1/2-z
-x,y,z
x,-y,1/2+z
1/2+x,1/2+y,z
1/2-x,1/2-y,1/2+z
1/2+x,1/2-y,-z
1/2-x,1/2+y,1/2-z
1/2-x,1/2-y,-z
1/2+x,1/2+y,1/2-z
1/2-x,1/2+y,z
1/2+x,1/2-y,1/2+z
loop_
_atom_site_type_symbol
_atom_site_label
_atom_site_fract_x
_atom_site_fract_y
_atom_site_fract_z
Si Si1 0.000000 0.381504 0.914497
Si Si2 0.664861 0.363666 0.928170
Si Si3 0.063506 0.939979 0.571017
Si Si4 0.621557 0.127010 0.069292
Si Si5 0.884198 0.747624 0.928168
Si Si6 0.768041 0.438839 0.570534
Si Si7 0.500000 0.746724 0.917812
O O1 0.939676 0.396850 0.995892
O O2 0.000000 0.314080 0.897682
O O3 0.000000 0.411338 0.750000
O O4 0.665172 0.371472 0.750000
O O5 0.608433 0.394232 0.992994
O O6 0.662455 0.296388 0.968881
O O7 0.721667 0.393659 0.992912
O O8 0.067121 0.946160 0.750000
O O9 0.000000 0.921070 0.520639
O O10 0.080409 0.000000 0.500000
O O11 0.617654 0.133205 0.250000
O O12 0.670058 0.083198 0.017999
O O13 0.636179 0.189249 0.004699
O O14 0.889977 0.737885 0.750000
O O15 0.944292 0.771238 0.989191
O O16 0.755595 0.500000 0.500000
O O17 0.765126 0.444224 0.750000
O O18 0.500000 0.718635 0.750000
#
# Coordination Sequence:
#
# PCOD8257138 Si02
#       7
#     8  16  16  16  16  16   8
#     4   7  12  27  50  72  96 130 163 194 243 309
#     4   9  19  33  50  74 104 138 176 219 270 320
#     4   9  17  30  48  67  93 130 171 217 265 309
#     4   9  18  34  55  77 107 141 174 215 271 325
#     4  10  19  31  52  80 108 141 180 219 260 319
#     4  10  21  38  57  76 101 139 181 225 274 325
#     4   9  17  31  49  74 111 146 175 210 259 313
#
# _framework density 19.697184
#
# number of rings (size 3 to 8) (size 9 to 14) (size 15 to 20)
#    0.000    2.833    0.000    2.250    1.167    1.333 
#    0.000    3.750    0.000    0.000    0.000    0.000 
#    0.000    0.000    0.000    0.000    0.000    0.000 
#
# Total GULP energy -594806.120979 kJ/mol
# GULP energy per Si atom -12391.794187 kJ/mol
# Density = 1.965235 g / cm^3
# Si number density = 19.697184 Si / 1000 Ang^3
#
#
#
# Elastic Constant Matrix: (Units=GPa)
#
#
# Indices 1 2 3 4 5 6 
#
# 1 116.1623 36.6460 15.5076 0.0000 0.0000 0.0000
# 2 36.6460 60.6437 13.7311 0.0000 0.0000 0.0000
# 3 15.5076 13.7311 34.0362 0.0000 0.0000 0.0000
# 4 0.0000 0.0000 0.0000 26.2982 0.0000 0.0000
# 5 0.0000 0.0000 0.0000 0.0000 16.4875 0.0000
# 6 0.0000 0.0000 0.0000 0.0000 0.0000 34.5778
#
#
#
# Elastic Compliance Matrix: (Units=1/GPa)
#
#
# Indices 1 2 3 4 5 6 
#
# 1 0.010830 -0.005973 -0.002525 0.000000 0.000000 0.000000
# 2 -0.005973 0.021441 -0.005929 0.000000 0.000000 0.000000
# 3 -0.002525 -0.005929 0.032923 0.000000 0.000000 0.000000
# 4 0.000000 0.000000 0.000000 0.038025 0.000000 0.000000
# 5 0.000000 0.000000 0.000000 0.000000 0.060652 0.000000
# 6 0.000000 0.000000 0.000000 0.000000 0.000000 0.028920
#
#
# Mechanical properties :
#
#
# Convention : Reuss Voigt Hill
#
# Bulk Modulus (GPa) = 27.51676 38.06796 32.79236
# Shear Modulus (GPa) = 21.38964 25.13652 23.26308
#
# Velocity S-wave (km/s) = 3.29891 3.57620 3.44035
# Velocity P-wave (km/s) = 5.33954 6.03497 5.69787
#
# Compressibility (1/GPa) = 0.03634149
#
# Stress axis : x y z
#
# Youngs Moduli (GPa) = 92.33679 46.63885 30.37424
#
# Poissons Ratio (x) = 0.27856 0.07669
# Poissons Ratio (y) = 0.55150 0.18008
# Poissons Ratio (z) = 0.23313 0.27651
#
# Static dielectric constant tensor:
#      x y z
#    x 4.143440 0.000000 0.000000 
#    y 0.000000 3.466590 0.000000 
#    z 0.000000 0.000000 3.307260 
# 
# 
# High freq. dielectric constant tensor:
#      x y z
#    x 1.778710 0.000000 0.000000 
#    y 0.000000 1.752070 0.000000 
#    z 0.000000 0.000000 1.734950 
# 
# From -- ./inp_files/10575.got.cif
#   From: 2010.03.12/outbox.cif.g09.slc.cpg/sg63_6_cif.got.tgz:10575.got - 2010.04.10 19:34:48.
