data_PCOD8257803
_publ_section_title
;
Structure prediction by ZEFSAII (Michael W. Deem and Ramdas Pophale) SiO2 
 PCOD8257803
Probable space group: C M C M
;
_chemical_formula_sum "Si O2"
_cell_formula_units_Z 96
_cell_length_a 20.808661
_cell_length_b 21.402506
_cell_length_c 11.086515
_cell_angle_alpha 90.000000
_cell_angle_beta 90.000000
_cell_angle_gamma 90.000000
_cell_volume 4937.462514
_symmetry_space_group_name_H-M "C M C M"
_symmetry_group_IT_number 63
_symmetry_cell_setting 'orthorhombic'
loop_
_space_group_symop_operation_xyz
x,y,z
-x,-y,1/2+z
x,-y,-z
-x,y,1/2-z
-x,-y,-z
x,y,1/2-z
-x,y,z
x,-y,1/2+z
1/2+x,1/2+y,z
1/2-x,1/2-y,1/2+z
1/2+x,1/2-y,-z
1/2-x,1/2+y,1/2-z
1/2-x,1/2-y,-z
1/2+x,1/2+y,1/2-z
1/2-x,1/2+y,z
1/2+x,1/2-y,1/2+z
loop_
_atom_site_type_symbol
_atom_site_label
_atom_site_fract_x
_atom_site_fract_y
_atom_site_fract_z
Si Si1 0.269962 0.539226 0.616582
Si Si2 0.928323 0.198211 0.113471
Si Si3 0.380503 0.960385 0.384113
Si Si4 0.072356 0.334516 0.031935
Si Si5 0.811703 0.167323 0.540620
Si Si6 0.189840 0.304799 0.617325
O O1 0.295345 0.500000 0.500000
O O2 0.282925 0.507961 0.750000
O O3 0.194773 0.551356 0.599585
O O4 0.306443 0.605620 0.621270
O O5 0.922146 0.175374 0.250000
O O6 0.914329 0.272428 0.110076
O O7 0.000000 0.183907 0.063361
O O8 0.876451 0.160327 0.037078
O O9 0.394269 0.990564 0.250000
O O10 0.416819 0.894245 0.383616
O O11 0.406132 0.000000 0.500000
O O12 0.000000 0.334633 0.979525
O O13 0.122974 0.335989 0.922799
O O14 0.815403 0.229655 0.620251
O O15 0.748475 0.170085 0.459585
O O16 0.203355 0.329621 0.750000
#
# Coordination Sequence:
#
# PCOD8257803 Si02
#       6
#    16  16  16  16  16  16
#     4  10  21  37  57  82 113 147 185 230 277 326
#     4   9  18  32  53  82 112 141 176 221 274 333
#     4  10  21  37  54  76 106 146 192 239 280 321
#     4  10  20  35  52  74 107 148 188 227 272 326
#     4  10  19  34  54  81 107 142 177 226 273 334
#     4  10  20  32  51  80 110 141 181 229 278 328
#
# _framework density 19.443186000000001
#
# number of rings (size 3 to 8) (size 9 to 14) (size 15 to 20)
#    0.000    2.167    1.667    1.500    0.000    3.667 
#    0.000    0.000    0.000    2.000    0.000    0.000 
#    0.000    0.000    0.000    0.000    0.000    0.000 
#
# Total GULP energy -594899.528796 kJ/mol
# GULP energy per Si atom -12393.740183 kJ/mol
# Density = 1.939893 g / cm^3
# Si number density = 19.443186 Si / 1000 Ang^3
#
#
#
# Elastic Constant Matrix: (Units=GPa)
#
#
# Indices 1 2 3 4 5 6 
#
# 1 95.5248 16.9599 34.6749 0.0000 0.0000 0.0000
# 2 16.9599 53.4623 28.1554 0.0000 0.0000 0.0000
# 3 34.6749 28.1554 122.1807 0.0000 0.0000 0.0000
# 4 0.0000 0.0000 0.0000 19.3568 0.0000 0.0000
# 5 0.0000 0.0000 0.0000 0.0000 6.8516 0.0000
# 6 0.0000 0.0000 0.0000 0.0000 0.0000 22.7208
#
#
#
# Elastic Compliance Matrix: (Units=1/GPa)
#
#
# Indices 1 2 3 4 5 6 
#
# 1 0.011909 -0.002274 -0.002856 0.000000 0.000000 0.000000
# 2 -0.002274 0.021723 -0.004360 0.000000 0.000000 0.000000
# 3 -0.002856 -0.004360 0.010000 0.000000 0.000000 0.000000
# 4 0.000000 0.000000 0.000000 0.051661 0.000000 0.000000
# 5 0.000000 0.000000 0.000000 0.000000 0.145952 0.000000
# 6 0.000000 0.000000 0.000000 0.000000 0.000000 0.044012
#
#
# Mechanical properties :
#
#
# Convention : Reuss Voigt Hill
#
# Bulk Modulus (GPa) = 40.56614 47.86090 44.21352
# Shear Modulus (GPa) = 16.00235 22.54435 19.27335
#
# Velocity S-wave (km/s) = 2.87196 3.40884 3.15185
# Velocity P-wave (km/s) = 5.64861 6.33741 6.00290
#
# Compressibility (1/GPa) = 0.02465110
#
# Stress axis : x y z
#
# Youngs Moduli (GPa) = 83.97140 46.03521 100.00128
#
# Poissons Ratio (x) = 0.10468 0.28558
# Poissons Ratio (y) = 0.19094 0.43605
# Poissons Ratio (z) = 0.23980 0.20073
#
# Static dielectric constant tensor:
#      x y z
#    x 3.553800 0.000000 0.000000 
#    y 0.000000 3.352850 0.000000 
#    z 0.000000 0.000000 3.535400 
# 
# 
# High freq. dielectric constant tensor:
#      x y z
#    x 1.746050 0.000000 0.000000 
#    y 0.000000 1.732870 0.000000 
#    z 0.000000 0.000000 1.754570 
# 
# From -- ./inp_files/22794.got.cif
#   From: 2010.03.12/outbox.cif.g09.slc.cpg/sg63_12_cif.got.tgz:22794.got - 2010.04.10 19:34:48.
