data_PCOD8257150
_publ_section_title
;
Structure prediction by ZEFSAII (Michael W. Deem and Ramdas Pophale) SiO2 
 PCOD8257150
Probable space group: C M C M
;
_chemical_formula_sum "Si O2"
_cell_formula_units_Z 96
_cell_length_a 19.204001
_cell_length_b 12.440093
_cell_length_c 22.042115
_cell_angle_alpha 90.000000
_cell_angle_beta 90.000000
_cell_angle_gamma 90.000000
_cell_volume 5265.851540
_symmetry_space_group_name_H-M "C M C M"
_symmetry_group_IT_number 63
_symmetry_cell_setting 'orthorhombic'
loop_
_space_group_symop_operation_xyz
x,y,z
-x,-y,1/2+z
x,-y,-z
-x,y,1/2-z
-x,-y,-z
x,y,1/2-z
-x,y,z
x,-y,1/2+z
1/2+x,1/2+y,z
1/2-x,1/2-y,1/2+z
1/2+x,1/2-y,-z
1/2-x,1/2+y,1/2-z
1/2-x,1/2-y,-z
1/2+x,1/2+y,1/2-z
1/2-x,1/2+y,z
1/2+x,1/2-y,1/2+z
loop_
_atom_site_type_symbol
_atom_site_label
_atom_site_fract_x
_atom_site_fract_y
_atom_site_fract_z
Si Si1 0.921891 0.202118 0.613887
Si Si2 0.817671 0.355383 0.821299
Si Si3 0.919044 0.123771 0.015451
Si Si4 0.800331 0.407778 0.319155
Si Si5 0.328982 0.310496 0.628636
Si Si6 0.355162 0.473923 0.318573
O O1 0.879968 0.283960 0.655281
O O2 0.903630 0.198989 0.542741
O O3 0.912346 0.080933 0.638861
O O4 0.000000 0.239244 0.622969
O O5 0.799448 0.331482 0.750000
O O6 0.840504 0.479672 0.828295
O O7 0.753854 0.328381 0.866136
O O8 0.000000 0.136745 0.036615
O O9 0.862908 0.165994 0.063704
O O10 0.903419 0.000000 0.000000
O O11 0.801081 0.369931 0.250000
O O12 0.841263 0.315082 0.355968
O O13 0.720246 0.427503 0.339371
O O14 0.361958 0.397065 0.675187
O O15 0.370292 0.441870 0.250000
#
# Coordination Sequence:
#
# PCOD8257150 Si02
#       6
#    16  16  16  16  16  16
#     4  11  22  38  58  81 114 158 202 240 284 344
#     4  10  21  37  58  88 122 153 191 241 299 352
#     4  10  22  40  57  80 117 157 195 243 298 345
#     4   9  18  34  55  83 119 150 179 233 299 351
#     4  11  19  34  61  84 114 154 194 237 293 353
#     4  10  19  31  53  86 115 144 188 241 294 346
#
# _framework density 18.230668999999999
#
# number of rings (size 3 to 8) (size 9 to 14) (size 15 to 20)
#    0.000    1.833    3.333    3.000    0.000    2.000 
#    0.000    1.667    0.000    7.000    0.000    0.000 
#    0.000    0.000    0.000    0.000    0.000    0.000 
#
# Total GULP energy -594781.444427 kJ/mol
# GULP energy per Si atom -12391.280092 kJ/mol
# Density = 1.818918 g / cm^3
# Si number density = 18.230669 Si / 1000 Ang^3
#
#
#
# Elastic Constant Matrix: (Units=GPa)
#
#
# Indices 1 2 3 4 5 6 
#
# 1 70.7868 37.9129 64.5033 0.0000 0.0000 0.0000
# 2 37.9129 119.9541 45.1485 0.0000 0.0000 0.0000
# 3 64.5033 45.1485 96.7978 0.0000 0.0000 0.0000
# 4 0.0000 0.0000 0.0000 29.2573 0.0000 0.0000
# 5 0.0000 0.0000 0.0000 0.0000 23.4727 0.0000
# 6 0.0000 0.0000 0.0000 0.0000 0.0000 16.8575
#
#
#
# Elastic Compliance Matrix: (Units=1/GPa)
#
#
# Indices 1 2 3 4 5 6 
#
# 1 0.036786 -0.002911 -0.023155 0.000000 0.000000 0.000000
# 2 -0.002911 0.010342 -0.002884 0.000000 0.000000 0.000000
# 3 -0.023155 -0.002884 0.027106 0.000000 0.000000 0.000000
# 4 0.000000 0.000000 0.000000 0.034180 0.000000 0.000000
# 5 0.000000 0.000000 0.000000 0.000000 0.042603 0.000000
# 6 0.000000 0.000000 0.000000 0.000000 0.000000 0.059321
#
#
# Mechanical properties :
#
#
# Convention : Reuss Voigt Hill
#
# Bulk Modulus (GPa) = 61.22469 64.74091 62.98280
# Shear Modulus (GPa) = 18.26934 23.24909 20.75922
#
# Velocity S-wave (km/s) = 3.16906 3.57497 3.37812
# Velocity P-wave (km/s) = 6.85907 7.25464 7.05963
#
# Compressibility (1/GPa) = 0.01633328
#
# Stress axis : x y z
#
# Youngs Moduli (GPa) = 27.18405 96.69242 36.89235
#
# Poissons Ratio (x) = 0.28152 0.85426
# Poissons Ratio (y) = 0.07915 0.10638
# Poissons Ratio (z) = 0.62946 0.27883
#
# Static dielectric constant tensor:
#      x y z
#    x 3.166550 0.000000 0.000000 
#    y 0.000000 3.586990 0.000000 
#    z 0.000000 0.000000 3.303580 
# 
# 
# High freq. dielectric constant tensor:
#      x y z
#    x 1.679340 0.000000 0.000000 
#    y 0.000000 1.716440 0.000000 
#    z 0.000000 0.000000 1.699740 
# 
# From -- ./inp_files/56562.got.cif
#   From: 2010.03.12/outbox.cif.g09.slc.cpg/sg63_29_cif.got.tgz:56562.got - 2010.04.10 19:34:48.
