data_PCOD8257488
_publ_section_title
;
Structure prediction by ZEFSAII (Michael W. Deem and Ramdas Pophale) SiO2 
 PCOD8257488
Probable space group: C M C M
;
_chemical_formula_sum "Si O2"
_cell_formula_units_Z 80
_cell_length_a 10.736289
_cell_length_b 12.946251
_cell_length_c 30.316300
_cell_angle_alpha 90.000000
_cell_angle_beta 90.000000
_cell_angle_gamma 90.000000
_cell_volume 4213.804787
_symmetry_space_group_name_H-M "C M C M"
_symmetry_group_IT_number 63
_symmetry_cell_setting 'orthorhombic'
loop_
_space_group_symop_operation_xyz
x,y,z
-x,-y,1/2+z
x,-y,-z
-x,y,1/2-z
-x,-y,-z
x,y,1/2-z
-x,y,z
x,-y,1/2+z
1/2+x,1/2+y,z
1/2-x,1/2-y,1/2+z
1/2+x,1/2-y,-z
1/2-x,1/2+y,1/2-z
1/2-x,1/2-y,-z
1/2+x,1/2+y,1/2-z
1/2-x,1/2+y,z
1/2+x,1/2-y,1/2+z
loop_
_atom_site_type_symbol
_atom_site_label
_atom_site_fract_x
_atom_site_fract_y
_atom_site_fract_z
Si Si1 0.293068 0.761862 0.431162
Si Si2 0.138092 0.388245 0.511899
Si Si3 0.140823 0.089547 0.873631
Si Si4 0.358662 0.754287 0.801064
Si Si5 0.359485 0.636888 0.149697
O O1 0.214897 0.665352 0.449462
O O2 0.374301 0.811873 0.469857
O O3 0.208684 0.854739 0.413676
O O4 0.373001 0.717097 0.390800
O O5 0.198343 0.500000 0.500000
O O6 0.000000 0.407653 0.530571
O O7 0.158401 0.147908 0.827243
O O8 0.000000 0.086831 0.889268
O O9 0.188793 0.973400 0.867480
O O10 0.340392 0.728765 0.750000
O O11 0.500000 0.798990 0.809716
O O12 0.248026 0.831084 0.815773
O O13 0.500000 0.630091 0.170880
#
# Coordination Sequence:
#
# PCOD8257488 Si02
#       5
#    16  16  16  16  16
#     4  10  19  33  50  71 101 134 169 211 257 299
#     4  10  20  32  48  71  99 133 172 211 252 300
#     4   9  18  33  53  75 100 135 174 207 249 307
#     4   9  19  36  55  76 104 136 168 202 246 306
#     4  10  20  34  54  79 104 131 169 216 258 296
#
# _framework density 18.985216999999999
#
# number of rings (size 3 to 8) (size 9 to 14) (size 15 to 20)
#    0.000    2.400    0.000    2.400    0.000    2.000 
#    0.000    7.000    0.000    9.600    0.000    0.000 
#    0.000    0.000    0.000    0.000    0.000    0.000 
#
# Total GULP energy -495743.987913 kJ/mol
# GULP energy per Si atom -12393.599698 kJ/mol
# Density = 1.894201 g / cm^3
# Si number density = 18.985217 Si / 1000 Ang^3
#
#
#
# Elastic Constant Matrix: (Units=GPa)
#
#
# Indices 1 2 3 4 5 6 
#
# 1 80.8382 27.7945 22.7445 0.0000 0.0000 0.0000
# 2 27.7945 92.6943 5.1520 0.0000 0.0000 0.0000
# 3 22.7445 5.1520 63.2375 0.0000 0.0000 0.0000
# 4 0.0000 0.0000 0.0000 23.6377 0.0000 0.0000
# 5 0.0000 0.0000 0.0000 0.0000-1974.4849 0.0000
# 6 0.0000 0.0000 0.0000 0.0000 0.0000 27.7491
#
#
#
# Elastic Compliance Matrix: (Units=1/GPa)
#
#
# Indices 1 2 3 4 5 6 
#
# 1 0.015299 -0.004301 -0.005152 0.000000 0.000000 0.000000
# 2 -0.004301 0.012046 0.000566 0.000000 0.000000 0.000000
# 3 -0.005152 0.000566 0.017620 0.000000 0.000000 0.000000
# 4 0.000000 0.000000 0.000000 0.042305 0.000000 0.000000
# 5 0.000000 0.000000 0.000000 0.000000 -0.000506 0.000000
# 6 0.000000 0.000000 0.000000 0.000000 0.000000 0.036037
#
#
# Mechanical properties :
#
#
# Convention : Reuss Voigt Hill
#
# Bulk Modulus (GPa) = 36.77771 38.68356 37.73064
# Shear Modulus (GPa) = 33.41350 -372.54768 -169.56709
#
# Velocity S-wave (km/s) = 4.19976 -14.02342 -9.46093
# Velocity P-wave (km/s) = 6.55218 15.54956 9.97140
#
# Compressibility (1/GPa) = 0.02719038
#
# Stress axis : x y z
#
# Youngs Moduli (GPa) = 65.36472 83.01251 56.75252
#
# Poissons Ratio (x) = 0.35704 0.29239
# Poissons Ratio (y) = 0.28113 -0.03209
# Poissons Ratio (z) = 0.33676 -0.04694
#
# Static dielectric constant tensor:
#      x y z
#    x 3.415360 0.000000 0.000000 
#    y 0.000000 3.551660 0.000000 
#    z 0.000000 0.000000 3.337790 
# 
# 
# High freq. dielectric constant tensor:
#      x y z
#    x 1.735200 0.000000 0.000000 
#    y 0.000000 1.741710 0.000000 
#    z 0.000000 0.000000 1.728320 
# 
# From -- ./inp_files/72478.got.cif
#   From: 2010.03.12/outbox.cif.g09.slc.cpg/sg63_37_cif.got.tgz:72478.got - 2010.04.10 19:34:48.
