data_PCOD8257505
_publ_section_title
;
Structure prediction by ZEFSAII (Michael W. Deem and Ramdas Pophale) SiO2 
 PCOD8257505
Probable space group: C M C M
;
_chemical_formula_sum "Si O2"
_cell_formula_units_Z 80
_cell_length_a 28.831556
_cell_length_b 19.724280
_cell_length_c 7.689492
_cell_angle_alpha 90.000000
_cell_angle_beta 90.000000
_cell_angle_gamma 90.000000
_cell_volume 4372.873255
_symmetry_space_group_name_H-M "C M C M"
_symmetry_group_IT_number 63
_symmetry_cell_setting 'orthorhombic'
loop_
_space_group_symop_operation_xyz
x,y,z
-x,-y,1/2+z
x,-y,-z
-x,y,1/2-z
-x,-y,-z
x,y,1/2-z
-x,y,z
x,-y,1/2+z
1/2+x,1/2+y,z
1/2-x,1/2-y,1/2+z
1/2+x,1/2-y,-z
1/2-x,1/2+y,1/2-z
1/2-x,1/2-y,-z
1/2+x,1/2+y,1/2-z
1/2-x,1/2+y,z
1/2+x,1/2-y,1/2+z
loop_
_atom_site_type_symbol
_atom_site_label
_atom_site_fract_x
_atom_site_fract_y
_atom_site_fract_z
Si Si1 0.948426 0.168735 0.750000
Si Si2 0.948534 0.670717 0.250000
Si Si3 0.882999 0.172186 0.056665
Si Si4 0.700603 0.925957 0.452933
Si Si5 0.880011 0.671306 0.952489
Si Si6 0.804069 0.075029 0.954429
O O1 0.952551 0.248887 0.750000
O O2 0.920985 0.143881 0.578632
O O3 0.000000 0.136298 0.750000
O O4 0.922584 0.647067 0.426250
O O5 0.000000 0.638332 0.250000
O O6 0.904495 0.166492 0.250000
O O7 0.869594 0.249751 0.015593
O O8 0.836125 0.129394 0.048918
O O9 0.705946 0.918831 0.250000
O O10 0.665173 0.869050 0.520388
O O11 0.752058 0.915774 0.533004
O O12 0.680734 0.000000 0.500000
O O13 0.891722 0.655490 0.750000
O O14 0.806226 0.088071 0.750000
O O15 0.822263 0.000000 0.000000
#
# Coordination Sequence:
#
# PCOD8257505 Si02
#       6
#     8   8  16  16  16  16
#     4   9  18  34  54  77 104 132 169 216 258 304
#     4   9  18  32  54  79 100 132 173 212 260 310
#     4  10  19  33  53  78 106 136 170 210 260 306
#     4   9  19  33  50  75 104 139 178 211 251 305
#     4   9  19  34  51  77 108 134 169 215 259 303
#     4  10  19  33  51  75 106 139 177 212 249 305
#
# _framework density 18.294608
#
# number of rings (size 3 to 8) (size 9 to 14) (size 15 to 20)
#    0.000    2.600    1.000    0.600    1.400    2.400 
#    0.000    4.000    0.000    1.200    0.000    0.000 
#    0.000    0.000    0.000    0.000    0.000    0.000 
#
# Total GULP energy -495910.166409 kJ/mol
# GULP energy per Si atom -12397.754160 kJ/mol
# Density = 1.825297 g / cm^3
# Si number density = 18.294608 Si / 1000 Ang^3
#
#
#
# Elastic Constant Matrix: (Units=GPa)
#
#
# Indices 1 2 3 4 5 6 
#
# 1 138.4138 60.4545 54.1799 0.0000 0.0000 0.0000
# 2 60.4545 70.0732 30.8687 0.0000 0.0000 0.0000
# 3 54.1799 30.8687 92.7215 0.0000 0.0000 0.0000
# 4 0.0000 0.0000 0.0000 20.8951 0.0000 0.0000
# 5 0.0000 0.0000 0.0000 0.0000 22.5759 0.0000
# 6 0.0000 0.0000 0.0000 0.0000 0.0000 9.6552
#
#
#
# Elastic Compliance Matrix: (Units=1/GPa)
#
#
# Indices 1 2 3 4 5 6 
#
# 1 0.013044 -0.009253 -0.004541 0.000000 0.000000 0.000000
# 2 -0.009253 0.023287 -0.002346 0.000000 0.000000 0.000000
# 3 -0.004541 -0.002346 0.014220 0.000000 0.000000 0.000000
# 4 0.000000 0.000000 0.000000 0.047858 0.000000 0.000000
# 5 0.000000 0.000000 0.000000 0.000000 0.044295 0.000000
# 6 0.000000 0.000000 0.000000 0.000000 0.000000 0.103571
#
#
# Mechanical properties :
#
#
# Convention : Reuss Voigt Hill
#
# Bulk Modulus (GPa) = 54.73445 65.80163 60.26804
# Shear Modulus (GPa) = 17.56577 21.00559 19.28568
#
# Velocity S-wave (km/s) = 3.10201 3.39216 3.25032
# Velocity P-wave (km/s) = 6.54318 7.16856 6.86300
#
# Compressibility (1/GPa) = 0.01827003
#
# Stress axis : x y z
#
# Youngs Moduli (GPa) = 76.66610 42.94283 70.32497
#
# Poissons Ratio (x) = 0.39733 0.31937
# Poissons Ratio (y) = 0.70936 0.16499
# Poissons Ratio (z) = 0.34817 0.10075
#
# Static dielectric constant tensor:
#      x y z
#    x 3.628040 0.000000 0.000000 
#    y 0.000000 3.148730 0.000000 
#    z 0.000000 0.000000 3.469850 
# 
# 
# High freq. dielectric constant tensor:
#      x y z
#    x 1.698420 0.000000 0.000000 
#    y 0.000000 1.682370 0.000000 
#    z 0.000000 0.000000 1.721430 
# 
# From -- ./inp_files/12121.got.cif
#   From: 2010.03.12/outbox.cif.g09.slc.cpg/sg63_7_cif.got.tgz:12121.got - 2010.04.10 19:34:48.
