data_PCOD8257192
_publ_section_title
;
Structure prediction by ZEFSAII (Michael W. Deem and Ramdas Pophale) SiO2 
 PCOD8257192
Probable space group: C M C M
;
_chemical_formula_sum "Si O2"
_cell_formula_units_Z 128
_cell_length_a 18.912959
_cell_length_b 20.862426
_cell_length_c 17.806080
_cell_angle_alpha 90.000000
_cell_angle_beta 90.000000
_cell_angle_gamma 90.000000
_cell_volume 7025.748682
_symmetry_space_group_name_H-M "C M C M"
_symmetry_group_IT_number 63
_symmetry_cell_setting 'orthorhombic'
loop_
_space_group_symop_operation_xyz
x,y,z
-x,-y,1/2+z
x,-y,-z
-x,y,1/2-z
-x,-y,-z
x,y,1/2-z
-x,y,z
x,-y,1/2+z
1/2+x,1/2+y,z
1/2-x,1/2-y,1/2+z
1/2+x,1/2-y,-z
1/2-x,1/2+y,1/2-z
1/2-x,1/2-y,-z
1/2+x,1/2+y,1/2-z
1/2-x,1/2+y,z
1/2+x,1/2-y,1/2+z
loop_
_atom_site_type_symbol
_atom_site_label
_atom_site_fract_x
_atom_site_fract_y
_atom_site_fract_z
Si Si1 0.667800 0.075676 0.419396
Si Si2 0.579019 0.323869 0.339409
Si Si3 0.662651 0.799911 0.838963
Si Si4 0.818188 0.932674 0.336536
Si Si5 0.664529 0.066970 0.593110
Si Si6 0.920940 0.321067 0.338834
Si Si7 0.676618 0.710184 0.163521
Si Si8 0.309630 0.572405 0.164854
O O1 0.631287 0.134580 0.375106
O O2 0.660883 0.088977 0.507253
O O3 0.749500 0.072920 0.397248
O O4 0.635855 0.006041 0.397609
O O5 0.576863 0.325751 0.250000
O O6 0.500000 0.328463 0.372645
O O7 0.614527 0.258299 0.367723
O O8 0.624399 0.383801 0.370464
O O9 0.659639 0.807530 0.750000
O O10 0.742980 0.787372 0.867756
O O11 0.802597 0.915704 0.250000
O O12 0.744970 0.925509 0.380013
O O13 0.851081 0.004980 0.344282
O O14 0.613163 0.110981 0.641490
O O15 0.924772 0.314396 0.250000
O O16 0.874246 0.262897 0.375116
O O17 0.000000 0.316966 0.372812
O O18 0.680545 0.729336 0.250000
O O19 0.644602 0.637638 0.152467
O O20 0.277116 0.575702 0.250000
#
# Coordination Sequence:
#
# PCOD8257192 Si02
#       8
#    16  16  16  16  16  16  16  16
#     4   9  18  31  48  72  95 117 149 194 239 276
#     4   9  17  29  45  69  99 125 153 190 229 269
#     4   9  16  29  50  70  90 121 156 190 228 271
#     4   9  16  28  49  73  96 125 156 187 225 271
#     4  10  19  32  49  70  94 120 152 191 238 281
#     4  10  20  33  48  66  91 124 159 193 228 272
#     4   8  14  27  47  69  90 114 150 192 229 264
#     4   8  14  27  49  74  96 119 151 190 228 269
#
# _framework density 18.218699000000001
#
# number of rings (size 3 to 8) (size 9 to 14) (size 15 to 20)
#    0.000    3.000    0.000    2.250    0.000    3.500 
#    0.000    8.750    0.000    5.250    0.000    7.000 
#    0.000    0.000    0.000    0.000    0.000    0.000 
#
# Total GULP energy -792936.440139 kJ/mol
# GULP energy per Si atom -12389.631877 kJ/mol
# Density = 1.817723 g / cm^3
# Si number density = 18.218699 Si / 1000 Ang^3
#
#
#
# Elastic Constant Matrix: (Units=GPa)
#
#
# Indices 1 2 3 4 5 6 
#
# 1 88.4571 63.4596 11.5763 0.0000 0.0000 0.0000
# 2 63.4596 153.8286 19.3927 0.0000 0.0000 0.0000
# 3 11.5763 19.3927 18.7049 0.0000 0.0000 0.0000
# 4 0.0000 0.0000 0.0000 16.2415 0.0000 0.0000
# 5 0.0000 0.0000 0.0000 0.0000 5.5178 0.0000
# 6 0.0000 0.0000 0.0000 0.0000 0.0000 7.1543
#
#
#
# Elastic Compliance Matrix: (Units=1/GPa)
#
#
# Indices 1 2 3 4 5 6 
#
# 1 0.016262 -0.006258 -0.003577 0.000000 0.000000 0.000000
# 2 -0.006258 0.009886 -0.006377 0.000000 0.000000 0.000000
# 3 -0.003577 -0.006377 0.062287 0.000000 0.000000 0.000000
# 4 0.000000 0.000000 0.000000 0.061571 0.000000 0.000000
# 5 0.000000 0.000000 0.000000 0.000000 0.181233 0.000000
# 6 0.000000 0.000000 0.000000 0.000000 0.000000 0.139775
#
#
# Mechanical properties :
#
#
# Convention : Reuss Voigt Hill
#
# Bulk Modulus (GPa) = 17.85304 49.98307 33.91806
# Shear Modulus (GPa) = 9.57655 16.88685 13.23170
#
# Velocity S-wave (km/s) = 2.29518 3.04780 2.69786
# Velocity P-wave (km/s) = 4.10419 6.31507 5.32562
#
# Compressibility (1/GPa) = 0.05601286
#
# Stress axis : x y z
#
# Youngs Moduli (GPa) = 61.49139 101.15051 16.05473
#
# Poissons Ratio (x) = 0.63299 0.05742
# Poissons Ratio (y) = 0.38481 0.10238
# Poissons Ratio (z) = 0.21993 0.64502
#
# Static dielectric constant tensor:
#      x y z
#    x 3.192430 0.000000 0.000000 
#    y 0.000000 3.915400 0.000000 
#    z 0.000000 0.000000 3.011160 
# 
# 
# High freq. dielectric constant tensor:
#      x y z
#    x 1.662190 0.000000 0.000000 
#    y 0.000000 1.734030 0.000000 
#    z 0.000000 0.000000 1.669850 
# 
# From -- ./inp_files/56046.got.cif
#   From: 2010.03.12/outbox.cif.g09.slc.cpg/sg63_29_cif.got.tgz:56046.got - 2010.04.10 19:34:48.
