data_PCOD8257838
_publ_section_title
;
Structure prediction by ZEFSAII (Michael W. Deem and Ramdas Pophale) SiO2 
 PCOD8257838
Probable space group: C M C M
;
_chemical_formula_sum "Si O2"
_cell_formula_units_Z 80
_cell_length_a 14.129555
_cell_length_b 14.476409
_cell_length_c 19.519979
_cell_angle_alpha 90.000000
_cell_angle_beta 90.000000
_cell_angle_gamma 90.000000
_cell_volume 3992.718344
_symmetry_space_group_name_H-M "C M C M"
_symmetry_group_IT_number 63
_symmetry_cell_setting 'orthorhombic'
loop_
_space_group_symop_operation_xyz
x,y,z
-x,-y,1/2+z
x,-y,-z
-x,y,1/2-z
-x,-y,-z
x,y,1/2-z
-x,y,z
x,-y,1/2+z
1/2+x,1/2+y,z
1/2-x,1/2-y,1/2+z
1/2+x,1/2-y,-z
1/2-x,1/2+y,1/2-z
1/2-x,1/2-y,-z
1/2+x,1/2+y,1/2-z
1/2-x,1/2+y,z
1/2+x,1/2-y,1/2+z
loop_
_atom_site_type_symbol
_atom_site_label
_atom_site_fract_x
_atom_site_fract_y
_atom_site_fract_z
Si Si1 0.388640 0.570423 0.750000
Si Si2 0.251783 0.754609 0.392929
Si Si3 0.252053 0.466251 0.138384
Si Si4 0.891623 0.696575 0.500536
Si Si5 0.683768 0.000000 0.500000
Si Si6 0.390507 0.028811 0.250000
Si Si7 0.693096 0.778082 0.750000
O O1 0.500000 0.560331 0.750000
O O2 0.345967 0.516520 0.816071
O O3 0.358399 0.678578 0.750000
O O4 0.242293 0.862663 0.386170
O O5 0.156427 0.716317 0.427570
O O6 0.343261 0.738000 0.441192
O O7 0.259961 0.709357 0.317224
O O8 0.158051 0.485595 0.182762
O O9 0.248088 0.525220 0.067393
O O10 0.881865 0.587678 0.517857
O O11 0.000000 0.725477 0.496149
O O12 0.500000 0.999825 0.250000
O O13 0.383402 0.140113 0.250000
#
# Coordination Sequence:
#
# PCOD8257838 Si02
#       7
#     8  16  16  16   8   8   8
#     4   9  18  35  55  75 104 145 186 218 256 315
#     4   9  20  36  52  77 113 148 179 214 264 324
#     4   9  20  35  52  77 112 145 174 218 270 322
#     4  10  20  35  57  83 110 142 180 222 271 323
#     4  10  19  34  55  84 116 138 169 228 287 320
#     4  11  22  35  57  87 112 135 172 226 284 329
#     4  10  19  34  57  82 108 138 175 224 271 320
#
# _framework density 20.036474999999999
#
# number of rings (size 3 to 8) (size 9 to 14) (size 15 to 20)
#    0.000    2.400    0.000    2.400    0.000    9.600 
#    0.000    1.000    0.000   24.000    0.000    1.400 
#    0.000    0.000    0.000    0.000    0.000    0.000 
#
# Total GULP energy -495665.037826 kJ/mol
# GULP energy per Si atom -12391.625946 kJ/mol
# Density = 1.999087 g / cm^3
# Si number density = 20.036475 Si / 1000 Ang^3
#
#
#
# Elastic Constant Matrix: (Units=GPa)
#
#
# Indices 1 2 3 4 5 6 
#
# 1 152.0731 37.3957 72.0867 0.0000 0.0000 0.0000
# 2 37.3957 36.5885 13.6092 0.0000 0.0000 0.0000
# 3 72.0867 13.6092 178.0247 0.0000 0.0000 0.0000
# 4 0.0000 0.0000 0.0000 31.7068 0.0000 0.0000
# 5 0.0000 0.0000 0.0000 0.0000 10.9854 0.0000
# 6 0.0000 0.0000 0.0000 0.0000 0.0000 10.7859
#
#
#
# Elastic Compliance Matrix: (Units=1/GPa)
#
#
# Indices 1 2 3 4 5 6 
#
# 1 0.010606 -0.009513 -0.003567 0.000000 0.000000 0.000000
# 2 -0.009513 0.036664 0.001049 0.000000 0.000000 0.000000
# 3 -0.003567 0.001049 0.006982 0.000000 0.000000 0.000000
# 4 0.000000 0.000000 0.000000 0.031539 0.000000 0.000000
# 5 0.000000 0.000000 0.000000 0.000000 0.091030 0.000000
# 6 0.000000 0.000000 0.000000 0.000000 0.000000 0.092713
#
#
# Mechanical properties :
#
#
# Convention : Reuss Voigt Hill
#
# Bulk Modulus (GPa) = 33.12486 68.09661 50.61074
# Shear Modulus (GPa) = 16.46582 26.93529 21.70056
#
# Velocity S-wave (km/s) = 2.86980 3.67046 3.29455
# Velocity P-wave (km/s) = 5.24873 7.21271 6.30763
#
# Compressibility (1/GPa) = 0.03018881
#
# Stress axis : x y z
#
# Youngs Moduli (GPa) = 94.28407 27.27488 143.23476
#
# Poissons Ratio (x) = 0.25947 0.51099
# Poissons Ratio (y) = 0.89695 -0.15031
# Poissons Ratio (z) = 0.33636 -0.02862
#
# Static dielectric constant tensor:
#      x y z
#    x 3.345430 0.000000 0.000000 
#    y 0.000000 3.679230 0.000000 
#    z 0.000000 0.000000 4.550820 
# 
# 
# High freq. dielectric constant tensor:
#      x y z
#    x 1.740650 0.000000 0.000000 
#    y 0.000000 1.776950 0.000000 
#    z 0.000000 0.000000 1.807920 
# 
# From -- ./inp_files/52511.got.cif
#   From: 2010.03.12/outbox.cif.g09.slc.cpg/sg63_27_cif.got.tgz:52511.got - 2010.04.10 19:34:48.
