data_PCOD8257076
_publ_section_title
;
Structure prediction by ZEFSAII (Michael W. Deem and Ramdas Pophale) SiO2 
 PCOD8257076
Probable space group: C M C M
;
_chemical_formula_sum "Si O2"
_cell_formula_units_Z 80
_cell_length_a 9.226097
_cell_length_b 26.797689
_cell_length_c 18.165351
_cell_angle_alpha 90.000000
_cell_angle_beta 90.000000
_cell_angle_gamma 90.000000
_cell_volume 4491.166469
_symmetry_space_group_name_H-M "C M C M"
_symmetry_group_IT_number 63
_symmetry_cell_setting 'orthorhombic'
loop_
_space_group_symop_operation_xyz
x,y,z
-x,-y,1/2+z
x,-y,-z
-x,y,1/2-z
-x,-y,-z
x,y,1/2-z
-x,y,z
x,-y,1/2+z
1/2+x,1/2+y,z
1/2-x,1/2-y,1/2+z
1/2+x,1/2-y,-z
1/2-x,1/2+y,1/2-z
1/2-x,1/2-y,-z
1/2+x,1/2+y,1/2-z
1/2-x,1/2+y,z
1/2+x,1/2-y,1/2+z
loop_
_atom_site_type_symbol
_atom_site_label
_atom_site_fract_x
_atom_site_fract_y
_atom_site_fract_z
Si Si1 0.833059 0.597509 0.472597
Si Si2 0.829730 0.296684 0.034129
Si Si3 0.665947 0.662015 0.665874
Si Si4 0.832197 0.945265 0.396174
Si Si5 0.833811 0.537276 0.332835
O O1 0.789301 0.655074 0.484721
O O2 0.741154 0.560584 0.524058
O O3 0.801329 0.583303 0.387873
O O4 0.000000 0.589437 0.494120
O O5 0.772253 0.304580 0.116783
O O6 0.000000 0.286423 0.036434
O O7 0.750000 0.250000 0.000000
O O8 0.700996 0.674826 0.750000
O O9 0.500000 0.675215 0.645917
O O10 0.695217 0.603737 0.652499
O O11 0.000000 0.955994 0.409486
O O12 0.765889 0.990612 0.351171
O O13 0.800187 0.555853 0.250000
O O14 0.000000 0.519932 0.340746
#
# Coordination Sequence:
#
# PCOD8257076 Si02
#       5
#    16  16  16  16  16
#     4   9  19  35  52  71  97 131 171 209 245 294
#     4  10  20  35  55  76  99 129 167 210 255 303
#     4   9  18  33  52  75 103 132 163 203 251 300
#     4  10  19  31  50  76 104 133 165 202 247 296
#     4  10  20  33  49  70  99 135 171 204 239 285
#
# _framework density 17.812743999999999
#
# number of rings (size 3 to 8) (size 9 to 14) (size 15 to 20)
#    0.000    2.400    0.000    2.400    0.000    6.400 
#    0.000    1.000    0.000    3.600    0.000    0.000 
#    0.000    0.000    0.000    0.000    0.000    0.000 
#
# Total GULP energy -496094.883995 kJ/mol
# GULP energy per Si atom -12402.372100 kJ/mol
# Density = 1.777220 g / cm^3
# Si number density = 17.812744 Si / 1000 Ang^3
#
#
#
# Elastic Constant Matrix: (Units=GPa)
#
#
# Indices 1 2 3 4 5 6 
#
# 1 87.4326 50.8263 61.6909 0.0000 0.0000 0.0000
# 2 50.8263 85.1701 62.5564 0.0000 0.0000 0.0000
# 3 61.6909 62.5564 143.4135 0.0000 0.0000 0.0000
# 4 0.0000 0.0000 0.0000 23.6681 0.0000 0.0000
# 5 0.0000 0.0000 0.0000 0.0000 26.7093 0.0000
# 6 0.0000 0.0000 0.0000 0.0000 0.0000 30.3982
#
#
#
# Elastic Compliance Matrix: (Units=1/GPa)
#
#
# Indices 1 2 3 4 5 6 
#
# 1 0.019603 -0.008100 -0.004899 0.000000 0.000000 0.000000
# 2 -0.008100 0.020623 -0.005511 0.000000 0.000000 0.000000
# 3 -0.004899 -0.005511 0.011484 0.000000 0.000000 0.000000
# 4 0.000000 0.000000 0.000000 0.042251 0.000000 0.000000
# 5 0.000000 0.000000 0.000000 0.000000 0.037440 0.000000
# 6 0.000000 0.000000 0.000000 0.000000 0.000000 0.032897
#
#
# Mechanical properties :
#
#
# Convention : Reuss Voigt Hill
#
# Bulk Modulus (GPa) = 68.07737 74.01815 71.04776
# Shear Modulus (GPa) = 24.24654 25.55131 24.89893
#
# Velocity S-wave (km/s) = 3.69343 3.79151 3.74279
# Velocity P-wave (km/s) = 7.51598 7.79815 7.65836
#
# Compressibility (1/GPa) = 0.01468917
#
# Stress axis : x y z
#
# Youngs Moduli (GPa) = 51.01323 48.48986 87.07474
#
# Poissons Ratio (x) = 0.39275 0.42660
# Poissons Ratio (y) = 0.41319 0.47991
# Poissons Ratio (z) = 0.24993 0.26725
#
# Static dielectric constant tensor:
#      x y z
#    x 3.388930 0.000000 0.000000 
#    y 0.000000 3.157120 0.000000 
#    z 0.000000 0.000000 3.463850 
# 
# 
# High freq. dielectric constant tensor:
#      x y z
#    x 1.695330 0.000000 0.000000 
#    y 0.000000 1.671430 0.000000 
#    z 0.000000 0.000000 1.692100 
# 
# From -- ./inp_files/40439.got.cif
#   From: 2010.03.12/outbox.cif.g09.slc.cpg/sg63_21_cif.got.tgz:40439.got - 2010.04.10 19:34:48.
