data_PCOD8257909
_publ_section_title
;
Structure prediction by ZEFSAII (Michael W. Deem and Ramdas Pophale) SiO2 
 PCOD8257909
Probable space group: C M C M
;
_chemical_formula_sum "Si O2"
_cell_formula_units_Z 96
_cell_length_a 24.586434
_cell_length_b 10.040555
_cell_length_c 18.781216
_cell_angle_alpha 90.000000
_cell_angle_beta 90.000000
_cell_angle_gamma 90.000000
_cell_volume 4636.358080
_symmetry_space_group_name_H-M "C M C M"
_symmetry_group_IT_number 63
_symmetry_cell_setting 'orthorhombic'
loop_
_space_group_symop_operation_xyz
x,y,z
-x,-y,1/2+z
x,-y,-z
-x,y,1/2-z
-x,-y,-z
x,y,1/2-z
-x,y,z
x,-y,1/2+z
1/2+x,1/2+y,z
1/2-x,1/2-y,1/2+z
1/2+x,1/2-y,-z
1/2-x,1/2+y,1/2-z
1/2-x,1/2-y,-z
1/2+x,1/2+y,1/2-z
1/2-x,1/2+y,z
1/2+x,1/2-y,1/2+z
loop_
_atom_site_type_symbol
_atom_site_label
_atom_site_fract_x
_atom_site_fract_y
_atom_site_fract_z
Si Si1 0.875915 0.125384 0.038656
Si Si2 0.438842 0.146516 0.469507
Si Si3 0.752123 0.215941 0.832419
Si Si4 0.623230 0.238677 0.827950
Si Si5 0.938260 0.522495 0.328583
Si Si6 0.757015 0.042047 0.073950
O O1 0.896664 0.143231 0.119862
O O2 0.811140 0.109407 0.041120
O O3 0.891709 0.257524 0.996365
O O4 0.904216 0.000000 0.000000
O O5 0.500000 0.197022 0.489037
O O6 0.431236 0.142694 0.383912
O O7 0.429917 0.000000 0.500000
O O8 0.774446 0.216519 0.750000
O O9 0.687504 0.221287 0.829844
O O10 0.770735 0.082879 0.874323
O O11 0.773497 0.345902 0.877292
O O12 0.601825 0.276923 0.750000
O O13 0.598514 0.099972 0.854122
O O14 0.920925 0.572940 0.250000
O O15 0.000000 0.469981 0.328917
O O16 0.724706 0.000000 0.000000
#
# Coordination Sequence:
#
# PCOD8257909 Si02
#       6
#    16  16  16  16  16  16
#     4  10  21  37  54  83 118 152 187 232 293 348
#     4  10  19  34  58  86 114 150 197 242 283 335
#     4  10  20  37  59  81 111 149 194 244 293 351
#     4   9  18  34  55  80 108 146 189 234 286 345
#     4   9  17  32  56  85 113 141 185 242 289 330
#     4  10  21  39  56  83 114 150 194 242 299 352
#
# _framework density 20.705905999999999
#
# number of rings (size 3 to 8) (size 9 to 14) (size 15 to 20)
#    0.000    2.333    1.667    1.000    0.000    1.000 
#   12.000    0.833    0.000    1.000    0.000    0.000 
#    0.000    0.000    0.000    0.000    0.000    0.000 
#
# Total GULP energy -594662.793641 kJ/mol
# GULP energy per Si atom -12388.808201 kJ/mol
# Density = 2.065878 g / cm^3
# Si number density = 20.705906 Si / 1000 Ang^3
#
#
#
# Elastic Constant Matrix: (Units=GPa)
#
#
# Indices 1 2 3 4 5 6 
#
# 1 23.9790 23.9010 26.5153 0.0000 0.0000 0.0000
# 2 23.9010 100.5132 56.1062 0.0000 0.0000 0.0000
# 3 26.5153 56.1062 144.7917 0.0000 0.0000 0.0000
# 4 0.0000 0.0000 0.0000 46.5179 0.0000 0.0000
# 5 0.0000 0.0000 0.0000 0.0000 21.7025 0.0000
# 6 0.0000 0.0000 0.0000 0.0000 0.0000 67.4646
#
#
#
# Elastic Compliance Matrix: (Units=1/GPa)
#
#
# Indices 1 2 3 4 5 6 
#
# 1 0.059644 -0.010317 -0.006924 0.000000 0.000000 0.000000
# 2 -0.010317 0.014480 -0.003721 0.000000 0.000000 0.000000
# 3 -0.006924 -0.003721 0.009617 0.000000 0.000000 0.000000
# 4 0.000000 0.000000 0.000000 0.021497 0.000000 0.000000
# 5 0.000000 0.000000 0.000000 0.000000 0.046078 0.000000
# 6 0.000000 0.000000 0.000000 0.000000 0.000000 0.014823
#
#
# Mechanical properties :
#
#
# Convention : Reuss Voigt Hill
#
# Bulk Modulus (GPa) = 23.91579 53.59211 38.75395
# Shear Modulus (GPa) = 22.52236 37.98776 30.25506
#
# Velocity S-wave (km/s) = 3.30165 4.28791 3.82669
# Velocity P-wave (km/s) = 5.10978 7.10307 6.18722
#
# Compressibility (1/GPa) = 0.04181338
#
# Stress axis : x y z
#
# Youngs Moduli (GPa) = 16.76620 69.06273 103.98744
#
# Poissons Ratio (x) = 0.71255 0.72005
# Poissons Ratio (y) = 0.17298 0.38698
# Poissons Ratio (z) = 0.11610 0.25701
#
# Static dielectric constant tensor:
#      x y z
#    x 3.402320 0.000000 0.000000 
#    y 0.000000 3.729130 0.000000 
#    z 0.000000 0.000000 4.744710 
# 
# 
# High freq. dielectric constant tensor:
#      x y z
#    x 1.770830 0.000000 0.000000 
#    y 0.000000 1.787170 0.000000 
#    z 0.000000 0.000000 1.843890 
# 
# From -- ./inp_files/58099.got.cif
#   From: 2010.03.12/outbox.cif.g09.slc.cpg/sg63_30_cif.got.tgz:58099.got - 2010.04.10 19:34:48.
