data_PCOD8257899
_publ_section_title
;
Structure prediction by ZEFSAII (Michael W. Deem and Ramdas Pophale) SiO2 
 PCOD8257899
Probable space group: C M C M
;
_chemical_formula_sum "Si O2"
_cell_formula_units_Z 96
_cell_length_a 29.372933
_cell_length_b 10.614183
_cell_length_c 16.139596
_cell_angle_alpha 90.000000
_cell_angle_beta 90.000000
_cell_angle_gamma 90.000000
_cell_volume 5031.836779
_symmetry_space_group_name_H-M "C M C M"
_symmetry_group_IT_number 63
_symmetry_cell_setting 'orthorhombic'
loop_
_space_group_symop_operation_xyz
x,y,z
-x,-y,1/2+z
x,-y,-z
-x,y,1/2-z
-x,-y,-z
x,y,1/2-z
-x,y,z
x,-y,1/2+z
1/2+x,1/2+y,z
1/2-x,1/2-y,1/2+z
1/2+x,1/2-y,-z
1/2-x,1/2+y,1/2-z
1/2-x,1/2-y,-z
1/2+x,1/2+y,1/2-z
1/2-x,1/2+y,z
1/2+x,1/2-y,1/2+z
loop_
_atom_site_type_symbol
_atom_site_label
_atom_site_fract_x
_atom_site_fract_y
_atom_site_fract_z
Si Si1 0.279070 0.510744 0.095189
Si Si2 0.773746 0.260992 0.909727
Si Si3 0.628441 0.774234 0.845422
Si Si4 0.947875 0.370872 0.548418
Si Si5 0.624941 0.487072 0.657180
Si Si6 0.051474 0.122256 0.444514
O O1 0.250953 0.624124 0.138381
O O2 0.267971 0.374371 0.137164
O O3 0.332246 0.542787 0.098929
O O4 0.264306 0.500000 0.000000
O O5 0.827880 0.291560 0.906565
O O6 0.750000 0.250000 0.000000
O O7 0.641115 0.807585 0.750000
O O8 0.587462 0.865336 0.875199
O O9 0.609541 0.632005 0.851783
O O10 0.939447 0.500000 0.500000
O O11 0.936960 0.252194 0.489907
O O12 0.000000 0.363910 0.581225
O O13 0.640344 0.456910 0.750000
O O14 0.584192 0.392469 0.634289
O O15 0.000000 0.123109 0.411980
O O16 0.061290 0.000000 0.500000
#
# Coordination Sequence:
#
# PCOD8257899 Si02
#       6
#    16  16  16  16  16  16
#     4   9  18  33  53  75 104 141 185 226 275 327
#     4   9  19  33  54  80 106 146 188 230 278 333
#     4  10  21  37  58  85 118 151 192 240 285 345
#     4  10  22  39  60  86 115 150 191 237 290 351
#     4  10  20  33  54  83 114 147 182 234 291 332
#     4  10  19  34  58  83 108 141 186 231 273 337
#
# _framework density 19.078520000000001
#
# number of rings (size 3 to 8) (size 9 to 14) (size 15 to 20)
#    0.000    2.333    1.667    0.500    4.667    3.333 
#    0.000    2.500    0.000    3.000    0.000    0.000 
#    0.000    0.000    0.000    0.000    0.000    0.000 
#
# Total GULP energy -594771.806674 kJ/mol
# GULP energy per Si atom -12391.079306 kJ/mol
# Density = 1.903510 g / cm^3
# Si number density = 19.078520 Si / 1000 Ang^3
#
#
#
# Elastic Constant Matrix: (Units=GPa)
#
#
# Indices 1 2 3 4 5 6 
#
# 1 117.7441 61.3853 45.2655 0.0000 0.0000 0.0000
# 2 61.3853 132.3886 26.6855 0.0000 0.0000 0.0000
# 3 45.2655 26.6855 55.6311 0.0000 0.0000 0.0000
# 4 0.0000 0.0000 0.0000 15.3699 0.0000 0.0000
# 5 0.0000 0.0000 0.0000 0.0000 14.2698 0.0000
# 6 0.0000 0.0000 0.0000 0.0000 0.0000 34.4424
#
#
#
# Elastic Compliance Matrix: (Units=1/GPa)
#
#
# Indices 1 2 3 4 5 6 
#
# 1 0.014760 -0.004896 -0.009661 0.000000 0.000000 0.000000
# 2 -0.004896 0.009986 -0.000806 0.000000 0.000000 0.000000
# 3 -0.009661 -0.000806 0.026223 0.000000 0.000000 0.000000
# 4 0.000000 0.000000 0.000000 0.065062 0.000000 0.000000
# 5 0.000000 0.000000 0.000000 0.000000 0.070078 0.000000
# 6 0.000000 0.000000 0.000000 0.000000 0.000000 0.029034
#
#
# Mechanical properties :
#
#
# Convention : Reuss Voigt Hill
#
# Bulk Modulus (GPa) = 49.40181 63.60403 56.50292
# Shear Modulus (GPa) = 19.79273 24.31158 22.05215
#
# Velocity S-wave (km/s) = 3.22442 3.57359 3.40349
# Velocity P-wave (km/s) = 6.30973 7.10196 6.71753
#
# Compressibility (1/GPa) = 0.02024217
#
# Stress axis : x y z
#
# Youngs Moduli (GPa) = 67.75197 100.13650 38.13429
#
# Poissons Ratio (x) = 0.49031 0.36841
# Poissons Ratio (y) = 0.33174 0.03075
# Poissons Ratio (z) = 0.65454 0.08074
#
# Static dielectric constant tensor:
#      x y z
#    x 3.507120 0.000000 0.000000 
#    y 0.000000 4.052430 0.000000 
#    z 0.000000 0.000000 3.144130 
# 
# 
# High freq. dielectric constant tensor:
#      x y z
#    x 1.746610 0.000000 0.000000 
#    y 0.000000 1.744350 0.000000 
#    z 0.000000 0.000000 1.705580 
# 
# From -- ./inp_files/48980.got.cif
#   From: 2010.03.12/outbox.cif.g09.slc.cpg/sg63_25_cif.got.tgz:48980.got - 2010.04.10 19:34:48.
