data_PCOD8257131
_publ_section_title
;
Structure prediction by ZEFSAII (Michael W. Deem and Ramdas Pophale) SiO2 
 PCOD8257131
Probable space group: C M C M
;
_chemical_formula_sum "Si O2"
_cell_formula_units_Z 80
_cell_length_a 9.023689
_cell_length_b 25.264840
_cell_length_c 18.728042
_cell_angle_alpha 90.000000
_cell_angle_beta 90.000000
_cell_angle_gamma 90.000000
_cell_volume 4269.657572
_symmetry_space_group_name_H-M "C M C M"
_symmetry_group_IT_number 63
_symmetry_cell_setting 'orthorhombic'
loop_
_space_group_symop_operation_xyz
x,y,z
-x,-y,1/2+z
x,-y,-z
-x,y,1/2-z
-x,-y,-z
x,y,1/2-z
-x,y,z
x,-y,1/2+z
1/2+x,1/2+y,z
1/2-x,1/2-y,1/2+z
1/2+x,1/2-y,-z
1/2-x,1/2+y,1/2-z
1/2-x,1/2-y,-z
1/2+x,1/2+y,1/2-z
1/2-x,1/2+y,z
1/2+x,1/2-y,1/2+z
loop_
_atom_site_type_symbol
_atom_site_label
_atom_site_fract_x
_atom_site_fract_y
_atom_site_fract_z
Si Si1 0.824031 0.332159 0.582872
Si Si2 0.675987 0.024999 0.927426
Si Si3 0.323433 0.068093 0.329639
Si Si4 0.324072 0.855647 0.424291
Si Si5 0.674602 0.269913 0.167559
O O1 0.759576 0.383748 0.623069
O O2 0.770930 0.332571 0.500768
O O3 0.763857 0.279870 0.622320
O O4 0.000000 0.334072 0.586727
O O5 0.500000 0.026960 0.933378
O O6 0.735461 0.084372 0.916278
O O7 0.728535 0.987978 0.862214
O O8 0.741280 0.000000 0.000000
O O9 0.258439 0.072685 0.250000
O O10 0.500000 0.071018 0.328560
O O11 0.500000 0.852872 0.417066
O O12 0.252205 0.822647 0.360618
O O13 0.717086 0.261183 0.250000
O O14 0.500000 0.276149 0.157709
#
# Coordination Sequence:
#
# PCOD8257131 Si02
#       5
#    16  16  16  16  16
#     4   9  16  29  48  70  94 124 163 204 244 285
#     4   9  15  26  43  68 101 129 152 190 245 294
#     4   9  15  23  40  67  96 125 158 198 243 287
#     4  10  19  31  52  76  99 127 160 201 246 293
#     4  10  21  35  49  68  98 133 167 203 241 285
#
# _framework density 18.736867
#
# number of rings (size 3 to 8) (size 9 to 14) (size 15 to 20)
#    0.000    2.600    2.000    1.200    0.000    3.600 
#    0.000    2.000    0.000    0.600    0.000    0.000 
#    0.000    1.600    0.000    0.000    0.000    0.000 
#
# Total GULP energy -495932.054450 kJ/mol
# GULP energy per Si atom -12398.301361 kJ/mol
# Density = 1.869422 g / cm^3
# Si number density = 18.736867 Si / 1000 Ang^3
#
#
#
# Elastic Constant Matrix: (Units=GPa)
#
#
# Indices 1 2 3 4 5 6 
#
# 1 10.2027 18.8771 17.8609 0.0000 0.0000 0.0000
# 2 18.8771 151.8857 45.6658 0.0000 0.0000 0.0000
# 3 17.8609 45.6658 89.6385 0.0000 0.0000 0.0000
# 4 0.0000 0.0000 0.0000 39.1400 0.0000 0.0000
# 5 0.0000 0.0000 0.0000 0.0000 17.1295 0.0000
# 6 0.0000 0.0000 0.0000 0.0000 0.0000 17.9775
#
#
#
# Elastic Compliance Matrix: (Units=1/GPa)
#
#
# Indices 1 2 3 4 5 6 
#
# 1 0.169478 -0.012884 -0.027206 0.000000 0.000000 0.000000
# 2 -0.012884 0.008754 -0.001893 0.000000 0.000000 0.000000
# 3 -0.027206 -0.001893 0.017541 0.000000 0.000000 0.000000
# 4 0.000000 0.000000 0.000000 0.025549 0.000000 0.000000
# 5 0.000000 0.000000 0.000000 0.000000 0.058379 0.000000
# 6 0.000000 0.000000 0.000000 0.000000 0.000000 0.055625
#
#
# Mechanical properties :
#
#
# Convention : Reuss Voigt Hill
#
# Bulk Modulus (GPa) = 8.94382 46.28160 27.61271
# Shear Modulus (GPa) = 10.95144 26.13759 18.54452
#
# Velocity S-wave (km/s) = 2.42024 3.73900 3.14942
# Velocity P-wave (km/s) = 3.54878 6.58746 5.29095
#
# Compressibility (1/GPa) = 0.11180901
#
# Stress axis : x y z
#
# Youngs Moduli (GPa) = 5.90046 114.23067 57.00960
#
# Poissons Ratio (x) = 1.47175 1.55098
# Poissons Ratio (y) = 0.07602 0.10790
# Poissons Ratio (z) = 0.16053 0.21619
#
# Static dielectric constant tensor:
#      x y z
#    x 2.696210 0.000000 0.000000 
#    y 0.000000 3.684390 0.000000 
#    z 0.000000 0.000000 3.598570 
# 
# 
# High freq. dielectric constant tensor:
#      x y z
#    x 1.648030 0.000000 0.000000 
#    y 0.000000 1.745120 0.000000 
#    z 0.000000 0.000000 1.738570 
# 
# From -- ./inp_files/29719.got.cif
#   From: 2010.03.12/outbox.cif.g09.slc.cpg/sg63_15_cif.got.tgz:29719.got - 2010.04.10 19:34:48.
