data_PCOD8257831
_publ_section_title
;
Structure prediction by ZEFSAII (Michael W. Deem and Ramdas Pophale) SiO2 
 PCOD8257831
Probable space group: C M C M
;
_chemical_formula_sum "Si O2"
_cell_formula_units_Z 104
_cell_length_a 26.097956
_cell_length_b 8.915780
_cell_length_c 23.432053
_cell_angle_alpha 90.000000
_cell_angle_beta 90.000000
_cell_angle_gamma 90.000000
_cell_volume 5452.255248
_symmetry_space_group_name_H-M "C M C M"
_symmetry_group_IT_number 63
_symmetry_cell_setting 'orthorhombic'
loop_
_space_group_symop_operation_xyz
x,y,z
-x,-y,1/2+z
x,-y,-z
-x,y,1/2-z
-x,-y,-z
x,y,1/2-z
-x,y,z
x,-y,1/2+z
1/2+x,1/2+y,z
1/2-x,1/2-y,1/2+z
1/2+x,1/2-y,-z
1/2-x,1/2+y,1/2-z
1/2-x,1/2-y,-z
1/2+x,1/2+y,1/2-z
1/2-x,1/2+y,z
1/2+x,1/2-y,1/2+z
loop_
_atom_site_type_symbol
_atom_site_label
_atom_site_fract_x
_atom_site_fract_y
_atom_site_fract_z
Si Si1 0.284351 0.664178 0.688029
Si Si2 0.906977 0.000000 0.000000
Si Si3 0.392951 0.528722 0.685714
Si Si4 0.057074 0.220348 0.593608
Si Si5 0.852536 0.809482 0.905186
Si Si6 0.637310 0.024455 0.065288
Si Si7 0.242523 0.585224 0.384737
O O1 0.260035 0.627471 0.750000
O O2 0.344315 0.635692 0.689236
O O3 0.257575 0.580414 0.635219
O O4 0.276004 0.837888 0.674036
O O5 0.872452 0.106298 0.039027
O O6 0.940482 0.889540 0.038975
O O7 0.412605 0.489781 0.750000
O O8 0.435482 0.619934 0.650431
O O9 0.376412 0.376869 0.652959
O O10 0.097975 0.355223 0.591616
O O11 0.000000 0.289654 0.595584
O O12 0.868164 0.634954 0.903005
O O13 0.791379 0.828584 0.910280
O O14 0.695772 0.084543 0.070200
O O15 0.623143 0.000000 0.000000
#
# Coordination Sequence:
#
# PCOD8257831 Si02
#       7
#    16   8  16  16  16  16  16
#     4  10  19  34  55  81 116 153 194 239 287 348
#     4  10  21  42  62  88 116 152 201 250 298 360
#     4   9  20  40  62  85 116 154 200 249 295 352
#     4  11  23  41  65  89 116 154 203 255 306 358
#     4  10  22  38  59  88 123 161 198 241 296 366
#     4  12  24  39  56  89 129 162 198 248 303 359
#     4  11  21  35  54  86 121 159 198 232 293 359
#
# _framework density 19.074676
#
# number of rings (size 3 to 8) (size 9 to 14) (size 15 to 20)
#    0.000    1.538    4.615    0.692    1.077    1.846 
#    0.000    1.538    0.000    0.000    0.000    0.000 
#    0.000    0.000    0.000    0.000    0.000    0.000 
#
# Total GULP energy -644569.797705 kJ/mol
# GULP energy per Si atom -12395.573033 kJ/mol
# Density = 1.903126 g / cm^3
# Si number density = 19.074676 Si / 1000 Ang^3
#
#
#
# Elastic Constant Matrix: (Units=GPa)
#
#
# Indices 1 2 3 4 5 6 
#
# 1 93.8054 37.6022 35.7348 0.0000 0.0000 0.0000
# 2 37.6022 98.3817 34.0194 0.0000 0.0000 0.0000
# 3 35.7348 34.0194 114.0455 0.0000 0.0000 0.0000
# 4 0.0000 0.0000 0.0000 23.7710 0.0000 0.0000
# 5 0.0000 0.0000 0.0000 0.0000 13.7152 0.0000
# 6 0.0000 0.0000 0.0000 0.0000 0.0000 15.0385
#
#
#
# Elastic Compliance Matrix: (Units=1/GPa)
#
#
# Indices 1 2 3 4 5 6 
#
# 1 0.013444 -0.004105 -0.002988 0.000000 0.000000 0.000000
# 2 -0.004105 0.012587 -0.002468 0.000000 0.000000 0.000000
# 3 -0.002988 -0.002468 0.010441 0.000000 0.000000 0.000000
# 4 0.000000 0.000000 0.000000 0.042068 0.000000 0.000000
# 5 0.000000 0.000000 0.000000 0.000000 0.072912 0.000000
# 6 0.000000 0.000000 0.000000 0.000000 0.000000 0.066496
#
#
# Mechanical properties :
#
#
# Convention : Reuss Voigt Hill
#
# Bulk Modulus (GPa) = 57.63997 57.88282 57.76139
# Shear Modulus (GPa) = 20.58846 23.76336 22.17591
#
# Velocity S-wave (km/s) = 3.28893 3.53343 3.41337
# Velocity P-wave (km/s) = 6.68628 6.85989 6.77364
#
# Compressibility (1/GPa) = 0.01734907
#
# Stress axis : x y z
#
# Youngs Moduli (GPa) = 74.38134 79.44651 95.77640
#
# Poissons Ratio (x) = 0.32615 0.28618
# Poissons Ratio (y) = 0.30535 0.23641
# Poissons Ratio (z) = 0.22225 0.19610
#
# Static dielectric constant tensor:
#      x y z
#    x 3.266260 0.000000 0.000000 
#    y 0.000000 3.557320 0.000000 
#    z 0.000000 0.000000 3.617430 
# 
# 
# High freq. dielectric constant tensor:
#      x y z
#    x 1.722860 0.000000 0.000000 
#    y 0.000000 1.746090 0.000000 
#    z 0.000000 0.000000 1.741840 
# 
# From -- ./inp_files/58193.got.cif
#   From: 2010.03.12/outbox.cif.g09.slc.cpg/sg63_30_cif.got.tgz:58193.got - 2010.04.10 19:34:48.
