data_PCOD8257598
_publ_section_title
;
Structure prediction by ZEFSAII (Michael W. Deem and Ramdas Pophale) SiO2 
 PCOD8257598
Probable space group: C M C M
;
_chemical_formula_sum "Si O2"
_cell_formula_units_Z 128
_cell_length_a 17.267738
_cell_length_b 18.066876
_cell_length_c 21.624360
_cell_angle_alpha 90.000000
_cell_angle_beta 90.000000
_cell_angle_gamma 90.000000
_cell_volume 6746.239844
_symmetry_space_group_name_H-M "C M C M"
_symmetry_group_IT_number 63
_symmetry_cell_setting 'orthorhombic'
loop_
_space_group_symop_operation_xyz
x,y,z
-x,-y,1/2+z
x,-y,-z
-x,y,1/2-z
-x,-y,-z
x,y,1/2-z
-x,y,z
x,-y,1/2+z
1/2+x,1/2+y,z
1/2-x,1/2-y,1/2+z
1/2+x,1/2-y,-z
1/2-x,1/2+y,1/2-z
1/2-x,1/2-y,-z
1/2+x,1/2+y,1/2-z
1/2-x,1/2+y,z
1/2+x,1/2-y,1/2+z
loop_
_atom_site_type_symbol
_atom_site_label
_atom_site_fract_x
_atom_site_fract_y
_atom_site_fract_z
Si Si1 0.193948 0.527359 0.412265
Si Si2 0.282609 0.202312 0.821850
Si Si3 0.589474 0.889931 0.386144
Si Si4 0.841236 0.660957 0.496008
Si Si5 0.185986 0.195834 0.566183
Si Si6 0.723083 0.629504 0.319661
Si Si7 0.086360 0.976991 0.682080
Si Si8 0.141457 0.042093 0.559882
O O1 0.125479 0.472511 0.391338
O O2 0.166989 0.578311 0.469080
O O3 0.212698 0.585307 0.357906
O O4 0.268541 0.479412 0.430984
O O5 0.262683 0.192290 0.750000
O O6 0.360555 0.156196 0.836167
O O7 0.207837 0.178084 0.861998
O O8 0.292311 0.287572 0.842608
O O9 0.500000 0.895436 0.364610
O O10 0.592379 0.847174 0.452071
O O11 0.858646 0.725666 0.445174
O O12 0.764583 0.690285 0.528160
O O13 0.131378 0.128766 0.544155
O O14 0.753859 0.628399 0.250000
O O15 0.639829 0.593331 0.328192
O O16 0.105126 0.014272 0.750000
O O17 0.000000 0.945960 0.682679
O O18 0.095632 0.031077 0.623863
O O19 0.106291 0.000000 0.500000
#
# Coordination Sequence:
#
# PCOD8257598 Si02
#       8
#    16  16  16  16  16  16  16  16
#     4  11  18  34  56  80 110 148 189 237 284 328
#     4  10  20  36  56  81 109 142 188 232 280 335
#     4  11  24  37  52  83 122 158 189 227 286 348
#     4  10  19  33  54  75 108 148 186 232 277 329
#     4  10  19  33  53  80 110 137 177 237 287 327
#     4   9  19  34  57  83 106 140 188 234 277 336
#     4   9  20  36  53  76 109 146 180 220 279 345
#     4  11  19  32  55  84 110 140 184 238 288 335
#
# _framework density 18.973533
#
# number of rings (size 3 to 8) (size 9 to 14) (size 15 to 20)
#    0.000    1.875    5.000    0.375    0.000    3.000 
#    0.000    1.875    0.000    0.000    0.000    0.000 
#    0.000    0.000    0.000    0.000    0.000    0.000 
#
# Total GULP energy -793021.527071 kJ/mol
# GULP energy per Si atom -12390.961360 kJ/mol
# Density = 1.893035 g / cm^3
# Si number density = 18.973533 Si / 1000 Ang^3
#
#
#
# Elastic Constant Matrix: (Units=GPa)
#
#
# Indices 1 2 3 4 5 6 
#
# 1 48.1423 21.8550 22.2962 0.0000 0.0000 0.0000
# 2 21.8550 98.9123 29.4341 0.0000 0.0000 0.0000
# 3 22.2962 29.4341 102.4986 0.0000 0.0000 0.0000
# 4 0.0000 0.0000 0.0000 30.4396 0.0000 0.0000
# 5 0.0000 0.0000 0.0000 0.0000 8.2376 0.0000
# 6 0.0000 0.0000 0.0000 0.0000 0.0000 13.9826
#
#
#
# Elastic Compliance Matrix: (Units=1/GPa)
#
#
# Indices 1 2 3 4 5 6 
#
# 1 0.024599 -0.004202 -0.004144 0.000000 0.000000 0.000000
# 2 -0.004202 0.011772 -0.002467 0.000000 0.000000 0.000000
# 3 -0.004144 -0.002467 0.011366 0.000000 0.000000 0.000000
# 4 0.000000 0.000000 0.000000 0.032852 0.000000 0.000000
# 5 0.000000 0.000000 0.000000 0.000000 0.121394 0.000000
# 6 0.000000 0.000000 0.000000 0.000000 0.000000 0.071517
#
#
# Mechanical properties :
#
#
# Convention : Reuss Voigt Hill
#
# Bulk Modulus (GPa) = 38.29719 44.08040 41.18880
# Shear Modulus (GPa) = 16.45660 22.26317 19.35989
#
# Velocity S-wave (km/s) = 2.94827 3.42918 3.19778
# Velocity P-wave (km/s) = 5.64075 6.24196 5.94895
#
# Compressibility (1/GPa) = 0.02611158
#
# Stress axis : x y z
#
# Youngs Moduli (GPa) = 40.65279 84.94450 87.98153
#
# Poissons Ratio (x) = 0.35693 0.36461
# Poissons Ratio (y) = 0.17082 0.21702
# Poissons Ratio (z) = 0.16847 0.20952
#
# Static dielectric constant tensor:
#      x y z
#    x 3.047260 0.000000 0.000000 
#    y 0.000000 3.643440 0.000000 
#    z 0.000000 0.000000 3.814900 
# 
# 
# High freq. dielectric constant tensor:
#      x y z
#    x 1.685500 0.000000 0.000000 
#    y 0.000000 1.746880 0.000000 
#    z 0.000000 0.000000 1.749210 
# 
# From -- ./inp_files/64066.got.cif
#   From: 2010.03.12/outbox.cif.g09.slc.cpg/sg63_33_cif.got.tgz:64066.got - 2010.04.10 19:34:48.
