data_PCOD8257037
_publ_section_title
;
Structure prediction by ZEFSAII (Michael W. Deem and Ramdas Pophale) SiO2 
 PCOD8257037
Probable space group: C M C M
;
_chemical_formula_sum "Si O2"
_cell_formula_units_Z 64
_cell_length_a 10.342635
_cell_length_b 38.608668
_cell_length_c 8.758128
_cell_angle_alpha 90.000000
_cell_angle_beta 90.000000
_cell_angle_gamma 90.000000
_cell_volume 3497.255044
_symmetry_space_group_name_H-M "C M C M"
_symmetry_group_IT_number 63
_symmetry_cell_setting 'orthorhombic'
loop_
_space_group_symop_operation_xyz
x,y,z
-x,-y,1/2+z
x,-y,-z
-x,y,1/2-z
-x,-y,-z
x,y,1/2-z
-x,y,z
x,-y,1/2+z
1/2+x,1/2+y,z
1/2-x,1/2-y,1/2+z
1/2+x,1/2-y,-z
1/2-x,1/2+y,1/2-z
1/2-x,1/2-y,-z
1/2+x,1/2+y,1/2-z
1/2-x,1/2+y,z
1/2+x,1/2-y,1/2+z
loop_
_atom_site_type_symbol
_atom_site_label
_atom_site_fract_x
_atom_site_fract_y
_atom_site_fract_z
Si Si1 0.153790 0.965429 0.578151
Si Si2 0.252015 0.326809 0.569505
Si Si3 0.000000 0.706608 0.930991
Si Si4 0.500000 0.284987 0.931207
Si Si5 0.348865 0.605237 0.927769
O O1 0.207765 0.962672 0.750000
O O2 0.200483 0.932328 0.481657
O O3 0.000000 0.967298 0.579400
O O4 0.210817 0.000000 0.500000
O O5 0.237345 0.323773 0.750000
O O6 0.373008 0.304502 0.506855
O O7 0.270253 0.366600 0.523517
O O8 0.124999 0.312758 0.490575
O O9 0.000000 0.706242 0.750000
O O10 0.000000 0.745900 0.994080
O O11 0.500000 0.285852 0.750000
O O12 0.318811 0.609674 0.750000
O O13 0.500000 0.609751 0.964013
#
# Coordination Sequence:
#
# PCOD8257037 Si02
#       5
#    16  16   8   8  16
#     4   9  16  26  42  67 101 139 175 216 264 315
#     4  11  21  37  57  80 107 142 181 223 272 325
#     4  11  23  39  55  79 110 141 178 225 273 325
#     4   9  20  37  59  81 106 137 178 225 273 325
#     4  10  19  31  49  75 105 139 178 221 268 320
#
# _framework density 18.300068
#
# number of rings (size 3 to 8) (size 9 to 14) (size 15 to 20)
#    0.000    2.000    1.250    3.375    0.000    4.000 
#    0.000    3.750    0.000    0.000    0.000    0.875 
#    0.000    0.000    0.000    0.000    0.000    0.000 
#
# Total GULP energy -396890.299382 kJ/mol
# GULP energy per Si atom -12402.821856 kJ/mol
# Density = 1.825842 g / cm^3
# Si number density = 18.300068 Si / 1000 Ang^3
#
#
#
# Elastic Constant Matrix: (Units=GPa)
#
#
# Indices 1 2 3 4 5 6 
#
# 1 93.8560 52.1479 29.1834 0.0000 0.0000 0.0000
# 2 52.1479 155.7112 36.8031 0.0000 0.0000 0.0000
# 3 29.1834 36.8031 80.8469 0.0000 0.0000 0.0000
# 4 0.0000 0.0000 0.0000 32.4701 0.0000 0.0000
# 5 0.0000 0.0000 0.0000 0.0000 8.0264 0.0000
# 6 0.0000 0.0000 0.0000 0.0000 0.0000 3.0294
#
#
#
# Elastic Compliance Matrix: (Units=1/GPa)
#
#
# Indices 1 2 3 4 5 6 
#
# 1 0.013802 -0.003860 -0.003225 0.000000 0.000000 0.000000
# 2 -0.003860 0.008276 -0.002374 0.000000 0.000000 0.000000
# 3 -0.003225 -0.002374 0.014614 0.000000 0.000000 0.000000
# 4 0.000000 0.000000 0.000000 0.030798 0.000000 0.000000
# 5 0.000000 0.000000 0.000000 0.000000 0.124590 0.000000
# 6 0.000000 0.000000 0.000000 0.000000 0.000000 0.330102
#
#
# Mechanical properties :
#
#
# Convention : Reuss Voigt Hill
#
# Bulk Modulus (GPa) = 56.26253 62.96478 59.61365
# Shear Modulus (GPa) = 9.14037 22.85715 15.99876
#
# Velocity S-wave (km/s) = 2.23731 3.53798 2.95997
# Velocity P-wave (km/s) = 6.12252 7.15341 6.65795
#
# Compressibility (1/GPa) = 0.01777382
#
# Stress axis : x y z
#
# Youngs Moduli (GPa) = 72.45256 120.83112 68.42816
#
# Poissons Ratio (x) = 0.46642 0.22068
# Poissons Ratio (y) = 0.27968 0.16245
# Poissons Ratio (z) = 0.23366 0.28685
#
# Static dielectric constant tensor:
#      x y z
#    x 3.120310 0.000000 0.000000 
#    y 0.000000 3.608630 0.000000 
#    z 0.000000 0.000000 3.382980 
# 
# 
# High freq. dielectric constant tensor:
#      x y z
#    x 1.662080 0.000000 0.000000 
#    y 0.000000 1.728960 0.000000 
#    z 0.000000 0.000000 1.715550 
# 
# From -- ./inp_files/3191.got.cif
#   From: 2010.03.12/outbox.cif.g09.slc.cpg/sg63_2_cif.got.tgz:3191.got - 2010.04.10 19:34:48.
