data_PCOD8257903
_publ_section_title
;
Structure prediction by ZEFSAII (Michael W. Deem and Ramdas Pophale) SiO2 
 PCOD8257903
Probable space group: C M C M
;
_chemical_formula_sum "Si O2"
_cell_formula_units_Z 72
_cell_length_a 17.781155
_cell_length_b 23.556087
_cell_length_c 9.037091
_cell_angle_alpha 90.000000
_cell_angle_beta 90.000000
_cell_angle_gamma 90.000000
_cell_volume 3785.225637
_symmetry_space_group_name_H-M "C M C M"
_symmetry_group_IT_number 63
_symmetry_cell_setting 'orthorhombic'
loop_
_space_group_symop_operation_xyz
x,y,z
-x,-y,1/2+z
x,-y,-z
-x,y,1/2-z
-x,-y,-z
x,y,1/2-z
-x,y,z
x,-y,1/2+z
1/2+x,1/2+y,z
1/2-x,1/2-y,1/2+z
1/2+x,1/2-y,-z
1/2-x,1/2+y,1/2-z
1/2-x,1/2-y,-z
1/2+x,1/2+y,1/2-z
1/2-x,1/2+y,z
1/2+x,1/2-y,1/2+z
loop_
_atom_site_type_symbol
_atom_site_label
_atom_site_fract_x
_atom_site_fract_y
_atom_site_fract_z
Si Si1 0.216230 0.060838 0.574874
Si Si2 0.149102 0.377363 0.579256
Si Si3 0.828556 0.249662 0.920100
Si Si4 0.000000 0.559813 0.424369
Si Si5 0.916403 0.141497 0.574725
O O1 0.223086 0.053518 0.750000
O O2 0.281977 0.102322 0.520803
O O3 0.136828 0.089021 0.528044
O O4 0.223713 0.000000 0.500000
O O5 0.167294 0.392087 0.750000
O O6 0.132938 0.310665 0.559179
O O7 0.073871 0.407330 0.522312
O O8 0.812317 0.235581 0.750000
O O9 0.882593 0.200818 0.987231
O O10 0.750000 0.250000 0.000000
O O11 0.000000 0.500000 0.500000
O O12 0.000000 0.552172 0.250000
O O13 0.921904 0.145330 0.750000
O O14 0.000000 0.132086 0.507258
#
# Coordination Sequence:
#
# PCOD8257903 Si02
#       5
#    16  16  16   8  16
#     4  11  22  37  58  82 109 145 188 231 277 331
#     4  10  21  36  57  84 113 145 184 228 276 330
#     4  10  19  34  58  84 111 142 179 225 273 326
#     4  10  22  38  54  80 112 148 187 226 272 323
#     4   9  19  35  56  83 113 147 186 226 273 330
#
# _framework density 19.021322000000001
#
# number of rings (size 3 to 8) (size 9 to 14) (size 15 to 20)
#    0.000    2.000    2.222    1.333    1.556    3.111 
#    0.000    0.000    0.000    5.333    0.000    0.000 
#    0.000    0.000    0.000    0.000    0.000    0.000 
#
# Total GULP energy -446415.929169 kJ/mol
# GULP energy per Si atom -12400.442477 kJ/mol
# Density = 1.897803 g / cm^3
# Si number density = 19.021322 Si / 1000 Ang^3
#
#
#
# Elastic Constant Matrix: (Units=GPa)
#
#
# Indices 1 2 3 4 5 6 
#
# 1 118.5534 14.3348 25.0446 0.0000 0.0000 0.0000
# 2 14.3348 79.5117 21.4400 0.0000 0.0000 0.0000
# 3 25.0446 21.4400 43.0223 0.0000 0.0000 0.0000
# 4 0.0000 0.0000 0.0000 19.7478 0.0000 0.0000
# 5 0.0000 0.0000 0.0000 0.0000 25.3795 0.0000
# 6 0.0000 0.0000 0.0000 0.0000 0.0000 37.0782
#
#
#
# Elastic Compliance Matrix: (Units=1/GPa)
#
#
# Indices 1 2 3 4 5 6 
#
# 1 0.009622 -0.000259 -0.005472 0.000000 0.000000 0.000000
# 2 -0.000259 0.014536 -0.007093 0.000000 0.000000 0.000000
# 3 -0.005472 -0.007093 0.029964 0.000000 0.000000 0.000000
# 4 0.000000 0.000000 0.000000 0.050639 0.000000 0.000000
# 5 0.000000 0.000000 0.000000 0.000000 0.039402 0.000000
# 6 0.000000 0.000000 0.000000 0.000000 0.000000 0.026970
#
#
# Mechanical properties :
#
#
# Convention : Reuss Voigt Hill
#
# Bulk Modulus (GPa) = 35.12049 40.30292 37.71171
# Shear Modulus (GPa) = 24.23963 28.45897 26.34930
#
# Velocity S-wave (km/s) = 3.57366 3.87222 3.72593
# Velocity P-wave (km/s) = 5.96087 6.42078 6.19509
#
# Compressibility (1/GPa) = 0.02847341
#
# Stress axis : x y z
#
# Youngs Moduli (GPa) = 103.92423 68.79408 33.37313
#
# Poissons Ratio (x) = 0.01783 0.18263
# Poissons Ratio (y) = 0.02694 0.23672
# Poissons Ratio (z) = 0.56871 0.48797
#
# Static dielectric constant tensor:
#      x y z
#    x 3.787450 0.000000 0.000000 
#    y 0.000000 3.811590 0.000000 
#    z 0.000000 0.000000 3.291550 
# 
# 
# High freq. dielectric constant tensor:
#      x y z
#    x 1.747090 0.000000 0.000000 
#    y 0.000000 1.755790 0.000000 
#    z 0.000000 0.000000 1.711780 
# 
# From -- ./inp_files/4664.got.cif
#   From: 2010.03.12/outbox.cif.g09.slc.cpg/sg63_3_cif.got.tgz:4664.got - 2010.04.10 19:34:48.
