data_PCOD8257546
_publ_section_title
;
Structure prediction by ZEFSAII (Michael W. Deem and Ramdas Pophale) SiO2 
 PCOD8257546
Probable space group: C M C M
;
_chemical_formula_sum "Si O2"
_cell_formula_units_Z 88
_cell_length_a 7.771266
_cell_length_b 18.569197
_cell_length_c 32.319108
_cell_angle_alpha 90.000000
_cell_angle_beta 90.000000
_cell_angle_gamma 90.000000
_cell_volume 4663.846670
_symmetry_space_group_name_H-M "C M C M"
_symmetry_group_IT_number 63
_symmetry_cell_setting 'orthorhombic'
loop_
_space_group_symop_operation_xyz
x,y,z
-x,-y,1/2+z
x,-y,-z
-x,y,1/2-z
-x,-y,-z
x,y,1/2-z
-x,y,z
x,-y,1/2+z
1/2+x,1/2+y,z
1/2-x,1/2-y,1/2+z
1/2+x,1/2-y,-z
1/2-x,1/2+y,1/2-z
1/2-x,1/2-y,-z
1/2+x,1/2+y,1/2-z
1/2-x,1/2+y,z
1/2+x,1/2-y,1/2+z
loop_
_atom_site_type_symbol
_atom_site_label
_atom_site_fract_x
_atom_site_fract_y
_atom_site_fract_z
Si Si1 0.500000 0.110809 0.148802
Si Si2 0.804177 0.580062 0.494576
Si Si3 0.500000 0.968064 0.297162
Si Si4 0.305272 0.417055 0.590849
Si Si5 0.500000 0.251298 0.298543
Si Si6 0.691877 0.377153 0.330560
Si Si7 0.199158 0.917310 0.080864
O O1 0.327811 0.121382 0.121586
O O2 0.500000 0.172807 0.182538
O O3 0.500000 0.034851 0.172001
O O4 0.725774 0.500000 0.500000
O O5 0.705284 0.616926 0.455802
O O6 0.785785 0.617846 0.539655
O O7 0.000000 0.577177 0.480445
O O8 0.500000 0.995444 0.250000
O O9 0.328340 0.920898 0.303645
O O10 0.500000 0.408313 0.607765
O O11 0.244904 0.500180 0.588303
O O12 0.500000 0.242067 0.250000
O O13 0.670712 0.296069 0.312805
O O14 0.500000 0.415143 0.328961
O O15 0.755214 0.372879 0.378368
O O16 0.000000 0.911129 0.072234
#
# Coordination Sequence:
#
# PCOD8257546 Si02
#       7
#     8  16   8  16   8  16  16
#     4  12  23  38  60  88 123 153 197 249 300 352
#     4   9  16  24  46  81 122 156 190 241 286 337
#     4  12  23  36  65  94 112 144 197 255 304 351
#     4  10  19  33  52  84 123 159 195 240 296 342
#     4  10  23  46  64  81 121 162 193 241 308 369
#     4   9  21  39  62  86 115 155 194 243 293 353
#     4   9  16  29  51  84 115 151 196 243 286 337
#
# _framework density 18.868545000000001
#
# number of rings (size 3 to 8) (size 9 to 14) (size 15 to 20)
#    0.545    1.636    2.727    1.364    2.545    2.182 
#    1.636    0.000    0.000    2.182    0.000    0.000 
#    0.000    0.000    0.000    0.000    0.000    0.000 
#
# Total GULP energy -545182.237047 kJ/mol
# GULP energy per Si atom -12390.505387 kJ/mol
# Density = 1.882560 g / cm^3
# Si number density = 18.868545 Si / 1000 Ang^3
#
#
#
# Elastic Constant Matrix: (Units=GPa)
#
#
# Indices 1 2 3 4 5 6 
#
# 1 89.1278 19.7958 43.3378 0.0000 0.0000 0.0000
# 2 19.7958 54.8180 38.0938 0.0000 0.0000 0.0000
# 3 43.3378 38.0938 142.2463 0.0000 0.0000 0.0000
# 4 0.0000 0.0000 0.0000 25.0708 0.0000 0.0000
# 5 0.0000 0.0000 0.0000 0.0000 26.1888 0.0000
# 6 0.0000 0.0000 0.0000 0.0000 0.0000 12.2761
#
#
#
# Elastic Compliance Matrix: (Units=1/GPa)
#
#
# Indices 1 2 3 4 5 6 
#
# 1 0.013437 -0.002467 -0.003433 0.000000 0.000000 0.000000
# 2 -0.002467 0.022866 -0.005372 0.000000 0.000000 0.000000
# 3 -0.003433 -0.005372 0.009515 0.000000 0.000000 0.000000
# 4 0.000000 0.000000 0.000000 0.039887 0.000000 0.000000
# 5 0.000000 0.000000 0.000000 0.000000 0.038184 0.000000
# 6 0.000000 0.000000 0.000000 0.000000 0.000000 0.081459
#
#
# Mechanical properties :
#
#
# Convention : Reuss Voigt Hill
#
# Bulk Modulus (GPa) = 42.96637 54.29408 48.63023
# Shear Modulus (GPa) = 21.21793 25.03814 23.12804
#
# Velocity S-wave (km/s) = 3.35701 3.64672 3.50486
# Velocity P-wave (km/s) = 6.15199 6.82414 6.49676
#
# Compressibility (1/GPa) = 0.02327401
#
# Stress axis : x y z
#
# Youngs Moduli (GPa) = 74.42092 43.73301 105.10025
#
# Poissons Ratio (x) = 0.10787 0.36084
# Poissons Ratio (y) = 0.18356 0.56461
# Poissons Ratio (z) = 0.25551 0.23494
#
# Static dielectric constant tensor:
#      x y z
#    x 3.389100 0.000000 0.000000 
#    y 0.000000 2.874140 0.000000 
#    z 0.000000 0.000000 3.707440 
# 
# 
# High freq. dielectric constant tensor:
#      x y z
#    x 1.732440 0.000000 0.000000 
#    y 0.000000 1.658940 0.000000 
#    z 0.000000 0.000000 1.754430 
# 
# From -- ./inp_files/71727.got.cif
#   From: 2010.03.12/outbox.cif.g09.slc.cpg/sg63_36_cif.got.tgz:71727.got - 2010.04.10 19:34:48.
