data_PCOD8257550
_publ_section_title
;
Structure prediction by ZEFSAII (Michael W. Deem and Ramdas Pophale) SiO2 
 PCOD8257550
Probable space group: C M C M
;
_chemical_formula_sum "Si O2"
_cell_formula_units_Z 96
_cell_length_a 29.658256
_cell_length_b 10.299139
_cell_length_c 18.456780
_cell_angle_alpha 90.000000
_cell_angle_beta 90.000000
_cell_angle_gamma 90.000000
_cell_volume 5637.706526
_symmetry_space_group_name_H-M "C M C M"
_symmetry_group_IT_number 63
_symmetry_cell_setting 'orthorhombic'
loop_
_space_group_symop_operation_xyz
x,y,z
-x,-y,1/2+z
x,-y,-z
-x,y,1/2-z
-x,-y,-z
x,y,1/2-z
-x,y,z
x,-y,1/2+z
1/2+x,1/2+y,z
1/2-x,1/2-y,1/2+z
1/2+x,1/2-y,-z
1/2-x,1/2+y,1/2-z
1/2-x,1/2-y,-z
1/2+x,1/2+y,1/2-z
1/2-x,1/2+y,z
1/2+x,1/2-y,1/2+z
loop_
_atom_site_type_symbol
_atom_site_label
_atom_site_fract_x
_atom_site_fract_y
_atom_site_fract_z
Si Si1 0.783388 0.492089 0.663608
Si Si2 0.884700 0.521153 0.167111
Si Si3 0.387267 0.718772 0.166963
Si Si4 0.947441 0.129428 0.457850
Si Si5 0.785087 0.220503 0.336065
Si Si6 0.552083 0.121520 0.449683
O O1 0.782093 0.492279 0.750000
O O2 0.833854 0.456084 0.638268
O O3 0.770707 0.636549 0.635228
O O4 0.748318 0.387903 0.630516
O O5 0.888879 0.565522 0.250000
O O6 0.898329 0.370833 0.158812
O O7 0.918292 0.612148 0.122459
O O8 0.394358 0.674796 0.250000
O O9 0.420622 0.635058 0.117502
O O10 0.336273 0.689483 0.141087
O O11 0.933731 0.249284 0.508386
O O12 0.000000 0.132402 0.438091
O O13 0.933760 0.000000 0.500000
O O14 0.781849 0.219904 0.250000
O O15 0.500000 0.124333 0.426316
O O16 0.563203 0.000000 0.500000
#
# Coordination Sequence:
#
# PCOD8257550 Si02
#       6
#    16  16  16  16  16  16
#     4   8  14  26  44  67  97 129 159 195 241 290
#     4   9  17  30  51  79 104 126 162 212 252 281
#     4   9  17  31  53  78 100 127 167 210 245 285
#     4  10  21  37  53  71 100 136 167 199 248 305
#     4   8  14  26  45  69  97 126 158 197 240 288
#     4  10  19  33  53  74  96 129 168 198 241 304
#
# _framework density 17.028199999999998
#
# number of rings (size 3 to 8) (size 9 to 14) (size 15 to 20)
#    0.000    3.000    1.667    2.000    0.000    0.667 
#    3.000    2.500    0.000    5.000    0.000    0.000 
#    0.000    0.000    0.000    0.000    0.000    0.000 
#
# Total GULP energy -595096.398585 kJ/mol
# GULP energy per Si atom -12397.841637 kJ/mol
# Density = 1.698944 g / cm^3
# Si number density = 17.028200 Si / 1000 Ang^3
#
#
#
# Elastic Constant Matrix: (Units=GPa)
#
#
# Indices 1 2 3 4 5 6 
#
# 1 93.3549 60.6708 52.5931 0.0000 0.0000 0.0000
# 2 60.6708 112.4917 45.9453 0.0000 0.0000 0.0000
# 3 52.5931 45.9453 64.8168 0.0000 0.0000 0.0000
# 4 0.0000 0.0000 0.0000 18.6504 0.0000 0.0000
# 5 0.0000 0.0000 0.0000 0.0000 6.4870 0.0000
# 6 0.0000 0.0000 0.0000 0.0000 0.0000 20.9122
#
#
#
# Elastic Compliance Matrix: (Units=1/GPa)
#
#
# Indices 1 2 3 4 5 6 
#
# 1 0.022813 -0.006676 -0.013778 0.000000 0.000000 0.000000
# 2 -0.006676 0.014466 -0.004837 0.000000 0.000000 0.000000
# 3 -0.013778 -0.004837 0.030036 0.000000 0.000000 0.000000
# 4 0.000000 0.000000 0.000000 0.053618 0.000000 0.000000
# 5 0.000000 0.000000 0.000000 0.000000 0.154155 0.000000
# 6 0.000000 0.000000 0.000000 0.000000 0.000000 0.047819
#
#
# Mechanical properties :
#
#
# Convention : Reuss Voigt Hill
#
# Bulk Modulus (GPa) = 59.76381 65.45355 62.60868
# Shear Modulus (GPa) = 13.19029 16.64021 14.91525
#
# Velocity S-wave (km/s) = 2.78621 3.12943 2.96280
# Velocity P-wave (km/s) = 6.74713 7.18189 6.96790
#
# Compressibility (1/GPa) = 0.01673253
#
# Stress axis : x y z
#
# Youngs Moduli (GPa) = 43.83491 69.12817 33.29303
#
# Poissons Ratio (x) = 0.46153 0.45871
# Poissons Ratio (y) = 0.29266 0.16103
# Poissons Ratio (z) = 0.60396 0.33436
#
# Static dielectric constant tensor:
#      x y z
#    x 3.244610 0.000000 0.000000 
#    y 0.000000 3.345630 0.000000 
#    z 0.000000 0.000000 2.823240 
# 
# 
# High freq. dielectric constant tensor:
#      x y z
#    x 1.659120 0.000000 0.000000 
#    y 0.000000 1.649180 0.000000 
#    z 0.000000 0.000000 1.622850 
# 
# From -- ./inp_files/47969.got.cif
#   From: 2010.03.12/outbox.cif.g09.slc.cpg/sg63_24_cif.got.tgz:47969.got - 2010.04.10 19:34:48.
