data_PCOD8257040
_publ_section_title
;
Structure prediction by ZEFSAII (Michael W. Deem and Ramdas Pophale) SiO2 
 PCOD8257040
Probable space group: C M C M
;
_chemical_formula_sum "Si O2"
_cell_formula_units_Z 80
_cell_length_a 8.795633
_cell_length_b 18.591881
_cell_length_c 26.152798
_cell_angle_alpha 90.000000
_cell_angle_beta 90.000000
_cell_angle_gamma 90.000000
_cell_volume 4276.698067
_symmetry_space_group_name_H-M "C M C M"
_symmetry_group_IT_number 63
_symmetry_cell_setting 'orthorhombic'
loop_
_space_group_symop_operation_xyz
x,y,z
-x,-y,1/2+z
x,-y,-z
-x,y,1/2-z
-x,-y,-z
x,y,1/2-z
-x,y,z
x,-y,1/2+z
1/2+x,1/2+y,z
1/2-x,1/2-y,1/2+z
1/2+x,1/2-y,-z
1/2-x,1/2+y,1/2-z
1/2-x,1/2-y,-z
1/2+x,1/2+y,1/2-z
1/2-x,1/2+y,z
1/2+x,1/2-y,1/2+z
loop_
_atom_site_type_symbol
_atom_site_label
_atom_site_fract_x
_atom_site_fract_y
_atom_site_fract_z
Si Si1 0.166254 0.458830 0.250000
Si Si2 0.180958 0.544888 0.452145
Si Si3 0.178931 0.706907 0.046445
Si Si4 0.682547 0.049717 0.858753
Si Si5 0.168653 0.288198 0.250000
Si Si6 0.320990 0.703630 0.645492
O O1 0.246810 0.479938 0.196359
O O2 0.154053 0.373242 0.250000
O O3 0.000000 0.494754 0.250000
O O4 0.245249 0.500000 0.500000
O O5 0.244526 0.625777 0.454213
O O6 0.240224 0.506167 0.400917
O O7 0.000000 0.545276 0.452627
O O8 0.222961 0.741125 0.100746
O O9 0.000000 0.706714 0.038152
O O10 0.250000 0.750000 0.000000
O O11 0.500000 0.056681 0.856827
O O12 0.748325 0.127944 0.870735
O O13 0.256986 0.264101 0.301307
O O14 0.000000 0.253456 0.250000
O O15 0.500000 0.693560 0.651397
#
# Coordination Sequence:
#
# PCOD8257040 Si02
#       6
#     8  16  16  16   8  16
#     4   7  12  23  42  69  91 111 149 195 232 270
#     4   9  17  30  49  71  94 124 167 213 247 284
#     4  10  21  35  51  74 102 133 169 210 258 305
#     4   9  16  29  50  72  95 127 168 206 239 288
#     4   9  17  31  52  75  99 133 175 205 234 292
#     4  10  19  31  49  76 108 133 159 205 259 301
#
# _framework density 18.706021
#
# number of rings (size 3 to 8) (size 9 to 14) (size 15 to 20)
#    0.000    2.800    0.000    3.300    0.000    3.200 
#    0.000    2.000    0.000    8.400    0.000    0.000 
#    0.000    0.000    0.000    0.000    0.000    0.000 
#
# Total GULP energy -495735.764668 kJ/mol
# GULP energy per Si atom -12393.394117 kJ/mol
# Density = 1.866344 g / cm^3
# Si number density = 18.706021 Si / 1000 Ang^3
#
#
#
# Elastic Constant Matrix: (Units=GPa)
#
#
# Indices 1 2 3 4 5 6 
#
# 1 44.0557 25.6891 39.8247 0.0000 0.0000 0.0000
# 2 25.6891 132.0338 97.3244 0.0000 0.0000 0.0000
# 3 39.8247 97.3244 206.4466 0.0000 0.0000 0.0000
# 4 0.0000 0.0000 0.0000 32.5033 0.0000 0.0000
# 5 0.0000 0.0000 0.0000 0.0000 26.0063 0.0000
# 6 0.0000 0.0000 0.0000 0.0000 0.0000 18.5019
#
#
#
# Elastic Compliance Matrix: (Units=1/GPa)
#
#
# Indices 1 2 3 4 5 6 
#
# 1 0.027919 -0.002241 -0.004329 0.000000 0.000000 0.000000
# 2 -0.002241 0.011787 -0.005125 0.000000 0.000000 0.000000
# 3 -0.004329 -0.005125 0.008095 0.000000 0.000000 0.000000
# 4 0.000000 0.000000 0.000000 0.030766 0.000000 0.000000
# 5 0.000000 0.000000 0.000000 0.000000 0.038452 0.000000
# 6 0.000000 0.000000 0.000000 0.000000 0.000000 0.054049
#
#
# Mechanical properties :
#
#
# Convention : Reuss Voigt Hill
#
# Bulk Modulus (GPa) = 40.96431 78.69027 59.82729
# Shear Modulus (GPa) = 24.67989 30.04881 27.36435
#
# Velocity S-wave (km/s) = 3.63623 4.01230 3.82889
# Velocity P-wave (km/s) = 6.29096 7.97640 7.18328
#
# Compressibility (1/GPa) = 0.02441149
#
# Stress axis : x y z
#
# Youngs Moduli (GPa) = 35.81827 84.83793 123.53528
#
# Poissons Ratio (x) = 0.19010 0.53482
# Poissons Ratio (y) = 0.08026 0.63306
# Poissons Ratio (z) = 0.15507 0.43475
#
# Static dielectric constant tensor:
#      x y z
#    x 3.155350 0.000000 0.000000 
#    y 0.000000 3.327630 0.000000 
#    z 0.000000 0.000000 3.554780 
# 
# 
# High freq. dielectric constant tensor:
#      x y z
#    x 1.692410 0.000000 0.000000 
#    y 0.000000 1.700730 0.000000 
#    z 0.000000 0.000000 1.753490 
# 
# From -- ./inp_files/66687.got.cif
#   From: 2010.03.12/outbox.cif.g09.slc.cpg/sg63_34_cif.got.tgz:66687.got - 2010.04.10 19:34:48.
