data_PCOD8257412
_publ_section_title
;
Structure prediction by ZEFSAII (Michael W. Deem and Ramdas Pophale) SiO2 
 PCOD8257412
Probable space group: C M C M
;
_chemical_formula_sum "Si O2"
_cell_formula_units_Z 96
_cell_length_a 8.400174
_cell_length_b 23.662011
_cell_length_c 26.240506
_cell_angle_alpha 90.000000
_cell_angle_beta 90.000000
_cell_angle_gamma 90.000000
_cell_volume 5215.694427
_symmetry_space_group_name_H-M "C M C M"
_symmetry_group_IT_number 63
_symmetry_cell_setting 'orthorhombic'
loop_
_space_group_symop_operation_xyz
x,y,z
-x,-y,1/2+z
x,-y,-z
-x,y,1/2-z
-x,-y,-z
x,y,1/2-z
-x,y,z
x,-y,1/2+z
1/2+x,1/2+y,z
1/2-x,1/2-y,1/2+z
1/2+x,1/2-y,-z
1/2-x,1/2+y,1/2-z
1/2-x,1/2-y,-z
1/2+x,1/2+y,1/2-z
1/2-x,1/2+y,z
1/2+x,1/2-y,1/2+z
loop_
_atom_site_type_symbol
_atom_site_label
_atom_site_fract_x
_atom_site_fract_y
_atom_site_fract_z
Si Si1 0.815004 0.239790 0.381010
Si Si2 0.686089 0.517882 0.443944
Si Si3 0.684845 0.140894 0.433837
Si Si4 0.314024 0.914307 0.395267
Si Si5 0.188589 0.334981 0.193571
Si Si6 0.185290 0.821770 0.037434
O O1 0.719989 0.180239 0.384326
O O2 0.752055 0.276736 0.332946
O O3 0.787758 0.276927 0.431376
O O4 0.000000 0.225673 0.375565
O O5 0.750193 0.500000 0.500000
O O6 0.500000 0.506708 0.440184
O O7 0.721233 0.582480 0.430611
O O8 0.774407 0.480536 0.400562
O O9 0.500000 0.127414 0.439394
O O10 0.750211 0.178457 0.480229
O O11 0.500000 0.902360 0.404011
O O12 0.260368 0.889434 0.340231
O O13 0.212830 0.884132 0.439626
O O14 0.264920 0.340197 0.250000
O O15 0.000000 0.332988 0.197546
O O16 0.000000 0.805636 0.038803
#
# Coordination Sequence:
#
# PCOD8257412 Si02
#       6
#    16  16  16  16  16  16
#     4  10  20  34  52  76 105 136 173 215 262 312
#     4  11  22  35  52  74 105 145 181 217 256 307
#     4  12  23  34  50  72 104 142 179 215 256 308
#     4  10  19  32  53  80 107 138 176 218 261 307
#     4   8  16  33  58  84 106 131 167 214 268 318
#     4  11  20  32  49  72 105 141 177 214 254 304
#
# _framework density 18.405985999999999
#
# number of rings (size 3 to 8) (size 9 to 14) (size 15 to 20)
#    0.000    1.667    1.667    6.000    0.000    0.667 
#    0.000    0.000    0.000   19.000    0.000    0.000 
#    0.000    0.000    0.000    0.000    0.000    0.000 
#
# Total GULP energy -595170.431818 kJ/mol
# GULP energy per Si atom -12399.383996 kJ/mol
# Density = 1.836409 g / cm^3
# Si number density = 18.405986 Si / 1000 Ang^3
#
#
#
# Elastic Constant Matrix: (Units=GPa)
#
#
# Indices 1 2 3 4 5 6 
#
# 1 58.7163 3.2020 19.1175 0.0000 0.0000 0.0000
# 2 3.2020 101.1233 52.2246 0.0000 0.0000 0.0000
# 3 19.1175 52.2246 105.8401 0.0000 0.0000 0.0000
# 4 0.0000 0.0000 0.0000 16.6018 0.0000 0.0000
# 5 0.0000 0.0000 0.0000 0.0000 13.0138 0.0000
# 6 0.0000 0.0000 0.0000 0.0000 0.0000 31.6166
#
#
#
# Elastic Compliance Matrix: (Units=1/GPa)
#
#
# Indices 1 2 3 4 5 6 
#
# 1 0.018266 0.001510 -0.004044 0.000000 0.000000 0.000000
# 2 0.001510 0.013396 -0.006883 0.000000 0.000000 0.000000
# 3 -0.004044 -0.006883 0.013575 0.000000 0.000000 0.000000
# 4 0.000000 0.000000 0.000000 0.060234 0.000000 0.000000
# 5 0.000000 0.000000 0.000000 0.000000 0.076841 0.000000
# 6 0.000000 0.000000 0.000000 0.000000 0.000000 0.031629
#
#
# Mechanical properties :
#
#
# Convention : Reuss Voigt Hill
#
# Bulk Modulus (GPa) = 37.87514 46.08532 41.98023
# Shear Modulus (GPa) = 20.69751 24.98881 22.84316
#
# Velocity S-wave (km/s) = 3.35699 3.68862 3.52671
# Velocity P-wave (km/s) = 5.97061 6.57524 6.28021
#
# Compressibility (1/GPa) = 0.02640254
#
# Stress axis : x y z
#
# Youngs Moduli (GPa) = 54.74792 74.65165 73.66588
#
# Poissons Ratio (x) = -0.11275 0.29794
# Poissons Ratio (y) = -0.08269 0.50701
# Poissons Ratio (z) = 0.22143 0.51379
#
# Static dielectric constant tensor:
#      x y z
#    x 3.233980 0.000000 0.000000 
#    y 0.000000 3.471160 0.000000 
#    z 0.000000 0.000000 3.469860 
# 
# 
# High freq. dielectric constant tensor:
#      x y z
#    x 1.710310 0.000000 0.000000 
#    y 0.000000 1.719340 0.000000 
#    z 0.000000 0.000000 1.675560 
# 
# From -- ./inp_files/67218.got.cif
#   From: 2010.03.12/outbox.cif.g09.slc.cpg/sg63_34_cif.got.tgz:67218.got - 2010.04.10 19:34:48.
