data_PCOD8257532
_publ_section_title
;
Structure prediction by ZEFSAII (Michael W. Deem and Ramdas Pophale) SiO2 
 PCOD8257532
Probable space group: C M C M
;
_chemical_formula_sum "Si O2"
_cell_formula_units_Z 80
_cell_length_a 16.643517
_cell_length_b 16.772937
_cell_length_c 14.506720
_cell_angle_alpha 90.000000
_cell_angle_beta 90.000000
_cell_angle_gamma 90.000000
_cell_volume 4049.705560
_symmetry_space_group_name_H-M "C M C M"
_symmetry_group_IT_number 63
_symmetry_cell_setting 'orthorhombic'
loop_
_space_group_symop_operation_xyz
x,y,z
-x,-y,1/2+z
x,-y,-z
-x,y,1/2-z
-x,-y,-z
x,y,1/2-z
-x,y,z
x,-y,1/2+z
1/2+x,1/2+y,z
1/2-x,1/2-y,1/2+z
1/2+x,1/2-y,-z
1/2-x,1/2+y,1/2-z
1/2-x,1/2-y,-z
1/2+x,1/2+y,1/2-z
1/2-x,1/2+y,z
1/2+x,1/2-y,1/2+z
loop_
_atom_site_type_symbol
_atom_site_label
_atom_site_fract_x
_atom_site_fract_y
_atom_site_fract_z
Si Si1 0.812162 0.424408 0.552616
Si Si2 0.408606 0.793437 0.641316
Si Si3 0.836263 0.991348 0.147258
Si Si4 0.176647 0.160018 0.966145
Si Si5 0.590398 0.349009 0.850935
O O1 0.851143 0.500000 0.500000
O O2 0.882913 0.381635 0.608609
O O3 0.743057 0.458899 0.619012
O O4 0.771550 0.358895 0.482096
O O5 0.404779 0.790284 0.750000
O O6 0.500000 0.775327 0.607457
O O7 0.343055 0.730504 0.604212
O O8 0.823607 0.955447 0.250000
O O9 0.908601 0.054541 0.145861
O O10 0.859752 0.921890 0.075685
O O11 0.140262 0.186760 0.064454
O O12 0.624306 0.320925 0.750000
O O13 0.500000 0.318822 0.861962
#
# Coordination Sequence:
#
# PCOD8257532 Si02
#       5
#    16  16  16  16  16
#     4   9  19  36  57  76  98 136 183 222 252 294
#     4  11  23  36  53  80 113 143 168 207 267 325
#     4   9  17  30  50  74 102 136 172 213 255 304
#     4  10  19  33  52  76 104 134 173 216 263 312
#     4   9  17  28  44  68  99 138 179 215 254 302
#
# _framework density 19.754522999999999
#
# number of rings (size 3 to 8) (size 9 to 14) (size 15 to 20)
#    0.000    2.400    0.000    4.200    0.000    3.600 
#    0.000    2.000    0.000    2.400    0.000    2.800 
#    0.000    0.000    0.000    0.000    0.000    0.000 
#
# Total GULP energy -495596.066865 kJ/mol
# GULP energy per Si atom -12389.901672 kJ/mol
# Density = 1.970956 g / cm^3
# Si number density = 19.754523 Si / 1000 Ang^3
#
#
#
# Elastic Constant Matrix: (Units=GPa)
#
#
# Indices 1 2 3 4 5 6 
#
# 1 42.8165 34.7979 27.2351 0.0000 0.0000 0.0000
# 2 34.7979 71.3267 31.3477 0.0000 0.0000 0.0000
# 3 27.2351 31.3477 100.2073 0.0000 0.0000 0.0000
# 4 0.0000 0.0000 0.0000 29.8296 0.0000 0.0000
# 5 0.0000 0.0000 0.0000 0.0000 22.4794 0.0000
# 6 0.0000 0.0000 0.0000 0.0000 0.0000 19.6470
#
#
#
# Elastic Compliance Matrix: (Units=1/GPa)
#
#
# Indices 1 2 3 4 5 6 
#
# 1 0.041340 -0.017658 -0.005712 0.000000 0.000000 0.000000
# 2 -0.017658 0.023797 -0.002645 0.000000 0.000000 0.000000
# 3 -0.005712 -0.002645 0.012359 0.000000 0.000000 0.000000
# 4 0.000000 0.000000 0.000000 0.033524 0.000000 0.000000
# 5 0.000000 0.000000 0.000000 0.000000 0.044485 0.000000
# 6 0.000000 0.000000 0.000000 0.000000 0.000000 0.050898
#
#
# Mechanical properties :
#
#
# Convention : Reuss Voigt Hill
#
# Bulk Modulus (GPa) = 39.26756 44.56798 41.91777
# Shear Modulus (GPa) = 18.73209 22.45586 20.59397
#
# Velocity S-wave (km/s) = 3.08270 3.37522 3.23227
# Velocity P-wave (km/s) = 5.70890 6.14812 5.93258
#
# Compressibility (1/GPa) = 0.02546632
#
# Stress axis : x y z
#
# Youngs Moduli (GPa) = 24.18991 42.02168 80.91150
#
# Poissons Ratio (x) = 0.74201 0.46214
# Poissons Ratio (y) = 0.42714 0.21403
# Poissons Ratio (z) = 0.13816 0.11116
#
# Static dielectric constant tensor:
#      x y z
#    x 3.352140 0.000000 0.000000 
#    y 0.000000 3.414350 0.000000 
#    z 0.000000 0.000000 3.846220 
# 
# 
# High freq. dielectric constant tensor:
#      x y z
#    x 1.736870 0.000000 0.000000 
#    y 0.000000 1.750350 0.000000 
#    z 0.000000 0.000000 1.785620 
# 
# From -- ./inp_files/33850.got.cif
#   From: 2010.03.12/outbox.cif.g09.slc.cpg/sg63_17_cif.got.tgz:33850.got - 2010.04.10 19:34:48.
