data_PCOD8257057
_publ_section_title
;
Structure prediction by ZEFSAII (Michael W. Deem and Ramdas Pophale) SiO2 
 PCOD8257057
Probable space group: C M C M
;
_chemical_formula_sum "Si O2"
_cell_formula_units_Z 80
_cell_length_a 9.163141
_cell_length_b 19.853833
_cell_length_c 25.279247
_cell_angle_alpha 90.000000
_cell_angle_beta 90.000000
_cell_angle_gamma 90.000000
_cell_volume 4598.888363
_symmetry_space_group_name_H-M "C M C M"
_symmetry_group_IT_number 63
_symmetry_cell_setting 'orthorhombic'
loop_
_space_group_symop_operation_xyz
x,y,z
-x,-y,1/2+z
x,-y,-z
-x,y,1/2-z
-x,-y,-z
x,y,1/2-z
-x,y,z
x,-y,1/2+z
1/2+x,1/2+y,z
1/2-x,1/2-y,1/2+z
1/2+x,1/2-y,-z
1/2-x,1/2+y,1/2-z
1/2-x,1/2-y,-z
1/2+x,1/2+y,1/2-z
1/2-x,1/2+y,z
1/2+x,1/2-y,1/2+z
loop_
_atom_site_type_symbol
_atom_site_label
_atom_site_fract_x
_atom_site_fract_y
_atom_site_fract_z
Si Si1 0.330524 0.940528 0.810996
Si Si2 0.828303 0.319483 0.117074
Si Si3 0.834141 0.317978 0.002641
Si Si4 0.667779 0.575025 0.812155
Si Si5 0.829727 0.322733 0.887929
O O1 0.299229 0.923020 0.750000
O O2 0.500000 0.956471 0.820965
O O3 0.277263 0.877167 0.845257
O O4 0.239968 0.005038 0.829936
O O5 0.748772 0.363314 0.160698
O O6 0.766043 0.243876 0.119754
O O7 0.000000 0.317526 0.129612
O O8 0.795537 0.353731 0.058800
O O9 0.804920 0.356458 0.946885
O O10 0.000000 0.295730 0.005965
O O11 0.750000 0.250000 0.000000
O O12 0.685737 0.585813 0.750000
O O13 0.500000 0.574110 0.829706
O O14 0.000000 0.304295 0.879597
#
# Coordination Sequence:
#
# PCOD8257057 Si02
#       5
#    16  16  16  16  16
#     4   9  18  33  52  72  95 125 160 198 241 287
#     4  10  19  31  50  75 100 127 162 202 240 282
#     4   8  15  28  46  69  97 129 161 193 235 283
#     4  10  21  36  52  69  93 127 163 199 243 293
#     4   9  17  31  51  74 101 131 162 198 239 285
#
# _framework density 17.395506999999998
#
# number of rings (size 3 to 8) (size 9 to 14) (size 15 to 20)
#    0.000    2.800    0.000    1.200    0.000    3.600 
#    0.000    3.000    0.000    6.000    0.000    0.000 
#    0.000    0.000    0.000    0.000    0.000    0.000 
#
# Total GULP energy -495578.225996 kJ/mol
# GULP energy per Si atom -12389.455650 kJ/mol
# Density = 1.735591 g / cm^3
# Si number density = 17.395507 Si / 1000 Ang^3
#
#
#
# Elastic Constant Matrix: (Units=GPa)
#
#
# Indices 1 2 3 4 5 6 
#
# 1 82.1412 52.0813 46.3737 0.0000 0.0000 0.0000
# 2 52.0813 94.6021 58.8551 0.0000 0.0000 0.0000
# 3 46.3737 58.8551 79.5780 0.0000 0.0000 0.0000
# 4 0.0000 0.0000 0.0000 5.7675 0.0000 0.0000
# 5 0.0000 0.0000 0.0000 0.0000 22.6104 0.0000
# 6 0.0000 0.0000 0.0000 0.0000 0.0000 29.5694
#
#
#
# Elastic Compliance Matrix: (Units=1/GPa)
#
#
# Indices 1 2 3 4 5 6 
#
# 1 0.020440 -0.007117 -0.006647 0.000000 0.000000 0.000000
# 2 -0.007117 0.022058 -0.012166 0.000000 0.000000 0.000000
# 3 -0.006647 -0.012166 0.025438 0.000000 0.000000 0.000000
# 4 0.000000 0.000000 0.000000 0.173387 0.000000 0.000000
# 5 0.000000 0.000000 0.000000 0.000000 0.044227 0.000000
# 6 0.000000 0.000000 0.000000 0.000000 0.000000 0.033819
#
#
# Mechanical properties :
#
#
# Convention : Reuss Voigt Hill
#
# Bulk Modulus (GPa) = 62.21223 63.43796 62.82509
# Shear Modulus (GPa) = 13.27713 18.19020 15.73367
#
# Velocity S-wave (km/s) = 2.76570 3.23721 3.01070
# Velocity P-wave (km/s) = 6.78526 7.10774 6.94837
#
# Compressibility (1/GPa) = 0.01607401
#
# Stress axis : x y z
#
# Youngs Moduli (GPa) = 48.92486 45.33553 39.31120
#
# Poissons Ratio (x) = 0.32265 0.26132
# Poissons Ratio (y) = 0.34820 0.47827
# Poissons Ratio (z) = 0.32522 0.55156
#
# Static dielectric constant tensor:
#      x y z
#    x 3.269120 0.000000 0.000000 
#    y 0.000000 2.924810 0.000000 
#    z 0.000000 0.000000 3.921110 
# 
# 
# High freq. dielectric constant tensor:
#      x y z
#    x 1.679320 0.000000 0.000000 
#    y 0.000000 1.638980 0.000000 
#    z 0.000000 0.000000 1.688990 
# 
# From -- ./inp_files/66570.got.cif
#   From: 2010.03.12/outbox.cif.g09.slc.cpg/sg63_34_cif.got.tgz:66570.got - 2010.04.10 19:34:48.
