data_PCOD8257995
_publ_section_title
;
Structure prediction by ZEFSAII (Michael W. Deem and Ramdas Pophale) SiO2 
 PCOD8257995
Probable space group: C M C M
;
_chemical_formula_sum "Si O2"
_cell_formula_units_Z 96
_cell_length_a 28.089498
_cell_length_b 20.138567
_cell_length_c 9.103416
_cell_angle_alpha 90.000000
_cell_angle_beta 90.000000
_cell_angle_gamma 90.000000
_cell_volume 5149.640731
_symmetry_space_group_name_H-M "C M C M"
_symmetry_group_IT_number 63
_symmetry_cell_setting 'orthorhombic'
loop_
_space_group_symop_operation_xyz
x,y,z
-x,-y,1/2+z
x,-y,-z
-x,y,1/2-z
-x,-y,-z
x,y,1/2-z
-x,y,z
x,-y,1/2+z
1/2+x,1/2+y,z
1/2-x,1/2-y,1/2+z
1/2+x,1/2-y,-z
1/2-x,1/2+y,1/2-z
1/2-x,1/2-y,-z
1/2+x,1/2+y,1/2-z
1/2-x,1/2+y,z
1/2+x,1/2-y,1/2+z
loop_
_atom_site_type_symbol
_atom_site_label
_atom_site_fract_x
_atom_site_fract_y
_atom_site_fract_z
Si Si1 0.445216 0.940742 0.409466
Si Si2 0.716385 0.656755 0.077896
Si Si3 0.803402 0.305533 0.418243
Si Si4 0.088534 0.696794 0.578709
Si Si5 0.555958 0.328908 0.077812
Si Si6 0.626437 0.428692 0.925928
O O1 0.420104 0.939004 0.250000
O O2 0.500000 0.959246 0.392276
O O3 0.440833 0.867185 0.478021
O O4 0.419941 0.000000 0.500000
O O5 0.722865 0.651550 0.250000
O O6 0.699926 0.729616 0.026151
O O7 0.676515 0.604487 0.025779
O O8 0.768062 0.644430 0.004701
O O9 0.788292 0.310228 0.250000
O O10 0.857366 0.326270 0.445789
O O11 0.078899 0.715300 0.750000
O O12 0.073424 0.757709 0.478385
O O13 0.567888 0.335262 0.250000
O O14 0.500000 0.337095 0.048083
O O15 0.582728 0.385783 0.987148
O O16 0.621883 0.433617 0.750000
O O17 0.623864 0.500000 0.000000
#
# Coordination Sequence:
#
# PCOD8257995 Si02
#       6
#    16  16  16  16  16  16
#     4   9  18  32  51  74 103 142 183 222 269 324
#     4   9  18  34  54  80 109 140 178 220 268 325
#     4   9  17  31  54  82 110 139 176 221 270 324
#     4  10  19  35  57  83 112 147 188 232 281 333
#     4  11  24  39  57  85 116 147 189 239 290 344
#     4  11  23  41  62  84 113 151 194 238 288 344
#
# _framework density 18.642077
#
# number of rings (size 3 to 8) (size 9 to 14) (size 15 to 20)
#    0.000    2.167    1.667    1.500    0.000    5.000 
#    0.000    2.500    0.000    4.000    0.000    0.000 
#    0.000    0.000    0.000    0.000    0.000    0.000 
#
# Total GULP energy -595011.075890 kJ/mol
# GULP energy per Si atom -12396.064081 kJ/mol
# Density = 1.859965 g / cm^3
# Si number density = 18.642077 Si / 1000 Ang^3
#
#
#
# Elastic Constant Matrix: (Units=GPa)
#
#
# Indices 1 2 3 4 5 6 
#
# 1 92.1444 51.7654 48.5393 0.0000 0.0000 0.0000
# 2 51.7654 129.2337 56.1540 0.0000 0.0000 0.0000
# 3 48.5393 56.1540 74.1674 0.0000 0.0000 0.0000
# 4 0.0000 0.0000 0.0000 32.9781 0.0000 0.0000
# 5 0.0000 0.0000 0.0000 0.0000 29.2295 0.0000
# 6 0.0000 0.0000 0.0000 0.0000 0.0000 27.7467
#
#
#
# Elastic Compliance Matrix: (Units=1/GPa)
#
#
# Indices 1 2 3 4 5 6 
#
# 1 0.017308 -0.002997 -0.009058 0.000000 0.000000 0.000000
# 2 -0.002997 0.012051 -0.007162 0.000000 0.000000 0.000000
# 3 -0.009058 -0.007162 0.024834 0.000000 0.000000 0.000000
# 4 0.000000 0.000000 0.000000 0.030323 0.000000 0.000000
# 5 0.000000 0.000000 0.000000 0.000000 0.034212 0.000000
# 6 0.000000 0.000000 0.000000 0.000000 0.000000 0.036040
#
#
# Mechanical properties :
#
#
# Convention : Reuss Voigt Hill
#
# Bulk Modulus (GPa) = 63.46226 67.60700 65.53463
# Shear Modulus (GPa) = 25.19461 27.26332 26.22897
#
# Velocity S-wave (km/s) = 3.68025 3.82836 3.75504
# Velocity P-wave (km/s) = 7.22325 7.47572 7.35057
#
# Compressibility (1/GPa) = 0.01575740
#
# Stress axis : x y z
#
# Youngs Moduli (GPa) = 57.77769 82.98404 40.26720
#
# Poissons Ratio (x) = 0.24869 0.36475
# Poissons Ratio (y) = 0.17315 0.28841
# Poissons Ratio (z) = 0.52336 0.59437
#
# Static dielectric constant tensor:
#      x y z
#    x 3.538720 0.000000 0.000000 
#    y 0.000000 3.369310 0.000000 
#    z 0.000000 0.000000 3.571840 
# 
# 
# High freq. dielectric constant tensor:
#      x y z
#    x 1.723930 0.000000 0.000000 
#    y 0.000000 1.713990 0.000000 
#    z 0.000000 0.000000 1.721360 
# 
# From -- ./inp_files/12411.got.cif
#   From: 2010.03.12/outbox.cif.g09.slc.cpg/sg63_7_cif.got.tgz:12411.got - 2010.04.10 19:34:48.
