data_PCOD8257762
_publ_section_title
;
Structure prediction by ZEFSAII (Michael W. Deem and Ramdas Pophale) SiO2 
 PCOD8257762
Probable space group: C M C M
;
_chemical_formula_sum "Si O2"
_cell_formula_units_Z 80
_cell_length_a 25.353362
_cell_length_b 10.252487
_cell_length_c 18.477674
_cell_angle_alpha 90.000000
_cell_angle_beta 90.000000
_cell_angle_gamma 90.000000
_cell_volume 4802.994456
_symmetry_space_group_name_H-M "C M C M"
_symmetry_group_IT_number 63
_symmetry_cell_setting 'orthorhombic'
loop_
_space_group_symop_operation_xyz
x,y,z
-x,-y,1/2+z
x,-y,-z
-x,y,1/2-z
-x,-y,-z
x,y,1/2-z
-x,y,z
x,-y,1/2+z
1/2+x,1/2+y,z
1/2-x,1/2-y,1/2+z
1/2+x,1/2-y,-z
1/2-x,1/2+y,1/2-z
1/2-x,1/2-y,-z
1/2+x,1/2+y,1/2-z
1/2-x,1/2+y,z
1/2+x,1/2-y,1/2+z
loop_
_atom_site_type_symbol
_atom_site_label
_atom_site_fract_x
_atom_site_fract_y
_atom_site_fract_z
Si Si1 0.809168 0.879410 0.950746
Si Si2 0.500000 0.763623 0.835121
Si Si3 0.686823 0.127220 0.456506
Si Si4 0.614325 0.468514 0.833474
Si Si5 0.000000 0.979349 0.664194
Si Si6 0.614224 0.779019 0.833520
O O1 0.747464 0.883123 0.932411
O O2 0.841609 0.888951 0.876689
O O3 0.824487 0.747653 0.991115
O O4 0.826190 0.000000 0.000000
O O5 0.500000 0.740309 0.750000
O O6 0.500000 0.621883 0.872350
O O7 0.555386 0.832990 0.855578
O O8 0.654815 0.141568 0.382428
O O9 0.668438 0.000000 0.500000
O O10 0.624600 0.436276 0.750000
O O11 0.555973 0.413561 0.858183
O O12 0.618279 0.623827 0.846841
O O13 0.000000 0.993991 0.750000
O O14 0.626973 0.811441 0.750000
#
# Coordination Sequence:
#
# PCOD8257762 Si02
#       6
#    16   8  16  16   8  16
#     4  10  19  34  51  69  96 130 166 200 245 290
#     4   7  12  24  46  73  97 122 156 199 243 288
#     4  10  21  34  49  69 100 137 164 199 244 288
#     4   9  16  29  52  77  99 124 161 206 246 290
#     4   7  12  24  44  74 103 121 146 199 259 290
#     4   9  16  30  52  75  97 126 165 203 241 291
#
# _framework density 16.656275999999998
#
# number of rings (size 3 to 8) (size 9 to 14) (size 15 to 20)
#    0.000    3.000    2.000    2.400    0.000    0.800 
#    0.000    3.000    0.000    0.000    0.000    4.200 
#    0.000    0.000    0.000    0.000    0.000    0.000 
#
# Total GULP energy -495541.401363 kJ/mol
# GULP energy per Si atom -12388.535034 kJ/mol
# Density = 1.661837 g / cm^3
# Si number density = 16.656276 Si / 1000 Ang^3
#
#
#
# Elastic Constant Matrix: (Units=GPa)
#
#
# Indices 1 2 3 4 5 6 
#
# 1 114.0583 39.7274 76.8018 0.0000 0.0000 0.0000
# 2 39.7274 72.7325 40.1905 0.0000 0.0000 0.0000
# 3 76.8018 40.1905 93.9808 0.0000 0.0000 0.0000
# 4 0.0000 0.0000 0.0000 21.8679 0.0000 0.0000
# 5 0.0000 0.0000 0.0000 0.0000 15.0737 0.0000
# 6 0.0000 0.0000 0.0000 0.0000 0.0000 12.2975
#
#
#
# Elastic Compliance Matrix: (Units=1/GPa)
#
#
# Indices 1 2 3 4 5 6 
#
# 1 0.019825 -0.002457 -0.015150 0.000000 0.000000 0.000000
# 2 -0.002457 0.018308 -0.005822 0.000000 0.000000 0.000000
# 3 -0.015150 -0.005822 0.025511 0.000000 0.000000 0.000000
# 4 0.000000 0.000000 0.000000 0.045729 0.000000 0.000000
# 5 0.000000 0.000000 0.000000 0.000000 0.066341 0.000000
# 6 0.000000 0.000000 0.000000 0.000000 0.000000 0.081318
#
#
# Mechanical properties :
#
#
# Convention : Reuss Voigt Hill
#
# Bulk Modulus (GPa) = 59.57255 66.02343 62.79799
# Shear Modulus (GPa) = 16.15597 18.11796 17.13696
#
# Velocity S-wave (km/s) = 3.11780 3.30169 3.21106
# Velocity P-wave (km/s) = 6.98601 7.36612 7.17858
#
# Compressibility (1/GPa) = 0.01678626
#
# Stress axis : x y z
#
# Youngs Moduli (GPa) = 50.44232 54.62147 39.19894
#
# Poissons Ratio (x) = 0.13419 0.59387
# Poissons Ratio (y) = 0.12392 0.22820
# Poissons Ratio (z) = 0.76421 0.31798
#
# Static dielectric constant tensor:
#      x y z
#    x 3.447700 0.000000 0.000000 
#    y 0.000000 2.822510 0.000000 
#    z 0.000000 0.000000 2.896010 
# 
# 
# High freq. dielectric constant tensor:
#      x y z
#    x 1.657400 0.000000 0.000000 
#    y 0.000000 1.600360 0.000000 
#    z 0.000000 0.000000 1.624300 
# 
# From -- ./inp_files/47939.got.cif
#   From: 2010.03.12/outbox.cif.g09.slc.cpg/sg63_24_cif.got.tgz:47939.got - 2010.04.10 19:34:48.
