data_PCOD8257531
_publ_section_title
;
Structure prediction by ZEFSAII (Michael W. Deem and Ramdas Pophale) SiO2 
 PCOD8257531
Probable space group: C M C M
;
_chemical_formula_sum "Si O2"
_cell_formula_units_Z 96
_cell_length_a 8.888934
_cell_length_b 25.737361
_cell_length_c 23.512238
_cell_angle_alpha 90.000000
_cell_angle_beta 90.000000
_cell_angle_gamma 90.000000
_cell_volume 5379.075808
_symmetry_space_group_name_H-M "C M C M"
_symmetry_group_IT_number 63
_symmetry_cell_setting 'orthorhombic'
loop_
_space_group_symop_operation_xyz
x,y,z
-x,-y,1/2+z
x,-y,-z
-x,y,1/2-z
-x,-y,-z
x,y,1/2-z
-x,y,z
x,-y,1/2+z
1/2+x,1/2+y,z
1/2-x,1/2-y,1/2+z
1/2+x,1/2-y,-z
1/2-x,1/2+y,1/2-z
1/2-x,1/2-y,-z
1/2+x,1/2+y,1/2-z
1/2-x,1/2+y,z
1/2+x,1/2-y,1/2+z
loop_
_atom_site_type_symbol
_atom_site_label
_atom_site_fract_x
_atom_site_fract_y
_atom_site_fract_z
Si Si1 0.178204 0.193009 0.998693
Si Si2 0.322522 0.945022 0.314470
Si Si3 0.321590 0.847118 0.112417
Si Si4 0.177202 0.051922 0.184761
Si Si5 0.820829 0.250589 0.186675
Si Si6 0.678031 0.652034 0.380145
O O1 0.238986 0.157855 0.947609
O O2 0.000000 0.200123 0.994831
O O3 0.250000 0.250000 0.000000
O O4 0.225742 0.160933 0.054791
O O5 0.269094 0.932153 0.250000
O O6 0.500000 0.950648 0.316123
O O7 0.268829 0.899873 0.356936
O O8 0.251264 0.998568 0.336208
O O9 0.500000 0.845413 0.102784
O O10 0.265234 0.800086 0.151586
O O11 0.221431 0.064396 0.250000
O O12 0.241400 0.097753 0.144444
O O13 0.000000 0.045984 0.178177
O O14 0.754474 0.254401 0.250000
O O15 0.755131 0.199010 0.157342
O O16 0.000000 0.249453 0.188228
O O17 0.500000 0.652138 0.373535
#
# Coordination Sequence:
#
# PCOD8257531 Si02
#       6
#    16  16  16  16  16  16
#     4  11  21  35  53  74 102 138 173 210 255 304
#     4   9  18  33  53  77 105 136 169 207 254 307
#     4  10  19  33  52  76 102 132 172 211 249 300
#     4   9  17  31  53  78 101 128 165 210 256 299
#     4   9  15  25  47  76 100 123 159 209 254 294
#     4   9  17  30  49  75 101 127 168 212 250 297
#
# _framework density 17.846931999999999
#
# number of rings (size 3 to 8) (size 9 to 14) (size 15 to 20)
#    0.000    2.500    1.667    1.500    0.000    4.667 
#    0.000    2.500    0.000    6.500    0.000    0.000 
#    0.000    0.000    0.000    0.000    0.000    0.000 
#
# Total GULP energy -595153.916125 kJ/mol
# GULP energy per Si atom -12399.039919 kJ/mol
# Density = 1.780631 g / cm^3
# Si number density = 17.846932 Si / 1000 Ang^3
#
#
#
# Elastic Constant Matrix: (Units=GPa)
#
#
# Indices 1 2 3 4 5 6 
#
# 1 23.7811 29.4927 28.2004 0.0000 0.0000 0.0000
# 2 29.4927 176.4156 94.5104 0.0000 0.0000 0.0000
# 3 28.2004 94.5104 151.8964 0.0000 0.0000 0.0000
# 4 0.0000 0.0000 0.0000 31.5412 0.0000 0.0000
# 5 0.0000 0.0000 0.0000 0.0000 25.2908 0.0000
# 6 0.0000 0.0000 0.0000 0.0000 0.0000 26.8672
#
#
#
# Elastic Compliance Matrix: (Units=1/GPa)
#
#
# Indices 1 2 3 4 5 6 
#
# 1 0.057697 -0.005861 -0.007065 0.000000 0.000000 0.000000
# 2 -0.005861 0.009098 -0.004573 0.000000 0.000000 0.000000
# 3 -0.007065 -0.004573 0.010740 0.000000 0.000000 0.000000
# 4 0.000000 0.000000 0.000000 0.031705 0.000000 0.000000
# 5 0.000000 0.000000 0.000000 0.000000 0.039540 0.000000
# 6 0.000000 0.000000 0.000000 0.000000 0.000000 0.037220
#
#
# Mechanical properties :
#
#
# Convention : Reuss Voigt Hill
#
# Bulk Modulus (GPa) = 23.50851 72.94444 48.22648
# Shear Modulus (GPa) = 21.26071 30.06582 25.66327
#
# Velocity S-wave (km/s) = 3.45524 4.10890 3.79616
# Velocity P-wave (km/s) = 5.39621 7.96692 6.80407
#
# Compressibility (1/GPa) = 0.04253778
#
# Stress axis : x y z
#
# Youngs Moduli (GPa) = 17.33206 109.91549 93.10747
#
# Poissons Ratio (x) = 0.64417 0.65782
# Poissons Ratio (y) = 0.10158 0.42575
# Poissons Ratio (z) = 0.12245 0.50261
#
# Static dielectric constant tensor:
#      x y z
#    x 2.937980 0.000000 0.000000 
#    y 0.000000 3.456780 0.000000 
#    z 0.000000 0.000000 3.486920 
# 
# 
# High freq. dielectric constant tensor:
#      x y z
#    x 1.653040 0.000000 0.000000 
#    y 0.000000 1.696640 0.000000 
#    z 0.000000 0.000000 1.694850 
# 
# From -- ./inp_files/53062.got.cif
#   From: 2010.03.12/outbox.cif.g09.slc.cpg/sg63_27_cif.got.tgz:53062.got - 2010.04.10 19:34:48.
