data_PCOD8257685
_publ_section_title
;
Structure prediction by ZEFSAII (Michael W. Deem and Ramdas Pophale) SiO2 
 PCOD8257685
Probable space group: C M C M
;
_chemical_formula_sum "Si O2"
_cell_formula_units_Z 96
_cell_length_a 8.843881
_cell_length_b 28.897780
_cell_length_c 20.500034
_cell_angle_alpha 90.000000
_cell_angle_beta 90.000000
_cell_angle_gamma 90.000000
_cell_volume 5239.163503
_symmetry_space_group_name_H-M "C M C M"
_symmetry_group_IT_number 63
_symmetry_cell_setting 'orthorhombic'
loop_
_space_group_symop_operation_xyz
x,y,z
-x,-y,1/2+z
x,-y,-z
-x,y,1/2-z
-x,-y,-z
x,y,1/2-z
-x,y,z
x,-y,1/2+z
1/2+x,1/2+y,z
1/2-x,1/2-y,1/2+z
1/2+x,1/2-y,-z
1/2-x,1/2+y,1/2-z
1/2-x,1/2-y,-z
1/2+x,1/2+y,1/2-z
1/2-x,1/2+y,z
1/2+x,1/2-y,1/2+z
loop_
_atom_site_type_symbol
_atom_site_label
_atom_site_fract_x
_atom_site_fract_y
_atom_site_fract_z
Si Si1 0.179411 0.220937 0.322287
Si Si2 0.321225 0.375899 0.023020
Si Si3 0.822827 0.531392 0.561590
Si Si4 0.178745 0.875980 0.874680
Si Si5 0.179510 0.280671 0.056913
Si Si6 0.826457 0.465506 0.823454
O O1 0.241387 0.233372 0.250000
O O2 0.245201 0.171143 0.344106
O O3 0.231586 0.259712 0.373597
O O4 0.000000 0.217768 0.321269
O O5 0.500000 0.368881 0.027119
O O6 0.272166 0.421623 0.061431
O O7 0.240478 0.332511 0.056167
O O8 0.263503 0.380396 0.948789
O O9 0.778056 0.500000 0.500000
O O10 0.771117 0.505017 0.627022
O O11 0.000000 0.543350 0.561225
O O12 0.233875 0.918713 0.832098
O O13 0.000000 0.875407 0.873097
O O14 0.000000 0.279814 0.048820
O O15 0.250000 0.250000 0.000000
O O16 0.802814 0.484014 0.750000
O O17 0.000000 0.453609 0.838363
#
# Coordination Sequence:
#
# PCOD8257685 Si02
#       6
#    16  16  16  16  16  16
#     4   9  18  34  55  80 110 144 182 222 268 325
#     4  11  22  36  56  85 112 141 185 229 272 323
#     4  10  20  36  57  80 107 144 183 222 271 324
#     4  10  19  33  55  82 112 142 178 223 272 328
#     4  11  21  36  58  83 112 147 185 228 273 323
#     4  10  21  36  54  80 113 144 179 224 275 329
#
# _framework density 18.323535
#
# number of rings (size 3 to 8) (size 9 to 14) (size 15 to 20)
#    0.000    1.833    3.333    1.500    0.000    2.667 
#    0.000    0.833    0.000    8.000    0.000    0.000 
#    0.000    0.000    0.000    0.000    0.000    0.000 
#
# Total GULP energy -595315.438575 kJ/mol
# GULP energy per Si atom -12402.404970 kJ/mol
# Density = 1.828183 g / cm^3
# Si number density = 18.323535 Si / 1000 Ang^3
#
#
#
# Elastic Constant Matrix: (Units=GPa)
#
#
# Indices 1 2 3 4 5 6 
#
# 1 42.9999 35.8078 31.6223 0.0000 0.0000 0.0000
# 2 35.8078 139.3965 74.6000 0.0000 0.0000 0.0000
# 3 31.6223 74.6000 150.9959 0.0000 0.0000 0.0000
# 4 0.0000 0.0000 0.0000 32.9644 0.0000 0.0000
# 5 0.0000 0.0000 0.0000 0.0000 20.7839 0.0000
# 6 0.0000 0.0000 0.0000 0.0000 0.0000 33.3859
#
#
#
# Elastic Compliance Matrix: (Units=1/GPa)
#
#
# Indices 1 2 3 4 5 6 
#
# 1 0.030860 -0.006075 -0.003462 0.000000 0.000000 0.000000
# 2 -0.006075 0.010948 -0.004137 0.000000 0.000000 0.000000
# 3 -0.003462 -0.004137 0.009391 0.000000 0.000000 0.000000
# 4 0.000000 0.000000 0.000000 0.030336 0.000000 0.000000
# 5 0.000000 0.000000 0.000000 0.000000 0.048114 0.000000
# 6 0.000000 0.000000 0.000000 0.000000 0.000000 0.029953
#
#
# Mechanical properties :
#
#
# Convention : Reuss Voigt Hill
#
# Bulk Modulus (GPa) = 41.92260 68.60582 55.26421
# Shear Modulus (GPa) = 25.65420 30.18432 27.91926
#
# Velocity S-wave (km/s) = 3.74581 4.06309 3.90767
# Velocity P-wave (km/s) = 6.45266 7.71585 7.11235
#
# Compressibility (1/GPa) = 0.02385348
#
# Stress axis : x y z
#
# Youngs Moduli (GPa) = 32.40418 91.34037 106.48028
#
# Poissons Ratio (x) = 0.55487 0.36860
# Poissons Ratio (y) = 0.19685 0.44048
# Poissons Ratio (z) = 0.11217 0.37785
#
# Static dielectric constant tensor:
#      x y z
#    x 3.193320 0.000000 0.000000 
#    y 0.000000 3.418380 0.000000 
#    z 0.000000 0.000000 3.639470 
# 
# 
# High freq. dielectric constant tensor:
#      x y z
#    x 1.693140 0.000000 0.000000 
#    y 0.000000 1.712180 0.000000 
#    z 0.000000 0.000000 1.714230 
# 
# From -- ./inp_files/51272.got.cif
#   From: 2010.03.12/outbox.cif.g09.slc.cpg/sg63_26_cif.got.tgz:51272.got - 2010.04.10 19:34:48.
