data_PCOD8257049
_publ_section_title
;
Structure prediction by ZEFSAII (Michael W. Deem and Ramdas Pophale) SiO2 
 PCOD8257049
Probable space group: C M C M
;
_chemical_formula_sum "Si O2"
_cell_formula_units_Z 128
_cell_length_a 17.176067
_cell_length_b 17.615226
_cell_length_c 23.185671
_cell_angle_alpha 90.000000
_cell_angle_beta 90.000000
_cell_angle_gamma 90.000000
_cell_volume 7015.063620
_symmetry_space_group_name_H-M "C M C M"
_symmetry_group_IT_number 63
_symmetry_cell_setting 'orthorhombic'
loop_
_space_group_symop_operation_xyz
x,y,z
-x,-y,1/2+z
x,-y,-z
-x,y,1/2-z
-x,-y,-z
x,y,1/2-z
-x,y,z
x,-y,1/2+z
1/2+x,1/2+y,z
1/2-x,1/2-y,1/2+z
1/2+x,1/2-y,-z
1/2-x,1/2+y,1/2-z
1/2-x,1/2-y,-z
1/2+x,1/2+y,1/2-z
1/2-x,1/2+y,z
1/2+x,1/2-y,1/2+z
loop_
_atom_site_type_symbol
_atom_site_label
_atom_site_fract_x
_atom_site_fract_y
_atom_site_fract_z
Si Si1 0.160552 0.379470 0.137322
Si Si2 0.363500 0.959171 0.684423
Si Si3 0.408475 0.086528 0.515978
Si Si4 0.089764 0.776793 0.818314
Si Si5 0.090807 0.226999 0.686840
Si Si6 0.913486 0.655984 0.400500
Si Si7 0.687171 0.581580 0.183108
Si Si8 0.821599 0.083501 0.683154
O O1 0.129887 0.450897 0.174355
O O2 0.142650 0.390331 0.070253
O O3 0.120357 0.302489 0.157456
O O4 0.253220 0.376789 0.146429
O O5 0.388363 0.941976 0.750000
O O6 0.420854 0.918742 0.639742
O O7 0.279096 0.922193 0.670414
O O8 0.500000 0.100605 0.527827
O O9 0.375223 0.136704 0.462221
O O10 0.392975 0.000000 0.500000
O O11 0.097619 0.773329 0.750000
O O12 0.142123 0.846298 0.845026
O O13 0.000000 0.789192 0.837065
O O14 0.126495 0.249071 0.750000
O O15 0.130447 0.278072 0.636476
O O16 0.104395 0.137992 0.675688
O O17 0.000000 0.243600 0.687840
O O18 0.000000 0.683860 0.414874
O O19 0.669206 0.588308 0.250000
O O20 0.654154 0.500129 0.160205
O O21 0.793469 0.076048 0.750000
#
# Coordination Sequence:
#
# PCOD8257049 Si02
#       8
#    16  16  16  16  16  16  16  16
#     4  11  20  33  51  76 105 137 175 215 260 316
#     4  10  19  31  50  74 104 137 166 203 259 322
#     4  10  20  36  53  69  98 144 183 216 258 309
#     4  10  20  32  49  76 108 139 173 215 259 310
#     4   9  18  32  52  79 106 133 169 215 266 316
#     4  10  20  33  50  74 101 130 171 214 260 311
#     4   8  17  32  48  71 101 137 173 199 244 311
#     4   9  18  33  54  79 107 139 173 215 267 316
#
# _framework density 18.246448999999998
#
# number of rings (size 3 to 8) (size 9 to 14) (size 15 to 20)
#    0.000    2.375    1.250    2.625    1.750    1.750 
#    0.000    3.125    0.000    0.000    0.000    0.000 
#    0.000    4.500    0.000    0.000    0.000    0.000 
#
# Total GULP energy -792972.354777 kJ/mol
# GULP energy per Si atom -12390.193043 kJ/mol
# Density = 1.820492 g / cm^3
# Si number density = 18.246449 Si / 1000 Ang^3
#
#
#
# Elastic Constant Matrix: (Units=GPa)
#
#
# Indices 1 2 3 4 5 6 
#
# 1 42.5386 43.2079 31.1754 0.0000 0.0000 0.0000
# 2 43.2079 121.3943 44.9321 0.0000 0.0000 0.0000
# 3 31.1754 44.9321 77.4972 0.0000 0.0000 0.0000
# 4 0.0000 0.0000 0.0000 13.7071 0.0000 0.0000
# 5 0.0000 0.0000 0.0000 0.0000 13.5487 0.0000
# 6 0.0000 0.0000 0.0000 0.0000 0.0000 28.7920
#
#
#
# Elastic Compliance Matrix: (Units=1/GPa)
#
#
# Indices 1 2 3 4 5 6 
#
# 1 0.042785 -0.011278 -0.010673 0.000000 0.000000 0.000000
# 2 -0.011278 0.013461 -0.003268 0.000000 0.000000 0.000000
# 3 -0.010673 -0.003268 0.019092 0.000000 0.000000 0.000000
# 4 0.000000 0.000000 0.000000 0.072955 0.000000 0.000000
# 5 0.000000 0.000000 0.000000 0.000000 0.073808 0.000000
# 6 0.000000 0.000000 0.000000 0.000000 0.000000 0.034732
#
#
# Mechanical properties :
#
#
# Convention : Reuss Voigt Hill
#
# Bulk Modulus (GPa) = 40.15876 53.34011 46.74943
# Shear Modulus (GPa) = 15.84428 19.35052 17.59740
#
# Velocity S-wave (km/s) = 2.94997 3.26008 3.10889
# Velocity P-wave (km/s) = 5.80172 6.59298 6.20997
#
# Compressibility (1/GPa) = 0.02490117
#
# Stress axis : x y z
#
# Youngs Moduli (GPa) = 23.37241 74.28616 52.37891
#
# Poissons Ratio (x) = 0.83783 0.55902
# Poissons Ratio (y) = 0.26360 0.17116
# Poissons Ratio (z) = 0.24944 0.24275
#
# Static dielectric constant tensor:
#      x y z
#    x 3.215090 0.000000 0.000000 
#    y 0.000000 3.613940 0.000000 
#    z 0.000000 0.000000 3.348110 
# 
# 
# High freq. dielectric constant tensor:
#      x y z
#    x 1.683110 0.000000 0.000000 
#    y 0.000000 1.718980 0.000000 
#    z 0.000000 0.000000 1.678540 
# 
# From -- ./inp_files/64759.got.cif
#   From: 2010.03.12/outbox.cif.g09.slc.cpg/sg63_33_cif.got.tgz:64759.got - 2010.04.10 19:34:48.
