data_PCOD8257610
_publ_section_title
;
Structure prediction by ZEFSAII (Michael W. Deem and Ramdas Pophale) SiO2 
 PCOD8257610
Probable space group: C M C M
;
_chemical_formula_sum "Si O2"
_cell_formula_units_Z 64
_cell_length_a 7.616203
_cell_length_b 18.406886
_cell_length_c 24.287961
_cell_angle_alpha 90.000000
_cell_angle_beta 90.000000
_cell_angle_gamma 90.000000
_cell_volume 3404.943349
_symmetry_space_group_name_H-M "C M C M"
_symmetry_group_IT_number 63
_symmetry_cell_setting 'orthorhombic'
loop_
_space_group_symop_operation_xyz
x,y,z
-x,-y,1/2+z
x,-y,-z
-x,y,1/2-z
-x,-y,-z
x,y,1/2-z
-x,y,z
x,-y,1/2+z
1/2+x,1/2+y,z
1/2-x,1/2-y,1/2+z
1/2+x,1/2-y,-z
1/2-x,1/2+y,1/2-z
1/2-x,1/2-y,-z
1/2+x,1/2+y,1/2-z
1/2-x,1/2+y,z
1/2+x,1/2-y,1/2+z
loop_
_atom_site_type_symbol
_atom_site_label
_atom_site_fract_x
_atom_site_fract_y
_atom_site_fract_z
Si Si1 0.292727 0.828176 0.750000
Si Si2 0.304105 0.919739 0.358747
Si Si3 0.000000 0.915316 0.437916
Si Si4 0.500000 0.412538 0.939762
Si Si5 0.203898 0.588189 0.357393
Si Si6 0.291736 0.337087 0.250000
O O1 0.500000 0.832219 0.750000
O O2 0.224325 0.868671 0.804431
O O3 0.225617 0.745785 0.750000
O O4 0.500000 0.910818 0.382633
O O5 0.171972 0.889013 0.404820
O O6 0.286753 0.874923 0.303229
O O7 0.265042 0.003520 0.344749
O O8 0.000000 0.879261 0.498591
O O9 0.000000 0.001214 0.443615
O O10 0.676820 0.386368 0.908793
O O11 0.000000 0.605284 0.370941
O O12 0.500000 0.343385 0.250000
#
# Coordination Sequence:
#
# PCOD8257610 Si02
#       6
#     8  16   8   8  16   8
#     4   9  19  34  52  77 104 138 168 212 262 308
#     4  10  19  33  54  77 105 138 169 209 258 308
#     4   9  18  33  51  79 109 130 171 214 252 303
#     4   9  18  31  53  81 103 134 171 212 256 299
#     4   9  18  34  53  76 106 136 170 211 256 306
#     4  11  20  33  53  77 105 139 166 213 263 308
#
# _framework density 18.796199999999999
#
# number of rings (size 3 to 8) (size 9 to 14) (size 15 to 20)
#    0.000    2.500    1.250    1.125    0.000    3.500 
#    4.500    5.000    0.000    1.500    0.000    0.000 
#    0.000    0.000    0.000    0.000    0.000    0.000 
#
# Total GULP energy -396779.790510 kJ/mol
# GULP energy per Si atom -12399.368453 kJ/mol
# Density = 1.875342 g / cm^3
# Si number density = 18.796200 Si / 1000 Ang^3
#
#
#
# Elastic Constant Matrix: (Units=GPa)
#
#
# Indices 1 2 3 4 5 6 
#
# 1 121.1809 32.5218 74.2601 0.0000 0.0000 0.0000
# 2 32.5218 62.4835 49.1481 0.0000 0.0000 0.0000
# 3 74.2601 49.1481 183.9881 0.0000 0.0000 0.0000
# 4 0.0000 0.0000 0.0000 -3.5165 0.0000 0.0000
# 5 0.0000 0.0000 0.0000 0.0000 -10.3004 0.0000
# 6 0.0000 0.0000 0.0000 0.0000 0.0000 13.2842
#
#
#
# Elastic Compliance Matrix: (Units=1/GPa)
#
#
# Indices 1 2 3 4 5 6 
#
# 1 0.011370 -0.002922 -0.003809 0.000000 0.000000 0.000000
# 2 -0.002922 0.021013 -0.004434 0.000000 0.000000 0.000000
# 3 -0.003809 -0.004434 0.008157 0.000000 0.000000 0.000000
# 4 0.000000 0.000000 0.000000 -0.284377 0.000000 0.000000
# 5 0.000000 0.000000 0.000000 0.000000 -0.097084 0.000000
# 6 0.000000 0.000000 0.000000 0.000000 0.000000 0.075278
#
#
# Mechanical properties :
#
#
# Convention : Reuss Voigt Hill
#
# Bulk Modulus (GPa) = 54.91297 75.50140 65.20719
# Shear Modulus (GPa) = -21.07529 14.00830 -3.53349
#
# Velocity S-wave (km/s) = -3.35214 2.73293 -1.37258
# Velocity P-wave (km/s) = 3.78099 7.08620 5.67935
#
# Compressibility (1/GPa) = 0.01821063
#
# Stress axis : x y z
#
# Youngs Moduli (GPa) = 87.94823 47.59057 122.59953
#
# Poissons Ratio (x) = 0.13908 0.46693
# Poissons Ratio (y) = 0.25702 0.54355
# Poissons Ratio (z) = 0.33496 0.21099
#
# Static dielectric constant tensor:
#      x y z
#    x 3.594850 0.000000 0.000000 
#    y 0.000000 3.225610 0.000000 
#    z 0.000000 0.000000 3.657560 
# 
# 
# High freq. dielectric constant tensor:
#      x y z
#    x 1.741440 0.000000 0.000000 
#    y 0.000000 1.693970 0.000000 
#    z 0.000000 0.000000 1.726570 
# 
# From -- ./inp_files/50420.got.cif
#   From: 2010.03.12/outbox.cif.g09.slc.cpg/sg63_26_cif.got.tgz:50420.got - 2010.04.10 19:34:48.
