data_PCOD8257241
_publ_section_title
;
Structure prediction by ZEFSAII (Michael W. Deem and Ramdas Pophale) SiO2 
 PCOD8257241
Probable space group: C M C M
;
_chemical_formula_sum "Si O2"
_cell_formula_units_Z 128
_cell_length_a 19.926754
_cell_length_b 12.948324
_cell_length_c 27.867907
_cell_angle_alpha 90.000000
_cell_angle_beta 90.000000
_cell_angle_gamma 90.000000
_cell_volume 7190.423497
_symmetry_space_group_name_H-M "C M C M"
_symmetry_group_IT_number 63
_symmetry_cell_setting 'orthorhombic'
loop_
_space_group_symop_operation_xyz
x,y,z
-x,-y,1/2+z
x,-y,-z
-x,y,1/2-z
-x,-y,-z
x,y,1/2-z
-x,y,z
x,-y,1/2+z
1/2+x,1/2+y,z
1/2-x,1/2-y,1/2+z
1/2+x,1/2-y,-z
1/2-x,1/2+y,1/2-z
1/2-x,1/2-y,-z
1/2+x,1/2+y,1/2-z
1/2-x,1/2+y,z
1/2+x,1/2-y,1/2+z
loop_
_atom_site_type_symbol
_atom_site_label
_atom_site_fract_x
_atom_site_fract_y
_atom_site_fract_z
Si Si1 0.925467 0.882917 0.098224
Si Si2 0.171968 0.606115 0.194841
Si Si3 0.080150 0.692167 0.457948
Si Si4 0.420774 0.189439 0.934908
Si Si5 0.318012 0.551863 0.195861
Si Si6 0.124351 0.833685 0.197080
Si Si7 0.579889 0.394789 0.880428
Si Si8 0.920414 0.483117 0.615529
O O1 0.888200 0.797189 0.065473
O O2 0.928665 0.846424 0.154029
O O3 0.000000 0.888787 0.078273
O O4 0.895906 0.998894 0.093217
O O5 0.164316 0.569875 0.250000
O O6 0.245425 0.579553 0.174058
O O7 0.164697 0.728628 0.189838
O O8 0.115561 0.545360 0.165075
O O9 0.109563 0.679397 0.511518
O O10 0.102687 0.595145 0.426191
O O11 0.000000 0.698175 0.458325
O O12 0.500000 0.182123 0.939050
O O13 0.398815 0.299013 0.913209
O O14 0.395799 0.096516 0.901069
O O15 0.322871 0.593056 0.250000
O O16 0.323501 0.427946 0.193227
O O17 0.378318 0.611033 0.168733
O O18 0.088875 0.835085 0.250000
O O19 0.500000 0.396382 0.868987
O O20 0.000000 0.478290 0.624640
#
# Coordination Sequence:
#
# PCOD8257241 Si02
#       8
#    16  16  16  16  16  16  16  16
#     4   9  16  27  46  74 101 126 159 204 252 292
#     4  10  20  33  51  75 100 129 164 202 248 298
#     4   9  16  28  48  74 100 128 166 209 250 292
#     4   9  18  31  48  73 102 133 169 207 245 291
#     4   9  19  34  51  73  99 130 166 198 240 300
#     4   9  17  30  47  69  96 125 161 204 244 292
#     4   9  18  32  50  74 101 129 165 206 249 291
#     4  10  19  32  50  74 102 132 168 206 246 291
#
# _framework density 17.801455000000001
#
# number of rings (size 3 to 8) (size 9 to 14) (size 15 to 20)
#    0.000    2.750    1.250    0.375    0.000    3.750 
#    0.000    8.125    0.000    3.000    6.500    0.000 
#    0.000    0.000    0.000    0.000    0.000    0.000 
#
# Total GULP energy -793127.266380 kJ/mol
# GULP energy per Si atom -12392.613537 kJ/mol
# Density = 1.776094 g / cm^3
# Si number density = 17.801455 Si / 1000 Ang^3
#
#
#
# Elastic Constant Matrix: (Units=GPa)
#
#
# Indices 1 2 3 4 5 6 
#
# 1 47.7902 25.4852 32.2556 0.0000 0.0000 0.0000
# 2 25.4852 124.8718 57.5361 0.0000 0.0000 0.0000
# 3 32.2556 57.5361 102.0106 0.0000 0.0000 0.0000
# 4 0.0000 0.0000 0.0000 25.1533 0.0000 0.0000
# 5 0.0000 0.0000 0.0000 0.0000 9.0463 0.0000
# 6 0.0000 0.0000 0.0000 0.0000 0.0000 15.8509
#
#
#
# Elastic Compliance Matrix: (Units=1/GPa)
#
#
# Indices 1 2 3 4 5 6 
#
# 1 0.027016 -0.002132 -0.007340 0.000000 0.000000 0.000000
# 2 -0.002132 0.010988 -0.005524 0.000000 0.000000 0.000000
# 3 -0.007340 -0.005524 0.015239 0.000000 0.000000 0.000000
# 4 0.000000 0.000000 0.000000 0.039756 0.000000 0.000000
# 5 0.000000 0.000000 0.000000 0.000000 0.110543 0.000000
# 6 0.000000 0.000000 0.000000 0.000000 0.000000 0.063088
#
#
# Mechanical properties :
#
#
# Convention : Reuss Voigt Hill
#
# Bulk Modulus (GPa) = 43.00587 56.13628 49.57107
# Shear Modulus (GPa) = 16.42728 20.63647 18.53187
#
# Velocity S-wave (km/s) = 3.04107 3.40848 3.23000
# Velocity P-wave (km/s) = 6.04499 6.86247 6.46666
#
# Compressibility (1/GPa) = 0.02325264
#
# Stress axis : x y z
#
# Youngs Moduli (GPa) = 37.01562 91.00558 65.62003
#
# Poissons Ratio (x) = 0.19399 0.48165
# Poissons Ratio (y) = 0.07890 0.36246
# Poissons Ratio (z) = 0.27170 0.50268
#
# Static dielectric constant tensor:
#      x y z
#    x 2.873700 0.000000 0.000000 
#    y 0.000000 3.540780 0.000000 
#    z 0.000000 0.000000 3.453330 
# 
# 
# High freq. dielectric constant tensor:
#      x y z
#    x 1.636720 0.000000 0.000000 
#    y 0.000000 1.702930 0.000000 
#    z 0.000000 0.000000 1.688080 
# 
# From -- ./inp_files/70817.got.cif
#   From: 2010.03.12/outbox.cif.g09.slc.cpg/sg63_36_cif.got.tgz:70817.got - 2010.04.10 19:34:48.
