data_PCOD8257595
_publ_section_title
;
Structure prediction by ZEFSAII (Michael W. Deem and Ramdas Pophale) SiO2 
 PCOD8257595
Probable space group: C M C M
;
_chemical_formula_sum "Si O2"
_cell_formula_units_Z 112
_cell_length_a 28.758868
_cell_length_b 14.876295
_cell_length_c 13.701757
_cell_angle_alpha 90.000000
_cell_angle_beta 90.000000
_cell_angle_gamma 90.000000
_cell_volume 5861.959727
_symmetry_space_group_name_H-M "C M C M"
_symmetry_group_IT_number 63
_symmetry_cell_setting 'orthorhombic'
loop_
_space_group_symop_operation_xyz
x,y,z
-x,-y,1/2+z
x,-y,-z
-x,y,1/2-z
-x,-y,-z
x,y,1/2-z
-x,y,z
x,-y,1/2+z
1/2+x,1/2+y,z
1/2-x,1/2-y,1/2+z
1/2+x,1/2-y,-z
1/2-x,1/2+y,1/2-z
1/2-x,1/2-y,-z
1/2+x,1/2+y,1/2-z
1/2-x,1/2+y,z
1/2+x,1/2-y,1/2+z
loop_
_atom_site_type_symbol
_atom_site_label
_atom_site_fract_x
_atom_site_fract_y
_atom_site_fract_z
Si Si1 0.947984 0.300711 0.361747
Si Si2 0.321384 0.171265 0.137132
Si Si3 0.373335 0.092430 0.968149
Si Si4 0.216575 0.521174 0.637614
Si Si5 0.095630 0.948097 0.136045
Si Si6 0.805198 0.125676 0.635788
Si Si7 0.447346 0.613827 0.049904
O O1 0.942857 0.272587 0.250000
O O2 0.908847 0.371297 0.388726
O O3 0.936796 0.215898 0.427796
O O4 0.000000 0.338213 0.382523
O O5 0.339297 0.173490 0.250000
O O6 0.298717 0.268057 0.109656
O O7 0.285170 0.087728 0.123594
O O8 0.364755 0.155687 0.063270
O O9 0.324288 0.071152 0.918460
O O10 0.397351 0.000000 0.000000
O O11 0.211381 0.546817 0.750000
O O12 0.263710 0.563958 0.592237
O O13 0.086619 0.926545 0.250000
O O14 0.146003 0.914528 0.099118
O O15 0.088796 0.053908 0.113192
O O16 0.058558 0.897812 0.066775
O O17 0.803902 0.112307 0.750000
O O18 0.500000 0.587807 0.079486
#
# Coordination Sequence:
#
# PCOD8257595 Si02
#       7
#    16  16  16  16  16  16  16
#     4  10  21  38  59  82 112 144 176 226 286 336
#     4   9  18  34  53  73 105 144 178 224 279 319
#     4  10  20  35  56  81 103 136 185 222 269 338
#     4   9  18  34  52  75 106 139 179 225 273 331
#     4  10  19  33  53  79 110 148 191 234 276 326
#     4   9  18  33  51  74 106 141 181 227 277 324
#     4  10  21  36  53  80 112 148 190 231 280 337
#
# _framework density 19.106238999999999
#
# number of rings (size 3 to 8) (size 9 to 14) (size 15 to 20)
#    0.000    2.429    0.000    2.571    0.000    3.143 
#   10.286    0.000    0.000    1.286    0.000    0.000 
#    0.000    0.000    0.000    0.000    0.000    0.000 
#
# Total GULP energy -693904.295526 kJ/mol
# GULP energy per Si atom -12391.148134 kJ/mol
# Density = 1.906275 g / cm^3
# Si number density = 19.106239 Si / 1000 Ang^3
#
#
#
# Elastic Constant Matrix: (Units=GPa)
#
#
# Indices 1 2 3 4 5 6 
#
# 1 89.3641 65.0140 19.6993 0.0000 0.0000 0.0000
# 2 65.0140 97.9244 23.9325 0.0000 0.0000 0.0000
# 3 19.6993 23.9325 79.3398 0.0000 0.0000 0.0000
# 4 0.0000 0.0000 0.0000 24.7710 0.0000 0.0000
# 5 0.0000 0.0000 0.0000 0.0000 23.7810 0.0000
# 6 0.0000 0.0000 0.0000 0.0000 0.0000 24.3634
#
#
#
# Elastic Compliance Matrix: (Units=1/GPa)
#
#
# Indices 1 2 3 4 5 6 
#
# 1 0.021738 -0.014157 -0.001127 0.000000 0.000000 0.000000
# 2 -0.014157 0.020244 -0.002592 0.000000 0.000000 0.000000
# 3 -0.001127 -0.002592 0.013666 0.000000 0.000000 0.000000
# 4 0.000000 0.000000 0.000000 0.040370 0.000000 0.000000
# 5 0.000000 0.000000 0.000000 0.000000 0.042050 0.000000
# 6 0.000000 0.000000 0.000000 0.000000 0.000000 0.041045
#
#
# Mechanical properties :
#
#
# Convention : Reuss Voigt Hill
#
# Bulk Modulus (GPa) = 50.25874 53.76888 52.01381
# Shear Modulus (GPa) = 22.57374 25.11526 23.84450
#
# Velocity S-wave (km/s) = 3.44100 3.62954 3.53653
# Velocity P-wave (km/s) = 6.49225 6.76520 6.63013
#
# Compressibility (1/GPa) = 0.01989704
#
# Stress axis : x y z
#
# Youngs Moduli (GPa) = 46.00251 49.39650 73.17650
#
# Poissons Ratio (x) = 0.69930 0.08247
# Poissons Ratio (y) = 0.65125 0.18965
# Poissons Ratio (z) = 0.05184 0.12802
#
# Static dielectric constant tensor:
#      x y z
#    x 3.538740 0.000000 0.000000 
#    y 0.000000 3.646400 0.000000 
#    z 0.000000 0.000000 3.599990 
# 
# 
# High freq. dielectric constant tensor:
#      x y z
#    x 1.725210 0.000000 0.000000 
#    y 0.000000 1.743110 0.000000 
#    z 0.000000 0.000000 1.750380 
# 
# From -- ./inp_files/37930.got.cif
#   From: 2010.03.12/outbox.cif.g09.slc.cpg/sg63_19_cif.got.tgz:37930.got - 2010.04.10 19:34:48.
