data_PCOD8257681
_publ_section_title
;
Structure prediction by ZEFSAII (Michael W. Deem and Ramdas Pophale) SiO2 
 PCOD8257681
Probable space group: C M C M
;
_chemical_formula_sum "Si O2"
_cell_formula_units_Z 80
_cell_length_a 8.555213
_cell_length_b 20.583791
_cell_length_c 23.326488
_cell_angle_alpha 90.000000
_cell_angle_beta 90.000000
_cell_angle_gamma 90.000000
_cell_volume 4107.764594
_symmetry_space_group_name_H-M "C M C M"
_symmetry_group_IT_number 63
_symmetry_cell_setting 'orthorhombic'
loop_
_space_group_symop_operation_xyz
x,y,z
-x,-y,1/2+z
x,-y,-z
-x,y,1/2-z
-x,-y,-z
x,y,1/2-z
-x,y,z
x,-y,1/2+z
1/2+x,1/2+y,z
1/2-x,1/2-y,1/2+z
1/2+x,1/2-y,-z
1/2-x,1/2+y,1/2-z
1/2-x,1/2-y,-z
1/2+x,1/2+y,1/2-z
1/2-x,1/2+y,z
1/2+x,1/2-y,1/2+z
loop_
_atom_site_type_symbol
_atom_site_label
_atom_site_fract_x
_atom_site_fract_y
_atom_site_fract_z
Si Si1 0.815033 0.925120 0.750000
Si Si2 0.315785 0.749516 0.564212
Si Si3 0.313876 0.376539 0.129919
Si Si4 0.314036 0.500453 0.063523
Si Si5 0.686198 0.573239 0.750000
Si Si6 0.815016 0.127682 0.370986
O O1 0.761125 0.883747 0.694666
O O2 0.000000 0.932456 0.750000
O O3 0.746666 0.998997 0.750000
O O4 0.500000 0.744190 0.558520
O O5 0.250000 0.750000 0.500000
O O6 0.247546 0.688334 0.600017
O O7 0.271315 0.811893 0.601074
O O8 0.500000 0.375556 0.128581
O O9 0.246412 0.437700 0.095283
O O10 0.254279 0.385700 0.195157
O O11 0.500000 0.497860 0.063170
O O12 0.256773 0.564947 0.094748
O O13 0.244354 0.500000 0.000000
O O14 0.500000 0.568209 0.750000
O O15 0.000000 0.138285 0.376056
#
# Coordination Sequence:
#
# PCOD8257681 Si02
#       6
#     8  16  16  16   8  16
#     4   9  16  29  53  85 113 138 173 224 274 318
#     4  11  23  38  55  78 110 147 183 225 279 331
#     4   9  17  29  49  77 106 137 176 224 270 307
#     4   9  15  25  46  75 102 132 177 227 265 301
#     4   9  14  27  50  81 111 130 171 234 274 302
#     4  10  19  33  55  82 111 142 178 221 272 327
#
# _framework density 19.475311999999999
#
# number of rings (size 3 to 8) (size 9 to 14) (size 15 to 20)
#    0.000    2.400    2.000    1.800    0.000    4.000 
#    0.000    1.500    0.000    6.600    0.000    0.000 
#    0.000    0.000    0.000    0.000    0.000    0.000 
#
# Total GULP energy -495833.682503 kJ/mol
# GULP energy per Si atom -12395.842063 kJ/mol
# Density = 1.943098 g / cm^3
# Si number density = 19.475312 Si / 1000 Ang^3
#
#
#
# Elastic Constant Matrix: (Units=GPa)
#
#
# Indices 1 2 3 4 5 6 
#
# 1 21.5397 19.2418 18.4812 0.0000 0.0000 0.0000
# 2 19.2418 181.1014 106.7863 0.0000 0.0000 0.0000
# 3 18.4812 106.7863 220.9712 0.0000 0.0000 0.0000
# 4 0.0000 0.0000 0.0000 42.2647 0.0000 0.0000
# 5 0.0000 0.0000 0.0000 0.0000 17.2453 0.0000
# 6 0.0000 0.0000 0.0000 0.0000 0.0000 23.0634
#
#
#
# Elastic Compliance Matrix: (Units=1/GPa)
#
#
# Indices 1 2 3 4 5 6 
#
# 1 0.052157 -0.004153 -0.002355 0.000000 0.000000 0.000000
# 2 -0.004153 0.008053 -0.003544 0.000000 0.000000 0.000000
# 3 -0.002355 -0.003544 0.006435 0.000000 0.000000 0.000000
# 4 0.000000 0.000000 0.000000 0.023660 0.000000 0.000000
# 5 0.000000 0.000000 0.000000 0.000000 0.057987 0.000000
# 6 0.000000 0.000000 0.000000 0.000000 0.000000 0.043359
#
#
# Mechanical properties :
#
#
# Convention : Reuss Voigt Hill
#
# Bulk Modulus (GPa) = 21.48691 79.18121 50.33406
# Shear Modulus (GPa) = 22.00037 35.12154 28.56096
#
# Velocity S-wave (km/s) = 3.36468 4.25124 3.83367
# Velocity P-wave (km/s) = 5.11386 8.05251 6.74516
#
# Compressibility (1/GPa) = 0.04653996
#
# Stress axis : x y z
#
# Youngs Moduli (GPa) = 19.17305 124.17892 155.39326
#
# Poissons Ratio (x) = 0.51569 0.36600
# Poissons Ratio (y) = 0.07962 0.55076
# Poissons Ratio (z) = 0.04516 0.44013
#
# Static dielectric constant tensor:
#      x y z
#    x 2.891780 0.000000 0.000000 
#    y 0.000000 3.732720 0.000000 
#    z 0.000000 0.000000 4.060920 
# 
# 
# High freq. dielectric constant tensor:
#      x y z
#    x 1.692080 0.000000 0.000000 
#    y 0.000000 1.767500 0.000000 
#    z 0.000000 0.000000 1.781950 
# 
# From -- ./inp_files/68110.got.cif
#   From: 2010.03.12/outbox.cif.g09.slc.cpg/sg63_35_cif.got.tgz:68110.got - 2010.04.10 19:34:48.
