data_PCOD8257024
_publ_section_title
;
Structure prediction by ZEFSAII (Michael W. Deem and Ramdas Pophale) SiO2 
 PCOD8257024
Probable space group: C M C M
;
_chemical_formula_sum "Si O2"
_cell_formula_units_Z 88
_cell_length_a 17.127477
_cell_length_b 32.402139
_cell_length_c 9.043490
_cell_angle_alpha 90.000000
_cell_angle_beta 90.000000
_cell_angle_gamma 90.000000
_cell_volume 5018.837524
_symmetry_space_group_name_H-M "C M C M"
_symmetry_group_IT_number 63
_symmetry_cell_setting 'orthorhombic'
loop_
_space_group_symop_operation_xyz
x,y,z
-x,-y,1/2+z
x,-y,-z
-x,y,1/2-z
-x,-y,-z
x,y,1/2-z
-x,y,z
x,-y,1/2+z
1/2+x,1/2+y,z
1/2-x,1/2-y,1/2+z
1/2+x,1/2-y,-z
1/2-x,1/2+y,1/2-z
1/2-x,1/2-y,-z
1/2+x,1/2+y,1/2-z
1/2-x,1/2+y,z
1/2+x,1/2-y,1/2+z
loop_
_atom_site_type_symbol
_atom_site_label
_atom_site_fract_x
_atom_site_fract_y
_atom_site_fract_z
Si Si1 0.244479 0.383602 0.424762
Si Si2 0.500000 0.542364 0.081087
Si Si3 0.914449 0.343489 0.418658
Si Si4 0.669595 0.544514 0.424460
Si Si5 0.806320 0.193733 0.415846
Si Si6 0.137002 0.266786 0.914819
O O1 0.256958 0.387094 0.250000
O O2 0.153905 0.374781 0.468291
O O3 0.265966 0.426356 0.502325
O O4 0.299755 0.347563 0.487263
O O5 0.500000 0.529762 0.250000
O O6 0.417278 0.564841 0.044740
O O7 0.500000 0.500000 0.000000
O O8 0.898256 0.330462 0.250000
O O9 0.916412 0.301594 0.512004
O O10 0.000000 0.364731 0.436880
O O11 0.676631 0.500000 0.500000
O O12 0.686172 0.540435 0.250000
O O13 0.834454 0.182353 0.250000
O O14 0.868726 0.224319 0.492276
O O15 0.724829 0.217140 0.409544
O O16 0.106012 0.257939 0.750000
#
# Coordination Sequence:
#
# PCOD8257024 Si02
#       6
#    16   8  16  16  16  16
#     4  10  19  31  49  74 101 130 166 208 251 294
#     4   8  16  30  50  74  98 124 152 184 226 282
#     4   9  18  32  49  69  96 132 172 211 251 295
#     4  10  19  33  53  77 103 130 161 197 241 295
#     4   9  16  27  44  66  92 123 157 194 240 293
#     4   9  16  26  43  67  92 119 155 200 245 289
#
# _framework density 17.533940999999999
#
# number of rings (size 3 to 8) (size 9 to 14) (size 15 to 20)
#    0.000    2.727    0.000    2.182    0.000    6.182 
#    0.000    0.000    2.000    0.545    0.000    0.000 
#    0.000    0.000    0.000    0.000    0.000    0.000 
#
# Total GULP energy -545251.164767 kJ/mol
# GULP energy per Si atom -12392.071927 kJ/mol
# Density = 1.749403 g / cm^3
# Si number density = 17.533941 Si / 1000 Ang^3
#
#
#
# Elastic Constant Matrix: (Units=GPa)
#
#
# Indices 1 2 3 4 5 6 
#
# 1 86.4669 51.3414 43.1410 0.0000 0.0000 0.0000
# 2 51.3414 96.0692 52.1417 0.0000 0.0000 0.0000
# 3 43.1410 52.1417 110.9558 0.0000 0.0000 0.0000
# 4 0.0000 0.0000 0.0000 33.9140 0.0000 0.0000
# 5 0.0000 0.0000 0.0000 0.0000 17.2694 0.0000
# 6 0.0000 0.0000 0.0000 0.0000 0.0000 18.5225
#
#
#
# Elastic Compliance Matrix: (Units=1/GPa)
#
#
# Indices 1 2 3 4 5 6 
#
# 1 0.017792 -0.007724 -0.003288 0.000000 0.000000 0.000000
# 2 -0.007724 0.017326 -0.005139 0.000000 0.000000 0.000000
# 3 -0.003288 -0.005139 0.012706 0.000000 0.000000 0.000000
# 4 0.000000 0.000000 0.000000 0.029486 0.000000 0.000000
# 5 0.000000 0.000000 0.000000 0.000000 0.057906 0.000000
# 6 0.000000 0.000000 0.000000 0.000000 0.000000 0.053988
#
#
# Mechanical properties :
#
#
# Convention : Reuss Voigt Hill
#
# Bulk Modulus (GPa) = 64.42329 65.19335 64.80832
# Shear Modulus (GPa) = 22.05752 23.73237 22.89494
#
# Velocity S-wave (km/s) = 3.55066 3.68300 3.61744
# Velocity P-wave (km/s) = 7.32335 7.43962 7.38171
#
# Compressibility (1/GPa) = 0.01552234
#
# Stress axis : x y z
#
# Youngs Moduli (GPa) = 56.20596 57.71653 78.70287
#
# Poissons Ratio (x) = 0.44578 0.25878
# Poissons Ratio (y) = 0.43412 0.40445
# Poissons Ratio (z) = 0.18481 0.29661
#
# Static dielectric constant tensor:
#      x y z
#    x 3.298360 0.000000 0.000000 
#    y 0.000000 2.988370 0.000000 
#    z 0.000000 0.000000 3.459510 
# 
# 
# High freq. dielectric constant tensor:
#      x y z
#    x 1.657170 0.000000 0.000000 
#    y 0.000000 1.647040 0.000000 
#    z 0.000000 0.000000 1.695180 
# 
# From -- ./inp_files/6885.got.cif
#   From: 2010.03.12/outbox.cif.g09.slc.cpg/sg63_4_cif.got.tgz:6885.got - 2010.04.10 19:34:48.
