data_PCOD8257672
_publ_section_title
;
Structure prediction by ZEFSAII (Michael W. Deem and Ramdas Pophale) SiO2 
 PCOD8257672
Probable space group: C M C M
;
_chemical_formula_sum "Si O2"
_cell_formula_units_Z 96
_cell_length_a 11.559991
_cell_length_b 31.391398
_cell_length_c 14.532110
_cell_angle_alpha 90.000000
_cell_angle_beta 90.000000
_cell_angle_gamma 90.000000
_cell_volume 5273.474250
_symmetry_space_group_name_H-M "C M C M"
_symmetry_group_IT_number 63
_symmetry_cell_setting 'orthorhombic'
loop_
_space_group_symop_operation_xyz
x,y,z
-x,-y,1/2+z
x,-y,-z
-x,y,1/2-z
-x,-y,-z
x,y,1/2-z
-x,y,z
x,-y,1/2+z
1/2+x,1/2+y,z
1/2-x,1/2-y,1/2+z
1/2+x,1/2-y,-z
1/2-x,1/2+y,1/2-z
1/2-x,1/2-y,-z
1/2+x,1/2+y,1/2-z
1/2-x,1/2+y,z
1/2+x,1/2-y,1/2+z
loop_
_atom_site_type_symbol
_atom_site_label
_atom_site_fract_x
_atom_site_fract_y
_atom_site_fract_z
Si Si1 0.136445 0.774295 0.351722
Si Si2 0.000000 0.381956 0.857822
Si Si3 0.863267 0.059790 0.984461
Si Si4 0.256498 0.508964 0.144707
Si Si5 0.204430 0.680865 0.142579
Si Si6 0.500000 0.976618 0.596290
Si Si7 0.365770 0.656882 0.990880
O O1 0.190292 0.780150 0.250000
O O2 0.164876 0.727532 0.390622
O O3 0.190842 0.811004 0.416323
O O4 0.000000 0.779544 0.346164
O O5 0.109808 0.353973 0.885057
O O6 0.000000 0.425398 0.916270
O O7 0.000000 0.393945 0.750000
O O8 0.837393 0.108731 0.962357
O O9 0.000000 0.049767 0.988498
O O10 0.803784 0.034258 0.901238
O O11 0.805992 0.047807 0.082951
O O12 0.301695 0.512828 0.250000
O O13 0.116760 0.509338 0.148672
O O14 0.229134 0.680376 0.250000
O O15 0.320768 0.667748 0.091868
O O16 0.500000 0.000000 0.500000
O O17 0.500000 0.665250 0.996282
#
# Coordination Sequence:
#
# PCOD8257672 Si02
#       7
#    16   8  16  16  16   8  16
#     4   9  17  33  54  78 105 137 178 221 262 308
#     4  10  20  34  56  84 106 135 181 223 264 317
#     4  10  22  38  54  81 110 143 189 228 266 324
#     4  11  22  38  58  79 108 144 183 227 278 327
#     4  10  19  33  55  81 108 137 175 220 265 318
#     4  12  22  36  56  81 113 142 177 225 283 327
#     4  10  21  34  52  78 111 141 175 217 266 320
#
# _framework density 18.204317
#
# number of rings (size 3 to 8) (size 9 to 14) (size 15 to 20)
#    0.000    1.833    2.500    3.250    0.000    4.333 
#    0.000    3.333    0.000    0.000    0.000    0.000 
#    0.000    0.000    0.000    0.000    0.000    0.000 
#
# Total GULP energy -595084.616560 kJ/mol
# GULP energy per Si atom -12397.596178 kJ/mol
# Density = 1.816288 g / cm^3
# Si number density = 18.204317 Si / 1000 Ang^3
#
#
#
# Elastic Constant Matrix: (Units=GPa)
#
#
# Indices 1 2 3 4 5 6 
#
# 1 72.3968 43.8589 39.3390 0.0000 0.0000 0.0000
# 2 43.8589 154.1134 64.8534 0.0000 0.0000 0.0000
# 3 39.3390 64.8534 100.0341 0.0000 0.0000 0.0000
# 4 0.0000 0.0000 0.0000 22.4363 0.0000 0.0000
# 5 0.0000 0.0000 0.0000 0.0000 24.5276 0.0000
# 6 0.0000 0.0000 0.0000 0.0000 0.0000 -149.3770
#
#
#
# Elastic Compliance Matrix: (Units=1/GPa)
#
#
# Indices 1 2 3 4 5 6 
#
# 1 0.018546 -0.003038 -0.005324 0.000000 0.000000 0.000000
# 2 -0.003038 0.009421 -0.004913 0.000000 0.000000 0.000000
# 3 -0.005324 -0.004913 0.015275 0.000000 0.000000 0.000000
# 4 0.000000 0.000000 0.000000 0.044571 0.000000 0.000000
# 5 0.000000 0.000000 0.000000 0.000000 0.040770 0.000000
# 6 0.000000 0.000000 0.000000 0.000000 0.000000 -0.006694
#
#
# Mechanical properties :
#
#
# Convention : Reuss Voigt Hill
#
# Bulk Modulus (GPa) = 59.90563 69.18298 64.54431
# Shear Modulus (GPa) = 32.46714 -8.58307 11.94203
#
# Velocity S-wave (km/s) = 4.22771 -2.17373 2.56403
# Velocity P-wave (km/s) = 7.53726 5.63791 6.65568
#
# Compressibility (1/GPa) = 0.01669292
#
# Stress axis : x y z
#
# Youngs Moduli (GPa) = 53.92028 106.14994 65.46450
#
# Poissons Ratio (x) = 0.32243 0.34853
# Poissons Ratio (y) = 0.16378 0.32163
# Poissons Ratio (z) = 0.28707 0.52151
#
# Static dielectric constant tensor:
#      x y z
#    x 3.341690 0.000000 0.000000 
#    y 0.000000 3.573440 0.000000 
#    z 0.000000 0.000000 3.389600 
# 
# 
# High freq. dielectric constant tensor:
#      x y z
#    x 1.696270 0.000000 0.000000 
#    y 0.000000 1.719400 0.000000 
#    z 0.000000 0.000000 1.696150 
# 
# From -- ./inp_files/30360.got.cif
#   From: 2010.03.12/outbox.cif.g09.slc.cpg/sg63_16_cif.got.tgz:30360.got - 2010.04.10 19:34:48.
