data_PCOD8257481
_publ_section_title
;
Structure prediction by ZEFSAII (Michael W. Deem and Ramdas Pophale) SiO2 
 PCOD8257481
Probable space group: C M C M
;
_chemical_formula_sum "Si O2"
_cell_formula_units_Z 128
_cell_length_a 23.692976
_cell_length_b 19.194473
_cell_length_c 16.251192
_cell_angle_alpha 90.000000
_cell_angle_beta 90.000000
_cell_angle_gamma 90.000000
_cell_volume 7390.622648
_symmetry_space_group_name_H-M "C M C M"
_symmetry_group_IT_number 63
_symmetry_cell_setting 'orthorhombic'
loop_
_space_group_symop_operation_xyz
x,y,z
-x,-y,1/2+z
x,-y,-z
-x,y,1/2-z
-x,-y,-z
x,y,1/2-z
-x,y,z
x,-y,1/2+z
1/2+x,1/2+y,z
1/2-x,1/2-y,1/2+z
1/2+x,1/2-y,-z
1/2-x,1/2+y,1/2-z
1/2-x,1/2-y,-z
1/2+x,1/2+y,1/2-z
1/2-x,1/2+y,z
1/2+x,1/2-y,1/2+z
loop_
_atom_site_type_symbol
_atom_site_label
_atom_site_fract_x
_atom_site_fract_y
_atom_site_fract_z
Si Si1 0.436537 0.298152 0.156128
Si Si2 0.745353 0.249585 0.657471
Si Si3 0.860021 0.417891 0.992215
Si Si4 0.239064 0.888639 0.567710
Si Si5 0.236677 0.969412 0.340217
Si Si6 0.671024 0.647913 0.917302
Si Si7 0.841389 0.368639 0.341876
Si Si8 0.564644 0.865618 0.656733
O O1 0.421732 0.318259 0.250000
O O2 0.500000 0.321535 0.134379
O O3 0.395288 0.337613 0.093136
O O4 0.429796 0.216208 0.144281
O O5 0.767745 0.242711 0.750000
O O6 0.736334 0.330771 0.638580
O O7 0.794262 0.218673 0.600147
O O8 0.687057 0.207077 0.647220
O O9 0.798149 0.383855 0.980762
O O10 0.898484 0.402497 0.913134
O O11 0.856892 0.500000 0.000000
O O12 0.882803 0.383588 0.079391
O O13 0.185546 0.875080 0.509426
O O14 0.232690 0.966588 0.598850
O O15 0.229039 0.000583 0.250000
O O16 0.187335 0.913954 0.355558
O O17 0.295955 0.930437 0.349190
O O18 0.870288 0.372457 0.250000
O O19 0.584982 0.885833 0.750000
O O20 0.500000 0.889579 0.645490
#
# Coordination Sequence:
#
# PCOD8257481 Si02
#       8
#    16  16  16  16  16  16  16  16
#     4   9  18  34  55  78 100 128 172 219 264 315
#     4  10  20  31  46  70 102 139 174 206 254 312
#     4  12  21  33  53  76 106 142 179 212 259 316
#     4  12  21  31  46  78 109 137 170 213 252 321
#     4  10  19  33  49  66 103 145 173 204 253 310
#     4  11  19  31  51  74 105 133 165 213 264 307
#     4   9  19  34  48  69 103 140 178 217 252 300
#     4   9  21  39  57  79 106 134 172 225 274 311
#
# _framework density 17.319244000000001
#
# number of rings (size 3 to 8) (size 9 to 14) (size 15 to 20)
#    0.000    1.750    3.750    4.500    1.750    2.750 
#    0.000    0.000    0.000    1.875    0.000    0.000 
#    0.000    1.500    0.000    0.000    0.000    0.000 
#
# Total GULP energy -793240.440342 kJ/mol
# GULP energy per Si atom -12394.381880 kJ/mol
# Density = 1.727983 g / cm^3
# Si number density = 17.319244 Si / 1000 Ang^3
#
#
#
# Elastic Constant Matrix: (Units=GPa)
#
#
# Indices 1 2 3 4 5 6 
#
# 1 60.5233 25.7089 38.6820 0.0000 0.0000 0.0000
# 2 25.7089 68.6220 30.0776 0.0000 0.0000 0.0000
# 3 38.6820 30.0776 110.5886 0.0000 0.0000 0.0000
# 4 0.0000 0.0000 0.0000 27.7821 0.0000 0.0000
# 5 0.0000 0.0000 0.0000 0.0000 26.6487 0.0000
# 6 0.0000 0.0000 0.0000 0.0000 0.0000 8.7497
#
#
#
# Elastic Compliance Matrix: (Units=1/GPa)
#
#
# Indices 1 2 3 4 5 6 
#
# 1 0.023161 -0.005820 -0.006518 0.000000 0.000000 0.000000
# 2 -0.005820 0.018007 -0.002862 0.000000 0.000000 0.000000
# 3 -0.006518 -0.002862 0.012101 0.000000 0.000000 0.000000
# 4 0.000000 0.000000 0.000000 0.035994 0.000000 0.000000
# 5 0.000000 0.000000 0.000000 0.000000 0.037525 0.000000
# 6 0.000000 0.000000 0.000000 0.000000 0.000000 0.114289
#
#
# Mechanical properties :
#
#
# Convention : Reuss Voigt Hill
#
# Bulk Modulus (GPa) = 43.72800 47.63010 45.67905
# Shear Modulus (GPa) = 17.91464 22.32047 20.11755
#
# Velocity S-wave (km/s) = 3.21966 3.59383 3.41188
# Velocity P-wave (km/s) = 6.25497 6.69192 6.47713
#
# Compressibility (1/GPa) = 0.02286864
#
# Stress axis : x y z
#
# Youngs Moduli (GPa) = 43.17637 55.53267 82.63858
#
# Poissons Ratio (x) = 0.32320 0.53867
# Poissons Ratio (y) = 0.25129 0.23650
# Poissons Ratio (z) = 0.28144 0.15893
#
# Static dielectric constant tensor:
#      x y z
#    x 2.961680 0.000000 0.000000 
#    y 0.000000 3.169810 0.000000 
#    z 0.000000 0.000000 3.508680 
# 
# 
# High freq. dielectric constant tensor:
#      x y z
#    x 1.616640 0.000000 0.000000 
#    y 0.000000 1.667890 0.000000 
#    z 0.000000 0.000000 1.684590 
# 
# From -- ./inp_files/48447.got.cif
#   From: 2010.03.12/outbox.cif.g09.slc.cpg/sg63_25_cif.got.tgz:48447.got - 2010.04.10 19:34:48.
