data_PCOD8257122
_publ_section_title
;
Structure prediction by ZEFSAII (Michael W. Deem and Ramdas Pophale) SiO2 
 PCOD8257122
Probable space group: C M C M
;
_chemical_formula_sum "Si O2"
_cell_formula_units_Z 80
_cell_length_a 12.659155
_cell_length_b 23.924940
_cell_length_c 13.380408
_cell_angle_alpha 90.000000
_cell_angle_beta 90.000000
_cell_angle_gamma 90.000000
_cell_volume 4052.517800
_symmetry_space_group_name_H-M "C M C M"
_symmetry_group_IT_number 63
_symmetry_cell_setting 'orthorhombic'
loop_
_space_group_symop_operation_xyz
x,y,z
-x,-y,1/2+z
x,-y,-z
-x,y,1/2-z
-x,-y,-z
x,y,1/2-z
-x,y,z
x,-y,1/2+z
1/2+x,1/2+y,z
1/2-x,1/2-y,1/2+z
1/2+x,1/2-y,-z
1/2-x,1/2+y,1/2-z
1/2-x,1/2-y,-z
1/2+x,1/2+y,1/2-z
1/2-x,1/2+y,z
1/2+x,1/2-y,1/2+z
loop_
_atom_site_type_symbol
_atom_site_label
_atom_site_fract_x
_atom_site_fract_y
_atom_site_fract_z
Si Si1 0.377093 0.805173 0.939297
Si Si2 0.219942 0.113826 0.137386
Si Si3 0.381781 0.499710 0.361582
Si Si4 0.264472 0.206152 0.861308
Si Si5 0.881455 0.118068 0.941468
O O1 0.500000 0.799325 0.915087
O O2 0.336383 0.865348 0.896909
O O3 0.311173 0.758682 0.880589
O O4 0.358916 0.798056 0.058260
O O5 0.192102 0.134105 0.250000
O O6 0.208893 0.046758 0.130352
O O7 0.138846 0.139685 0.055398
O O8 0.380509 0.474247 0.250000
O O9 0.500000 0.524987 0.383289
O O10 0.358517 0.448806 0.437557
O O11 0.313072 0.210850 0.750000
O O12 0.194716 0.150045 0.865981
O O13 0.000000 0.132040 0.909623
#
# Coordination Sequence:
#
# PCOD8257122 Si02
#       5
#    16  16  16  16  16
#     4  10  22  39  57  79 107 139 176 216 258 308
#     4  10  20  32  48  72 104 143 181 214 253 305
#     4   9  17  30  50  77 108 140 174 216 268 321
#     4  10  21  37  58  83 108 135 171 216 264 314
#     4  10  19  31  51  80 111 141 174 216 268 321
#
# _framework density 19.740814
#
# number of rings (size 3 to 8) (size 9 to 14) (size 15 to 20)
#    0.000    2.200    0.000    3.000    0.000    6.800 
#    0.000    1.000    0.000   19.200    0.000    8.400 
#    0.000    0.000    0.000    0.000    0.000    0.000 
#
# Total GULP energy -495712.680859 kJ/mol
# GULP energy per Si atom -12392.817021 kJ/mol
# Density = 1.969588 g / cm^3
# Si number density = 19.740814 Si / 1000 Ang^3
#
#
#
# Elastic Constant Matrix: (Units=GPa)
#
#
# Indices 1 2 3 4 5 6 
#
# 1 62.2238 34.7260 11.6708 0.0000 0.0000 0.0000
# 2 34.7260 73.5208 20.1646 0.0000 0.0000 0.0000
# 3 11.6708 20.1646 131.7855 0.0000 0.0000 0.0000
# 4 0.0000 0.0000 0.0000 26.9940 0.0000 0.0000
# 5 0.0000 0.0000 0.0000 0.0000 15.1461 0.0000
# 6 0.0000 0.0000 0.0000 0.0000 0.0000 26.5061
#
#
#
# Elastic Compliance Matrix: (Units=1/GPa)
#
#
# Indices 1 2 3 4 5 6 
#
# 1 0.021841 -0.010214 -0.000371 0.000000 0.000000 0.000000
# 2 -0.010214 0.018974 -0.001999 0.000000 0.000000 0.000000
# 3 -0.000371 -0.001999 0.007927 0.000000 0.000000 0.000000
# 4 0.000000 0.000000 0.000000 0.037045 0.000000 0.000000
# 5 0.000000 0.000000 0.000000 0.000000 0.066024 0.000000
# 6 0.000000 0.000000 0.000000 0.000000 0.000000 0.037727
#
#
# Mechanical properties :
#
#
# Convention : Reuss Voigt Hill
#
# Bulk Modulus (GPa) = 42.42055 44.51698 43.46876
# Shear Modulus (GPa) = 22.46538 27.12716 24.79627
#
# Velocity S-wave (km/s) = 3.37711 3.71100 3.54798
# Velocity P-wave (km/s) = 6.06151 6.40013 6.23312
#
# Compressibility (1/GPa) = 0.02357348
#
# Stress axis : x y z
#
# Youngs Moduli (GPa) = 45.78527 52.70289 126.15439
#
# Poissons Ratio (x) = 0.53832 0.04684
# Poissons Ratio (y) = 0.46767 0.25215
# Poissons Ratio (z) = 0.01700 0.10534
#
# Static dielectric constant tensor:
#      x y z
#    x 3.248370 0.000000 0.000000 
#    y 0.000000 3.648150 0.000000 
#    z 0.000000 0.000000 3.955460 
# 
# 
# High freq. dielectric constant tensor:
#      x y z
#    x 1.719580 0.000000 0.000000 
#    y 0.000000 1.765840 0.000000 
#    z 0.000000 0.000000 1.796820 
# 
# From -- ./inp_files/30016.got.cif
#   From: 2010.03.12/outbox.cif.g09.slc.cpg/sg63_16_cif.got.tgz:30016.got - 2010.04.10 19:34:48.
