data_PCOD8257658
_publ_section_title
;
Structure prediction by ZEFSAII (Michael W. Deem and Ramdas Pophale) SiO2 
 PCOD8257658
Probable space group: C M C M
;
_chemical_formula_sum "Si O2"
_cell_formula_units_Z 88
_cell_length_a 18.180582
_cell_length_b 16.394012
_cell_length_c 14.542592
_cell_angle_alpha 90.000000
_cell_angle_beta 90.000000
_cell_angle_gamma 90.000000
_cell_volume 4334.458512
_symmetry_space_group_name_H-M "C M C M"
_symmetry_group_IT_number 63
_symmetry_cell_setting 'orthorhombic'
loop_
_space_group_symop_operation_xyz
x,y,z
-x,-y,1/2+z
x,-y,-z
-x,y,1/2-z
-x,-y,-z
x,y,1/2-z
-x,y,z
x,-y,1/2+z
1/2+x,1/2+y,z
1/2-x,1/2-y,1/2+z
1/2+x,1/2-y,-z
1/2-x,1/2+y,1/2-z
1/2-x,1/2-y,-z
1/2+x,1/2+y,1/2-z
1/2-x,1/2+y,z
1/2+x,1/2-y,1/2+z
loop_
_atom_site_type_symbol
_atom_site_label
_atom_site_fract_x
_atom_site_fract_y
_atom_site_fract_z
Si Si1 0.918648 0.178425 0.587330
Si Si2 0.582130 0.608100 0.111423
Si Si3 0.820037 0.955877 0.351414
Si Si4 0.798999 0.233742 0.353105
Si Si5 0.668189 0.171043 0.470633
Si Si6 0.798573 0.500000 0.500000
O O1 0.919627 0.124568 0.496310
O O2 0.856221 0.135274 0.648872
O O3 0.897526 0.272539 0.566586
O O4 0.000000 0.179097 0.633031
O O5 0.500000 0.609998 0.152997
O O6 0.615254 0.519199 0.127106
O O7 0.629592 0.677537 0.161056
O O8 0.788080 0.971733 0.250000
O O9 0.752933 0.963163 0.420937
O O10 0.776133 0.264243 0.250000
O O11 0.737558 0.178964 0.402734
O O12 0.813924 0.308591 0.422383
O O13 0.649028 0.074480 0.466819
#
# Coordination Sequence:
#
# PCOD8257658 Si02
#       6
#    16  16  16  16  16   8
#     4  10  21  39  58  80 112 149 187 236 285 333
#     4  10  19  33  54  83 119 152 180 222 282 343
#     4  12  22  34  56  86 118 154 189 225 280 346
#     4  10  19  35  55  79 112 148 191 232 275 336
#     4  10  22  37  56  79 107 150 191 235 286 328
#     4  12  22  40  56  82 120 148 188 244 280 332
#
# _framework density 20.302420999999999
#
# number of rings (size 3 to 8) (size 9 to 14) (size 15 to 20)
#    0.000    1.455    3.636    3.273    0.000    6.909 
#    0.000    0.455    0.000    0.000    0.000    0.000 
#    0.000    4.364    0.000    0.000    0.000    0.000 
#
# Total GULP energy -545368.015359 kJ/mol
# GULP energy per Si atom -12394.727622 kJ/mol
# Density = 2.025621 g / cm^3
# Si number density = 20.302421 Si / 1000 Ang^3
#
#
#
# Elastic Constant Matrix: (Units=GPa)
#
#
# Indices 1 2 3 4 5 6 
#
# 1 38.0126 23.0064 26.9977 0.0000 0.0000 0.0000
# 2 23.0064 134.1361 14.9066 0.0000 0.0000 0.0000
# 3 26.9977 14.9066 77.6202 0.0000 0.0000 0.0000
# 4 0.0000 0.0000 0.0000 3.4980 0.0000 0.0000
# 5 0.0000 0.0000 0.0000 0.0000 -9.0769 0.0000
# 6 0.0000 0.0000 0.0000 0.0000 0.0000 26.0313
#
#
#
# Elastic Compliance Matrix: (Units=1/GPa)
#
#
# Indices 1 2 3 4 5 6 
#
# 1 0.038164 -0.005181 -0.012279 0.000000 0.000000 0.000000
# 2 -0.005181 0.008321 0.000204 0.000000 0.000000 0.000000
# 3 -0.012279 0.000204 0.017115 0.000000 0.000000 0.000000
# 4 0.000000 0.000000 0.000000 0.285878 0.000000 0.000000
# 5 0.000000 0.000000 0.000000 0.000000 -0.110170 0.000000
# 6 0.000000 0.000000 0.000000 0.000000 0.000000 0.038415
#
#
# Mechanical properties :
#
#
# Convention : Reuss Voigt Hill
#
# Bulk Modulus (GPa) = 34.37891 42.17671 38.27781
# Shear Modulus (GPa) = 15.53127 16.41436 15.97281
#
# Velocity S-wave (km/s) = 2.76886 2.84649 2.80794
# Velocity P-wave (km/s) = 5.21462 5.62340 5.42286
#
# Compressibility (1/GPa) = 0.02908760
#
# Stress axis : x y z
#
# Youngs Moduli (GPa) = 26.20287 120.17675 58.42857
#
# Poissons Ratio (x) = 0.62265 0.71745
# Poissons Ratio (y) = 0.13576 -0.01192
# Poissons Ratio (z) = 0.32175 -0.02452
#
# Static dielectric constant tensor:
#      x y z
#    x 3.543180 0.000000 0.000000 
#    y 0.000000 3.689320 0.000000 
#    z 0.000000 0.000000 3.739270 
# 
# 
# High freq. dielectric constant tensor:
#      x y z
#    x 1.759660 0.000000 0.000000 
#    y 0.000000 1.791100 0.000000 
#    z 0.000000 0.000000 1.793800 
# 
# From -- ./inp_files/35226.got.cif
#   From: 2010.03.12/outbox.cif.g09.slc.cpg/sg63_18_cif.got.tgz:35226.got - 2010.04.10 19:34:48.
