data_PCOD8257028
_publ_section_title
;
Structure prediction by ZEFSAII (Michael W. Deem and Ramdas Pophale) SiO2 
 PCOD8257028
Probable space group: C M C M
;
_chemical_formula_sum "Si O2"
_cell_formula_units_Z 72
_cell_length_a 25.447554
_cell_length_b 4.982708
_cell_length_c 26.289573
_cell_angle_alpha 90.000000
_cell_angle_beta 90.000000
_cell_angle_gamma 90.000000
_cell_volume 3333.458203
_symmetry_space_group_name_H-M "C M C M"
_symmetry_group_IT_number 63
_symmetry_cell_setting 'orthorhombic'
loop_
_space_group_symop_operation_xyz
x,y,z
-x,-y,1/2+z
x,-y,-z
-x,y,1/2-z
-x,-y,-z
x,y,1/2-z
-x,y,z
x,-y,1/2+z
1/2+x,1/2+y,z
1/2-x,1/2-y,1/2+z
1/2+x,1/2-y,-z
1/2-x,1/2+y,1/2-z
1/2-x,1/2-y,-z
1/2+x,1/2+y,1/2-z
1/2-x,1/2+y,z
1/2+x,1/2-y,1/2+z
loop_
_atom_site_type_symbol
_atom_site_label
_atom_site_fract_x
_atom_site_fract_y
_atom_site_fract_z
Si Si1 0.060659 0.917497 0.871227
Si Si2 0.396923 0.993057 0.559826
Si Si3 0.939990 0.394433 0.693787
Si Si4 0.218923 0.470909 0.939463
Si Si5 0.500000 0.747877 0.962647
O O1 0.091538 0.793294 0.919517
O O2 0.087324 0.183263 0.845540
O O3 0.000000 0.963513 0.890926
O O4 0.062957 0.694197 0.827065
O O5 0.339966 0.904384 0.580983
O O6 0.445889 0.782078 0.572411
O O7 0.392596 0.000000 0.500000
O O8 0.913889 0.385419 0.750000
O O9 0.000000 0.295650 0.698266
O O10 0.241380 0.748684 0.917821
O O11 0.219037 0.500000 0.000000
O O12 0.500000 0.500000 0.000000
O O13 0.500000 0.000000 0.000000
#
# Coordination Sequence:
#
# PCOD8257028 Si02
#       5
#    16  16  16  16   8
#     4  10  19  31  49  74 102 136 172 206 254 313
#     4  10  21  36  52  76 111 144 177 214 253 312
#     4   9  18  32  49  69  98 134 172 214 256 302
#     4   9  19  34  52  70  94 134 181 223 259 290
#     4  10  22  34  48  70 101 144 175 198 246 300
#
# _framework density 21.599193
#
# number of rings (size 3 to 8) (size 9 to 14) (size 15 to 20)
#    0.000    2.444    1.111    0.667    0.000   14.222 
#    0.000    0.000    0.000    0.000    0.000    0.000 
#    0.000   17.778    0.000    0.000    0.000    0.000 
#
# Total GULP energy -446162.158729 kJ/mol
# GULP energy per Si atom -12393.393298 kJ/mol
# Density = 2.155003 g / cm^3
# Si number density = 21.599193 Si / 1000 Ang^3
#
#
#
# Elastic Constant Matrix: (Units=GPa)
#
#
# Indices 1 2 3 4 5 6 
#
# 1 154.9433 55.9672 22.8916 0.0000 0.0000 0.0000
# 2 55.9672 104.0688 4.4243 0.0000 0.0000 0.0000
# 3 22.8916 4.4243 87.4281 0.0000 0.0000 0.0000
# 4 0.0000 0.0000 0.0000 26.4488 0.0000 0.0000
# 5 0.0000 0.0000 0.0000 0.0000 3.3672 0.0000
# 6 0.0000 0.0000 0.0000 0.0000 0.0000 26.1982
#
#
#
# Elastic Compliance Matrix: (Units=1/GPa)
#
#
# Indices 1 2 3 4 5 6 
#
# 1 0.008332 -0.004397 -0.001959 0.000000 0.000000 0.000000
# 2 -0.004397 0.011951 0.000547 0.000000 0.000000 0.000000
# 3 -0.001959 0.000547 0.011923 0.000000 0.000000 0.000000
# 4 0.000000 0.000000 0.000000 0.037809 0.000000 0.000000
# 5 0.000000 0.000000 0.000000 0.000000 0.296982 0.000000
# 6 0.000000 0.000000 0.000000 0.000000 0.000000 0.038171
#
#
# Mechanical properties :
#
#
# Convention : Reuss Voigt Hill
#
# Bulk Modulus (GPa) = 48.57657 57.00071 52.78864
# Shear Modulus (GPa) = 11.80223 28.74666 20.27444
#
# Velocity S-wave (km/s) = 2.34010 3.65213 3.06709
# Velocity P-wave (km/s) = 5.46262 6.65068 6.08571
#
# Compressibility (1/GPa) = 0.02058605
#
# Stress axis : x y z
#
# Youngs Moduli (GPa) = 120.02179 83.67701 83.86980
#
# Poissons Ratio (x) = 0.36797 0.16430
# Poissons Ratio (y) = 0.52779 -0.04585
# Poissons Ratio (z) = 0.23512 -0.04574
#
# Static dielectric constant tensor:
#      x y z
#    x 4.721440 0.000000 0.000000 
#    y 0.000000 4.266790 0.000000 
#    z 0.000000 0.000000 3.989900 
# 
# 
# High freq. dielectric constant tensor:
#      x y z
#    x 1.798860 0.000000 0.000000 
#    y 0.000000 1.879040 0.000000 
#    z 0.000000 0.000000 1.833340 
# 
# From -- ./inp_files/70866.got.cif
#   From: 2010.03.12/outbox.cif.g09.slc.cpg/sg63_36_cif.got.tgz:70866.got - 2010.04.10 19:34:48.
