data_PCOD8257707
_publ_section_title
;
Structure prediction by ZEFSAII (Michael W. Deem and Ramdas Pophale) SiO2 
 PCOD8257707
Probable space group: C M C M
;
_chemical_formula_sum "Si O2"
_cell_formula_units_Z 80
_cell_length_a 11.686680
_cell_length_b 18.719757
_cell_length_c 20.337868
_cell_angle_alpha 90.000000
_cell_angle_beta 90.000000
_cell_angle_gamma 90.000000
_cell_volume 4449.352189
_symmetry_space_group_name_H-M "C M C M"
_symmetry_group_IT_number 63
_symmetry_cell_setting 'orthorhombic'
loop_
_space_group_symop_operation_xyz
x,y,z
-x,-y,1/2+z
x,-y,-z
-x,y,1/2-z
-x,-y,-z
x,y,1/2-z
-x,y,z
x,-y,1/2+z
1/2+x,1/2+y,z
1/2-x,1/2-y,1/2+z
1/2+x,1/2-y,-z
1/2-x,1/2+y,1/2-z
1/2-x,1/2-y,-z
1/2+x,1/2+y,1/2-z
1/2-x,1/2+y,z
1/2+x,1/2-y,1/2+z
loop_
_atom_site_type_symbol
_atom_site_label
_atom_site_fract_x
_atom_site_fract_y
_atom_site_fract_z
Si Si1 0.745252 0.926970 0.621347
Si Si2 0.500000 0.892790 0.465120
Si Si3 0.763904 0.666523 0.506570
Si Si4 0.000000 0.531661 0.104625
Si Si5 0.126377 0.084333 0.250000
Si Si6 0.636743 0.424614 0.108922
Si Si7 0.124571 0.915064 0.250000
O O1 0.748960 0.868462 0.564578
O O2 0.614203 0.943734 0.642611
O O3 0.806864 0.892054 0.684295
O O4 0.805156 0.998960 0.593755
O O5 0.387472 0.844745 0.460875
O O6 0.500000 0.936119 0.532256
O O7 0.500000 0.945983 0.402879
O O8 0.750000 0.750000 0.500000
O O9 0.667615 0.632935 0.553874
O O10 0.000000 0.119725 0.250000
O O11 0.114585 0.000045 0.250000
O O12 0.500000 0.435873 0.111463
O O13 0.683693 0.394871 0.180309
O O14 0.000000 0.878783 0.250000
#
# Coordination Sequence:
#
# PCOD8257707 Si02
#       7
#    16   8  16   8   8  16   8
#     4  10  19  35  56  80 107 140 183 221 271 323
#     4   9  18  36  50  72 111 142 173 220 274 311
#     4  11  23  35  52  80 110 145 181 222 269 324
#     4   9  16  31  58  76 100 143 178 217 266 319
#     4   9  18  33  54  81 113 138 168 228 285 319
#     4  10  19  33  56  82 106 136 180 228 272 318
#     4   7  14  30  50  75 103 131 163 212 269 309
#
# _framework density 17.980146000000001
#
# number of rings (size 3 to 8) (size 9 to 14) (size 15 to 20)
#    0.000    2.400    2.000    2.400    1.400    2.800 
#    0.000    1.000    0.000    0.600    0.000    0.000 
#    0.000    0.000    0.000    0.000    0.000    0.000 
#
# Total GULP energy -495725.745126 kJ/mol
# GULP energy per Si atom -12393.143628 kJ/mol
# Density = 1.793922 g / cm^3
# Si number density = 17.980146 Si / 1000 Ang^3
#
#
#
# Elastic Constant Matrix: (Units=GPa)
#
#
# Indices 1 2 3 4 5 6 
#
# 1 130.3813 37.3496 50.7008 0.0000 0.0000 0.0000
# 2 37.3496 98.2413 44.5298 0.0000 0.0000 0.0000
# 3 50.7008 44.5298 109.4806 0.0000 0.0000 0.0000
# 4 0.0000 0.0000 0.0000 6.4839 0.0000 0.0000
# 5 0.0000 0.0000 0.0000 0.0000 30.3879 0.0000
# 6 0.0000 0.0000 0.0000 0.0000 0.0000 14.0389
#
#
#
# Elastic Compliance Matrix: (Units=1/GPa)
#
#
# Indices 1 2 3 4 5 6 
#
# 1 0.009670 -0.002019 -0.003657 0.000000 0.000000 0.000000
# 2 -0.002019 0.012901 -0.004313 0.000000 0.000000 0.000000
# 3 -0.003657 -0.004313 0.012582 0.000000 0.000000 0.000000
# 4 0.000000 0.000000 0.000000 0.154229 0.000000 0.000000
# 5 0.000000 0.000000 0.000000 0.000000 0.032908 0.000000
# 6 0.000000 0.000000 0.000000 0.000000 0.000000 0.071230
#
#
# Mechanical properties :
#
#
# Convention : Reuss Voigt Hill
#
# Bulk Modulus (GPa) = 65.89227 67.02927 66.46077
# Shear Modulus (GPa) = 15.69581 23.88368 19.78974
#
# Velocity S-wave (km/s) = 2.95778 3.64859 3.32120
# Velocity P-wave (km/s) = 6.95639 7.42362 7.19380
#
# Compressibility (1/GPa) = 0.01517629
#
# Stress axis : x y z
#
# Youngs Moduli (GPa) = 103.40958 77.51188 79.48005
#
# Poissons Ratio (x) = 0.15648 0.29068
# Poissons Ratio (y) = 0.20876 0.34276
# Poissons Ratio (z) = 0.37819 0.33427
#
# Static dielectric constant tensor:
#      x y z
#    x 3.707050 0.000000 0.000000 
#    y 0.000000 2.897860 0.000000 
#    z 0.000000 0.000000 3.522920 
# 
# 
# High freq. dielectric constant tensor:
#      x y z
#    x 1.705140 0.000000 0.000000 
#    y 0.000000 1.652310 0.000000 
#    z 0.000000 0.000000 1.694910 
# 
# From -- ./inp_files/52498.got.cif
#   From: 2010.03.12/outbox.cif.g09.slc.cpg/sg63_27_cif.got.tgz:52498.got - 2010.04.10 19:34:48.
