data_PCOD8257872
_publ_section_title
;
Structure prediction by ZEFSAII (Michael W. Deem and Ramdas Pophale) SiO2 
 PCOD8257872
Probable space group: C M C M
;
_chemical_formula_sum "Si O2"
_cell_formula_units_Z 80
_cell_length_a 18.131086
_cell_length_b 13.541189
_cell_length_c 16.713089
_cell_angle_alpha 90.000000
_cell_angle_beta 90.000000
_cell_angle_gamma 90.000000
_cell_volume 4103.338485
_symmetry_space_group_name_H-M "C M C M"
_symmetry_group_IT_number 63
_symmetry_cell_setting 'orthorhombic'
loop_
_space_group_symop_operation_xyz
x,y,z
-x,-y,1/2+z
x,-y,-z
-x,y,1/2-z
-x,-y,-z
x,y,1/2-z
-x,y,z
x,-y,1/2+z
1/2+x,1/2+y,z
1/2-x,1/2-y,1/2+z
1/2+x,1/2-y,-z
1/2-x,1/2+y,1/2-z
1/2-x,1/2-y,-z
1/2+x,1/2+y,1/2-z
1/2-x,1/2+y,z
1/2+x,1/2-y,1/2+z
loop_
_atom_site_type_symbol
_atom_site_label
_atom_site_fract_x
_atom_site_fract_y
_atom_site_fract_z
Si Si1 0.000000 0.485960 0.158501
Si Si2 0.304506 0.299093 0.602527
Si Si3 0.350384 0.295137 0.079057
Si Si4 0.203450 0.981959 0.343537
Si Si5 0.354319 0.099421 0.658693
Si Si6 0.000000 0.718167 0.343380
O O1 0.072152 0.440529 0.114860
O O2 0.000000 0.601825 0.153359
O O3 0.000000 0.448660 0.250000
O O4 0.341231 0.298207 0.515753
O O5 0.217693 0.272304 0.609875
O O6 0.318331 0.405631 0.640643
O O7 0.348964 0.217604 0.652730
O O8 0.351402 0.406979 0.112208
O O9 0.427454 0.251380 0.108845
O O10 0.199686 0.958416 0.250000
O O11 0.284079 0.955960 0.380402
O O12 0.356939 0.065467 0.750000
O O13 0.000000 0.754411 0.250000
#
# Coordination Sequence:
#
# PCOD8257872 Si02
#       6
#     8  16  16  16  16   8
#     4   9  18  33  54  81 110 137 171 222 276 323
#     4  10  20  36  56  80 113 147 181 228 286 336
#     4  10  22  37  55  82 112 144 185 232 280 335
#     4  10  19  34  57  80 105 144 191 233 273 325
#     4   9  18  32  53  82 111 142 185 229 271 329
#     4  11  22  39  61  83 112 149 190 236 282 329
#
# _framework density 19.496320000000001
#
# number of rings (size 3 to 8) (size 9 to 14) (size 15 to 20)
#    0.000    2.200    0.000    3.000    0.000    4.800 
#    0.000    7.000    0.000    1.200    0.000    0.000 
#    0.000    0.000    0.000    0.000    0.000    0.000 
#
# Total GULP energy -495780.269561 kJ/mol
# GULP energy per Si atom -12394.506739 kJ/mol
# Density = 1.945195 g / cm^3
# Si number density = 19.496320 Si / 1000 Ang^3
#
#
#
# Elastic Constant Matrix: (Units=GPa)
#
#
# Indices 1 2 3 4 5 6 
#
# 1 126.9211 39.7290 32.9402 0.0000 0.0000 0.0000
# 2 39.7290 106.6806 5.2184 0.0000 0.0000 0.0000
# 3 32.9402 5.2184 47.9806 0.0000 0.0000 0.0000
# 4 0.0000 0.0000 0.0000 24.8879 0.0000 0.0000
# 5 0.0000 0.0000 0.0000 0.0000 20.6949 0.0000
# 6 0.0000 0.0000 0.0000 0.0000 0.0000 26.6066
#
#
#
# Elastic Compliance Matrix: (Units=1/GPa)
#
#
# Indices 1 2 3 4 5 6 
#
# 1 0.010870 -0.003703 -0.007060 0.000000 0.000000 0.000000
# 2 -0.003703 0.010685 0.001380 0.000000 0.000000 0.000000
# 3 -0.007060 0.001380 0.025539 0.000000 0.000000 0.000000
# 4 0.000000 0.000000 0.000000 0.040180 0.000000 0.000000
# 5 0.000000 0.000000 0.000000 0.000000 0.048321 0.000000
# 6 0.000000 0.000000 0.000000 0.000000 0.000000 0.037585
#
#
# Mechanical properties :
#
#
# Convention : Reuss Voigt Hill
#
# Bulk Modulus (GPa) = 35.30036 48.59526 41.94781
# Shear Modulus (GPa) = 24.82757 28.01750 26.42254
#
# Velocity S-wave (km/s) = 3.57241 3.79498 3.68538
# Velocity P-wave (km/s) = 5.92973 6.64695 6.29856
#
# Compressibility (1/GPa) = 0.02832832
#
# Stress axis : x y z
#
# Youngs Moduli (GPa) = 91.99365 93.58684 39.15631
#
# Poissons Ratio (x) = 0.34654 0.27645
# Poissons Ratio (y) = 0.34064 -0.05404
# Poissons Ratio (z) = 0.64948 -0.12915
#
# Static dielectric constant tensor:
#      x y z
#    x 3.745480 0.000000 0.000000 
#    y 0.000000 3.526250 0.000000 
#    z 0.000000 0.000000 3.429860 
# 
# 
# High freq. dielectric constant tensor:
#      x y z
#    x 1.751370 0.000000 0.000000 
#    y 0.000000 1.767070 0.000000 
#    z 0.000000 0.000000 1.746490 
# 
# From -- ./inp_files/55329.got.cif
#   From: 2010.03.12/outbox.cif.g09.slc.cpg/sg63_28_cif.got.tgz:55329.got - 2010.04.10 19:34:48.
