data_PCOD8257863
_publ_section_title
;
Structure prediction by ZEFSAII (Michael W. Deem and Ramdas Pophale) SiO2 
 PCOD8257863
Probable space group: C M C M
;
_chemical_formula_sum "Si O2"
_cell_formula_units_Z 80
_cell_length_a 22.913044
_cell_length_b 8.765501
_cell_length_c 19.079897
_cell_angle_alpha 90.000000
_cell_angle_beta 90.000000
_cell_angle_gamma 90.000000
_cell_volume 3832.088750
_symmetry_space_group_name_H-M "C M C M"
_symmetry_group_IT_number 63
_symmetry_cell_setting 'orthorhombic'
loop_
_space_group_symop_operation_xyz
x,y,z
-x,-y,1/2+z
x,-y,-z
-x,y,1/2-z
-x,-y,-z
x,y,1/2-z
-x,y,z
x,-y,1/2+z
1/2+x,1/2+y,z
1/2-x,1/2-y,1/2+z
1/2+x,1/2-y,-z
1/2-x,1/2+y,1/2-z
1/2-x,1/2-y,-z
1/2+x,1/2+y,1/2-z
1/2-x,1/2+y,z
1/2+x,1/2-y,1/2+z
loop_
_atom_site_type_symbol
_atom_site_label
_atom_site_fract_x
_atom_site_fract_y
_atom_site_fract_z
Si Si1 0.615783 0.490765 0.671332
Si Si2 0.855796 0.653932 0.669627
Si Si3 0.566442 0.642385 0.954598
Si Si4 0.347569 0.907900 0.933912
Si Si5 0.221126 0.793590 0.170904
O O1 0.592651 0.504434 0.750000
O O2 0.616347 0.314933 0.647336
O O3 0.570879 0.589416 0.625996
O O4 0.681491 0.555385 0.664546
O O5 0.871070 0.615385 0.750000
O O6 0.881578 0.523391 0.618868
O O7 0.786599 0.655838 0.656842
O O8 0.500000 0.683271 0.973878
O O9 0.606170 0.790068 0.966887
O O10 0.590095 0.500000 0.000000
O O11 0.297101 0.826834 0.888774
O O12 0.320115 0.000000 0.000000
O O13 0.214963 0.722677 0.250000
#
# Coordination Sequence:
#
# PCOD8257863 Si02
#       5
#    16  16  16  16  16
#     4   9  18  33  55  81 107 138 180 224 263 315
#     4  10  19  34  56  82 114 148 178 212 261 320
#     4  10  22  41  60  74  98 141 186 225 273 333
#     4  11  22  34  54  84 113 139 178 231 274 310
#     4   9  18  34  55  79 112 154 186 206 249 323
#
# _framework density 20.876344
#
# number of rings (size 3 to 8) (size 9 to 14) (size 15 to 20)
#    0.000    2.200    0.000    3.000    0.000    5.600 
#    0.000    6.000    0.000    1.200    0.000    0.000 
#    0.000    0.000    0.000    0.000    0.000    0.000 
#
# Total GULP energy -495950.069489 kJ/mol
# GULP energy per Si atom -12398.751737 kJ/mol
# Density = 2.082883 g / cm^3
# Si number density = 20.876344 Si / 1000 Ang^3
#
#
#
# Elastic Constant Matrix: (Units=GPa)
#
#
# Indices 1 2 3 4 5 6 
#
# 1 43.9008 12.3691 13.2548 0.0000 0.0000 0.0000
# 2 12.3691 107.4623 51.2358 0.0000 0.0000 0.0000
# 3 13.2548 51.2358 92.7971 0.0000 0.0000 0.0000
# 4 0.0000 0.0000 0.0000 50.6595 0.0000 0.0000
# 5 0.0000 0.0000 0.0000 0.0000 18.8580 0.0000
# 6 0.0000 0.0000 0.0000 0.0000 0.0000 17.9649
#
#
#
# Elastic Compliance Matrix: (Units=1/GPa)
#
#
# Indices 1 2 3 4 5 6 
#
# 1 0.023989 -0.001530 -0.002582 0.000000 0.000000 0.000000
# 2 -0.001530 0.012728 -0.006809 0.000000 0.000000 0.000000
# 3 -0.002582 -0.006809 0.014904 0.000000 0.000000 0.000000
# 4 0.000000 0.000000 0.000000 0.019740 0.000000 0.000000
# 5 0.000000 0.000000 0.000000 0.000000 0.053028 0.000000
# 6 0.000000 0.000000 0.000000 0.000000 0.000000 0.055664
#
#
# Mechanical properties :
#
#
# Convention : Reuss Voigt Hill
#
# Bulk Modulus (GPa) = 33.57968 44.20885 38.89426
# Shear Modulus (GPa) = 23.60478 28.64987 26.12732
#
# Velocity S-wave (km/s) = 3.36623 3.70856 3.54153
# Velocity P-wave (km/s) = 5.58826 6.28970 5.94933
#
# Compressibility (1/GPa) = 0.02977992
#
# Stress axis : x y z
#
# Youngs Moduli (GPa) = 41.68536 78.56631 67.09450
#
# Poissons Ratio (x) = 0.12024 0.17321
# Poissons Ratio (y) = 0.06379 0.45684
# Poissons Ratio (z) = 0.10761 0.53495
#
# Static dielectric constant tensor:
#      x y z
#    x 3.219570 0.000000 0.000000 
#    y 0.000000 3.967430 0.000000 
#    z 0.000000 0.000000 3.921110 
# 
# 
# High freq. dielectric constant tensor:
#      x y z
#    x 1.766180 0.000000 0.000000 
#    y 0.000000 1.830340 0.000000 
#    z 0.000000 0.000000 1.830020 
# 
# From -- ./inp_files/48787.got.cif
#   From: 2010.03.12/outbox.cif.g09.slc.cpg/sg63_25_cif.got.tgz:48787.got - 2010.04.10 19:34:48.
