data_PCOD8257068
_publ_section_title
;
Structure prediction by ZEFSAII (Michael W. Deem and Ramdas Pophale) SiO2 
 PCOD8257068
Probable space group: C M C M
;
_chemical_formula_sum "Si O2"
_cell_formula_units_Z 80
_cell_length_a 21.145572
_cell_length_b 12.550430
_cell_length_c 16.817709
_cell_angle_alpha 90.000000
_cell_angle_beta 90.000000
_cell_angle_gamma 90.000000
_cell_volume 4463.184877
_symmetry_space_group_name_H-M "C M C M"
_symmetry_group_IT_number 63
_symmetry_cell_setting 'orthorhombic'
loop_
_space_group_symop_operation_xyz
x,y,z
-x,-y,1/2+z
x,-y,-z
-x,y,1/2-z
-x,-y,-z
x,y,1/2-z
-x,y,z
x,-y,1/2+z
1/2+x,1/2+y,z
1/2-x,1/2-y,1/2+z
1/2+x,1/2-y,-z
1/2-x,1/2+y,1/2-z
1/2-x,1/2-y,-z
1/2+x,1/2+y,1/2-z
1/2-x,1/2+y,z
1/2+x,1/2-y,1/2+z
loop_
_atom_site_type_symbol
_atom_site_label
_atom_site_fract_x
_atom_site_fract_y
_atom_site_fract_z
Si Si1 0.216637 0.253284 0.585305
Si Si2 0.830070 0.969914 0.410546
Si Si3 0.159188 0.310454 0.158873
Si Si4 0.072353 0.125117 0.155442
Si Si5 0.200505 0.534097 0.342783
O O1 0.250000 0.250000 0.500000
O O2 0.272150 0.242847 0.650182
O O3 0.180340 0.363803 0.604123
O O4 0.165713 0.158540 0.594596
O O5 0.896359 0.020679 0.383655
O O6 0.775203 0.013106 0.353061
O O7 0.812162 0.000000 0.500000
O O8 0.142300 0.322513 0.250000
O O9 0.106221 0.232431 0.120823
O O10 0.161371 0.431175 0.123474
O O11 0.079414 0.117565 0.250000
O O12 0.000000 0.128783 0.128152
O O13 0.186260 0.554334 0.250000
#
# Coordination Sequence:
#
# PCOD8257068 Si02
#       5
#    16  16  16  16  16
#     4  11  19  30  49  74 108 135 164 209 265 318
#     4  11  20  32  50  77 107 137 172 212 262 318
#     4   9  18  31  48  71  99 133 171 209 258 308
#     4  10  20  35  53  73 102 139 183 224 255 303
#     4  10  19  31  50  75 106 136 168 213 262 317
#
# _framework density 17.924420000000001
#
# number of rings (size 3 to 8) (size 9 to 14) (size 15 to 20)
#    0.000    1.800    4.000    1.200    0.000    2.800 
#    0.000    0.000    0.000    1.200    0.000    8.400 
#    0.000    0.000    0.000    0.000    0.000    0.000 
#
# Total GULP energy -495763.144080 kJ/mol
# GULP energy per Si atom -12394.078602 kJ/mol
# Density = 1.788362 g / cm^3
# Si number density = 17.924420 Si / 1000 Ang^3
#
#
#
# Elastic Constant Matrix: (Units=GPa)
#
#
# Indices 1 2 3 4 5 6 
#
# 1 92.9582 69.6722 14.3599 0.0000 0.0000 0.0000
# 2 69.6722 186.8568 33.0840 0.0000 0.0000 0.0000
# 3 14.3599 33.0840 46.7593 0.0000 0.0000 0.0000
# 4 0.0000 0.0000 0.0000 27.9082 0.0000 0.0000
# 5 0.0000 0.0000 0.0000 0.0000 8.9823 0.0000
# 6 0.0000 0.0000 0.0000 0.0000 0.0000 26.3310
#
#
#
# Elastic Compliance Matrix: (Units=1/GPa)
#
#
# Indices 1 2 3 4 5 6 
#
# 1 0.014952 -0.005444 -0.000740 0.000000 0.000000 0.000000
# 2 -0.005444 0.008100 -0.004059 0.000000 0.000000 0.000000
# 3 -0.000740 -0.004059 0.024486 0.000000 0.000000 0.000000
# 4 0.000000 0.000000 0.000000 0.035832 0.000000 0.000000
# 5 0.000000 0.000000 0.000000 0.000000 0.111330 0.000000
# 6 0.000000 0.000000 0.000000 0.000000 0.000000 0.037978
#
#
# Mechanical properties :
#
#
# Convention : Reuss Voigt Hill
#
# Bulk Modulus (GPa) = 36.96699 62.31184 49.63942
# Shear Modulus (GPa) = 19.07073 26.60816 22.83945
#
# Velocity S-wave (km/s) = 3.26537 3.85705 3.57348
# Velocity P-wave (km/s) = 5.90639 7.39425 6.69180
#
# Compressibility (1/GPa) = 0.02705116
#
# Stress axis : x y z
#
# Youngs Moduli (GPa) = 66.87973 123.45141 40.84043
#
# Poissons Ratio (x) = 0.67209 0.03022
# Poissons Ratio (y) = 0.36410 0.16579
# Poissons Ratio (z) = 0.04949 0.50114
#
# Static dielectric constant tensor:
#      x y z
#    x 3.001700 0.000000 0.000000 
#    y 0.000000 3.889030 0.000000 
#    z 0.000000 0.000000 3.258480 
# 
# 
# High freq. dielectric constant tensor:
#      x y z
#    x 1.632640 0.000000 0.000000 
#    y 0.000000 1.716980 0.000000 
#    z 0.000000 0.000000 1.688870 
# 
# From -- ./inp_files/35110.got.cif
#   From: 2010.03.12/outbox.cif.g09.slc.cpg/sg63_18_cif.got.tgz:35110.got - 2010.04.10 19:34:48.
