data_PCOD8257895
_publ_section_title
;
Structure prediction by ZEFSAII (Michael W. Deem and Ramdas Pophale) SiO2 
 PCOD8257895
Probable space group: C M C M
;
_chemical_formula_sum "Si O2"
_cell_formula_units_Z 88
_cell_length_a 7.664607
_cell_length_b 26.634398
_cell_length_c 23.169510
_cell_angle_alpha 90.000000
_cell_angle_beta 90.000000
_cell_angle_gamma 90.000000
_cell_volume 4729.874590
_symmetry_space_group_name_H-M "C M C M"
_symmetry_group_IT_number 63
_symmetry_cell_setting 'orthorhombic'
loop_
_space_group_symop_operation_xyz
x,y,z
-x,-y,1/2+z
x,-y,-z
-x,y,1/2-z
-x,-y,-z
x,y,1/2-z
-x,y,z
x,-y,1/2+z
1/2+x,1/2+y,z
1/2-x,1/2-y,1/2+z
1/2+x,1/2-y,-z
1/2-x,1/2+y,1/2-z
1/2-x,1/2-y,-z
1/2+x,1/2+y,1/2-z
1/2-x,1/2+y,z
1/2+x,1/2-y,1/2+z
loop_
_atom_site_type_symbol
_atom_site_label
_atom_site_fract_x
_atom_site_fract_y
_atom_site_fract_z
Si Si1 0.202117 0.591134 0.090367
Si Si2 0.500000 0.760702 0.682657
Si Si3 0.000000 0.838671 0.391733
Si Si4 0.693779 0.664821 0.314871
Si Si5 0.000000 0.063757 0.682858
Si Si6 0.700479 0.117747 0.537100
Si Si7 0.699028 0.978268 0.387567
O O1 0.303276 0.617378 0.142571
O O2 0.249491 0.532479 0.087300
O O3 0.000000 0.598823 0.102768
O O4 0.254377 0.616557 0.029891
O O5 0.500000 0.744621 0.750000
O O6 0.500000 0.713573 0.640902
O O7 0.328924 0.792427 0.666446
O O8 0.000000 0.881382 0.344033
O O9 0.173633 0.842859 0.430981
O O10 0.738495 0.645865 0.250000
O O11 0.500000 0.688414 0.316903
O O12 0.173887 0.033750 0.665399
O O13 0.000000 0.071118 0.750000
O O14 0.500000 0.135147 0.545598
O O15 0.727741 0.061652 0.561387
O O16 0.500000 0.976861 0.364738
#
# Coordination Sequence:
#
# PCOD8257895 Si02
#       7
#    16   8   8  16   8  16  16
#     4  10  19  34  58  81 112 150 184 217 267 317
#     4  10  21  42  63  79 103 139 186 232 270 324
#     4  10  21  37  60  81 104 143 182 226 281 321
#     4  10  22  38  57  80 107 139 180 228 273 322
#     4  10  21  35  51  80 113 142 182 228 273 323
#     4   9  19  35  55  82 116 143 181 223 263 319
#     4   9  19  34  52  79 112 151 185 219 259 320
#
# _framework density 18.605143000000002
#
# number of rings (size 3 to 8) (size 9 to 14) (size 15 to 20)
#    0.000    2.364    0.909    0.818    2.545    4.000 
#    0.000    5.455    0.000    3.273    0.000    0.000 
#    0.000    0.000    0.000    0.000    0.000    0.000 
#
# Total GULP energy -545619.895130 kJ/mol
# GULP energy per Si atom -12400.452162 kJ/mol
# Density = 1.856280 g / cm^3
# Si number density = 18.605143 Si / 1000 Ang^3
#
#
#
# Elastic Constant Matrix: (Units=GPa)
#
#
# Indices 1 2 3 4 5 6 
#
# 1 113.3397 45.6890 52.5456 0.0000 0.0000 0.0000
# 2 45.6890 85.7459 42.4961 0.0000 0.0000 0.0000
# 3 52.5456 42.4961 115.7430 0.0000 0.0000 0.0000
# 4 0.0000 0.0000 0.0000 27.1267 0.0000 0.0000
# 5 0.0000 0.0000 0.0000 0.0000 23.9377 0.0000
# 6 0.0000 0.0000 0.0000 0.0000 0.0000 16.6378
#
#
#
# Elastic Compliance Matrix: (Units=1/GPa)
#
#
# Indices 1 2 3 4 5 6 
#
# 1 0.012571 -0.004731 -0.003970 0.000000 0.000000 0.000000
# 2 -0.004731 0.016037 -0.003740 0.000000 0.000000 0.000000
# 3 -0.003970 -0.003740 0.011815 0.000000 0.000000 0.000000
# 4 0.000000 0.000000 0.000000 0.036864 0.000000 0.000000
# 5 0.000000 0.000000 0.000000 0.000000 0.041775 0.000000
# 6 0.000000 0.000000 0.000000 0.000000 0.000000 0.060104
#
#
# Mechanical properties :
#
#
# Convention : Reuss Voigt Hill
#
# Bulk Modulus (GPa) = 64.34660 66.25445 65.30053
# Shear Modulus (GPa) = 23.89736 25.14697 24.52216
#
# Velocity S-wave (km/s) = 3.58781 3.68042 3.63441
# Velocity P-wave (km/s) = 7.19886 7.33136 7.26541
#
# Compressibility (1/GPa) = 0.01554084
#
# Stress axis : x y z
#
# Youngs Moduli (GPa) = 79.55124 62.35665 84.63473
#
# Poissons Ratio (x) = 0.29498 0.33600
# Poissons Ratio (y) = 0.37632 0.31657
# Poissons Ratio (z) = 0.31582 0.23324
#
# Static dielectric constant tensor:
#      x y z
#    x 3.776240 0.000000 0.000000 
#    y 0.000000 3.154260 0.000000 
#    z 0.000000 0.000000 3.354210 
# 
# 
# High freq. dielectric constant tensor:
#      x y z
#    x 1.737170 0.000000 0.000000 
#    y 0.000000 1.697790 0.000000 
#    z 0.000000 0.000000 1.721130 
# 
# From -- ./inp_files/51112.got.cif
#   From: 2010.03.12/outbox.cif.g09.slc.cpg/sg63_26_cif.got.tgz:51112.got - 2010.04.10 19:34:48.
