data_PCOD8257086
_publ_section_title
;
Structure prediction by ZEFSAII (Michael W. Deem and Ramdas Pophale) SiO2 
 PCOD8257086
Probable space group: C M C M
;
_chemical_formula_sum "Si O2"
_cell_formula_units_Z 104
_cell_length_a 28.379819
_cell_length_b 24.097915
_cell_length_c 8.818346
_cell_angle_alpha 90.000000
_cell_angle_beta 90.000000
_cell_angle_gamma 90.000000
_cell_volume 6030.818028
_symmetry_space_group_name_H-M "C M C M"
_symmetry_group_IT_number 63
_symmetry_cell_setting 'orthorhombic'
loop_
_space_group_symop_operation_xyz
x,y,z
-x,-y,1/2+z
x,-y,-z
-x,y,1/2-z
-x,-y,-z
x,y,1/2-z
-x,y,z
x,-y,1/2+z
1/2+x,1/2+y,z
1/2-x,1/2-y,1/2+z
1/2+x,1/2-y,-z
1/2-x,1/2+y,1/2-z
1/2-x,1/2-y,-z
1/2+x,1/2+y,1/2-z
1/2-x,1/2+y,z
1/2+x,1/2-y,1/2+z
loop_
_atom_site_type_symbol
_atom_site_label
_atom_site_fract_x
_atom_site_fract_y
_atom_site_fract_z
Si Si1 0.778288 0.939768 0.071651
Si Si2 0.914989 0.373016 0.071430
Si Si3 0.175064 0.440633 0.426637
Si Si4 0.129457 0.060296 0.071461
Si Si5 0.500000 0.939486 0.929719
Si Si6 0.555032 0.235535 0.074303
Si Si7 0.553831 0.349642 0.573942
O O1 0.787289 0.942432 0.250000
O O2 0.726667 0.914366 0.032891
O O3 0.822946 0.909474 0.993182
O O4 0.778376 0.000000 0.000000
O O5 0.924290 0.378682 0.250000
O O6 0.864182 0.396736 0.022273
O O7 0.915781 0.308955 0.022709
O O8 0.954001 0.406954 0.981356
O O9 0.165460 0.500000 0.500000
O O10 0.172180 0.452405 0.250000
O O11 0.134236 0.053704 0.250000
O O12 0.085422 0.098344 0.025153
O O13 0.120987 0.000000 0.000000
O O14 0.500000 0.944236 0.750000
O O15 0.500000 0.000000 0.000000
O O16 0.567180 0.228060 0.250000
O O17 0.500000 0.225872 0.041635
O O18 0.570442 0.296527 0.021725
O O19 0.560182 0.334925 0.750000
O O20 0.500000 0.365369 0.535803
#
# Coordination Sequence:
#
# PCOD8257086 Si02
#       7
#    16  16  16  16   8  16  16
#     4   9  16  29  48  70  98 129 163 202 242 291
#     4  11  21  34  52  72  97 132 168 207 254 301
#     4   9  19  32  48  72  98 128 166 205 249 298
#     4  10  19  31  50  77 105 133 165 198 240 296
#     4  12  24  36  48  70 102 134 169 208 255 306
#     4  10  20  34  52  74  98 126 167 212 249 294
#     4   9  19  35  53  73 100 134 168 202 242 292
#
# _framework density 17.244757
#
# number of rings (size 3 to 8) (size 9 to 14) (size 15 to 20)
#    0.000    2.154    0.769    3.923    0.000    5.231 
#    0.000    0.000    0.000    0.923    0.000    0.000 
#    0.000    0.000    0.000    0.000    0.000    0.000 
#
# Total GULP energy -644640.953253 kJ/mol
# GULP energy per Si atom -12396.941409 kJ/mol
# Density = 1.720551 g / cm^3
# Si number density = 17.244757 Si / 1000 Ang^3
#
#
#
# Elastic Constant Matrix: (Units=GPa)
#
#
# Indices 1 2 3 4 5 6 
#
# 1 137.1206 69.9767 52.4931 0.0000 0.0000 0.0000
# 2 69.9767 97.4218 44.9492 0.0000 0.0000 0.0000
# 3 52.4931 44.9492 83.9397 0.0000 0.0000 0.0000
# 4 0.0000 0.0000 0.0000 26.1615 0.0000 0.0000
# 5 0.0000 0.0000 0.0000 0.0000 23.8561 0.0000
# 6 0.0000 0.0000 0.0000 0.0000 0.0000 2.5281
#
#
#
# Elastic Compliance Matrix: (Units=1/GPa)
#
#
# Indices 1 2 3 4 5 6 
#
# 1 0.012438 -0.007099 -0.003977 0.000000 0.000000 0.000000
# 2 -0.007099 0.017685 -0.005031 0.000000 0.000000 0.000000
# 3 -0.003977 -0.005031 0.017094 0.000000 0.000000 0.000000
# 4 0.000000 0.000000 0.000000 0.038224 0.000000 0.000000
# 5 0.000000 0.000000 0.000000 0.000000 0.041918 0.000000
# 6 0.000000 0.000000 0.000000 0.000000 0.000000 0.395552
#
#
# Mechanical properties :
#
#
# Convention : Reuss Voigt Hill
#
# Bulk Modulus (GPa) = 66.64894 72.59113 69.62003
# Shear Modulus (GPa) = 8.92655 20.58003 14.75329
#
# Velocity S-wave (km/s) = 2.27764 3.45832 2.92811
# Velocity P-wave (km/s) = 6.75644 7.62448 7.20355
#
# Compressibility (1/GPa) = 0.01500399
#
# Stress axis : x y z
#
# Youngs Moduli (GPa) = 80.39686 56.54494 58.49975
#
# Poissons Ratio (x) = 0.40143 0.23264
# Poissons Ratio (y) = 0.57077 0.29428
# Poissons Ratio (z) = 0.31972 0.28445
#
# Static dielectric constant tensor:
#      x y z
#    x 3.892090 0.000000 0.000000 
#    y 0.000000 3.186440 0.000000 
#    z 0.000000 0.000000 2.646910 
# 
# 
# High freq. dielectric constant tensor:
#      x y z
#    x 1.670390 0.000000 0.000000 
#    y 0.000000 1.639510 0.000000 
#    z 0.000000 0.000000 1.678590 
# 
# From -- ./inp_files/14467.got.cif
#   From: 2010.03.12/outbox.cif.g09.slc.cpg/sg63_8_cif.got.tgz:14467.got - 2010.04.10 19:34:48.
