data_PCOD8257677
_publ_section_title
;
Structure prediction by ZEFSAII (Michael W. Deem and Ramdas Pophale) SiO2 
 PCOD8257677
Probable space group: C M C M
;
_chemical_formula_sum "Si O2"
_cell_formula_units_Z 96
_cell_length_a 9.014367
_cell_length_b 19.733778
_cell_length_c 28.048878
_cell_angle_alpha 90.000000
_cell_angle_beta 90.000000
_cell_angle_gamma 90.000000
_cell_volume 4989.545267
_symmetry_space_group_name_H-M "C M C M"
_symmetry_group_IT_number 63
_symmetry_cell_setting 'orthorhombic'
loop_
_space_group_symop_operation_xyz
x,y,z
-x,-y,1/2+z
x,-y,-z
-x,y,1/2-z
-x,-y,-z
x,y,1/2-z
-x,y,z
x,-y,1/2+z
1/2+x,1/2+y,z
1/2-x,1/2-y,1/2+z
1/2+x,1/2-y,-z
1/2-x,1/2+y,1/2-z
1/2-x,1/2-y,-z
1/2+x,1/2+y,1/2-z
1/2-x,1/2+y,z
1/2+x,1/2-y,1/2+z
loop_
_atom_site_type_symbol
_atom_site_label
_atom_site_fract_x
_atom_site_fract_y
_atom_site_fract_z
Si Si1 0.331929 0.368390 0.197235
Si Si2 0.832051 0.738356 0.138900
Si Si3 0.177868 0.387727 0.695533
Si Si4 0.328803 0.980265 0.356766
Si Si5 0.821464 0.797992 0.039564
Si Si6 0.327033 0.055745 0.962109
O O1 0.264630 0.375379 0.250000
O O2 0.500000 0.394646 0.195898
O O3 0.322707 0.290935 0.181956
O O4 0.238217 0.410500 0.160403
O O5 0.755914 0.671216 0.161109
O O6 0.761397 0.768118 0.090213
O O7 0.000000 0.720350 0.125478
O O8 0.236877 0.381876 0.750000
O O9 0.240568 0.456511 0.671846
O O10 0.000000 0.384373 0.695653
O O11 0.500000 0.978444 0.344635
O O12 0.297773 0.983567 0.412786
O O13 0.766216 0.875159 0.033209
O O14 0.000000 0.797986 0.036220
O O15 0.750000 0.750000 0.000000
O O16 0.500000 0.074568 0.968775
O O17 0.273304 0.000000 0.000000
#
# Coordination Sequence:
#
# PCOD8257677 Si02
#       6
#    16  16  16  16  16  16
#     4  10  19  33  55  81 110 145 184 227 277 334
#     4   9  18  33  54  79 109 143 183 230 275 329
#     4   9  17  30  51  80 110 142 184 229 273 324
#     4  10  20  34  55  82 112 143 182 233 282 334
#     4  11  23  39  61  86 115 149 191 239 290 348
#     4  10  22  39  60  85 115 151 193 240 292 348
#
# _framework density 19.240228999999999
#
# number of rings (size 3 to 8) (size 9 to 14) (size 15 to 20)
#    0.000    2.167    1.667    1.500    2.333    3.333 
#    0.000    0.000    0.000    1.000    0.000    0.000 
#    0.000    0.000    0.000    0.000    0.000    0.000 
#
# Total GULP energy -594968.902140 kJ/mol
# GULP energy per Si atom -12395.185461 kJ/mol
# Density = 1.919644 g / cm^3
# Si number density = 19.240229 Si / 1000 Ang^3
#
#
#
# Elastic Constant Matrix: (Units=GPa)
#
#
# Indices 1 2 3 4 5 6 
#
# 1 26.9106 41.0365 58.1270 0.0000 0.0000 0.0000
# 2 41.0365 111.7265 28.2092 0.0000 0.0000 0.0000
# 3 58.1270 28.2092 58.9477 0.0000 0.0000 0.0000
# 4 0.0000 0.0000 0.0000 40.0904 0.0000 0.0000
# 5 0.0000 0.0000 0.0000 0.0000 20.5132 0.0000
# 6 0.0000 0.0000 0.0000 0.0000 0.0000 26.4470
#
#
#
# Elastic Compliance Matrix: (Units=1/GPa)
#
#
# Indices 1 2 3 4 5 6 
#
# 1 -0.031069 0.004181 0.028635 0.000000 0.000000 0.000000
# 2 0.004181 0.009618 -0.008726 0.000000 0.000000 0.000000
# 3 0.028635 -0.008726 -0.007097 0.000000 0.000000 0.000000
# 4 0.000000 0.000000 0.000000 0.024944 0.000000 0.000000
# 5 0.000000 0.000000 0.000000 0.000000 0.048749 0.000000
# 6 0.000000 0.000000 0.000000 0.000000 0.000000 0.037811
#
#
# Mechanical properties :
#
#
# Convention : Reuss Voigt Hill
#
# Bulk Modulus (GPa) = 50.93186 50.25891 50.59539
# Shear Modulus (GPa) = 121.01194 22.09095 71.55144
#
# Velocity S-wave (km/s) = 7.93926 3.39213 6.10485
# Velocity P-wave (km/s) = 10.51529 6.44365 8.72044
#
# Compressibility (1/GPa) = 0.01963408
#
# Stress axis : x y z
#
# Youngs Moduli (GPa) = -32.18636 103.97483 -140.90631
#
# Poissons Ratio (x) = -0.43477 4.03492
# Poissons Ratio (y) = 0.13459 -1.22952
# Poissons Ratio (z) = 0.92167 0.90726
#
# Static dielectric constant tensor:
#      x y z
#    x 3.151660 0.000000 0.000000 
#    y 0.000000 3.635720 0.000000 
#    z 0.000000 0.000000 3.885250 
# 
# 
# High freq. dielectric constant tensor:
#      x y z
#    x 1.701440 0.000000 0.000000 
#    y 0.000000 1.759990 0.000000 
#    z 0.000000 0.000000 1.768200 
# 
# From -- ./inp_files/61476.got.cif
#   From: 2010.03.12/outbox.cif.g09.slc.cpg/sg63_31_cif.got.tgz:61476.got - 2010.04.10 19:34:48.
