data_PCOD8257095
_publ_section_title
;
Structure prediction by ZEFSAII (Michael W. Deem and Ramdas Pophale) SiO2 
 PCOD8257095
Probable space group: C M C M
;
_chemical_formula_sum "Si O2"
_cell_formula_units_Z 88
_cell_length_a 21.759430
_cell_length_b 23.756398
_cell_length_c 9.091673
_cell_angle_alpha 90.000000
_cell_angle_beta 90.000000
_cell_angle_gamma 90.000000
_cell_volume 4699.719242
_symmetry_space_group_name_H-M "C M C M"
_symmetry_group_IT_number 63
_symmetry_cell_setting 'orthorhombic'
loop_
_space_group_symop_operation_xyz
x,y,z
-x,-y,1/2+z
x,-y,-z
-x,y,1/2-z
-x,-y,-z
x,y,1/2-z
-x,y,z
x,-y,1/2+z
1/2+x,1/2+y,z
1/2-x,1/2-y,1/2+z
1/2+x,1/2-y,-z
1/2-x,1/2+y,1/2-z
1/2-x,1/2-y,-z
1/2+x,1/2+y,1/2-z
1/2-x,1/2+y,z
1/2+x,1/2-y,1/2+z
loop_
_atom_site_type_symbol
_atom_site_label
_atom_site_fract_x
_atom_site_fract_y
_atom_site_fract_z
Si Si1 0.500000 0.937778 0.928482
Si Si2 0.434658 0.736553 0.084925
Si Si3 0.570302 0.555668 0.577607
Si Si4 0.724826 0.194404 0.918395
Si Si5 0.354347 0.341352 0.083837
Si Si6 0.098329 0.359688 0.082088
O O1 0.500000 0.940954 0.750000
O O2 0.562534 0.905821 0.982615
O O3 0.500000 0.000000 0.000000
O O4 0.424180 0.715534 0.250000
O O5 0.500000 0.712390 0.024613
O O6 0.441634 0.803518 0.079345
O O7 0.376107 0.716153 0.993531
O O8 0.594629 0.500000 0.500000
O O9 0.580042 0.548041 0.750000
O O10 0.500000 0.568123 0.536086
O O11 0.611515 0.605728 0.511017
O O12 0.709376 0.211929 0.750000
O O13 0.781328 0.150502 0.926672
O O14 0.665928 0.159832 0.981534
O O15 0.750000 0.250000 0.000000
O O16 0.377006 0.335538 0.250000
O O17 0.104191 0.383086 0.250000
#
# Coordination Sequence:
#
# PCOD8257095 Si02
#       6
#     8  16  16  16  16  16
#     4  12  26  44  68  92 114 150 199 252 305 362
#     4  10  19  31  50  78 112 149 185 226 280 334
#     4   9  18  33  51  71 100 137 177 222 269 312
#     4  10  20  34  55  82 117 156 188 226 279 342
#     4  10  20  33  51  79 112 145 183 227 275 327
#     4  10  20  38  59  83 118 153 186 234 292 349
#
# _framework density 18.724523000000001
#
# number of rings (size 3 to 8) (size 9 to 14) (size 15 to 20)
#    0.000    2.000    2.727    1.364    0.000    3.273 
#    0.000    2.727    0.000    2.182    0.000    0.000 
#    0.000    0.000    0.000    0.000    0.000    0.000 
#
# Total GULP energy -545124.728150 kJ/mol
# GULP energy per Si atom -12389.198367 kJ/mol
# Density = 1.868191 g / cm^3
# Si number density = 18.724523 Si / 1000 Ang^3
#
#
#
# Elastic Constant Matrix: (Units=GPa)
#
#
# Indices 1 2 3 4 5 6 
#
# 1 136.4816 50.4144 40.9083 0.0000 0.0000 0.0000
# 2 50.4144 97.5440 40.2520 0.0000 0.0000 0.0000
# 3 40.9083 40.2520 65.5008 0.0000 0.0000 0.0000
# 4 0.0000 0.0000 0.0000 29.0849 0.0000 0.0000
# 5 0.0000 0.0000 0.0000 0.0000 23.4610 0.0000
# 6 0.0000 0.0000 0.0000 0.0000 0.0000 19.1256
#
#
#
# Elastic Compliance Matrix: (Units=1/GPa)
#
#
# Indices 1 2 3 4 5 6 
#
# 1 0.009789 -0.003398 -0.004025 0.000000 0.000000 0.000000
# 2 -0.003398 0.014914 -0.007043 0.000000 0.000000 0.000000
# 3 -0.004025 -0.007043 0.022109 0.000000 0.000000 0.000000
# 4 0.000000 0.000000 0.000000 0.034382 0.000000 0.000000
# 5 0.000000 0.000000 0.000000 0.000000 0.042624 0.000000
# 6 0.000000 0.000000 0.000000 0.000000 0.000000 0.052286
#
#
# Mechanical properties :
#
#
# Convention : Reuss Voigt Hill
#
# Bulk Modulus (GPa) = 55.93036 62.51953 59.22495
# Shear Modulus (GPa) = 23.69704 25.53108 24.61406
#
# Velocity S-wave (km/s) = 3.56133 3.69658 3.62959
# Velocity P-wave (km/s) = 6.84440 7.18896 7.01879
#
# Compressibility (1/GPa) = 0.01787938
#
# Stress axis : x y z
#
# Youngs Moduli (GPa) = 102.15826 67.04935 45.23031
#
# Poissons Ratio (x) = 0.22784 0.18206
# Poissons Ratio (y) = 0.34715 0.31856
# Poissons Ratio (z) = 0.41122 0.47223
#
# Static dielectric constant tensor:
#      x y z
#    x 3.689250 0.000000 0.000000 
#    y 0.000000 3.358460 0.000000 
#    z 0.000000 0.000000 3.350610 
# 
# 
# High freq. dielectric constant tensor:
#      x y z
#    x 1.743860 0.000000 0.000000 
#    y 0.000000 1.705840 0.000000 
#    z 0.000000 0.000000 1.711150 
# 
# From -- ./inp_files/8172.got.cif
#   From: 2010.03.12/outbox.cif.g09.slc.cpg/sg63_5_cif.got.tgz:8172.got - 2010.04.10 19:34:48.
