data_PCOD8257932
_publ_section_title
;
Structure prediction by ZEFSAII (Michael W. Deem and Ramdas Pophale) SiO2 
 PCOD8257932
Probable space group: C M C M
;
_chemical_formula_sum "Si O2"
_cell_formula_units_Z 96
_cell_length_a 16.176039
_cell_length_b 12.390819
_cell_length_c 23.863456
_cell_angle_alpha 90.000000
_cell_angle_beta 90.000000
_cell_angle_gamma 90.000000
_cell_volume 4783.056802
_symmetry_space_group_name_H-M "C M C M"
_symmetry_group_IT_number 63
_symmetry_cell_setting 'orthorhombic'
loop_
_space_group_symop_operation_xyz
x,y,z
-x,-y,1/2+z
x,-y,-z
-x,y,1/2-z
-x,-y,-z
x,y,1/2-z
-x,y,z
x,-y,1/2+z
1/2+x,1/2+y,z
1/2-x,1/2-y,1/2+z
1/2+x,1/2-y,-z
1/2-x,1/2+y,1/2-z
1/2-x,1/2-y,-z
1/2+x,1/2+y,1/2-z
1/2-x,1/2+y,z
1/2+x,1/2-y,1/2+z
loop_
_atom_site_type_symbol
_atom_site_label
_atom_site_fract_x
_atom_site_fract_y
_atom_site_fract_z
Si Si1 0.401830 0.475948 0.872506
Si Si2 0.157697 0.772835 0.937836
Si Si3 0.905800 0.633417 0.363926
Si Si4 0.402746 0.460786 0.250000
Si Si5 0.161672 0.183606 0.934195
Si Si6 0.405162 0.041410 0.557454
Si Si7 0.599510 0.780010 0.750000
O O1 0.500000 0.494124 0.880783
O O2 0.374998 0.358551 0.893373
O O3 0.375301 0.479086 0.807043
O O4 0.351784 0.566000 0.907545
O O5 0.248344 0.732274 0.921179
O O6 0.099647 0.668314 0.934112
O O7 0.150346 0.825573 0.999167
O O8 0.903134 0.733985 0.406831
O O9 0.863460 0.527125 0.391742
O O10 0.862772 0.660815 0.304712
O O11 0.000000 0.608470 0.349642
O O12 0.500000 0.450442 0.250000
O O13 0.364647 0.340911 0.250000
O O14 0.500000 0.004515 0.555139
O O15 0.361257 0.000000 0.500000
O O16 0.500000 0.777251 0.750000
#
# Coordination Sequence:
#
# PCOD8257932 Si02
#       7
#    16  16  16   8  16  16   8
#     4  11  23  41  65  92 121 159 211 257 299 359
#     4  11  25  38  57  87 128 159 192 240 313 365
#     4  10  19  34  60  88 111 146 199 247 285 342
#     4   9  18  36  62  88 118 157 201 258 310 350
#     4  11  23  37  59  85 121 160 195 247 296 356
#     4  10  20  35  58  82 115 156 194 235 288 358
#     4   9  16  32  58  88 116 145 195 254 296 332
#
# _framework density 20.070846
#
# number of rings (size 3 to 8) (size 9 to 14) (size 15 to 20)
#    0.000    1.667    3.333    1.500    2.333    2.667 
#    0.000    2.500    0.000    3.000    0.000    0.000 
#    0.000    0.000    0.000    0.000    0.000    0.000 
#
# Total GULP energy -595020.146911 kJ/mol
# GULP energy per Si atom -12396.253061 kJ/mol
# Density = 2.002516 g / cm^3
# Si number density = 20.070846 Si / 1000 Ang^3
#
#
#
# Elastic Constant Matrix: (Units=GPa)
#
#
# Indices 1 2 3 4 5 6 
#
# 1 32.4252 18.5900 35.4538 0.0000 0.0000 0.0000
# 2 18.5900 160.6096 96.6266 0.0000 0.0000 0.0000
# 3 35.4538 96.6266 182.8708 0.0000 0.0000 0.0000
# 4 0.0000 0.0000 0.0000 43.5132 0.0000 0.0000
# 5 0.0000 0.0000 0.0000 0.0000 15.0598 0.0000
# 6 0.0000 0.0000 0.0000 0.0000 0.0000 26.2460
#
#
#
# Elastic Compliance Matrix: (Units=1/GPa)
#
#
# Indices 1 2 3 4 5 6 
#
# 1 0.039137 0.000051 -0.007615 0.000000 0.000000 0.000000
# 2 0.000051 0.009128 -0.004833 0.000000 0.000000 0.000000
# 3 -0.007615 -0.004833 0.009498 0.000000 0.000000 0.000000
# 4 0.000000 0.000000 0.000000 0.022982 0.000000 0.000000
# 5 0.000000 0.000000 0.000000 0.000000 0.066402 0.000000
# 6 0.000000 0.000000 0.000000 0.000000 0.000000 0.038101
#
#
# Mechanical properties :
#
#
# Convention : Reuss Voigt Hill
#
# Bulk Modulus (GPa) = 30.33046 75.24960 52.79003
# Shear Modulus (GPa) = 22.62129 31.97947 27.30038
#
# Velocity S-wave (km/s) = 3.36083 3.99598 3.69209
# Velocity P-wave (km/s) = 5.49589 7.67228 6.67340
#
# Compressibility (1/GPa) = 0.03297016
#
# Stress axis : x y z
#
# Youngs Moduli (GPa) = 25.55143 109.55249 105.28136
#
# Poissons Ratio (x) = -0.00561 0.80168
# Poissons Ratio (y) = -0.00131 0.50883
# Poissons Ratio (z) = 0.19457 0.52948
#
# Static dielectric constant tensor:
#      x y z
#    x 3.338800 0.000000 0.000000 
#    y 0.000000 3.623450 0.000000 
#    z 0.000000 0.000000 4.031580 
# 
# 
# High freq. dielectric constant tensor:
#      x y z
#    x 1.752220 0.000000 0.000000 
#    y 0.000000 1.786360 0.000000 
#    z 0.000000 0.000000 1.791120 
# 
# From -- ./inp_files/63730.got.cif
#   From: 2010.03.12/outbox.cif.g09.slc.cpg/sg63_32_cif.got.tgz:63730.got - 2010.04.10 19:34:48.
