data_PCOD8257423
_publ_section_title
;
Structure prediction by ZEFSAII (Michael W. Deem and Ramdas Pophale) SiO2 
 PCOD8257423
Probable space group: C M C M
;
_chemical_formula_sum "Si O2"
_cell_formula_units_Z 80
_cell_length_a 7.751978
_cell_length_b 28.589960
_cell_length_c 19.966069
_cell_angle_alpha 90.000000
_cell_angle_beta 90.000000
_cell_angle_gamma 90.000000
_cell_volume 4425.054734
_symmetry_space_group_name_H-M "C M C M"
_symmetry_group_IT_number 63
_symmetry_cell_setting 'orthorhombic'
loop_
_space_group_symop_operation_xyz
x,y,z
-x,-y,1/2+z
x,-y,-z
-x,y,1/2-z
-x,-y,-z
x,y,1/2-z
-x,y,z
x,-y,1/2+z
1/2+x,1/2+y,z
1/2-x,1/2-y,1/2+z
1/2+x,1/2-y,-z
1/2-x,1/2+y,1/2-z
1/2-x,1/2-y,-z
1/2+x,1/2+y,1/2-z
1/2-x,1/2+y,z
1/2+x,1/2-y,1/2+z
loop_
_atom_site_type_symbol
_atom_site_label
_atom_site_fract_x
_atom_site_fract_y
_atom_site_fract_z
Si Si1 0.000000 0.972431 0.069040
Si Si2 0.697165 0.111895 0.112928
Si Si3 0.201070 0.710887 0.074430
Si Si4 0.500000 0.445872 0.673137
Si Si5 0.190649 0.406888 0.042701
Si Si6 0.309130 0.310465 0.430985
O O1 0.171416 0.941334 0.075254
O O2 0.000000 0.006990 0.131041
O O3 0.000000 0.000000 0.000000
O O4 0.500000 0.098863 0.132042
O O5 0.731780 0.167474 0.125111
O O6 0.827625 0.083568 0.158933
O O7 0.734138 0.099704 0.035422
O O8 0.250197 0.762028 0.106702
O O9 0.000000 0.710862 0.052606
O O10 0.316841 0.702823 0.009283
O O11 0.500000 0.460667 0.750000
O O12 0.191563 0.356241 0.080187
O O13 0.000000 0.428489 0.052410
O O14 0.500000 0.324751 0.407269
#
# Coordination Sequence:
#
# PCOD8257423 Si02
#       6
#     8  16  16   8  16  16
#     4  12  22  38  58  78 104 146 186 236 283 329
#     4   9  18  34  53  77 111 146 176 217 268 327
#     4   8  15  24  40  70 108 146 172 198 250 314
#     4  12  26  40  56  80 106 142 190 232 276 330
#     4  10  19  32  53  81 112 140 178 223 281 333
#     4   9  14  23  41  71 113 144 166 206 258 313
#
# _framework density 18.078873999999999
#
# number of rings (size 3 to 8) (size 9 to 14) (size 15 to 20)
#    0.000    2.400    3.000    1.800    4.200    2.400 
#    0.000    0.000    0.000    0.000    0.000    1.400 
#    0.000    0.000    0.000    0.000    0.000    0.000 
#
# Total GULP energy -495553.321911 kJ/mol
# GULP energy per Si atom -12388.833048 kJ/mol
# Density = 1.803773 g / cm^3
# Si number density = 18.078874 Si / 1000 Ang^3
#
#
#
# Elastic Constant Matrix: (Units=GPa)
#
#
# Indices 1 2 3 4 5 6 
#
# 1 100.9070 59.4703 30.2783 0.0000 0.0000 0.0000
# 2 59.4703 140.1517 45.8739 0.0000 0.0000 0.0000
# 3 30.2783 45.8739 55.7653 0.0000 0.0000 0.0000
# 4 0.0000 0.0000 0.0000 11.4550 0.0000 0.0000
# 5 0.0000 0.0000 0.0000 0.0000 9.5673 0.0000
# 6 0.0000 0.0000 0.0000 0.0000 0.0000 26.6025
#
#
#
# Elastic Compliance Matrix: (Units=1/GPa)
#
#
# Indices 1 2 3 4 5 6 
#
# 1 0.013736 -0.004635 -0.003645 0.000000 0.000000 0.000000
# 2 -0.004635 0.011329 -0.006802 0.000000 0.000000 0.000000
# 3 -0.003645 -0.006802 0.025507 0.000000 0.000000 0.000000
# 4 0.000000 0.000000 0.000000 0.087298 0.000000 0.000000
# 5 0.000000 0.000000 0.000000 0.000000 0.104523 0.000000
# 6 0.000000 0.000000 0.000000 0.000000 0.000000 0.037590
#
#
# Mechanical properties :
#
#
# Convention : Reuss Voigt Hill
#
# Bulk Modulus (GPa) = 49.00439 63.11877 56.06158
# Shear Modulus (GPa) = 15.77536 20.27172 18.02354
#
# Velocity S-wave (km/s) = 2.95716 3.35220 3.16086
# Velocity P-wave (km/s) = 6.23093 7.06908 6.66319
#
# Compressibility (1/GPa) = 0.02040634
#
# Stress axis : x y z
#
# Youngs Moduli (GPa) = 72.80305 88.27223 39.20503
#
# Poissons Ratio (x) = 0.40918 0.14289
# Poissons Ratio (y) = 0.33748 0.26668
# Poissons Ratio (z) = 0.26534 0.60045
#
# Static dielectric constant tensor:
#      x y z
#    x 3.404160 0.000000 0.000000 
#    y 0.000000 3.791800 0.000000 
#    z 0.000000 0.000000 2.595710 
# 
# 
# High freq. dielectric constant tensor:
#      x y z
#    x 1.714070 0.000000 0.000000 
#    y 0.000000 1.722780 0.000000 
#    z 0.000000 0.000000 1.596560 
# 
# From -- ./inp_files/40614.got.cif
#   From: 2010.03.12/outbox.cif.g09.slc.cpg/sg63_21_cif.got.tgz:40614.got - 2010.04.10 19:34:48.
