data_PCOD8257947
_publ_section_title
;
Structure prediction by ZEFSAII (Michael W. Deem and Ramdas Pophale) SiO2 
 PCOD8257947
Probable space group: C M C M
;
_chemical_formula_sum "Si O2"
_cell_formula_units_Z 96
_cell_length_a 8.663462
_cell_length_b 23.643278
_cell_length_c 25.766912
_cell_angle_alpha 90.000000
_cell_angle_beta 90.000000
_cell_angle_gamma 90.000000
_cell_volume 5277.904623
_symmetry_space_group_name_H-M "C M C M"
_symmetry_group_IT_number 63
_symmetry_cell_setting 'orthorhombic'
loop_
_space_group_symop_operation_xyz
x,y,z
-x,-y,1/2+z
x,-y,-z
-x,y,1/2-z
-x,-y,-z
x,y,1/2-z
-x,y,z
x,-y,1/2+z
1/2+x,1/2+y,z
1/2-x,1/2-y,1/2+z
1/2+x,1/2-y,-z
1/2-x,1/2+y,1/2-z
1/2-x,1/2-y,-z
1/2+x,1/2+y,1/2-z
1/2-x,1/2+y,z
1/2+x,1/2-y,1/2+z
loop_
_atom_site_type_symbol
_atom_site_label
_atom_site_fract_x
_atom_site_fract_y
_atom_site_fract_z
Si Si1 0.817740 0.688153 0.499444
Si Si2 0.816625 0.617550 0.903553
Si Si3 0.816356 0.687371 0.807608
Si Si4 0.681700 0.995961 0.560353
Si Si5 0.318099 0.618911 0.093867
Si Si6 0.816928 0.814204 0.692816
O O1 0.750000 0.750000 0.500000
O O2 0.751055 0.654317 0.548835
O O3 0.769925 0.655631 0.448170
O O4 0.000000 0.692000 0.502147
O O5 0.749269 0.643208 0.849864
O O6 0.764187 0.552818 0.910439
O O7 0.000000 0.620480 0.904340
O O8 0.758670 0.669700 0.750000
O O9 0.758078 0.750813 0.821005
O O10 0.000000 0.686113 0.809382
O O11 0.500000 0.984454 0.565770
O O12 0.727647 0.000000 0.500000
O O13 0.774497 0.946430 0.588508
O O14 0.500000 0.627450 0.086993
O O15 0.259611 0.641046 0.150013
O O16 0.754331 0.832006 0.750000
O O17 0.000000 0.813049 0.694142
#
# Coordination Sequence:
#
# PCOD8257947 Si02
#       6
#    16  16  16  16  16  16
#     4  11  21  34  51  75 105 136 168 207 260 315
#     4   9  17  30  48  68  96 132 168 202 247 307
#     4   8  13  24  45  71  95 122 161 208 251 296
#     4  10  19  35  52  68  98 144 177 202 255 316
#     4  11  21  33  52  78 103 131 174 222 260 303
#     4   8  15  29  49  73 102 133 165 206 261 318
#
# _framework density 18.189036000000002
#
# number of rings (size 3 to 8) (size 9 to 14) (size 15 to 20)
#    0.000    2.500    1.667    3.000    0.000    3.000 
#    0.000    0.833    0.000    3.000    0.000    0.000 
#    0.000    3.333    0.000    0.000    0.000    0.000 
#
# Total GULP energy -595035.593051 kJ/mol
# GULP energy per Si atom -12396.574855 kJ/mol
# Density = 1.814764 g / cm^3
# Si number density = 18.189036 Si / 1000 Ang^3
#
#
#
# Elastic Constant Matrix: (Units=GPa)
#
#
# Indices 1 2 3 4 5 6 
#
# 1 25.4905 17.2081 15.8810 0.0000 0.0000 0.0000
# 2 17.2081 150.7158 88.5933 0.0000 0.0000 0.0000
# 3 15.8810 88.5933 157.8036 0.0000 0.0000 0.0000
# 4 0.0000 0.0000 0.0000 32.4630 0.0000 0.0000
# 5 0.0000 0.0000 0.0000 0.0000 15.0999 0.0000
# 6 0.0000 0.0000 0.0000 0.0000 0.0000 26.0948
#
#
#
# Elastic Compliance Matrix: (Units=1/GPa)
#
#
# Indices 1 2 3 4 5 6 
#
# 1 0.043083 -0.003538 -0.002349 0.000000 0.000000 0.000000
# 2 -0.003538 0.010194 -0.005367 0.000000 0.000000 0.000000
# 3 -0.002349 -0.005367 0.009586 0.000000 0.000000 0.000000
# 4 0.000000 0.000000 0.000000 0.030804 0.000000 0.000000
# 5 0.000000 0.000000 0.000000 0.000000 0.066225 0.000000
# 6 0.000000 0.000000 0.000000 0.000000 0.000000 0.038322
#
#
# Mechanical properties :
#
#
# Convention : Reuss Voigt Hill
#
# Bulk Modulus (GPa) = 24.78059 64.15274 44.46667
# Shear Modulus (GPa) = 21.35164 28.88671 25.11917
#
# Velocity S-wave (km/s) = 3.42990 3.98947 3.72022
# Velocity P-wave (km/s) = 5.41656 7.52115 6.55389
#
# Compressibility (1/GPa) = 0.04035416
#
# Stress axis : x y z
#
# Youngs Moduli (GPa) = 23.21128 98.10019 104.31388
#
# Poissons Ratio (x) = 0.34707 0.24508
# Poissons Ratio (y) = 0.08212 0.55983
# Poissons Ratio (z) = 0.05453 0.52649
#
# Static dielectric constant tensor:
#      x y z
#    x 2.903310 0.000000 0.000000 
#    y 0.000000 3.516430 0.000000 
#    z 0.000000 0.000000 3.745890 
# 
# 
# High freq. dielectric constant tensor:
#      x y z
#    x 1.659340 0.000000 0.000000 
#    y 0.000000 1.708940 0.000000 
#    z 0.000000 0.000000 1.712610 
# 
# From -- ./inp_files/59843.got.cif
#   From: 2010.03.12/outbox.cif.g09.slc.cpg/sg63_30_cif.got.tgz:59843.got - 2010.04.10 19:34:48.
