data_PCOD8257517
_publ_section_title
;
Structure prediction by ZEFSAII (Michael W. Deem and Ramdas Pophale) SiO2 
 PCOD8257517
Probable space group: C M C M
;
_chemical_formula_sum "Si O2"
_cell_formula_units_Z 96
_cell_length_a 17.443670
_cell_length_b 29.416170
_cell_length_c 9.197136
_cell_angle_alpha 90.000000
_cell_angle_beta 90.000000
_cell_angle_gamma 90.000000
_cell_volume 4719.289259
_symmetry_space_group_name_H-M "C M C M"
_symmetry_group_IT_number 63
_symmetry_cell_setting 'orthorhombic'
loop_
_space_group_symop_operation_xyz
x,y,z
-x,-y,1/2+z
x,-y,-z
-x,y,1/2-z
-x,-y,-z
x,y,1/2-z
-x,y,z
x,-y,1/2+z
1/2+x,1/2+y,z
1/2-x,1/2-y,1/2+z
1/2+x,1/2-y,-z
1/2-x,1/2+y,1/2-z
1/2-x,1/2-y,-z
1/2+x,1/2+y,1/2-z
1/2-x,1/2+y,z
1/2+x,1/2-y,1/2+z
loop_
_atom_site_type_symbol
_atom_site_label
_atom_site_fract_x
_atom_site_fract_y
_atom_site_fract_z
Si Si1 0.911930 0.775410 0.581439
Si Si2 0.680445 0.458435 0.909206
Si Si3 0.413526 0.120954 0.584984
Si Si4 0.659783 0.195521 0.423462
Si Si5 0.689420 0.642198 0.417813
Si Si6 0.356468 0.959757 0.909193
O O1 0.903352 0.761065 0.750000
O O2 0.851801 0.746203 0.486019
O O3 0.887114 0.827952 0.560840
O O4 0.000000 0.770311 0.529156
O O5 0.640248 0.457028 0.750000
O O6 0.675206 0.408201 0.987078
O O7 0.768441 0.471913 0.886906
O O8 0.641523 0.500000 0.000000
O O9 0.383988 0.126851 0.750000
O O10 0.500000 0.102824 0.583427
O O11 0.410063 0.168198 0.497726
O O12 0.359879 0.086387 0.499241
O O13 0.653772 0.196902 0.250000
O O14 0.738166 0.171231 0.479352
O O15 0.708912 0.632682 0.250000
O O16 0.396002 0.954842 0.750000
O O17 0.397753 0.000000 0.000000
#
# Coordination Sequence:
#
# PCOD8257517 Si02
#       6
#    16  16  16  16  16  16
#     4  10  21  37  57  81 110 144 180 221 270 325
#     4   9  17  32  53  79 108 137 173 218 266 315
#     4  11  23  36  50  71 102 140 182 226 270 321
#     4  11  21  36  56  78 106 142 181 225 272 316
#     4   9  18  35  57  81 110 142 180 222 265 321
#     4  10  19  33  52  73 100 136 177 224 274 323
#
# _framework density 20.342044999999999
#
# number of rings (size 3 to 8) (size 9 to 14) (size 15 to 20)
#    0.000    2.000    1.667    2.500    0.000    4.667 
#    0.000    1.667    0.000    0.500    0.000    0.000 
#    0.000    0.000    0.000    0.000    0.000    0.000 
#
# Total GULP energy -594841.660922 kJ/mol
# GULP energy per Si atom -12392.534603 kJ/mol
# Density = 2.029575 g / cm^3
# Si number density = 20.342045 Si / 1000 Ang^3
#
#
#
# Elastic Constant Matrix: (Units=GPa)
#
#
# Indices 1 2 3 4 5 6 
#
# 1 42.8450 27.2965 16.2523 0.0000 0.0000 0.0000
# 2 27.2965 151.8939 54.1178 0.0000 0.0000 0.0000
# 3 16.2523 54.1178 100.3167 0.0000 0.0000 0.0000
# 4 0.0000 0.0000 0.0000 33.6721 0.0000 0.0000
# 5 0.0000 0.0000 0.0000 0.0000 11.0209 0.0000
# 6 0.0000 0.0000 0.0000 0.0000 0.0000 15.8352
#
#
#
# Elastic Compliance Matrix: (Units=1/GPa)
#
#
# Indices 1 2 3 4 5 6 
#
# 1 0.026728 -0.004036 -0.002153 0.000000 0.000000 0.000000
# 2 -0.004036 0.008760 -0.004072 0.000000 0.000000 0.000000
# 3 -0.002153 -0.004072 0.012514 0.000000 0.000000 0.000000
# 4 0.000000 0.000000 0.000000 0.029698 0.000000 0.000000
# 5 0.000000 0.000000 0.000000 0.000000 0.090736 0.000000
# 6 0.000000 0.000000 0.000000 0.000000 0.000000 0.063151
#
#
# Mechanical properties :
#
#
# Convention : Reuss Voigt Hill
#
# Bulk Modulus (GPa) = 36.38999 54.48763 45.43881
# Shear Modulus (GPa) = 19.13745 25.26489 22.20117
#
# Velocity S-wave (km/s) = 3.07055 3.52803 3.30721
# Velocity P-wave (km/s) = 5.52258 6.59089 6.08025
#
# Compressibility (1/GPa) = 0.02748008
#
# Stress axis : x y z
#
# Youngs Moduli (GPa) = 37.41384 114.16124 79.91237
#
# Poissons Ratio (x) = 0.46078 0.17203
# Poissons Ratio (y) = 0.15101 0.32537
# Poissons Ratio (z) = 0.08054 0.46482
#
# Static dielectric constant tensor:
#      x y z
#    x 3.231050 0.000000 0.000000 
#    y 0.000000 3.858710 0.000000 
#    z 0.000000 0.000000 3.789190 
# 
# 
# High freq. dielectric constant tensor:
#      x y z
#    x 1.749710 0.000000 0.000000 
#    y 0.000000 1.808800 0.000000 
#    z 0.000000 0.000000 1.779590 
# 
# From -- ./inp_files/8565.got.cif
#   From: 2010.03.12/outbox.cif.g09.slc.cpg/sg63_5_cif.got.tgz:8565.got - 2010.04.10 19:34:48.
