data_PCOD8257495
_publ_section_title
;
Structure prediction by ZEFSAII (Michael W. Deem and Ramdas Pophale) SiO2 
 PCOD8257495
Probable space group: C M C M
;
_chemical_formula_sum "Si O2"
_cell_formula_units_Z 128
_cell_length_a 23.279807
_cell_length_b 16.968775
_cell_length_c 19.007529
_cell_angle_alpha 90.000000
_cell_angle_beta 90.000000
_cell_angle_gamma 90.000000
_cell_volume 7508.540513
_symmetry_space_group_name_H-M "C M C M"
_symmetry_group_IT_number 63
_symmetry_cell_setting 'orthorhombic'
loop_
_space_group_symop_operation_xyz
x,y,z
-x,-y,1/2+z
x,-y,-z
-x,y,1/2-z
-x,-y,-z
x,y,1/2-z
-x,y,z
x,-y,1/2+z
1/2+x,1/2+y,z
1/2-x,1/2-y,1/2+z
1/2+x,1/2-y,-z
1/2-x,1/2+y,1/2-z
1/2-x,1/2-y,-z
1/2+x,1/2+y,1/2-z
1/2-x,1/2+y,z
1/2+x,1/2-y,1/2+z
loop_
_atom_site_type_symbol
_atom_site_label
_atom_site_fract_x
_atom_site_fract_y
_atom_site_fract_z
Si Si1 0.180407 0.810622 0.918019
Si Si2 0.935689 0.889615 0.578665
Si Si3 0.934940 0.839530 0.424732
Si Si4 0.779104 0.432532 0.942188
Si Si5 0.759267 0.038042 0.670684
Si Si6 0.108075 0.970463 0.168504
Si Si7 0.239312 0.784487 0.167716
Si Si8 0.156566 0.281348 0.554214
O O1 0.115444 0.832643 0.895708
O O2 0.219267 0.884408 0.942125
O O3 0.203927 0.766371 0.848895
O O4 0.184837 0.751875 0.983621
O O5 0.929465 0.895750 0.493829
O O6 0.000000 0.856507 0.596044
O O7 0.929185 0.972416 0.618755
O O8 0.902631 0.882124 0.360155
O O9 0.908075 0.752621 0.439823
O O10 0.000000 0.824325 0.402980
O O11 0.783202 0.478614 0.868613
O O12 0.835415 0.376406 0.950055
O O13 0.776570 0.500000 0.000000
O O14 0.738438 0.035430 0.750000
O O15 0.824938 0.009208 0.662222
O O16 0.752055 0.126291 0.641307
O O17 0.088074 0.976164 0.250000
O O18 0.224175 0.781283 0.250000
O O19 0.187885 0.746579 0.124512
#
# Coordination Sequence:
#
# PCOD8257495 Si02
#       8
#    16  16  16  16  16  16  16  16
#     4  10  20  33  50  72  98 131 168 207 245 290
#     4  10  21  35  50  71 101 138 174 207 243 292
#     4  10  21  36  54  71  95 134 177 213 250 294
#     4  11  20  30  51  74  97 129 162 204 248 299
#     4  10  20  32  47  71 102 132 160 195 245 297
#     4  11  21  33  48  72 105 137 168 204 244 292
#     4  10  19  33  51  72 100 131 164 202 248 297
#     4  10  20  34  50  72  99 127 166 209 249 294
#
# _framework density 17.047255
#
# number of rings (size 3 to 8) (size 9 to 14) (size 15 to 20)
#    0.000    1.750    2.500    3.750    1.750    4.500 
#    0.000    0.000    0.000    0.375    0.000    0.875 
#    0.000    1.000    0.000    0.000    0.000    0.000 
#
# Total GULP energy -793184.136659 kJ/mol
# GULP energy per Si atom -12393.502135 kJ/mol
# Density = 1.700845 g / cm^3
# Si number density = 17.047255 Si / 1000 Ang^3
#
#
#
# Elastic Constant Matrix: (Units=GPa)
#
#
# Indices 1 2 3 4 5 6 
#
# 1 60.6907 30.7602 18.9992 0.0000 0.0000 0.0000
# 2 30.7602 99.9750 41.9273 0.0000 0.0000 0.0000
# 3 18.9992 41.9273 66.1351 0.0000 0.0000 0.0000
# 4 0.0000 0.0000 0.0000 28.7401 0.0000 0.0000
# 5 0.0000 0.0000 0.0000 0.0000 14.9150 0.0000
# 6 0.0000 0.0000 0.0000 0.0000 0.0000 17.5124
#
#
#
# Elastic Compliance Matrix: (Units=1/GPa)
#
#
# Indices 1 2 3 4 5 6 
#
# 1 0.019818 -0.005053 -0.002489 0.000000 0.000000 0.000000
# 2 -0.005053 0.014914 -0.008003 0.000000 0.000000 0.000000
# 3 -0.002489 -0.008003 0.020909 0.000000 0.000000 0.000000
# 4 0.000000 0.000000 0.000000 0.034795 0.000000 0.000000
# 5 0.000000 0.000000 0.000000 0.000000 0.067046 0.000000
# 6 0.000000 0.000000 0.000000 0.000000 0.000000 0.057102
#
#
# Mechanical properties :
#
#
# Convention : Reuss Voigt Hill
#
# Bulk Modulus (GPa) = 40.73522 45.57493 43.15508
# Shear Modulus (GPa) = 19.69601 21.24110 20.46855
#
# Velocity S-wave (km/s) = 3.40277 3.53372 3.46886
# Velocity P-wave (km/s) = 6.27581 6.59106 6.43537
#
# Compressibility (1/GPa) = 0.02454878
#
# Stress axis : x y z
#
# Youngs Moduli (GPa) = 50.46029 67.05301 47.82559
#
# Poissons Ratio (x) = 0.33885 0.11906
# Poissons Ratio (y) = 0.25500 0.38274
# Poissons Ratio (z) = 0.12562 0.53662
#
# Static dielectric constant tensor:
#      x y z
#    x 3.148760 0.000000 0.000000 
#    y 0.000000 3.343690 0.000000 
#    z 0.000000 0.000000 3.241490 
# 
# 
# High freq. dielectric constant tensor:
#      x y z
#    x 1.630390 0.000000 0.000000 
#    y 0.000000 1.647360 0.000000 
#    z 0.000000 0.000000 1.665460 
# 
# From -- ./inp_files/48418.got.cif
#   From: 2010.03.12/outbox.cif.g09.slc.cpg/sg63_25_cif.got.tgz:48418.got - 2010.04.10 19:34:48.
