data_PCOD8257709
_publ_section_title
;
Structure prediction by ZEFSAII (Michael W. Deem and Ramdas Pophale) SiO2 
 PCOD8257709
Probable space group: C M C M
;
_chemical_formula_sum "Si O2"
_cell_formula_units_Z 88
_cell_length_a 7.645480
_cell_length_b 26.545470
_cell_length_c 22.162362
_cell_angle_alpha 90.000000
_cell_angle_beta 90.000000
_cell_angle_gamma 90.000000
_cell_volume 4497.914752
_symmetry_space_group_name_H-M "C M C M"
_symmetry_group_IT_number 63
_symmetry_cell_setting 'orthorhombic'
loop_
_space_group_symop_operation_xyz
x,y,z
-x,-y,1/2+z
x,-y,-z
-x,y,1/2-z
-x,-y,-z
x,y,1/2-z
-x,y,z
x,-y,1/2+z
1/2+x,1/2+y,z
1/2-x,1/2-y,1/2+z
1/2+x,1/2-y,-z
1/2-x,1/2+y,1/2-z
1/2-x,1/2-y,-z
1/2+x,1/2+y,1/2-z
1/2-x,1/2+y,z
1/2+x,1/2-y,1/2+z
loop_
_atom_site_type_symbol
_atom_site_label
_atom_site_fract_x
_atom_site_fract_y
_atom_site_fract_z
Si Si1 0.500000 0.374975 0.528627
Si Si2 0.694141 0.835509 0.603636
Si Si3 0.500000 0.587009 0.601056
Si Si4 0.300327 0.068618 0.180253
Si Si5 0.000000 0.026127 0.394340
Si Si6 0.200566 0.630325 0.679872
Si Si7 0.704945 0.753989 0.317343
O O1 0.329746 0.343770 0.549437
O O2 0.500000 0.376508 0.456603
O O3 0.500000 0.431866 0.553732
O O4 0.500000 0.843421 0.576754
O O5 0.734741 0.875023 0.656761
O O6 0.703251 0.780214 0.632557
O O7 0.500000 0.529491 0.577493
O O8 0.326623 0.595820 0.640318
O O9 0.251730 0.068213 0.250000
O O10 0.500000 0.051578 0.168783
O O11 0.173793 0.030245 0.146230
O O12 0.229840 0.617502 0.750000
O O13 0.248147 0.688364 0.667133
O O14 0.000000 0.619157 0.661676
O O15 0.775387 0.741403 0.250000
O O16 0.500000 0.743826 0.319597
#
# Coordination Sequence:
#
# PCOD8257709 Si02
#       7
#     8  16   8  16   8  16  16
#     4  10  23  42  56  80 114 146 192 247 277 330
#     4  10  19  33  56  82 116 152 188 225 277 333
#     4  12  24  40  63  81 104 152 200 234 284 328
#     4   9  18  32  51  83 119 144 174 226 289 350
#     4  10  22  38  57  79 106 148 194 241 285 330
#     4   9  21  40  60  86 118 145 182 233 279 335
#     4   9  17  32  57  86 117 151 182 222 278 335
#
# _framework density 19.564620999999999
#
# number of rings (size 3 to 8) (size 9 to 14) (size 15 to 20)
#    0.000    2.364    0.909    2.455    1.273    4.000 
#    0.000    2.727    0.000    5.455    0.000    0.000 
#    0.000    0.000    0.000    0.000    0.000    0.000 
#
# Total GULP energy -545649.378882 kJ/mol
# GULP energy per Si atom -12401.122247 kJ/mol
# Density = 1.952009 g / cm^3
# Si number density = 19.564621 Si / 1000 Ang^3
#
#
#
# Elastic Constant Matrix: (Units=GPa)
#
#
# Indices 1 2 3 4 5 6 
#
# 1 105.1450 25.0347 38.3861 0.0000 0.0000 0.0000
# 2 25.0347 64.5027 13.9939 0.0000 0.0000 0.0000
# 3 38.3861 13.9939 72.4179 0.0000 0.0000 0.0000
# 4 0.0000 0.0000 0.0000 21.9397 0.0000 0.0000
# 5 0.0000 0.0000 0.0000 0.0000 18.4094 0.0000
# 6 0.0000 0.0000 0.0000 0.0000 0.0000 26.4441
#
#
#
# Elastic Compliance Matrix: (Units=1/GPa)
#
#
# Indices 1 2 3 4 5 6 
#
# 1 0.012535 -0.003573 -0.005954 0.000000 0.000000 0.000000
# 2 -0.003573 0.017200 -0.001430 0.000000 0.000000 0.000000
# 3 -0.005954 -0.001430 0.017241 0.000000 0.000000 0.000000
# 4 0.000000 0.000000 0.000000 0.045580 0.000000 0.000000
# 5 0.000000 0.000000 0.000000 0.000000 0.054320 0.000000
# 6 0.000000 0.000000 0.000000 0.000000 0.000000 0.037816
#
#
# Mechanical properties :
#
#
# Convention : Reuss Voigt Hill
#
# Bulk Modulus (GPa) = 39.90024 44.09945 41.99984
# Shear Modulus (GPa) = 23.26019 24.33537 23.79778
#
# Velocity S-wave (km/s) = 3.45177 3.53065 3.49143
# Velocity P-wave (km/s) = 6.02699 6.26178 6.14551
#
# Compressibility (1/GPa) = 0.02506251
#
# Stress axis : x y z
#
# Youngs Moduli (GPa) = 79.77572 58.13856 58.00145
#
# Poissons Ratio (x) = 0.20775 0.34534
# Poissons Ratio (y) = 0.28507 0.08292
# Poissons Ratio (z) = 0.47498 0.08312
#
# Static dielectric constant tensor:
#      x y z
#    x 3.682100 0.000000 0.000000 
#    y 0.000000 3.405470 0.000000 
#    z 0.000000 0.000000 3.261550 
# 
# 
# High freq. dielectric constant tensor:
#      x y z
#    x 1.774120 0.000000 0.000000 
#    y 0.000000 1.752660 0.000000 
#    z 0.000000 0.000000 1.737310 
# 
# From -- ./inp_files/51106.got.cif
#   From: 2010.03.12/outbox.cif.g09.slc.cpg/sg63_26_cif.got.tgz:51106.got - 2010.04.10 19:34:48.
