data_PCOD8257590
_publ_section_title
;
Structure prediction by ZEFSAII (Michael W. Deem and Ramdas Pophale) SiO2 
 PCOD8257590
Probable space group: C M C M
;
_chemical_formula_sum "Si O2"
_cell_formula_units_Z 64
_cell_length_a 10.299671
_cell_length_b 19.153800
_cell_length_c 17.981458
_cell_angle_alpha 90.000000
_cell_angle_beta 90.000000
_cell_angle_gamma 90.000000
_cell_volume 3547.343166
_symmetry_space_group_name_H-M "C M C M"
_symmetry_group_IT_number 63
_symmetry_cell_setting 'orthorhombic'
loop_
_space_group_symop_operation_xyz
x,y,z
-x,-y,1/2+z
x,-y,-z
-x,y,1/2-z
-x,-y,-z
x,y,1/2-z
-x,y,z
x,-y,1/2+z
1/2+x,1/2+y,z
1/2-x,1/2-y,1/2+z
1/2+x,1/2-y,-z
1/2-x,1/2+y,1/2-z
1/2-x,1/2-y,-z
1/2+x,1/2+y,1/2-z
1/2-x,1/2+y,z
1/2+x,1/2-y,1/2+z
loop_
_atom_site_type_symbol
_atom_site_label
_atom_site_fract_x
_atom_site_fract_y
_atom_site_fract_z
Si Si1 0.500000 0.495224 0.664808
Si Si2 0.000000 0.080194 0.530667
Si Si3 0.752395 0.902951 0.666887
Si Si4 0.250683 0.669068 0.016834
Si Si5 0.500000 0.974999 0.875875
Si Si6 0.500000 0.100118 0.532220
O O1 0.500000 0.517553 0.750000
O O2 0.500000 0.567906 0.619508
O O3 0.375633 0.448893 0.643222
O O4 0.875820 0.125625 0.508560
O O5 0.000000 0.000000 0.500000
O O6 0.771859 0.870959 0.750000
O O7 0.732661 0.841969 0.605957
O O8 0.626937 0.952593 0.669303
O O9 0.250000 0.750000 0.000000
O O10 0.129710 0.645032 0.967979
O O11 0.500000 0.057985 0.889851
O O12 0.500000 0.945481 0.958428
#
# Coordination Sequence:
#
# PCOD8257590 Si02
#       6
#     8   8  16  16   8   8
#     4  10  20  34  56  87 112 140 187 240 283 325
#     4  12  21  37  62  84 112 147 194 235 279 329
#     4  10  19  33  53  78 108 143 185 230 281 336
#     4  11  22  36  55  84 115 149 189 230 278 339
#     4   9  17  30  51  78 101 133 175 226 271 317
#     4   9  19  31  53  77 110 135 177 225 274 316
#
# _framework density 18.041671999999998
#
# number of rings (size 3 to 8) (size 9 to 14) (size 15 to 20)
#    0.000    1.750    2.500    2.625    3.500    0.000 
#    0.000    1.250    0.000    3.000    0.000    0.000 
#    0.000    0.000    0.000    0.000    0.000    0.000 
#
# Total GULP energy -396576.352265 kJ/mol
# GULP energy per Si atom -12393.011008 kJ/mol
# Density = 1.800061 g / cm^3
# Si number density = 18.041672 Si / 1000 Ang^3
#
#
#
# Elastic Constant Matrix: (Units=GPa)
#
#
# Indices 1 2 3 4 5 6 
#
# 1 161.5095 61.1734 25.0489 0.0000 0.0000 0.0000
# 2 61.1734 131.5275 60.1748 0.0000 0.0000 0.0000
# 3 25.0489 60.1748 100.6206 0.0000 0.0000 0.0000
# 4 0.0000 0.0000 0.0000 22.4732 0.0000 0.0000
# 5 0.0000 0.0000 0.0000 0.0000 24.7765 0.0000
# 6 0.0000 0.0000 0.0000 0.0000 0.0000 30.7380
#
#
#
# Elastic Compliance Matrix: (Units=1/GPa)
#
#
# Indices 1 2 3 4 5 6 
#
# 1 0.007522 -0.003637 0.000302 0.000000 0.000000 0.000000
# 2 -0.003637 0.012225 -0.006406 0.000000 0.000000 0.000000
# 3 0.000302 -0.006406 0.013694 0.000000 0.000000 0.000000
# 4 0.000000 0.000000 0.000000 0.044498 0.000000 0.000000
# 5 0.000000 0.000000 0.000000 0.000000 0.040361 0.000000
# 6 0.000000 0.000000 0.000000 0.000000 0.000000 0.032533
#
#
# Mechanical properties :
#
#
# Convention : Reuss Voigt Hill
#
# Bulk Modulus (GPa) = 71.62909 76.27242 73.95075
# Shear Modulus (GPa) = 28.57686 32.08155 30.32920
#
# Velocity S-wave (km/s) = 3.98419 4.22144 4.10453
# Velocity P-wave (km/s) = 7.80725 8.13192 7.97124
#
# Compressibility (1/GPa) = 0.01396081
#
# Stress axis : x y z
#
# Youngs Moduli (GPa) = 132.93962 81.79844 73.02530
#
# Poissons Ratio (x) = 0.29750 -0.02208
# Poissons Ratio (y) = 0.48349 0.46778
# Poissons Ratio (z) = -0.04020 0.52398
#
# Static dielectric constant tensor:
#      x y z
#    x 3.625980 0.000000 0.000000 
#    y 0.000000 3.118940 0.000000 
#    z 0.000000 0.000000 3.512000 
# 
# 
# High freq. dielectric constant tensor:
#      x y z
#    x 1.723680 0.000000 0.000000 
#    y 0.000000 1.665700 0.000000 
#    z 0.000000 0.000000 1.699340 
# 
# From -- ./inp_files/39921.got.cif
#   From: 2010.03.12/outbox.cif.g09.slc.cpg/sg63_20_cif.got.tgz:39921.got - 2010.04.10 19:34:48.
