data_PCOD8257204
_publ_section_title
;
Structure prediction by ZEFSAII (Michael W. Deem and Ramdas Pophale) SiO2 
 PCOD8257204
Probable space group: C M C M
;
_chemical_formula_sum "Si O2"
_cell_formula_units_Z 96
_cell_length_a 8.770850
_cell_length_b 23.611945
_cell_length_c 26.001893
_cell_angle_alpha 90.000000
_cell_angle_beta 90.000000
_cell_angle_gamma 90.000000
_cell_volume 5384.909557
_symmetry_space_group_name_H-M "C M C M"
_symmetry_group_IT_number 63
_symmetry_cell_setting 'orthorhombic'
loop_
_space_group_symop_operation_xyz
x,y,z
-x,-y,1/2+z
x,-y,-z
-x,y,1/2-z
-x,-y,-z
x,y,1/2-z
-x,y,z
x,-y,1/2+z
1/2+x,1/2+y,z
1/2-x,1/2-y,1/2+z
1/2+x,1/2-y,-z
1/2-x,1/2+y,1/2-z
1/2-x,1/2-y,-z
1/2+x,1/2+y,1/2-z
1/2-x,1/2+y,z
1/2+x,1/2-y,1/2+z
loop_
_atom_site_type_symbol
_atom_site_label
_atom_site_fract_x
_atom_site_fract_y
_atom_site_fract_z
Si Si1 0.325642 0.676590 0.033227
Si Si2 0.820434 0.352527 0.429510
Si Si3 0.679972 0.020722 0.945066
Si Si4 0.678917 0.332118 0.690801
Si Si5 0.179950 0.246658 0.619296
Si Si6 0.827480 0.922601 0.890320
O O1 0.500000 0.691707 0.019102
O O2 0.261443 0.722503 0.072162
O O3 0.315539 0.614846 0.058499
O O4 0.221617 0.677859 0.982962
O O5 0.758491 0.416915 0.430740
O O6 0.735718 0.318792 0.383243
O O7 0.000000 0.349932 0.420435
O O8 0.500000 0.022405 0.949121
O O9 0.727857 0.978638 0.899134
O O10 0.748496 0.000000 0.000000
O O11 0.717035 0.343276 0.750000
O O12 0.500000 0.322537 0.680510
O O13 0.766672 0.275686 0.672475
O O14 0.735494 0.386855 0.658484
O O15 0.000000 0.250891 0.614358
O O16 0.000000 0.941728 0.879604
#
# Coordination Sequence:
#
# PCOD8257204 Si02
#       6
#    16  16  16  16  16  16
#     4  10  19  32  49  72 103 139 176 211 256 307
#     4  11  21  33  49  70 103 143 180 214 256 305
#     4  10  20  33  49  72 104 143 181 215 253 299
#     4   9  19  38  61  82 104 131 166 212 268 321
#     4  11  22  34  50  75 105 134 172 216 259 309
#     4   9  18  31  51  78 104 134 172 213 256 305
#
# _framework density 17.827597000000001
#
# number of rings (size 3 to 8) (size 9 to 14) (size 15 to 20)
#    0.000    2.000    1.667    4.000    0.000    4.667 
#    0.000    0.000    0.000    1.000    0.000    4.667 
#    0.000    0.000    0.000    0.000    0.000    0.000 
#
# Total GULP energy -595204.316509 kJ/mol
# GULP energy per Si atom -12400.089927 kJ/mol
# Density = 1.778702 g / cm^3
# Si number density = 17.827597 Si / 1000 Ang^3
#
#
#
# Elastic Constant Matrix: (Units=GPa)
#
#
# Indices 1 2 3 4 5 6 
#
# 1 42.3223 29.9654 13.4447 0.0000 0.0000 0.0000
# 2 29.9654 108.4346 38.3993 0.0000 0.0000 0.0000
# 3 13.4447 38.3993 79.5281 0.0000 0.0000 0.0000
# 4 0.0000 0.0000 0.0000 16.0279 0.0000 0.0000
# 5 0.0000 0.0000 0.0000 0.0000 22.8668 0.0000
# 6 0.0000 0.0000 0.0000 0.0000 0.0000 27.3662
#
#
#
# Elastic Compliance Matrix: (Units=1/GPa)
#
#
# Indices 1 2 3 4 5 6 
#
# 1 0.029481 -0.007698 -0.001267 0.000000 0.000000 0.000000
# 2 -0.007698 0.013135 -0.005040 0.000000 0.000000 0.000000
# 3 -0.001267 -0.005040 0.015222 0.000000 0.000000 0.000000
# 4 0.000000 0.000000 0.000000 0.062391 0.000000 0.000000
# 5 0.000000 0.000000 0.000000 0.000000 0.043731 0.000000
# 6 0.000000 0.000000 0.000000 0.000000 0.000000 0.036541
#
#
# Mechanical properties :
#
#
# Convention : Reuss Voigt Hill
#
# Bulk Modulus (GPa) = 33.52723 43.76711 38.64717
# Shear Modulus (GPa) = 20.96826 23.15055 22.05941
#
# Velocity S-wave (km/s) = 3.43325 3.60749 3.52145
# Velocity P-wave (km/s) = 5.87907 6.47730 6.18543
#
# Compressibility (1/GPa) = 0.02982650
#
# Stress axis : x y z
#
# Youngs Moduli (GPa) = 33.91969 76.13535 65.69417
#
# Poissons Ratio (x) = 0.58612 0.08323
# Poissons Ratio (y) = 0.26113 0.33112
# Poissons Ratio (z) = 0.04297 0.38375
#
# Static dielectric constant tensor:
#      x y z
#    x 3.222460 0.000000 0.000000 
#    y 0.000000 3.558990 0.000000 
#    z 0.000000 0.000000 3.113710 
# 
# 
# High freq. dielectric constant tensor:
#      x y z
#    x 1.689130 0.000000 0.000000 
#    y 0.000000 1.694140 0.000000 
#    z 0.000000 0.000000 1.653410 
# 
# From -- ./inp_files/67223.got.cif
#   From: 2010.03.12/outbox.cif.g09.slc.cpg/sg63_34_cif.got.tgz:67223.got - 2010.04.10 19:34:48.
