data_PCOD8257967
_publ_section_title
;
Structure prediction by ZEFSAII (Michael W. Deem and Ramdas Pophale) SiO2 
 PCOD8257967
Probable space group: C M C M
;
_chemical_formula_sum "Si O2"
_cell_formula_units_Z 56
_cell_length_a 7.735492
_cell_length_b 35.999459
_cell_length_c 10.371555
_cell_angle_alpha 90.000000
_cell_angle_beta 90.000000
_cell_angle_gamma 90.000000
_cell_volume 2888.203502
_symmetry_space_group_name_H-M "C M C M"
_symmetry_group_IT_number 63
_symmetry_cell_setting 'orthorhombic'
loop_
_space_group_symop_operation_xyz
x,y,z
-x,-y,1/2+z
x,-y,-z
-x,y,1/2-z
-x,-y,-z
x,y,1/2-z
-x,y,z
x,-y,1/2+z
1/2+x,1/2+y,z
1/2-x,1/2-y,1/2+z
1/2+x,1/2-y,-z
1/2-x,1/2+y,1/2-z
1/2-x,1/2-y,-z
1/2+x,1/2+y,1/2-z
1/2-x,1/2+y,z
1/2+x,1/2-y,1/2+z
loop_
_atom_site_type_symbol
_atom_site_label
_atom_site_fract_x
_atom_site_fract_y
_atom_site_fract_z
Si Si1 0.705780 0.666121 0.993382
Si Si2 0.000000 0.033670 0.598928
Si Si3 0.295294 0.712530 0.750000
Si Si4 0.694693 0.911034 0.103126
Si Si5 0.198556 0.203003 0.250000
O O1 0.500000 0.664315 0.990623
O O2 0.773839 0.690776 0.874779
O O3 0.779911 0.624646 0.986831
O O4 0.782490 0.685024 0.122319
O O5 0.171268 0.056989 0.565194
O O6 0.000000 0.021094 0.750000
O O7 0.000000 0.000000 0.500000
O O8 0.500000 0.716151 0.750000
O O9 0.215032 0.753069 0.750000
O O10 0.730396 0.898446 0.250000
O O11 0.500000 0.926576 0.085569
O O12 0.000000 0.191737 0.250000
#
# Coordination Sequence:
#
# PCOD8257967 Si02
#       5
#    16   8   8  16   8
#     4  10  19  35  55  78 111 153 197 244 290 345
#     4  10  22  42  66  92 124 154 188 236 292 348
#     4  10  20  32  54  74 106 155 202 243 291 347
#     4  10  20  36  63  91 114 153 200 235 278 344
#     4  10  22  34  48  78 116 153 190 245 307 345
#
# _framework density 19.389215
#
# number of rings (size 3 to 8) (size 9 to 14) (size 15 to 20)
#    0.000    2.000    2.857    0.857    0.000    2.857 
#    2.571    0.000    0.000    0.000    0.000    0.000 
#    0.000    0.000    0.000    0.000    0.000    0.000 
#
# Total GULP energy -347228.478149 kJ/mol
# GULP energy per Si atom -12401.017077 kJ/mol
# Density = 1.934508 g / cm^3
# Si number density = 19.389215 Si / 1000 Ang^3
#
#
#
# Elastic Constant Matrix: (Units=GPa)
#
#
# Indices 1 2 3 4 5 6 
#
# 1 80.2772 49.0965 37.6330 0.0000 0.0000 0.0000
# 2 49.0965 150.2742 82.1741 0.0000 0.0000 0.0000
# 3 37.6330 82.1741 148.7548 0.0000 0.0000 0.0000
# 4 0.0000 0.0000 0.0000 36.5732 0.0000 0.0000
# 5 0.0000 0.0000 0.0000 0.0000 9.7409 0.0000
# 6 0.0000 0.0000 0.0000 0.0000 0.0000 25.9703
#
#
#
# Elastic Compliance Matrix: (Units=1/GPa)
#
#
# Indices 1 2 3 4 5 6 
#
# 1 0.015844 -0.004276 -0.001646 0.000000 0.000000 0.000000
# 2 -0.004276 0.010689 -0.004823 0.000000 0.000000 0.000000
# 3 -0.001646 -0.004823 0.009803 0.000000 0.000000 0.000000
# 4 0.000000 0.000000 0.000000 0.027342 0.000000 0.000000
# 5 0.000000 0.000000 0.000000 0.000000 0.102660 0.000000
# 6 0.000000 0.000000 0.000000 0.000000 0.000000 0.038505
#
#
# Mechanical properties :
#
#
# Convention : Reuss Voigt Hill
#
# Bulk Modulus (GPa) = 67.36038 79.67926 73.51982
# Shear Modulus (GPa) = 21.61857 28.48373 25.05115
#
# Velocity S-wave (km/s) = 3.34275 3.83698 3.59836
# Velocity P-wave (km/s) = 7.05090 7.79831 7.43401
#
# Compressibility (1/GPa) = 0.01484552
#
# Stress axis : x y z
#
# Youngs Moduli (GPa) = 63.11621 93.55524 102.00881
#
# Poissons Ratio (x) = 0.40007 0.16791
# Poissons Ratio (y) = 0.26990 0.49197
# Poissons Ratio (z) = 0.10389 0.45120
#
# Static dielectric constant tensor:
#      x y z
#    x 2.276050 0.000000 0.000000 
#    y 0.000000 3.300860 0.000000 
#    z 0.000000 0.000000 3.755950 
# 
# 
# High freq. dielectric constant tensor:
#      x y z
#    x 1.754820 0.000000 0.000000 
#    y 0.000000 1.742810 0.000000 
#    z 0.000000 0.000000 1.749990 
# 
# From -- ./inp_files/15977.got.cif
#   From: 2010.03.12/outbox.cif.g09.slc.cpg/sg63_8_cif.got.tgz:15977.got - 2010.04.10 19:34:48.
