data_PCOD8257424
_publ_section_title
;
Structure prediction by ZEFSAII (Michael W. Deem and Ramdas Pophale) SiO2 
 PCOD8257424
Probable space group: C M C M
;
_chemical_formula_sum "Si O2"
_cell_formula_units_Z 96
_cell_length_a 13.752128
_cell_length_b 23.341885
_cell_length_c 14.524229
_cell_angle_alpha 90.000000
_cell_angle_beta 90.000000
_cell_angle_gamma 90.000000
_cell_volume 4662.286082
_symmetry_space_group_name_H-M "C M C M"
_symmetry_group_IT_number 63
_symmetry_cell_setting 'orthorhombic'
loop_
_space_group_symop_operation_xyz
x,y,z
-x,-y,1/2+z
x,-y,-z
-x,y,1/2-z
-x,-y,-z
x,y,1/2-z
-x,y,z
x,-y,1/2+z
1/2+x,1/2+y,z
1/2-x,1/2-y,1/2+z
1/2+x,1/2-y,-z
1/2-x,1/2+y,1/2-z
1/2-x,1/2-y,-z
1/2+x,1/2+y,1/2-z
1/2-x,1/2+y,z
1/2+x,1/2-y,1/2+z
loop_
_atom_site_type_symbol
_atom_site_label
_atom_site_fract_x
_atom_site_fract_y
_atom_site_fract_z
Si Si1 0.291603 0.652521 0.956403
Si Si2 0.217848 0.636555 0.355509
Si Si3 0.388305 0.896728 0.140192
Si Si4 0.890761 0.250466 0.853831
Si Si5 0.608707 0.536278 0.907519
Si Si6 0.303205 0.011463 0.350698
O O1 0.181969 0.645324 0.916576
O O2 0.323944 0.714382 0.921495
O O3 0.363672 0.602709 0.922278
O O4 0.296707 0.655773 0.068151
O O5 0.260475 0.632063 0.250000
O O6 0.130777 0.681797 0.358591
O O7 0.182717 0.574379 0.394808
O O8 0.365624 0.892857 0.250000
O O9 0.500000 0.880713 0.119629
O O10 0.364998 0.961053 0.100942
O O11 0.874138 0.228160 0.750000
O O12 0.000000 0.241398 0.886260
O O13 0.500000 0.534153 0.863797
O O14 0.689177 0.506429 0.843542
O O15 0.610974 0.500000 0.000000
O O16 0.347159 0.017826 0.250000
#
# Coordination Sequence:
#
# PCOD8257424 Si02
#       6
#    16  16  16  16  16  16
#     4  11  20  36  60  82 112 150 188 230 283 335
#     4  10  21  37  56  79 111 149 187 230 277 331
#     4   9  19  34  55  85 115 145 185 231 279 332
#     4  10  22  39  59  84 110 141 187 238 285 335
#     4  10  19  32  53  81 112 145 182 225 274 330
#     4   9  18  34  54  78 113 150 184 227 280 333
#
# _framework density 20.590755999999999
#
# number of rings (size 3 to 8) (size 9 to 14) (size 15 to 20)
#    0.000    2.167    1.667    1.500    0.000    2.333 
#    0.000    4.167    0.000    3.000    0.000    4.667 
#    0.000    0.000    0.000    0.000    0.000    0.000 
#
# Total GULP energy -594697.375433 kJ/mol
# GULP energy per Si atom -12389.528655 kJ/mol
# Density = 2.054389 g / cm^3
# Si number density = 20.590756 Si / 1000 Ang^3
#
#
#
# Elastic Constant Matrix: (Units=GPa)
#
#
# Indices 1 2 3 4 5 6 
#
# 1 105.0034 43.1715 26.9092 0.0000 0.0000 0.0000
# 2 43.1715 94.5766 34.3181 0.0000 0.0000 0.0000
# 3 26.9092 34.3181 81.9971 0.0000 0.0000 0.0000
# 4 0.0000 0.0000 0.0000 26.4406 0.0000 0.0000
# 5 0.0000 0.0000 0.0000 0.0000 5.2789 0.0000
# 6 0.0000 0.0000 0.0000 0.0000 0.0000 22.3048
#
#
#
# Elastic Compliance Matrix: (Units=1/GPa)
#
#
# Indices 1 2 3 4 5 6 
#
# 1 0.011979 -0.004765 -0.001937 0.000000 0.000000 0.000000
# 2 -0.004765 0.014362 -0.004447 0.000000 0.000000 0.000000
# 3 -0.001937 -0.004447 0.014692 0.000000 0.000000 0.000000
# 4 0.000000 0.000000 0.000000 0.037821 0.000000 0.000000
# 5 0.000000 0.000000 0.000000 0.000000 0.189435 0.000000
# 6 0.000000 0.000000 0.000000 0.000000 0.000000 0.044833
#
#
# Mechanical properties :
#
#
# Convention : Reuss Voigt Hill
#
# Bulk Modulus (GPa) = 53.37532 54.48610 53.93071
# Shear Modulus (GPa) = 14.63416 22.61674 18.62545
#
# Velocity S-wave (km/s) = 2.66882 3.31780 3.01084
# Velocity P-wave (km/s) = 5.95609 6.41840 6.19156
#
# Compressibility (1/GPa) = 0.01873525
#
# Stress axis : x y z
#
# Youngs Moduli (GPa) = 83.47894 69.62627 68.06219
#
# Poissons Ratio (x) = 0.33179 0.13182
# Poissons Ratio (y) = 0.39780 0.30269
# Poissons Ratio (z) = 0.16168 0.30964
#
# Static dielectric constant tensor:
#      x y z
#    x 3.618060 0.000000 0.000000 
#    y 0.000000 3.813930 0.000000 
#    z 0.000000 0.000000 3.734440 
# 
# 
# High freq. dielectric constant tensor:
#      x y z
#    x 1.778780 0.000000 0.000000 
#    y 0.000000 1.810770 0.000000 
#    z 0.000000 0.000000 1.803010 
# 
# From -- ./inp_files/31861.got.cif
#   From: 2010.03.12/outbox.cif.g09.slc.cpg/sg63_16_cif.got.tgz:31861.got - 2010.04.10 19:34:48.
