data_PCOD8257693
_publ_section_title
;
Structure prediction by ZEFSAII (Michael W. Deem and Ramdas Pophale) SiO2 
 PCOD8257693
Probable space group: C M C M
;
_chemical_formula_sum "Si O2"
_cell_formula_units_Z 96
_cell_length_a 19.621010
_cell_length_b 28.630109
_cell_length_c 8.817014
_cell_angle_alpha 90.000000
_cell_angle_beta 90.000000
_cell_angle_gamma 90.000000
_cell_volume 4952.972207
_symmetry_space_group_name_H-M "C M C M"
_symmetry_group_IT_number 63
_symmetry_cell_setting 'orthorhombic'
loop_
_space_group_symop_operation_xyz
x,y,z
-x,-y,1/2+z
x,-y,-z
-x,y,1/2-z
-x,-y,-z
x,y,1/2-z
-x,y,z
x,-y,1/2+z
1/2+x,1/2+y,z
1/2-x,1/2-y,1/2+z
1/2+x,1/2-y,-z
1/2-x,1/2+y,1/2-z
1/2-x,1/2-y,-z
1/2+x,1/2+y,1/2-z
1/2-x,1/2+y,z
1/2+x,1/2-y,1/2+z
loop_
_atom_site_type_symbol
_atom_site_label
_atom_site_fract_x
_atom_site_fract_y
_atom_site_fract_z
Si Si1 0.148870 0.225616 0.417396
Si Si2 0.577324 0.632931 0.069542
Si Si3 0.301383 0.903445 0.427457
Si Si4 0.199566 0.691774 0.083277
Si Si5 0.077672 0.549582 0.075548
Si Si6 0.326173 0.549441 0.069571
O O1 0.117993 0.236078 0.250000
O O2 0.109584 0.181427 0.492377
O O3 0.142421 0.271659 0.522445
O O4 0.228303 0.216174 0.398474
O O5 0.580907 0.633817 0.250000
O O6 0.500000 0.628043 0.010244
O O7 0.620690 0.588705 0.010324
O O8 0.293665 0.912296 0.250000
O O9 0.288528 0.849699 0.465238
O O10 0.377380 0.913547 0.484539
O O11 0.249042 0.937261 0.513779
O O12 0.175733 0.673722 0.250000
O O13 0.100455 0.546606 0.250000
O O14 0.000000 0.566319 0.060097
O O15 0.089327 0.500000 0.000000
O O16 0.326104 0.545839 0.250000
O O17 0.348867 0.500000 0.000000
#
# Coordination Sequence:
#
# PCOD8257693 Si02
#       6
#    16  16  16  16  16  16
#     4   9  17  33  55  82 109 142 184 228 279 338
#     4   9  18  35  59  83 112 151 193 239 293 348
#     4  12  23  36  57  85 115 151 191 235 283 335
#     4  10  19  33  55  83 112 144 181 229 281 333
#     4  10  21  38  59  82 111 147 185 227 278 337
#     4  11  22  38  57  83 115 150 194 244 294 343
#
# _framework density 19.382301999999999
#
# number of rings (size 3 to 8) (size 9 to 14) (size 15 to 20)
#    0.000    1.833    1.667    3.500    0.000    2.000 
#    0.000    0.833    0.000    7.000    0.000    0.000 
#    0.000    0.000    0.000    0.000    0.000    0.000 
#
# Total GULP energy -595177.144167 kJ/mol
# GULP energy per Si atom -12399.523837 kJ/mol
# Density = 1.933819 g / cm^3
# Si number density = 19.382302 Si / 1000 Ang^3
#
#
#
# Elastic Constant Matrix: (Units=GPa)
#
#
# Indices 1 2 3 4 5 6 
#
# 1 75.9123 31.3290 29.9023 0.0000 0.0000 0.0000
# 2 31.3290 86.7393 31.2483 0.0000 0.0000 0.0000
# 3 29.9023 31.2483 93.2310 0.0000 0.0000 0.0000
# 4 0.0000 0.0000 0.0000 34.4640 0.0000 0.0000
# 5 0.0000 0.0000 0.0000 0.0000 16.7947 0.0000
# 6 0.0000 0.0000 0.0000 0.0000 0.0000 22.7703
#
#
#
# Elastic Compliance Matrix: (Units=1/GPa)
#
#
# Indices 1 2 3 4 5 6 
#
# 1 0.016565 -0.004628 -0.003762 0.000000 0.000000 0.000000
# 2 -0.004628 0.014405 -0.003344 0.000000 0.000000 0.000000
# 3 -0.003762 -0.003344 0.013053 0.000000 0.000000 0.000000
# 4 0.000000 0.000000 0.000000 0.029016 0.000000 0.000000
# 5 0.000000 0.000000 0.000000 0.000000 0.059543 0.000000
# 6 0.000000 0.000000 0.000000 0.000000 0.000000 0.043917
#
#
# Mechanical properties :
#
#
# Convention : Reuss Voigt Hill
#
# Bulk Modulus (GPa) = 48.64698 48.98244 48.81471
# Shear Modulus (GPa) = 24.17595 25.69933 24.93764
#
# Velocity S-wave (km/s) = 3.53557 3.64526 3.59084
# Velocity P-wave (km/s) = 6.46685 6.56078 6.51399
#
# Compressibility (1/GPa) = 0.02055626
#
# Stress axis : x y z
#
# Youngs Moduli (GPa) = 60.36915 69.42078 76.60882
#
# Poissons Ratio (x) = 0.32126 0.28819
# Poissons Ratio (y) = 0.27937 0.25617
# Poissons Ratio (z) = 0.22710 0.23213
#
# Static dielectric constant tensor:
#      x y z
#    x 3.459040 0.000000 0.000000 
#    y 0.000000 3.574370 0.000000 
#    z 0.000000 0.000000 3.652910 
# 
# 
# High freq. dielectric constant tensor:
#      x y z
#    x 1.735260 0.000000 0.000000 
#    y 0.000000 1.758560 0.000000 
#    z 0.000000 0.000000 1.747630 
# 
# From -- ./inp_files/8559.got.cif
#   From: 2010.03.12/outbox.cif.g09.slc.cpg/sg63_5_cif.got.tgz:8559.got - 2010.04.10 19:34:48.
