data_PCOD8257368
_publ_section_title
;
Structure prediction by ZEFSAII (Michael W. Deem and Ramdas Pophale) SiO2 
 PCOD8257368
Probable space group: C M C M
;
_chemical_formula_sum "Si O2"
_cell_formula_units_Z 96
_cell_length_a 9.238640
_cell_length_b 20.568750
_cell_length_c 27.864432
_cell_angle_alpha 90.000000
_cell_angle_beta 90.000000
_cell_angle_gamma 90.000000
_cell_volume 5295.002124
_symmetry_space_group_name_H-M "C M C M"
_symmetry_group_IT_number 63
_symmetry_cell_setting 'orthorhombic'
loop_
_space_group_symop_operation_xyz
x,y,z
-x,-y,1/2+z
x,-y,-z
-x,y,1/2-z
-x,-y,-z
x,y,1/2-z
-x,y,z
x,-y,1/2+z
1/2+x,1/2+y,z
1/2-x,1/2-y,1/2+z
1/2+x,1/2-y,-z
1/2-x,1/2+y,1/2-z
1/2-x,1/2-y,-z
1/2+x,1/2+y,1/2-z
1/2-x,1/2+y,z
1/2+x,1/2-y,1/2+z
loop_
_atom_site_type_symbol
_atom_site_label
_atom_site_fract_x
_atom_site_fract_y
_atom_site_fract_z
Si Si1 0.335163 0.250146 0.194970
Si Si2 0.832713 0.679907 0.549019
Si Si3 0.668715 0.330869 0.954614
Si Si4 0.329770 0.867773 0.347617
Si Si5 0.172036 0.502650 0.304095
Si Si6 0.671613 0.874487 0.635344
O O1 0.319946 0.229030 0.250000
O O2 0.500000 0.267077 0.181763
O O3 0.240255 0.313113 0.185346
O O4 0.279852 0.189830 0.163635
O O5 0.734064 0.651992 0.506539
O O6 0.800905 0.755770 0.557963
O O7 0.787812 0.641148 0.596738
O O8 0.000000 0.669062 0.535304
O O9 0.500000 0.347656 0.954810
O O10 0.748826 0.375602 0.915756
O O11 0.500000 0.861152 0.340445
O O12 0.271717 0.937400 0.329978
O O13 0.234723 0.506085 0.250000
O O14 0.228045 0.563937 0.334447
O O15 0.000000 0.503366 0.302251
O O16 0.500000 0.877162 0.627145
#
# Coordination Sequence:
#
# PCOD8257368 Si02
#       6
#    16  16  16  16  16  16
#     4  10  20  32  49  75 105 135 170 213 258 307
#     4   9  18  32  51  77 106 134 169 213 263 315
#     4  10  19  32  52  78 106 135 171 215 262 311
#     4  10  19  34  55  79 104 133 173 220 263 304
#     4   9  18  33  54  78 104 138 177 214 255 305
#     4  10  19  33  53  76 104 138 175 212 254 305
#
# _framework density 18.130303999999999
#
# number of rings (size 3 to 8) (size 9 to 14) (size 15 to 20)
#    0.000    2.333    1.667    1.500    0.000    4.333 
#    0.000    1.667    0.000    7.500    0.000    0.000 
#    0.000    0.000    0.000    0.000    0.000    0.000 
#
# Total GULP energy -595329.831948 kJ/mol
# GULP energy per Si atom -12402.704832 kJ/mol
# Density = 1.808904 g / cm^3
# Si number density = 18.130304 Si / 1000 Ang^3
#
#
#
# Elastic Constant Matrix: (Units=GPa)
#
#
# Indices 1 2 3 4 5 6 
#
# 1 41.6025 24.5310 37.9383 0.0000 0.0000 0.0000
# 2 24.5310 99.2125 50.8420 0.0000 0.0000 0.0000
# 3 37.9383 50.8420 125.1445 0.0000 0.0000 0.0000
# 4 0.0000 0.0000 0.0000 35.2273 0.0000 0.0000
# 5 0.0000 0.0000 0.0000 0.0000 27.3690 0.0000
# 6 0.0000 0.0000 0.0000 0.0000 0.0000 19.6780
#
#
#
# Elastic Compliance Matrix: (Units=1/GPa)
#
#
# Indices 1 2 3 4 5 6 
#
# 1 0.034432 -0.003996 -0.008815 0.000000 0.000000 0.000000
# 2 -0.003996 0.013193 -0.004149 0.000000 0.000000 0.000000
# 3 -0.008815 -0.004149 0.012348 0.000000 0.000000 0.000000
# 4 0.000000 0.000000 0.000000 0.028387 0.000000 0.000000
# 5 0.000000 0.000000 0.000000 0.000000 0.036538 0.000000
# 6 0.000000 0.000000 0.000000 0.000000 0.000000 0.050818
#
#
# Mechanical properties :
#
#
# Convention : Reuss Voigt Hill
#
# Bulk Modulus (GPa) = 38.38108 54.73135 46.55622
# Shear Modulus (GPa) = 22.90213 26.63141 24.76677
#
# Velocity S-wave (km/s) = 3.55800 3.83677 3.70001
# Velocity P-wave (km/s) = 6.17209 7.06265 6.63233
#
# Compressibility (1/GPa) = 0.02605450
#
# Stress axis : x y z
#
# Youngs Moduli (GPa) = 29.04298 75.79522 80.98243
#
# Poissons Ratio (x) = 0.30291 0.71383
# Poissons Ratio (y) = 0.11607 0.33596
# Poissons Ratio (z) = 0.25600 0.31444
#
# Static dielectric constant tensor:
#      x y z
#    x 3.117020 0.000000 0.000000 
#    y 0.000000 3.312050 0.000000 
#    z 0.000000 0.000000 3.450100 
# 
# 
# High freq. dielectric constant tensor:
#      x y z
#    x 1.679600 0.000000 0.000000 
#    y 0.000000 1.687260 0.000000 
#    z 0.000000 0.000000 1.717330 
# 
# From -- ./inp_files/66864.got.cif
#   From: 2010.03.12/outbox.cif.g09.slc.cpg/sg63_34_cif.got.tgz:66864.got - 2010.04.10 19:34:48.
