data_PCOD8257155
_publ_section_title
;
Structure prediction by ZEFSAII (Michael W. Deem and Ramdas Pophale) SiO2 
 PCOD8257155
Probable space group: C M C M
;
_chemical_formula_sum "Si O2"
_cell_formula_units_Z 104
_cell_length_a 21.455269
_cell_length_b 28.061113
_cell_length_c 9.441486
_cell_angle_alpha 90.000000
_cell_angle_beta 90.000000
_cell_angle_gamma 90.000000
_cell_volume 5684.329050
_symmetry_space_group_name_H-M "C M C M"
_symmetry_group_IT_number 63
_symmetry_cell_setting 'orthorhombic'
loop_
_space_group_symop_operation_xyz
x,y,z
-x,-y,1/2+z
x,-y,-z
-x,y,1/2-z
-x,-y,-z
x,y,1/2-z
-x,y,z
x,-y,1/2+z
1/2+x,1/2+y,z
1/2-x,1/2-y,1/2+z
1/2+x,1/2-y,-z
1/2-x,1/2+y,1/2-z
1/2-x,1/2-y,-z
1/2+x,1/2+y,1/2-z
1/2-x,1/2+y,z
1/2+x,1/2-y,1/2+z
loop_
_atom_site_type_symbol
_atom_site_label
_atom_site_fract_x
_atom_site_fract_y
_atom_site_fract_z
Si Si1 0.375210 0.606771 0.916338
Si Si2 0.694938 0.796482 0.090607
Si Si3 0.500000 0.549976 0.583488
Si Si4 0.183530 0.190090 0.084155
Si Si5 0.427424 0.958552 0.904665
Si Si6 0.755814 0.952939 0.412700
Si Si7 0.635859 0.108654 0.907487
O O1 0.372728 0.619367 0.750000
O O2 0.440133 0.581776 0.958344
O O3 0.320968 0.570240 0.960256
O O4 0.365413 0.655738 0.004189
O O5 0.723997 0.797305 0.250000
O O6 0.663708 0.745241 0.059470
O O7 0.639332 0.834492 0.079323
O O8 0.747196 0.812969 0.979829
O O9 0.500000 0.500000 0.500000
O O10 0.500000 0.537782 0.750000
O O11 0.185206 0.176444 0.250000
O O12 0.395707 0.959645 0.750000
O O13 0.500000 0.967483 0.888749
O O14 0.415370 0.908333 0.980133
O O15 0.396213 0.000000 0.000000
O O16 0.758647 0.967986 0.250000
O O17 0.702743 0.914148 0.443206
O O18 0.741964 0.000000 0.500000
O O19 0.614175 0.093490 0.750000
#
# Coordination Sequence:
#
# PCOD8257155 Si02
#       7
#    16  16   8  16  16  16  16
#     4  10  20  37  55  75 107 145 181 221 273 326
#     4   9  18  34  53  78 112 140 169 211 264 319
#     4  10  22  38  60  82 106 148 192 232 283 334
#     4  10  19  31  54  83 106 137 176 215 261 315
#     4  10  21  36  53  74 102 136 174 213 252 302
#     4  10  20  32  48  72 105 137 166 210 261 309
#     4  10  19  33  53  76 103 138 172 211 262 310
#
# _framework density 18.295915000000001
#
# number of rings (size 3 to 8) (size 9 to 14) (size 15 to 20)
#    0.000    2.154    1.538    1.846    0.000    5.231 
#    0.000    0.000    1.692    0.000    0.000    0.000 
#    0.000    0.000    0.000    0.000    0.000    0.000 
#
# Total GULP energy -644696.445017 kJ/mol
# GULP energy per Si atom -12398.008558 kJ/mol
# Density = 1.825427 g / cm^3
# Si number density = 18.295915 Si / 1000 Ang^3
#
#
#
# Elastic Constant Matrix: (Units=GPa)
#
#
# Indices 1 2 3 4 5 6 
#
# 1 38.2426 26.5938 29.9084 0.0000 0.0000 0.0000
# 2 26.5938 125.7933 68.3598 0.0000 0.0000 0.0000
# 3 29.9084 68.3598 113.3778 0.0000 0.0000 0.0000
# 4 0.0000 0.0000 0.0000 33.7679 0.0000 0.0000
# 5 0.0000 0.0000 0.0000 0.0000 23.1891 0.0000
# 6 0.0000 0.0000 0.0000 0.0000 0.0000 29.0838
#
#
#
# Elastic Compliance Matrix: (Units=1/GPa)
#
#
# Indices 1 2 3 4 5 6 
#
# 1 0.033914 -0.003433 -0.006877 0.000000 0.000000 0.000000
# 2 -0.003433 0.012171 -0.006433 0.000000 0.000000 0.000000
# 3 -0.006877 -0.006433 0.014513 0.000000 0.000000 0.000000
# 4 0.000000 0.000000 0.000000 0.029614 0.000000 0.000000
# 5 0.000000 0.000000 0.000000 0.000000 0.043124 0.000000
# 6 0.000000 0.000000 0.000000 0.000000 0.000000 0.034383
#
#
# Mechanical properties :
#
#
# Convention : Reuss Voigt Hill
#
# Bulk Modulus (GPa) = 36.88224 58.57084 47.72654
# Shear Modulus (GPa) = 23.78225 27.37827 25.58026
#
# Velocity S-wave (km/s) = 3.60928 3.87255 3.74323
# Velocity P-wave (km/s) = 6.12957 7.21651 6.69514
#
# Compressibility (1/GPa) = 0.02711332
#
# Stress axis : x y z
#
# Youngs Moduli (GPa) = 29.48643 82.16200 68.90528
#
# Poissons Ratio (x) = 0.28204 0.47383
# Poissons Ratio (y) = 0.10122 0.44326
# Poissons Ratio (z) = 0.20276 0.52854
#
# Static dielectric constant tensor:
#      x y z
#    x 3.109780 0.000000 0.000000 
#    y 0.000000 3.532490 0.000000 
#    z 0.000000 0.000000 3.562330 
# 
# 
# High freq. dielectric constant tensor:
#      x y z
#    x 1.678720 0.000000 0.000000 
#    y 0.000000 1.715670 0.000000 
#    z 0.000000 0.000000 1.716180 
# 
# From -- ./inp_files/10818.got.cif
#   From: 2010.03.12/outbox.cif.g09.slc.cpg/sg63_6_cif.got.tgz:10818.got - 2010.04.10 19:34:48.
