data_PCOD8257604
_publ_section_title
;
Structure prediction by ZEFSAII (Michael W. Deem and Ramdas Pophale) SiO2 
 PCOD8257604
Probable space group: C M C M
;
_chemical_formula_sum "Si O2"
_cell_formula_units_Z 112
_cell_length_a 29.278715
_cell_length_b 15.040246
_cell_length_c 14.169778
_cell_angle_alpha 90.000000
_cell_angle_beta 90.000000
_cell_angle_gamma 90.000000
_cell_volume 6239.790350
_symmetry_space_group_name_H-M "C M C M"
_symmetry_group_IT_number 63
_symmetry_cell_setting 'orthorhombic'
loop_
_space_group_symop_operation_xyz
x,y,z
-x,-y,1/2+z
x,-y,-z
-x,y,1/2-z
-x,-y,-z
x,y,1/2-z
-x,y,z
x,-y,1/2+z
1/2+x,1/2+y,z
1/2-x,1/2-y,1/2+z
1/2+x,1/2-y,-z
1/2-x,1/2+y,1/2-z
1/2-x,1/2-y,-z
1/2+x,1/2+y,1/2-z
1/2-x,1/2+y,z
1/2+x,1/2-y,1/2+z
loop_
_atom_site_type_symbol
_atom_site_label
_atom_site_fract_x
_atom_site_fract_y
_atom_site_fract_z
Si Si1 0.290263 0.737222 0.138193
Si Si2 0.643393 0.229759 0.477151
Si Si3 0.926191 0.505691 0.855826
Si Si4 0.170993 0.544628 0.401895
Si Si5 0.729663 0.542867 0.146527
Si Si6 0.050567 0.648465 0.495350
Si Si7 0.701576 0.646191 0.637854
O O1 0.300588 0.741118 0.250000
O O2 0.283176 0.636487 0.097695
O O3 0.245240 0.793126 0.113030
O O4 0.333062 0.775710 0.080320
O O5 0.658588 0.147291 0.413592
O O6 0.588443 0.226621 0.490717
O O7 0.657488 0.316997 0.417790
O O8 0.945498 0.506902 0.750000
O O9 0.871088 0.506661 0.854134
O O10 0.943394 0.593486 0.908341
O O11 0.944566 0.418021 0.907307
O O12 0.183085 0.500000 0.500000
O O13 0.215818 0.535291 0.338971
O O14 0.707718 0.545755 0.250000
O O15 0.710341 0.453647 0.096963
O O16 0.000000 0.691686 0.493378
O O17 0.692588 0.646416 0.750000
#
# Coordination Sequence:
#
# PCOD8257604 Si02
#       7
#    16  16  16  16  16  16  16
#     4  10  21  35  50  75 110 143 178 216 255 308
#     4  11  21  35  52  74 103 141 174 217 266 306
#     4  10  19  33  54  76 104 140 176 215 262 314
#     4  11  19  31  48  77 107 144 179 211 247 304
#     4  10  21  33  49  75 110 148 181 213 253 307
#     4  10  22  38  51  74 104 131 178 230 270 316
#     4  10  21  34  52  78 107 139 176 216 255 311
#
# _framework density 17.949321000000001
#
# number of rings (size 3 to 8) (size 9 to 14) (size 15 to 20)
#    0.000    1.714    4.286    2.571    2.000    4.000 
#    0.000    0.000    0.000    0.000    0.000    2.000 
#    0.000    3.429    0.000    0.000    0.000    0.000 
#
# Total GULP energy -694182.734995 kJ/mol
# GULP energy per Si atom -12396.120268 kJ/mol
# Density = 1.790847 g / cm^3
# Si number density = 17.949321 Si / 1000 Ang^3
#
#
#
# Elastic Constant Matrix: (Units=GPa)
#
#
# Indices 1 2 3 4 5 6 
#
# 1 131.7653 39.7942 26.8657 0.0000 0.0000 0.0000
# 2 39.7942 93.9546 21.1218 0.0000 0.0000 0.0000
# 3 26.8657 21.1218 78.3923 0.0000 0.0000 0.0000
# 4 0.0000 0.0000 0.0000 11.9565 0.0000 0.0000
# 5 0.0000 0.0000 0.0000 0.0000 -8.4630 0.0000
# 6 0.0000 0.0000 0.0000 0.0000 0.0000 21.1752
#
#
#
# Elastic Compliance Matrix: (Units=1/GPa)
#
#
# Indices 1 2 3 4 5 6 
#
# 1 0.009046 -0.003336 -0.002201 0.000000 0.000000 0.000000
# 2 -0.003336 0.012560 -0.002241 0.000000 0.000000 0.000000
# 3 -0.002201 -0.002241 0.014114 0.000000 0.000000 0.000000
# 4 0.000000 0.000000 0.000000 0.083636 0.000000 0.000000
# 5 0.000000 0.000000 0.000000 0.000000 -0.118161 0.000000
# 6 0.000000 0.000000 0.000000 0.000000 0.000000 0.047225
#
#
# Mechanical properties :
#
#
# Convention : Reuss Voigt Hill
#
# Bulk Modulus (GPa) = 49.59379 53.29729 51.44554
# Shear Modulus (GPa) = 70.72326 19.35578 45.03952
#
# Velocity S-wave (km/s) = 6.28388 3.28740 5.01469
# Velocity P-wave (km/s) = 8.96323 6.64582 7.89007
#
# Compressibility (1/GPa) = 0.02016382
#
# Stress axis : x y z
#
# Youngs Moduli (GPa) = 110.55023 79.61575 70.84949
#
# Poissons Ratio (x) = 0.26563 0.15594
# Poissons Ratio (y) = 0.36884 0.15876
# Poissons Ratio (z) = 0.24333 0.17840
#
# Static dielectric constant tensor:
#      x y z
#    x 3.243870 0.000000 0.000000 
#    y 0.000000 3.346440 0.000000 
#    z 0.000000 0.000000 3.431030 
# 
# 
# High freq. dielectric constant tensor:
#      x y z
#    x 1.664670 0.000000 0.000000 
#    y 0.000000 1.673580 0.000000 
#    z 0.000000 0.000000 1.703980 
# 
# From -- ./inp_files/37958.got.cif
#   From: 2010.03.12/outbox.cif.g09.slc.cpg/sg63_19_cif.got.tgz:37958.got - 2010.04.10 19:34:48.
