data_PCOD8257108
_publ_section_title
;
Structure prediction by ZEFSAII (Michael W. Deem and Ramdas Pophale) SiO2 
 PCOD8257108
Probable space group: C M C M
;
_chemical_formula_sum "Si O2"
_cell_formula_units_Z 80
_cell_length_a 25.218078
_cell_length_b 19.853738
_cell_length_c 8.924961
_cell_angle_alpha 90.000000
_cell_angle_beta 90.000000
_cell_angle_gamma 90.000000
_cell_volume 4468.488012
_symmetry_space_group_name_H-M "C M C M"
_symmetry_group_IT_number 63
_symmetry_cell_setting 'orthorhombic'
loop_
_space_group_symop_operation_xyz
x,y,z
-x,-y,1/2+z
x,-y,-z
-x,y,1/2-z
-x,-y,-z
x,y,1/2-z
-x,y,z
x,-y,1/2+z
1/2+x,1/2+y,z
1/2-x,1/2-y,1/2+z
1/2+x,1/2-y,-z
1/2-x,1/2+y,1/2-z
1/2-x,1/2-y,-z
1/2+x,1/2+y,1/2-z
1/2-x,1/2+y,z
1/2+x,1/2-y,1/2+z
loop_
_atom_site_type_symbol
_atom_site_label
_atom_site_fract_x
_atom_site_fract_y
_atom_site_fract_z
Si Si1 0.354215 0.427174 0.073216
Si Si2 0.748274 0.572094 0.075341
Si Si3 0.134715 0.572301 0.075579
Si Si4 0.060558 0.182210 0.576169
Si Si5 0.561986 0.180576 0.922981
O O1 0.348331 0.435357 0.250000
O O2 0.404019 0.381209 0.029025
O O3 0.363429 0.500000 0.000000
O O4 0.300893 0.390635 0.007119
O O5 0.735007 0.565646 0.250000
O O6 0.806372 0.604709 0.049385
O O7 0.750666 0.500000 0.000000
O O8 0.123844 0.561771 0.250000
O O9 0.128485 0.500000 0.000000
O O10 0.091920 0.622567 0.010608
O O11 0.067614 0.200178 0.750000
O O12 0.079746 0.246751 0.483210
O O13 0.000000 0.163275 0.537686
O O14 0.577275 0.176084 0.750000
O O15 0.500000 0.169366 0.951414
#
# Coordination Sequence:
#
# PCOD8257108 Si02
#       5
#    16  16  16  16  16
#     4  10  19  31  51  77 103 133 168 206 250 297
#     4   9  17  30  49  73 101 132 165 202 247 295
#     4  10  20  34  54  78 103 133 168 206 248 295
#     4   9  19  36  54  72  99 135 171 207 250 299
#     4  10  21  36  54  76 101 131 167 207 253 301
#
# _framework density 17.903147000000001
#
# number of rings (size 3 to 8) (size 9 to 14) (size 15 to 20)
#    0.000    2.400    0.000    3.600    0.000    6.000 
#    0.000    1.000    0.000    0.000    0.000    0.000 
#    0.000    0.000    0.000    0.000    0.000    0.000 
#
# Total GULP energy -495831.794988 kJ/mol
# GULP energy per Si atom -12395.794875 kJ/mol
# Density = 1.786240 g / cm^3
# Si number density = 17.903147 Si / 1000 Ang^3
#
#
#
# Elastic Constant Matrix: (Units=GPa)
#
#
# Indices 1 2 3 4 5 6 
#
# 1 97.8018 67.3301 62.3146 0.0000 0.0000 0.0000
# 2 67.3301 95.0695 59.8613 0.0000 0.0000 0.0000
# 3 62.3146 59.8613 116.9022 0.0000 0.0000 0.0000
# 4 0.0000 0.0000 0.0000 28.9830 0.0000 0.0000
# 5 0.0000 0.0000 0.0000 0.0000 19.2710 0.0000
# 6 0.0000 0.0000 0.0000 0.0000 0.0000 -4.3241
#
#
#
# Elastic Compliance Matrix: (Units=1/GPa)
#
#
# Indices 1 2 3 4 5 6 
#
# 1 0.022169 -0.012190 -0.005575 0.000000 0.000000 0.000000
# 2 -0.012190 0.022227 -0.004884 0.000000 0.000000 0.000000
# 3 -0.005575 -0.004884 0.014027 0.000000 0.000000 0.000000
# 4 0.000000 0.000000 0.000000 0.034503 0.000000 0.000000
# 5 0.000000 0.000000 0.000000 0.000000 0.051891 0.000000
# 6 0.000000 0.000000 0.000000 0.000000 0.000000 -0.231260
#
#
# Mechanical properties :
#
#
# Convention : Reuss Voigt Hill
#
# Bulk Modulus (GPa) = 76.19084 76.53172 76.36128
# Shear Modulus (GPa) = -135.97868 16.80383 -59.58742
#
# Velocity S-wave (km/s) = -8.72452 3.06698 -5.77542
# Velocity P-wave (km/s) = 7.67073 7.44192 1.31489
#
# Compressibility (1/GPa) = 0.01312494
#
# Stress axis : x y z
#
# Youngs Moduli (GPa) = 45.10795 44.99035 71.29287
#
# Poissons Ratio (x) = 0.54844 0.39746
# Poissons Ratio (y) = 0.54987 0.34817
# Poissons Ratio (z) = 0.25148 0.21972
#
# Static dielectric constant tensor:
#      x y z
#    x 3.975920 0.000000 0.000000 
#    y 0.000000 3.128610 0.000000 
#    z 0.000000 0.000000 3.469070 
# 
# 
# High freq. dielectric constant tensor:
#      x y z
#    x 1.706940 0.000000 0.000000 
#    y 0.000000 1.663000 0.000000 
#    z 0.000000 0.000000 1.709480 
# 
# From -- ./inp_files/12039.got.cif
#   From: 2010.03.12/outbox.cif.g09.slc.cpg/sg63_7_cif.got.tgz:12039.got - 2010.04.10 19:34:48.
