data_PCOD8257304
_publ_section_title
;
Structure prediction by ZEFSAII (Michael W. Deem and Ramdas Pophale) SiO2 
 PCOD8257304
Probable space group: C M C M
;
_chemical_formula_sum "Si O2"
_cell_formula_units_Z 80
_cell_length_a 8.874405
_cell_length_b 25.202891
_cell_length_c 19.940732
_cell_angle_alpha 90.000000
_cell_angle_beta 90.000000
_cell_angle_gamma 90.000000
_cell_volume 4459.957318
_symmetry_space_group_name_H-M "C M C M"
_symmetry_group_IT_number 63
_symmetry_cell_setting 'orthorhombic'
loop_
_space_group_symop_operation_xyz
x,y,z
-x,-y,1/2+z
x,-y,-z
-x,y,1/2-z
-x,-y,-z
x,y,1/2-z
-x,y,z
x,-y,1/2+z
1/2+x,1/2+y,z
1/2-x,1/2-y,1/2+z
1/2+x,1/2-y,-z
1/2-x,1/2+y,1/2-z
1/2-x,1/2-y,-z
1/2+x,1/2+y,1/2-z
1/2-x,1/2+y,z
1/2+x,1/2-y,1/2+z
loop_
_atom_site_type_symbol
_atom_site_label
_atom_site_fract_x
_atom_site_fract_y
_atom_site_fract_z
Si Si1 0.178532 0.620963 0.048049
Si Si2 0.823834 0.096559 0.592820
Si Si3 0.822881 0.772029 0.567265
Si Si4 0.666409 0.007272 0.079152
Si Si5 0.673647 0.816436 0.173347
O O1 0.254905 0.670468 0.085121
O O2 0.221113 0.568014 0.090773
O O3 0.000000 0.628637 0.044289
O O4 0.237040 0.617773 0.972103
O O5 0.780225 0.035592 0.610692
O O6 0.776855 0.133303 0.654898
O O7 0.000000 0.099874 0.579245
O O8 0.750000 0.750000 0.500000
O O9 0.780921 0.734099 0.628878
O O10 0.000000 0.776917 0.556068
O O11 0.500000 0.998375 0.110359
O O12 0.657637 0.000000 0.000000
O O13 0.705020 0.800958 0.250000
O O14 0.500000 0.832116 0.161357
#
# Coordination Sequence:
#
# PCOD8257304 Si02
#       5
#    16  16  16  16  16
#     4  10  19  32  51  76 107 141 176 216 263 316
#     4  11  20  30  50  78 107 136 171 220 270 315
#     4  11  21  33  54  80 107 139 178 225 274 320
#     4   8  16  30  48  71 102 138 171 207 255 310
#     4  10  22  39  56  74 103 145 184 217 264 329
#
# _framework density 17.937391000000002
#
# number of rings (size 3 to 8) (size 9 to 14) (size 15 to 20)
#    0.000    2.000    2.000    4.200    0.000    5.600 
#    0.000    0.000    0.000    1.200    0.000    5.600 
#    0.000    0.000    0.000    0.000    0.000    0.000 
#
# Total GULP energy -495973.371874 kJ/mol
# GULP energy per Si atom -12399.334297 kJ/mol
# Density = 1.789656 g / cm^3
# Si number density = 17.937391 Si / 1000 Ang^3
#
#
#
# Elastic Constant Matrix: (Units=GPa)
#
#
# Indices 1 2 3 4 5 6 
#
# 1 99.0762 67.6092 37.6310 0.0000 0.0000 0.0000
# 2 67.6092 167.3506 51.8426 0.0000 0.0000 0.0000
# 3 37.6310 51.8426 74.9333 0.0000 0.0000 0.0000
# 4 0.0000 0.0000 0.0000 19.1986 0.0000 0.0000
# 5 0.0000 0.0000 0.0000 0.0000 16.2357 0.0000
# 6 0.0000 0.0000 0.0000 0.0000 0.0000 35.3859
#
#
#
# Elastic Compliance Matrix: (Units=1/GPa)
#
#
# Indices 1 2 3 4 5 6 
#
# 1 0.014918 -0.004717 -0.004228 0.000000 0.000000 0.000000
# 2 -0.004717 0.009097 -0.003925 0.000000 0.000000 0.000000
# 3 -0.004228 -0.003925 0.018184 0.000000 0.000000 0.000000
# 4 0.000000 0.000000 0.000000 0.052087 0.000000 0.000000
# 5 0.000000 0.000000 0.000000 0.000000 0.061592 0.000000
# 6 0.000000 0.000000 0.000000 0.000000 0.000000 0.028260
#
#
# Mechanical properties :
#
#
# Convention : Reuss Voigt Hill
#
# Bulk Modulus (GPa) = 60.75801 72.83619 66.79710
# Shear Modulus (GPa) = 23.21634 26.44919 24.83277
#
# Velocity S-wave (km/s) = 3.60154 3.84412 3.72481
# Velocity P-wave (km/s) = 7.15825 7.77155 7.47120
#
# Compressibility (1/GPa) = 0.01645873
#
# Stress axis : x y z
#
# Youngs Moduli (GPa) = 67.03264 109.92610 54.99314
#
# Poissons Ratio (x) = 0.51852 0.23253
# Poissons Ratio (y) = 0.31619 0.21584
# Poissons Ratio (z) = 0.28343 0.43145
#
# Static dielectric constant tensor:
#      x y z
#    x 3.344610 0.000000 0.000000 
#    y 0.000000 3.965680 0.000000 
#    z 0.000000 0.000000 2.894660 
# 
# 
# High freq. dielectric constant tensor:
#      x y z
#    x 1.699340 0.000000 0.000000 
#    y 0.000000 1.715090 0.000000 
#    z 0.000000 0.000000 1.637830 
# 
# From -- ./inp_files/40726.got.cif
#   From: 2010.03.12/outbox.cif.g09.slc.cpg/sg63_21_cif.got.tgz:40726.got - 2010.04.10 19:34:48.
