data_PCOD8257415
_publ_section_title
;
Structure prediction by ZEFSAII (Michael W. Deem and Ramdas Pophale) SiO2 
 PCOD8257415
Probable space group: C M C M
;
_chemical_formula_sum "Si O2"
_cell_formula_units_Z 88
_cell_length_a 18.913161
_cell_length_b 27.503677
_cell_length_c 9.035551
_cell_angle_alpha 90.000000
_cell_angle_beta 90.000000
_cell_angle_gamma 90.000000
_cell_volume 4700.126212
_symmetry_space_group_name_H-M "C M C M"
_symmetry_group_IT_number 63
_symmetry_cell_setting 'orthorhombic'
loop_
_space_group_symop_operation_xyz
x,y,z
-x,-y,1/2+z
x,-y,-z
-x,y,1/2-z
-x,-y,-z
x,y,1/2-z
-x,y,z
x,-y,1/2+z
1/2+x,1/2+y,z
1/2-x,1/2-y,1/2+z
1/2+x,1/2-y,-z
1/2-x,1/2+y,1/2-z
1/2-x,1/2-y,-z
1/2+x,1/2+y,1/2-z
1/2-x,1/2+y,z
1/2+x,1/2-y,1/2+z
loop_
_atom_site_type_symbol
_atom_site_label
_atom_site_fract_x
_atom_site_fract_y
_atom_site_fract_z
Si Si1 0.578834 0.771327 0.422419
Si Si2 0.186635 0.807879 0.916572
Si Si3 0.184487 0.647609 0.578006
Si Si4 0.000000 0.050540 0.920799
Si Si5 0.280604 0.049732 0.423998
Si Si6 0.871595 0.086245 0.412509
O O1 0.572430 0.759244 0.250000
O O2 0.500000 0.768048 0.494536
O O3 0.633904 0.731937 0.489882
O O4 0.609520 0.825580 0.446361
O O5 0.210473 0.792447 0.750000
O O6 0.144146 0.857411 0.907882
O O7 0.255429 0.815464 0.018045
O O8 0.199999 0.637251 0.750000
O O9 0.179837 0.596482 0.492233
O O10 0.000000 0.041143 0.750000
O O11 0.930296 0.079700 0.963886
O O12 0.000000 0.000000 0.000000
O O13 0.297223 0.048151 0.250000
O O14 0.197375 0.055267 0.456060
O O15 0.307724 0.000000 0.500000
O O16 0.898573 0.069306 0.250000
#
# Coordination Sequence:
#
# PCOD8257415 Si02
#       6
#    16  16  16   8  16  16
#     4   9  18  32  53  80 107 140 181 219 260 311
#     4   9  18  33  55  77 101 139 180 219 258 306
#     4  10  19  32  53  80 110 140 172 217 264 312
#     4  12  24  34  46  64  94 134 172 214 261 306
#     4  10  20  35  56  79 102 131 170 215 262 314
#     4   9  19  33  50  72  97 129 170 212 255 304
#
# _framework density 18.722901
#
# number of rings (size 3 to 8) (size 9 to 14) (size 15 to 20)
#    0.000    2.364    0.000    4.091    1.273    5.091 
#    0.000    0.909    0.000    4.909    0.000    0.000 
#    0.000    0.000    0.000    0.000    0.000    0.000 
#
# Total GULP energy -545470.959334 kJ/mol
# GULP energy per Si atom -12397.067258 kJ/mol
# Density = 1.868029 g / cm^3
# Si number density = 18.722901 Si / 1000 Ang^3
#
#
#
# Elastic Constant Matrix: (Units=GPa)
#
#
# Indices 1 2 3 4 5 6 
#
# 1 68.1977 44.7158 27.9536 0.0000 0.0000 0.0000
# 2 44.7158 98.9861 32.3258 0.0000 0.0000 0.0000
# 3 27.9536 32.3258 88.8801 0.0000 0.0000 0.0000
# 4 0.0000 0.0000 0.0000 26.5753 0.0000 0.0000
# 5 0.0000 0.0000 0.0000 0.0000 19.7492 0.0000
# 6 0.0000 0.0000 0.0000 0.0000 0.0000 9.4787
#
#
#
# Elastic Compliance Matrix: (Units=1/GPa)
#
#
# Indices 1 2 3 4 5 6 
#
# 1 0.021871 -0.008663 -0.003728 0.000000 0.000000 0.000000
# 2 -0.008663 0.014895 -0.002693 0.000000 0.000000 0.000000
# 3 -0.003728 -0.002693 0.013403 0.000000 0.000000 0.000000
# 4 0.000000 0.000000 0.000000 0.037629 0.000000 0.000000
# 5 0.000000 0.000000 0.000000 0.000000 0.050635 0.000000
# 6 0.000000 0.000000 0.000000 0.000000 0.000000 0.105500
#
#
# Mechanical properties :
#
#
# Convention : Reuss Voigt Hill
#
# Bulk Modulus (GPa) = 49.99457 51.78382 50.88920
# Shear Modulus (GPa) = 17.80833 21.23189 19.52011
#
# Velocity S-wave (km/s) = 3.08742 3.37115 3.23240
# Velocity P-wave (km/s) = 6.28251 6.54759 6.41642
#
# Compressibility (1/GPa) = 0.02000217
#
# Stress axis : x y z
#
# Youngs Moduli (GPa) = 45.72210 67.13628 74.60994
#
# Poissons Ratio (x) = 0.58157 0.27815
# Poissons Ratio (y) = 0.39607 0.20092
# Poissons Ratio (z) = 0.17046 0.18079
#
# Static dielectric constant tensor:
#      x y z
#    x 3.293290 0.000000 0.000000 
#    y 0.000000 3.466330 0.000000 
#    z 0.000000 0.000000 3.700450 
# 
# 
# High freq. dielectric constant tensor:
#      x y z
#    x 1.702270 0.000000 0.000000 
#    y 0.000000 1.736220 0.000000 
#    z 0.000000 0.000000 1.713990 
# 
# From -- ./inp_files/6777.got.cif
#   From: 2010.03.12/outbox.cif.g09.slc.cpg/sg63_4_cif.got.tgz:6777.got - 2010.04.10 19:34:48.
