data_PCOD8257510
_publ_section_title
;
Structure prediction by ZEFSAII (Michael W. Deem and Ramdas Pophale) SiO2 
 PCOD8257510
Probable space group: C M C M
;
_chemical_formula_sum "Si O2"
_cell_formula_units_Z 112
_cell_length_a 12.447992
_cell_length_b 19.847319
_cell_length_c 25.734108
_cell_angle_alpha 90.000000
_cell_angle_beta 90.000000
_cell_angle_gamma 90.000000
_cell_volume 6357.849889
_symmetry_space_group_name_H-M "C M C M"
_symmetry_group_IT_number 63
_symmetry_cell_setting 'orthorhombic'
loop_
_space_group_symop_operation_xyz
x,y,z
-x,-y,1/2+z
x,-y,-z
-x,y,1/2-z
-x,-y,-z
x,y,1/2-z
-x,y,z
x,-y,1/2+z
1/2+x,1/2+y,z
1/2-x,1/2-y,1/2+z
1/2+x,1/2-y,-z
1/2-x,1/2+y,1/2-z
1/2-x,1/2-y,-z
1/2+x,1/2+y,1/2-z
1/2-x,1/2+y,z
1/2+x,1/2-y,1/2+z
loop_
_atom_site_type_symbol
_atom_site_label
_atom_site_fract_x
_atom_site_fract_y
_atom_site_fract_z
Si Si1 0.124274 0.635906 0.355067
Si Si2 0.374730 0.280260 0.310170
Si Si3 0.740710 0.832085 0.545182
Si Si4 0.876856 0.706480 0.553120
Si Si5 0.626724 0.429988 0.476144
Si Si6 0.248868 0.388868 0.122249
Si Si7 0.877079 0.493784 0.309822
O O1 0.157641 0.704210 0.325638
O O2 0.192013 0.625380 0.407680
O O3 0.149694 0.572482 0.318454
O O4 0.000000 0.638511 0.370630
O O5 0.346576 0.290549 0.250000
O O6 0.500000 0.293080 0.321127
O O7 0.307054 0.333356 0.342882
O O8 0.798671 0.767101 0.569590
O O9 0.643034 0.811167 0.507332
O O10 0.829719 0.871667 0.512969
O O11 0.849075 0.643684 0.590100
O O12 0.000000 0.726814 0.561072
O O13 0.667835 0.500000 0.500000
O O14 0.500000 0.424826 0.475833
O O15 0.666865 0.421990 0.417384
O O16 0.202645 0.448091 0.157341
O O17 0.857425 0.476675 0.250000
O O18 0.000000 0.478573 0.325838
#
# Coordination Sequence:
#
# PCOD8257510 Si02
#       7
#    16  16  16  16  16  16  16
#     4  10  19  34  55  80 108 139 175 218 269 321
#     4  10  20  34  54  80 106 133 174 227 273 313
#     4  10  19  33  51  77 105 140 173 214 261 315
#     4  10  20  32  49  76 107 138 172 211 260 317
#     4  10  21  35  52  76 107 142 179 218 262 318
#     4  11  20  35  54  78 106 139 179 220 265 316
#     4  10  21  36  55  79 107 141 179 220 267 319
#
# _framework density 17.616018
#
# number of rings (size 3 to 8) (size 9 to 14) (size 15 to 20)
#    0.000    1.857    1.429    3.429    0.000    1.714 
#    0.000    0.000    0.000    6.857    0.000    0.000 
#    0.000    0.000    0.000    0.000    0.000    0.000 
#
# Total GULP energy -694524.617739 kJ/mol
# GULP energy per Si atom -12402.225317 kJ/mol
# Density = 1.757592 g / cm^3
# Si number density = 17.616018 Si / 1000 Ang^3
#
#
#
# Elastic Constant Matrix: (Units=GPa)
#
#
# Indices 1 2 3 4 5 6 
#
# 1 66.7815 35.2423 42.7355 0.0000 0.0000 0.0000
# 2 35.2423 102.6261 39.9247 0.0000 0.0000 0.0000
# 3 42.7355 39.9247 89.3744 0.0000 0.0000 0.0000
# 4 0.0000 0.0000 0.0000 34.9852 0.0000 0.0000
# 5 0.0000 0.0000 0.0000 0.0000 19.0783 0.0000
# 6 0.0000 0.0000 0.0000 0.0000 0.0000 25.2342
#
#
#
# Elastic Compliance Matrix: (Units=1/GPa)
#
#
# Indices 1 2 3 4 5 6 
#
# 1 0.023111 -0.004402 -0.009084 0.000000 0.000000 0.000000
# 2 -0.004402 0.012632 -0.003538 0.000000 0.000000 0.000000
# 3 -0.009084 -0.003538 0.017113 0.000000 0.000000 0.000000
# 4 0.000000 0.000000 0.000000 0.028584 0.000000 0.000000
# 5 0.000000 0.000000 0.000000 0.000000 0.052415 0.000000
# 6 0.000000 0.000000 0.000000 0.000000 0.000000 0.039629
#
#
# Mechanical properties :
#
#
# Convention : Reuss Voigt Hill
#
# Bulk Modulus (GPa) = 53.17120 54.95412 54.06266
# Shear Modulus (GPa) = 23.38617 25.25149 24.31883
#
# Velocity S-wave (km/s) = 3.64751 3.79019 3.71953
# Velocity P-wave (km/s) = 6.92734 7.10051 7.01446
#
# Compressibility (1/GPa) = 0.01880717
#
# Stress axis : x y z
#
# Youngs Moduli (GPa) = 43.27016 79.16229 58.43502
#
# Poissons Ratio (x) = 0.34850 0.53083
# Poissons Ratio (y) = 0.19049 0.20674
# Poissons Ratio (z) = 0.39307 0.28007
#
# Static dielectric constant tensor:
#      x y z
#    x 3.084480 0.000000 0.000000 
#    y 0.000000 3.366280 0.000000 
#    z 0.000000 0.000000 3.286040 
# 
# 
# High freq. dielectric constant tensor:
#      x y z
#    x 1.672170 0.000000 0.000000 
#    y 0.000000 1.688570 0.000000 
#    z 0.000000 0.000000 1.687190 
# 
# From -- ./inp_files/61756.got.cif
#   From: 2010.03.12/outbox.cif.g09.slc.cpg/sg63_31_cif.got.tgz:61756.got - 2010.04.10 19:34:48.
