data_PCOD8257454
_publ_section_title
;
Structure prediction by ZEFSAII (Michael W. Deem and Ramdas Pophale) SiO2 
 PCOD8257454
Probable space group: C M C M
;
_chemical_formula_sum "Si O2"
_cell_formula_units_Z 80
_cell_length_a 9.327270
_cell_length_b 28.845586
_cell_length_c 15.375431
_cell_angle_alpha 90.000000
_cell_angle_beta 90.000000
_cell_angle_gamma 90.000000
_cell_volume 4136.768458
_symmetry_space_group_name_H-M "C M C M"
_symmetry_group_IT_number 63
_symmetry_cell_setting 'orthorhombic'
loop_
_space_group_symop_operation_xyz
x,y,z
-x,-y,1/2+z
x,-y,-z
-x,y,1/2-z
-x,-y,-z
x,y,1/2-z
-x,y,z
x,-y,1/2+z
1/2+x,1/2+y,z
1/2-x,1/2-y,1/2+z
1/2+x,1/2-y,-z
1/2-x,1/2+y,1/2-z
1/2-x,1/2-y,-z
1/2+x,1/2+y,1/2-z
1/2-x,1/2+y,z
1/2+x,1/2-y,1/2+z
loop_
_atom_site_type_symbol
_atom_site_label
_atom_site_fract_x
_atom_site_fract_y
_atom_site_fract_z
Si Si1 0.163959 0.883857 0.846882
Si Si2 0.334447 0.204406 0.103563
Si Si3 0.330656 0.552554 0.994931
Si Si4 0.663940 0.206671 0.899906
Si Si5 0.835388 0.394351 0.348200
O O1 0.176863 0.905640 0.750000
O O2 0.260018 0.838199 0.848815
O O3 0.000000 0.869866 0.867583
O O4 0.218591 0.921423 0.916984
O O5 0.500000 0.205315 0.130084
O O6 0.263477 0.252249 0.136005
O O7 0.310329 0.198124 0.001474
O O8 0.500000 0.554409 0.982995
O O9 0.262833 0.575726 0.910656
O O10 0.274993 0.500000 0.000000
O O11 0.500000 0.220434 0.880571
O O12 0.708562 0.159652 0.851471
O O13 0.813263 0.412303 0.250000
O O14 0.000000 0.399628 0.378430
#
# Coordination Sequence:
#
# PCOD8257454 Si02
#       5
#    16  16  16  16  16
#     4  10  21  37  57  81 112 150 189 229 281 343
#     4  10  19  32  54  83 114 149 190 233 275 325
#     4  10  22  40  62  86 112 145 186 237 291 339
#     4   9  18  33  53  80 116 154 188 225 273 331
#     4  10  21  38  60  86 116 151 190 230 278 338
#
# _framework density 19.338767000000001
#
# number of rings (size 3 to 8) (size 9 to 14) (size 15 to 20)
#    0.000    2.200    2.000    0.600    0.000    4.400 
#    0.000    4.000    0.000    0.000    0.000    0.000 
#    0.000    0.000    0.000    0.000    0.000    0.000 
#
# Total GULP energy -496101.767527 kJ/mol
# GULP energy per Si atom -12402.544188 kJ/mol
# Density = 1.929475 g / cm^3
# Si number density = 19.338767 Si / 1000 Ang^3
#
#
#
# Elastic Constant Matrix: (Units=GPa)
#
#
# Indices 1 2 3 4 5 6 
#
# 1 63.4878 46.4292 35.0809 0.0000 0.0000 0.0000
# 2 46.4292 119.9150 57.2116 0.0000 0.0000 0.0000
# 3 35.0809 57.2116 97.8992 0.0000 0.0000 0.0000
# 4 0.0000 0.0000 0.0000 3.8959 0.0000 0.0000
# 5 0.0000 0.0000 0.0000 0.0000 22.0150 0.0000
# 6 0.0000 0.0000 0.0000 0.0000 0.0000 24.4508
#
#
#
# Elastic Compliance Matrix: (Units=1/GPa)
#
#
# Indices 1 2 3 4 5 6 
#
# 1 0.023178 -0.006949 -0.004245 0.000000 0.000000 0.000000
# 2 -0.006949 0.013647 -0.005485 0.000000 0.000000 0.000000
# 3 -0.004245 -0.005485 0.014941 0.000000 0.000000 0.000000
# 4 0.000000 0.000000 0.000000 0.256679 0.000000 0.000000
# 5 0.000000 0.000000 0.000000 0.000000 0.045424 0.000000
# 6 0.000000 0.000000 0.000000 0.000000 0.000000 0.040898
#
#
# Mechanical properties :
#
#
# Convention : Reuss Voigt Hill
#
# Bulk Modulus (GPa) = 54.32227 62.08282 58.20254
# Shear Modulus (GPa) = 11.51381 19.57771 15.54576
#
# Velocity S-wave (km/s) = 2.44268 3.18521 2.83833
# Velocity P-wave (km/s) = 6.00886 6.76017 6.39555
#
# Compressibility (1/GPa) = 0.01840866
#
# Stress axis : x y z
#
# Youngs Moduli (GPa) = 43.14348 73.27775 66.93034
#
# Poissons Ratio (x) = 0.50922 0.28409
# Poissons Ratio (y) = 0.29981 0.36710
# Poissons Ratio (z) = 0.18313 0.40192
#
# Static dielectric constant tensor:
#      x y z
#    x 3.479880 0.000000 0.000000 
#    y 0.000000 3.521370 0.000000 
#    z 0.000000 0.000000 3.512670 
# 
# 
# High freq. dielectric constant tensor:
#      x y z
#    x 1.745920 0.000000 0.000000 
#    y 0.000000 1.746260 0.000000 
#    z 0.000000 0.000000 1.756130 
# 
# From -- ./inp_files/40687.got.cif
#   From: 2010.03.12/outbox.cif.g09.slc.cpg/sg63_21_cif.got.tgz:40687.got - 2010.04.10 19:34:48.
