data_PCOD8257994
_publ_section_title
;
Structure prediction by ZEFSAII (Michael W. Deem and Ramdas Pophale) SiO2 
 PCOD8257994
Probable space group: C M C M
;
_chemical_formula_sum "Si O2"
_cell_formula_units_Z 96
_cell_length_a 28.552952
_cell_length_b 19.836702
_cell_length_c 8.908399
_cell_angle_alpha 90.000000
_cell_angle_beta 90.000000
_cell_angle_gamma 90.000000
_cell_volume 5045.685124
_symmetry_space_group_name_H-M "C M C M"
_symmetry_group_IT_number 63
_symmetry_cell_setting 'orthorhombic'
loop_
_space_group_symop_operation_xyz
x,y,z
-x,-y,1/2+z
x,-y,-z
-x,y,1/2-z
-x,-y,-z
x,y,1/2-z
-x,y,z
x,-y,1/2+z
1/2+x,1/2+y,z
1/2-x,1/2-y,1/2+z
1/2+x,1/2-y,-z
1/2-x,1/2+y,1/2-z
1/2-x,1/2-y,-z
1/2+x,1/2+y,1/2-z
1/2-x,1/2+y,z
1/2+x,1/2-y,1/2+z
loop_
_atom_site_type_symbol
_atom_site_label
_atom_site_fract_x
_atom_site_fract_y
_atom_site_fract_z
Si Si1 0.865675 0.927150 0.929009
Si Si2 0.803955 0.689799 0.417957
Si Si3 0.054578 0.562798 0.085549
Si Si4 0.092318 0.699734 0.070830
Si Si5 0.283219 0.346507 0.081759
Si Si6 0.054496 0.842244 0.427116
O O1 0.866618 0.932011 0.750000
O O2 0.822851 0.879879 0.979322
O O3 0.915041 0.897869 0.986950
O O4 0.857807 0.000000 0.000000
O O5 0.804510 0.660007 0.250000
O O6 0.855416 0.688158 0.491316
O O7 0.768579 0.642484 0.512499
O O8 0.789574 0.767130 0.413708
O O9 0.077783 0.563941 0.250000
O O10 0.063270 0.635514 0.009099
O O11 0.000000 0.549629 0.097359
O O12 0.078401 0.500000 0.000000
O O13 0.091500 0.704682 0.250000
O O14 0.069289 0.768572 0.009976
O O15 0.285722 0.376989 0.250000
O O16 0.064636 0.848364 0.250000
O O17 0.000000 0.854851 0.463019
#
# Coordination Sequence:
#
# PCOD8257994 Si02
#       6
#    16  16  16  16  16  16
#     4  12  25  41  61  83 114 152 193 238 293 350
#     4   9  17  31  55  83 113 143 179 226 276 330
#     4   9  17  30  49  73 103 142 184 222 265 319
#     4   9  16  31  55  83 111 146 188 231 276 330
#     4  10  19  35  57  83 112 142 184 227 274 333
#     4  10  20  37  61  87 114 146 191 245 295 344
#
# _framework density 19.026156
#
# number of rings (size 3 to 8) (size 9 to 14) (size 15 to 20)
#    0.000    2.167    1.667    2.500    0.000    3.333 
#    0.000    2.500    0.000    4.000    0.000    0.000 
#    0.000    0.000    0.000    0.000    0.000    0.000 
#
# Total GULP energy -594956.924514 kJ/mol
# GULP energy per Si atom -12394.935927 kJ/mol
# Density = 1.898285 g / cm^3
# Si number density = 19.026156 Si / 1000 Ang^3
#
#
#
# Elastic Constant Matrix: (Units=GPa)
#
#
# Indices 1 2 3 4 5 6 
#
# 1 104.1809 23.2068 44.0190 0.0000 0.0000 0.0000
# 2 23.2068 43.4428 26.6923 0.0000 0.0000 0.0000
# 3 44.0190 26.6923 92.1811 0.0000 0.0000 0.0000
# 4 0.0000 0.0000 0.0000 23.6524 0.0000 0.0000
# 5 0.0000 0.0000 0.0000 0.0000 24.2686 0.0000
# 6 0.0000 0.0000 0.0000 0.0000 0.0000 23.0952
#
#
#
# Elastic Compliance Matrix: (Units=1/GPa)
#
#
# Indices 1 2 3 4 5 6 
#
# 1 0.012485 -0.003657 -0.004903 0.000000 0.000000 0.000000
# 2 -0.003657 0.029072 -0.006672 0.000000 0.000000 0.000000
# 3 -0.004903 -0.006672 0.015121 0.000000 0.000000 0.000000
# 4 0.000000 0.000000 0.000000 0.042279 0.000000 0.000000
# 5 0.000000 0.000000 0.000000 0.000000 0.041205 0.000000
# 6 0.000000 0.000000 0.000000 0.000000 0.000000 0.043299
#
#
# Mechanical properties :
#
#
# Convention : Reuss Voigt Hill
#
# Bulk Modulus (GPa) = 38.14668 47.51567 42.83118
# Shear Modulus (GPa) = 22.45546 23.92902 23.19224
#
# Velocity S-wave (km/s) = 3.43919 3.55024 3.49516
# Velocity P-wave (km/s) = 5.98864 6.46790 6.23288
#
# Compressibility (1/GPa) = 0.02621460
#
# Stress axis : x y z
#
# Youngs Moduli (GPa) = 80.09671 34.39786 66.13123
#
# Poissons Ratio (x) = 0.12579 0.32424
# Poissons Ratio (y) = 0.29290 0.44122
# Poissons Ratio (z) = 0.39271 0.22950
#
# Static dielectric constant tensor:
#      x y z
#    x 3.592010 0.000000 0.000000 
#    y 0.000000 3.452410 0.000000 
#    z 0.000000 0.000000 3.552050 
# 
# 
# High freq. dielectric constant tensor:
#      x y z
#    x 1.742920 0.000000 0.000000 
#    y 0.000000 1.729530 0.000000 
#    z 0.000000 0.000000 1.717560 
# 
# From -- ./inp_files/12362.got.cif
#   From: 2010.03.12/outbox.cif.g09.slc.cpg/sg63_7_cif.got.tgz:12362.got - 2010.04.10 19:34:48.
