data_PCOD8257801
_publ_section_title
;
Structure prediction by ZEFSAII (Michael W. Deem and Ramdas Pophale) SiO2 
 PCOD8257801
Probable space group: C M C M
;
_chemical_formula_sum "Si O2"
_cell_formula_units_Z 80
_cell_length_a 7.682375
_cell_length_b 28.370816
_cell_length_c 20.873927
_cell_angle_alpha 90.000000
_cell_angle_beta 90.000000
_cell_angle_gamma 90.000000
_cell_volume 4549.581927
_symmetry_space_group_name_H-M "C M C M"
_symmetry_group_IT_number 63
_symmetry_cell_setting 'orthorhombic'
loop_
_space_group_symop_operation_xyz
x,y,z
-x,-y,1/2+z
x,-y,-z
-x,y,1/2-z
-x,-y,-z
x,y,1/2-z
-x,y,z
x,-y,1/2+z
1/2+x,1/2+y,z
1/2-x,1/2-y,1/2+z
1/2+x,1/2-y,-z
1/2-x,1/2+y,1/2-z
1/2-x,1/2-y,-z
1/2+x,1/2+y,1/2-z
1/2-x,1/2+y,z
1/2+x,1/2-y,1/2+z
loop_
_atom_site_type_symbol
_atom_site_label
_atom_site_fract_x
_atom_site_fract_y
_atom_site_fract_z
Si Si1 0.802079 0.857964 0.656327
Si Si2 0.000000 0.450840 0.535657
Si Si3 0.295473 0.210683 0.947883
Si Si4 0.807912 0.881405 0.986615
Si Si5 0.294251 0.745909 0.180950
Si Si6 0.000000 0.428397 0.680511
O O1 0.791600 0.854382 0.580140
O O2 0.731937 0.808184 0.681636
O O3 0.675151 0.897850 0.682572
O O4 0.000000 0.868985 0.679151
O O5 0.000000 0.500000 0.500000
O O6 0.168918 0.423228 0.510405
O O7 0.000000 0.458343 0.613710
O O8 0.500000 0.205055 0.944712
O O9 0.214246 0.225638 0.878866
O O10 0.250000 0.250000 0.000000
O O11 0.217673 0.159212 0.960967
O O12 0.000000 0.903952 0.995571
O O13 0.239378 0.768334 0.250000
O O14 0.500000 0.745686 0.172416
O O15 0.000000 0.456560 0.750000
#
# Coordination Sequence:
#
# PCOD8257801 Si02
#       6
#    16   8  16  16  16   8
#     4   9  17  30  47  71 105 141 169 205 259 319
#     4  10  22  40  60  80 106 136 176 228 278 324
#     4  11  19  29  48  74 106 144 183 219 254 311
#     4  10  19  34  54  80 106 136 178 220 267 324
#     4   9  17  28  43  65 100 145 185 214 253 305
#     4  10  20  32  52  80 106 130 168 216 268 328
#
# _framework density 17.584033999999999
#
# number of rings (size 3 to 8) (size 9 to 14) (size 15 to 20)
#    0.000    2.200    3.000    1.200    0.000    1.600 
#    1.800    0.000    0.000    1.200    0.000    0.000 
#    0.000    0.000    0.000    0.000    0.000    0.000 
#
# Total GULP energy -495617.733834 kJ/mol
# GULP energy per Si atom -12390.443346 kJ/mol
# Density = 1.754401 g / cm^3
# Si number density = 17.584034 Si / 1000 Ang^3
#
#
#
# Elastic Constant Matrix: (Units=GPa)
#
#
# Indices 1 2 3 4 5 6 
#
# 1 93.0994 32.8937 25.6558 0.0000 0.0000 0.0000
# 2 32.8937 82.8274 59.8177 0.0000 0.0000 0.0000
# 3 25.6558 59.8177 142.4407 0.0000 0.0000 0.0000
# 4 0.0000 0.0000 0.0000 18.5140 0.0000 0.0000
# 5 0.0000 0.0000 0.0000 0.0000 3.0369 0.0000
# 6 0.0000 0.0000 0.0000 0.0000 0.0000 12.1457
#
#
#
# Elastic Compliance Matrix: (Units=1/GPa)
#
#
# Indices 1 2 3 4 5 6 
#
# 1 0.012500 -0.004791 -0.000239 0.000000 0.000000 0.000000
# 2 -0.004791 0.019165 -0.007186 0.000000 0.000000 0.000000
# 3 -0.000239 -0.007186 0.010081 0.000000 0.000000 0.000000
# 4 0.000000 0.000000 0.000000 0.054013 0.000000 0.000000
# 5 0.000000 0.000000 0.000000 0.000000 0.329288 0.000000
# 6 0.000000 0.000000 0.000000 0.000000 0.000000 0.082334
#
#
# Mechanical properties :
#
#
# Convention : Reuss Voigt Hill
#
# Bulk Modulus (GPa) = 57.75598 61.67799 59.71698
# Shear Modulus (GPa) = 9.30085 20.07265 14.68675
#
# Velocity S-wave (km/s) = 2.30236 3.38231 2.89317
# Velocity P-wave (km/s) = 6.32335 7.09970 6.72274
#
# Compressibility (1/GPa) = 0.01731423
#
# Stress axis : x y z
#
# Youngs Moduli (GPa) = 79.99984 52.17716 99.19533
#
# Poissons Ratio (x) = 0.25000 0.02374
# Poissons Ratio (y) = 0.38331 0.71277
# Poissons Ratio (z) = 0.01915 0.37492
#
# Static dielectric constant tensor:
#      x y z
#    x 3.491080 0.000000 0.000000 
#    y 0.000000 2.782040 0.000000 
#    z 0.000000 0.000000 3.647220 
# 
# 
# High freq. dielectric constant tensor:
#      x y z
#    x 1.689070 0.000000 0.000000 
#    y 0.000000 1.618320 0.000000 
#    z 0.000000 0.000000 1.689890 
# 
# From -- ./inp_files/51221.got.cif
#   From: 2010.03.12/outbox.cif.g09.slc.cpg/sg63_26_cif.got.tgz:51221.got - 2010.04.10 19:34:48.
