data_PCOD8257969
_publ_section_title
;
Structure prediction by ZEFSAII (Michael W. Deem and Ramdas Pophale) SiO2 
 PCOD8257969
Probable space group: C M C M
;
_chemical_formula_sum "Si O2"
_cell_formula_units_Z 80
_cell_length_a 16.367762
_cell_length_b 28.729185
_cell_length_c 8.693974
_cell_angle_alpha 90.000000
_cell_angle_beta 90.000000
_cell_angle_gamma 90.000000
_cell_volume 4088.188803
_symmetry_space_group_name_H-M "C M C M"
_symmetry_group_IT_number 63
_symmetry_cell_setting 'orthorhombic'
loop_
_space_group_symop_operation_xyz
x,y,z
-x,-y,1/2+z
x,-y,-z
-x,y,1/2-z
-x,-y,-z
x,y,1/2-z
-x,y,z
x,-y,1/2+z
1/2+x,1/2+y,z
1/2-x,1/2-y,1/2+z
1/2+x,1/2-y,-z
1/2-x,1/2+y,1/2-z
1/2-x,1/2-y,-z
1/2+x,1/2+y,1/2-z
1/2-x,1/2+y,z
1/2+x,1/2-y,1/2+z
loop_
_atom_site_type_symbol
_atom_site_label
_atom_site_fract_x
_atom_site_fract_y
_atom_site_fract_z
Si Si1 0.726291 0.638990 0.068883
Si Si2 0.661950 0.215460 0.575386
Si Si3 0.500000 0.840422 0.083956
Si Si4 0.678078 0.952605 0.566655
Si Si5 0.406369 0.306550 0.432011
Si Si6 0.000000 0.431715 0.926327
O O1 0.713871 0.636069 0.250000
O O2 0.769690 0.591651 0.007193
O O3 0.780289 0.683550 0.027085
O O4 0.637307 0.645490 0.988467
O O5 0.695720 0.219722 0.750000
O O6 0.574402 0.193427 0.570841
O O7 0.651597 0.266037 0.500016
O O8 0.500000 0.866834 0.250000
O O9 0.500000 0.876179 0.943964
O O10 0.677618 0.953092 0.750000
O O11 0.584641 0.950359 0.499435
O O12 0.717783 0.000000 0.500000
O O13 0.406167 0.303437 0.250000
O O14 0.500000 0.304902 0.493595
O O15 0.000000 0.445227 0.750000
#
# Coordination Sequence:
#
# PCOD8257969 Si02
#       6
#    16  16   8  16  16   8
#     4  11  23  39  59  84 114 149 188 231 282 333
#     4  11  21  36  57  84 117 153 193 231 273 325
#     4  10  20  31  51  82 115 154 191 227 270 315
#     4  10  22  37  57  83 112 148 185 229 278 329
#     4  11  24  40  59  83 112 148 188 233 284 334
#     4  10  19  35  55  80 116 152 190 227 269 323
#
# _framework density 19.568567999999999
#
# number of rings (size 3 to 8) (size 9 to 14) (size 15 to 20)
#    0.000    1.400    3.000    2.700    0.000    4.400 
#    0.000    0.000    0.000    0.600    0.000    0.000 
#    0.000    0.000    0.000    0.000    0.000    0.000 
#
# Total GULP energy -495796.365804 kJ/mol
# GULP energy per Si atom -12394.909145 kJ/mol
# Density = 1.952403 g / cm^3
# Si number density = 19.568568 Si / 1000 Ang^3
#
#
#
# Elastic Constant Matrix: (Units=GPa)
#
#
# Indices 1 2 3 4 5 6 
#
# 1 56.6529 64.0997 7.4896 0.0000 0.0000 0.0000
# 2 64.0997 123.3282 24.2069 0.0000 0.0000 0.0000
# 3 7.4896 24.2069 36.9579 0.0000 0.0000 0.0000
# 4 0.0000 0.0000 0.0000 32.9036 0.0000 0.0000
# 5 0.0000 0.0000 0.0000 0.0000 28.5559 0.0000
# 6 0.0000 0.0000 0.0000 0.0000 0.0000 63.1704
#
#
#
# Elastic Compliance Matrix: (Units=1/GPa)
#
#
# Indices 1 2 3 4 5 6 
#
# 1 0.044381 -0.024444 0.007017 0.000000 0.000000 0.000000
# 2 -0.024444 0.022768 -0.009959 0.000000 0.000000 0.000000
# 3 0.007017 -0.009959 0.032159 0.000000 0.000000 0.000000
# 4 0.000000 0.000000 0.000000 0.030392 0.000000 0.000000
# 5 0.000000 0.000000 0.000000 0.000000 0.035019 0.000000
# 6 0.000000 0.000000 0.000000 0.000000 0.000000 0.015830
#
#
# Mechanical properties :
#
#
# Convention : Reuss Voigt Hill
#
# Bulk Modulus (GPa) = 22.45437 45.39238 33.92337
# Shear Modulus (GPa) = 19.98663 33.00218 26.49440
#
# Velocity S-wave (km/s) = 3.19935 4.11114 3.68357
# Velocity P-wave (km/s) = 5.01472 6.76626 5.95523
#
# Compressibility (1/GPa) = 0.04453475
#
# Stress axis : x y z
#
# Youngs Moduli (GPa) = 22.53211 43.92115 31.09562
#
# Poissons Ratio (x) = 1.07362 -0.21819
# Poissons Ratio (y) = 0.55078 0.30968
# Poissons Ratio (z) = -0.15810 0.43741
#
# Static dielectric constant tensor:
#      x y z
#    x 3.294260 0.000000 0.000000 
#    y 0.000000 3.619900 0.000000 
#    z 0.000000 0.000000 3.568340 
# 
# 
# High freq. dielectric constant tensor:
#      x y z
#    x 1.763930 0.000000 0.000000 
#    y 0.000000 1.750510 0.000000 
#    z 0.000000 0.000000 1.758960 
# 
# From -- ./inp_files/6470.got.cif
#   From: 2010.03.12/outbox.cif.g09.slc.cpg/sg63_4_cif.got.tgz:6470.got - 2010.04.10 19:34:48.
