data_PCOD8257121
_publ_section_title
;
Structure prediction by ZEFSAII (Michael W. Deem and Ramdas Pophale) SiO2 
 PCOD8257121
Probable space group: C M C M
;
_chemical_formula_sum "Si O2"
_cell_formula_units_Z 88
_cell_length_a 17.718130
_cell_length_b 28.563212
_cell_length_c 9.171136
_cell_angle_alpha 90.000000
_cell_angle_beta 90.000000
_cell_angle_gamma 90.000000
_cell_volume 4641.389985
_symmetry_space_group_name_H-M "C M C M"
_symmetry_group_IT_number 63
_symmetry_cell_setting 'orthorhombic'
loop_
_space_group_symop_operation_xyz
x,y,z
-x,-y,1/2+z
x,-y,-z
-x,y,1/2-z
-x,-y,-z
x,y,1/2-z
-x,y,z
x,-y,1/2+z
1/2+x,1/2+y,z
1/2-x,1/2-y,1/2+z
1/2+x,1/2-y,-z
1/2-x,1/2+y,1/2-z
1/2-x,1/2-y,-z
1/2+x,1/2+y,1/2-z
1/2-x,1/2+y,z
1/2+x,1/2-y,1/2+z
loop_
_atom_site_type_symbol
_atom_site_label
_atom_site_fract_x
_atom_site_fract_y
_atom_site_fract_z
Si Si1 0.587982 0.800768 0.078592
Si Si2 0.589639 0.708621 0.914292
Si Si3 0.500000 0.951320 0.920060
Si Si4 0.586360 0.617206 0.080531
Si Si5 0.857898 0.610177 0.421044
Si Si6 0.284078 0.548570 0.419313
O O1 0.601784 0.797424 0.250000
O O2 0.500000 0.809188 0.041390
O O3 0.618301 0.753045 0.005909
O O4 0.637641 0.842210 0.011885
O O5 0.621716 0.711280 0.750000
O O6 0.500000 0.708215 0.914272
O O7 0.618405 0.661141 0.990132
O O8 0.500000 0.961833 0.750000
O O9 0.573316 0.922752 0.968266
O O10 0.500000 0.000000 0.000000
O O11 0.594516 0.630355 0.250000
O O12 0.500000 0.605344 0.039629
O O13 0.635613 0.571732 0.040744
O O14 0.861159 0.622372 0.250000
O O15 0.781211 0.584395 0.466469
O O16 0.274499 0.500000 0.500000
O O17 0.277410 0.537190 0.250000
#
# Coordination Sequence:
#
# PCOD8257121 Si02
#       6
#    16  16   8  16  16  16
#     4  10  19  31  51  80 110 142 179 218 260 310
#     4   9  17  30  52  81 110 140 174 215 263 314
#     4  10  20  32  50  72  98 134 176 222 263 304
#     4   9  18  35  57  80 107 138 174 217 265 318
#     4  10  20  35  52  74 105 141 180 220 264 310
#     4  10  22  38  56  78 106 140 176 220 271 318
#
# _framework density 18.959838000000001
#
# number of rings (size 3 to 8) (size 9 to 14) (size 15 to 20)
#    0.000    2.364    0.909    1.636    0.000    5.455 
#    0.000    0.909    0.000    0.000    0.000    0.000 
#    0.000    0.000    0.000    0.000    0.000    0.000 
#
# Total GULP energy -545716.303554 kJ/mol
# GULP energy per Si atom -12402.643263 kJ/mol
# Density = 1.891668 g / cm^3
# Si number density = 18.959838 Si / 1000 Ang^3
#
#
#
# Elastic Constant Matrix: (Units=GPa)
#
#
# Indices 1 2 3 4 5 6 
#
# 1 80.6183 37.1428 31.1055 0.0000 0.0000 0.0000
# 2 37.1428 102.4581 59.0468 0.0000 0.0000 0.0000
# 3 31.1055 59.0468 84.0868 0.0000 0.0000 0.0000
# 4 0.0000 0.0000 0.0000 37.7729 0.0000 0.0000
# 5 0.0000 0.0000 0.0000 0.0000 14.2995 0.0000
# 6 0.0000 0.0000 0.0000 0.0000 0.0000 16.7179
#
#
#
# Elastic Compliance Matrix: (Units=1/GPa)
#
#
# Indices 1 2 3 4 5 6 
#
# 1 0.015320 -0.003843 -0.002969 0.000000 0.000000 0.000000
# 2 -0.003843 0.017359 -0.010768 0.000000 0.000000 0.000000
# 3 -0.002969 -0.010768 0.020552 0.000000 0.000000 0.000000
# 4 0.000000 0.000000 0.000000 0.026474 0.000000 0.000000
# 5 0.000000 0.000000 0.000000 0.000000 0.069933 0.000000
# 6 0.000000 0.000000 0.000000 0.000000 0.000000 0.059816
#
#
# Mechanical properties :
#
#
# Convention : Reuss Voigt Hill
#
# Bulk Modulus (GPa) = 55.33494 57.97261 56.65378
# Shear Modulus (GPa) = 19.94916 23.08258 21.51587
#
# Velocity S-wave (km/s) = 3.24725 3.49298 3.37235
# Velocity P-wave (km/s) = 6.58090 6.84914 6.71636
#
# Compressibility (1/GPa) = 0.01807176
#
# Stress axis : x y z
#
# Youngs Moduli (GPa) = 65.27377 57.60746 48.65683
#
# Poissons Ratio (x) = 0.22138 0.14445
# Poissons Ratio (y) = 0.25084 0.52394
# Poissons Ratio (z) = 0.19378 0.62032
#
# Static dielectric constant tensor:
#      x y z
#    x 3.018070 0.000000 0.000000 
#    y 0.000000 3.451250 0.000000 
#    z 0.000000 0.000000 3.315540 
# 
# 
# High freq. dielectric constant tensor:
#      x y z
#    x 1.717790 0.000000 0.000000 
#    y 0.000000 1.743700 0.000000 
#    z 0.000000 0.000000 1.735540 
# 
# From -- ./inp_files/6847.got.cif
#   From: 2010.03.12/outbox.cif.g09.slc.cpg/sg63_4_cif.got.tgz:6847.got - 2010.04.10 19:34:48.
