data_PCOD8257216
_publ_section_title
;
Structure prediction by ZEFSAII (Michael W. Deem and Ramdas Pophale) SiO2 
 PCOD8257216
Probable space group: C M C M
;
_chemical_formula_sum "Si O2"
_cell_formula_units_Z 96
_cell_length_a 8.787773
_cell_length_b 23.157063
_cell_length_c 27.055890
_cell_angle_alpha 90.000000
_cell_angle_beta 90.000000
_cell_angle_gamma 90.000000
_cell_volume 5505.846911
_symmetry_space_group_name_H-M "C M C M"
_symmetry_group_IT_number 63
_symmetry_cell_setting 'orthorhombic'
loop_
_space_group_symop_operation_xyz
x,y,z
-x,-y,1/2+z
x,-y,-z
-x,y,1/2-z
-x,-y,-z
x,y,1/2-z
-x,y,z
x,-y,1/2+z
1/2+x,1/2+y,z
1/2-x,1/2-y,1/2+z
1/2+x,1/2-y,-z
1/2-x,1/2+y,1/2-z
1/2-x,1/2-y,-z
1/2+x,1/2+y,1/2-z
1/2-x,1/2+y,z
1/2+x,1/2-y,1/2+z
loop_
_atom_site_type_symbol
_atom_site_label
_atom_site_fract_x
_atom_site_fract_y
_atom_site_fract_z
Si Si1 0.677457 0.146033 0.650734
Si Si2 0.317875 0.476876 0.356243
Si Si3 0.672570 0.723261 0.926727
Si Si4 0.331425 0.650359 0.750000
Si Si5 0.333632 0.513420 0.750000
Si Si6 0.819092 0.961217 0.545018
Si Si7 0.325941 0.331135 0.966977
O O1 0.500000 0.133484 0.654728
O O2 0.760483 0.087570 0.634134
O O3 0.710838 0.195423 0.611297
O O4 0.739001 0.170904 0.702302
O O5 0.500000 0.474362 0.353293
O O6 0.253659 0.502374 0.302992
O O7 0.260297 0.515817 0.401805
O O8 0.500000 0.721668 0.906628
O O9 0.721368 0.789536 0.934162
O O10 0.686652 0.686567 0.976362
O O11 0.500000 0.678344 0.750000
O O12 0.346872 0.581965 0.750000
O O13 0.500000 0.484236 0.750000
O O14 0.761345 0.895869 0.538702
O O15 0.000000 0.963850 0.543149
O O16 0.752735 0.000000 0.500000
O O17 0.500000 0.326947 0.948486
#
# Coordination Sequence:
#
# PCOD8257216 Si02
#       7
#    16  16  16   8   8  16  16
#     4  11  20  30  47  73 101 126 157 198 241 281
#     4   9  16  28  46  67  93 125 158 191 234 288
#     4  10  19  32  50  68  91 126 163 199 243 293
#     4   9  17  31  49  70  97 126 157 194 238 286
#     4   7  12  23  41  64  87 114 149 184 218 268
#     4   9  16  27  46  70  94 122 157 198 242 289
#     4   9  18  32  49  70  94 122 162 206 242 281
#
# _framework density 17.436008999999999
#
# number of rings (size 3 to 8) (size 9 to 14) (size 15 to 20)
#    0.000    2.667    0.000    4.250    0.000    3.333 
#    0.000    0.833    0.000    3.000    0.000    3.500 
#    0.000    0.000    0.000    0.000    0.000    0.000 
#
# Total GULP energy -594924.682003 kJ/mol
# GULP energy per Si atom -12394.264208 kJ/mol
# Density = 1.739632 g / cm^3
# Si number density = 17.436009 Si / 1000 Ang^3
#
#
#
# Elastic Constant Matrix: (Units=GPa)
#
#
# Indices 1 2 3 4 5 6 
#
# 1 49.6790 17.1148 23.3877 0.0000 0.0000 0.0000
# 2 17.1148 105.7557 60.9184 0.0000 0.0000 0.0000
# 3 23.3877 60.9184 117.6377 0.0000 0.0000 0.0000
# 4 0.0000 0.0000 0.0000 21.5042 0.0000 0.0000
# 5 0.0000 0.0000 0.0000 0.0000 19.2243 0.0000
# 6 0.0000 0.0000 0.0000 0.0000 0.0000 20.2115
#
#
#
# Elastic Compliance Matrix: (Units=1/GPa)
#
#
# Indices 1 2 3 4 5 6 
#
# 1 0.022375 -0.001509 -0.003667 0.000000 0.000000 0.000000
# 2 -0.001509 0.013577 -0.006731 0.000000 0.000000 0.000000
# 3 -0.003667 -0.006731 0.012715 0.000000 0.000000 0.000000
# 4 0.000000 0.000000 0.000000 0.046503 0.000000 0.000000
# 5 0.000000 0.000000 0.000000 0.000000 0.052018 0.000000
# 6 0.000000 0.000000 0.000000 0.000000 0.000000 0.049477
#
#
# Mechanical properties :
#
#
# Convention : Reuss Voigt Hill
#
# Bulk Modulus (GPa) = 40.23459 52.87937 46.55698
# Shear Modulus (GPa) = 21.85664 23.63141 22.74403
#
# Velocity S-wave (km/s) = 3.54437 3.68546 3.61561
# Velocity P-wave (km/s) = 6.31472 6.96446 6.64754
#
# Compressibility (1/GPa) = 0.02485423
#
# Stress axis : x y z
#
# Youngs Moduli (GPa) = 44.69191 73.65321 78.64496
#
# Poissons Ratio (x) = 0.11112 0.28841
# Poissons Ratio (y) = 0.06742 0.52936
# Poissons Ratio (z) = 0.16390 0.49576
#
# Static dielectric constant tensor:
#      x y z
#    x 3.035550 0.000000 0.000000 
#    y 0.000000 3.045690 0.000000 
#    z 0.000000 0.000000 3.671350 
# 
# 
# High freq. dielectric constant tensor:
#      x y z
#    x 1.650290 0.000000 0.000000 
#    y 0.000000 1.643780 0.000000 
#    z 0.000000 0.000000 1.683530 
# 
# From -- ./inp_files/67274.got.cif
#   From: 2010.03.12/outbox.cif.g09.slc.cpg/sg63_34_cif.got.tgz:67274.got - 2010.04.10 19:34:48.
