data_PCOD8257033
_publ_section_title
;
Structure prediction by ZEFSAII (Michael W. Deem and Ramdas Pophale) SiO2 
 PCOD8257033
Probable space group: C M C M
;
_chemical_formula_sum "Si O2"
_cell_formula_units_Z 96
_cell_length_a 20.954951
_cell_length_b 24.677012
_cell_length_c 9.506529
_cell_angle_alpha 90.000000
_cell_angle_beta 90.000000
_cell_angle_gamma 90.000000
_cell_volume 4915.879167
_symmetry_space_group_name_H-M "C M C M"
_symmetry_group_IT_number 63
_symmetry_cell_setting 'orthorhombic'
loop_
_space_group_symop_operation_xyz
x,y,z
-x,-y,1/2+z
x,-y,-z
-x,y,1/2-z
-x,-y,-z
x,y,1/2-z
-x,y,z
x,-y,1/2+z
1/2+x,1/2+y,z
1/2-x,1/2-y,1/2+z
1/2+x,1/2-y,-z
1/2-x,1/2+y,1/2-z
1/2-x,1/2-y,-z
1/2+x,1/2+y,1/2-z
1/2-x,1/2+y,z
1/2+x,1/2-y,1/2+z
loop_
_atom_site_type_symbol
_atom_site_label
_atom_site_fract_x
_atom_site_fract_y
_atom_site_fract_z
Si Si1 0.928667 0.330273 0.417084
Si Si2 0.398707 0.949900 0.092158
Si Si3 0.176381 0.869937 0.592672
Si Si4 0.747745 0.449470 0.091073
Si Si5 0.315074 0.247629 0.912115
Si Si6 0.428945 0.547467 0.409544
O O1 0.923202 0.329481 0.250000
O O2 0.920924 0.392134 0.471844
O O3 0.870339 0.292445 0.474870
O O4 0.000000 0.309769 0.463328
O O5 0.425764 0.956994 0.250000
O O6 0.323075 0.950645 0.094505
O O7 0.425490 0.000000 0.000000
O O8 0.203408 0.881459 0.750000
O O9 0.227503 0.892606 0.480643
O O10 0.157901 0.807795 0.573840
O O11 0.109077 0.897905 0.566686
O O12 0.720346 0.453196 0.250000
O O13 0.721045 0.500000 0.000000
O O14 0.299420 0.232292 0.750000
O O15 0.250000 0.250000 0.000000
O O16 0.396473 0.500000 0.500000
O O17 0.428446 0.527727 0.250000
O O18 0.500000 0.559218 0.464656
#
# Coordination Sequence:
#
# PCOD8257033 Si02
#       6
#    16  16  16  16  16  16
#     4   9  18  34  56  80 106 138 178 221 263 313
#     4   9  18  32  51  76 104 134 168 207 254 309
#     4  10  20  32  49  74 100 129 170 215 258 309
#     4  10  19  31  49  74 106 139 171 210 257 308
#     4  10  21  37  57  80 106 139 180 225 271 319
#     4   9  18  32  48  68  97 130 163 203 252 304
#
# _framework density 19.528549999999999
#
# number of rings (size 3 to 8) (size 9 to 14) (size 15 to 20)
#    0.000    2.500    0.000    2.000    0.000    5.667 
#    0.000    4.167    0.000    1.500    0.000    2.333 
#    0.000    0.000    0.000    0.000    0.000    0.000 
#
# Total GULP energy -594898.150669 kJ/mol
# GULP energy per Si atom -12393.711472 kJ/mol
# Density = 1.948410 g / cm^3
# Si number density = 19.528550 Si / 1000 Ang^3
#
#
#
# Elastic Constant Matrix: (Units=GPa)
#
#
# Indices 1 2 3 4 5 6 
#
# 1 100.1512 55.2738 38.2033 0.0000 0.0000 0.0000
# 2 55.2738 130.5660 47.3675 0.0000 0.0000 0.0000
# 3 38.2033 47.3675 77.6775 0.0000 0.0000 0.0000
# 4 0.0000 0.0000 0.0000 28.6374 0.0000 0.0000
# 5 0.0000 0.0000 0.0000 0.0000 14.8886 0.0000
# 6 0.0000 0.0000 0.0000 0.0000 0.0000 25.5926
#
#
#
# Elastic Compliance Matrix: (Units=1/GPa)
#
#
# Indices 1 2 3 4 5 6 
#
# 1 0.014024 -0.004410 -0.004208 0.000000 0.000000 0.000000
# 2 -0.004410 0.011222 -0.004674 0.000000 0.000000 0.000000
# 3 -0.004208 -0.004674 0.017793 0.000000 0.000000 0.000000
# 4 0.000000 0.000000 0.000000 0.034919 0.000000 0.000000
# 5 0.000000 0.000000 0.000000 0.000000 0.067166 0.000000
# 6 0.000000 0.000000 0.000000 0.000000 0.000000 0.039074
#
#
# Mechanical properties :
#
#
# Convention : Reuss Voigt Hill
#
# Bulk Modulus (GPa) = 60.77207 65.56485 63.16846
# Shear Modulus (GPa) = 23.11956 24.99372 24.05664
#
# Velocity S-wave (km/s) = 3.44450 3.58139 3.51361
# Velocity P-wave (km/s) = 6.85613 7.12380 6.99125
#
# Compressibility (1/GPa) = 0.01645493
#
# Stress axis : x y z
#
# Youngs Moduli (GPa) = 71.30554 89.11344 56.20083
#
# Poissons Ratio (x) = 0.39303 0.23649
# Poissons Ratio (y) = 0.31449 0.26267
# Poissons Ratio (z) = 0.30005 0.41650
#
# Static dielectric constant tensor:
#      x y z
#    x 3.586490 0.000000 0.000000 
#    y 0.000000 4.013190 0.000000 
#    z 0.000000 0.000000 3.585830 
# 
# 
# High freq. dielectric constant tensor:
#      x y z
#    x 1.765430 0.000000 0.000000 
#    y 0.000000 1.761940 0.000000 
#    z 0.000000 0.000000 1.734910 
# 
# From -- ./inp_files/10410.got.cif
#   From: 2010.03.12/outbox.cif.g09.slc.cpg/sg63_6_cif.got.tgz:10410.got - 2010.04.10 19:34:48.
