data_PCOD8257038
_publ_section_title
;
Structure prediction by ZEFSAII (Michael W. Deem and Ramdas Pophale) SiO2 
 PCOD8257038
Probable space group: C M C M
;
_chemical_formula_sum "Si O2"
_cell_formula_units_Z 112
_cell_length_a 15.436567
_cell_length_b 25.196969
_cell_length_c 13.828027
_cell_angle_alpha 90.000000
_cell_angle_beta 90.000000
_cell_angle_gamma 90.000000
_cell_volume 5378.476096
_symmetry_space_group_name_H-M "C M C M"
_symmetry_group_IT_number 63
_symmetry_cell_setting 'orthorhombic'
loop_
_space_group_symop_operation_xyz
x,y,z
-x,-y,1/2+z
x,-y,-z
-x,y,1/2-z
-x,-y,-z
x,y,1/2-z
-x,y,z
x,-y,1/2+z
1/2+x,1/2+y,z
1/2-x,1/2-y,1/2+z
1/2+x,1/2-y,-z
1/2-x,1/2+y,1/2-z
1/2-x,1/2-y,-z
1/2+x,1/2+y,1/2-z
1/2-x,1/2+y,z
1/2+x,1/2-y,1/2+z
loop_
_atom_site_type_symbol
_atom_site_label
_atom_site_fract_x
_atom_site_fract_y
_atom_site_fract_z
Si Si1 0.096423 0.505746 0.887030
Si Si2 0.727158 0.442864 0.358041
Si Si3 0.224123 0.305939 0.636107
Si Si4 0.401394 0.461801 0.861441
Si Si5 0.905418 0.212895 0.640233
Si Si6 0.654903 0.634214 0.493457
Si Si7 0.407319 0.888714 0.856580
O O1 0.170553 0.544901 0.851357
O O2 0.122773 0.448943 0.844270
O O3 0.000000 0.523503 0.850905
O O4 0.097069 0.500000 0.000000
O O5 0.697337 0.425403 0.250000
O O6 0.666576 0.492322 0.392865
O O7 0.722156 0.395943 0.435984
O O8 0.246686 0.310288 0.750000
O O9 0.173987 0.251692 0.612078
O O10 0.308691 0.316698 0.571678
O O11 0.165407 0.353906 0.593047
O O12 0.384576 0.446087 0.750000
O O13 0.500000 0.482926 0.876113
O O14 0.390520 0.408656 0.924542
O O15 0.891194 0.192715 0.750000
O O16 0.910042 0.162911 0.567935
O O17 0.000000 0.241664 0.632801
O O18 0.418609 0.863593 0.750000
O O19 0.500000 0.886104 0.912543
#
# Coordination Sequence:
#
# PCOD8257038 Si02
#       7
#    16  16  16  16  16  16  16
#     4  10  19  31  49  75 106 141 183 229 276 330
#     4  11  23  37  54  79 115 157 196 233 277 333
#     4  10  20  35  57  82 108 139 176 225 284 341
#     4  10  22  39  59  85 117 154 196 238 282 336
#     4  10  22  40  60  82 108 140 183 234 287 343
#     4  12  22  36  57  84 114 146 184 232 288 342
#     4   9  16  27  46  71  98 130 170 215 262 313
#
# _framework density 20.823743
#
# number of rings (size 3 to 8) (size 9 to 14) (size 15 to 20)
#    0.000    1.714    0.000    5.571    0.000    6.571 
#    0.000    2.143    0.000    0.000    0.000    0.000 
#    0.000    0.000    0.000    0.000    0.000    0.000 
#
# Total GULP energy -693759.227066 kJ/mol
# GULP energy per Si atom -12388.557626 kJ/mol
# Density = 2.077635 g / cm^3
# Si number density = 20.823743 Si / 1000 Ang^3
#
#
#
# Elastic Constant Matrix: (Units=GPa)
#
#
# Indices 1 2 3 4 5 6 
#
# 1 90.6713 31.3285 25.2445 0.0000 0.0000 0.0000
# 2 31.3285 65.3453 42.0493 0.0000 0.0000 0.0000
# 3 25.2445 42.0493 106.1854 0.0000 0.0000 0.0000
# 4 0.0000 0.0000 0.0000 54.8498 0.0000 0.0000
# 5 0.0000 0.0000 0.0000 0.0000 18.5861 0.0000
# 6 0.0000 0.0000 0.0000 0.0000 0.0000 26.9896
#
#
#
# Elastic Compliance Matrix: (Units=1/GPa)
#
#
# Indices 1 2 3 4 5 6 
#
# 1 0.013276 -0.005816 -0.000853 0.000000 0.000000 0.000000
# 2 -0.005816 0.023084 -0.007759 0.000000 0.000000 0.000000
# 3 -0.000853 -0.007759 0.012693 0.000000 0.000000 0.000000
# 4 0.000000 0.000000 0.000000 0.018232 0.000000 0.000000
# 5 0.000000 0.000000 0.000000 0.000000 0.053804 0.000000
# 6 0.000000 0.000000 0.000000 0.000000 0.000000 0.037051
#
#
# Mechanical properties :
#
#
# Convention : Reuss Voigt Hill
#
# Bulk Modulus (GPa) = 49.51101 51.04964 50.28033
# Shear Modulus (GPa) = 25.80947 30.99042 28.39994
#
# Velocity S-wave (km/s) = 3.52437 3.86194 3.69701
# Velocity P-wave (km/s) = 6.35526 6.66741 6.51321
#
# Compressibility (1/GPa) = 0.02019753
#
# Stress axis : x y z
#
# Youngs Moduli (GPa) = 75.32477 43.31954 78.78520
#
# Poissons Ratio (x) = 0.25194 0.06721
# Poissons Ratio (y) = 0.43808 0.61127
# Poissons Ratio (z) = 0.06426 0.33610
#
# Static dielectric constant tensor:
#      x y z
#    x 3.932130 0.000000 0.000000 
#    y 0.000000 2.822110 0.000000 
#    z 0.000000 0.000000 3.887340 
# 
# 
# High freq. dielectric constant tensor:
#      x y z
#    x 1.812300 0.000000 0.000000 
#    y 0.000000 1.788890 0.000000 
#    z 0.000000 0.000000 1.823420 
# 
# From -- ./inp_files/32251.got.cif
#   From: 2010.03.12/outbox.cif.g09.slc.cpg/sg63_17_cif.got.tgz:32251.got - 2010.04.10 19:34:48.
