data_PCOD8257678
_publ_section_title
;
Structure prediction by ZEFSAII (Michael W. Deem and Ramdas Pophale) SiO2 
 PCOD8257678
Probable space group: C M C M
;
_chemical_formula_sum "Si O2"
_cell_formula_units_Z 80
_cell_length_a 19.852130
_cell_length_b 8.008271
_cell_length_c 26.294331
_cell_angle_alpha 90.000000
_cell_angle_beta 90.000000
_cell_angle_gamma 90.000000
_cell_volume 4180.305268
_symmetry_space_group_name_H-M "C M C M"
_symmetry_group_IT_number 63
_symmetry_cell_setting 'orthorhombic'
loop_
_space_group_symop_operation_xyz
x,y,z
-x,-y,1/2+z
x,-y,-z
-x,y,1/2-z
-x,-y,-z
x,y,1/2-z
-x,y,z
x,-y,1/2+z
1/2+x,1/2+y,z
1/2-x,1/2-y,1/2+z
1/2+x,1/2-y,-z
1/2-x,1/2+y,1/2-z
1/2-x,1/2-y,-z
1/2+x,1/2+y,1/2-z
1/2-x,1/2+y,z
1/2+x,1/2-y,1/2+z
loop_
_atom_site_type_symbol
_atom_site_label
_atom_site_fract_x
_atom_site_fract_y
_atom_site_fract_z
Si Si1 0.649141 0.557327 0.750000
Si Si2 0.275341 0.840094 0.908550
Si Si3 0.320393 0.132281 0.651871
Si Si4 0.790010 0.425967 0.750000
Si Si5 0.578808 0.421462 0.847508
Si Si6 0.150253 0.032758 0.944970
O O1 0.708368 0.417434 0.750000
O O2 0.680425 0.741025 0.750000
O O3 0.605016 0.532602 0.800544
O O4 0.246272 0.748624 0.857146
O O5 0.320218 0.719353 0.942816
O O6 0.321666 0.997635 0.893921
O O7 0.210172 0.898493 0.939943
O O8 0.388556 0.238109 0.652159
O O9 0.316123 0.031392 0.703086
O O10 0.500000 0.397304 0.841727
O O11 0.595515 0.514091 0.900353
O O12 0.116172 0.000000 0.000000
#
# Coordination Sequence:
#
# PCOD8257678 Si02
#       6
#     8  16  16   8  16  16
#     4  12  23  37  60  86 113 141 175 226 279 328
#     4   9  18  33  54  86 113 135 174 228 287 326
#     4  10  19  33  55  81 113 143 175 224 274 323
#     4  12  20  33  60  90 108 131 175 228 285 328
#     4  11  24  40  54  74 111 154 189 218 259 321
#     4  10  19  34  59  85 112 143 178 228 279 325
#
# _framework density 19.137357999999999
#
# number of rings (size 3 to 8) (size 9 to 14) (size 15 to 20)
#    0.000    1.600    0.000    8.700    0.000    0.400 
#    0.000    5.000    0.000    1.200    0.000    0.000 
#    0.000    0.000    0.000    0.000    0.000    0.000 
#
# Total GULP energy -496012.358106 kJ/mol
# GULP energy per Si atom -12400.308953 kJ/mol
# Density = 1.909380 g / cm^3
# Si number density = 19.137358 Si / 1000 Ang^3
#
#
#
# Elastic Constant Matrix: (Units=GPa)
#
#
# Indices 1 2 3 4 5 6 
#
# 1 99.2288 40.2121 38.4797 0.0000 0.0000 0.0000
# 2 40.2121 111.0343 31.4009 0.0000 0.0000 0.0000
# 3 38.4797 31.4009 130.1242 0.0000 0.0000 0.0000
# 4 0.0000 0.0000 0.0000 20.2346 0.0000 0.0000
# 5 0.0000 0.0000 0.0000 0.0000 7.1339 0.0000
# 6 0.0000 0.0000 0.0000 0.0000 0.0000 17.4973
#
#
#
# Elastic Compliance Matrix: (Units=1/GPa)
#
#
# Indices 1 2 3 4 5 6 
#
# 1 0.012722 -0.003803 -0.002844 0.000000 0.000000 0.000000
# 2 -0.003803 0.010803 -0.001482 0.000000 0.000000 0.000000
# 3 -0.002844 -0.001482 0.008884 0.000000 0.000000 0.000000
# 4 0.000000 0.000000 0.000000 0.049420 0.000000 0.000000
# 5 0.000000 0.000000 0.000000 0.000000 0.140175 0.000000
# 6 0.000000 0.000000 0.000000 0.000000 0.000000 0.057152
#
#
# Mechanical properties :
#
#
# Convention : Reuss Voigt Hill
#
# Bulk Modulus (GPa) = 61.92250 62.28586 62.10418
# Shear Modulus (GPa) = 16.62247 24.32613 20.47430
#
# Velocity S-wave (km/s) = 2.95038 3.56916 3.27442
# Velocity P-wave (km/s) = 6.63577 7.04291 6.84237
#
# Compressibility (1/GPa) = 0.01614922
#
# Stress axis : x y z
#
# Youngs Moduli (GPa) = 78.60486 92.56950 112.56476
#
# Poissons Ratio (x) = 0.35204 0.32017
# Poissons Ratio (y) = 0.29893 0.16685
# Poissons Ratio (z) = 0.22358 0.13721
#
# Static dielectric constant tensor:
#      x y z
#    x 3.118710 0.000000 0.000000 
#    y 0.000000 3.774530 0.000000 
#    z 0.000000 0.000000 3.600900 
# 
# 
# High freq. dielectric constant tensor:
#      x y z
#    x 1.697530 0.000000 0.000000 
#    y 0.000000 1.759660 0.000000 
#    z 0.000000 0.000000 1.755270 
# 
# From -- ./inp_files/64289.got.cif
#   From: 2010.03.12/outbox.cif.g09.slc.cpg/sg63_33_cif.got.tgz:64289.got - 2010.04.10 19:34:48.
