data_PCOD8257375
_publ_section_title
;
Structure prediction by ZEFSAII (Michael W. Deem and Ramdas Pophale) SiO2 
 PCOD8257375
Probable space group: C M C M
;
_chemical_formula_sum "Si O2"
_cell_formula_units_Z 96
_cell_length_a 24.570566
_cell_length_b 15.165803
_cell_length_c 14.222673
_cell_angle_alpha 90.000000
_cell_angle_beta 90.000000
_cell_angle_gamma 90.000000
_cell_volume 5299.828256
_symmetry_space_group_name_H-M "C M C M"
_symmetry_group_IT_number 63
_symmetry_cell_setting 'orthorhombic'
loop_
_space_group_symop_operation_xyz
x,y,z
-x,-y,1/2+z
x,-y,-z
-x,y,1/2-z
-x,-y,-z
x,y,1/2-z
-x,y,z
x,-y,1/2+z
1/2+x,1/2+y,z
1/2-x,1/2-y,1/2+z
1/2+x,1/2-y,-z
1/2-x,1/2+y,1/2-z
1/2-x,1/2-y,-z
1/2+x,1/2+y,1/2-z
1/2-x,1/2+y,z
1/2+x,1/2-y,1/2+z
loop_
_atom_site_type_symbol
_atom_site_label
_atom_site_fract_x
_atom_site_fract_y
_atom_site_fract_z
Si Si1 0.749473 0.814802 0.357748
Si Si2 0.434915 0.820923 0.250000
Si Si3 0.616076 0.079705 0.064496
Si Si4 0.629633 0.230233 0.571485
Si Si5 0.436386 0.976923 0.750000
Si Si6 0.822296 0.903856 0.990536
Si Si7 0.727605 0.115791 0.356634
O O1 0.745790 0.847835 0.250000
O O2 0.689101 0.806692 0.400560
O O3 0.785096 0.882488 0.418432
O O4 0.779897 0.721196 0.364057
O O5 0.500000 0.813207 0.250000
O O6 0.410832 0.770946 0.159646
O O7 0.413991 0.922517 0.250000
O O8 0.582455 0.078594 0.160315
O O9 0.679640 0.067905 0.087427
O O10 0.604017 0.170355 0.010385
O O11 0.595964 0.000000 0.000000
O O12 0.632691 0.329343 0.530059
O O13 0.500000 0.982305 0.750000
O O14 0.784729 0.912479 0.899032
O O15 0.850685 0.000000 0.000000
O O16 0.726149 0.083035 0.250000
#
# Coordination Sequence:
#
# PCOD8257375 Si02
#       7
#    16   8  16  16   8  16  16
#     4  10  19  33  53  79 117 153 186 230 267 330
#     4  11  24  42  63  85 111 145 190 243 297 345
#     4  12  21  34  58  80 112 157 186 226 280 344
#     4  11  21  39  59  83 116 153 194 234 282 341
#     4  11  26  40  55  87 115 139 188 243 293 349
#     4  11  22  35  52  85 121 153 193 233 274 331
#     4  10  19  32  52  78 112 155 189 219 269 335
#
# _framework density 18.113793999999999
#
# number of rings (size 3 to 8) (size 9 to 14) (size 15 to 20)
#    0.000    1.167    6.667    1.500    1.167    1.667 
#    0.000    0.000    0.000    0.500    0.000    1.167 
#    0.000    0.000    0.000    0.000    0.000    0.000 
#
# Total GULP energy -595279.334906 kJ/mol
# GULP energy per Si atom -12401.652811 kJ/mol
# Density = 1.807257 g / cm^3
# Si number density = 18.113794 Si / 1000 Ang^3
#
#
#
# Elastic Constant Matrix: (Units=GPa)
#
#
# Indices 1 2 3 4 5 6 
#
# 1 46.6460 31.1013 23.7516 0.0000 0.0000 0.0000
# 2 31.1013 128.6843 56.5741 0.0000 0.0000 0.0000
# 3 23.7516 56.5741 130.5456 0.0000 0.0000 0.0000
# 4 0.0000 0.0000 0.0000 29.7010 0.0000 0.0000
# 5 0.0000 0.0000 0.0000 0.0000 0.9064 0.0000
# 6 0.0000 0.0000 0.0000 0.0000 0.0000 16.8084
#
#
#
# Elastic Compliance Matrix: (Units=1/GPa)
#
#
# Indices 1 2 3 4 5 6 
#
# 1 0.026200 -0.005234 -0.002499 0.000000 0.000000 0.000000
# 2 -0.005234 0.010645 -0.003661 0.000000 0.000000 0.000000
# 3 -0.002499 -0.003661 0.009701 0.000000 0.000000 0.000000
# 4 0.000000 0.000000 0.000000 0.033669 0.000000 0.000000
# 5 0.000000 0.000000 0.000000 0.000000 1.103268 0.000000
# 6 0.000000 0.000000 0.000000 0.000000 0.000000 0.059494
#
#
# Mechanical properties :
#
#
# Convention : Reuss Voigt Hill
#
# Bulk Modulus (GPa) = 42.08813 58.74778 50.41795
# Shear Modulus (GPa) = 3.92562 22.44642 13.18602
#
# Velocity S-wave (km/s) = 1.47374 3.52403 2.70099
# Velocity P-wave (km/s) = 5.11681 7.00439 6.13364
#
# Compressibility (1/GPa) = 0.02375967
#
# Stress axis : x y z
#
# Youngs Moduli (GPa) = 38.16801 93.93696 103.07778
#
# Poissons Ratio (x) = 0.49163 0.25757
# Poissons Ratio (y) = 0.19976 0.37738
# Poissons Ratio (z) = 0.09537 0.34392
#
# Static dielectric constant tensor:
#      x y z
#    x 2.963030 0.000000 0.000000 
#    y 0.000000 3.500680 0.000000 
#    z 0.000000 0.000000 3.599030 
# 
# 
# High freq. dielectric constant tensor:
#      x y z
#    x 1.653350 0.000000 0.000000 
#    y 0.000000 1.693830 0.000000 
#    z 0.000000 0.000000 1.725240 
# 
# From -- ./inp_files/36801.got.cif
#   From: 2010.03.12/outbox.cif.g09.slc.cpg/sg63_19_cif.got.tgz:36801.got - 2010.04.10 19:34:48.
