data_PCOD8257696
_publ_section_title
;
Structure prediction by ZEFSAII (Michael W. Deem and Ramdas Pophale) SiO2 
 PCOD8257696
Probable space group: C M C M
;
_chemical_formula_sum "Si O2"
_cell_formula_units_Z 128
_cell_length_a 12.852980
_cell_length_b 22.840609
_cell_length_c 22.851698
_cell_angle_alpha 90.000000
_cell_angle_beta 90.000000
_cell_angle_gamma 90.000000
_cell_volume 6708.570483
_symmetry_space_group_name_H-M "C M C M"
_symmetry_group_IT_number 63
_symmetry_cell_setting 'orthorhombic'
loop_
_space_group_symop_operation_xyz
x,y,z
-x,-y,1/2+z
x,-y,-z
-x,y,1/2-z
-x,-y,-z
x,y,1/2-z
-x,y,z
x,-y,1/2+z
1/2+x,1/2+y,z
1/2-x,1/2-y,1/2+z
1/2+x,1/2-y,-z
1/2-x,1/2+y,1/2-z
1/2-x,1/2-y,-z
1/2+x,1/2+y,1/2-z
1/2-x,1/2+y,z
1/2+x,1/2-y,1/2+z
loop_
_atom_site_type_symbol
_atom_site_label
_atom_site_fract_x
_atom_site_fract_y
_atom_site_fract_z
Si Si1 0.619948 0.292980 0.507896
Si Si2 0.113121 0.071073 0.819264
Si Si3 0.379121 0.442899 0.815497
Si Si4 0.811939 0.323307 0.060794
Si Si5 0.242322 0.674630 0.684788
Si Si6 0.377799 0.932227 0.989524
Si Si7 0.748759 0.363789 0.601735
Si Si8 0.619069 0.214324 0.314602
O O1 0.500000 0.311569 0.497976
O O2 0.688334 0.310536 0.450829
O O3 0.624078 0.223215 0.521331
O O4 0.670974 0.326850 0.561900
O O5 0.103160 0.066124 0.750000
O O6 0.204452 0.114614 0.836581
O O7 0.000000 0.090837 0.844332
O O8 0.141413 0.006766 0.843924
O O9 0.334502 0.440503 0.750000
O O10 0.500000 0.427725 0.816149
O O11 0.321584 0.393840 0.850841
O O12 0.836290 0.312822 0.130482
O O13 0.845801 0.389190 0.043188
O O14 0.188526 0.669093 0.750000
O O15 0.331761 0.721964 0.689182
O O16 0.500000 0.927127 0.977502
O O17 0.314884 0.911771 0.932844
O O18 0.346664 0.000000 0.000000
O O19 0.828348 0.321934 0.634408
O O20 0.629728 0.184568 0.250000
O O21 0.500000 0.222171 0.332510
#
# Coordination Sequence:
#
# PCOD8257696 Si02
#       8
#    16  16  16  16  16  16  16  16
#     4  10  21  37  56  82 112 146 186 227 275 327
#     4   8  15  28  46  72 104 140 179 214 263 328
#     4   9  18  32  52  79 111 149 186 222 271 332
#     4  10  21  38  59  85 108 148 185 229 278 334
#     4  10  19  33  55  84 115 142 176 221 280 339
#     4  10  23  41  61  81 106 143 191 242 286 332
#     4  11  20  35  56  81 109 145 190 232 276 330
#     4  10  20  33  52  82 118 148 180 229 282 334
#
# _framework density 19.080071
#
# number of rings (size 3 to 8) (size 9 to 14) (size 15 to 20)
#    0.000    2.250    1.250    2.625    1.750    2.500 
#    0.000    0.000    0.000    4.125    0.000    1.750 
#    0.000    0.000    0.000    0.000    0.000    0.000 
#
# Total GULP energy -793139.258671 kJ/mol
# GULP energy per Si atom -12392.800917 kJ/mol
# Density = 1.903664 g / cm^3
# Si number density = 19.080071 Si / 1000 Ang^3
#
#
#
# Elastic Constant Matrix: (Units=GPa)
#
#
# Indices 1 2 3 4 5 6 
#
# 1 53.7859 28.9256 20.8688 0.0000 0.0000 0.0000
# 2 28.9256 93.2144 25.0323 0.0000 0.0000 0.0000
# 3 20.8688 25.0323 92.9992 0.0000 0.0000 0.0000
# 4 0.0000 0.0000 0.0000 75.7794 0.0000 0.0000
# 5 0.0000 0.0000 0.0000 0.0000 22.0634 0.0000
# 6 0.0000 0.0000 0.0000 0.0000 0.0000 22.4492
#
#
#
# Elastic Compliance Matrix: (Units=1/GPa)
#
#
# Indices 1 2 3 4 5 6 
#
# 1 0.023353 -0.006295 -0.003546 0.000000 0.000000 0.000000
# 2 -0.006295 0.013260 -0.002157 0.000000 0.000000 0.000000
# 3 -0.003546 -0.002157 0.012129 0.000000 0.000000 0.000000
# 4 0.000000 0.000000 0.000000 0.013196 0.000000 0.000000
# 5 0.000000 0.000000 0.000000 0.000000 0.045324 0.000000
# 6 0.000000 0.000000 0.000000 0.000000 0.000000 0.044545
#
#
# Mechanical properties :
#
#
# Convention : Reuss Voigt Hill
#
# Bulk Modulus (GPa) = 40.40753 43.29477 41.85115
# Shear Modulus (GPa) = 27.16625 35.06993 31.11809
#
# Velocity S-wave (km/s) = 3.77742 4.29189 4.04285
# Velocity P-wave (km/s) = 6.34422 6.87755 6.61626
#
# Compressibility (1/GPa) = 0.02474786
#
# Stress axis : x y z
#
# Youngs Moduli (GPa) = 42.82056 75.41245 82.44662
#
# Poissons Ratio (x) = 0.47468 0.29237
# Poissons Ratio (y) = 0.26953 0.17782
# Poissons Ratio (z) = 0.15185 0.16265
#
# Static dielectric constant tensor:
#      x y z
#    x 3.294710 0.000000 0.000000 
#    y 0.000000 3.653220 0.000000 
#    z 0.000000 0.000000 3.511070 
# 
# 
# High freq. dielectric constant tensor:
#      x y z
#    x 1.720240 0.000000 0.000000 
#    y 0.000000 1.747320 0.000000 
#    z 0.000000 0.000000 1.740990 
# 
# From -- ./inp_files/62045.got.cif
#   From: 2010.03.12/outbox.cif.g09.slc.cpg/sg63_32_cif.got.tgz:62045.got - 2010.04.10 19:34:48.
