data_PCOD8257346
_publ_section_title
;
Structure prediction by ZEFSAII (Michael W. Deem and Ramdas Pophale) SiO2 
 PCOD8257346
Probable space group: C M C M
;
_chemical_formula_sum "Si O2"
_cell_formula_units_Z 88
_cell_length_a 21.370200
_cell_length_b 22.813662
_cell_length_c 10.020183
_cell_angle_alpha 90.000000
_cell_angle_beta 90.000000
_cell_angle_gamma 90.000000
_cell_volume 4885.165066
_symmetry_space_group_name_H-M "C M C M"
_symmetry_group_IT_number 63
_symmetry_cell_setting 'orthorhombic'
loop_
_space_group_symop_operation_xyz
x,y,z
-x,-y,1/2+z
x,-y,-z
-x,y,1/2-z
-x,-y,-z
x,y,1/2-z
-x,y,z
x,-y,1/2+z
1/2+x,1/2+y,z
1/2-x,1/2-y,1/2+z
1/2+x,1/2-y,-z
1/2-x,1/2+y,1/2-z
1/2-x,1/2-y,-z
1/2+x,1/2+y,1/2-z
1/2-x,1/2+y,z
1/2+x,1/2-y,1/2+z
loop_
_atom_site_type_symbol
_atom_site_label
_atom_site_fract_x
_atom_site_fract_y
_atom_site_fract_z
Si Si1 0.863078 0.444078 0.903703
Si Si2 0.574413 0.414612 0.250000
Si Si3 0.573914 0.633300 0.028114
Si Si4 0.702783 0.173548 0.096110
Si Si5 0.833583 0.228965 0.400627
Si Si6 0.574041 0.455312 0.750000
Si Si7 0.500000 0.051422 0.398274
O O1 0.852553 0.464198 0.750000
O O2 0.813903 0.393334 0.942825
O O3 0.933502 0.415209 0.919737
O O4 0.852906 0.500000 0.000000
O O5 0.500000 0.419889 0.250000
O O6 0.597776 0.379367 0.378840
O O7 0.603879 0.479907 0.250000
O O8 0.500000 0.641145 0.036530
O O9 0.602827 0.693264 0.080980
O O10 0.596656 0.579076 0.118798
O O11 0.684342 0.185736 0.250000
O O12 0.776108 0.184687 0.069895
O O13 0.663768 0.217154 0.002445
O O14 0.829203 0.253652 0.250000
O O15 0.500000 0.460744 0.750000
O O16 0.500000 0.024406 0.250000
O O17 0.500000 0.000000 0.500000
#
# Coordination Sequence:
#
# PCOD8257346 Si02
#       7
#    16   8  16  16  16   8   8
#     4   9  17  32  54  79 107 133 163 206 255 305
#     4   9  18  30  48  75 104 136 175 205 254 314
#     4  10  19  32  52  76 105 134 169 219 262 298
#     4   9  20  37  56  74  99 138 176 211 250 303
#     4  10  20  36  55  73 100 139 179 211 253 304
#     4   9  16  30  50  71 100 140 169 205 256 308
#     4   8  14  26  48  74 102 132 158 190 247 306
#
# _framework density 18.013722999999999
#
# number of rings (size 3 to 8) (size 9 to 14) (size 15 to 20)
#    0.000    2.727    0.909    0.545    1.273    2.909 
#    1.636    1.818    0.000    0.000    0.000    0.000 
#    0.000    0.000    0.000    0.000    0.000    0.000 
#
# Total GULP energy -545305.284667 kJ/mol
# GULP energy per Si atom -12393.301924 kJ/mol
# Density = 1.797272 g / cm^3
# Si number density = 18.013723 Si / 1000 Ang^3
#
#
#
# Elastic Constant Matrix: (Units=GPa)
#
#
# Indices 1 2 3 4 5 6 
#
# 1 40.7313 37.2175 30.3814 0.0000 0.0000 0.0000
# 2 37.2175 100.4939 50.7670 0.0000 0.0000 0.0000
# 3 30.3814 50.7670 105.3232 0.0000 0.0000 0.0000
# 4 0.0000 0.0000 0.0000 29.3141 0.0000 0.0000
# 5 0.0000 0.0000 0.0000 0.0000 18.4287 0.0000
# 6 0.0000 0.0000 0.0000 0.0000 0.0000 25.0469
#
#
#
# Elastic Compliance Matrix: (Units=1/GPa)
#
#
# Indices 1 2 3 4 5 6 
#
# 1 0.039580 -0.011752 -0.005753 0.000000 0.000000 0.000000
# 2 -0.011752 0.016643 -0.004632 0.000000 0.000000 0.000000
# 3 -0.005753 -0.004632 0.013387 0.000000 0.000000 0.000000
# 4 0.000000 0.000000 0.000000 0.034113 0.000000 0.000000
# 5 0.000000 0.000000 0.000000 0.000000 0.054263 0.000000
# 6 0.000000 0.000000 0.000000 0.000000 0.000000 0.039925
#
#
# Mechanical properties :
#
#
# Convention : Reuss Voigt Hill
#
# Bulk Modulus (GPa) = 39.46913 53.69781 46.58347
# Shear Modulus (GPa) = 19.94956 23.10343 21.52650
#
# Velocity S-wave (km/s) = 3.33147 3.58515 3.46064
# Velocity P-wave (km/s) = 6.06271 6.85652 6.47179
#
# Compressibility (1/GPa) = 0.02533625
#
# Stress axis : x y z
#
# Youngs Moduli (GPa) = 25.26498 60.08388 74.70079
#
# Poissons Ratio (x) = 0.70613 0.42972
# Poissons Ratio (y) = 0.29693 0.34603
# Poissons Ratio (z) = 0.14534 0.27832
#
# Static dielectric constant tensor:
#      x y z
#    x 3.420900 0.000000 0.000000 
#    y 0.000000 3.151320 0.000000 
#    z 0.000000 0.000000 3.578010 
# 
# 
# High freq. dielectric constant tensor:
#      x y z
#    x 1.678120 0.000000 0.000000 
#    y 0.000000 1.672670 0.000000 
#    z 0.000000 0.000000 1.714130 
# 
# From -- ./inp_files/8268.got.cif
#   From: 2010.03.12/outbox.cif.g09.slc.cpg/sg63_5_cif.got.tgz:8268.got - 2010.04.10 19:34:48.
