data_PCOD8257249
_publ_section_title
;
Structure prediction by ZEFSAII (Michael W. Deem and Ramdas Pophale) SiO2 
 PCOD8257249
Probable space group: C M C M
;
_chemical_formula_sum "Si O2"
_cell_formula_units_Z 96
_cell_length_a 12.939840
_cell_length_b 22.308564
_cell_length_c 19.185257
_cell_angle_alpha 90.000000
_cell_angle_beta 90.000000
_cell_angle_gamma 90.000000
_cell_volume 5538.193726
_symmetry_space_group_name_H-M "C M C M"
_symmetry_group_IT_number 63
_symmetry_cell_setting 'orthorhombic'
loop_
_space_group_symop_operation_xyz
x,y,z
-x,-y,1/2+z
x,-y,-z
-x,y,1/2-z
-x,-y,-z
x,y,1/2-z
-x,y,z
x,-y,1/2+z
1/2+x,1/2+y,z
1/2-x,1/2-y,1/2+z
1/2+x,1/2-y,-z
1/2-x,1/2+y,1/2-z
1/2-x,1/2-y,-z
1/2+x,1/2+y,1/2-z
1/2-x,1/2+y,z
1/2+x,1/2-y,1/2+z
loop_
_atom_site_type_symbol
_atom_site_label
_atom_site_fract_x
_atom_site_fract_y
_atom_site_fract_z
Si Si1 0.619445 0.096311 0.171677
Si Si2 0.300549 0.830416 0.949132
Si Si3 0.881444 0.882017 0.170828
Si Si4 0.615684 0.939376 0.031290
Si Si5 0.693696 0.964425 0.173077
Si Si6 0.117524 0.200469 0.959708
O O1 0.617146 0.120423 0.250000
O O2 0.500000 0.087659 0.145164
O O3 0.685014 0.144230 0.128257
O O4 0.685210 0.035676 0.165413
O O5 0.369982 0.771286 0.950597
O O6 0.334956 0.879106 0.004661
O O7 0.182599 0.818058 0.971739
O O8 0.866252 0.856083 0.250000
O O9 0.811152 0.941501 0.161001
O O10 0.849376 0.832432 0.112833
O O11 0.000000 0.902004 0.159784
O O12 0.500000 0.940025 0.003878
O O13 0.620393 0.935684 0.114925
O O14 0.670169 0.000000 0.000000
O O15 0.653982 0.945013 0.250000
O O16 0.000000 0.184739 0.977517
#
# Coordination Sequence:
#
# PCOD8257249 Si02
#       6
#    16  16  16  16  16  16
#     4  10  20  34  54  80 107 135 171 217 265 311
#     4  11  21  35  54  78 105 135 172 218 262 309
#     4   9  18  34  54  75 102 137 178 218 254 299
#     4  11  20  31  51  77 105 136 169 209 257 312
#     4  10  19  32  50  75 107 137 166 207 258 309
#     4  10  21  36  54  76 103 138 177 217 261 304
#
# _framework density 17.334171000000001
#
# number of rings (size 3 to 8) (size 9 to 14) (size 15 to 20)
#    0.000    1.833    3.333    2.000    0.000    1.667 
#    0.000    2.500    0.000    4.500    0.000    0.000 
#    0.000    0.000    0.000    0.000    0.000    0.000 
#
# Total GULP energy -594767.274483 kJ/mol
# GULP energy per Si atom -12390.984885 kJ/mol
# Density = 1.729472 g / cm^3
# Si number density = 17.334171 Si / 1000 Ang^3
#
#
#
# Elastic Constant Matrix: (Units=GPa)
#
#
# Indices 1 2 3 4 5 6 
#
# 1 67.6783 42.9286 38.8692 0.0000 0.0000 0.0000
# 2 42.9286 108.4984 48.2520 0.0000 0.0000 0.0000
# 3 38.8692 48.2520 115.8900 0.0000 0.0000 0.0000
# 4 0.0000 0.0000 0.0000 28.4120 0.0000 0.0000
# 5 0.0000 0.0000 0.0000 0.0000 24.5897 0.0000
# 6 0.0000 0.0000 0.0000 0.0000 0.0000 20.1257
#
#
#
# Elastic Compliance Matrix: (Units=1/GPa)
#
#
# Indices 1 2 3 4 5 6 
#
# 1 0.021482 -0.006499 -0.004499 0.000000 0.000000 0.000000
# 2 -0.006499 0.013277 -0.003348 0.000000 0.000000 0.000000
# 3 -0.004499 -0.003348 0.011532 0.000000 0.000000 0.000000
# 4 0.000000 0.000000 0.000000 0.035196 0.000000 0.000000
# 5 0.000000 0.000000 0.000000 0.000000 0.040667 0.000000
# 6 0.000000 0.000000 0.000000 0.000000 0.000000 0.049688
#
#
# Mechanical properties :
#
#
# Convention : Reuss Voigt Hill
#
# Bulk Modulus (GPa) = 56.82298 61.35180 59.08739
# Shear Modulus (GPa) = 24.22465 25.42661 24.82563
#
# Velocity S-wave (km/s) = 3.74238 3.83410 3.78852
# Velocity P-wave (km/s) = 7.17816 7.42097 7.30058
#
# Compressibility (1/GPa) = 0.01759852
#
# Stress axis : x y z
#
# Youngs Moduli (GPa) = 46.55082 75.31757 86.71487
#
# Poissons Ratio (x) = 0.48946 0.39015
# Poissons Ratio (y) = 0.30252 0.29036
# Poissons Ratio (z) = 0.20944 0.25220
#
# Static dielectric constant tensor:
#      x y z
#    x 3.187280 0.000000 0.000000 
#    y 0.000000 3.256230 0.000000 
#    z 0.000000 0.000000 3.597530 
# 
# 
# High freq. dielectric constant tensor:
#      x y z
#    x 1.654870 0.000000 0.000000 
#    y 0.000000 1.662190 0.000000 
#    z 0.000000 0.000000 1.683890 
# 
# From -- ./inp_files/42523.got.cif
#   From: 2010.03.12/outbox.cif.g09.slc.cpg/sg63_22_cif.got.tgz:42523.got - 2010.04.10 19:34:48.
