data_PCOD8257377
_publ_section_title
;
Structure prediction by ZEFSAII (Michael W. Deem and Ramdas Pophale) SiO2 
 PCOD8257377
Probable space group: C M C M
;
_chemical_formula_sum "Si O2"
_cell_formula_units_Z 104
_cell_length_a 19.667812
_cell_length_b 32.983567
_cell_length_c 9.044018
_cell_angle_alpha 90.000000
_cell_angle_beta 90.000000
_cell_angle_gamma 90.000000
_cell_volume 5866.986473
_symmetry_space_group_name_H-M "C M C M"
_symmetry_group_IT_number 63
_symmetry_cell_setting 'orthorhombic'
loop_
_space_group_symop_operation_xyz
x,y,z
-x,-y,1/2+z
x,-y,-z
-x,y,1/2-z
-x,-y,-z
x,y,1/2-z
-x,y,z
x,-y,1/2+z
1/2+x,1/2+y,z
1/2-x,1/2-y,1/2+z
1/2+x,1/2-y,-z
1/2-x,1/2+y,1/2-z
1/2-x,1/2-y,-z
1/2+x,1/2+y,1/2-z
1/2-x,1/2+y,z
1/2+x,1/2-y,1/2+z
loop_
_atom_site_type_symbol
_atom_site_label
_atom_site_fract_x
_atom_site_fract_y
_atom_site_fract_z
Si Si1 0.362428 0.080414 0.576528
Si Si2 0.721693 0.542735 0.927034
Si Si3 0.186583 0.345584 0.582752
Si Si4 0.831984 0.878673 0.576356
Si Si5 0.820501 0.745626 0.080434
Si Si6 0.500000 0.042424 0.925961
Si Si7 0.421521 0.684889 0.924049
O O1 0.364219 0.080841 0.750000
O O2 0.299124 0.052817 0.523466
O O3 0.356714 0.126282 0.523510
O O4 0.432982 0.064262 0.512108
O O5 0.713066 0.540729 0.750000
O O6 0.700694 0.500000 0.000000
O O7 0.674054 0.578179 0.992896
O O8 0.175210 0.360201 0.750000
O O9 0.266680 0.350007 0.544509
O O10 0.156967 0.300792 0.557860
O O11 0.842640 0.886730 0.750000
O O12 0.896526 0.854999 0.510397
O O13 0.806154 0.755497 0.250000
O O14 0.879131 0.775641 0.020713
O O15 0.750000 0.750000 0.000000
O O16 0.500000 0.038848 0.750000
O O17 0.500000 0.000000 0.000000
O O18 0.411736 0.677572 0.750000
O O19 0.500000 0.692689 0.964064
#
# Coordination Sequence:
#
# PCOD8257377 Si02
#       7
#    16  16  16  16  16   8  16
#     4   9  19  33  49  70 100 137 174 215 263 313
#     4  10  19  32  52  79 106 134 170 215 265 315
#     4   9  18  32  50  75 102 130 172 219 261 306
#     4  10  19  33  54  78 105 136 172 216 261 310
#     4  10  19  33  54  79 106 138 177 221 263 308
#     4  10  20  34  50  70  98 134 178 220 262 316
#     4  10  21  36  54  78 109 144 179 217 264 318
#
# _framework density 17.726306000000001
#
# number of rings (size 3 to 8) (size 9 to 14) (size 15 to 20)
#    0.000    2.308    1.538    1.385    0.000    2.769 
#    1.385    0.000    0.000    0.462    0.000    0.000 
#    0.000    0.000    0.000    0.000    0.000    0.000 
#
# Total GULP energy -644722.816114 kJ/mol
# GULP energy per Si atom -12398.515694 kJ/mol
# Density = 1.768596 g / cm^3
# Si number density = 17.726306 Si / 1000 Ang^3
#
#
#
# Elastic Constant Matrix: (Units=GPa)
#
#
# Indices 1 2 3 4 5 6 
#
# 1 108.2826 63.4879 33.0781 0.0000 0.0000 0.0000
# 2 63.4879 123.7981 39.3504 0.0000 0.0000 0.0000
# 3 33.0781 39.3504 38.3050 0.0000 0.0000 0.0000
# 4 0.0000 0.0000 0.0000 33.6041 0.0000 0.0000
# 5 0.0000 0.0000 0.0000 0.0000 21.2256 0.0000
# 6 0.0000 0.0000 0.0000 0.0000 0.0000 25.9345
#
#
#
# Elastic Compliance Matrix: (Units=1/GPa)
#
#
# Indices 1 2 3 4 5 6 
#
# 1 0.014435 -0.005109 -0.007217 0.000000 0.000000 0.000000
# 2 -0.005109 0.013802 -0.009767 0.000000 0.000000 0.000000
# 3 -0.007217 -0.009767 0.042372 0.000000 0.000000 0.000000
# 4 0.000000 0.000000 0.000000 0.029758 0.000000 0.000000
# 5 0.000000 0.000000 0.000000 0.000000 0.047113 0.000000
# 6 0.000000 0.000000 0.000000 0.000000 0.000000 0.038559
#
#
# Mechanical properties :
#
#
# Convention : Reuss Voigt Hill
#
# Bulk Modulus (GPa) = 37.84528 60.24649 49.04588
# Shear Modulus (GPa) = 20.91753 25.11747 23.01750
#
# Velocity S-wave (km/s) = 3.43888 3.76834 3.60737
# Velocity P-wave (km/s) = 6.09623 7.27974 6.71411
#
# Compressibility (1/GPa) = 0.02642337
#
# Stress axis : x y z
#
# Youngs Moduli (GPa) = 69.27519 72.45197 23.60022
#
# Poissons Ratio (x) = 0.37014 0.17033
# Poissons Ratio (y) = 0.35391 0.23051
# Poissons Ratio (z) = 0.49997 0.70766
#
# Static dielectric constant tensor:
#      x y z
#    x 3.293730 0.000000 0.000000 
#    y 0.000000 3.619960 0.000000 
#    z 0.000000 0.000000 3.259000 
# 
# 
# High freq. dielectric constant tensor:
#      x y z
#    x 1.663440 0.000000 0.000000 
#    y 0.000000 1.692020 0.000000 
#    z 0.000000 0.000000 1.685610 
# 
# From -- ./inp_files/9118.got.cif
#   From: 2010.03.12/outbox.cif.g09.slc.cpg/sg63_5_cif.got.tgz:9118.got - 2010.04.10 19:34:48.
