data_PCOD8257686
_publ_section_title
;
Structure prediction by ZEFSAII (Michael W. Deem and Ramdas Pophale) SiO2 
 PCOD8257686
Probable space group: C M C M
;
_chemical_formula_sum "Si O2"
_cell_formula_units_Z 72
_cell_length_a 12.826913
_cell_length_b 26.850268
_cell_length_c 10.579409
_cell_angle_alpha 90.000000
_cell_angle_beta 90.000000
_cell_angle_gamma 90.000000
_cell_volume 3643.612483
_symmetry_space_group_name_H-M "C M C M"
_symmetry_group_IT_number 63
_symmetry_cell_setting 'orthorhombic'
loop_
_space_group_symop_operation_xyz
x,y,z
-x,-y,1/2+z
x,-y,-z
-x,y,1/2-z
-x,-y,-z
x,y,1/2-z
-x,y,z
x,-y,1/2+z
1/2+x,1/2+y,z
1/2-x,1/2-y,1/2+z
1/2+x,1/2-y,-z
1/2-x,1/2+y,1/2-z
1/2-x,1/2-y,-z
1/2+x,1/2+y,1/2-z
1/2-x,1/2+y,z
1/2+x,1/2-y,1/2+z
loop_
_atom_site_type_symbol
_atom_site_label
_atom_site_fract_x
_atom_site_fract_y
_atom_site_fract_z
Si Si1 0.623984 0.035676 0.250000
Si Si2 0.233457 0.500000 0.000000
Si Si3 0.122942 0.648729 0.250000
Si Si4 0.118732 0.080972 0.603175
Si Si5 0.117962 0.292423 0.503574
Si Si6 0.325570 0.690199 0.607814
O O1 0.500000 0.033570 0.250000
O O2 0.663097 0.007969 0.376096
O O3 0.666547 0.092454 0.250000
O O4 0.306252 0.547781 0.981958
O O5 0.160294 0.678852 0.372650
O O6 0.000000 0.646986 0.250000
O O7 0.150119 0.075530 0.750000
O O8 0.132746 0.137636 0.557220
O O9 0.000000 0.064055 0.580909
O O10 0.198895 0.307983 0.394691
O O11 0.122878 0.233055 0.523007
O O12 0.000000 0.307914 0.466038
O O13 0.364320 0.698439 0.750000
#
# Coordination Sequence:
#
# PCOD8257686 Si02
#       6
#     8   8   8  16  16  16
#     4  11  24  40  62  87 121 157 196 248 298 353
#     4  12  22  42  62  88 118 156 206 246 300 356
#     4   9  18  34  55  79 105 145 187 222 273 341
#     4  10  21  38  61  88 117 151 195 247 299 351
#     4  10  19  33  55  82 112 150 191 229 279 344
#     4  10  20  34  55  82 115 149 188 235 287 344
#
# _framework density 19.760608000000001
#
# number of rings (size 3 to 8) (size 9 to 14) (size 15 to 20)
#    0.000    1.778    2.222    2.667    0.000    1.333 
#    0.000    1.111    0.000    0.000    0.000    0.000 
#    0.000    0.000    0.000    0.000    0.000    0.000 
#
# Total GULP energy -446421.967226 kJ/mol
# GULP energy per Si atom -12400.610201 kJ/mol
# Density = 1.971563 g / cm^3
# Si number density = 19.760608 Si / 1000 Ang^3
#
#
#
# Elastic Constant Matrix: (Units=GPa)
#
#
# Indices 1 2 3 4 5 6 
#
# 1 91.1628 20.8240 23.8172 0.0000 0.0000 0.0000
# 2 20.8240 99.6715 33.4397 0.0000 0.0000 0.0000
# 3 23.8172 33.4397 68.8204 0.0000 0.0000 0.0000
# 4 0.0000 0.0000 0.0000 27.1700 0.0000 0.0000
# 5 0.0000 0.0000 0.0000 0.0000 13.9805 0.0000
# 6 0.0000 0.0000 0.0000 0.0000 0.0000 25.6991
#
#
#
# Elastic Compliance Matrix: (Units=1/GPa)
#
#
# Indices 1 2 3 4 5 6 
#
# 1 0.012211 -0.001354 -0.003568 0.000000 0.000000 0.000000
# 2 -0.001354 0.012137 -0.005429 0.000000 0.000000 0.000000
# 3 -0.003568 -0.005429 0.018403 0.000000 0.000000 0.000000
# 4 0.000000 0.000000 0.000000 0.036805 0.000000 0.000000
# 5 0.000000 0.000000 0.000000 0.000000 0.071528 0.000000
# 6 0.000000 0.000000 0.000000 0.000000 0.000000 0.038912
#
#
# Mechanical properties :
#
#
# Convention : Reuss Voigt Hill
#
# Bulk Modulus (GPa) = 45.35245 46.20184 45.77714
# Shear Modulus (GPa) = 22.93069 25.47483 24.20276
#
# Velocity S-wave (km/s) = 3.41020 3.59440 3.50351
# Velocity P-wave (km/s) = 6.20537 6.37635 6.29144
#
# Compressibility (1/GPa) = 0.02204953
#
# Stress axis : x y z
#
# Youngs Moduli (GPa) = 81.89425 82.39111 54.33838
#
# Poissons Ratio (x) = 0.11157 0.19388
# Poissons Ratio (y) = 0.11090 0.29499
# Poissons Ratio (z) = 0.29219 0.44729
#
# Static dielectric constant tensor:
#      x y z
#    x 3.546060 0.000000 0.000000 
#    y 0.000000 3.718800 0.000000 
#    z 0.000000 0.000000 3.424870 
# 
# 
# High freq. dielectric constant tensor:
#      x y z
#    x 1.770610 0.000000 0.000000 
#    y 0.000000 1.779220 0.000000 
#    z 0.000000 0.000000 1.748860 
# 
# From -- ./inp_files/17634.got.cif
#   From: 2010.03.12/outbox.cif.g09.slc.cpg/sg63_9_cif.got.tgz:17634.got - 2010.04.10 19:34:48.
