data_PCOD8257756
_publ_section_title
;
Structure prediction by ZEFSAII (Michael W. Deem and Ramdas Pophale) SiO2 
 PCOD8257756
Probable space group: C M C M
;
_chemical_formula_sum "Si O2"
_cell_formula_units_Z 96
_cell_length_a 11.155791
_cell_length_b 24.308453
_cell_length_c 19.821740
_cell_angle_alpha 90.000000
_cell_angle_beta 90.000000
_cell_angle_gamma 90.000000
_cell_volume 5375.259873
_symmetry_space_group_name_H-M "C M C M"
_symmetry_group_IT_number 63
_symmetry_cell_setting 'orthorhombic'
loop_
_space_group_symop_operation_xyz
x,y,z
-x,-y,1/2+z
x,-y,-z
-x,y,1/2-z
-x,-y,-z
x,y,1/2-z
-x,y,z
x,-y,1/2+z
1/2+x,1/2+y,z
1/2-x,1/2-y,1/2+z
1/2+x,1/2-y,-z
1/2-x,1/2+y,1/2-z
1/2-x,1/2-y,-z
1/2+x,1/2+y,1/2-z
1/2-x,1/2+y,z
1/2+x,1/2-y,1/2+z
loop_
_atom_site_type_symbol
_atom_site_label
_atom_site_fract_x
_atom_site_fract_y
_atom_site_fract_z
Si Si1 0.500000 0.394280 0.673979
Si Si2 0.363036 0.636111 0.827005
Si Si3 0.636160 0.544099 0.575902
Si Si4 0.732229 0.227013 0.600308
Si Si5 0.142679 0.673319 0.466207
Si Si6 0.000000 0.233770 0.175163
Si Si7 0.196547 0.926186 0.932387
O O1 0.500000 0.421675 0.750000
O O2 0.500000 0.330265 0.685784
O O3 0.382360 0.409108 0.631560
O O4 0.348029 0.619949 0.750000
O O5 0.500000 0.645092 0.848557
O O6 0.309736 0.585319 0.869057
O O7 0.294592 0.692164 0.841464
O O8 0.500000 0.524470 0.593825
O O9 0.725883 0.491384 0.577043
O O10 0.628753 0.575942 0.504343
O O11 0.820744 0.277300 0.583428
O O12 0.705145 0.187106 0.537344
O O13 0.611586 0.250090 0.630304
O O14 0.188941 0.614446 0.437375
O O15 0.000000 0.669990 0.473105
O O16 0.000000 0.261763 0.250000
#
# Coordination Sequence:
#
# PCOD8257756 Si02
#       7
#     8  16  16  16  16   8  16
#     4  11  22  35  57  89 114 144 186 233 292 341
#     4  10  21  36  56  86 120 151 186 230 284 345
#     4  10  19  33  59  86 112 147 191 232 296 334
#     4  11  21  37  58  82 118 148 186 234 282 334
#     4  11  23  36  58  86 111 149 196 232 279 337
#     4  11  22  36  57  85 114 149 186 227 284 342
#     4  11  19  37  58  81 118 145 183 244 284 334
#
# _framework density 17.859601999999999
#
# number of rings (size 3 to 8) (size 9 to 14) (size 15 to 20)
#    0.000    1.333    5.833    1.500    0.000    0.667 
#    0.000    1.667    1.833    1.500    0.000    0.000 
#    0.000    0.000    0.000    0.000    0.000    0.000 
#
# Total GULP energy -594906.172556 kJ/mol
# GULP energy per Si atom -12393.878595 kJ/mol
# Density = 1.781895 g / cm^3
# Si number density = 17.859602 Si / 1000 Ang^3
#
#
#
# Elastic Constant Matrix: (Units=GPa)
#
#
# Indices 1 2 3 4 5 6 
#
# 1 64.0956 41.1259 16.3519 0.0000 0.0000 0.0000
# 2 41.1259 102.7006 40.5428 0.0000 0.0000 0.0000
# 3 16.3519 40.5428 89.7779 0.0000 0.0000 0.0000
# 4 0.0000 0.0000 0.0000 24.8663 0.0000 0.0000
# 5 0.0000 0.0000 0.0000 0.0000 22.8055 0.0000
# 6 0.0000 0.0000 0.0000 0.0000 0.0000 4.1199
#
#
#
# Elastic Compliance Matrix: (Units=1/GPa)
#
#
# Indices 1 2 3 4 5 6 
#
# 1 0.020997 -0.008395 -0.000033 0.000000 0.000000 0.000000
# 2 -0.008395 0.015206 -0.005338 0.000000 0.000000 0.000000
# 3 -0.000033 -0.005338 0.013555 0.000000 0.000000 0.000000
# 4 0.000000 0.000000 0.000000 0.040215 0.000000 0.000000
# 5 0.000000 0.000000 0.000000 0.000000 0.043849 0.000000
# 6 0.000000 0.000000 0.000000 0.000000 0.000000 0.242726
#
#
# Mechanical properties :
#
#
# Convention : Reuss Voigt Hill
#
# Bulk Modulus (GPa) = 44.99264 50.29057 47.64161
# Shear Modulus (GPa) = 12.15101 20.92856 16.53979
#
# Velocity S-wave (km/s) = 2.61121 3.42693 3.04649
# Velocity P-wave (km/s) = 5.85989 6.62408 6.25367
#
# Compressibility (1/GPa) = 0.02222586
#
# Stress axis : x y z
#
# Youngs Moduli (GPa) = 47.62677 65.76388 73.77272
#
# Poissons Ratio (x) = 0.55208 0.00245
# Poissons Ratio (y) = 0.39982 0.39379
# Poissons Ratio (z) = 0.00158 0.35104
#
# Static dielectric constant tensor:
#      x y z
#    x 3.045760 0.000000 0.000000 
#    y 0.000000 3.453530 0.000000 
#    z 0.000000 0.000000 3.513230 
# 
# 
# High freq. dielectric constant tensor:
#      x y z
#    x 1.658720 0.000000 0.000000 
#    y 0.000000 1.701060 0.000000 
#    z 0.000000 0.000000 1.698730 
# 
# From -- ./inp_files/53087.got.cif
#   From: 2010.03.12/outbox.cif.g09.slc.cpg/sg63_27_cif.got.tgz:53087.got - 2010.04.10 19:34:48.
