data_PCOD8257146
_publ_section_title
;
Structure prediction by ZEFSAII (Michael W. Deem and Ramdas Pophale) SiO2 
 PCOD8257146
Probable space group: C M C M
;
_chemical_formula_sum "Si O2"
_cell_formula_units_Z 88
_cell_length_a 18.162682
_cell_length_b 28.807394
_cell_length_c 9.164147
_cell_angle_alpha 90.000000
_cell_angle_beta 90.000000
_cell_angle_gamma 90.000000
_cell_volume 4794.860745
_symmetry_space_group_name_H-M "C M C M"
_symmetry_group_IT_number 63
_symmetry_cell_setting 'orthorhombic'
loop_
_space_group_symop_operation_xyz
x,y,z
-x,-y,1/2+z
x,-y,-z
-x,y,1/2-z
-x,-y,-z
x,y,1/2-z
-x,y,z
x,-y,1/2+z
1/2+x,1/2+y,z
1/2-x,1/2-y,1/2+z
1/2+x,1/2-y,-z
1/2-x,1/2+y,1/2-z
1/2-x,1/2-y,-z
1/2+x,1/2+y,1/2-z
1/2-x,1/2+y,z
1/2+x,1/2-y,1/2+z
loop_
_atom_site_type_symbol
_atom_site_label
_atom_site_fract_x
_atom_site_fract_y
_atom_site_fract_z
Si Si1 0.295933 0.951052 0.423639
Si Si2 0.808816 0.195638 0.582304
Si Si3 0.658398 0.796708 0.581135
Si Si4 0.916465 0.623637 0.919184
Si Si5 0.146499 0.095932 0.920364
Si Si6 0.000000 0.048695 0.924712
O O1 0.295664 0.957952 0.250000
O O2 0.361825 0.916841 0.473090
O O3 0.219683 0.928857 0.483782
O O4 0.309507 0.000000 0.500000
O O5 0.780706 0.194204 0.750000
O O6 0.739211 0.192905 0.477912
O O7 0.857748 0.241795 0.555084
O O8 0.857222 0.150674 0.544862
O O9 0.655973 0.809736 0.750000
O O10 0.598037 0.827848 0.500816
O O11 0.903001 0.633600 0.750000
O O12 0.000000 0.607722 0.951075
O O13 0.148064 0.086763 0.750000
O O14 0.072206 0.074631 0.986168
O O15 0.000000 0.044747 0.750000
O O16 0.000000 0.000000 0.000000
#
# Coordination Sequence:
#
# PCOD8257146 Si02
#       6
#    16  16  16  16  16   8
#     4  10  20  35  55  77 102 134 177 221 266 317
#     4   9  17  33  55  78 107 143 178 213 259 321
#     4  10  19  31  53  84 110 136 174 225 270 306
#     4  10  21  38  57  74 104 150 186 215 264 330
#     4   9  17  33  55  77 103 139 177 212 254 320
#     4  10  20  34  54  78 104 138 176 214 267 316
#
# _framework density 18.352983999999999
#
# number of rings (size 3 to 8) (size 9 to 14) (size 15 to 20)
#    0.000    2.364    1.818    1.091    0.000    2.182 
#    1.636    0.909    0.000    0.000    0.000    0.000 
#    0.000    0.000    0.000    0.000    0.000    0.000 
#
# Total GULP energy -545500.613968 kJ/mol
# GULP energy per Si atom -12397.741227 kJ/mol
# Density = 1.831121 g / cm^3
# Si number density = 18.352984 Si / 1000 Ang^3
#
#
#
# Elastic Constant Matrix: (Units=GPa)
#
#
# Indices 1 2 3 4 5 6 
#
# 1 143.3554 84.9342 33.8563 0.0000 0.0000 0.0000
# 2 84.9342 163.9752 43.3605 0.0000 0.0000 0.0000
# 3 33.8563 43.3605 42.5141 0.0000 0.0000 0.0000
# 4 0.0000 0.0000 0.0000 32.7165 0.0000 0.0000
# 5 0.0000 0.0000 0.0000 0.0000 16.6528 0.0000
# 6 0.0000 0.0000 0.0000 0.0000 0.0000 28.9934
#
#
#
# Elastic Compliance Matrix: (Units=1/GPa)
#
#
# Indices 1 2 3 4 5 6 
#
# 1 0.010507 -0.004422 -0.003857 0.000000 0.000000 0.000000
# 2 -0.004422 0.010212 -0.006894 0.000000 0.000000 0.000000
# 3 -0.003857 -0.006894 0.033624 0.000000 0.000000 0.000000
# 4 0.000000 0.000000 0.000000 0.030566 0.000000 0.000000
# 5 0.000000 0.000000 0.000000 0.000000 0.060050 0.000000
# 6 0.000000 0.000000 0.000000 0.000000 0.000000 0.034491
#
#
# Mechanical properties :
#
#
# Convention : Reuss Voigt Hill
#
# Bulk Modulus (GPa) = 41.67147 74.90520 58.28833
# Shear Modulus (GPa) = 22.95762 28.18544 25.57153
#
# Velocity S-wave (km/s) = 3.54063 3.92311 3.73677
# Velocity P-wave (km/s) = 6.28249 7.83730 7.10257
#
# Compressibility (1/GPa) = 0.02399723
#
# Stress axis : x y z
#
# Youngs Moduli (GPa) = 95.17857 97.92414 29.74092
#
# Poissons Ratio (x) = 0.43305 0.11470
# Poissons Ratio (y) = 0.42090 0.20502
# Poissons Ratio (z) = 0.36707 0.67505
#
# Static dielectric constant tensor:
#      x y z
#    x 3.893150 0.000000 0.000000 
#    y 0.000000 3.579820 0.000000 
#    z 0.000000 0.000000 3.190750 
# 
# 
# High freq. dielectric constant tensor:
#      x y z
#    x 1.701070 0.000000 0.000000 
#    y 0.000000 1.725740 0.000000 
#    z 0.000000 0.000000 1.689080 
# 
# From -- ./inp_files/6832.got.cif
#   From: 2010.03.12/outbox.cif.g09.slc.cpg/sg63_4_cif.got.tgz:6832.got - 2010.04.10 19:34:48.
