data_PCOD8257700
_publ_section_title
;
Structure prediction by ZEFSAII (Michael W. Deem and Ramdas Pophale) SiO2 
 PCOD8257700
Probable space group: C M C M
;
_chemical_formula_sum "Si O2"
_cell_formula_units_Z 80
_cell_length_a 15.387124
_cell_length_b 28.964060
_cell_length_c 8.850526
_cell_angle_alpha 90.000000
_cell_angle_beta 90.000000
_cell_angle_gamma 90.000000
_cell_volume 3944.445632
_symmetry_space_group_name_H-M "C M C M"
_symmetry_group_IT_number 63
_symmetry_cell_setting 'orthorhombic'
loop_
_space_group_symop_operation_xyz
x,y,z
-x,-y,1/2+z
x,-y,-z
-x,y,1/2-z
-x,-y,-z
x,y,1/2-z
-x,y,z
x,-y,1/2+z
1/2+x,1/2+y,z
1/2-x,1/2-y,1/2+z
1/2+x,1/2-y,-z
1/2-x,1/2+y,1/2-z
1/2-x,1/2-y,-z
1/2+x,1/2+y,1/2-z
1/2-x,1/2+y,z
1/2+x,1/2-y,1/2+z
loop_
_atom_site_type_symbol
_atom_site_label
_atom_site_fract_x
_atom_site_fract_y
_atom_site_fract_z
Si Si1 0.349476 0.703207 0.922777
Si Si2 0.239038 0.549413 0.571227
Si Si3 0.095858 0.895692 0.429165
Si Si4 0.401861 0.887275 0.922772
Si Si5 0.644247 0.796096 0.421912
O O1 0.377429 0.711603 0.750000
O O2 0.390862 0.656344 0.989916
O O3 0.246773 0.697858 0.937305
O O4 0.385021 0.745759 0.020561
O O5 0.222604 0.500000 0.500000
O O6 0.241551 0.544514 0.750000
O O7 0.330087 0.570077 0.507096
O O8 0.160085 0.582609 0.528247
O O9 0.105193 0.893843 0.250000
O O10 0.000000 0.913454 0.478813
O O11 0.369589 0.890255 0.750000
O O12 0.500000 0.906299 0.937395
O O13 0.401468 0.834344 0.975762
O O14 0.613168 0.802016 0.250000
#
# Coordination Sequence:
#
# PCOD8257700 Si02
#       5
#    16  16  16  16  16
#     4   9  17  32  54  84 120 161 201 236 282 341
#     4  11  23  42  65  90 117 151 192 240 300 354
#     4   9  18  35  60  88 119 155 196 239 286 344
#     4  11  24  41  62  88 117 154 199 245 296 353
#     4  10  19  33  55  86 121 159 199 241 290 343
#
# _framework density 20.281686000000001
#
# number of rings (size 3 to 8) (size 9 to 14) (size 15 to 20)
#    0.000    2.000    2.000    1.800    0.000    4.000 
#    0.000    2.000    0.000    4.200    0.000    0.000 
#    0.000    0.000    0.000    0.000    0.000    0.000 
#
# Total GULP energy -496053.348305 kJ/mol
# GULP energy per Si atom -12401.333708 kJ/mol
# Density = 2.023552 g / cm^3
# Si number density = 20.281686 Si / 1000 Ang^3
#
#
#
# Elastic Constant Matrix: (Units=GPa)
#
#
# Indices 1 2 3 4 5 6 
#
# 1 88.9794 34.2752 26.6390 0.0000 0.0000 0.0000
# 2 34.2752 100.4640 26.7521 0.0000 0.0000 0.0000
# 3 26.6390 26.7521 70.9099 0.0000 0.0000 0.0000
# 4 0.0000 0.0000 0.0000 29.5701 0.0000 0.0000
# 5 0.0000 0.0000 0.0000 0.0000 21.3741 0.0000
# 6 0.0000 0.0000 0.0000 0.0000 0.0000 7.5719
#
#
#
# Elastic Compliance Matrix: (Units=1/GPa)
#
#
# Indices 1 2 3 4 5 6 
#
# 1 0.013797 -0.003699 -0.003788 0.000000 0.000000 0.000000
# 2 -0.003699 0.012057 -0.003159 0.000000 0.000000 0.000000
# 3 -0.003788 -0.003159 0.016717 0.000000 0.000000 0.000000
# 4 0.000000 0.000000 0.000000 0.033818 0.000000 0.000000
# 5 0.000000 0.000000 0.000000 0.000000 0.046786 0.000000
# 6 0.000000 0.000000 0.000000 0.000000 0.000000 0.132068
#
#
# Mechanical properties :
#
#
# Convention : Reuss Voigt Hill
#
# Bulk Modulus (GPa) = 46.99233 48.40953 47.70093
# Shear Modulus (GPa) = 17.62874 23.21570 20.42222
#
# Velocity S-wave (km/s) = 2.95141 3.38696 3.17666
# Velocity P-wave (km/s) = 5.90208 6.26225 6.08483
#
# Compressibility (1/GPa) = 0.02128007
#
# Stress axis : x y z
#
# Youngs Moduli (GPa) = 72.47800 82.94011 59.81822
#
# Poissons Ratio (x) = 0.30676 0.22659
# Poissons Ratio (y) = 0.26806 0.18898
# Poissons Ratio (z) = 0.27454 0.26203
#
# Static dielectric constant tensor:
#      x y z
#    x 3.731170 0.000000 0.000000 
#    y 0.000000 3.703850 0.000000 
#    z 0.000000 0.000000 3.515610 
# 
# 
# High freq. dielectric constant tensor:
#      x y z
#    x 1.795170 0.000000 0.000000 
#    y 0.000000 1.792030 0.000000 
#    z 0.000000 0.000000 1.773480 
# 
# From -- ./inp_files/6403.got.cif
#   From: 2010.03.12/outbox.cif.g09.slc.cpg/sg63_4_cif.got.tgz:6403.got - 2010.04.10 19:34:48.
