data_PCOD8257056
_publ_section_title
;
Structure prediction by ZEFSAII (Michael W. Deem and Ramdas Pophale) SiO2 
 PCOD8257056
Probable space group: C M C M
;
_chemical_formula_sum "Si O2"
_cell_formula_units_Z 96
_cell_length_a 19.187187
_cell_length_b 8.787149
_cell_length_c 26.628135
_cell_angle_alpha 90.000000
_cell_angle_beta 90.000000
_cell_angle_gamma 90.000000
_cell_volume 4489.521430
_symmetry_space_group_name_H-M "C M C M"
_symmetry_group_IT_number 63
_symmetry_cell_setting 'orthorhombic'
loop_
_space_group_symop_operation_xyz
x,y,z
-x,-y,1/2+z
x,-y,-z
-x,y,1/2-z
-x,-y,-z
x,y,1/2-z
-x,y,z
x,-y,1/2+z
1/2+x,1/2+y,z
1/2-x,1/2-y,1/2+z
1/2+x,1/2-y,-z
1/2-x,1/2+y,1/2-z
1/2-x,1/2-y,-z
1/2+x,1/2+y,1/2-z
1/2-x,1/2+y,z
1/2+x,1/2-y,1/2+z
loop_
_atom_site_type_symbol
_atom_site_label
_atom_site_fract_x
_atom_site_fract_y
_atom_site_fract_z
Si Si1 0.215852 0.885167 0.130726
Si Si2 0.161985 0.810006 0.602361
Si Si3 0.579235 0.337252 0.991589
Si Si4 0.080032 0.329104 0.193570
Si Si5 0.420484 0.065952 0.445845
Si Si6 0.339743 0.080449 0.154554
O O1 0.262603 0.771192 0.096548
O O2 0.167509 0.763701 0.162017
O O3 0.169177 0.005172 0.099592
O O4 0.266248 0.992803 0.164682
O O5 0.116465 0.752264 0.555315
O O6 0.126595 0.769166 0.655512
O O7 0.500000 0.356224 0.973851
O O8 0.614972 0.500000 0.000000
O O9 0.584196 0.247360 0.044125
O O10 0.091045 0.266673 0.250000
O O11 0.103780 0.507895 0.192381
O O12 0.000000 0.316808 0.177518
O O13 0.500000 0.017127 0.431613
O O14 0.366650 0.029041 0.401375
O O15 0.398813 0.000000 0.500000
#
# Coordination Sequence:
#
# PCOD8257056 Si02
#       6
#    16  16  16  16  16  16
#     4   9  20  35  55  78 107 147 187 215 264 327
#     4  10  19  38  56  78 115 147 180 233 271 313
#     4  10  20  33  52  79 108 143 187 228 273 326
#     4  10  21  38  62  87 107 136 177 220 276 333
#     4  10  19  31  50  74  99 136 182 221 267 320
#     4  10  19  37  54  76 110 140 174 225 264 309
#
# _framework density 21.383123999999999
#
# number of rings (size 3 to 8) (size 9 to 14) (size 15 to 20)
#    0.000    2.167    0.000    4.000    0.000    1.333 
#    0.000   33.333    0.000    2.000    0.000    0.000 
#    0.000    0.000    0.000    0.000    0.000    0.000 
#
# Total GULP energy -594666.273376 kJ/mol
# GULP energy per Si atom -12388.880695 kJ/mol
# Density = 2.133446 g / cm^3
# Si number density = 21.383124 Si / 1000 Ang^3
#
#
#
# Elastic Constant Matrix: (Units=GPa)
#
#
# Indices 1 2 3 4 5 6 
#
# 1 74.9877 15.9108 31.7768 0.0000 0.0000 0.0000
# 2 15.9108 87.7164 5.8476 0.0000 0.0000 0.0000
# 3 31.7768 5.8476 73.7310 0.0000 0.0000 0.0000
# 4 0.0000 0.0000 0.0000 20.2333 0.0000 0.0000
# 5 0.0000 0.0000 0.0000 0.0000 10.6867 0.0000
# 6 0.0000 0.0000 0.0000 0.0000 0.0000 28.6614
#
#
#
# Elastic Compliance Matrix: (Units=1/GPa)
#
#
# Indices 1 2 3 4 5 6 
#
# 1 0.016881 -0.002591 -0.007070 0.000000 0.000000 0.000000
# 2 -0.002591 0.011859 0.000176 0.000000 0.000000 0.000000
# 3 -0.007070 0.000176 0.016596 0.000000 0.000000 0.000000
# 4 0.000000 0.000000 0.000000 0.049424 0.000000 0.000000
# 5 0.000000 0.000000 0.000000 0.000000 0.093574 0.000000
# 6 0.000000 0.000000 0.000000 0.000000 0.000000 0.034890
#
#
# Mechanical properties :
#
#
# Convention : Reuss Voigt Hill
#
# Bulk Modulus (GPa) = 37.92726 38.16727 38.04726
# Shear Modulus (GPa) = 19.92179 24.10962 22.01570
#
# Velocity S-wave (km/s) = 3.05562 3.36148 3.21219
# Velocity P-wave (km/s) = 5.49769 5.74056 5.62044
#
# Compressibility (1/GPa) = 0.02636626
#
# Stress axis : x y z
#
# Youngs Moduli (GPa) = 59.23743 84.32724 60.25579
#
# Poissons Ratio (x) = 0.21847 0.42601
# Poissons Ratio (y) = 0.15347 -0.01061
# Poissons Ratio (z) = 0.41881 -0.01485
#
# Static dielectric constant tensor:
#      x y z
#    x 3.861560 0.000000 0.000000 
#    y 0.000000 4.307940 0.000000 
#    z 0.000000 0.000000 3.409220 
# 
# 
# High freq. dielectric constant tensor:
#      x y z
#    x 1.835990 0.000000 0.000000 
#    y 0.000000 1.858780 0.000000 
#    z 0.000000 0.000000 1.791760 
# 
# From -- ./inp_files/70264.got.cif
#   From: 2010.03.12/outbox.cif.g09.slc.cpg/sg63_36_cif.got.tgz:70264.got - 2010.04.10 19:34:48.
