data_PCOD8257327
_publ_section_title
;
Structure prediction by ZEFSAII (Michael W. Deem and Ramdas Pophale) SiO2 
 PCOD8257327
Probable space group: C M C M
;
_chemical_formula_sum "Si O2"
_cell_formula_units_Z 80
_cell_length_a 9.124027
_cell_length_b 25.613247
_cell_length_c 18.530530
_cell_angle_alpha 90.000000
_cell_angle_beta 90.000000
_cell_angle_gamma 90.000000
_cell_volume 4330.509946
_symmetry_space_group_name_H-M "C M C M"
_symmetry_group_IT_number 63
_symmetry_cell_setting 'orthorhombic'
loop_
_space_group_symop_operation_xyz
x,y,z
-x,-y,1/2+z
x,-y,-z
-x,y,1/2-z
-x,-y,-z
x,y,1/2-z
-x,y,z
x,-y,1/2+z
1/2+x,1/2+y,z
1/2-x,1/2-y,1/2+z
1/2+x,1/2-y,-z
1/2-x,1/2+y,1/2-z
1/2-x,1/2-y,-z
1/2+x,1/2+y,1/2-z
1/2-x,1/2+y,z
1/2+x,1/2-y,1/2+z
loop_
_atom_site_type_symbol
_atom_site_label
_atom_site_fract_x
_atom_site_fract_y
_atom_site_fract_z
Si Si1 0.337107 0.197716 0.582350
Si Si2 0.667328 0.497146 0.833373
Si Si3 0.673535 0.910331 0.582449
Si Si4 0.828622 0.905098 0.432655
Si Si5 0.338203 0.795087 0.911195
O O1 0.500000 0.189566 0.614066
O O2 0.238346 0.147695 0.600874
O O3 0.343905 0.205525 0.497278
O O4 0.268884 0.249960 0.618410
O O5 0.697060 0.508559 0.750000
O O6 0.500000 0.479627 0.847533
O O7 0.775248 0.451506 0.858389
O O8 0.703434 0.549867 0.875549
O O9 0.500000 0.914037 0.569110
O O10 0.753180 0.922062 0.507109
O O11 0.716127 0.852700 0.612470
O O12 0.000000 0.896288 0.446873
O O13 0.500000 0.783844 0.879947
#
# Coordination Sequence:
#
# PCOD8257327 Si02
#       5
#    16  16  16  16  16
#     4   9  16  26  44  72 102 129 160 201 246 291
#     4  10  22  38  53  71  98 133 171 208 249 299
#     4  10  20  33  52  78 104 130 165 208 250 294
#     4  10  19  32  52  75 101 134 168 204 249 298
#     4   8  15  27  43  68 101 131 158 193 242 297
#
# _framework density 18.473575
#
# number of rings (size 3 to 8) (size 9 to 14) (size 15 to 20)
#    0.000    2.600    0.000    3.600    0.000   10.000 
#    0.000    0.000    0.000    1.200    0.000    2.800 
#    0.000    0.000    0.000    0.000    0.000    0.000 
#
# Total GULP energy -495950.256281 kJ/mol
# GULP energy per Si atom -12398.756407 kJ/mol
# Density = 1.843153 g / cm^3
# Si number density = 18.473575 Si / 1000 Ang^3
#
#
#
# Elastic Constant Matrix: (Units=GPa)
#
#
# Indices 1 2 3 4 5 6 
#
# 1 105.1354 65.7564 23.1231 0.0000 0.0000 0.0000
# 2 65.7564 135.8022 34.4296 0.0000 0.0000 0.0000
# 3 23.1231 34.4296 39.6660 0.0000 0.0000 0.0000
# 4 0.0000 0.0000 0.0000 0.3215 0.0000 0.0000
# 5 0.0000 0.0000 0.0000 0.0000 12.7262 0.0000
# 6 0.0000 0.0000 0.0000 0.0000 0.0000 37.1774
#
#
#
# Elastic Compliance Matrix: (Units=1/GPa)
#
#
# Indices 1 2 3 4 5 6 
#
# 1 0.013899 -0.005995 -0.002899 0.000000 0.000000 0.000000
# 2 -0.005995 0.012027 -0.006945 0.000000 0.000000 0.000000
# 3 -0.002899 -0.006945 0.032928 0.000000 0.000000 0.000000
# 4 0.000000 0.000000 0.000000 3.110151 0.000000 0.000000
# 5 0.000000 0.000000 0.000000 0.000000 0.078578 0.000000
# 6 0.000000 0.000000 0.000000 0.000000 0.000000 0.026898
#
#
# Mechanical properties :
#
#
# Convention : Reuss Voigt Hill
#
# Bulk Modulus (GPa) = 36.79522 58.58020 47.68771
# Shear Modulus (GPa) = 1.50820 20.53134 11.01977
#
# Velocity S-wave (km/s) = 0.90453 3.33737 2.44502
# Velocity P-wave (km/s) = 4.58824 6.82860 5.81729
#
# Compressibility (1/GPa) = 0.02717744
#
# Stress axis : x y z
#
# Youngs Moduli (GPa) = 71.95007 83.14555 30.36918
#
# Poissons Ratio (x) = 0.49845 0.08803
# Poissons Ratio (y) = 0.43133 0.21090
# Poissons Ratio (z) = 0.20855 0.57742
#
# Static dielectric constant tensor:
#      x y z
#    x 3.614540 0.000000 0.000000 
#    y 0.000000 3.689270 0.000000 
#    z 0.000000 0.000000 2.875480 
# 
# 
# High freq. dielectric constant tensor:
#      x y z
#    x 1.727700 0.000000 0.000000 
#    y 0.000000 1.733730 0.000000 
#    z 0.000000 0.000000 1.658220 
# 
# From -- ./inp_files/40473.got.cif
#   From: 2010.03.12/outbox.cif.g09.slc.cpg/sg63_21_cif.got.tgz:40473.got - 2010.04.10 19:34:48.
