data_PCOD8257205
_publ_section_title
;
Structure prediction by ZEFSAII (Michael W. Deem and Ramdas Pophale) SiO2 
 PCOD8257205
Probable space group: C M C M
;
_chemical_formula_sum "Si O2"
_cell_formula_units_Z 96
_cell_length_a 24.244765
_cell_length_b 13.424734
_cell_length_c 17.246717
_cell_angle_alpha 90.000000
_cell_angle_beta 90.000000
_cell_angle_gamma 90.000000
_cell_volume 5613.453188
_symmetry_space_group_name_H-M "C M C M"
_symmetry_group_IT_number 63
_symmetry_cell_setting 'orthorhombic'
loop_
_space_group_symop_operation_xyz
x,y,z
-x,-y,1/2+z
x,-y,-z
-x,y,1/2-z
-x,-y,-z
x,y,1/2-z
-x,y,z
x,-y,1/2+z
1/2+x,1/2+y,z
1/2-x,1/2-y,1/2+z
1/2+x,1/2-y,-z
1/2-x,1/2+y,1/2-z
1/2-x,1/2-y,-z
1/2+x,1/2+y,1/2-z
1/2-x,1/2+y,z
1/2+x,1/2-y,1/2+z
loop_
_atom_site_type_symbol
_atom_site_label
_atom_site_fract_x
_atom_site_fract_y
_atom_site_fract_z
Si Si1 0.174801 0.461682 0.411587
Si Si2 0.766547 0.258966 0.087701
Si Si3 0.938328 0.261630 0.660225
Si Si4 0.721270 0.555677 0.158948
Si Si5 0.059644 0.526521 0.089831
Si Si6 0.334504 0.359068 0.159160
O O1 0.177373 0.500000 0.500000
O O2 0.189332 0.346345 0.402932
O O3 0.215594 0.528574 0.360449
O O4 0.113087 0.470933 0.375463
O O5 0.795428 0.157899 0.116845
O O6 0.711027 0.277998 0.135972
O O7 0.750000 0.250000 0.000000
O O8 0.926897 0.292337 0.750000
O O9 0.931237 0.356093 0.604162
O O10 0.894927 0.177469 0.631861
O O11 0.000000 0.217072 0.651823
O O12 0.714403 0.570312 0.250000
O O13 0.681264 0.468226 0.125034
O O14 0.000000 0.495266 0.127614
O O15 0.056920 0.500000 0.000000
O O16 0.332650 0.370220 0.250000
#
# Coordination Sequence:
#
# PCOD8257205 Si02
#       6
#    16  16  16  16  16  16
#     4  10  19  32  49  72  99 130 168 201 246 297
#     4  11  20  30  49  71  99 133 167 203 243 300
#     4   9  17  31  52  76  99 128 168 212 254 295
#     4  10  20  34  50  73 103 131 163 206 252 297
#     4   9  18  30  46  70  99 128 159 199 247 295
#     4   9  19  32  49  74 102 129 161 206 252 296
#
# _framework density 17.101772
#
# number of rings (size 3 to 8) (size 9 to 14) (size 15 to 20)
#    0.000    2.333    1.667    1.500    2.333    2.667 
#    0.000    0.000    0.000    1.000    0.000    1.167 
#    0.000    0.000    0.000    0.000    0.000    0.000 
#
# Total GULP energy -594868.631006 kJ/mol
# GULP energy per Si atom -12393.096479 kJ/mol
# Density = 1.706285 g / cm^3
# Si number density = 17.101772 Si / 1000 Ang^3
#
#
#
# Elastic Constant Matrix: (Units=GPa)
#
#
# Indices 1 2 3 4 5 6 
#
# 1 149.9101 70.5427 18.3399 0.0000 0.0000 0.0000
# 2 70.5427 129.0577 32.8059 0.0000 0.0000 0.0000
# 3 18.3399 32.8059 33.1455 0.0000 0.0000 0.0000
# 4 0.0000 0.0000 0.0000 28.6605 0.0000 0.0000
# 5 0.0000 0.0000 0.0000 0.0000 17.0228 0.0000
# 6 0.0000 0.0000 0.0000 0.0000 0.0000 24.4499
#
#
#
# Elastic Compliance Matrix: (Units=1/GPa)
#
#
# Indices 1 2 3 4 5 6 
#
# 1 0.008981 -0.004871 -0.000148 0.000000 0.000000 0.000000
# 2 -0.004871 0.012996 -0.010167 0.000000 0.000000 0.000000
# 3 -0.000148 -0.010167 0.040315 0.000000 0.000000 0.000000
# 4 0.000000 0.000000 0.000000 0.034891 0.000000 0.000000
# 5 0.000000 0.000000 0.000000 0.000000 0.058745 0.000000
# 6 0.000000 0.000000 0.000000 0.000000 0.000000 0.040900
#
#
# Mechanical properties :
#
#
# Convention : Reuss Voigt Hill
#
# Bulk Modulus (GPa) = 31.32954 61.72113 46.52533
# Shear Modulus (GPa) = 21.02257 26.72161 23.87209
#
# Velocity S-wave (km/s) = 3.50989 3.95714 3.74021
# Velocity P-wave (km/s) = 5.89788 7.55298 6.77615
#
# Compressibility (1/GPa) = 0.03191876
#
# Stress axis : x y z
#
# Youngs Moduli (GPa) = 111.34486 76.94892 24.80489
#
# Poissons Ratio (x) = 0.37486 0.00367
# Poissons Ratio (y) = 0.54242 0.25219
# Poissons Ratio (z) = 0.01646 0.78234
#
# Static dielectric constant tensor:
#      x y z
#    x 3.632620 0.000000 0.000000 
#    y 0.000000 3.205910 0.000000 
#    z 0.000000 0.000000 3.083920 
# 
# 
# High freq. dielectric constant tensor:
#      x y z
#    x 1.658700 0.000000 0.000000 
#    y 0.000000 1.653080 0.000000 
#    z 0.000000 0.000000 1.647690 
# 
# From -- ./inp_files/48000.got.cif
#   From: 2010.03.12/outbox.cif.g09.slc.cpg/sg63_24_cif.got.tgz:48000.got - 2010.04.10 19:34:48.
