data_PCOD8257360
_publ_section_title
;
Structure prediction by ZEFSAII (Michael W. Deem and Ramdas Pophale) SiO2 
 PCOD8257360
Probable space group: C M C M
;
_chemical_formula_sum "Si O2"
_cell_formula_units_Z 96
_cell_length_a 23.941540
_cell_length_b 23.530466
_cell_length_c 9.108354
_cell_angle_alpha 90.000000
_cell_angle_beta 90.000000
_cell_angle_gamma 90.000000
_cell_volume 5131.242169
_symmetry_space_group_name_H-M "C M C M"
_symmetry_group_IT_number 63
_symmetry_cell_setting 'orthorhombic'
loop_
_space_group_symop_operation_xyz
x,y,z
-x,-y,1/2+z
x,-y,-z
-x,y,1/2-z
-x,-y,-z
x,y,1/2-z
-x,y,z
x,-y,1/2+z
1/2+x,1/2+y,z
1/2-x,1/2-y,1/2+z
1/2+x,1/2-y,-z
1/2-x,1/2+y,1/2-z
1/2-x,1/2-y,-z
1/2+x,1/2+y,1/2-z
1/2-x,1/2+y,z
1/2+x,1/2-y,1/2+z
loop_
_atom_site_type_symbol
_atom_site_label
_atom_site_fract_x
_atom_site_fract_y
_atom_site_fract_z
Si Si1 0.328474 0.228034 0.081643
Si Si2 0.058808 0.058940 0.419750
Si Si3 0.433621 0.945782 0.085625
Si Si4 0.235821 0.838647 0.079169
Si Si5 0.437481 0.166502 0.080468
Si Si6 0.819869 0.939135 0.576553
O O1 0.312721 0.213356 0.250000
O O2 0.313835 0.293456 0.047810
O O3 0.394571 0.218349 0.052210
O O4 0.294213 0.186895 0.975038
O O5 0.060384 0.043963 0.250000
O O6 0.118179 0.087954 0.459811
O O7 0.000000 0.093057 0.456558
O O8 0.056084 0.000000 0.500000
O O9 0.409213 0.945999 0.250000
O O10 0.500000 0.949766 0.087393
O O11 0.414923 0.887962 0.007177
O O12 0.408389 0.000000 0.000000
O O13 0.240588 0.853487 0.250000
O O14 0.224777 0.895978 0.989907
O O15 0.438632 0.148668 0.250000
O O16 0.500000 0.184936 0.029150
O O17 0.809675 0.945802 0.750000
O O18 0.812383 0.000000 0.500000
#
# Coordination Sequence:
#
# PCOD8257360 Si02
#       6
#    16  16  16  16  16  16
#     4   9  19  36  56  76  99 131 171 210 249 298
#     4   8  14  25  42  65  94 129 166 200 238 289
#     4   9  16  26  42  66  97 132 167 200 238 290
#     4  10  20  35  55  77 101 132 172 213 252 297
#     4   9  17  31  52  76 102 131 163 204 253 301
#     4  10  19  32  52  77 106 137 169 210 258 304
#
# _framework density 18.708921
#
# number of rings (size 3 to 8) (size 9 to 14) (size 15 to 20)
#    0.000    2.833    0.000    1.500    0.000    4.000 
#    0.000    1.667    0.000    5.000    0.000    0.000 
#    0.000    0.000    0.000    0.000    0.000    0.000 
#
# Total GULP energy -594703.022106 kJ/mol
# GULP energy per Si atom -12389.646294 kJ/mol
# Density = 1.866634 g / cm^3
# Si number density = 18.708921 Si / 1000 Ang^3
#
#
#
# Elastic Constant Matrix: (Units=GPa)
#
#
# Indices 1 2 3 4 5 6 
#
# 1 71.4738 40.1766 32.0592 0.0000 0.0000 0.0000
# 2 40.1766 78.4477 41.0575 0.0000 0.0000 0.0000
# 3 32.0592 41.0575 85.2457 0.0000 0.0000 0.0000
# 4 0.0000 0.0000 0.0000 26.4927 0.0000 0.0000
# 5 0.0000 0.0000 0.0000 0.0000 20.9074 0.0000
# 6 0.0000 0.0000 0.0000 0.0000 0.0000 26.2494
#
#
#
# Elastic Compliance Matrix: (Units=1/GPa)
#
#
# Indices 1 2 3 4 5 6 
#
# 1 0.020413 -0.008606 -0.003532 0.000000 0.000000 0.000000
# 2 -0.008606 0.020672 -0.006720 0.000000 0.000000 0.000000
# 3 -0.003532 -0.006720 0.016296 0.000000 0.000000 0.000000
# 4 0.000000 0.000000 0.000000 0.037746 0.000000 0.000000
# 5 0.000000 0.000000 0.000000 0.000000 0.047830 0.000000
# 6 0.000000 0.000000 0.000000 0.000000 0.000000 0.038096
#
#
# Mechanical properties :
#
#
# Convention : Reuss Voigt Hill
#
# Bulk Modulus (GPa) = 50.85173 51.30599 51.07886
# Shear Modulus (GPa) = 22.19037 22.85480 22.52259
#
# Velocity S-wave (km/s) = 3.44769 3.49893 3.47341
# Velocity P-wave (km/s) = 6.56417 6.61862 6.59145
#
# Compressibility (1/GPa) = 0.01966501
#
# Stress axis : x y z
#
# Youngs Moduli (GPa) = 48.98874 48.37523 61.36616
#
# Poissons Ratio (x) = 0.41631 0.21675
# Poissons Ratio (y) = 0.42159 0.41237
# Poissons Ratio (z) = 0.17303 0.32507
#
# Static dielectric constant tensor:
#      x y z
#    x 3.635840 0.000000 0.000000 
#    y 0.000000 3.137340 0.000000 
#    z 0.000000 0.000000 3.503000 
# 
# 
# High freq. dielectric constant tensor:
#      x y z
#    x 1.719110 0.000000 0.000000 
#    y 0.000000 1.693310 0.000000 
#    z 0.000000 0.000000 1.734730 
# 
# From -- ./inp_files/10442.got.cif
#   From: 2010.03.12/outbox.cif.g09.slc.cpg/sg63_6_cif.got.tgz:10442.got - 2010.04.10 19:34:48.
