data_PCOD8257190
_publ_section_title
;
Structure prediction by ZEFSAII (Michael W. Deem and Ramdas Pophale) SiO2 
 PCOD8257190
Probable space group: C M C M
;
_chemical_formula_sum "Si O2"
_cell_formula_units_Z 80
_cell_length_a 24.562902
_cell_length_b 18.975051
_cell_length_c 9.965313
_cell_angle_alpha 90.000000
_cell_angle_beta 90.000000
_cell_angle_gamma 90.000000
_cell_volume 4644.656184
_symmetry_space_group_name_H-M "C M C M"
_symmetry_group_IT_number 63
_symmetry_cell_setting 'orthorhombic'
loop_
_space_group_symop_operation_xyz
x,y,z
-x,-y,1/2+z
x,-y,-z
-x,y,1/2-z
-x,-y,-z
x,y,1/2-z
-x,y,z
x,-y,1/2+z
1/2+x,1/2+y,z
1/2-x,1/2-y,1/2+z
1/2+x,1/2-y,-z
1/2-x,1/2+y,1/2-z
1/2-x,1/2-y,-z
1/2+x,1/2+y,1/2-z
1/2-x,1/2+y,z
1/2+x,1/2-y,1/2+z
loop_
_atom_site_type_symbol
_atom_site_label
_atom_site_fract_x
_atom_site_fract_y
_atom_site_fract_z
Si Si1 0.253258 0.645112 0.595281
Si Si2 0.709740 0.000000 0.500000
Si Si3 0.559618 0.898953 0.250000
Si Si4 0.938809 0.341641 0.750000
Si Si5 0.674070 0.730072 0.099022
Si Si6 0.361255 0.972593 0.750000
Si Si7 0.061076 0.719085 0.534698
O O1 0.271065 0.650704 0.750000
O O2 0.245503 0.563472 0.558949
O O3 0.302169 0.673856 0.504396
O O4 0.198715 0.691783 0.569477
O O5 0.674271 0.966352 0.617411
O O6 0.500000 0.935587 0.250000
O O7 0.565849 0.853427 0.384121
O O8 0.607746 0.953909 0.250000
O O9 0.902041 0.409123 0.750000
O O10 0.927510 0.293759 0.878730
O O11 0.000000 0.370467 0.750000
O O12 0.689653 0.706718 0.250000
O O13 0.608441 0.729185 0.085897
O O14 0.000000 0.751231 0.557177
#
# Coordination Sequence:
#
# PCOD8257190 Si02
#       7
#    16   8   8   8  16   8  16
#     4  10  22  38  52  78 106 140 180 225 269 322
#     4  12  24  36  53  74 107 142 182 228 270 316
#     4  10  19  32  49  70 103 142 180 223 260 298
#     4  10  21  32  45  72 107 142 182 219 254 302
#     4  10  20  35  58  78 104 137 181 223 273 321
#     4  12  21  32  50  70 100 146 187 218 256 306
#     4  10  20  34  52  76 106 138 176 223 268 314
#
# _framework density 17.224094999999998
#
# number of rings (size 3 to 8) (size 9 to 14) (size 15 to 20)
#    0.000    1.600    2.000    3.900    2.800    0.000 
#    0.000    4.000    0.000    0.000    0.000    0.700 
#    0.000    0.000    0.000    0.000    0.000    0.000 
#
# Total GULP energy -495991.410040 kJ/mol
# GULP energy per Si atom -12399.785251 kJ/mol
# Density = 1.718489 g / cm^3
# Si number density = 17.224095 Si / 1000 Ang^3
#
#
#
# Elastic Constant Matrix: (Units=GPa)
#
#
# Indices 1 2 3 4 5 6 
#
# 1 95.6674 31.6137 35.6024 0.0000 0.0000 0.0000
# 2 31.6137 59.1456 27.1559 0.0000 0.0000 0.0000
# 3 35.6024 27.1559 121.1128 0.0000 0.0000 0.0000
# 4 0.0000 0.0000 0.0000 25.8694 0.0000 0.0000
# 5 0.0000 0.0000 0.0000 0.0000 27.2049 0.0000
# 6 0.0000 0.0000 0.0000 0.0000 0.0000 28.8123
#
#
#
# Elastic Compliance Matrix: (Units=1/GPa)
#
#
# Indices 1 2 3 4 5 6 
#
# 1 0.013391 -0.005964 -0.002599 0.000000 0.000000 0.000000
# 2 -0.005964 0.021504 -0.003068 0.000000 0.000000 0.000000
# 3 -0.002599 -0.003068 0.009709 0.000000 0.000000 0.000000
# 4 0.000000 0.000000 0.000000 0.038656 0.000000 0.000000
# 5 0.000000 0.000000 0.000000 0.000000 0.036758 0.000000
# 6 0.000000 0.000000 0.000000 0.000000 0.000000 0.034707
#
#
# Mechanical properties :
#
#
# Convention : Reuss Voigt Hill
#
# Bulk Modulus (GPa) = 46.85936 51.62997 49.24467
# Shear Modulus (GPa) = 27.01210 28.48091 27.74650
#
# Velocity S-wave (km/s) = 3.96444 4.07080 4.01797
# Velocity P-wave (km/s) = 6.94410 7.22051 7.08365
#
# Compressibility (1/GPa) = 0.02134045
#
# Stress axis : x y z
#
# Youngs Moduli (GPa) = 74.67676 46.50263 102.99927
#
# Poissons Ratio (x) = 0.27735 0.26771
# Poissons Ratio (y) = 0.44539 0.31604
# Poissons Ratio (z) = 0.19410 0.14269
#
# Static dielectric constant tensor:
#      x y z
#    x 3.293510 0.000000 0.000000 
#    y 0.000000 2.832050 0.000000 
#    z 0.000000 0.000000 3.563340 
# 
# 
# High freq. dielectric constant tensor:
#      x y z
#    x 1.660500 0.000000 0.000000 
#    y 0.000000 1.616020 0.000000 
#    z 0.000000 0.000000 1.694280 
# 
# From -- ./inp_files/12159.got.cif
#   From: 2010.03.12/outbox.cif.g09.slc.cpg/sg63_7_cif.got.tgz:12159.got - 2010.04.10 19:34:48.
