data_PCOD8257051
_publ_section_title
;
Structure prediction by ZEFSAII (Michael W. Deem and Ramdas Pophale) SiO2 
 PCOD8257051
Probable space group: C M C M
;
_chemical_formula_sum "Si O2"
_cell_formula_units_Z 112
_cell_length_a 16.501674
_cell_length_b 21.861708
_cell_length_c 17.395986
_cell_angle_alpha 90.000000
_cell_angle_beta 90.000000
_cell_angle_gamma 90.000000
_cell_volume 6275.685076
_symmetry_space_group_name_H-M "C M C M"
_symmetry_group_IT_number 63
_symmetry_cell_setting 'orthorhombic'
loop_
_space_group_symop_operation_xyz
x,y,z
-x,-y,1/2+z
x,-y,-z
-x,y,1/2-z
-x,-y,-z
x,y,1/2-z
-x,y,z
x,-y,1/2+z
1/2+x,1/2+y,z
1/2-x,1/2-y,1/2+z
1/2+x,1/2-y,-z
1/2-x,1/2+y,1/2-z
1/2-x,1/2-y,-z
1/2+x,1/2+y,1/2-z
1/2-x,1/2+y,z
1/2+x,1/2-y,1/2+z
loop_
_atom_site_type_symbol
_atom_site_label
_atom_site_fract_x
_atom_site_fract_y
_atom_site_fract_z
Si Si1 0.412270 0.464499 0.577514
Si Si2 0.816961 0.422430 0.662526
Si Si3 0.096607 0.738598 0.657886
Si Si4 0.288511 0.540563 0.662485
Si Si5 0.690149 0.653613 0.077733
Si Si6 0.086500 0.569824 0.478576
Si Si7 0.786109 0.354308 0.431401
O O1 0.424019 0.500000 0.500000
O O2 0.500000 0.444347 0.610455
O O3 0.373097 0.510007 0.639246
O O4 0.359281 0.406276 0.555740
O O5 0.842271 0.412907 0.750000
O O6 0.779589 0.489421 0.647309
O O7 0.757663 0.366438 0.639681
O O8 0.897869 0.420333 0.611977
O O9 0.109433 0.740419 0.750000
O O10 0.127175 0.800450 0.617784
O O11 0.156334 0.687979 0.621009
O O12 0.000000 0.727962 0.639940
O O13 0.293393 0.559565 0.750000
O O14 0.272982 0.604632 0.620005
O O15 0.732161 0.679610 0.998311
O O16 0.082465 0.500000 0.500000
O O17 0.157604 0.598443 0.525933
O O18 0.000000 0.601139 0.497294
#
# Coordination Sequence:
#
# PCOD8257051 Si02
#       7
#    16  16  16  16  16  16  16
#     4  10  19  33  55  84 112 142 175 217 273 328
#     4   9  18  31  51  77 104 138 178 220 268 322
#     4  11  24  40  56  79 112 147 185 232 279 324
#     4  10  19  32  51  77 109 144 179 220 267 319
#     4  10  20  35  60  80 107 141 187 227 271 327
#     4  10  19  31  50  74 105 141 178 223 271 320
#     4  11  20  36  57  79 106 142 188 226 269 329
#
# _framework density 17.846655999999999
#
# number of rings (size 3 to 8) (size 9 to 14) (size 15 to 20)
#    0.000    1.857    2.857    2.143    0.000    1.143 
#    0.000    0.000    0.000    0.000    0.000    0.000 
#    0.000    8.000    0.000    0.000    0.000    0.000 
#
# Total GULP energy -693830.355461 kJ/mol
# GULP energy per Si atom -12389.827776 kJ/mol
# Density = 1.780604 g / cm^3
# Si number density = 17.846656 Si / 1000 Ang^3
#
#
#
# Elastic Constant Matrix: (Units=GPa)
#
#
# Indices 1 2 3 4 5 6 
#
# 1 99.9282 26.9855 41.7414 0.0000 0.0000 0.0000
# 2 26.9855 62.9271 34.3319 0.0000 0.0000 0.0000
# 3 41.7414 34.3319 106.4859 0.0000 0.0000 0.0000
# 4 0.0000 0.0000 0.0000 22.6224 0.0000 0.0000
# 5 0.0000 0.0000 0.0000 0.0000 37.3184 0.0000
# 6 0.0000 0.0000 0.0000 0.0000 0.0000 41.2832
#
#
#
# Elastic Compliance Matrix: (Units=1/GPa)
#
#
# Indices 1 2 3 4 5 6 
#
# 1 0.012494 -0.003259 -0.003847 0.000000 0.000000 0.000000
# 2 -0.003259 0.020134 -0.005214 0.000000 0.000000 0.000000
# 3 -0.003847 -0.005214 0.012580 0.000000 0.000000 0.000000
# 4 0.000000 0.000000 0.000000 0.044204 0.000000 0.000000
# 5 0.000000 0.000000 0.000000 0.000000 0.026796 0.000000
# 6 0.000000 0.000000 0.000000 0.000000 0.000000 0.024223
#
#
# Mechanical properties :
#
#
# Convention : Reuss Voigt Hill
#
# Bulk Modulus (GPa) = 48.61884 52.82876 50.72380
# Shear Modulus (GPa) = 29.08226 31.33031 30.20628
#
# Velocity S-wave (km/s) = 4.04116 4.19445 4.11852
# Velocity P-wave (km/s) = 7.00545 7.28859 7.14843
#
# Compressibility (1/GPa) = 0.02056816
#
# Stress axis : x y z
#
# Youngs Moduli (GPa) = 80.03718 49.66836 79.49286
#
# Poissons Ratio (x) = 0.16188 0.30579
# Poissons Ratio (y) = 0.26086 0.41445
# Poissons Ratio (z) = 0.30789 0.25895
#
# Static dielectric constant tensor:
#      x y z
#    x 3.897710 0.000000 0.000000 
#    y 0.000000 3.128040 0.000000 
#    z 0.000000 0.000000 2.679240 
# 
# 
# High freq. dielectric constant tensor:
#      x y z
#    x 1.693510 0.000000 0.000000 
#    y 0.000000 1.674070 0.000000 
#    z 0.000000 0.000000 1.698890 
# 
# From -- ./inp_files/46061.got.cif
#   From: 2010.03.12/outbox.cif.g09.slc.cpg/sg63_24_cif.got.tgz:46061.got - 2010.04.10 19:34:48.
