data_PCOD8257459
_publ_section_title
;
Structure prediction by ZEFSAII (Michael W. Deem and Ramdas Pophale) SiO2 
 PCOD8257459
Probable space group: C M C M
;
_chemical_formula_sum "Si O2"
_cell_formula_units_Z 96
_cell_length_a 9.044905
_cell_length_b 30.213982
_cell_length_c 19.209274
_cell_angle_alpha 90.000000
_cell_angle_beta 90.000000
_cell_angle_gamma 90.000000
_cell_volume 5249.560283
_symmetry_space_group_name_H-M "C M C M"
_symmetry_group_IT_number 63
_symmetry_cell_setting 'orthorhombic'
loop_
_space_group_symop_operation_xyz
x,y,z
-x,-y,1/2+z
x,-y,-z
-x,y,1/2-z
-x,-y,-z
x,y,1/2-z
-x,y,z
x,-y,1/2+z
1/2+x,1/2+y,z
1/2-x,1/2-y,1/2+z
1/2+x,1/2-y,-z
1/2-x,1/2+y,1/2-z
1/2-x,1/2-y,-z
1/2+x,1/2+y,1/2-z
1/2-x,1/2+y,z
1/2+x,1/2-y,1/2+z
loop_
_atom_site_type_symbol
_atom_site_label
_atom_site_fract_x
_atom_site_fract_y
_atom_site_fract_z
Si Si1 0.328257 0.262039 0.070990
Si Si2 0.175282 0.937689 0.172446
Si Si3 0.675373 0.187028 0.172476
Si Si4 0.173823 0.017341 0.076222
Si Si5 0.675157 0.890873 0.927740
Si Si6 0.172244 0.137117 0.931193
O O1 0.500000 0.252693 0.058850
O O2 0.266480 0.230797 0.132522
O O3 0.298399 0.312661 0.092362
O O4 0.250000 0.250000 0.000000
O O5 0.244425 0.937302 0.250000
O O6 0.228155 0.893961 0.131538
O O7 0.000000 0.937922 0.176830
O O8 0.229326 0.981276 0.131896
O O9 0.744596 0.186300 0.250000
O O10 0.500000 0.188374 0.177313
O O11 0.727346 0.143423 0.131404
O O12 0.259864 0.061956 0.093428
O O13 0.000000 0.026565 0.081565
O O14 0.216326 0.000000 0.000000
O O15 0.500000 0.894078 0.932798
O O16 0.735506 0.874112 0.000904
O O17 0.000000 0.128289 0.947988
#
# Coordination Sequence:
#
# PCOD8257459 Si02
#       6
#    16  16  16  16  16  16
#     4  10  19  32  55  81 105 137 176 217 259 309
#     4   9  18  33  53  78 106 135 171 218 268 313
#     4   9  19  35  52  76 111 144 174 214 264 310
#     4  10  19  34  55  77 104 137 173 217 266 312
#     4  11  21  33  54  80 106 140 179 217 257 310
#     4  10  19  33  55  81 106 136 175 219 262 311
#
# _framework density 18.287247000000001
#
# number of rings (size 3 to 8) (size 9 to 14) (size 15 to 20)
#    0.000    2.167    3.333    0.500    0.000    1.667 
#    0.000    3.333    0.000    5.500    0.000    2.333 
#    0.000    0.000    0.000    0.000    0.000    0.000 
#
# Total GULP energy -595222.266973 kJ/mol
# GULP energy per Si atom -12400.463895 kJ/mol
# Density = 1.824562 g / cm^3
# Si number density = 18.287247 Si / 1000 Ang^3
#
#
#
# Elastic Constant Matrix: (Units=GPa)
#
#
# Indices 1 2 3 4 5 6 
#
# 1 33.0647 42.8653 32.1251 0.0000 0.0000 0.0000
# 2 42.8653 187.7092 102.4987 0.0000 0.0000 0.0000
# 3 32.1251 102.4987 185.7392 0.0000 0.0000 0.0000
# 4 0.0000 0.0000 0.0000 35.1200 0.0000 0.0000
# 5 0.0000 0.0000 0.0000 0.0000 18.2914 0.0000
# 6 0.0000 0.0000 0.0000 0.0000 0.0000 24.2713
#
#
#
# Elastic Compliance Matrix: (Units=1/GPa)
#
#
# Indices 1 2 3 4 5 6 
#
# 1 0.044072 -0.008447 -0.002961 0.000000 0.000000 0.000000
# 2 -0.008447 0.009244 -0.003640 0.000000 0.000000 0.000000
# 3 -0.002961 -0.003640 0.007905 0.000000 0.000000 0.000000
# 4 0.000000 0.000000 0.000000 0.028474 0.000000 0.000000
# 5 0.000000 0.000000 0.000000 0.000000 0.054670 0.000000
# 6 0.000000 0.000000 0.000000 0.000000 0.000000 0.041201
#
#
# Mechanical properties :
#
#
# Convention : Reuss Voigt Hill
#
# Bulk Modulus (GPa) = 32.12994 84.61016 58.37005
# Shear Modulus (GPa) = 22.12016 30.80479 26.46248
#
# Velocity S-wave (km/s) = 3.48170 4.10871 3.80813
# Velocity P-wave (km/s) = 5.81125 8.29918 7.16405
#
# Compressibility (1/GPa) = 0.03112362
#
# Stress axis : x y z
#
# Youngs Moduli (GPa) = 22.69021 108.17539 126.50401
#
# Poissons Ratio (x) = 0.91381 0.37457
# Poissons Ratio (y) = 0.19167 0.46051
# Poissons Ratio (z) = 0.06718 0.39379
#
# Static dielectric constant tensor:
#      x y z
#    x 3.045480 0.000000 0.000000 
#    y 0.000000 3.763470 0.000000 
#    z 0.000000 0.000000 3.672540 
# 
# 
# High freq. dielectric constant tensor:
#      x y z
#    x 1.670230 0.000000 0.000000 
#    y 0.000000 1.728880 0.000000 
#    z 0.000000 0.000000 1.710280 
# 
# From -- ./inp_files/51257.got.cif
#   From: 2010.03.12/outbox.cif.g09.slc.cpg/sg63_26_cif.got.tgz:51257.got - 2010.04.10 19:34:48.
