data_PCOD8257101
_publ_section_title
;
Structure prediction by ZEFSAII (Michael W. Deem and Ramdas Pophale) SiO2 
 PCOD8257101
Probable space group: C M C M
;
_chemical_formula_sum "Si O2"
_cell_formula_units_Z 96
_cell_length_a 14.222308
_cell_length_b 19.197144
_cell_length_c 19.301935
_cell_angle_alpha 90.000000
_cell_angle_beta 90.000000
_cell_angle_gamma 90.000000
_cell_volume 5269.962816
_symmetry_space_group_name_H-M "C M C M"
_symmetry_group_IT_number 63
_symmetry_cell_setting 'orthorhombic'
loop_
_space_group_symop_operation_xyz
x,y,z
-x,-y,1/2+z
x,-y,-z
-x,y,1/2-z
-x,-y,-z
x,y,1/2-z
-x,y,z
x,-y,1/2+z
1/2+x,1/2+y,z
1/2-x,1/2-y,1/2+z
1/2+x,1/2-y,-z
1/2-x,1/2+y,1/2-z
1/2-x,1/2-y,-z
1/2+x,1/2+y,1/2-z
1/2-x,1/2+y,z
1/2+x,1/2-y,1/2+z
loop_
_atom_site_type_symbol
_atom_site_label
_atom_site_fract_x
_atom_site_fract_y
_atom_site_fract_z
Si Si1 0.608993 0.787671 0.022189
Si Si2 0.785975 0.232220 0.894251
Si Si3 0.897930 0.954415 0.668202
Si Si4 0.894700 0.108998 0.668359
Si Si5 0.714775 0.878789 0.830557
Si Si6 0.107853 0.436399 0.955852
O O1 0.500000 0.770281 0.038989
O O2 0.674892 0.772948 0.088464
O O3 0.647414 0.738826 0.961100
O O4 0.622226 0.867532 0.000916
O O5 0.815879 0.161202 0.858368
O O6 0.803053 0.297248 0.843146
O O7 0.904384 0.960483 0.750000
O O8 0.821469 0.897016 0.647133
O O9 0.000000 0.930988 0.638571
O O10 0.872121 0.031449 0.639335
O O11 0.888445 0.109098 0.750000
O O12 0.000000 0.131654 0.644946
O O13 0.693606 0.896296 0.750000
O O14 0.651115 0.927368 0.879324
O O15 0.000000 0.453569 0.941800
O O16 0.153555 0.500000 0.000000
#
# Coordination Sequence:
#
# PCOD8257101 Si02
#       6
#    16  16  16  16  16  16
#     4   9  19  34  49  70 101 137 174 210 256 313
#     4  10  19  31  51  76 101 134 169 219 265 315
#     4   8  16  31  49  71 101 135 167 205 260 320
#     4   9  17  30  50  74  98 126 163 211 264 312
#     4  10  20  33  52  80 107 136 177 223 272 323
#     4   9  19  35  54  75 102 141 182 219 265 318
#
# _framework density 18.216446999999999
#
# number of rings (size 3 to 8) (size 9 to 14) (size 15 to 20)
#    0.000    2.833    0.000    2.000    2.333    1.667 
#    0.000    0.000    0.000    2.000    0.000    0.000 
#    0.000    0.000    0.000    0.000    0.000    0.000 
#
# Total GULP energy -594930.598899 kJ/mol
# GULP energy per Si atom -12394.387477 kJ/mol
# Density = 1.817499 g / cm^3
# Si number density = 18.216447 Si / 1000 Ang^3
#
#
#
# Elastic Constant Matrix: (Units=GPa)
#
#
# Indices 1 2 3 4 5 6 
#
# 1 82.4813 10.2231 29.4707 0.0000 0.0000 0.0000
# 2 10.2231 30.3650 14.0061 0.0000 0.0000 0.0000
# 3 29.4707 14.0061 62.5959 0.0000 0.0000 0.0000
# 4 0.0000 0.0000 0.0000 18.1970 0.0000 0.0000
# 5 0.0000 0.0000 0.0000 0.0000 27.1383 0.0000
# 6 0.0000 0.0000 0.0000 0.0000 0.0000 31.1329
#
#
#
# Elastic Compliance Matrix: (Units=1/GPa)
#
#
# Indices 1 2 3 4 5 6 
#
# 1 0.014679 -0.001956 -0.006473 0.000000 0.000000 0.000000
# 2 -0.001956 0.036983 -0.007354 0.000000 0.000000 0.000000
# 3 -0.006473 -0.007354 0.020669 0.000000 0.000000 0.000000
# 4 0.000000 0.000000 0.000000 0.054954 0.000000 0.000000
# 5 0.000000 0.000000 0.000000 0.000000 0.036848 0.000000
# 6 0.000000 0.000000 0.000000 0.000000 0.000000 0.032120
#
#
# Mechanical properties :
#
#
# Convention : Reuss Voigt Hill
#
# Bulk Modulus (GPa) = 24.53155 31.42690 27.97923
# Shear Modulus (GPa) = 20.71163 23.40978 22.06071
#
# Velocity S-wave (km/s) = 3.37556 3.58870 3.48376
# Velocity P-wave (km/s) = 5.35617 5.87036 5.61915
#
# Compressibility (1/GPa) = 0.04076383
#
# Stress axis : x y z
#
# Youngs Moduli (GPa) = 68.12265 27.03912 48.38210
#
# Poissons Ratio (x) = 0.05290 0.31320
# Poissons Ratio (y) = 0.13326 0.35581
# Poissons Ratio (z) = 0.44099 0.19885
#
# Static dielectric constant tensor:
#      x y z
#    x 3.583820 0.000000 0.000000 
#    y 0.000000 3.414900 0.000000 
#    z 0.000000 0.000000 3.106060 
# 
# 
# High freq. dielectric constant tensor:
#      x y z
#    x 1.707190 0.000000 0.000000 
#    y 0.000000 1.708020 0.000000 
#    z 0.000000 0.000000 1.679620 
# 
# From -- ./inp_files/52889.got.cif
#   From: 2010.03.12/outbox.cif.g09.slc.cpg/sg63_27_cif.got.tgz:52889.got - 2010.04.10 19:34:48.
