data_PCOD8257613
_publ_section_title
;
Structure prediction by ZEFSAII (Michael W. Deem and Ramdas Pophale) SiO2 
 PCOD8257613
Probable space group: C M C M
;
_chemical_formula_sum "Si O2"
_cell_formula_units_Z 112
_cell_length_a 13.193213
_cell_length_b 27.880374
_cell_length_c 15.488753
_cell_angle_alpha 90.000000
_cell_angle_beta 90.000000
_cell_angle_gamma 90.000000
_cell_volume 5697.254544
_symmetry_space_group_name_H-M "C M C M"
_symmetry_group_IT_number 63
_symmetry_cell_setting 'orthorhombic'
loop_
_space_group_symop_operation_xyz
x,y,z
-x,-y,1/2+z
x,-y,-z
-x,y,1/2-z
-x,-y,-z
x,y,1/2-z
-x,y,z
x,-y,1/2+z
1/2+x,1/2+y,z
1/2-x,1/2-y,1/2+z
1/2+x,1/2-y,-z
1/2-x,1/2+y,1/2-z
1/2-x,1/2-y,-z
1/2+x,1/2+y,1/2-z
1/2-x,1/2+y,z
1/2+x,1/2-y,1/2+z
loop_
_atom_site_type_symbol
_atom_site_label
_atom_site_fract_x
_atom_site_fract_y
_atom_site_fract_z
Si Si1 0.296586 0.435430 0.149413
Si Si2 0.788168 0.048256 0.350157
Si Si3 0.118814 0.727621 0.582816
Si Si4 0.613481 0.389079 0.508863
Si Si5 0.889806 0.612571 0.150942
Si Si6 0.609813 0.125300 0.650505
Si Si7 0.240822 0.309250 0.570672
O O1 0.319792 0.422041 0.250000
O O2 0.290152 0.491829 0.136682
O O3 0.191892 0.411910 0.114277
O O4 0.381167 0.414835 0.084990
O O5 0.811876 0.061945 0.250000
O O6 0.869137 0.073175 0.413048
O O7 0.676652 0.066863 0.378868
O O8 0.143270 0.680352 0.638150
O O9 0.158749 0.719572 0.485840
O O10 0.183856 0.772417 0.620614
O O11 0.000000 0.740440 0.583647
O O12 0.500000 0.369010 0.518842
O O13 0.691244 0.344812 0.512162
O O14 0.913526 0.607610 0.250000
O O15 0.825257 0.660849 0.138041
O O16 0.000000 0.613477 0.102458
O O17 0.597883 0.114453 0.750000
O O18 0.500000 0.116909 0.604674
#
# Coordination Sequence:
#
# PCOD8257613 Si02
#       7
#    16  16  16  16  16  16  16
#     4  10  20  36  55  79 111 144 181 225 271 323
#     4   9  20  36  55  80 110 142 180 227 275 322
#     4  10  19  33  54  78 103 137 177 219 269 322
#     4  11  22  37  56  79 108 144 187 229 274 328
#     4   9  18  34  55  78 106 139 173 213 267 325
#     4   9  18  33  54  79 107 139 175 219 271 325
#     4  10  20  34  53  78 106 140 174 223 267 322
#
# _framework density 19.658591999999999
#
# number of rings (size 3 to 8) (size 9 to 14) (size 15 to 20)
#    0.000    2.286    1.429    1.286    0.000    2.857 
#    0.000    4.286    0.000    5.143    0.000    0.000 
#    0.000    0.000    0.000    0.000    0.000    0.000 
#
# Total GULP energy -693985.796941 kJ/mol
# GULP energy per Si atom -12392.603517 kJ/mol
# Density = 1.961385 g / cm^3
# Si number density = 19.658592 Si / 1000 Ang^3
#
#
#
# Elastic Constant Matrix: (Units=GPa)
#
#
# Indices 1 2 3 4 5 6 
#
# 1 92.3027 12.1462 14.8530 0.0000 0.0000 0.0000
# 2 12.1462 58.9485 4.3463 0.0000 0.0000 0.0000
# 3 14.8530 4.3463 46.7757 0.0000 0.0000 0.0000
# 4 0.0000 0.0000 0.0000 29.2113 0.0000 0.0000
# 5 0.0000 0.0000 0.0000 0.0000 18.9304 0.0000
# 6 0.0000 0.0000 0.0000 0.0000 0.0000 23.9762
#
#
#
# Elastic Compliance Matrix: (Units=1/GPa)
#
#
# Indices 1 2 3 4 5 6 
#
# 1 0.011681 -0.002148 -0.003510 0.000000 0.000000 0.000000
# 2 -0.002148 0.017476 -0.000942 0.000000 0.000000 0.000000
# 3 -0.003510 -0.000942 0.022581 0.000000 0.000000 0.000000
# 4 0.000000 0.000000 0.000000 0.034233 0.000000 0.000000
# 5 0.000000 0.000000 0.000000 0.000000 0.052825 0.000000
# 6 0.000000 0.000000 0.000000 0.000000 0.000000 0.041708
#
#
# Mechanical properties :
#
#
# Convention : Reuss Voigt Hill
#
# Bulk Modulus (GPa) = 25.94781 28.96865 27.45823
# Shear Modulus (GPa) = 24.20727 25.53570 24.87148
#
# Velocity S-wave (km/s) = 3.51291 3.60802 3.56078
# Velocity P-wave (km/s) = 5.44812 5.66788 5.55909
#
# Compressibility (1/GPa) = 0.03853889
#
# Stress axis : x y z
#
# Youngs Moduli (GPa) = 85.60645 57.22132 44.28591
#
# Poissons Ratio (x) = 0.12292 0.15543
# Poissons Ratio (y) = 0.18390 0.04170
# Poissons Ratio (z) = 0.30045 0.05389
#
# Static dielectric constant tensor:
#      x y z
#    x 4.014510 0.000000 0.000000 
#    y 0.000000 3.636160 0.000000 
#    z 0.000000 0.000000 3.405240 
# 
# 
# High freq. dielectric constant tensor:
#      x y z
#    x 1.770890 0.000000 0.000000 
#    y 0.000000 1.765990 0.000000 
#    z 0.000000 0.000000 1.748630 
# 
# From -- ./inp_files/30421.got.cif
#   From: 2010.03.12/outbox.cif.g09.slc.cpg/sg63_16_cif.got.tgz:30421.got - 2010.04.10 19:34:48.
