data_PCOD8257732
_publ_section_title
;
Structure prediction by ZEFSAII (Michael W. Deem and Ramdas Pophale) SiO2 
 PCOD8257732
Probable space group: C M C M
;
_chemical_formula_sum "Si O2"
_cell_formula_units_Z 72
_cell_length_a 13.239257
_cell_length_b 18.164158
_cell_length_c 15.729409
_cell_angle_alpha 90.000000
_cell_angle_beta 90.000000
_cell_angle_gamma 90.000000
_cell_volume 3782.607583
_symmetry_space_group_name_H-M "C M C M"
_symmetry_group_IT_number 63
_symmetry_cell_setting 'orthorhombic'
loop_
_space_group_symop_operation_xyz
x,y,z
-x,-y,1/2+z
x,-y,-z
-x,y,1/2-z
-x,-y,-z
x,y,1/2-z
-x,y,z
x,-y,1/2+z
1/2+x,1/2+y,z
1/2-x,1/2-y,1/2+z
1/2+x,1/2-y,-z
1/2-x,1/2+y,1/2-z
1/2-x,1/2-y,-z
1/2+x,1/2+y,1/2-z
1/2-x,1/2+y,z
1/2+x,1/2-y,1/2+z
loop_
_atom_site_type_symbol
_atom_site_label
_atom_site_fract_x
_atom_site_fract_y
_atom_site_fract_z
Si Si1 0.791258 0.513265 0.750000
Si Si2 0.115020 0.641060 0.250000
Si Si3 0.886828 0.278596 0.057470
Si Si4 0.885187 0.447400 0.428049
Si Si5 0.678100 0.261646 0.122873
Si Si6 0.883733 0.115909 0.750000
O O1 0.805599 0.425629 0.750000
O O2 0.837619 0.547586 0.664938
O O3 0.674260 0.537803 0.750000
O O4 0.131998 0.690096 0.167058
O O5 0.000000 0.610967 0.250000
O O6 0.875587 0.364872 0.037422
O O7 0.800780 0.255414 0.125158
O O8 0.000000 0.260636 0.092052
O O9 0.866142 0.233518 0.971583
O O10 0.833724 0.500000 0.500000
O O11 0.000000 0.473047 0.416667
O O12 0.644030 0.336581 0.167320
O O13 0.000000 0.094913 0.750000
#
# Coordination Sequence:
#
# PCOD8257732 Si02
#       6
#     8   8  16  16  16   8
#     4  12  22  38  57  88 117 157 198 250 302 359
#     4  11  22  37  59  83 110 148 196 245 296 351
#     4  10  19  33  56  87 119 151 192 245 301 352
#     4  10  20  34  56  88 124 156 191 242 306 360
#     4  10  20  37  58  85 117 153 198 243 291 357
#     4  11  22  39  60  83 115 161 206 243 294 362
#
# _framework density 19.034488
#
# number of rings (size 3 to 8) (size 9 to 14) (size 15 to 20)
#    0.000    1.556    2.222    5.000    0.000    1.778 
#    0.000    3.333    0.000    0.667    0.000    0.000 
#    0.000    0.000    0.000    0.000    0.000    0.000 
#
# Total GULP energy -446328.411666 kJ/mol
# GULP energy per Si atom -12398.011435 kJ/mol
# Density = 1.899116 g / cm^3
# Si number density = 19.034488 Si / 1000 Ang^3
#
#
#
# Elastic Constant Matrix: (Units=GPa)
#
#
# Indices 1 2 3 4 5 6 
#
# 1 147.4355 41.2198 39.8821 0.0000 0.0000 0.0000
# 2 41.2198 80.1419 13.0374 0.0000 0.0000 0.0000
# 3 39.8821 13.0374 89.0588 0.0000 0.0000 0.0000
# 4 0.0000 0.0000 0.0000 8.8022 0.0000 0.0000
# 5 0.0000 0.0000 0.0000 0.0000 19.5071 0.0000
# 6 0.0000 0.0000 0.0000 0.0000 0.0000 29.5742
#
#
#
# Elastic Compliance Matrix: (Units=1/GPa)
#
#
# Indices 1 2 3 4 5 6 
#
# 1 0.008805 -0.003982 -0.003360 0.000000 0.000000 0.000000
# 2 -0.003982 0.014583 -0.000352 0.000000 0.000000 0.000000
# 3 -0.003360 -0.000352 0.012785 0.000000 0.000000 0.000000
# 4 0.000000 0.000000 0.000000 0.113608 0.000000 0.000000
# 5 0.000000 0.000000 0.000000 0.000000 0.051263 0.000000
# 6 0.000000 0.000000 0.000000 0.000000 0.000000 0.033813
#
#
# Mechanical properties :
#
#
# Convention : Reuss Voigt Hill
#
# Bulk Modulus (GPa) = 48.11085 56.10165 52.10625
# Shear Modulus (GPa) = 19.44213 26.40982 22.92597
#
# Velocity S-wave (km/s) = 3.19943 3.72892 3.47428
# Velocity P-wave (km/s) = 6.24331 6.93379 6.59759
#
# Compressibility (1/GPa) = 0.02078533
#
# Stress axis : x y z
#
# Youngs Moduli (GPa) = 113.57418 68.57225 78.21851
#
# Poissons Ratio (x) = 0.27306 0.26282
# Poissons Ratio (y) = 0.45225 0.02750
# Poissons Ratio (z) = 0.38161 0.02411
#
# Static dielectric constant tensor:
#      x y z
#    x 3.668860 0.000000 0.000000 
#    y 0.000000 3.407610 0.000000 
#    z 0.000000 0.000000 3.536690 
# 
# 
# High freq. dielectric constant tensor:
#      x y z
#    x 1.736540 0.000000 0.000000 
#    y 0.000000 1.724900 0.000000 
#    z 0.000000 0.000000 1.743820 
# 
# From -- ./inp_files/42101.got.cif
#   From: 2010.03.12/outbox.cif.g09.slc.cpg/sg63_22_cif.got.tgz:42101.got - 2010.04.10 19:34:48.
