data_PCOD8257784
_publ_section_title
;
Structure prediction by ZEFSAII (Michael W. Deem and Ramdas Pophale) SiO2 
 PCOD8257784
Probable space group: C M C M
;
_chemical_formula_sum "Si O2"
_cell_formula_units_Z 104
_cell_length_a 22.610260
_cell_length_b 28.277526
_cell_length_c 9.014513
_cell_angle_alpha 90.000000
_cell_angle_beta 90.000000
_cell_angle_gamma 90.000000
_cell_volume 5763.538999
_symmetry_space_group_name_H-M "C M C M"
_symmetry_group_IT_number 63
_symmetry_cell_setting 'orthorhombic'
loop_
_space_group_symop_operation_xyz
x,y,z
-x,-y,1/2+z
x,-y,-z
-x,y,1/2-z
-x,-y,-z
x,y,1/2-z
-x,y,z
x,-y,1/2+z
1/2+x,1/2+y,z
1/2-x,1/2-y,1/2+z
1/2+x,1/2-y,-z
1/2-x,1/2+y,1/2-z
1/2-x,1/2-y,-z
1/2+x,1/2+y,1/2-z
1/2-x,1/2+y,z
1/2+x,1/2-y,1/2+z
loop_
_atom_site_type_symbol
_atom_site_label
_atom_site_fract_x
_atom_site_fract_y
_atom_site_fract_z
Si Si1 0.375986 0.598291 0.074516
Si Si2 0.690109 0.787823 0.918318
Si Si3 0.500000 0.551374 0.423149
Si Si4 0.175461 0.198478 0.075720
Si Si5 0.434678 0.953087 0.923538
Si Si6 0.769534 0.950737 0.426812
Si Si7 0.671939 0.108442 0.079641
O O1 0.363764 0.593573 0.250000
O O2 0.443033 0.583386 0.033660
O O3 0.360590 0.652059 0.020082
O O4 0.334545 0.561958 0.986469
O O5 0.694128 0.770298 0.750000
O O6 0.756127 0.800886 0.977273
O O7 0.656065 0.836693 0.937714
O O8 0.652434 0.747917 0.006499
O O9 0.500000 0.500000 0.500000
O O10 0.500000 0.540331 0.250000
O O11 0.168873 0.200754 0.250000
O O12 0.434661 0.961984 0.750000
O O13 0.500000 0.939177 0.980832
O O14 0.389630 0.913135 0.972203
O O15 0.411214 0.000000 0.000000
O O16 0.770426 0.955549 0.250000
O O17 0.724813 0.909395 0.475628
O O18 0.748815 0.000000 0.500000
O O19 0.689647 0.096474 0.250000
#
# Coordination Sequence:
#
# PCOD8257784 Si02
#       7
#    16  16   8  16  16  16  16
#     4  10  20  38  58  79 106 140 180 221 271 321
#     4   9  17  30  50  76 105 135 168 209 259 310
#     4  10  22  38  60  82 106 142 184 228 273 330
#     4   9  17  31  52  75 103 134 168 211 256 311
#     4   9  18  32  51  73  98 133 173 209 250 303
#     4  12  24  35  51  77 108 140 173 214 264 318
#     4  10  19  34  53  75 105 138 173 217 263 309
#
# _framework density 18.044468999999999
#
# number of rings (size 3 to 8) (size 9 to 14) (size 15 to 20)
#    0.000    2.154    1.538    2.308    0.000    4.923 
#    0.000    0.000    1.692    0.000    0.000    0.000 
#    0.000    0.000    0.000    0.000    0.000    0.000 
#
# Total GULP energy -644502.653234 kJ/mol
# GULP energy per Si atom -12394.281793 kJ/mol
# Density = 1.800340 g / cm^3
# Si number density = 18.044469 Si / 1000 Ang^3
#
#
#
# Elastic Constant Matrix: (Units=GPa)
#
#
# Indices 1 2 3 4 5 6 
#
# 1 76.9178 57.5833 30.9175 0.0000 0.0000 0.0000
# 2 57.5833 122.8781 32.5258 0.0000 0.0000 0.0000
# 3 30.9175 32.5258 48.3680 0.0000 0.0000 0.0000
# 4 0.0000 0.0000 0.0000 32.9313 0.0000 0.0000
# 5 0.0000 0.0000 0.0000 0.0000 13.5082 0.0000
# 6 0.0000 0.0000 0.0000 0.0000 0.0000 30.2802
#
#
#
# Elastic Compliance Matrix: (Units=1/GPa)
#
#
# Indices 1 2 3 4 5 6 
#
# 1 0.022856 -0.008325 -0.009011 0.000000 0.000000 0.000000
# 2 -0.008325 0.012933 -0.003375 0.000000 0.000000 0.000000
# 3 -0.009011 -0.003375 0.028705 0.000000 0.000000 0.000000
# 4 0.000000 0.000000 0.000000 0.030366 0.000000 0.000000
# 5 0.000000 0.000000 0.000000 0.000000 0.074029 0.000000
# 6 0.000000 0.000000 0.000000 0.000000 0.000000 0.033025
#
#
# Mechanical properties :
#
#
# Convention : Reuss Voigt Hill
#
# Bulk Modulus (GPa) = 43.34692 54.46857 48.90774
# Shear Modulus (GPa) = 19.91814 23.81973 21.86894
#
# Velocity S-wave (km/s) = 3.32601 3.63720 3.48508
# Velocity P-wave (km/s) = 6.23091 6.92028 6.58462
#
# Compressibility (1/GPa) = 0.02306969
#
# Stress axis : x y z
#
# Youngs Moduli (GPa) = 43.75293 77.32128 34.83751
#
# Poissons Ratio (x) = 0.64373 0.31392
# Poissons Ratio (y) = 0.36426 0.11759
# Poissons Ratio (z) = 0.39426 0.26099
#
# Static dielectric constant tensor:
#      x y z
#    x 3.378770 0.000000 0.000000 
#    y 0.000000 3.570310 0.000000 
#    z 0.000000 0.000000 3.254230 
# 
# 
# High freq. dielectric constant tensor:
#      x y z
#    x 1.677670 0.000000 0.000000 
#    y 0.000000 1.709030 0.000000 
#    z 0.000000 0.000000 1.688710 
# 
# From -- ./inp_files/10824.got.cif
#   From: 2010.03.12/outbox.cif.g09.slc.cpg/sg63_6_cif.got.tgz:10824.got - 2010.04.10 19:34:48.
