data_PCOD8257555
_publ_section_title
;
Structure prediction by ZEFSAII (Michael W. Deem and Ramdas Pophale) SiO2 
 PCOD8257555
Probable space group: C M C M
;
_chemical_formula_sum "Si O2"
_cell_formula_units_Z 96
_cell_length_a 8.768365
_cell_length_b 23.104869
_cell_length_c 23.742848
_cell_angle_alpha 90.000000
_cell_angle_beta 90.000000
_cell_angle_gamma 90.000000
_cell_volume 4810.109273
_symmetry_space_group_name_H-M "C M C M"
_symmetry_group_IT_number 63
_symmetry_cell_setting 'orthorhombic'
loop_
_space_group_symop_operation_xyz
x,y,z
-x,-y,1/2+z
x,-y,-z
-x,y,1/2-z
-x,-y,-z
x,y,1/2-z
-x,y,z
x,-y,1/2+z
1/2+x,1/2+y,z
1/2-x,1/2-y,1/2+z
1/2+x,1/2-y,-z
1/2-x,1/2+y,1/2-z
1/2-x,1/2-y,-z
1/2+x,1/2+y,1/2-z
1/2-x,1/2+y,z
1/2+x,1/2-y,1/2+z
loop_
_atom_site_type_symbol
_atom_site_label
_atom_site_fract_x
_atom_site_fract_y
_atom_site_fract_z
Si Si1 0.681372 0.644433 0.912556
Si Si2 0.821757 0.050667 0.124319
Si Si3 0.673348 0.848938 0.686714
Si Si4 0.318772 0.885555 0.976061
Si Si5 0.819387 0.064008 0.686366
Si Si6 0.324629 0.772498 0.586083
O O1 0.500000 0.643345 0.918173
O O2 0.729394 0.619374 0.851385
O O3 0.751689 0.709210 0.920129
O O4 0.752055 0.604352 0.961697
O O5 0.790019 0.101587 0.168543
O O6 0.737520 0.063352 0.065145
O O7 0.000000 0.045956 0.111638
O O8 0.757843 0.992421 0.153308
O O9 0.707464 0.830563 0.750000
O O10 0.500000 0.871956 0.678055
O O11 0.698382 0.791100 0.650713
O O12 0.500000 0.886835 0.976640
O O13 0.255201 0.822919 0.953803
O O14 0.750134 0.068542 0.750000
O O15 0.000000 0.059600 0.691416
O O16 0.500000 0.765660 0.570175
#
# Coordination Sequence:
#
# PCOD8257555 Si02
#       6
#    16  16  16  16  16  16
#     4  10  19  33  54  77 101 133 171 205 245 299
#     4  10  19  33  53  75 100 131 170 212 253 297
#     4   9  17  30  49  75 105 134 167 210 257 301
#     4  10  20  35  53  76 105 131 163 209 259 303
#     4   9  19  34  52  76 104 132 165 207 249 291
#     4   8  16  30  49  74 102 133 167 204 247 297
#
# _framework density 19.957968000000001
#
# number of rings (size 3 to 8) (size 9 to 14) (size 15 to 20)
#    0.000    2.667    0.000    3.000    0.000    2.333 
#    0.000   11.667    0.000    2.500    0.000    0.000 
#    0.000    0.000    0.000    0.000    0.000    0.000 
#
# Total GULP energy -594940.339879 kJ/mol
# GULP energy per Si atom -12394.590414 kJ/mol
# Density = 1.991254 g / cm^3
# Si number density = 19.957968 Si / 1000 Ang^3
#
#
#
# Elastic Constant Matrix: (Units=GPa)
#
#
# Indices 1 2 3 4 5 6 
#
# 1 37.2152 15.6433 25.1468 0.0000 0.0000 0.0000
# 2 15.6433 75.3548 40.8453 0.0000 0.0000 0.0000
# 3 25.1468 40.8453 147.1939 0.0000 0.0000 0.0000
# 4 0.0000 0.0000 0.0000 21.7021 0.0000 0.0000
# 5 0.0000 0.0000 0.0000 0.0000 23.9555 0.0000
# 6 0.0000 0.0000 0.0000 0.0000 0.0000 17.8979
#
#
#
# Elastic Compliance Matrix: (Units=1/GPa)
#
#
# Indices 1 2 3 4 5 6 
#
# 1 0.031500 -0.004264 -0.004198 0.000000 0.000000 0.000000
# 2 -0.004264 0.016197 -0.003766 0.000000 0.000000 0.000000
# 3 -0.004198 -0.003766 0.008556 0.000000 0.000000 0.000000
# 4 0.000000 0.000000 0.000000 0.046078 0.000000 0.000000
# 5 0.000000 0.000000 0.000000 0.000000 0.041744 0.000000
# 6 0.000000 0.000000 0.000000 0.000000 0.000000 0.055872
#
#
# Mechanical properties :
#
#
# Convention : Reuss Voigt Hill
#
# Bulk Modulus (GPa) = 31.44968 47.00384 39.22676
# Shear Modulus (GPa) = 21.27633 24.58635 22.93134
#
# Velocity S-wave (km/s) = 3.26859 3.51366 3.39334
# Velocity P-wave (km/s) = 5.48061 6.32958 5.92034
#
# Compressibility (1/GPa) = 0.03179683
#
# Stress axis : x y z
#
# Youngs Moduli (GPa) = 31.74624 61.73957 116.87560
#
# Poissons Ratio (x) = 0.26323 0.49069
# Poissons Ratio (y) = 0.13535 0.44018
# Poissons Ratio (z) = 0.13328 0.23252
#
# Static dielectric constant tensor:
#      x y z
#    x 3.202730 0.000000 0.000000 
#    y 0.000000 3.754660 0.000000 
#    z 0.000000 0.000000 3.846860 
# 
# 
# High freq. dielectric constant tensor:
#      x y z
#    x 1.737630 0.000000 0.000000 
#    y 0.000000 1.770670 0.000000 
#    z 0.000000 0.000000 1.791250 
# 
# From -- ./inp_files/59834.got.cif
#   From: 2010.03.12/outbox.cif.g09.slc.cpg/sg63_30_cif.got.tgz:59834.got - 2010.04.10 19:34:48.
