data_PCOD8257157
_publ_section_title
;
Structure prediction by ZEFSAII (Michael W. Deem and Ramdas Pophale) SiO2 
 PCOD8257157
Probable space group: C M C M
;
_chemical_formula_sum "Si O2"
_cell_formula_units_Z 80
_cell_length_a 13.247932
_cell_length_b 13.973213
_cell_length_c 26.007823
_cell_angle_alpha 90.000000
_cell_angle_beta 90.000000
_cell_angle_gamma 90.000000
_cell_volume 4814.468731
_symmetry_space_group_name_H-M "C M C M"
_symmetry_group_IT_number 63
_symmetry_cell_setting 'orthorhombic'
loop_
_space_group_symop_operation_xyz
x,y,z
-x,-y,1/2+z
x,-y,-z
-x,y,1/2-z
-x,-y,-z
x,y,1/2-z
-x,y,z
x,-y,1/2+z
1/2+x,1/2+y,z
1/2-x,1/2-y,1/2+z
1/2+x,1/2-y,-z
1/2-x,1/2+y,1/2-z
1/2-x,1/2-y,-z
1/2+x,1/2+y,1/2-z
1/2-x,1/2+y,z
1/2+x,1/2-y,1/2+z
loop_
_atom_site_type_symbol
_atom_site_label
_atom_site_fract_x
_atom_site_fract_y
_atom_site_fract_z
Si Si1 0.114327 0.272694 0.537406
Si Si2 0.293619 0.392689 0.981883
Si Si3 0.242865 0.333958 0.875718
Si Si4 0.884083 0.301008 0.309520
Si Si5 0.385103 0.978811 0.810036
O O1 0.182808 0.347786 0.504470
O O2 0.121806 0.167646 0.512223
O O3 0.155099 0.271225 0.596369
O O4 0.000000 0.308689 0.536061
O O5 0.310329 0.385563 0.920108
O O6 0.300621 0.500000 0.000000
O O7 0.312443 0.265345 0.842726
O O8 0.193362 0.414492 0.840535
O O9 0.860061 0.282395 0.250000
O O10 0.862555 0.411046 0.323665
O O11 0.000000 0.275248 0.321617
O O12 0.369086 0.959956 0.750000
O O13 0.500000 0.953249 0.825675
#
# Coordination Sequence:
#
# PCOD8257157 Si02
#       5
#    16  16  16  16  16
#     4   9  20  36  51  74 104 134 171 211 251 301
#     4   9  21  36  51  76 103 135 174 213 254 297
#     4  10  19  31  55  77 102 133 170 207 259 300
#     4   9  19  35  54  77 104 133 169 210 251 303
#     4   9  18  32  53  80 104 130 166 209 257 306
#
# _framework density 16.616579999999999
#
# number of rings (size 3 to 8) (size 9 to 14) (size 15 to 20)
#    1.200    1.600    0.000    2.400    2.800    1.600 
#    0.000    0.000    0.000    0.000    0.000    5.600 
#    0.000    0.000    0.000    0.000    0.000    0.000 
#
# Total GULP energy -495676.301580 kJ/mol
# GULP energy per Si atom -12391.907539 kJ/mol
# Density = 1.657876 g / cm^3
# Si number density = 16.616580 Si / 1000 Ang^3
#
#
#
# Elastic Constant Matrix: (Units=GPa)
#
#
# Indices 1 2 3 4 5 6 
#
# 1 48.9138 9.2265 31.0888 0.0000 0.0000 0.0000
# 2 9.2265 78.4501 47.5169 0.0000 0.0000 0.0000
# 3 31.0888 47.5169 84.5648 0.0000 0.0000 0.0000
# 4 0.0000 0.0000 0.0000 17.1073 0.0000 0.0000
# 5 0.0000 0.0000 0.0000 0.0000 21.8587 0.0000
# 6 0.0000 0.0000 0.0000 0.0000 0.0000 26.2375
#
#
#
# Elastic Compliance Matrix: (Units=1/GPa)
#
#
# Indices 1 2 3 4 5 6 
#
# 1 0.027646 0.004403 -0.012638 0.000000 0.000000 0.000000
# 2 0.004403 0.020025 -0.012871 0.000000 0.000000 0.000000
# 3 -0.012638 -0.012871 0.023703 0.000000 0.000000 0.000000
# 4 0.000000 0.000000 0.000000 0.058455 0.000000 0.000000
# 5 0.000000 0.000000 0.000000 0.000000 0.045748 0.000000
# 6 0.000000 0.000000 0.000000 0.000000 0.000000 0.038113
#
#
# Mechanical properties :
#
#
# Convention : Reuss Voigt Hill
#
# Bulk Modulus (GPa) = 34.28926 43.06590 38.67758
# Shear Modulus (GPa) = 18.82374 21.31379 20.06876
#
# Velocity S-wave (km/s) = 3.36940 3.58534 3.47905
# Velocity P-wave (km/s) = 5.98478 6.56607 6.28215
#
# Compressibility (1/GPa) = 0.02916365
#
# Stress axis : x y z
#
# Youngs Moduli (GPa) = 36.17171 49.93799 42.18817
#
# Poissons Ratio (x) = -0.21989 0.53316
# Poissons Ratio (y) = -0.15927 0.54299
# Poissons Ratio (z) = 0.45713 0.64274
#
# Static dielectric constant tensor:
#      x y z
#    x 2.906500 0.000000 0.000000 
#    y 0.000000 2.958210 0.000000 
#    z 0.000000 0.000000 3.148680 
# 
# 
# High freq. dielectric constant tensor:
#      x y z
#    x 1.626620 0.000000 0.000000 
#    y 0.000000 1.632930 0.000000 
#    z 0.000000 0.000000 1.641470 
# 
# From -- ./inp_files/69164.got.cif
#   From: 2010.03.12/outbox.cif.g09.slc.cpg/sg63_35_cif.got.tgz:69164.got - 2010.04.10 19:34:48.
