data_PCOD8257972
_publ_section_title
;
Structure prediction by ZEFSAII (Michael W. Deem and Ramdas Pophale) SiO2 
 PCOD8257972
Probable space group: C M C M
;
_chemical_formula_sum "Si O2"
_cell_formula_units_Z 88
_cell_length_a 17.679848
_cell_length_b 29.263364
_cell_length_c 9.134342
_cell_angle_alpha 90.000000
_cell_angle_beta 90.000000
_cell_angle_gamma 90.000000
_cell_volume 4725.851213
_symmetry_space_group_name_H-M "C M C M"
_symmetry_group_IT_number 63
_symmetry_cell_setting 'orthorhombic'
loop_
_space_group_symop_operation_xyz
x,y,z
-x,-y,1/2+z
x,-y,-z
-x,y,1/2-z
-x,-y,-z
x,y,1/2-z
-x,y,z
x,-y,1/2+z
1/2+x,1/2+y,z
1/2-x,1/2-y,1/2+z
1/2+x,1/2-y,-z
1/2-x,1/2+y,1/2-z
1/2-x,1/2-y,-z
1/2+x,1/2+y,1/2-z
1/2-x,1/2+y,z
1/2+x,1/2-y,1/2+z
loop_
_atom_site_type_symbol
_atom_site_label
_atom_site_fract_x
_atom_site_fract_y
_atom_site_fract_z
Si Si1 0.364102 0.098278 0.421187
Si Si2 0.090166 0.206895 0.586814
Si Si3 0.000000 0.548747 0.924938
Si Si4 0.416167 0.194833 0.077514
Si Si5 0.086004 0.881788 0.922330
Si Si6 0.709944 0.547965 0.420994
O O1 0.385272 0.091054 0.250000
O O2 0.425474 0.074791 0.523526
O O3 0.361720 0.152334 0.460921
O O4 0.283263 0.077593 0.460381
O O5 0.122382 0.199101 0.750000
O O6 0.116793 0.256286 0.519840
O O7 0.119260 0.165203 0.487814
O O8 0.000000 0.207744 0.588885
O O9 0.000000 0.543853 0.750000
O O10 0.000000 0.500000 0.000000
O O11 0.424052 0.201025 0.250000
O O12 0.500000 0.184682 0.012164
O O13 0.091678 0.876348 0.750000
O O14 0.136682 0.924167 0.976605
O O15 0.000000 0.891158 0.974035
O O16 0.713682 0.500000 0.500000
O O17 0.705018 0.538076 0.250000
#
# Coordination Sequence:
#
# PCOD8257972 Si02
#       6
#    16  16   8  16  16  16
#     4  10  19  35  56  76 102 137 176 215 258 304
#     4   8  14  26  48  77 102 129 169 208 244 297
#     4  12  24  36  52  76 104 136 178 220 259 308
#     4   8  13  25  49  76 101 132 170 206 243 293
#     4   9  18  34  53  74 103 136 169 209 262 319
#     4  10  22  37  54  75  99 133 174 217 266 317
#
# _framework density 18.620984
#
# number of rings (size 3 to 8) (size 9 to 14) (size 15 to 20)
#    0.000    2.727    0.909    2.455    0.000    3.273 
#    0.000    1.818    0.000    0.000    0.000    0.000 
#    0.000    0.000    0.000    0.000    0.000    0.000 
#
# Total GULP energy -545338.537982 kJ/mol
# GULP energy per Si atom -12394.057681 kJ/mol
# Density = 1.857860 g / cm^3
# Si number density = 18.620984 Si / 1000 Ang^3
#
#
#
# Elastic Constant Matrix: (Units=GPa)
#
#
# Indices 1 2 3 4 5 6 
#
# 1 90.4796 71.6116 35.6315 0.0000 0.0000 0.0000
# 2 71.6116 161.9188 41.0566 0.0000 0.0000 0.0000
# 3 35.6315 41.0566 48.6591 0.0000 0.0000 0.0000
# 4 0.0000 0.0000 0.0000 28.8870 0.0000 0.0000
# 5 0.0000 0.0000 0.0000 0.0000 11.5354 0.0000
# 6 0.0000 0.0000 0.0000 0.0000 0.0000 37.9733
#
#
#
# Elastic Compliance Matrix: (Units=1/GPa)
#
#
# Indices 1 2 3 4 5 6 
#
# 1 0.019675 -0.006423 -0.008988 0.000000 0.000000 0.000000
# 2 -0.006423 0.009953 -0.003695 0.000000 0.000000 0.000000
# 3 -0.008988 -0.003695 0.030251 0.000000 0.000000 0.000000
# 4 0.000000 0.000000 0.000000 0.034618 0.000000 0.000000
# 5 0.000000 0.000000 0.000000 0.000000 0.086690 0.000000
# 6 0.000000 0.000000 0.000000 0.000000 0.000000 0.026334
#
#
# Mechanical properties :
#
#
# Convention : Reuss Voigt Hill
#
# Bulk Modulus (GPa) = 46.15291 66.40633 56.27962
# Shear Modulus (GPa) = 19.76629 25.86300 22.81465
#
# Velocity S-wave (km/s) = 3.26161 3.73086 3.50410
# Velocity P-wave (km/s) = 6.24687 7.36876 6.83089
#
# Compressibility (1/GPa) = 0.02166711
#
# Stress axis : x y z
#
# Youngs Moduli (GPa) = 50.82549 100.46796 33.05684
#
# Poissons Ratio (x) = 0.64526 0.29713
# Poissons Ratio (y) = 0.32643 0.12215
# Poissons Ratio (z) = 0.45684 0.37125
#
# Static dielectric constant tensor:
#      x y z
#    x 3.292230 0.000000 0.000000 
#    y 0.000000 3.878960 0.000000 
#    z 0.000000 0.000000 3.224770 
# 
# 
# High freq. dielectric constant tensor:
#      x y z
#    x 1.697220 0.000000 0.000000 
#    y 0.000000 1.744010 0.000000 
#    z 0.000000 0.000000 1.692950 
# 
# From -- ./inp_files/6897.got.cif
#   From: 2010.03.12/outbox.cif.g09.slc.cpg/sg63_4_cif.got.tgz:6897.got - 2010.04.10 19:34:48.
