data_PCOD8257358
_publ_section_title
;
Structure prediction by ZEFSAII (Michael W. Deem and Ramdas Pophale) SiO2 
 PCOD8257358
Probable space group: C M C M
;
_chemical_formula_sum "Si O2"
_cell_formula_units_Z 80
_cell_length_a 9.128523
_cell_length_b 27.237823
_cell_length_c 18.128931
_cell_angle_alpha 90.000000
_cell_angle_beta 90.000000
_cell_angle_gamma 90.000000
_cell_volume 4507.597232
_symmetry_space_group_name_H-M "C M C M"
_symmetry_group_IT_number 63
_symmetry_cell_setting 'orthorhombic'
loop_
_space_group_symop_operation_xyz
x,y,z
-x,-y,1/2+z
x,-y,-z
-x,y,1/2-z
-x,-y,-z
x,y,1/2-z
-x,y,z
x,-y,1/2+z
1/2+x,1/2+y,z
1/2-x,1/2-y,1/2+z
1/2+x,1/2-y,-z
1/2-x,1/2+y,1/2-z
1/2-x,1/2-y,-z
1/2+x,1/2+y,1/2-z
1/2-x,1/2+y,z
1/2+x,1/2-y,1/2+z
loop_
_atom_site_type_symbol
_atom_site_label
_atom_site_fract_x
_atom_site_fract_y
_atom_site_fract_z
Si Si1 0.172858 0.400997 0.542136
Si Si2 0.331406 0.798005 0.025241
Si Si3 0.831523 0.353227 0.167224
Si Si4 0.170669 0.045359 0.335045
Si Si5 0.172068 0.940544 0.403493
O O1 0.213831 0.344663 0.524440
O O2 0.236085 0.413395 0.622510
O O3 0.247722 0.436508 0.482014
O O4 0.000000 0.409718 0.539484
O O5 0.500000 0.786085 0.015513
O O6 0.291657 0.809635 0.110581
O O7 0.250000 0.750000 0.000000
O O8 0.806541 0.333562 0.250000
O O9 0.729137 0.399900 0.153628
O O10 0.000000 0.369591 0.153786
O O11 0.217996 0.046736 0.250000
O O12 0.000000 0.057240 0.344600
O O13 0.210030 0.992591 0.368162
O O14 0.000000 0.933547 0.416097
#
# Coordination Sequence:
#
# PCOD8257358 Si02
#       5
#    16  16  16  16  16
#     4  10  21  36  53  75 102 132 170 212 252 299
#     4   9  19  35  54  75  98 127 165 209 256 305
#     4   9  18  33  52  76 105 132 163 208 258 305
#     4  10  21  35  50  73 106 140 173 208 246 292
#     4  10  19  32  52  77 105 136 170 207 247 295
#
# _framework density 17.747814000000002
#
# number of rings (size 3 to 8) (size 9 to 14) (size 15 to 20)
#    0.000    2.400    0.000    3.600    0.000    9.600 
#    0.000    1.000    0.000    3.600    0.000    0.000 
#    0.000    0.000    0.000    0.000    0.000    0.000 
#
# Total GULP energy -496051.896088 kJ/mol
# GULP energy per Si atom -12401.297402 kJ/mol
# Density = 1.770742 g / cm^3
# Si number density = 17.747814 Si / 1000 Ang^3
#
#
#
# Elastic Constant Matrix: (Units=GPa)
#
#
# Indices 1 2 3 4 5 6 
#
# 1 74.5772 59.6470 62.7987 0.0000 0.0000 0.0000
# 2 59.6470 112.0226 84.9458 0.0000 0.0000 0.0000
# 3 62.7987 84.9458 149.7650 0.0000 0.0000 0.0000
# 4 0.0000 0.0000 0.0000 20.3268 0.0000 0.0000
# 5 0.0000 0.0000 0.0000 0.0000 31.4803 0.0000
# 6 0.0000 0.0000 0.0000 0.0000 0.0000 33.6298
#
#
#
# Elastic Compliance Matrix: (Units=1/GPa)
#
#
# Indices 1 2 3 4 5 6 
#
# 1 0.025509 -0.009601 -0.005251 0.000000 0.000000 0.000000
# 2 -0.009601 0.019277 -0.006908 0.000000 0.000000 0.000000
# 3 -0.005251 -0.006908 0.012797 0.000000 0.000000 0.000000
# 4 0.000000 0.000000 0.000000 0.049196 0.000000 0.000000
# 5 0.000000 0.000000 0.000000 0.000000 0.031766 0.000000
# 6 0.000000 0.000000 0.000000 0.000000 0.000000 0.029736
#
#
# Mechanical properties :
#
#
# Convention : Reuss Voigt Hill
#
# Bulk Modulus (GPa) = 71.10403 83.46088 77.28246
# Shear Modulus (GPa) = 23.09588 25.68559 24.39073
#
# Velocity S-wave (km/s) = 3.61132 3.80841 3.71117
# Velocity P-wave (km/s) = 7.58547 8.15271 7.87420
#
# Compressibility (1/GPa) = 0.01406390
#
# Stress axis : x y z
#
# Youngs Moduli (GPa) = 39.20136 51.87486 78.14247
#
# Poissons Ratio (x) = 0.49804 0.41032
# Poissons Ratio (y) = 0.37637 0.53982
# Poissons Ratio (z) = 0.20584 0.35836
#
# Static dielectric constant tensor:
#      x y z
#    x 3.303380 0.000000 0.000000 
#    y 0.000000 3.105850 0.000000 
#    z 0.000000 0.000000 3.510090 
# 
# 
# High freq. dielectric constant tensor:
#      x y z
#    x 1.690920 0.000000 0.000000 
#    y 0.000000 1.668560 0.000000 
#    z 0.000000 0.000000 1.693800 
# 
# From -- ./inp_files/40489.got.cif
#   From: 2010.03.12/outbox.cif.g09.slc.cpg/sg63_21_cif.got.tgz:40489.got - 2010.04.10 19:34:48.
