data_PCOD8257935
_publ_section_title
;
Structure prediction by ZEFSAII (Michael W. Deem and Ramdas Pophale) SiO2 
 PCOD8257935
Probable space group: C M C M
;
_chemical_formula_sum "Si O2"
_cell_formula_units_Z 112
_cell_length_a 14.423794
_cell_length_b 14.380090
_cell_length_c 24.584676
_cell_angle_alpha 90.000000
_cell_angle_beta 90.000000
_cell_angle_gamma 90.000000
_cell_volume 5099.241780
_symmetry_space_group_name_H-M "C M C M"
_symmetry_group_IT_number 63
_symmetry_cell_setting 'orthorhombic'
loop_
_space_group_symop_operation_xyz
x,y,z
-x,-y,1/2+z
x,-y,-z
-x,y,1/2-z
-x,-y,-z
x,y,1/2-z
-x,y,z
x,-y,1/2+z
1/2+x,1/2+y,z
1/2-x,1/2-y,1/2+z
1/2+x,1/2-y,-z
1/2-x,1/2+y,1/2-z
1/2-x,1/2-y,-z
1/2+x,1/2+y,1/2-z
1/2-x,1/2+y,z
1/2+x,1/2-y,1/2+z
loop_
_atom_site_type_symbol
_atom_site_label
_atom_site_fract_x
_atom_site_fract_y
_atom_site_fract_z
Si Si1 0.608352 0.430195 0.542932
Si Si2 0.396645 0.759669 0.902370
Si Si3 0.752502 0.203396 0.313422
Si Si4 0.609537 0.229117 0.979446
Si Si5 0.389879 0.151264 0.632885
Si Si6 0.100905 0.936648 0.364284
Si Si7 0.770754 0.489683 0.310392
O O1 0.656482 0.500000 0.500000
O O2 0.500000 0.423018 0.530029
O O3 0.653424 0.327883 0.538974
O O4 0.624813 0.469100 0.603347
O O5 0.500000 0.800468 0.893069
O O6 0.339170 0.780764 0.848670
O O7 0.399789 0.647556 0.907739
O O8 0.353451 0.798082 0.959794
O O9 0.735833 0.228488 0.250000
O O10 0.839634 0.264073 0.334984
O O11 0.766905 0.093156 0.320570
O O12 0.500000 0.238586 0.985482
O O13 0.634278 0.156330 0.931715
O O14 0.500000 0.160202 0.643389
O O15 0.353221 0.049386 0.651117
O O16 0.180941 0.923012 0.319230
O O17 0.000000 0.943663 0.335626
O O18 0.809192 0.476742 0.250000
#
# Coordination Sequence:
#
# PCOD8257935 Si02
#       7
#    16  16  16  16  16  16  16
#     4   9  14  25  50  87 126 158 193 236 296 373
#     4  10  20  37  63  94 128 164 203 253 321 387
#     4  11  25  44  65  92 128 168 219 277 324 380
#     4   9  18  34  59  92 128 166 207 259 316 383
#     4  11  24  44  69  95 129 174 222 268 323 389
#     4  10  19  34  60  92 124 159 198 250 317 383
#     4  11  25  44  63  90 127 165 214 274 331 387
#
# _framework density 21.964048999999999
#
# number of rings (size 3 to 8) (size 9 to 14) (size 15 to 20)
#    0.000    1.857    2.857    1.286    0.000    4.571 
#    0.000    5.000    0.000    2.571    0.000    0.000 
#    0.000    0.000    0.000    0.000    0.000    0.000 
#
# Total GULP energy -693789.273759 kJ/mol
# GULP energy per Si atom -12389.094174 kJ/mol
# Density = 2.191406 g / cm^3
# Si number density = 21.964049 Si / 1000 Ang^3
#
#
#
# Elastic Constant Matrix: (Units=GPa)
#
#
# Indices 1 2 3 4 5 6 
#
# 1 99.1178 13.6233 55.1282 0.0000 0.0000 0.0000
# 2 13.6233 32.2747 24.7219 0.0000 0.0000 0.0000
# 3 55.1282 24.7219 135.9123 0.0000 0.0000 0.0000
# 4 0.0000 0.0000 0.0000 27.9471 0.0000 0.0000
# 5 0.0000 0.0000 0.0000 0.0000 31.6603 0.0000
# 6 0.0000 0.0000 0.0000 0.0000 0.0000 22.5840
#
#
#
# Elastic Compliance Matrix: (Units=1/GPa)
#
#
# Indices 1 2 3 4 5 6 
#
# 1 0.013108 -0.001697 -0.005008 0.000000 0.000000 0.000000
# 2 -0.001697 0.036220 -0.005900 0.000000 0.000000 0.000000
# 3 -0.005008 -0.005900 0.010462 0.000000 0.000000 0.000000
# 4 0.000000 0.000000 0.000000 0.035782 0.000000 0.000000
# 5 0.000000 0.000000 0.000000 0.000000 0.031585 0.000000
# 6 0.000000 0.000000 0.000000 0.000000 0.000000 0.044279
#
#
# Mechanical properties :
#
#
# Convention : Reuss Voigt Hill
#
# Bulk Modulus (GPa) = 28.91854 50.47240 39.69547
# Shear Modulus (GPa) = 24.01864 28.02706 26.02285
#
# Velocity S-wave (km/s) = 3.31046 3.57605 3.44582
# Velocity P-wave (km/s) = 5.27325 6.33090 5.82612
#
# Compressibility (1/GPa) = 0.03457989
#
# Stress axis : x y z
#
# Youngs Moduli (GPa) = 76.29154 27.60942 95.58222
#
# Poissons Ratio (x) = 0.04685 0.47868
# Poissons Ratio (y) = 0.12945 0.56393
# Poissons Ratio (z) = 0.38207 0.16289
#
# Static dielectric constant tensor:
#      x y z
#    x 3.722870 0.000000 0.000000 
#    y 0.000000 4.032030 0.000000 
#    z 0.000000 0.000000 4.026240 
# 
# 
# High freq. dielectric constant tensor:
#      x y z
#    x 1.847150 0.000000 0.000000 
#    y 0.000000 1.851850 0.000000 
#    z 0.000000 0.000000 1.866390 
# 
# From -- ./inp_files/63020.got.cif
#   From: 2010.03.12/outbox.cif.g09.slc.cpg/sg63_32_cif.got.tgz:63020.got - 2010.04.10 19:34:48.
