data_PCOD8257817
_publ_section_title
;
Structure prediction by ZEFSAII (Michael W. Deem and Ramdas Pophale) SiO2 
 PCOD8257817
Probable space group: C M C M
;
_chemical_formula_sum "Si O2"
_cell_formula_units_Z 88
_cell_length_a 10.642839
_cell_length_b 13.745689
_cell_length_c 33.591961
_cell_angle_alpha 90.000000
_cell_angle_beta 90.000000
_cell_angle_gamma 90.000000
_cell_volume 4914.273956
_symmetry_space_group_name_H-M "C M C M"
_symmetry_group_IT_number 63
_symmetry_cell_setting 'orthorhombic'
loop_
_space_group_symop_operation_xyz
x,y,z
-x,-y,1/2+z
x,-y,-z
-x,y,1/2-z
-x,-y,-z
x,y,1/2-z
-x,y,z
x,-y,1/2+z
1/2+x,1/2+y,z
1/2-x,1/2-y,1/2+z
1/2+x,1/2-y,-z
1/2-x,1/2+y,1/2-z
1/2-x,1/2-y,-z
1/2+x,1/2+y,1/2-z
1/2-x,1/2+y,z
1/2+x,1/2-y,1/2+z
loop_
_atom_site_type_symbol
_atom_site_label
_atom_site_fract_x
_atom_site_fract_y
_atom_site_fract_z
Si Si1 0.146163 0.003727 0.455148
Si Si2 0.261062 0.351423 0.891519
Si Si3 0.358220 0.344592 0.106617
Si Si4 0.500000 0.279973 0.852554
Si Si5 0.748192 0.977938 0.330572
Si Si6 0.000000 0.961273 0.704860
Si Si7 0.000000 0.596518 0.704283
O O1 0.221324 0.086838 0.431554
O O2 0.000000 0.032513 0.454363
O O3 0.198359 0.000000 0.500000
O O4 0.169469 0.898460 0.435234
O O5 0.152221 0.271774 0.898500
O O6 0.381631 0.285688 0.881664
O O7 0.229203 0.422177 0.854873
O O8 0.500000 0.370492 0.120080
O O9 0.263262 0.386639 0.139709
O O10 0.500000 0.370038 0.823385
O O11 0.500000 0.184653 0.826141
O O12 0.872774 0.978188 0.303215
O O13 0.625157 0.966635 0.303333
O O14 0.000000 0.925557 0.750000
O O15 0.000000 0.632161 0.750000
#
# Coordination Sequence:
#
# PCOD8257817 Si02
#       7
#    16  16  16   8  16   8   8
#     4   9  18  33  54  82 111 140 181 227 269 321
#     4  10  19  34  57  78 105 143 182 219 263 320
#     4  10  19  34  55  79 105 145 186 220 266 326
#     4  10  19  34  55  78  98 136 188 218 257 322
#     4  10  21  35  55  78 107 141 183 221 267 332
#     4  10  19  36  55  73 102 143 178 221 268 324
#     4  12  23  36  53  83 114 139 172 235 290 318
#
# _framework density 17.907019999999999
#
# number of rings (size 3 to 8) (size 9 to 14) (size 15 to 20)
#    0.000    2.000    3.636    0.818    1.273    0.727 
#    0.000    0.000    0.000    1.636    0.000    0.000 
#    0.000    0.000    0.000    0.000    0.000    0.000 
#
# Total GULP energy -545516.246210 kJ/mol
# GULP energy per Si atom -12398.096505 kJ/mol
# Density = 1.786626 g / cm^3
# Si number density = 17.907020 Si / 1000 Ang^3
#
#
#
# Elastic Constant Matrix: (Units=GPa)
#
#
# Indices 1 2 3 4 5 6 
#
# 1 86.6932 25.5618 29.6919 0.0000 0.0000 0.0000
# 2 25.5618 88.2903 17.2006 0.0000 0.0000 0.0000
# 3 29.6919 17.2006 89.4019 0.0000 0.0000 0.0000
# 4 0.0000 0.0000 0.0000 24.5485 0.0000 0.0000
# 5 0.0000 0.0000 0.0000 0.0000 22.3522 0.0000
# 6 0.0000 0.0000 0.0000 0.0000 0.0000 29.3549
#
#
#
# Elastic Compliance Matrix: (Units=1/GPa)
#
#
# Indices 1 2 3 4 5 6 
#
# 1 0.013851 -0.003235 -0.003978 0.000000 0.000000 0.000000
# 2 -0.003235 0.012523 -0.001335 0.000000 0.000000 0.000000
# 3 -0.003978 -0.001335 0.012763 0.000000 0.000000 0.000000
# 4 0.000000 0.000000 0.000000 0.040736 0.000000 0.000000
# 5 0.000000 0.000000 0.000000 0.000000 0.044738 0.000000
# 6 0.000000 0.000000 0.000000 0.000000 0.000000 0.034066
#
#
# Mechanical properties :
#
#
# Convention : Reuss Voigt Hill
#
# Bulk Modulus (GPa) = 45.36848 45.47710 45.42279
# Shear Modulus (GPa) = 27.30442 28.04653 27.67547
#
# Velocity S-wave (km/s) = 3.90909 3.96186 3.93556
# Velocity P-wave (km/s) = 6.76500 6.81027 6.78767
#
# Compressibility (1/GPa) = 0.02204173
#
# Stress axis : x y z
#
# Youngs Moduli (GPa) = 72.19581 79.85299 78.34931
#
# Poissons Ratio (x) = 0.25834 0.31166
# Poissons Ratio (y) = 0.23357 0.10459
# Poissons Ratio (z) = 0.28718 0.10660
#
# Static dielectric constant tensor:
#      x y z
#    x 3.275300 0.000000 0.000000 
#    y 0.000000 3.169020 0.000000 
#    z 0.000000 0.000000 3.233350 
# 
# 
# High freq. dielectric constant tensor:
#      x y z
#    x 1.686130 0.000000 0.000000 
#    y 0.000000 1.689740 0.000000 
#    z 0.000000 0.000000 1.685890 
# 
# From -- ./inp_files/72766.got.cif
#   From: 2010.03.12/outbox.cif.g09.slc.cpg/sg63_37_cif.got.tgz:72766.got - 2010.04.10 19:34:48.
