data_PCOD8257773
_publ_section_title
;
Structure prediction by ZEFSAII (Michael W. Deem and Ramdas Pophale) SiO2 
 PCOD8257773
Probable space group: C M C M
;
_chemical_formula_sum "Si O2"
_cell_formula_units_Z 128
_cell_length_a 18.984214
_cell_length_b 20.139970
_cell_length_c 19.055477
_cell_angle_alpha 90.000000
_cell_angle_beta 90.000000
_cell_angle_gamma 90.000000
_cell_volume 7285.699668
_symmetry_space_group_name_H-M "C M C M"
_symmetry_group_IT_number 63
_symmetry_cell_setting 'orthorhombic'
loop_
_space_group_symop_operation_xyz
x,y,z
-x,-y,1/2+z
x,-y,-z
-x,y,1/2-z
-x,-y,-z
x,y,1/2-z
-x,y,z
x,-y,1/2+z
1/2+x,1/2+y,z
1/2-x,1/2-y,1/2+z
1/2+x,1/2-y,-z
1/2-x,1/2+y,1/2-z
1/2-x,1/2-y,-z
1/2+x,1/2+y,1/2-z
1/2-x,1/2+y,z
1/2+x,1/2-y,1/2+z
loop_
_atom_site_type_symbol
_atom_site_label
_atom_site_fract_x
_atom_site_fract_y
_atom_site_fract_z
Si Si1 0.579625 0.920760 0.670345
Si Si2 0.921093 0.164231 0.624163
Si Si3 0.267604 0.357882 0.328513
Si Si4 0.710488 0.188016 0.532023
Si Si5 0.573793 0.422495 0.988248
Si Si6 0.420097 0.807944 0.941564
Si Si7 0.220482 0.067221 0.044710
Si Si8 0.286012 0.996208 0.828764
O O1 0.586411 0.892081 0.750000
O O2 0.500000 0.944698 0.655624
O O3 0.601929 0.863670 0.615348
O O4 0.629547 0.985668 0.661732
O O5 0.853296 0.147285 0.672346
O O6 0.916121 0.111445 0.562823
O O7 0.910636 0.238060 0.596228
O O8 0.000000 0.158580 0.660312
O O9 0.242110 0.339215 0.250000
O O10 0.227951 0.310499 0.384588
O O11 0.240183 0.431020 0.348995
O O12 0.750000 0.250000 0.500000
O O13 0.627839 0.190731 0.511842
O O14 0.737467 0.120123 0.499558
O O15 0.500000 0.397351 0.953415
O O16 0.641214 0.405644 0.941168
O O17 0.568789 0.500000 0.000000
O O18 0.500000 0.818680 0.967201
O O19 0.250978 0.058323 0.121663
O O20 0.220726 0.000000 0.000000
O O21 0.262434 0.979054 0.750000
#
# Coordination Sequence:
#
# PCOD8257773 Si02
#       8
#    16  16  16  16  16  16  16  16
#     4   9  18  33  53  80 112 145 182 229 286 343
#     4  10  19  34  52  79 113 144 177 223 285 344
#     4  11  22  36  54  80 113 149 184 226 282 334
#     4  12  21  36  56  82 111 146 186 234 275 330
#     4   9  16  27  47  72  98 132 180 226 265 318
#     4  10  20  34  55  81 112 144 181 231 284 335
#     4  11  18  32  55  75 100 144 188 227 274 328
#     4  10  20  34  53  79 110 145 186 231 276 332
#
# _framework density 17.568663000000001
#
# number of rings (size 3 to 8) (size 9 to 14) (size 15 to 20)
#    0.000    1.750    5.000    0.750    0.000    0.750 
#    0.000    2.500    0.000    4.500    0.000    0.000 
#    0.000    5.000    0.000    0.000    0.000    0.000 
#
# Total GULP energy -792844.513417 kJ/mol
# GULP energy per Si atom -12388.195522 kJ/mol
# Density = 1.752868 g / cm^3
# Si number density = 17.568663 Si / 1000 Ang^3
#
#
#
# Elastic Constant Matrix: (Units=GPa)
#
#
# Indices 1 2 3 4 5 6 
#
# 1 112.7175 21.7994 51.8763 0.0000 0.0000 0.0000
# 2 21.7994 64.5995 30.0183 0.0000 0.0000 0.0000
# 3 51.8763 30.0183 94.2042 0.0000 0.0000 0.0000
# 4 0.0000 0.0000 0.0000 20.6918 0.0000 0.0000
# 5 0.0000 0.0000 0.0000 0.0000 27.5892 0.0000
# 6 0.0000 0.0000 0.0000 0.0000 0.0000 28.5816
#
#
#
# Elastic Compliance Matrix: (Units=1/GPa)
#
#
# Indices 1 2 3 4 5 6 
#
# 1 0.011955 -0.001145 -0.006219 0.000000 0.000000 0.000000
# 2 -0.001145 0.018280 -0.005195 0.000000 0.000000 0.000000
# 3 -0.006219 -0.005195 0.015695 0.000000 0.000000 0.000000
# 4 0.000000 0.000000 0.000000 0.048328 0.000000 0.000000
# 5 0.000000 0.000000 0.000000 0.000000 0.036246 0.000000
# 6 0.000000 0.000000 0.000000 0.000000 0.000000 0.034988
#
#
# Mechanical properties :
#
#
# Convention : Reuss Voigt Hill
#
# Bulk Modulus (GPa) = 48.04383 53.21216 50.62800
# Shear Modulus (GPa) = 25.31051 26.56100 25.93575
#
# Velocity S-wave (km/s) = 3.79972 3.89246 3.84637
# Velocity P-wave (km/s) = 6.83054 7.11024 6.97179
#
# Compressibility (1/GPa) = 0.02081433
#
# Stress axis : x y z
#
# Youngs Moduli (GPa) = 83.64577 54.70421 63.71430
#
# Poissons Ratio (x) = 0.06261 0.39622
# Poissons Ratio (y) = 0.09574 0.33098
# Poissons Ratio (z) = 0.52017 0.28417
#
# Static dielectric constant tensor:
#      x y z
#    x 3.979160 0.000000 0.000000 
#    y 0.000000 3.035110 0.000000 
#    z 0.000000 0.000000 3.155340 
# 
# 
# High freq. dielectric constant tensor:
#      x y z
#    x 1.695570 0.000000 0.000000 
#    y 0.000000 1.672270 0.000000 
#    z 0.000000 0.000000 1.655560 
# 
# From -- ./inp_files/56048.got.cif
#   From: 2010.03.12/outbox.cif.g09.slc.cpg/sg63_29_cif.got.tgz:56048.got - 2010.04.10 19:34:48.
