data_PCOD8257182
_publ_section_title
;
Structure prediction by ZEFSAII (Michael W. Deem and Ramdas Pophale) SiO2 
 PCOD8257182
Probable space group: C M C M
;
_chemical_formula_sum "Si O2"
_cell_formula_units_Z 104
_cell_length_a 21.908347
_cell_length_b 29.783070
_cell_length_c 9.281700
_cell_angle_alpha 90.000000
_cell_angle_beta 90.000000
_cell_angle_gamma 90.000000
_cell_volume 6056.289130
_symmetry_space_group_name_H-M "C M C M"
_symmetry_group_IT_number 63
_symmetry_cell_setting 'orthorhombic'
loop_
_space_group_symop_operation_xyz
x,y,z
-x,-y,1/2+z
x,-y,-z
-x,y,1/2-z
-x,-y,-z
x,y,1/2-z
-x,y,z
x,-y,1/2+z
1/2+x,1/2+y,z
1/2-x,1/2-y,1/2+z
1/2+x,1/2-y,-z
1/2-x,1/2+y,1/2-z
1/2-x,1/2-y,-z
1/2+x,1/2+y,1/2-z
1/2-x,1/2+y,z
1/2+x,1/2-y,1/2+z
loop_
_atom_site_type_symbol
_atom_site_label
_atom_site_fract_x
_atom_site_fract_y
_atom_site_fract_z
Si Si1 0.353042 0.544054 0.083268
Si Si2 0.929655 0.301462 0.415859
Si Si3 0.619018 0.897967 0.417585
Si Si4 0.570913 0.629276 0.082214
Si Si5 0.500000 0.953475 0.081619
Si Si6 0.788521 0.544861 0.418388
Si Si7 0.427379 0.284068 0.412677
O O1 0.365721 0.535022 0.250000
O O2 0.392063 0.586090 0.027088
O O3 0.282382 0.554332 0.052863
O O4 0.375330 0.500000 0.000000
O O5 0.923638 0.287180 0.250000
O O6 0.890707 0.345582 0.450178
O O7 0.902617 0.260894 0.510921
O O8 0.000000 0.311728 0.453729
O O9 0.634225 0.905949 0.250000
O O10 0.559045 0.925197 0.463811
O O11 0.675220 0.913287 0.515922
O O12 0.582567 0.638510 0.250000
O O13 0.500000 0.620570 0.049586
O O14 0.596620 0.672078 0.995916
O O15 0.500000 0.963586 0.250000
O O16 0.500000 0.000000 0.000000
O O17 0.810266 0.500000 0.500000
O O18 0.803252 0.539352 0.250000
O O19 0.402615 0.285357 0.250000
O O20 0.500000 0.283553 0.418665
#
# Coordination Sequence:
#
# PCOD8257182 Si02
#       7
#    16  16  16  16   8  16  16
#     4   9  19  34  51  72  98 127 160 196 233 278
#     4   9  16  29  48  68  93 126 159 194 239 289
#     4  10  19  32  49  69  94 123 160 202 242 286
#     4   9  17  31  51  74  99 128 159 189 230 285
#     4  10  20  32  44  64  94 124 154 196 245 288
#     4  10  20  34  50  68  92 125 163 200 237 280
#     4   9  17  28  44  70 101 128 155 192 234 280
#
# _framework density 17.172232000000001
#
# number of rings (size 3 to 8) (size 9 to 14) (size 15 to 20)
#    0.000    2.615    0.769    1.385    0.000    5.846 
#    0.000    0.000    0.000    0.923    0.000    0.000 
#    0.000    0.000    0.000    0.000    0.000    0.000 
#
# Total GULP energy -644907.081663 kJ/mol
# GULP energy per Si atom -12402.059263 kJ/mol
# Density = 1.713315 g / cm^3
# Si number density = 17.172232 Si / 1000 Ang^3
#
#
#
# Elastic Constant Matrix: (Units=GPa)
#
#
# Indices 1 2 3 4 5 6 
#
# 1 47.5062 52.4669 37.1238 0.0000 0.0000 0.0000
# 2 52.4669 160.0612 78.9488 0.0000 0.0000 0.0000
# 3 37.1238 78.9488 88.8844 0.0000 0.0000 0.0000
# 4 0.0000 0.0000 0.0000 34.0310 0.0000 0.0000
# 5 0.0000 0.0000 0.0000 0.0000 19.6802 0.0000
# 6 0.0000 0.0000 0.0000 0.0000 0.0000 17.9883
#
#
#
# Elastic Compliance Matrix: (Units=1/GPa)
#
#
# Indices 1 2 3 4 5 6 
#
# 1 0.036002 -0.007803 -0.008106 0.000000 0.000000 0.000000
# 2 -0.007803 0.012810 -0.008119 0.000000 0.000000 0.000000
# 3 -0.008106 -0.008119 0.021848 0.000000 0.000000 0.000000
# 4 0.000000 0.000000 0.000000 0.029385 0.000000 0.000000
# 5 0.000000 0.000000 0.000000 0.000000 0.050812 0.000000
# 6 0.000000 0.000000 0.000000 0.000000 0.000000 0.055592
#
#
# Mechanical properties :
#
#
# Convention : Reuss Voigt Hill
#
# Bulk Modulus (GPa) = 44.24061 70.39231 57.31646
# Shear Modulus (GPa) = 19.08107 22.86739 20.97423
#
# Velocity S-wave (km/s) = 3.33702 3.65314 3.49865
# Velocity P-wave (km/s) = 6.37702 7.67299 7.05483
#
# Compressibility (1/GPa) = 0.02260367
#
# Stress axis : x y z
#
# Youngs Moduli (GPa) = 27.77606 78.06368 45.77147
#
# Poissons Ratio (x) = 0.60914 0.37102
# Poissons Ratio (y) = 0.21674 0.37162
# Poissons Ratio (z) = 0.22515 0.63380
#
# Static dielectric constant tensor:
#      x y z
#    x 2.951870 0.000000 0.000000 
#    y 0.000000 3.328690 0.000000 
#    z 0.000000 0.000000 3.221090 
# 
# 
# High freq. dielectric constant tensor:
#      x y z
#    x 1.629690 0.000000 0.000000 
#    y 0.000000 1.671050 0.000000 
#    z 0.000000 0.000000 1.663990 
# 
# From -- ./inp_files/9140.got.cif
#   From: 2010.03.12/outbox.cif.g09.slc.cpg/sg63_5_cif.got.tgz:9140.got - 2010.04.10 19:34:48.
