data_PCOD8257668
_publ_section_title
;
Structure prediction by ZEFSAII (Michael W. Deem and Ramdas Pophale) SiO2 
 PCOD8257668
Probable space group: C M C M
;
_chemical_formula_sum "Si O2"
_cell_formula_units_Z 80
_cell_length_a 8.437901
_cell_length_b 14.657023
_cell_length_c 30.147909
_cell_angle_alpha 90.000000
_cell_angle_beta 90.000000
_cell_angle_gamma 90.000000
_cell_volume 3728.527844
_symmetry_space_group_name_H-M "C M C M"
_symmetry_group_IT_number 63
_symmetry_cell_setting 'orthorhombic'
loop_
_space_group_symop_operation_xyz
x,y,z
-x,-y,1/2+z
x,-y,-z
-x,y,1/2-z
-x,-y,-z
x,y,1/2-z
-x,y,z
x,-y,1/2+z
1/2+x,1/2+y,z
1/2-x,1/2-y,1/2+z
1/2+x,1/2-y,-z
1/2-x,1/2+y,1/2-z
1/2-x,1/2-y,-z
1/2+x,1/2+y,1/2-z
1/2-x,1/2+y,z
1/2+x,1/2-y,1/2+z
loop_
_atom_site_type_symbol
_atom_site_label
_atom_site_fract_x
_atom_site_fract_y
_atom_site_fract_z
Si Si1 0.679840 0.844078 0.444773
Si Si2 0.187996 0.025739 0.700782
Si Si3 0.684729 0.849803 0.540065
Si Si4 0.317965 0.689891 0.857624
Si Si5 0.184925 0.114046 0.128530
O O1 0.500000 0.863504 0.430377
O O2 0.718195 0.896231 0.491593
O O3 0.701058 0.736899 0.454993
O O4 0.791790 0.869250 0.403131
O O5 0.260864 0.012794 0.750000
O O6 0.234396 0.126401 0.683280
O O7 0.000000 0.016580 0.702539
O O8 0.256391 0.948613 0.667801
O O9 0.500000 0.821109 0.542862
O O10 0.727918 0.914179 0.582093
O O11 0.500000 0.718873 0.854209
O O12 0.213234 0.780796 0.857990
O O13 0.000000 0.095722 0.122548
#
# Coordination Sequence:
#
# PCOD8257668 Si02
#       5
#    16  16  16  16  16
#     4   9  16  27  46  73 105 139 171 205 248 299
#     4   9  20  38  56  75 102 136 173 213 260 313
#     4   9  16  27  46  73 105 139 171 205 248 299
#     4  10  19  33  55  79 104 136 172 212 256 303
#     4  10  19  33  55  79 104 136 172 212 256 303
#
# _framework density 21.456188000000001
#
# number of rings (size 3 to 8) (size 9 to 14) (size 15 to 20)
#    0.000    2.600    0.000    4.800    0.000    3.200 
#    0.000    5.000    0.000   14.400    0.000    0.000 
#    0.000    0.000    0.000    0.000    0.000    0.000 
#
# Total GULP energy -495606.861252 kJ/mol
# GULP energy per Si atom -12390.171531 kJ/mol
# Density = 2.140735 g / cm^3
# Si number density = 21.456188 Si / 1000 Ang^3
#
#
#
# Elastic Constant Matrix: (Units=GPa)
#
#
# Indices 1 2 3 4 5 6 
#
# 1 46.9988 1.7171 14.0993 0.0000 0.0000 0.0000
# 2 1.7171 12.0301 7.3893 0.0000 0.0000 0.0000
# 3 14.0993 7.3893 141.4151 0.0000 0.0000 0.0000
# 4 0.0000 0.0000 0.0000 30.8002 0.0000 0.0000
# 5 0.0000 0.0000 0.0000 0.0000 26.1805 0.0000
# 6 0.0000 0.0000 0.0000 0.0000 0.0000 17.1167
#
#
#
# Elastic Compliance Matrix: (Units=1/GPa)
#
#
# Indices 1 2 3 4 5 6 
#
# 1 0.021973 -0.001850 -0.002094 0.000000 0.000000 0.000000
# 2 -0.001850 0.086037 -0.004311 0.000000 0.000000 0.000000
# 3 -0.002094 -0.004311 0.007505 0.000000 0.000000 0.000000
# 4 0.000000 0.000000 0.000000 0.032467 0.000000 0.000000
# 5 0.000000 0.000000 0.000000 0.000000 0.038196 0.000000
# 6 0.000000 0.000000 0.000000 0.000000 0.000000 0.058422
#
#
# Mechanical properties :
#
#
# Convention : Reuss Voigt Hill
#
# Bulk Modulus (GPa) = 10.10049 27.42838 18.76444
# Shear Modulus (GPa) = 17.00023 26.63538 21.81780
#
# Velocity S-wave (km/s) = 2.81788 3.52715 3.19227
# Velocity P-wave (km/s) = 3.91215 5.42208 4.72778
#
# Compressibility (1/GPa) = 0.09900505
#
# Stress axis : x y z
#
# Youngs Moduli (GPa) = 45.51056 11.62288 133.23681
#
# Poissons Ratio (x) = 0.02150 0.27901
# Poissons Ratio (y) = 0.08419 0.57441
# Poissons Ratio (z) = 0.09530 0.05011
#
# Static dielectric constant tensor:
#      x y z
#    x 3.518470 0.000000 0.000000 
#    y 0.000000 3.432550 0.000000 
#    z 0.000000 0.000000 4.690960 
# 
# 
# High freq. dielectric constant tensor:
#      x y z
#    x 1.820040 0.000000 0.000000 
#    y 0.000000 1.805660 0.000000 
#    z 0.000000 0.000000 1.858520 
# 
# From -- ./inp_files/71580.got.cif
#   From: 2010.03.12/outbox.cif.g09.slc.cpg/sg63_36_cif.got.tgz:71580.got - 2010.04.10 19:34:48.
