data_PCOD8257073
_publ_section_title
;
Structure prediction by ZEFSAII (Michael W. Deem and Ramdas Pophale) SiO2 
 PCOD8257073
Probable space group: C M C M
;
_chemical_formula_sum "Si O2"
_cell_formula_units_Z 96
_cell_length_a 30.370630
_cell_length_b 19.729465
_cell_length_c 9.025428
_cell_angle_alpha 90.000000
_cell_angle_beta 90.000000
_cell_angle_gamma 90.000000
_cell_volume 5408.002898
_symmetry_space_group_name_H-M "C M C M"
_symmetry_group_IT_number 63
_symmetry_cell_setting 'orthorhombic'
loop_
_space_group_symop_operation_xyz
x,y,z
-x,-y,1/2+z
x,-y,-z
-x,y,1/2-z
-x,-y,-z
x,y,1/2-z
-x,y,z
x,-y,1/2+z
1/2+x,1/2+y,z
1/2-x,1/2-y,1/2+z
1/2+x,1/2-y,-z
1/2-x,1/2+y,1/2-z
1/2-x,1/2-y,-z
1/2+x,1/2+y,1/2-z
1/2-x,1/2+y,z
1/2+x,1/2-y,1/2+z
loop_
_atom_site_type_symbol
_atom_site_label
_atom_site_fract_x
_atom_site_fract_y
_atom_site_fract_z
Si Si1 0.793830 0.168658 0.582503
Si Si2 0.617596 0.331171 0.924575
Si Si3 0.948668 0.069781 0.922901
Si Si4 0.378836 0.174693 0.577485
Si Si5 0.791813 0.330019 0.583250
Si Si6 0.049713 0.432160 0.423869
O O1 0.796902 0.140921 0.750000
O O2 0.836099 0.142878 0.490978
O O3 0.791135 0.249242 0.580761
O O4 0.749809 0.139637 0.505619
O O5 0.617233 0.345246 0.750000
O O6 0.610984 0.252275 0.962797
O O7 0.577541 0.369294 0.002017
O O8 0.937081 0.065184 0.750000
O O9 0.000000 0.084424 0.949393
O O10 0.934302 0.000000 0.000000
O O11 0.368301 0.167212 0.750000
O O12 0.336752 0.144951 0.491863
O O13 0.420924 0.131459 0.527015
O O14 0.789611 0.357942 0.750000
O O15 0.067980 0.500000 0.500000
O O16 0.052004 0.443849 0.250000
O O17 0.000000 0.416714 0.476822
#
# Coordination Sequence:
#
# PCOD8257073 Si02
#       6
#    16  16  16  16  16  16
#     4   9  16  27  44  67  98 132 163 197 240 290
#     4  10  19  31  50  76 103 130 163 203 246 291
#     4  10  21  37  55  74  98 130 167 204 244 293
#     4   9  18  31  48  72 101 131 163 201 247 296
#     4   9  16  26  43  68  97 128 163 201 241 288
#     4   9  18  33  51  70  94 127 166 204 243 291
#
# _framework density 17.751470000000001
#
# number of rings (size 3 to 8) (size 9 to 14) (size 15 to 20)
#    0.000    2.667    0.000    2.000    0.000    7.000 
#    0.000    1.667    0.000    3.000    0.000    4.667 
#    0.000    0.000    0.000    0.000    0.000    0.000 
#
# Total GULP energy -595241.663037 kJ/mol
# GULP energy per Si atom -12400.867980 kJ/mol
# Density = 1.771107 g / cm^3
# Si number density = 17.751470 Si / 1000 Ang^3
#
#
#
# Elastic Constant Matrix: (Units=GPa)
#
#
# Indices 1 2 3 4 5 6 
#
# 1 126.0138 59.9469 68.5398 0.0000 0.0000 0.0000
# 2 59.9469 64.2857 44.5485 0.0000 0.0000 0.0000
# 3 68.5398 44.5485 113.2048 0.0000 0.0000 0.0000
# 4 0.0000 0.0000 0.0000 24.0637 0.0000 0.0000
# 5 0.0000 0.0000 0.0000 0.0000 35.9732 0.0000
# 6 0.0000 0.0000 0.0000 0.0000 0.0000 4.1345
#
#
#
# Elastic Compliance Matrix: (Units=1/GPa)
#
#
# Indices 1 2 3 4 5 6 
#
# 1 0.016324 -0.011513 -0.005353 0.000000 0.000000 0.000000
# 2 -0.011513 0.029508 -0.004642 0.000000 0.000000 0.000000
# 3 -0.005353 -0.004642 0.013901 0.000000 0.000000 0.000000
# 4 0.000000 0.000000 0.000000 0.041556 0.000000 0.000000
# 5 0.000000 0.000000 0.000000 0.000000 0.027798 0.000000
# 6 0.000000 0.000000 0.000000 0.000000 0.000000 0.241867
#
#
# Mechanical properties :
#
#
# Convention : Reuss Voigt Hill
#
# Bulk Modulus (GPa) = 59.81420 72.17494 65.99457
# Shear Modulus (GPa) = 11.91777 21.53222 16.72499
#
# Velocity S-wave (km/s) = 2.59389 3.48657 3.07282
# Velocity P-wave (km/s) = 6.53755 7.54686 7.06026
#
# Compressibility (1/GPa) = 0.01671844
#
# Stress axis : x y z
#
# Youngs Moduli (GPa) = 61.26005 33.88933 71.93776
#
# Poissons Ratio (x) = 0.39016 0.38506
# Poissons Ratio (y) = 0.70527 0.33390
# Poissons Ratio (z) = 0.32791 0.15730
#
# Static dielectric constant tensor:
#      x y z
#    x 3.457490 0.000000 0.000000 
#    y 0.000000 2.965180 0.000000 
#    z 0.000000 0.000000 3.419150 
# 
# 
# High freq. dielectric constant tensor:
#      x y z
#    x 1.696650 0.000000 0.000000 
#    y 0.000000 1.642970 0.000000 
#    z 0.000000 0.000000 1.698720 
# 
# From -- ./inp_files/12400.got.cif
#   From: 2010.03.12/outbox.cif.g09.slc.cpg/sg63_7_cif.got.tgz:12400.got - 2010.04.10 19:34:48.
