data_PCOD8257573
_publ_section_title
;
Structure prediction by ZEFSAII (Michael W. Deem and Ramdas Pophale) SiO2 
 PCOD8257573
Probable space group: C M C M
;
_chemical_formula_sum "Si O2"
_cell_formula_units_Z 112
_cell_length_a 13.768078
_cell_length_b 17.572699
_cell_length_c 24.351104
_cell_angle_alpha 90.000000
_cell_angle_beta 90.000000
_cell_angle_gamma 90.000000
_cell_volume 5891.561878
_symmetry_space_group_name_H-M "C M C M"
_symmetry_group_IT_number 63
_symmetry_cell_setting 'orthorhombic'
loop_
_space_group_symop_operation_xyz
x,y,z
-x,-y,1/2+z
x,-y,-z
-x,y,1/2-z
-x,-y,-z
x,y,1/2-z
-x,y,z
x,-y,1/2+z
1/2+x,1/2+y,z
1/2-x,1/2-y,1/2+z
1/2+x,1/2-y,-z
1/2-x,1/2+y,1/2-z
1/2-x,1/2-y,-z
1/2+x,1/2+y,1/2-z
1/2-x,1/2+y,z
1/2+x,1/2-y,1/2+z
loop_
_atom_site_type_symbol
_atom_site_label
_atom_site_fract_x
_atom_site_fract_y
_atom_site_fract_z
Si Si1 0.758450 0.970398 0.121793
Si Si2 0.110835 0.714306 0.995960
Si Si3 0.716041 0.307811 0.418619
Si Si4 0.388324 0.581193 0.186349
Si Si5 0.603339 0.884412 0.188455
Si Si6 0.218680 0.762486 0.687681
Si Si7 0.107144 0.444515 0.949296
O O1 0.796093 0.899168 0.085733
O O2 0.687644 0.937172 0.167075
O O3 0.849858 0.011291 0.149752
O O4 0.695728 0.031924 0.089047
O O5 0.176998 0.714599 0.941520
O O6 0.000000 0.720896 0.976238
O O7 0.135048 0.783096 0.037562
O O8 0.132584 0.638897 0.030067
O O9 0.703986 0.264782 0.359298
O O10 0.380496 0.558194 0.250000
O O11 0.500000 0.597222 0.170114
O O12 0.322416 0.654514 0.173890
O O13 0.588453 0.910626 0.250000
O O14 0.500000 0.896201 0.156919
O O15 0.629228 0.795655 0.184723
O O16 0.264409 0.760696 0.750000
O O17 0.000000 0.445218 0.920170
O O18 0.102331 0.500000 0.000000
#
# Coordination Sequence:
#
# PCOD8257573 Si02
#       7
#    16  16  16  16  16  16  16
#     4  11  20  32  53  76 105 137 174 216 257 311
#     4  10  21  37  55  76 107 143 178 215 260 315
#     4  10  21  35  55  81 106 137 176 221 265 312
#     4  10  21  36  53  75 105 143 180 212 254 310
#     4   9  17  29  48  77 106 129 162 214 271 316
#     4   9  18  34  56  78 103 135 174 222 270 315
#     4  10  19  33  53  77 103 135 172 212 262 317
#
# _framework density 19.010238999999999
#
# number of rings (size 3 to 8) (size 9 to 14) (size 15 to 20)
#    0.000    2.143    1.429    2.143    0.000    5.714 
#    0.000    0.000    0.000    0.857    0.000    4.000 
#    0.000    0.000    0.000    0.000    0.000    0.000 
#
# Total GULP energy -694059.452340 kJ/mol
# GULP energy per Si atom -12393.918792 kJ/mol
# Density = 1.896697 g / cm^3
# Si number density = 19.010239 Si / 1000 Ang^3
#
#
#
# Elastic Constant Matrix: (Units=GPa)
#
#
# Indices 1 2 3 4 5 6 
#
# 1 39.3425 18.3632 12.8219 0.0000 0.0000 0.0000
# 2 18.3632 71.3251 27.5749 0.0000 0.0000 0.0000
# 3 12.8219 27.5749 64.5734 0.0000 0.0000 0.0000
# 4 0.0000 0.0000 0.0000 29.0901 0.0000 0.0000
# 5 0.0000 0.0000 0.0000 0.0000 22.7853 0.0000
# 6 0.0000 0.0000 0.0000 0.0000 0.0000 24.5789
#
#
#
# Elastic Compliance Matrix: (Units=1/GPa)
#
#
# Indices 1 2 3 4 5 6 
#
# 1 0.029405 -0.006364 -0.003121 0.000000 0.000000 0.000000
# 2 -0.006364 0.018170 -0.006496 0.000000 0.000000 0.000000
# 3 -0.003121 -0.006496 0.018880 0.000000 0.000000 0.000000
# 4 0.000000 0.000000 0.000000 0.034376 0.000000 0.000000
# 5 0.000000 0.000000 0.000000 0.000000 0.043888 0.000000
# 6 0.000000 0.000000 0.000000 0.000000 0.000000 0.040685
#
#
# Mechanical properties :
#
#
# Convention : Reuss Voigt Hill
#
# Bulk Modulus (GPa) = 28.99070 32.52900 30.75985
# Shear Modulus (GPa) = 21.84704 23.05624 22.45164
#
# Velocity S-wave (km/s) = 3.39370 3.48635 3.44034
# Velocity P-wave (km/s) = 5.53529 5.77535 5.65659
#
# Compressibility (1/GPa) = 0.03449382
#
# Stress axis : x y z
#
# Youngs Moduli (GPa) = 34.00730 55.03574 52.96661
#
# Poissons Ratio (x) = 0.35025 0.16532
# Poissons Ratio (y) = 0.21642 0.34405
# Poissons Ratio (z) = 0.10614 0.35749
#
# Static dielectric constant tensor:
#      x y z
#    x 3.449980 0.000000 0.000000 
#    y 0.000000 3.188760 0.000000 
#    z 0.000000 0.000000 3.534060 
# 
# 
# High freq. dielectric constant tensor:
#      x y z
#    x 1.714500 0.000000 0.000000 
#    y 0.000000 1.743230 0.000000 
#    z 0.000000 0.000000 1.738930 
# 
# From -- ./inp_files/69359.got.cif
#   From: 2010.03.12/outbox.cif.g09.slc.cpg/sg63_35_cif.got.tgz:69359.got - 2010.04.10 19:34:48.
