data_PCOD8257251
_publ_section_title
;
Structure prediction by ZEFSAII (Michael W. Deem and Ramdas Pophale) SiO2 
 PCOD8257251
Probable space group: C M C M
;
_chemical_formula_sum "Si O2"
_cell_formula_units_Z 96
_cell_length_a 21.800474
_cell_length_b 14.731273
_cell_length_c 16.887455
_cell_angle_alpha 90.000000
_cell_angle_beta 90.000000
_cell_angle_gamma 90.000000
_cell_volume 5423.384794
_symmetry_space_group_name_H-M "C M C M"
_symmetry_group_IT_number 63
_symmetry_cell_setting 'orthorhombic'
loop_
_space_group_symop_operation_xyz
x,y,z
-x,-y,1/2+z
x,-y,-z
-x,y,1/2-z
-x,-y,-z
x,y,1/2-z
-x,y,z
x,-y,1/2+z
1/2+x,1/2+y,z
1/2-x,1/2-y,1/2+z
1/2+x,1/2-y,-z
1/2-x,1/2+y,1/2-z
1/2-x,1/2-y,-z
1/2+x,1/2+y,1/2-z
1/2-x,1/2+y,z
1/2+x,1/2-y,1/2+z
loop_
_atom_site_type_symbol
_atom_site_label
_atom_site_fract_x
_atom_site_fract_y
_atom_site_fract_z
Si Si1 0.752533 0.956811 0.157499
Si Si2 0.000000 0.268813 0.840516
Si Si3 0.622119 0.553444 0.920906
Si Si4 0.201134 0.289240 0.062445
Si Si5 0.878815 0.263844 0.573423
Si Si6 0.000000 0.947929 0.339069
Si Si7 0.735617 0.841871 0.841985
O O1 0.738049 0.937893 0.250000
O O2 0.825413 0.955243 0.145163
O O3 0.719107 0.884147 0.101969
O O4 0.728703 0.055005 0.127530
O O5 0.940675 0.305523 0.888671
O O6 0.000000 0.306941 0.750000
O O7 0.000000 0.160718 0.836954
O O8 0.612783 0.657936 0.941689
O O9 0.559489 0.513585 0.884315
O O10 0.640572 0.500000 0.000000
O O11 0.202071 0.208638 0.127573
O O12 0.250000 0.250000 0.000000
O O13 0.137392 0.304236 0.014304
O O14 0.823912 0.283445 0.634703
O O15 0.000000 0.986201 0.250000
O O16 0.742881 0.844858 0.750000
#
# Coordination Sequence:
#
# PCOD8257251 Si02
#       7
#    16   8  16  16  16   8  16
#     4  11  22  33  52  79 109 146 183 223 274 330
#     4   9  18  33  55  78 103 139 180 226 276 322
#     4  11  20  32  52  76 110 144 182 226 269 323
#     4  10  19  32  50  75 107 142 172 219 274 321
#     4  10  20  33  52  78 105 137 178 224 276 318
#     4   9  19  33  49  73 106 147 186 220 268 320
#     4  10  20  33  52  78 108 143 182 225 272 320
#
# _framework density 17.701122999999999
#
# number of rings (size 3 to 8) (size 9 to 14) (size 15 to 20)
#    0.000    1.833    3.333    2.750    2.333    1.333 
#    0.000    0.000    0.000    2.000    0.000    3.500 
#    0.000    0.000    0.000    0.333    0.000    0.000 
#
# Total GULP energy -594831.306747 kJ/mol
# GULP energy per Si atom -12392.318891 kJ/mol
# Density = 1.766083 g / cm^3
# Si number density = 17.701123 Si / 1000 Ang^3
#
#
#
# Elastic Constant Matrix: (Units=GPa)
#
#
# Indices 1 2 3 4 5 6 
#
# 1 92.6131 18.7335 48.7564 0.0000 0.0000 0.0000
# 2 18.7335 87.2470 53.8091 0.0000 0.0000 0.0000
# 3 48.7564 53.8091 85.6636 0.0000 0.0000 0.0000
# 4 0.0000 0.0000 0.0000 29.2117 0.0000 0.0000
# 5 0.0000 0.0000 0.0000 0.0000 30.0879 0.0000
# 6 0.0000 0.0000 0.0000 0.0000 0.0000 16.5291
#
#
#
# Elastic Compliance Matrix: (Units=1/GPa)
#
#
# Indices 1 2 3 4 5 6 
#
# 1 0.016073 0.003576 -0.011395 0.000000 0.000000 0.000000
# 2 0.003576 0.019506 -0.014288 0.000000 0.000000 0.000000
# 3 -0.011395 -0.014288 0.027134 0.000000 0.000000 0.000000
# 4 0.000000 0.000000 0.000000 0.034233 0.000000 0.000000
# 5 0.000000 0.000000 0.000000 0.000000 0.033236 0.000000
# 6 0.000000 0.000000 0.000000 0.000000 0.000000 0.060499
#
#
# Mechanical properties :
#
#
# Convention : Reuss Voigt Hill
#
# Bulk Modulus (GPa) = 54.05346 56.45796 55.25571
# Shear Modulus (GPa) = 20.74172 24.78072 22.76122
#
# Velocity S-wave (km/s) = 3.42683 3.74565 3.58978
# Velocity P-wave (km/s) = 6.80151 7.11835 6.96174
#
# Compressibility (1/GPa) = 0.01850020
#
# Stress axis : x y z
#
# Youngs Moduli (GPa) = 62.21658 51.26658 36.85425
#
# Poissons Ratio (x) = -0.18335 0.41994
# Poissons Ratio (y) = -0.22251 0.52658
# Poissons Ratio (z) = 0.70893 0.73250
#
# Static dielectric constant tensor:
#      x y z
#    x 3.379650 0.000000 0.000000 
#    y 0.000000 3.972290 0.000000 
#    z 0.000000 0.000000 3.669760 
# 
# 
# High freq. dielectric constant tensor:
#      x y z
#    x 1.658190 0.000000 0.000000 
#    y 0.000000 1.667120 0.000000 
#    z 0.000000 0.000000 1.699320 
# 
# From -- ./inp_files/36831.got.cif
#   From: 2010.03.12/outbox.cif.g09.slc.cpg/sg63_19_cif.got.tgz:36831.got - 2010.04.10 19:34:48.
