data_PCOD8257991
_publ_section_title
;
Structure prediction by ZEFSAII (Michael W. Deem and Ramdas Pophale) SiO2 
 PCOD8257991
Probable space group: C M C M
;
_chemical_formula_sum "Si O2"
_cell_formula_units_Z 128
_cell_length_a 22.312943
_cell_length_b 12.021996
_cell_length_c 25.055086
_cell_angle_alpha 90.000000
_cell_angle_beta 90.000000
_cell_angle_gamma 90.000000
_cell_volume 6720.929393
_symmetry_space_group_name_H-M "C M C M"
_symmetry_group_IT_number 63
_symmetry_cell_setting 'orthorhombic'
loop_
_space_group_symop_operation_xyz
x,y,z
-x,-y,1/2+z
x,-y,-z
-x,y,1/2-z
-x,-y,-z
x,y,1/2-z
-x,y,z
x,-y,1/2+z
1/2+x,1/2+y,z
1/2-x,1/2-y,1/2+z
1/2+x,1/2-y,-z
1/2-x,1/2+y,1/2-z
1/2-x,1/2-y,-z
1/2+x,1/2+y,1/2-z
1/2-x,1/2+y,z
1/2+x,1/2-y,1/2+z
loop_
_atom_site_type_symbol
_atom_site_label
_atom_site_fract_x
_atom_site_fract_y
_atom_site_fract_z
Si Si1 0.247792 0.586856 0.608907
Si Si2 0.331523 0.963840 0.809646
Si Si3 0.431777 0.169929 0.450390
Si Si4 0.431882 0.622486 0.627510
Si Si5 0.858978 0.032906 0.059259
Si Si6 0.638051 0.206144 0.943310
Si Si7 0.568363 0.957477 0.378093
Si Si8 0.327929 0.705169 0.809430
O O1 0.218873 0.495767 0.647752
O O2 0.296312 0.525873 0.572571
O O3 0.200577 0.643931 0.568937
O O4 0.277187 0.679579 0.646961
O O5 0.312687 0.001249 0.750000
O O6 0.393775 0.023724 0.824502
O O7 0.342793 0.833879 0.812366
O O8 0.500000 0.169226 0.473346
O O9 0.423098 0.271615 0.410468
O O10 0.382452 0.182669 0.496358
O O11 0.418189 0.054561 0.420819
O O12 0.500000 0.610001 0.647080
O O13 0.412245 0.510721 0.597013
O O14 0.389207 0.638183 0.678602
O O15 0.853294 0.164084 0.067062
O O16 0.877999 0.000000 0.000000
O O17 0.586812 0.159874 0.904027
O O18 0.500000 0.954431 0.360371
O O19 0.306144 0.671340 0.750000
#
# Coordination Sequence:
#
# PCOD8257991 Si02
#       8
#    16  16  16  16  16  16  16  16
#     4  10  23  38  55  80 114 149 187 238 280 331
#     4  10  20  35  57  82 108 144 188 237 291 333
#     4  10  19  35  57  82 114 149 185 225 277 330
#     4  10  21  37  57  83 116 146 179 232 281 329
#     4  11  23  39  55  84 114 150 192 228 275 328
#     4  11  22  37  58  82 113 156 191 223 274 341
#     4  10  21  36  56  85 117 147 186 234 283 338
#     4  10  20  37  59  82 108 143 189 237 288 337
#
# _framework density 19.044983999999999
#
# number of rings (size 3 to 8) (size 9 to 14) (size 15 to 20)
#    0.000    1.750    2.500    1.875    0.000    5.250 
#    0.000    1.250    0.000    6.750    0.000    7.000 
#    0.000    0.000    0.000    0.000    0.000    0.000 
#
# Total GULP energy -793704.291004 kJ/mol
# GULP energy per Si atom -12401.629547 kJ/mol
# Density = 1.900164 g / cm^3
# Si number density = 19.044984 Si / 1000 Ang^3
#
#
#
# Elastic Constant Matrix: (Units=GPa)
#
#
# Indices 1 2 3 4 5 6 
#
# 1 73.0601 2.5260 7.3724 0.0000 0.0000 0.0000
# 2 2.5260 85.7240 14.0863 0.0000 0.0000 0.0000
# 3 7.3724 14.0863 57.6325 0.0000 0.0000 0.0000
# 4 0.0000 0.0000 0.0000 17.0092 0.0000 0.0000
# 5 0.0000 0.0000 0.0000 0.0000 17.8925 0.0000
# 6 0.0000 0.0000 0.0000 0.0000 0.0000 21.4204
#
#
#
# Elastic Compliance Matrix: (Units=1/GPa)
#
#
# Indices 1 2 3 4 5 6 
#
# 1 0.013868 -0.000122 -0.001744 0.000000 0.000000 0.000000
# 2 -0.000122 0.012155 -0.002955 0.000000 0.000000 0.000000
# 3 -0.001744 -0.002955 0.018297 0.000000 0.000000 0.000000
# 4 0.000000 0.000000 0.000000 0.058792 0.000000 0.000000
# 5 0.000000 0.000000 0.000000 0.000000 0.055889 0.000000
# 6 0.000000 0.000000 0.000000 0.000000 0.000000 0.046684
#
#
# Mechanical properties :
#
#
# Convention : Reuss Voigt Hill
#
# Bulk Modulus (GPa) = 28.83819 29.37620 29.10720
# Shear Modulus (GPa) = 22.03751 24.09321 23.06536
#
# Velocity S-wave (km/s) = 3.40535 3.56064 3.48386
# Velocity P-wave (km/s) = 5.53506 5.68879 5.61245
#
# Compressibility (1/GPa) = 0.03467623
#
# Stress axis : x y z
#
# Youngs Moduli (GPa) = 72.11064 82.27387 54.65459
#
# Poissons Ratio (x) = 0.01004 0.09532
# Poissons Ratio (y) = 0.00880 0.16151
# Poissons Ratio (z) = 0.12577 0.24313
#
# Static dielectric constant tensor:
#      x y z
#    x 3.594270 0.000000 0.000000 
#    y 0.000000 3.490790 0.000000 
#    z 0.000000 0.000000 3.478730 
# 
# 
# High freq. dielectric constant tensor:
#      x y z
#    x 1.746060 0.000000 0.000000 
#    y 0.000000 1.740630 0.000000 
#    z 0.000000 0.000000 1.734390 
# 
# From -- ./inp_files/65166.got.cif
#   From: 2010.03.12/outbox.cif.g09.slc.cpg/sg63_33_cif.got.tgz:65166.got - 2010.04.10 19:34:48.
