data_PCOD8257088
_publ_section_title
;
Structure prediction by ZEFSAII (Michael W. Deem and Ramdas Pophale) SiO2 
 PCOD8257088
Probable space group: C M C M
;
_chemical_formula_sum "Si O2"
_cell_formula_units_Z 80
_cell_length_a 18.053758
_cell_length_b 27.649111
_cell_length_c 8.741290
_cell_angle_alpha 90.000000
_cell_angle_beta 90.000000
_cell_angle_gamma 90.000000
_cell_volume 4363.392867
_symmetry_space_group_name_H-M "C M C M"
_symmetry_group_IT_number 63
_symmetry_cell_setting 'orthorhombic'
loop_
_space_group_symop_operation_xyz
x,y,z
-x,-y,1/2+z
x,-y,-z
-x,y,1/2-z
-x,-y,-z
x,y,1/2-z
-x,y,z
x,-y,1/2+z
1/2+x,1/2+y,z
1/2-x,1/2-y,1/2+z
1/2+x,1/2-y,-z
1/2-x,1/2+y,1/2-z
1/2-x,1/2-y,-z
1/2+x,1/2+y,1/2-z
1/2-x,1/2+y,z
1/2+x,1/2-y,1/2+z
loop_
_atom_site_type_symbol
_atom_site_label
_atom_site_fract_x
_atom_site_fract_y
_atom_site_fract_z
Si Si1 0.275594 0.449800 0.069440
Si Si2 0.704602 0.142948 0.069765
Si Si3 0.147231 0.807177 0.570550
Si Si4 0.585592 0.207115 0.569192
Si Si5 0.083703 0.092943 0.070246
O O1 0.270675 0.451786 0.250000
O O2 0.246686 0.500000 0.000000
O O3 0.221990 0.408026 0.008095
O O4 0.360850 0.441944 0.019614
O O5 0.702567 0.134639 0.250000
O O6 0.767877 0.182026 0.023848
O O7 0.626379 0.162131 0.009625
O O8 0.138165 0.801781 0.750000
O O9 0.118749 0.756971 0.498041
O O10 0.096161 0.851774 0.515053
O O11 0.597681 0.203949 0.750000
O O12 0.500000 0.203833 0.524539
O O13 0.101580 0.088575 0.250000
O O14 0.000000 0.077301 0.032128
#
# Coordination Sequence:
#
# PCOD8257088 Si02
#       5
#    16  16  16  16  16
#     4  11  22  37  56  76  99 129 170 216 263 313
#     4  10  20  35  54  76 103 135 174 216 258 304
#     4   8  15  29  50  75 104 141 179 211 247 294
#     4  10  19  31  50  77 108 141 175 210 252 302
#     4   9  17  31  51  76 108 143 177 213 253 297
#
# _framework density 18.334357000000001
#
# number of rings (size 3 to 8) (size 9 to 14) (size 15 to 20)
#    0.000    2.400    0.000    4.800    0.000    3.600 
#    0.000    4.000    0.000    5.400    0.000    0.000 
#    0.000    0.000    0.000    0.000    0.000    0.000 
#
# Total GULP energy -495997.110897 kJ/mol
# GULP energy per Si atom -12399.927772 kJ/mol
# Density = 1.829263 g / cm^3
# Si number density = 18.334357 Si / 1000 Ang^3
#
#
#
# Elastic Constant Matrix: (Units=GPa)
#
#
# Indices 1 2 3 4 5 6 
#
# 1 88.7602 61.2026 51.1616 0.0000 0.0000 0.0000
# 2 61.2026 130.7550 55.0467 0.0000 0.0000 0.0000
# 3 51.1616 55.0467 83.8756 0.0000 0.0000 0.0000
# 4 0.0000 0.0000 0.0000 24.1774 0.0000 0.0000
# 5 0.0000 0.0000 0.0000 0.0000 26.9341 0.0000
# 6 0.0000 0.0000 0.0000 0.0000 0.0000 6.7228
#
#
#
# Elastic Compliance Matrix: (Units=1/GPa)
#
#
# Indices 1 2 3 4 5 6 
#
# 1 0.020207 -0.005899 -0.008454 0.000000 0.000000 0.000000
# 2 -0.005899 0.012290 -0.004467 0.000000 0.000000 0.000000
# 3 -0.008454 -0.004467 0.020011 0.000000 0.000000 0.000000
# 4 0.000000 0.000000 0.000000 0.041361 0.000000 0.000000
# 5 0.000000 0.000000 0.000000 0.000000 0.037128 0.000000
# 6 0.000000 0.000000 0.000000 0.000000 0.000000 0.148747
#
#
# Mechanical properties :
#
#
# Convention : Reuss Voigt Hill
#
# Bulk Modulus (GPa) = 67.26494 70.91250 69.08872
# Shear Modulus (GPa) = 15.51154 20.63218 18.07186
#
# Velocity S-wave (km/s) = 2.91183 3.35823 3.14296
# Velocity P-wave (km/s) = 6.93344 7.33473 7.13691
#
# Compressibility (1/GPa) = 0.01486659
#
# Stress axis : x y z
#
# Youngs Moduli (GPa) = 49.48811 81.36794 49.97245
#
# Poissons Ratio (x) = 0.48000 0.42247
# Poissons Ratio (y) = 0.29194 0.22325
# Poissons Ratio (z) = 0.41837 0.36350
#
# Static dielectric constant tensor:
#      x y z
#    x 3.296540 0.000000 0.000000 
#    y 0.000000 3.441300 0.000000 
#    z 0.000000 0.000000 3.138740 
# 
# 
# High freq. dielectric constant tensor:
#      x y z
#    x 1.697280 0.000000 0.000000 
#    y 0.000000 1.709900 0.000000 
#    z 0.000000 0.000000 1.693370 
# 
# From -- ./inp_files/6354.got.cif
#   From: 2010.03.12/outbox.cif.g09.slc.cpg/sg63_4_cif.got.tgz:6354.got - 2010.04.10 19:34:48.
