data_PCOD8257619
_publ_section_title
;
Structure prediction by ZEFSAII (Michael W. Deem and Ramdas Pophale) SiO2 
 PCOD8257619
Probable space group: C M C M
;
_chemical_formula_sum "Si O2"
_cell_formula_units_Z 96
_cell_length_a 27.850160
_cell_length_b 20.569624
_cell_length_c 8.741940
_cell_angle_alpha 90.000000
_cell_angle_beta 90.000000
_cell_angle_gamma 90.000000
_cell_volume 5007.971735
_symmetry_space_group_name_H-M "C M C M"
_symmetry_group_IT_number 63
_symmetry_cell_setting 'orthorhombic'
loop_
_space_group_symop_operation_xyz
x,y,z
-x,-y,1/2+z
x,-y,-z
-x,y,1/2-z
-x,-y,-z
x,y,1/2-z
-x,y,z
x,-y,1/2+z
1/2+x,1/2+y,z
1/2-x,1/2-y,1/2+z
1/2+x,1/2-y,-z
1/2-x,1/2+y,1/2-z
1/2-x,1/2-y,-z
1/2+x,1/2+y,1/2-z
1/2-x,1/2+y,z
1/2+x,1/2-y,1/2+z
loop_
_atom_site_type_symbol
_atom_site_label
_atom_site_fract_x
_atom_site_fract_y
_atom_site_fract_z
Si Si1 0.219918 0.692149 0.929544
Si Si2 0.053849 0.187773 0.431761
Si Si3 0.389015 0.186901 0.931779
Si Si4 0.117316 0.068062 0.068019
Si Si5 0.445205 0.931757 0.930187
Si Si6 0.720308 0.567569 0.569078
O O1 0.221428 0.701821 0.750000
O O2 0.165480 0.694675 0.989829
O O3 0.242126 0.623012 0.977319
O O4 0.250000 0.750000 0.000000
O O5 0.052817 0.189100 0.250000
O O6 0.081566 0.251040 0.493285
O O7 0.080661 0.123155 0.488999
O O8 0.000000 0.187906 0.499093
O O9 0.391632 0.180835 0.750000
O O10 0.410827 0.122779 0.003979
O O11 0.120009 0.063518 0.250000
O O12 0.169440 0.086150 0.004195
O O13 0.098817 0.000000 0.000000
O O14 0.439485 0.935472 0.750000
O O15 0.500000 0.916259 0.978614
O O16 0.428426 0.000000 0.000000
O O17 0.739776 0.500000 0.500000
O O18 0.714009 0.560379 0.750000
#
# Coordination Sequence:
#
# PCOD8257619 Si02
#       6
#    16  16  16  16  16  16
#     4  10  22  37  55  81 110 142 181 223 267 319
#     4   9  18  32  52  77 104 137 175 214 259 312
#     4  10  20  36  57  80 107 140 181 225 268 317
#     4  10  19  33  54  78 105 137 175 215 258 311
#     4  10  21  37  57  82 111 143 179 219 267 323
#     4  10  20  35  54  77 106 138 175 216 261 312
#
# _framework density 19.169438
#
# number of rings (size 3 to 8) (size 9 to 14) (size 15 to 20)
#    0.000    2.167    0.000    4.000    0.000    6.000 
#    0.000    3.333    0.000    3.500    0.000    0.000 
#    0.000    0.000    0.000    0.000    0.000    0.000 
#
# Total GULP energy -595322.451709 kJ/mol
# GULP energy per Si atom -12402.551077 kJ/mol
# Density = 1.912581 g / cm^3
# Si number density = 19.169438 Si / 1000 Ang^3
#
#
#
# Elastic Constant Matrix: (Units=GPa)
#
#
# Indices 1 2 3 4 5 6 
#
# 1 158.1818 113.0274 37.5728 0.0000 0.0000 0.0000
# 2 113.0274 175.2078 46.4542 0.0000 0.0000 0.0000
# 3 37.5728 46.4542 53.7504 0.0000 0.0000 0.0000
# 4 0.0000 0.0000 0.0000 26.6933 0.0000 0.0000
# 5 0.0000 0.0000 0.0000 0.0000 17.0121 0.0000
# 6 0.0000 0.0000 0.0000 0.0000 0.0000 46.2226
#
#
#
# Elastic Compliance Matrix: (Units=1/GPa)
#
#
# Indices 1 2 3 4 5 6 
#
# 1 0.011923 -0.007111 -0.002188 0.000000 0.000000 0.000000
# 2 -0.007111 0.011646 -0.005094 0.000000 0.000000 0.000000
# 3 -0.002188 -0.005094 0.024537 0.000000 0.000000 0.000000
# 4 0.000000 0.000000 0.000000 0.037463 0.000000 0.000000
# 5 0.000000 0.000000 0.000000 0.000000 0.058782 0.000000
# 6 0.000000 0.000000 0.000000 0.000000 0.000000 0.021634
#
#
# Mechanical properties :
#
#
# Convention : Reuss Voigt Hill
#
# Bulk Modulus (GPa) = 51.76497 86.80541 69.28519
# Shear Modulus (GPa) = 24.84961 30.65799 27.75380
#
# Velocity S-wave (km/s) = 3.60434 4.00348 3.80914
# Velocity P-wave (km/s) = 6.66215 8.17019 7.45440
#
# Compressibility (1/GPa) = 0.01931808
#
# Stress axis : x y z
#
# Youngs Moduli (GPa) = 83.87134 85.86895 40.75541
#
# Poissons Ratio (x) = 0.61065 0.08919
# Poissons Ratio (y) = 0.59644 0.20760
# Poissons Ratio (z) = 0.18355 0.43740
#
# Static dielectric constant tensor:
#      x y z
#    x 3.665110 0.000000 0.000000 
#    y 0.000000 3.624120 0.000000 
#    z 0.000000 0.000000 3.346970 
# 
# 
# High freq. dielectric constant tensor:
#      x y z
#    x 1.749320 0.000000 0.000000 
#    y 0.000000 1.762270 0.000000 
#    z 0.000000 0.000000 1.731730 
# 
# From -- ./inp_files/12402.got.cif
#   From: 2010.03.12/outbox.cif.g09.slc.cpg/sg63_7_cif.got.tgz:12402.got - 2010.04.10 19:34:48.
