data_PCOD8257034
_publ_section_title
;
Structure prediction by ZEFSAII (Michael W. Deem and Ramdas Pophale) SiO2 
 PCOD8257034
Probable space group: C M C M
;
_chemical_formula_sum "Si O2"
_cell_formula_units_Z 96
_cell_length_a 25.701741
_cell_length_b 9.514727
_cell_length_c 22.526109
_cell_angle_alpha 90.000000
_cell_angle_beta 90.000000
_cell_angle_gamma 90.000000
_cell_volume 5508.648430
_symmetry_space_group_name_H-M "C M C M"
_symmetry_group_IT_number 63
_symmetry_cell_setting 'orthorhombic'
loop_
_space_group_symop_operation_xyz
x,y,z
-x,-y,1/2+z
x,-y,-z
-x,y,1/2-z
-x,-y,-z
x,y,1/2-z
-x,y,z
x,-y,1/2+z
1/2+x,1/2+y,z
1/2-x,1/2-y,1/2+z
1/2+x,1/2-y,-z
1/2-x,1/2+y,1/2-z
1/2-x,1/2-y,-z
1/2+x,1/2+y,1/2-z
1/2-x,1/2+y,z
1/2+x,1/2-y,1/2+z
loop_
_atom_site_type_symbol
_atom_site_label
_atom_site_fract_x
_atom_site_fract_y
_atom_site_fract_z
Si Si1 0.359132 0.985321 0.320078
Si Si2 0.137922 0.969258 0.682715
Si Si3 0.668270 0.258906 0.115152
Si Si4 0.208931 0.246498 0.364722
Si Si5 0.942377 0.741348 0.679935
Si Si6 0.302652 0.333195 0.992388
O O1 0.354922 0.018487 0.250000
O O2 0.308544 0.898381 0.341094
O O3 0.411321 0.900252 0.336459
O O4 0.361930 0.126416 0.358498
O O5 0.128972 0.017826 0.750000
O O6 0.142349 0.105226 0.642975
O O7 0.190196 0.873402 0.681048
O O8 0.089328 0.877850 0.657896
O O9 0.729194 0.247711 0.130621
O O10 0.659338 0.273785 0.044037
O O11 0.178686 0.205809 0.426270
O O12 0.946744 0.751144 0.750000
O O13 0.000000 0.737858 0.650903
O O14 0.293743 0.500000 0.000000
O O15 0.250000 0.250000 0.000000
#
# Coordination Sequence:
#
# PCOD8257034 Si02
#       6
#    16  16  16  16  16  16
#     4  10  21  33  49  78 105 133 171 203 252 315
#     4  10  19  31  49  75 101 132 170 204 252 314
#     4  11  21  31  48  73 110 135 165 214 250 288
#     4  10  20  33  49  69 104 145 176 201 237 292
#     4   8  16  34  55  71  95 131 170 211 254 308
#     4  10  21  34  50  70  98 139 187 216 238 278
#
# _framework density 17.427143000000001
#
# number of rings (size 3 to 8) (size 9 to 14) (size 15 to 20)
#    0.000    2.167    1.667    3.000    7.000    4.000 
#    0.000    0.833    0.000    4.000    0.000   18.667 
#    0.000    0.000    0.000    0.000    0.000    0.000 
#
# Total GULP energy -594906.121060 kJ/mol
# GULP energy per Si atom -12393.877522 kJ/mol
# Density = 1.738748 g / cm^3
# Si number density = 17.427143 Si / 1000 Ang^3
#
#
#
# Elastic Constant Matrix: (Units=GPa)
#
#
# Indices 1 2 3 4 5 6 
#
# 1 90.0892 37.9409 23.8568 0.0000 0.0000 0.0000
# 2 37.9409 131.6246 43.7851 0.0000 0.0000 0.0000
# 3 23.8568 43.7851 89.8701 0.0000 0.0000 0.0000
# 4 0.0000 0.0000 0.0000 31.0377 0.0000 0.0000
# 5 0.0000 0.0000 0.0000 0.0000 11.2044 0.0000
# 6 0.0000 0.0000 0.0000 0.0000 0.0000 6.9484
#
#
#
# Elastic Compliance Matrix: (Units=1/GPa)
#
#
# Indices 1 2 3 4 5 6 
#
# 1 0.012907 -0.003080 -0.001926 0.000000 0.000000 0.000000
# 2 -0.003080 0.009802 -0.003958 0.000000 0.000000 0.000000
# 3 -0.001926 -0.003958 0.013567 0.000000 0.000000 0.000000
# 4 0.000000 0.000000 0.000000 0.032219 0.000000 0.000000
# 5 0.000000 0.000000 0.000000 0.000000 0.089251 0.000000
# 6 0.000000 0.000000 0.000000 0.000000 0.000000 0.143918
#
#
# Mechanical properties :
#
#
# Convention : Reuss Voigt Hill
#
# Bulk Modulus (GPa) = 54.50035 58.08327 56.29181
# Shear Modulus (GPa) = 15.35126 23.57150 19.46138
#
# Velocity S-wave (km/s) = 2.97119 3.68173 3.34537
# Velocity P-wave (km/s) = 6.56595 7.17461 6.87702
#
# Compressibility (1/GPa) = 0.01834851
#
# Stress axis : x y z
#
# Youngs Moduli (GPa) = 77.47629 102.02275 73.71000
#
# Poissons Ratio (x) = 0.31422 0.14195
# Poissons Ratio (y) = 0.23862 0.29173
# Poissons Ratio (z) = 0.14920 0.40379
#
# Static dielectric constant tensor:
#      x y z
#    x 3.587310 0.000000 0.000000 
#    y 0.000000 3.357990 0.000000 
#    z 0.000000 0.000000 4.472740 
# 
# 
# High freq. dielectric constant tensor:
#      x y z
#    x 1.631750 0.000000 0.000000 
#    y 0.000000 1.684430 0.000000 
#    z 0.000000 0.000000 1.672370 
# 
# From -- ./inp_files/58065.got.cif
#   From: 2010.03.12/outbox.cif.g09.slc.cpg/sg63_30_cif.got.tgz:58065.got - 2010.04.10 19:34:48.
