data_PCOD8257194
_publ_section_title
;
Structure prediction by ZEFSAII (Michael W. Deem and Ramdas Pophale) SiO2 
 PCOD8257194
Probable space group: C M C M
;
_chemical_formula_sum "Si O2"
_cell_formula_units_Z 80
_cell_length_a 19.737446
_cell_length_b 25.346537
_cell_length_c 8.699995
_cell_angle_alpha 90.000000
_cell_angle_beta 90.000000
_cell_angle_gamma 90.000000
_cell_volume 4352.397875
_symmetry_space_group_name_H-M "C M C M"
_symmetry_group_IT_number 63
_symmetry_cell_setting 'orthorhombic'
loop_
_space_group_symop_operation_xyz
x,y,z
-x,-y,1/2+z
x,-y,-z
-x,y,1/2-z
-x,-y,-z
x,y,1/2-z
-x,y,z
x,-y,1/2+z
1/2+x,1/2+y,z
1/2-x,1/2-y,1/2+z
1/2+x,1/2-y,-z
1/2-x,1/2+y,1/2-z
1/2-x,1/2-y,-z
1/2+x,1/2+y,1/2-z
1/2-x,1/2+y,z
1/2+x,1/2-y,1/2+z
loop_
_atom_site_type_symbol
_atom_site_label
_atom_site_fract_x
_atom_site_fract_y
_atom_site_fract_z
Si Si1 0.856301 0.260307 0.430812
Si Si2 0.246311 0.169532 0.431208
Si Si3 0.000000 0.385683 0.919652
Si Si4 0.755195 0.947199 0.570895
Si Si5 0.000000 0.736536 0.081224
Si Si6 0.391015 0.948906 0.431776
O O1 0.860541 0.267131 0.250000
O O2 0.812214 0.209687 0.481421
O O3 0.818656 0.312713 0.495928
O O4 0.931521 0.248385 0.491869
O O5 0.258524 0.168863 0.250000
O O6 0.220951 0.111064 0.487107
O O7 0.000000 0.324765 0.892924
O O8 0.000000 0.413239 0.750000
O O9 0.934745 0.398439 0.023224
O O10 0.766828 0.952511 0.750000
O O11 0.677091 0.947792 0.528606
O O12 0.791443 0.000000 0.500000
O O13 0.000000 0.763994 0.250000
O O14 0.377877 0.951263 0.250000
O O15 0.430853 0.000000 0.500000
#
# Coordination Sequence:
#
# PCOD8257194 Si02
#       6
#    16  16   8  16   8  16
#     4  10  20  34  54  77 101 132 170 208 247 297
#     4   9  19  35  53  75 104 135 165 204 253 298
#     4  11  22  34  45  59  86 123 159 196 239 283
#     4  10  19  32  49  70  97 126 158 196 241 289
#     4  11  23  36  50  71 100 131 162 202 252 297
#     4  11  21  32  45  63  88 120 160 200 238 278
#
# _framework density 18.380673999999999
#
# number of rings (size 3 to 8) (size 9 to 14) (size 15 to 20)
#    0.000    1.800    0.000    6.300    0.000    8.800 
#    0.000    0.000    0.000    0.000    0.000    0.700 
#    0.000    0.000    0.000    0.000    0.000    0.000 
#
# Total GULP energy -495582.496647 kJ/mol
# GULP energy per Si atom -12389.562416 kJ/mol
# Density = 1.833884 g / cm^3
# Si number density = 18.380674 Si / 1000 Ang^3
#
#
#
# Elastic Constant Matrix: (Units=GPa)
#
#
# Indices 1 2 3 4 5 6 
#
# 1 77.9430 25.2677 21.1018 0.0000 0.0000 0.0000
# 2 25.2677 115.2608 36.4125 0.0000 0.0000 0.0000
# 3 21.1018 36.4125 43.9665 0.0000 0.0000 0.0000
# 4 0.0000 0.0000 0.0000 25.9691 0.0000 0.0000
# 5 0.0000 0.0000 0.0000 0.0000 34.1255 0.0000
# 6 0.0000 0.0000 0.0000 0.0000 0.0000 15.0230
#
#
#
# Elastic Compliance Matrix: (Units=1/GPa)
#
#
# Indices 1 2 3 4 5 6 
#
# 1 0.014903 -0.001364 -0.006023 0.000000 0.000000 0.000000
# 2 -0.001364 0.011875 -0.009180 0.000000 0.000000 0.000000
# 3 -0.006023 -0.009180 0.033238 0.000000 0.000000 0.000000
# 4 0.000000 0.000000 0.000000 0.038507 0.000000 0.000000
# 5 0.000000 0.000000 0.000000 0.000000 0.029304 0.000000
# 6 0.000000 0.000000 0.000000 0.000000 0.000000 0.066565
#
#
# Mechanical properties :
#
#
# Convention : Reuss Voigt Hill
#
# Bulk Modulus (GPa) = 37.19993 44.74825 40.97409
# Shear Modulus (GPa) = 21.14288 25.31607 23.22948
#
# Velocity S-wave (km/s) = 3.39525 3.71525 3.55885
# Velocity P-wave (km/s) = 5.97100 6.54234 6.26319
#
# Compressibility (1/GPa) = 0.02688177
#
# Stress axis : x y z
#
# Youngs Moduli (GPa) = 67.10186 84.20927 30.08607
#
# Poissons Ratio (x) = 0.11489 0.18120
# Poissons Ratio (y) = 0.09155 0.27619
# Poissons Ratio (z) = 0.40413 0.77305
#
# Static dielectric constant tensor:
#      x y z
#    x 3.123230 0.000000 0.000000 
#    y 0.000000 4.125830 0.000000 
#    z 0.000000 0.000000 3.484450 
# 
# 
# High freq. dielectric constant tensor:
#      x y z
#    x 1.670080 0.000000 0.000000 
#    y 0.000000 1.718330 0.000000 
#    z 0.000000 0.000000 1.724580 
# 
# From -- ./inp_files/6472.got.cif
#   From: 2010.03.12/outbox.cif.g09.slc.cpg/sg63_4_cif.got.tgz:6472.got - 2010.04.10 19:34:48.
