data_PCOD8257782
_publ_section_title
;
Structure prediction by ZEFSAII (Michael W. Deem and Ramdas Pophale) SiO2 
 PCOD8257782
Probable space group: C M C M
;
_chemical_formula_sum "Si O2"
_cell_formula_units_Z 80
_cell_length_a 9.565875
_cell_length_b 27.687584
_cell_length_c 16.347770
_cell_angle_alpha 90.000000
_cell_angle_beta 90.000000
_cell_angle_gamma 90.000000
_cell_volume 4329.804441
_symmetry_space_group_name_H-M "C M C M"
_symmetry_group_IT_number 63
_symmetry_cell_setting 'orthorhombic'
loop_
_space_group_symop_operation_xyz
x,y,z
-x,-y,1/2+z
x,-y,-z
-x,y,1/2-z
-x,-y,-z
x,y,1/2-z
-x,y,z
x,-y,1/2+z
1/2+x,1/2+y,z
1/2-x,1/2-y,1/2+z
1/2+x,1/2-y,-z
1/2-x,1/2+y,1/2-z
1/2-x,1/2-y,-z
1/2+x,1/2+y,1/2-z
1/2-x,1/2+y,z
1/2+x,1/2-y,1/2+z
loop_
_atom_site_type_symbol
_atom_site_label
_atom_site_fract_x
_atom_site_fract_y
_atom_site_fract_z
Si Si1 0.334358 0.224455 0.659628
Si Si2 0.653300 0.614618 0.250000
Si Si3 0.335245 0.864704 0.053243
Si Si4 0.165438 0.473438 0.418242
Si Si5 0.341282 0.676588 0.410649
Si Si6 0.333393 0.978139 0.750000
O O1 0.267222 0.227861 0.750000
O O2 0.500000 0.227698 0.666985
O O3 0.287447 0.173520 0.621631
O O4 0.283694 0.268807 0.602741
O O5 0.500000 0.589301 0.250000
O O6 0.668077 0.649446 0.174054
O O7 0.775073 0.575617 0.250000
O O8 0.500000 0.862697 0.037023
O O9 0.287619 0.917726 0.081572
O O10 0.259482 0.852104 0.969922
O O11 0.226237 0.500000 0.500000
O O12 0.222254 0.495892 0.332986
O O13 0.000000 0.478403 0.419458
O O14 0.500000 0.677183 0.444860
O O15 0.500000 0.975956 0.750000
#
# Coordination Sequence:
#
# PCOD8257782 Si02
#       6
#    16   8  16  16  16   8
#     4   9  17  31  52  77 104 135 172 212 253 306
#     4  10  20  34  53  75  99 135 176 212 255 310
#     4  10  20  32  53  79 104 134 173 215 254 304
#     4   9  18  32  49  75 107 134 165 210 262 306
#     4  10  19  34  53  74 103 138 172 209 259 310
#     4  10  20  34  55  77 103 137 170 216 269 308
#
# _framework density 18.476586000000001
#
# number of rings (size 3 to 8) (size 9 to 14) (size 15 to 20)
#    0.000    2.400    1.000    1.800    1.400    2.400 
#    0.000    1.000    0.000    5.400    0.000    0.000 
#    0.000    0.000    0.000    0.000    0.000    0.000 
#
# Total GULP energy -495890.918008 kJ/mol
# GULP energy per Si atom -12397.272950 kJ/mol
# Density = 1.843453 g / cm^3
# Si number density = 18.476586 Si / 1000 Ang^3
#
#
#
# Elastic Constant Matrix: (Units=GPa)
#
#
# Indices 1 2 3 4 5 6 
#
# 1 23.8018 23.5477 19.2232 0.0000 0.0000 0.0000
# 2 23.5477 138.6925 42.2962 0.0000 0.0000 0.0000
# 3 19.2232 42.2962 107.2084 0.0000 0.0000 0.0000
# 4 0.0000 0.0000 0.0000 21.4536 0.0000 0.0000
# 5 0.0000 0.0000 0.0000 0.0000 -3.7058 0.0000
# 6 0.0000 0.0000 0.0000 0.0000 0.0000 17.4832
#
#
#
# Elastic Compliance Matrix: (Units=1/GPa)
#
#
# Indices 1 2 3 4 5 6 
#
# 1 0.054746 -0.007163 -0.006990 0.000000 0.000000 0.000000
# 2 -0.007163 0.009134 -0.002319 0.000000 0.000000 0.000000
# 3 -0.006990 -0.002319 0.011496 0.000000 0.000000 0.000000
# 4 0.000000 0.000000 0.000000 0.046612 0.000000 0.000000
# 5 0.000000 0.000000 0.000000 0.000000 -0.269845 0.000000
# 6 0.000000 0.000000 0.000000 0.000000 0.000000 0.057198
#
#
# Mechanical properties :
#
#
# Convention : Reuss Voigt Hill
#
# Bulk Modulus (GPa) = 23.56791 48.87076 36.21934
# Shear Modulus (GPa) = -114.75588 19.35521 -47.70033
#
# Velocity S-wave (km/s) = -7.88946 3.24010 -5.08652
# Velocity P-wave (km/s) = 8.37904 6.36437 3.85377
#
# Compressibility (1/GPa) = 0.04243057
#
# Stress axis : x y z
#
# Youngs Moduli (GPa) = 18.26618 109.48581 86.98717
#
# Poissons Ratio (x) = 0.78427 0.60807
# Poissons Ratio (y) = 0.13084 0.20172
# Poissons Ratio (z) = 0.12769 0.25390
#
# Static dielectric constant tensor:
#      x y z
#    x 3.031690 0.000000 0.000000 
#    y 0.000000 3.604300 0.000000 
#    z 0.000000 0.000000 3.632640 
# 
# 
# High freq. dielectric constant tensor:
#      x y z
#    x 1.664550 0.000000 0.000000 
#    y 0.000000 1.732900 0.000000 
#    z 0.000000 0.000000 1.729180 
# 
# From -- ./inp_files/29778.got.cif
#   From: 2010.03.12/outbox.cif.g09.slc.cpg/sg63_15_cif.got.tgz:29778.got - 2010.04.10 19:34:48.
