data_PCOD8257484
_publ_section_title
;
Structure prediction by ZEFSAII (Michael W. Deem and Ramdas Pophale) SiO2 
 PCOD8257484
Probable space group: C M C M
;
_chemical_formula_sum "Si O2"
_cell_formula_units_Z 96
_cell_length_a 25.706344
_cell_length_b 9.501557
_cell_length_c 22.723622
_cell_angle_alpha 90.000000
_cell_angle_beta 90.000000
_cell_angle_gamma 90.000000
_cell_volume 5550.251326
_symmetry_space_group_name_H-M "C M C M"
_symmetry_group_IT_number 63
_symmetry_cell_setting 'orthorhombic'
loop_
_space_group_symop_operation_xyz
x,y,z
-x,-y,1/2+z
x,-y,-z
-x,y,1/2-z
-x,-y,-z
x,y,1/2-z
-x,y,z
x,-y,1/2+z
1/2+x,1/2+y,z
1/2-x,1/2-y,1/2+z
1/2+x,1/2-y,-z
1/2-x,1/2+y,1/2-z
1/2-x,1/2-y,-z
1/2+x,1/2+y,1/2-z
1/2-x,1/2+y,z
1/2+x,1/2-y,1/2+z
loop_
_atom_site_type_symbol
_atom_site_label
_atom_site_fract_x
_atom_site_fract_y
_atom_site_fract_z
Si Si1 0.360517 0.704792 0.082805
Si Si2 0.836098 0.499985 0.625415
Si Si3 0.683787 0.060872 0.250000
Si Si4 0.856337 0.768857 0.443905
Si Si5 0.778028 0.130590 0.750000
Si Si6 0.787212 0.971873 0.374806
Si Si7 0.942527 0.981615 0.069005
O O1 0.310951 0.622797 0.108881
O O2 0.413012 0.617002 0.096001
O O3 0.365647 0.853890 0.114812
O O4 0.352400 0.726210 0.013717
O O5 0.850851 0.442851 0.690774
O O6 0.856814 0.391480 0.577013
O O7 0.774447 0.518249 0.619307
O O8 0.720288 0.199651 0.250000
O O9 0.718225 0.918843 0.250000
O O10 0.806339 0.851719 0.419393
O O11 0.908713 0.841962 0.418957
O O12 0.805370 0.069991 0.691291
O O13 0.000000 0.967730 0.097808
O O14 0.948170 0.000000 0.000000
#
# Coordination Sequence:
#
# PCOD8257484 Si02
#       7
#    16  16   8  16   8  16  16
#     4  10  21  31  49  78 103 133 166 201 254 308
#     4  11  21  32  48  73 107 136 169 208 244 289
#     4  10  22  34  50  68  97 139 182 216 241 273
#     4  10  19  33  49  75 105 133 168 202 247 311
#     4  10  20  34  50  68  93 137 184 218 235 275
#     4  10  20  32  49  69 103 141 173 203 237 289
#     4   8  16  34  55  72  96 128 165 209 251 298
#
# _framework density 17.296513999999998
#
# number of rings (size 3 to 8) (size 9 to 14) (size 15 to 20)
#    0.000    2.167    1.667    3.000    7.000    4.000 
#    0.000    0.833    0.000    4.000    0.000   22.167 
#    0.000    0.000    0.000    0.000    0.000    0.000 
#
# Total GULP energy -595111.474679 kJ/mol
# GULP energy per Si atom -12398.155722 kJ/mol
# Density = 1.725715 g / cm^3
# Si number density = 17.296514 Si / 1000 Ang^3
#
#
#
# Elastic Constant Matrix: (Units=GPa)
#
#
# Indices 1 2 3 4 5 6 
#
# 1 89.1749 35.9139 21.4558 0.0000 0.0000 0.0000
# 2 35.9139 130.2711 30.2152 0.0000 0.0000 0.0000
# 3 21.4558 30.2152 85.0911 0.0000 0.0000 0.0000
# 4 0.0000 0.0000 0.0000 29.8189 0.0000 0.0000
# 5 0.0000 0.0000 0.0000 0.0000 4.3203 0.0000
# 6 0.0000 0.0000 0.0000 0.0000 0.0000 8.6456
#
#
#
# Elastic Compliance Matrix: (Units=1/GPa)
#
#
# Indices 1 2 3 4 5 6 
#
# 1 0.012976 -0.003071 -0.002181 0.000000 0.000000 0.000000
# 2 -0.003071 0.009092 -0.002454 0.000000 0.000000 0.000000
# 3 -0.002181 -0.002454 0.013174 0.000000 0.000000 0.000000
# 4 0.000000 0.000000 0.000000 0.033536 0.000000 0.000000
# 5 0.000000 0.000000 0.000000 0.000000 0.231464 0.000000
# 6 0.000000 0.000000 0.000000 0.000000 0.000000 0.115666
#
#
# Mechanical properties :
#
#
# Convention : Reuss Voigt Hill
#
# Bulk Modulus (GPa) = 50.43348 53.30075 51.86712
# Shear Modulus (GPa) = 11.41736 23.02044 17.21890
#
# Velocity S-wave (km/s) = 2.57202 3.65215 3.15860
# Velocity P-wave (km/s) = 6.16781 6.97618 6.58441
#
# Compressibility (1/GPa) = 0.01982810
#
# Stress axis : x y z
#
# Youngs Moduli (GPa) = 77.06747 109.98411 75.90961
#
# Poissons Ratio (x) = 0.33779 0.16558
# Poissons Ratio (y) = 0.23670 0.18629
# Poissons Ratio (z) = 0.16810 0.26992
#
# Static dielectric constant tensor:
#      x y z
#    x 3.176570 0.000000 0.000000 
#    y 0.000000 3.343560 0.000000 
#    z 0.000000 0.000000 3.437730 
# 
# 
# High freq. dielectric constant tensor:
#      x y z
#    x 1.624530 0.000000 0.000000 
#    y 0.000000 1.680920 0.000000 
#    z 0.000000 0.000000 1.666850 
# 
# From -- ./inp_files/65005.got.cif
#   From: 2010.03.12/outbox.cif.g09.slc.cpg/sg63_33_cif.got.tgz:65005.got - 2010.04.10 19:34:48.
