data_PCOD8257132
_publ_section_title
;
Structure prediction by ZEFSAII (Michael W. Deem and Ramdas Pophale) SiO2 
 PCOD8257132
Probable space group: C M C M
;
_chemical_formula_sum "Si O2"
_cell_formula_units_Z 96
_cell_length_a 9.395342
_cell_length_b 19.951144
_cell_length_c 28.751177
_cell_angle_alpha 90.000000
_cell_angle_beta 90.000000
_cell_angle_gamma 90.000000
_cell_volume 5389.345485
_symmetry_space_group_name_H-M "C M C M"
_symmetry_group_IT_number 63
_symmetry_cell_setting 'orthorhombic'
loop_
_space_group_symop_operation_xyz
x,y,z
-x,-y,1/2+z
x,-y,-z
-x,y,1/2-z
-x,-y,-z
x,y,1/2-z
-x,y,z
x,-y,1/2+z
1/2+x,1/2+y,z
1/2-x,1/2-y,1/2+z
1/2+x,1/2-y,-z
1/2-x,1/2+y,1/2-z
1/2-x,1/2-y,-z
1/2+x,1/2+y,1/2-z
1/2-x,1/2+y,z
1/2+x,1/2-y,1/2+z
loop_
_atom_site_type_symbol
_atom_site_label
_atom_site_fract_x
_atom_site_fract_y
_atom_site_fract_z
Si Si1 0.331864 0.686936 0.519122
Si Si2 0.168995 0.006421 0.132577
Si Si3 0.659517 0.101669 0.304782
Si Si4 0.330462 0.251235 0.198031
Si Si5 0.668092 0.555404 0.034061
Si Si6 0.169103 0.854577 0.378420
O O1 0.500000 0.700351 0.518834
O O2 0.250000 0.750000 0.500000
O O3 0.287994 0.628027 0.483992
O O4 0.277713 0.669105 0.570930
O O5 0.237274 0.045098 0.175479
O O6 0.224375 0.043468 0.086067
O O7 0.000000 0.009394 0.137734
O O8 0.223180 0.929631 0.132033
O O9 0.657927 0.092761 0.250000
O O10 0.500000 0.091979 0.324752
O O11 0.717081 0.176353 0.317231
O O12 0.272800 0.268351 0.250000
O O13 0.500000 0.253685 0.198956
O O14 0.268522 0.304754 0.161084
O O15 0.500000 0.545817 0.033819
O O16 0.736497 0.500000 0.000000
O O17 0.000000 0.853698 0.377928
#
# Coordination Sequence:
#
# PCOD8257132 Si02
#       6
#    16  16  16  16  16  16
#     4  10  20  33  50  73 101 132 166 204 244 292
#     4  10  19  31  52  78  99 127 168 209 246 288
#     4   9  19  35  52  71  99 133 162 195 250 308
#     4   8  15  29  48  69  94 124 159 200 243 286
#     4   9  16  31  51  70 100 138 166 194 244 300
#     4   9  17  30  49  73  98 127 166 206 242 283
#
# _framework density 17.812923999999999
#
# number of rings (size 3 to 8) (size 9 to 14) (size 15 to 20)
#    0.000    2.833    1.667    1.000    2.333    1.000 
#    0.000    2.500    0.000    2.000    0.000    0.000 
#    0.000    0.000    0.000    0.000    0.000    0.000 
#
# Total GULP energy -595026.716013 kJ/mol
# GULP energy per Si atom -12396.389917 kJ/mol
# Density = 1.777238 g / cm^3
# Si number density = 17.812924 Si / 1000 Ang^3
#
#
#
# Elastic Constant Matrix: (Units=GPa)
#
#
# Indices 1 2 3 4 5 6 
#
# 1 23.6045 38.2205 24.9618 0.0000 0.0000 0.0000
# 2 38.2205 164.9722 82.0498 0.0000 0.0000 0.0000
# 3 24.9618 82.0498 95.2106 0.0000 0.0000 0.0000
# 4 0.0000 0.0000 0.0000 41.3376 0.0000 0.0000
# 5 0.0000 0.0000 0.0000 0.0000 18.1242 0.0000
# 6 0.0000 0.0000 0.0000 0.0000 0.0000 22.9121
#
#
#
# Elastic Compliance Matrix: (Units=1/GPa)
#
#
# Indices 1 2 3 4 5 6 
#
# 1 0.070930 -0.012573 -0.007761 0.000000 0.000000 0.000000
# 2 -0.012573 0.012837 -0.007766 0.000000 0.000000 0.000000
# 3 -0.007761 -0.007766 0.019231 0.000000 0.000000 0.000000
# 4 0.000000 0.000000 0.000000 0.024191 0.000000 0.000000
# 5 0.000000 0.000000 0.000000 0.000000 0.055175 0.000000
# 6 0.000000 0.000000 0.000000 0.000000 0.000000 0.043645
#
#
# Mechanical properties :
#
#
# Convention : Reuss Voigt Hill
#
# Bulk Modulus (GPa) = 21.36879 63.80571 42.58725
# Shear Modulus (GPa) = 16.78928 25.71180 21.25054
#
# Velocity S-wave (km/s) = 3.07340 3.80338 3.45771
# Velocity P-wave (km/s) = 4.96152 7.42868 6.31672
#
# Compressibility (1/GPa) = 0.04679723
#
# Stress axis : x y z
#
# Youngs Moduli (GPa) = 14.09834 77.89867 52.00040
#
# Poissons Ratio (x) = 0.97942 0.40358
# Poissons Ratio (y) = 0.17726 0.40386
# Poissons Ratio (z) = 0.10942 0.60499
#
# Static dielectric constant tensor:
#      x y z
#    x 2.738270 0.000000 0.000000 
#    y 0.000000 3.514970 0.000000 
#    z 0.000000 0.000000 3.561550 
# 
# 
# High freq. dielectric constant tensor:
#      x y z
#    x 1.627760 0.000000 0.000000 
#    y 0.000000 1.702210 0.000000 
#    z 0.000000 0.000000 1.699460 
# 
# From -- ./inp_files/59931.got.cif
#   From: 2010.03.12/outbox.cif.g09.slc.cpg/sg63_30_cif.got.tgz:59931.got - 2010.04.10 19:34:48.
