data_PCOD8257011
_publ_section_title
;
Structure prediction by ZEFSAII (Michael W. Deem and Ramdas Pophale) SiO2 
 PCOD8257011
Probable space group: C M C M
;
_chemical_formula_sum "Si O2"
_cell_formula_units_Z 80
_cell_length_a 18.663707
_cell_length_b 27.007530
_cell_length_c 8.727752
_cell_angle_alpha 90.000000
_cell_angle_beta 90.000000
_cell_angle_gamma 90.000000
_cell_volume 4399.316143
_symmetry_space_group_name_H-M "C M C M"
_symmetry_group_IT_number 63
_symmetry_cell_setting 'orthorhombic'
loop_
_space_group_symop_operation_xyz
x,y,z
-x,-y,1/2+z
x,-y,-z
-x,y,1/2-z
-x,-y,-z
x,y,1/2-z
-x,y,z
x,-y,1/2+z
1/2+x,1/2+y,z
1/2-x,1/2-y,1/2+z
1/2+x,1/2-y,-z
1/2-x,1/2+y,1/2-z
1/2-x,1/2-y,-z
1/2+x,1/2+y,1/2-z
1/2-x,1/2+y,z
1/2+x,1/2-y,1/2+z
loop_
_atom_site_type_symbol
_atom_site_label
_atom_site_fract_x
_atom_site_fract_y
_atom_site_fract_z
Si Si1 0.639198 0.447593 0.569212
Si Si2 0.421513 0.946581 0.569242
Si Si3 0.788079 0.797638 0.932295
Si Si4 0.218011 0.603060 0.430459
Si Si5 0.418071 0.349126 0.072106
O O1 0.614566 0.500000 0.500000
O O2 0.627434 0.448762 0.750000
O O3 0.722260 0.437677 0.524684
O O4 0.591572 0.403176 0.502668
O O5 0.413358 0.951687 0.750000
O O6 0.500000 0.924952 0.525373
O O7 0.359411 0.911494 0.500029
O O8 0.410623 0.000000 0.500000
O O9 0.791340 0.794007 0.750000
O O10 0.740558 0.843500 0.993514
O O11 0.750000 0.750000 0.000000
O O12 0.868594 0.806810 0.994181
O O13 0.212278 0.606916 0.250000
O O14 0.398010 0.352895 0.250000
O O15 0.500000 0.332280 0.048062
#
# Coordination Sequence:
#
# PCOD8257011 Si02
#       5
#    16  16  16  16  16
#     4  10  19  31  49  73 103 138 174 212 253 303
#     4   9  16  27  44  66  94 127 160 195 237 284
#     4  10  20  36  57  78 102 132 169 212 257 307
#     4   8  16  30  47  69  96 128 167 207 246 293
#     4  10  21  37  56  78 104 134 170 212 259 312
#
# _framework density 18.184645
#
# number of rings (size 3 to 8) (size 9 to 14) (size 15 to 20)
#    0.000    2.600    0.000    3.600    0.000    2.000 
#    0.000    6.000    0.000    3.600    0.000    0.000 
#    0.000    0.000    0.000    0.000    0.000    0.000 
#
# Total GULP energy -495813.235326 kJ/mol
# GULP energy per Si atom -12395.330883 kJ/mol
# Density = 1.814326 g / cm^3
# Si number density = 18.184645 Si / 1000 Ang^3
#
#
#
# Elastic Constant Matrix: (Units=GPa)
#
#
# Indices 1 2 3 4 5 6 
#
# 1 133.6181 51.3508 44.5184 0.0000 0.0000 0.0000
# 2 51.3508 100.1098 43.6036 0.0000 0.0000 0.0000
# 3 44.5184 43.6036 80.6018 0.0000 0.0000 0.0000
# 4 0.0000 0.0000 0.0000 29.9675 0.0000 0.0000
# 5 0.0000 0.0000 0.0000 0.0000 24.0804 0.0000
# 6 0.0000 0.0000 0.0000 0.0000 0.0000 21.7598
#
#
#
# Elastic Compliance Matrix: (Units=1/GPa)
#
#
# Indices 1 2 3 4 5 6 
#
# 1 0.010069 -0.003588 -0.003620 0.000000 0.000000 0.000000
# 2 -0.003588 0.014347 -0.005780 0.000000 0.000000 0.000000
# 3 -0.003620 -0.005780 0.017533 0.000000 0.000000 0.000000
# 4 0.000000 0.000000 0.000000 0.033370 0.000000 0.000000
# 5 0.000000 0.000000 0.000000 0.000000 0.041528 0.000000
# 6 0.000000 0.000000 0.000000 0.000000 0.000000 0.045956
#
#
# Mechanical properties :
#
#
# Convention : Reuss Voigt Hill
#
# Bulk Modulus (GPa) = 62.60585 65.91948 64.26267
# Shear Modulus (GPa) = 25.75959 26.81867 26.28913
#
# Velocity S-wave (km/s) = 3.76780 3.84448 3.80633
# Velocity P-wave (km/s) = 7.30965 7.48568 7.39819
#
# Compressibility (1/GPa) = 0.01597295
#
# Stress axis : x y z
#
# Youngs Moduli (GPa) = 99.31309 69.70201 57.03568
#
# Poissons Ratio (x) = 0.25009 0.20649
# Poissons Ratio (y) = 0.35634 0.32964
# Poissons Ratio (z) = 0.35956 0.40284
#
# Static dielectric constant tensor:
#      x y z
#    x 3.742680 0.000000 0.000000 
#    y 0.000000 3.357940 0.000000 
#    z 0.000000 0.000000 3.288700 
# 
# 
# High freq. dielectric constant tensor:
#      x y z
#    x 1.712780 0.000000 0.000000 
#    y 0.000000 1.686520 0.000000 
#    z 0.000000 0.000000 1.698940 
# 
# From -- ./inp_files/6362.got.cif
#   From: 2010.03.12/outbox.cif.g09.slc.cpg/sg63_4_cif.got.tgz:6362.got - 2010.04.10 19:34:48.
