data_PCOD8257638
_publ_section_title
;
Structure prediction by ZEFSAII (Michael W. Deem and Ramdas Pophale) SiO2 
 PCOD8257638
Probable space group: C M C M
;
_chemical_formula_sum "Si O2"
_cell_formula_units_Z 80
_cell_length_a 17.406728
_cell_length_b 15.282568
_cell_length_c 15.470552
_cell_angle_alpha 90.000000
_cell_angle_beta 90.000000
_cell_angle_gamma 90.000000
_cell_volume 4115.468575
_symmetry_space_group_name_H-M "C M C M"
_symmetry_group_IT_number 63
_symmetry_cell_setting 'orthorhombic'
loop_
_space_group_symop_operation_xyz
x,y,z
-x,-y,1/2+z
x,-y,-z
-x,y,1/2-z
-x,-y,-z
x,y,1/2-z
-x,y,z
x,-y,1/2+z
1/2+x,1/2+y,z
1/2-x,1/2-y,1/2+z
1/2+x,1/2-y,-z
1/2-x,1/2+y,1/2-z
1/2-x,1/2-y,-z
1/2+x,1/2+y,1/2-z
1/2-x,1/2+y,z
1/2+x,1/2-y,1/2+z
loop_
_atom_site_type_symbol
_atom_site_label
_atom_site_fract_x
_atom_site_fract_y
_atom_site_fract_z
Si Si1 0.736630 0.680157 0.651998
Si Si2 0.913977 0.235544 0.943775
Si Si3 0.169920 0.596233 0.999092
Si Si4 0.415099 0.426568 0.565565
Si Si5 0.776659 0.872948 0.655908
O O1 0.736713 0.641831 0.750000
O O2 0.648540 0.704173 0.626658
O O3 0.777555 0.612938 0.586247
O O4 0.786184 0.768597 0.646921
O O5 0.893497 0.329371 0.986056
O O6 0.000000 0.241496 0.902316
O O7 0.914667 0.167303 0.020932
O O8 0.224488 0.590262 0.081240
O O9 0.130384 0.500000 0.000000
O O10 0.384016 0.500000 0.500000
O O11 0.500000 0.452756 0.598206
O O12 0.359559 0.419763 0.647884
O O13 0.742235 0.896658 0.750000
#
# Coordination Sequence:
#
# PCOD8257638 Si02
#       5
#    16  16  16  16  16
#     4  10  20  36  58  83 111 147 191 237 287 337
#     4  10  20  37  58  82 114 149 190 235 283 339
#     4  11  21  37  57  83 119 153 191 238 284 335
#     4  10  19  33  54  79 111 147 181 230 288 338
#     4  10  19  34  56  81 109 146 189 237 289 334
#
# _framework density 19.438855
#
# number of rings (size 3 to 8) (size 9 to 14) (size 15 to 20)
#    0.000    1.800    4.000    1.800    0.000    2.000 
#    0.000    0.000    0.000    4.200    0.000    2.800 
#    0.000    0.000    0.000    0.000    0.000    0.000 
#
# Total GULP energy -495696.014152 kJ/mol
# GULP energy per Si atom -12392.400354 kJ/mol
# Density = 1.939461 g / cm^3
# Si number density = 19.438855 Si / 1000 Ang^3
#
#
#
# Elastic Constant Matrix: (Units=GPa)
#
#
# Indices 1 2 3 4 5 6 
#
# 1 86.7859 17.0891 25.1158 0.0000 0.0000 0.0000
# 2 17.0891 100.2507 14.0686 0.0000 0.0000 0.0000
# 3 25.1158 14.0686 95.5235 0.0000 0.0000 0.0000
# 4 0.0000 0.0000 0.0000 13.2701 0.0000 0.0000
# 5 0.0000 0.0000 0.0000 0.0000 42.4897 0.0000
# 6 0.0000 0.0000 0.0000 0.0000 0.0000 17.1233
#
#
#
# Elastic Compliance Matrix: (Units=1/GPa)
#
#
# Indices 1 2 3 4 5 6 
#
# 1 0.012762 -0.001741 -0.003099 0.000000 0.000000 0.000000
# 2 -0.001741 0.010423 -0.001077 0.000000 0.000000 0.000000
# 3 -0.003099 -0.001077 0.011442 0.000000 0.000000 0.000000
# 4 0.000000 0.000000 0.000000 0.075357 0.000000 0.000000
# 5 0.000000 0.000000 0.000000 0.000000 0.023535 0.000000
# 6 0.000000 0.000000 0.000000 0.000000 0.000000 0.058400
#
#
# Mechanical properties :
#
#
# Convention : Reuss Voigt Hill
#
# Bulk Modulus (GPa) = 43.87330 43.90081 43.88706
# Shear Modulus (GPa) = 23.65726 29.66239 26.65983
#
# Velocity S-wave (km/s) = 3.49235 3.91056 3.70736
# Velocity P-wave (km/s) = 6.23546 6.55919 6.39937
#
# Compressibility (1/GPa) = 0.02279290
#
# Stress axis : x y z
#
# Youngs Moduli (GPa) = 78.35608 95.94263 87.39594
#
# Poissons Ratio (x) = 0.16700 0.27086
# Poissons Ratio (y) = 0.13638 0.09416
# Poissons Ratio (z) = 0.24284 0.10337
#
# Static dielectric constant tensor:
#      x y z
#    x 3.703750 0.000000 0.000000 
#    y 0.000000 3.639790 0.000000 
#    z 0.000000 0.000000 3.475500 
# 
# 
# High freq. dielectric constant tensor:
#      x y z
#    x 1.739860 0.000000 0.000000 
#    y 0.000000 1.764550 0.000000 
#    z 0.000000 0.000000 1.741290 
# 
# From -- ./inp_files/33846.got.cif
#   From: 2010.03.12/outbox.cif.g09.slc.cpg/sg63_17_cif.got.tgz:33846.got - 2010.04.10 19:34:48.
