data_PCOD8257966
_publ_section_title
;
Structure prediction by ZEFSAII (Michael W. Deem and Ramdas Pophale) SiO2 
 PCOD8257966
Probable space group: C M C M
;
_chemical_formula_sum "Si O2"
_cell_formula_units_Z 88
_cell_length_a 22.271917
_cell_length_b 22.921253
_cell_length_c 9.213893
_cell_angle_alpha 90.000000
_cell_angle_beta 90.000000
_cell_angle_gamma 90.000000
_cell_volume 4703.694628
_symmetry_space_group_name_H-M "C M C M"
_symmetry_group_IT_number 63
_symmetry_cell_setting 'orthorhombic'
loop_
_space_group_symop_operation_xyz
x,y,z
-x,-y,1/2+z
x,-y,-z
-x,y,1/2-z
-x,-y,-z
x,y,1/2-z
-x,y,z
x,-y,1/2+z
1/2+x,1/2+y,z
1/2-x,1/2-y,1/2+z
1/2+x,1/2-y,-z
1/2-x,1/2+y,1/2-z
1/2-x,1/2-y,-z
1/2+x,1/2+y,1/2-z
1/2-x,1/2+y,z
1/2+x,1/2-y,1/2+z
loop_
_atom_site_type_symbol
_atom_site_label
_atom_site_fract_x
_atom_site_fract_y
_atom_site_fract_z
Si Si1 0.000000 0.936883 0.424791
Si Si2 0.669953 0.862336 0.914095
Si Si3 0.742118 0.559061 0.582050
Si Si4 0.622394 0.621738 0.583087
Si Si5 0.433186 0.944548 0.918827
Si Si6 0.689862 0.265785 0.415723
O O1 0.058728 0.900710 0.480964
O O2 0.000000 0.945245 0.250000
O O3 0.000000 0.000000 0.500000
O O4 0.688941 0.879416 0.750000
O O5 0.607571 0.890477 0.961540
O O6 0.653445 0.794330 0.924420
O O7 0.723146 0.884588 0.018692
O O8 0.760746 0.500000 0.500000
O O9 0.759198 0.551826 0.750000
O O10 0.671228 0.570540 0.561474
O O11 0.610653 0.635757 0.750000
O O12 0.649243 0.682139 0.513654
O O13 0.432725 0.958505 0.750000
O O14 0.500000 0.930795 0.975570
O O15 0.405559 0.000000 0.000000
O O16 0.706583 0.283116 0.250000
O O17 0.750000 0.250000 0.500000
#
# Coordination Sequence:
#
# PCOD8257966 Si02
#       6
#     8  16  16  16  16  16
#     4  10  20  38  60  82 110 146 187 232 279 330
#     4  10  20  33  52  77 104 135 174 215 259 316
#     4  11  21  33  51  77 108 137 172 217 266 317
#     4   9  19  35  55  79 108 141 179 222 271 324
#     4   9  18  33  50  71 100 132 167 207 252 302
#     4  10  19  35  55  78 106 138 174 214 263 319
#
# _framework density 18.708698999999999
#
# number of rings (size 3 to 8) (size 9 to 14) (size 15 to 20)
#    0.000    2.182    1.818    1.636    0.000    2.182 
#    1.636    1.818    0.000    0.000    0.000    0.000 
#    0.000    0.000    0.000    0.000    0.000    0.000 
#
# Total GULP energy -545343.969661 kJ/mol
# GULP energy per Si atom -12394.181129 kJ/mol
# Density = 1.866612 g / cm^3
# Si number density = 18.708699 Si / 1000 Ang^3
#
#
#
# Elastic Constant Matrix: (Units=GPa)
#
#
# Indices 1 2 3 4 5 6 
#
# 1 107.5464 59.6861 34.9217 0.0000 0.0000 0.0000
# 2 59.6861 120.8572 30.8861 0.0000 0.0000 0.0000
# 3 34.9217 30.8861 49.7754 0.0000 0.0000 0.0000
# 4 0.0000 0.0000 0.0000 25.0034 0.0000 0.0000
# 5 0.0000 0.0000 0.0000 0.0000 22.4959 0.0000
# 6 0.0000 0.0000 0.0000 0.0000 0.0000 31.6291
#
#
#
# Elastic Compliance Matrix: (Units=1/GPa)
#
#
# Indices 1 2 3 4 5 6 
#
# 1 0.014528 -0.005431 -0.006822 0.000000 0.000000 0.000000
# 2 -0.005431 0.011864 -0.003551 0.000000 0.000000 0.000000
# 3 -0.006822 -0.003551 0.027080 0.000000 0.000000 0.000000
# 4 0.000000 0.000000 0.000000 0.039995 0.000000 0.000000
# 5 0.000000 0.000000 0.000000 0.000000 0.044453 0.000000
# 6 0.000000 0.000000 0.000000 0.000000 0.000000 0.031616
#
#
# Mechanical properties :
#
#
# Convention : Reuss Voigt Hill
#
# Bulk Modulus (GPa) = 45.74054 58.79632 52.26843
# Shear Modulus (GPa) = 23.98851 26.00468 24.99660
#
# Velocity S-wave (km/s) = 3.58468 3.73229 3.65923
# Velocity P-wave (km/s) = 6.45253 7.07593 6.77141
#
# Compressibility (1/GPa) = 0.02186245
#
# Stress axis : x y z
#
# Youngs Moduli (GPa) = 68.83348 84.28871 36.92704
#
# Poissons Ratio (x) = 0.45778 0.25193
# Poissons Ratio (y) = 0.37384 0.13114
# Poissons Ratio (z) = 0.46961 0.29934
#
# Static dielectric constant tensor:
#      x y z
#    x 3.592640 0.000000 0.000000 
#    y 0.000000 3.911690 0.000000 
#    z 0.000000 0.000000 3.287310 
# 
# 
# High freq. dielectric constant tensor:
#      x y z
#    x 1.724250 0.000000 0.000000 
#    y 0.000000 1.735820 0.000000 
#    z 0.000000 0.000000 1.702310 
# 
# From -- ./inp_files/8150.got.cif
#   From: 2010.03.12/outbox.cif.g09.slc.cpg/sg63_5_cif.got.tgz:8150.got - 2010.04.10 19:34:48.
