data_PCOD8257985
_publ_section_title
;
Structure prediction by ZEFSAII (Michael W. Deem and Ramdas Pophale) SiO2 
 PCOD8257985
Probable space group: C M C M
;
_chemical_formula_sum "Si O2"
_cell_formula_units_Z 96
_cell_length_a 8.726941
_cell_length_b 20.416262
_cell_length_c 28.550788
_cell_angle_alpha 90.000000
_cell_angle_beta 90.000000
_cell_angle_gamma 90.000000
_cell_volume 5086.937121
_symmetry_space_group_name_H-M "C M C M"
_symmetry_group_IT_number 63
_symmetry_cell_setting 'orthorhombic'
loop_
_space_group_symop_operation_xyz
x,y,z
-x,-y,1/2+z
x,-y,-z
-x,y,1/2-z
-x,-y,-z
x,y,1/2-z
-x,y,z
x,-y,1/2+z
1/2+x,1/2+y,z
1/2-x,1/2-y,1/2+z
1/2+x,1/2-y,-z
1/2-x,1/2+y,1/2-z
1/2-x,1/2-y,-z
1/2+x,1/2+y,1/2-z
1/2-x,1/2+y,z
1/2+x,1/2-y,1/2+z
loop_
_atom_site_type_symbol
_atom_site_label
_atom_site_fract_x
_atom_site_fract_y
_atom_site_fract_z
Si Si1 0.819797 0.761403 0.050228
Si Si2 0.681100 0.117360 0.602544
Si Si3 0.680831 0.679943 0.300425
Si Si4 0.681768 0.827123 0.198781
Si Si5 0.679846 0.505045 0.445953
Si Si6 0.320180 0.359534 0.898889
O O1 0.758598 0.829770 0.069326
O O2 0.774732 0.701802 0.083285
O O3 0.000000 0.766646 0.045637
O O4 0.750000 0.750000 0.000000
O O5 0.500000 0.126102 0.599049
O O6 0.740190 0.127058 0.656224
O O7 0.728288 0.045861 0.585515
O O8 0.744705 0.653424 0.250000
O O9 0.500000 0.684743 0.296960
O O10 0.744323 0.753382 0.309534
O O11 0.725124 0.632565 0.343757
O O12 0.739676 0.852826 0.250000
O O13 0.500000 0.826393 0.198417
O O14 0.730121 0.500000 0.500000
O O15 0.500000 0.491858 0.440066
O O16 0.727722 0.576249 0.427228
O O17 0.500000 0.344567 0.905097
#
# Coordination Sequence:
#
# PCOD8257985 Si02
#       6
#    16  16  16  16  16  16
#     4  12  24  37  56  82 112 141 180 232 280 329
#     4  11  21  36  59  84 111 145 189 231 272 328
#     4   8  13  25  50  81 108 137 179 227 273 327
#     4   8  14  27  51  82 111 140 178 223 271 327
#     4  10  22  38  54  75 111 155 189 227 282 334
#     4  10  19  35  57  80 108 144 188 230 275 331
#
# _framework density 18.871865
#
# number of rings (size 3 to 8) (size 9 to 14) (size 15 to 20)
#    0.000    2.167    1.667    4.000    0.000    2.333 
#    0.000    0.833    0.000    4.500    0.000    0.000 
#    0.000    0.000    0.000    0.000    0.000    0.000 
#
# Total GULP energy -594948.999950 kJ/mol
# GULP energy per Si atom -12394.770832 kJ/mol
# Density = 1.882891 g / cm^3
# Si number density = 18.871865 Si / 1000 Ang^3
#
#
#
# Elastic Constant Matrix: (Units=GPa)
#
#
# Indices 1 2 3 4 5 6 
#
# 1 53.0472 14.1104 12.7435 0.0000 0.0000 0.0000
# 2 14.1104 57.2497 22.3266 0.0000 0.0000 0.0000
# 3 12.7435 22.3266 135.9947 0.0000 0.0000 0.0000
# 4 0.0000 0.0000 0.0000 34.9326 0.0000 0.0000
# 5 0.0000 0.0000 0.0000 0.0000 15.2247 0.0000
# 6 0.0000 0.0000 0.0000 0.0000 0.0000 27.0669
#
#
#
# Elastic Compliance Matrix: (Units=1/GPa)
#
#
# Indices 1 2 3 4 5 6 
#
# 1 0.020343 -0.004563 -0.001157 0.000000 0.000000 0.000000
# 2 -0.004563 0.019686 -0.002804 0.000000 0.000000 0.000000
# 3 -0.001157 -0.002804 0.007922 0.000000 0.000000 0.000000
# 4 0.000000 0.000000 0.000000 0.028627 0.000000 0.000000
# 5 0.000000 0.000000 0.000000 0.000000 0.065683 0.000000
# 6 0.000000 0.000000 0.000000 0.000000 0.000000 0.036946
#
#
# Mechanical properties :
#
#
# Convention : Reuss Voigt Hill
#
# Bulk Modulus (GPa) = 32.36019 38.29475 35.32747
# Shear Modulus (GPa) = 24.20673 28.58556 26.39614
#
# Velocity S-wave (km/s) = 3.58535 3.89616 3.74398
# Velocity P-wave (km/s) = 5.85869 6.36994 6.11965
#
# Compressibility (1/GPa) = 0.03090216
#
# Stress axis : x y z
#
# Youngs Moduli (GPa) = 49.15752 50.79872 126.22991
#
# Poissons Ratio (x) = 0.23178 0.14607
# Poissons Ratio (y) = 0.22429 0.35398
# Poissons Ratio (z) = 0.05688 0.14245
#
# Static dielectric constant tensor:
#      x y z
#    x 3.210410 0.000000 0.000000 
#    y 0.000000 3.305770 0.000000 
#    z 0.000000 0.000000 4.028980 
# 
# 
# High freq. dielectric constant tensor:
#      x y z
#    x 1.699030 0.000000 0.000000 
#    y 0.000000 1.712370 0.000000 
#    z 0.000000 0.000000 1.760860 
# 
# From -- ./inp_files/66985.got.cif
#   From: 2010.03.12/outbox.cif.g09.slc.cpg/sg63_34_cif.got.tgz:66985.got - 2010.04.10 19:34:48.
