data_PCOD8257262
_publ_section_title
;
Structure prediction by ZEFSAII (Michael W. Deem and Ramdas Pophale) SiO2 
 PCOD8257262
Probable space group: C M C M
;
_chemical_formula_sum "Si O2"
_cell_formula_units_Z 80
_cell_length_a 8.863048
_cell_length_b 20.712018
_cell_length_c 23.208598
_cell_angle_alpha 90.000000
_cell_angle_beta 90.000000
_cell_angle_gamma 90.000000
_cell_volume 4260.439694
_symmetry_space_group_name_H-M "C M C M"
_symmetry_group_IT_number 63
_symmetry_cell_setting 'orthorhombic'
loop_
_space_group_symop_operation_xyz
x,y,z
-x,-y,1/2+z
x,-y,-z
-x,y,1/2-z
-x,-y,-z
x,y,1/2-z
-x,y,z
x,-y,1/2+z
1/2+x,1/2+y,z
1/2-x,1/2-y,1/2+z
1/2+x,1/2-y,-z
1/2-x,1/2+y,1/2-z
1/2-x,1/2-y,-z
1/2+x,1/2+y,1/2-z
1/2-x,1/2+y,z
1/2+x,1/2-y,1/2+z
loop_
_atom_site_type_symbol
_atom_site_label
_atom_site_fract_x
_atom_site_fract_y
_atom_site_fract_z
Si Si1 0.179654 0.509544 0.627213
Si Si2 0.821064 0.752551 0.629210
Si Si3 0.679680 0.947063 0.250000
Si Si4 0.820650 0.631181 0.944227
Si Si5 0.678831 0.802088 0.250000
Si Si6 0.179419 0.624051 0.425538
O O1 0.237833 0.515865 0.693031
O O2 0.243999 0.569130 0.589714
O O3 0.240717 0.442996 0.600647
O O4 0.000000 0.510962 0.625319
O O5 0.763700 0.696423 0.586307
O O6 0.765547 0.735611 0.693502
O O7 0.743964 0.819094 0.612977
O O8 0.000000 0.760066 0.625847
O O9 0.500000 0.944075 0.250000
O O10 0.745638 0.874458 0.250000
O O11 0.000000 0.628386 0.943224
O O12 0.759163 0.630299 0.009357
O O13 0.500000 0.807422 0.250000
O O14 0.000000 0.626860 0.424124
#
# Coordination Sequence:
#
# PCOD8257262 Si02
#       6
#    16  16   8  16   8  16
#     4   9  16  27  46  71  96 122 157 202 242 275
#     4  10  19  32  51  71  93 126 165 199 231 275
#     4   9  14  25  46  71  93 116 159 208 238 268
#     4   9  16  29  49  70  94 127 164 197 229 275
#     4   9  16  29  49  71  91 118 163 208 234 264
#     4  10  20  31  46  74 106 127 148 190 248 292
#
# _framework density 18.777405000000002
#
# number of rings (size 3 to 8) (size 9 to 14) (size 15 to 20)
#    0.000    2.600    2.000    1.200    0.000    3.200 
#    0.000    1.500    0.000    3.600    0.000    0.000 
#    0.000    0.000    0.000    0.000    0.000    0.000 
#
# Total GULP energy -495952.449268 kJ/mol
# GULP energy per Si atom -12398.811232 kJ/mol
# Density = 1.873467 g / cm^3
# Si number density = 18.777405 Si / 1000 Ang^3
#
#
#
# Elastic Constant Matrix: (Units=GPa)
#
#
# Indices 1 2 3 4 5 6 
#
# 1 7.5169 12.8202 10.9459 0.0000 0.0000 0.0000
# 2 12.8202 147.2260 68.9091 0.0000 0.0000 0.0000
# 3 10.9459 68.9091 166.7348 0.0000 0.0000 0.0000
# 4 0.0000 0.0000 0.0000 31.9036 0.0000 0.0000
# 5 0.0000 0.0000 0.0000 0.0000 13.9101 0.0000
# 6 0.0000 0.0000 0.0000 0.0000 0.0000 23.2316
#
#
#
# Elastic Compliance Matrix: (Units=1/GPa)
#
#
# Indices 1 2 3 4 5 6 
#
# 1 0.160806 -0.011235 -0.005913 0.000000 0.000000 0.000000
# 2 -0.011235 0.009206 -0.003067 0.000000 0.000000 0.000000
# 3 -0.005913 -0.003067 0.007653 0.000000 0.000000 0.000000
# 4 0.000000 0.000000 0.000000 0.031344 0.000000 0.000000
# 5 0.000000 0.000000 0.000000 0.000000 0.071890 0.000000
# 6 0.000000 0.000000 0.000000 0.000000 0.000000 0.043045
#
#
# Mechanical properties :
#
#
# Convention : Reuss Voigt Hill
#
# Bulk Modulus (GPa) = 7.28680 56.31424 31.80052
# Shear Modulus (GPa) = 12.19150 29.06255 20.62703
#
# Velocity S-wave (km/s) = 2.55083 3.93840 3.31796
# Velocity P-wave (km/s) = 3.54467 7.12298 5.62590
#
# Compressibility (1/GPa) = 0.13723451
#
# Stress axis : x y z
#
# Youngs Moduli (GPa) = 6.21866 108.62222 130.66079
#
# Poissons Ratio (x) = 1.22037 0.77266
# Poissons Ratio (y) = 0.06987 0.40077
# Poissons Ratio (z) = 0.03677 0.33317
#
# Static dielectric constant tensor:
#      x y z
#    x 2.715590 0.000000 0.000000 
#    y 0.000000 3.558380 0.000000 
#    z 0.000000 0.000000 3.819330 
# 
# 
# High freq. dielectric constant tensor:
#      x y z
#    x 1.653950 0.000000 0.000000 
#    y 0.000000 1.740020 0.000000 
#    z 0.000000 0.000000 1.750030 
# 
# From -- ./inp_files/50899.got.cif
#   From: 2010.03.12/outbox.cif.g09.slc.cpg/sg63_26_cif.got.tgz:50899.got - 2010.04.10 19:34:48.
