data_PCOD8257560
_publ_section_title
;
Structure prediction by ZEFSAII (Michael W. Deem and Ramdas Pophale) SiO2 
 PCOD8257560
Probable space group: C M C M
;
_chemical_formula_sum "Si O2"
_cell_formula_units_Z 72
_cell_length_a 15.539397
_cell_length_b 26.838039
_cell_length_c 9.166163
_cell_angle_alpha 90.000000
_cell_angle_beta 90.000000
_cell_angle_gamma 90.000000
_cell_volume 3822.720256
_symmetry_space_group_name_H-M "C M C M"
_symmetry_group_IT_number 63
_symmetry_cell_setting 'orthorhombic'
loop_
_space_group_symop_operation_xyz
x,y,z
-x,-y,1/2+z
x,-y,-z
-x,y,1/2-z
-x,-y,-z
x,y,1/2-z
-x,y,z
x,-y,1/2+z
1/2+x,1/2+y,z
1/2-x,1/2-y,1/2+z
1/2+x,1/2-y,-z
1/2-x,1/2+y,1/2-z
1/2-x,1/2-y,-z
1/2+x,1/2+y,1/2-z
1/2-x,1/2+y,z
1/2+x,1/2-y,1/2+z
loop_
_atom_site_type_symbol
_atom_site_label
_atom_site_fract_x
_atom_site_fract_y
_atom_site_fract_z
Si Si1 0.661624 0.447846 0.077694
Si Si2 0.326462 0.778527 0.422657
Si Si3 0.000000 0.222932 0.079230
Si Si4 0.000000 0.118457 0.579368
Si Si5 0.330333 0.108828 0.577098
Si Si6 0.500000 0.947325 0.076426
O O1 0.663999 0.456970 0.250000
O O2 0.583776 0.412151 0.031900
O O3 0.748980 0.422452 0.019416
O O4 0.648004 0.500000 0.000000
O O5 0.311846 0.776575 0.250000
O O6 0.250000 0.750000 0.500000
O O7 0.416654 0.754134 0.468271
O O8 0.326255 0.834984 0.482563
O O9 0.000000 0.212600 0.250000
O O10 0.000000 0.170575 0.000438
O O11 0.000000 0.129500 0.750000
O O12 0.329894 0.110507 0.750000
O O13 0.416935 0.082770 0.520815
O O14 0.500000 0.954465 0.250000
O O15 0.500000 0.000000 0.000000
#
# Coordination Sequence:
#
# PCOD8257560 Si02
#       6
#    16  16   8   8  16   8
#     4  10  20  34  52  75 101 133 170 209 253 303
#     4  10  20  36  56  79 107 140 177 217 260 312
#     4  10  21  35  55  82 108 136 176 222 263 303
#     4  10  21  36  54  75 103 138 173 209 258 314
#     4   9  18  33  53  74 100 134 169 203 250 309
#     4  10  19  33  53  75  99 132 169 207 251 301
#
# _framework density 18.834755000000001
#
# number of rings (size 3 to 8) (size 9 to 14) (size 15 to 20)
#    0.000    2.222    0.000    3.000    0.000    6.222 
#    0.000    2.222    0.000    1.333    0.000    0.000 
#    0.000    0.000    0.000    0.000    0.000    0.000 
#
# Total GULP energy -446505.087742 kJ/mol
# GULP energy per Si atom -12402.919104 kJ/mol
# Density = 1.879189 g / cm^3
# Si number density = 18.834755 Si / 1000 Ang^3
#
#
#
# Elastic Constant Matrix: (Units=GPa)
#
#
# Indices 1 2 3 4 5 6 
#
# 1 146.5567 50.4182 30.6659 0.0000 0.0000 0.0000
# 2 50.4182 146.5206 37.8126 0.0000 0.0000 0.0000
# 3 30.6659 37.8126 25.7298 0.0000 0.0000 0.0000
# 4 0.0000 0.0000 0.0000 28.3121 0.0000 0.0000
# 5 0.0000 0.0000 0.0000 0.0000 187.8488 0.0000
# 6 0.0000 0.0000 0.0000 0.0000 0.0000 40.0872
#
#
#
# Elastic Compliance Matrix: (Units=1/GPa)
#
#
# Indices 1 2 3 4 5 6 
#
# 1 0.009116 -0.000536 -0.010077 0.000000 0.000000 0.000000
# 2 -0.000536 0.011026 -0.015565 0.000000 0.000000 0.000000
# 3 -0.010077 -0.015565 0.073750 0.000000 0.000000 0.000000
# 4 0.000000 0.000000 0.000000 0.035321 0.000000 0.000000
# 5 0.000000 0.000000 0.000000 0.000000 0.005323 0.000000
# 6 0.000000 0.000000 0.000000 0.000000 0.000000 0.024946
#
#
# Mechanical properties :
#
#
# Convention : Reuss Voigt Hill
#
# Bulk Modulus (GPa) = 24.07557 61.84451 42.96004
# Shear Modulus (GPa) = 22.15475 64.57698 43.36586
#
# Velocity S-wave (km/s) = 3.43340 5.86178 4.80358
# Velocity P-wave (km/s) = 5.34115 8.87246 7.32286
#
# Compressibility (1/GPa) = 0.04153588
#
# Stress axis : x y z
#
# Youngs Moduli (GPa) = 109.69288 90.69073 13.55927
#
# Poissons Ratio (x) = 0.04865 0.13664
# Poissons Ratio (y) = 0.05884 0.21105
# Poissons Ratio (z) = 1.10537 1.41162
#
# Static dielectric constant tensor:
#      x y z
#    x 3.903200 0.000000 0.000000 
#    y 0.000000 3.594550 0.000000 
#    z 0.000000 0.000000 3.094300 
# 
# 
# High freq. dielectric constant tensor:
#      x y z
#    x 1.754790 0.000000 0.000000 
#    y 0.000000 1.750030 0.000000 
#    z 0.000000 0.000000 1.696690 
# 
# From -- ./inp_files/4732.got.cif
#   From: 2010.03.12/outbox.cif.g09.slc.cpg/sg63_3_cif.got.tgz:4732.got - 2010.04.10 19:34:48.
