data_PCOD8257260
_publ_section_title
;
Structure prediction by ZEFSAII (Michael W. Deem and Ramdas Pophale) SiO2 
 PCOD8257260
Probable space group: C M C M
;
_chemical_formula_sum "Si O2"
_cell_formula_units_Z 80
_cell_length_a 7.758077
_cell_length_b 20.456027
_cell_length_c 27.737257
_cell_angle_alpha 90.000000
_cell_angle_beta 90.000000
_cell_angle_gamma 90.000000
_cell_volume 4401.886947
_symmetry_space_group_name_H-M "C M C M"
_symmetry_group_IT_number 63
_symmetry_cell_setting 'orthorhombic'
loop_
_space_group_symop_operation_xyz
x,y,z
-x,-y,1/2+z
x,-y,-z
-x,y,1/2-z
-x,-y,-z
x,y,1/2-z
-x,y,z
x,-y,1/2+z
1/2+x,1/2+y,z
1/2-x,1/2-y,1/2+z
1/2+x,1/2-y,-z
1/2-x,1/2+y,1/2-z
1/2-x,1/2-y,-z
1/2+x,1/2+y,1/2-z
1/2-x,1/2+y,z
1/2+x,1/2-y,1/2+z
loop_
_atom_site_type_symbol
_atom_site_label
_atom_site_fract_x
_atom_site_fract_y
_atom_site_fract_z
Si Si1 0.500000 0.262371 0.303251
Si Si2 0.000000 0.607323 0.304125
Si Si3 0.802501 0.437659 0.971742
Si Si4 0.297095 0.686791 0.970008
Si Si5 0.307239 0.611175 0.128110
Si Si6 0.194163 0.737695 0.629760
O O1 0.500000 0.293308 0.250000
O O2 0.500000 0.184742 0.300069
O O3 0.327647 0.286991 0.329916
O O4 0.828959 0.583849 0.332759
O O5 0.000000 0.577002 0.250000
O O6 0.701130 0.428240 0.921836
O O7 0.000000 0.450286 0.957991
O O8 0.724601 0.500000 0.000000
O O9 0.789643 0.375299 0.005849
O O10 0.500000 0.677090 0.967437
O O11 0.218705 0.693240 0.916958
O O12 0.250000 0.750000 0.000000
O O13 0.500000 0.603117 0.149559
O O14 0.266951 0.686938 0.116098
O O15 0.000000 0.729483 0.649734
#
# Coordination Sequence:
#
# PCOD8257260 Si02
#       6
#     8   8  16  16  16  16
#     4   9  18  32  50  75 108 142 176 226 283 323
#     4   9  18  32  51  75 107 140 179 228 276 325
#     4  11  23  37  53  78 115 150 184 225 279 333
#     4  12  22  33  53  80 110 148 187 224 264 327
#     4  10  19  32  52  76 108 145 178 222 272 325
#     4  10  19  32  50  78 109 140 183 224 265 325
#
# _framework density 18.174025
#
# number of rings (size 3 to 8) (size 9 to 14) (size 15 to 20)
#    0.000    1.600    4.000    2.400    0.000    2.400 
#    0.000    4.000    0.000    0.000    0.000    1.400 
#    0.000    0.000    0.000    0.000    0.000    0.000 
#
# Total GULP energy -496052.295591 kJ/mol
# GULP energy per Si atom -12401.307390 kJ/mol
# Density = 1.813266 g / cm^3
# Si number density = 18.174025 Si / 1000 Ang^3
#
#
#
# Elastic Constant Matrix: (Units=GPa)
#
#
# Indices 1 2 3 4 5 6 
#
# 1 117.8800 4.0153 56.3100 0.0000 0.0000 0.0000
# 2 4.0153 59.1939 31.7406 0.0000 0.0000 0.0000
# 3 56.3100 31.7406 151.2471 0.0000 0.0000 0.0000
# 4 0.0000 0.0000 0.0000 14.7172 0.0000 0.0000
# 5 0.0000 0.0000 0.0000 0.0000 26.2332 0.0000
# 6 0.0000 0.0000 0.0000 0.0000 0.0000 15.3629
#
#
#
# Elastic Compliance Matrix: (Units=1/GPa)
#
#
# Indices 1 2 3 4 5 6 
#
# 1 0.010443 0.001551 -0.004214 0.000000 0.000000 0.000000
# 2 0.001551 0.019266 -0.004621 0.000000 0.000000 0.000000
# 3 -0.004214 -0.004621 0.009150 0.000000 0.000000 0.000000
# 4 0.000000 0.000000 0.000000 0.067948 0.000000 0.000000
# 5 0.000000 0.000000 0.000000 0.000000 0.038120 0.000000
# 6 0.000000 0.000000 0.000000 0.000000 0.000000 0.065092
#
#
# Mechanical properties :
#
#
# Convention : Reuss Voigt Hill
#
# Bulk Modulus (GPa) = 41.16418 56.93923 49.05170
# Shear Modulus (GPa) = 21.48853 27.01301 24.25077
#
# Velocity S-wave (km/s) = 3.44230 3.85951 3.65686
# Velocity P-wave (km/s) = 6.20471 7.15954 6.69916
#
# Compressibility (1/GPa) = 0.02429296
#
# Stress axis : x y z
#
# Youngs Moduli (GPa) = 95.75685 51.90478 109.28866
#
# Poissons Ratio (x) = -0.08050 0.46049
# Poissons Ratio (y) = -0.14851 0.50498
# Poissons Ratio (z) = 0.40347 0.23983
#
# Static dielectric constant tensor:
#      x y z
#    x 3.563730 0.000000 0.000000 
#    y 0.000000 3.007680 0.000000 
#    z 0.000000 0.000000 3.439590 
# 
# 
# High freq. dielectric constant tensor:
#      x y z
#    x 1.725120 0.000000 0.000000 
#    y 0.000000 1.651310 0.000000 
#    z 0.000000 0.000000 1.698940 
# 
# From -- ./inp_files/66835.got.cif
#   From: 2010.03.12/outbox.cif.g09.slc.cpg/sg63_34_cif.got.tgz:66835.got - 2010.04.10 19:34:48.
