data_PCOD8257470
_publ_section_title
;
Structure prediction by ZEFSAII (Michael W. Deem and Ramdas Pophale) SiO2 
 PCOD8257470
Probable space group: C M C M
;
_chemical_formula_sum "Si O2"
_cell_formula_units_Z 80
_cell_length_a 8.998432
_cell_length_b 28.716913
_cell_length_c 15.492551
_cell_angle_alpha 90.000000
_cell_angle_beta 90.000000
_cell_angle_gamma 90.000000
_cell_volume 4003.386552
_symmetry_space_group_name_H-M "C M C M"
_symmetry_group_IT_number 63
_symmetry_cell_setting 'orthorhombic'
loop_
_space_group_symop_operation_xyz
x,y,z
-x,-y,1/2+z
x,-y,-z
-x,y,1/2-z
-x,-y,-z
x,y,1/2-z
-x,y,z
x,-y,1/2+z
1/2+x,1/2+y,z
1/2-x,1/2-y,1/2+z
1/2+x,1/2-y,-z
1/2-x,1/2+y,1/2-z
1/2-x,1/2-y,-z
1/2+x,1/2+y,1/2-z
1/2-x,1/2+y,z
1/2+x,1/2-y,1/2+z
loop_
_atom_site_type_symbol
_atom_site_label
_atom_site_fract_x
_atom_site_fract_y
_atom_site_fract_z
Si Si1 0.175053 0.946726 0.997486
Si Si2 0.331185 0.200034 0.580502
Si Si3 0.329338 0.109396 0.346838
Si Si4 0.171589 0.803022 0.595996
Si Si5 0.829885 0.602827 0.846541
O O1 0.225801 0.922601 0.085484
O O2 0.000000 0.941931 0.990033
O O3 0.243484 0.923138 0.913225
O O4 0.227345 0.000000 0.000000
O O5 0.500000 0.200852 0.543527
O O6 0.216955 0.190900 0.503498
O O7 0.297707 0.249762 0.626022
O O8 0.310525 0.158711 0.648844
O O9 0.311972 0.089131 0.250000
O O10 0.500000 0.110863 0.375801
O O11 0.266669 0.161906 0.346130
O O12 0.000000 0.816690 0.606009
O O13 0.784294 0.587298 0.750000
O O14 0.000000 0.588953 0.866154
#
# Coordination Sequence:
#
# PCOD8257470 Si02
#       5
#    16  16  16  16  16
#     4  11  25  44  65  89 117 150 193 249 309 363
#     4   9  18  33  55  85 123 163 200 239 287 347
#     4  11  24  41  62  89 121 158 202 248 295 353
#     4  10  19  32  56  88 122 160 201 243 290 345
#     4  10  21  38  62  91 122 158 199 240 288 352
#
# _framework density 19.983080999999999
#
# number of rings (size 3 to 8) (size 9 to 14) (size 15 to 20)
#    0.000    1.800    2.000    1.800    0.000    6.000 
#    0.000    6.000    0.000    0.000    0.000    0.000 
#    0.000    0.000    0.000    0.000    0.000    0.000 
#
# Total GULP energy -496014.698530 kJ/mol
# GULP energy per Si atom -12400.367463 kJ/mol
# Density = 1.993760 g / cm^3
# Si number density = 19.983081 Si / 1000 Ang^3
#
#
#
# Elastic Constant Matrix: (Units=GPa)
#
#
# Indices 1 2 3 4 5 6 
#
# 1 84.7136 52.7340 42.3568 0.0000 0.0000 0.0000
# 2 52.7340 129.0105 56.6643 0.0000 0.0000 0.0000
# 3 42.3568 56.6643 106.1151 0.0000 0.0000 0.0000
# 4 0.0000 0.0000 0.0000 7.0109 0.0000 0.0000
# 5 0.0000 0.0000 0.0000 0.0000 19.3538 0.0000
# 6 0.0000 0.0000 0.0000 0.0000 0.0000 29.2518
#
#
#
# Elastic Compliance Matrix: (Units=1/GPa)
#
#
# Indices 1 2 3 4 5 6 
#
# 1 0.017058 -0.005202 -0.004031 0.000000 0.000000 0.000000
# 2 -0.005202 0.011713 -0.004178 0.000000 0.000000 0.000000
# 3 -0.004031 -0.004178 0.013264 0.000000 0.000000 0.000000
# 4 0.000000 0.000000 0.000000 0.142636 0.000000 0.000000
# 5 0.000000 0.000000 0.000000 0.000000 0.051669 0.000000
# 6 0.000000 0.000000 0.000000 0.000000 0.000000 0.034186
#
#
# Mechanical properties :
#
#
# Convention : Reuss Voigt Hill
#
# Bulk Modulus (GPa) = 65.73588 69.26104 67.49846
# Shear Modulus (GPa) = 16.53333 22.32891 19.43112
#
# Velocity S-wave (km/s) = 2.87952 3.34637 3.12168
# Velocity P-wave (km/s) = 6.63496 7.04741 6.84429
#
# Compressibility (1/GPa) = 0.01521239
#
# Stress axis : x y z
#
# Youngs Moduli (GPa) = 58.62218 85.37652 75.39324
#
# Poissons Ratio (x) = 0.44415 0.30392
# Poissons Ratio (y) = 0.30496 0.31499
# Poissons Ratio (z) = 0.23631 0.35670
#
# Static dielectric constant tensor:
#      x y z
#    x 3.681180 0.000000 0.000000 
#    y 0.000000 3.840300 0.000000 
#    z 0.000000 0.000000 3.412780 
# 
# 
# High freq. dielectric constant tensor:
#      x y z
#    x 1.783460 0.000000 0.000000 
#    y 0.000000 1.784440 0.000000 
#    z 0.000000 0.000000 1.768370 
# 
# From -- ./inp_files/40705.got.cif
#   From: 2010.03.12/outbox.cif.g09.slc.cpg/sg63_21_cif.got.tgz:40705.got - 2010.04.10 19:34:48.
