data_PCOD8257904
_publ_section_title
;
Structure prediction by ZEFSAII (Michael W. Deem and Ramdas Pophale) SiO2 
 PCOD8257904
Probable space group: C M C M
;
_chemical_formula_sum "Si O2"
_cell_formula_units_Z 96
_cell_length_a 16.217482
_cell_length_b 12.615335
_cell_length_c 23.540338
_cell_angle_alpha 90.000000
_cell_angle_beta 90.000000
_cell_angle_gamma 90.000000
_cell_volume 4816.093465
_symmetry_space_group_name_H-M "C M C M"
_symmetry_group_IT_number 63
_symmetry_cell_setting 'orthorhombic'
loop_
_space_group_symop_operation_xyz
x,y,z
-x,-y,1/2+z
x,-y,-z
-x,y,1/2-z
-x,-y,-z
x,y,1/2-z
-x,y,z
x,-y,1/2+z
1/2+x,1/2+y,z
1/2-x,1/2-y,1/2+z
1/2+x,1/2-y,-z
1/2-x,1/2+y,1/2-z
1/2-x,1/2-y,-z
1/2+x,1/2+y,1/2-z
1/2-x,1/2+y,z
1/2+x,1/2-y,1/2+z
loop_
_atom_site_type_symbol
_atom_site_label
_atom_site_fract_x
_atom_site_fract_y
_atom_site_fract_z
Si Si1 0.597524 0.617880 0.995484
Si Si2 0.667348 0.892834 0.684537
Si Si3 0.648198 0.530497 0.315567
Si Si4 0.092629 0.209426 0.108961
Si Si5 0.403727 0.110972 0.812970
Si Si6 0.402002 0.315161 0.369888
O O1 0.500000 0.610066 0.004441
O O2 0.635213 0.687641 0.047655
O O3 0.635656 0.500000 0.000000
O O4 0.620199 0.670039 0.935844
O O5 0.651740 0.863560 0.750000
O O6 0.760537 0.926646 0.672783
O O7 0.640839 0.794016 0.646943
O O8 0.611194 0.992098 0.665431
O O9 0.623146 0.542781 0.250000
O O10 0.588535 0.601870 0.353965
O O11 0.638647 0.408412 0.333080
O O12 0.138290 0.303830 0.144013
O O13 0.000000 0.247813 0.097490
O O14 0.363159 0.125301 0.750000
O O15 0.500000 0.134209 0.808478
O O16 0.500000 0.311721 0.359061
#
# Coordination Sequence:
#
# PCOD8257904 Si02
#       6
#    16  16  16  16  16  16
#     4   9  17  34  58  84 113 149 191 243 301 339
#     4  10  23  39  56  82 121 157 185 233 301 353
#     4  11  23  35  55  85 118 151 187 239 296 348
#     4  10  19  34  58  84 111 147 193 240 286 345
#     4   9  18  34  57  81 109 149 192 234 286 352
#     4  11  22  39  65  89 113 153 205 246 283 347
#
# _framework density 19.933167999999998
#
# number of rings (size 3 to 8) (size 9 to 14) (size 15 to 20)
#    0.000    2.000    1.667    2.000    2.333    3.667 
#    0.000    1.667    3.667    4.000    0.000    0.000 
#    0.000    0.000    0.000    0.000    0.000    0.000 
#
# Total GULP energy -595105.610432 kJ/mol
# GULP energy per Si atom -12398.033551 kJ/mol
# Density = 1.988780 g / cm^3
# Si number density = 19.933168 Si / 1000 Ang^3
#
#
#
# Elastic Constant Matrix: (Units=GPa)
#
#
# Indices 1 2 3 4 5 6 
#
# 1 38.2177 26.3632 30.4498 0.0000 0.0000 0.0000
# 2 26.3632 155.9848 78.9218 0.0000 0.0000 0.0000
# 3 30.4498 78.9218 148.4518 0.0000 0.0000 0.0000
# 4 0.0000 0.0000 0.0000 33.7523 0.0000 0.0000
# 5 0.0000 0.0000 0.0000 0.0000 16.1778 0.0000
# 6 0.0000 0.0000 0.0000 0.0000 0.0000 21.8407
#
#
#
# Elastic Compliance Matrix: (Units=1/GPa)
#
#
# Indices 1 2 3 4 5 6 
#
# 1 0.032192 -0.002873 -0.005076 0.000000 0.000000 0.000000
# 2 -0.002873 0.009026 -0.004209 0.000000 0.000000 0.000000
# 3 -0.005076 -0.004209 0.010015 0.000000 0.000000 0.000000
# 4 0.000000 0.000000 0.000000 0.029628 0.000000 0.000000
# 5 0.000000 0.000000 0.000000 0.000000 0.061813 0.000000
# 6 0.000000 0.000000 0.000000 0.000000 0.000000 0.045786
#
#
# Mechanical properties :
#
#
# Convention : Reuss Voigt Hill
#
# Bulk Modulus (GPa) = 37.15084 68.23602 52.69343
# Shear Modulus (GPa) = 22.54813 28.14879 25.34846
#
# Velocity S-wave (km/s) = 3.36696 3.76195 3.56992
# Velocity P-wave (km/s) = 5.81321 7.29221 6.59431
#
# Compressibility (1/GPa) = 0.02691729
#
# Stress axis : x y z
#
# Youngs Moduli (GPa) = 31.06401 110.78914 99.84844
#
# Poissons Ratio (x) = 0.31825 0.50682
# Poissons Ratio (y) = 0.08923 0.42030
# Poissons Ratio (z) = 0.15768 0.46635
#
# Static dielectric constant tensor:
#      x y z
#    x 3.288000 0.000000 0.000000 
#    y 0.000000 3.685690 0.000000 
#    z 0.000000 0.000000 3.887800 
# 
# 
# High freq. dielectric constant tensor:
#      x y z
#    x 1.746860 0.000000 0.000000 
#    y 0.000000 1.784420 0.000000 
#    z 0.000000 0.000000 1.781420 
# 
# From -- ./inp_files/56525.got.cif
#   From: 2010.03.12/outbox.cif.g09.slc.cpg/sg63_29_cif.got.tgz:56525.got - 2010.04.10 19:34:48.
