data_PCOD8257665
_publ_section_title
;
Structure prediction by ZEFSAII (Michael W. Deem and Ramdas Pophale) SiO2 
 PCOD8257665
Probable space group: C M C M
;
_chemical_formula_sum "Si O2"
_cell_formula_units_Z 80
_cell_length_a 25.377520
_cell_length_b 18.567032
_cell_length_c 8.996802
_cell_angle_alpha 90.000000
_cell_angle_beta 90.000000
_cell_angle_gamma 90.000000
_cell_volume 4239.160183
_symmetry_space_group_name_H-M "C M C M"
_symmetry_group_IT_number 63
_symmetry_cell_setting 'orthorhombic'
loop_
_space_group_symop_operation_xyz
x,y,z
-x,-y,1/2+z
x,-y,-z
-x,y,1/2-z
-x,-y,-z
x,y,1/2-z
-x,y,z
x,-y,1/2+z
1/2+x,1/2+y,z
1/2-x,1/2-y,1/2+z
1/2+x,1/2-y,-z
1/2-x,1/2+y,1/2-z
1/2-x,1/2-y,-z
1/2+x,1/2+y,1/2-z
1/2-x,1/2+y,z
1/2+x,1/2-y,1/2+z
loop_
_atom_site_type_symbol
_atom_site_label
_atom_site_fract_x
_atom_site_fract_y
_atom_site_fract_z
Si Si1 0.500000 0.576991 0.075250
Si Si2 0.692463 0.073405 0.576140
Si Si3 0.687391 0.425306 0.074772
Si Si4 0.898558 0.167505 0.073682
Si Si5 0.000000 0.577674 0.927181
Si Si6 0.098364 0.670125 0.574136
O O1 0.500000 0.565295 0.250000
O O2 0.448808 0.621056 0.024036
O O3 0.500000 0.500000 0.000000
O O4 0.686438 0.060690 0.750000
O O5 0.752279 0.093350 0.533642
O O6 0.654179 0.137149 0.520465
O O7 0.674117 0.000000 0.500000
O O8 0.678362 0.432041 0.250000
O O9 0.669775 0.500000 0.000000
O O10 0.653048 0.361486 0.007834
O O11 0.889702 0.164633 0.250000
O O12 0.907194 0.248617 0.014782
O O13 0.949178 0.621195 0.986215
O O14 0.000000 0.569413 0.750000
O O15 0.000000 0.500000 0.000000
O O16 0.095158 0.672065 0.750000
#
# Coordination Sequence:
#
# PCOD8257665 Si02
#       6
#     8  16  16  16   8  16
#     4  10  21  35  53  75  97 126 164 204 246 296
#     4   9  18  33  52  74 102 135 170 207 247 294
#     4  10  20  34  52  75 102 133 170 209 249 295
#     4  10  20  35  54  75 101 133 168 206 252 304
#     4  10  19  33  55  79 103 134 173 212 250 298
#     4   9  18  33  53  76 103 135 168 205 252 303
#
# _framework density 18.871662000000001
#
# number of rings (size 3 to 8) (size 9 to 14) (size 15 to 20)
#    0.000    2.400    0.000    2.400    0.000    6.400 
#    0.000    2.000    0.000    1.200    0.000    0.000 
#    0.000    0.000    0.000    0.000    0.000    0.000 
#
# Total GULP energy -496066.275560 kJ/mol
# GULP energy per Si atom -12401.656889 kJ/mol
# Density = 1.882871 g / cm^3
# Si number density = 18.871662 Si / 1000 Ang^3
#
#
#
# Elastic Constant Matrix: (Units=GPa)
#
#
# Indices 1 2 3 4 5 6 
#
# 1 133.1211 97.6135 32.6851 0.0000 0.0000 0.0000
# 2 97.6135 189.9708 38.5157 0.0000 0.0000 0.0000
# 3 32.6851 38.5157 33.9944 0.0000 0.0000 0.0000
# 4 0.0000 0.0000 0.0000 29.4780 0.0000 0.0000
# 5 0.0000 0.0000 0.0000 0.0000 21.1336 0.0000
# 6 0.0000 0.0000 0.0000 0.0000 0.0000 35.6566
#
#
#
# Elastic Compliance Matrix: (Units=1/GPa)
#
#
# Indices 1 2 3 4 5 6 
#
# 1 0.013052 -0.005404 -0.006427 0.000000 0.000000 0.000000
# 2 -0.005404 0.009071 -0.005082 0.000000 0.000000 0.000000
# 3 -0.006427 -0.005082 0.041354 0.000000 0.000000 0.000000
# 4 0.000000 0.000000 0.000000 0.033924 0.000000 0.000000
# 5 0.000000 0.000000 0.000000 0.000000 0.047318 0.000000
# 6 0.000000 0.000000 0.000000 0.000000 0.000000 0.028045
#
#
# Mechanical properties :
#
#
# Convention : Reuss Voigt Hill
#
# Bulk Modulus (GPa) = 33.72476 77.19056 55.45766
# Shear Modulus (GPa) = 23.09749 29.80509 26.45129
#
# Velocity S-wave (km/s) = 3.50226 3.97842 3.74791
# Velocity P-wave (km/s) = 5.85353 7.88007 6.94116
#
# Compressibility (1/GPa) = 0.02965181
#
# Stress axis : x y z
#
# Youngs Moduli (GPa) = 76.61433 110.24326 24.18142
#
# Poissons Ratio (x) = 0.59572 0.15542
# Poissons Ratio (y) = 0.41400 0.12288
# Poissons Ratio (z) = 0.49243 0.56023
#
# Static dielectric constant tensor:
#      x y z
#    x 3.699100 0.000000 0.000000 
#    y 0.000000 3.610770 0.000000 
#    z 0.000000 0.000000 3.195180 
# 
# 
# High freq. dielectric constant tensor:
#      x y z
#    x 1.748510 0.000000 0.000000 
#    y 0.000000 1.739260 0.000000 
#    z 0.000000 0.000000 1.705820 
# 
# From -- ./inp_files/12092.got.cif
#   From: 2010.03.12/outbox.cif.g09.slc.cpg/sg63_7_cif.got.tgz:12092.got - 2010.04.10 19:34:48.
