data_PCOD8257509
_publ_section_title
;
Structure prediction by ZEFSAII (Michael W. Deem and Ramdas Pophale) SiO2 
 PCOD8257509
Probable space group: C M C M
;
_chemical_formula_sum "Si O2"
_cell_formula_units_Z 112
_cell_length_a 23.371207
_cell_length_b 13.663319
_cell_length_c 18.361616
_cell_angle_alpha 90.000000
_cell_angle_beta 90.000000
_cell_angle_gamma 90.000000
_cell_volume 5863.382827
_symmetry_space_group_name_H-M "C M C M"
_symmetry_group_IT_number 63
_symmetry_cell_setting 'orthorhombic'
loop_
_space_group_symop_operation_xyz
x,y,z
-x,-y,1/2+z
x,-y,-z
-x,y,1/2-z
-x,-y,-z
x,y,1/2-z
-x,y,z
x,-y,1/2+z
1/2+x,1/2+y,z
1/2-x,1/2-y,1/2+z
1/2+x,1/2-y,-z
1/2-x,1/2+y,1/2-z
1/2-x,1/2-y,-z
1/2+x,1/2+y,1/2-z
1/2-x,1/2+y,z
1/2+x,1/2-y,1/2+z
loop_
_atom_site_type_symbol
_atom_site_label
_atom_site_fract_x
_atom_site_fract_y
_atom_site_fract_z
Si Si1 0.434963 0.220823 0.566116
Si Si2 0.248566 0.944955 0.665749
Si Si3 0.661683 0.222663 0.331943
Si Si4 0.679294 0.320184 0.562241
Si Si5 0.067424 0.446832 0.169429
Si Si6 0.740779 0.641251 0.917231
Si Si7 0.564488 0.137083 0.412763
O O1 0.500000 0.263240 0.572487
O O2 0.389742 0.309559 0.557085
O O3 0.416588 0.159129 0.637224
O O4 0.432321 0.143275 0.499792
O O5 0.235100 0.970831 0.750000
O O6 0.304584 0.878758 0.658797
O O7 0.194513 0.885441 0.632710
O O8 0.262292 0.039831 0.616910
O O9 0.642563 0.241084 0.250000
O O10 0.700328 0.312209 0.356545
O O11 0.604506 0.221790 0.380165
O O12 0.704937 0.374763 0.491457
O O13 0.704820 0.210214 0.566667
O O14 0.095713 0.457673 0.250000
O O15 0.088460 0.533333 0.116301
O O16 0.000000 0.454062 0.176241
O O17 0.500000 0.155680 0.385220
#
# Coordination Sequence:
#
# PCOD8257509 Si02
#       7
#    16  16  16  16  16  16  16
#     4  10  20  35  55  80 111 147 187 229 275 325
#     4  10  22  38  58  83 110 143 183 232 283 327
#     4  10  20  34  54  84 113 144 186 224 273 332
#     4  10  21  37  58  84 109 144 188 224 273 333
#     4   9  18  31  47  73 109 148 184 217 262 320
#     4  10  20  38  57  80 111 145 181 232 274 326
#     4  10  19  33  51  76 114 150 183 222 267 324
#
# _framework density 19.101600999999999
#
# number of rings (size 3 to 8) (size 9 to 14) (size 15 to 20)
#    0.000    2.143    1.429    1.714    2.000    3.714 
#    0.000    0.000    0.000    2.571    0.000    0.000 
#    0.000    0.000    0.000    0.000    0.000    0.000 
#
# Total GULP energy -694289.447932 kJ/mol
# GULP energy per Si atom -12398.025856 kJ/mol
# Density = 1.905812 g / cm^3
# Si number density = 19.101601 Si / 1000 Ang^3
#
#
#
# Elastic Constant Matrix: (Units=GPa)
#
#
# Indices 1 2 3 4 5 6 
#
# 1 74.7721 7.9682 21.8874 0.0000 0.0000 0.0000
# 2 7.9682 41.4877 22.4167 0.0000 0.0000 0.0000
# 3 21.8874 22.4167 98.8685 0.0000 0.0000 0.0000
# 4 0.0000 0.0000 0.0000 31.3488 0.0000 0.0000
# 5 0.0000 0.0000 0.0000 0.0000 23.7152 0.0000
# 6 0.0000 0.0000 0.0000 0.0000 0.0000 18.6955
#
#
#
# Elastic Compliance Matrix: (Units=1/GPa)
#
#
# Indices 1 2 3 4 5 6 
#
# 1 0.014352 -0.001185 -0.002908 0.000000 0.000000 0.000000
# 2 -0.001185 0.027566 -0.005988 0.000000 0.000000 0.000000
# 3 -0.002908 -0.005988 0.012116 0.000000 0.000000 0.000000
# 4 0.000000 0.000000 0.000000 0.031899 0.000000 0.000000
# 5 0.000000 0.000000 0.000000 0.000000 0.042167 0.000000
# 6 0.000000 0.000000 0.000000 0.000000 0.000000 0.053489
#
#
# Mechanical properties :
#
#
# Convention : Reuss Voigt Hill
#
# Bulk Modulus (GPa) = 29.52332 35.51921 32.52126
# Shear Modulus (GPa) = 23.46953 25.60897 24.53925
#
# Velocity S-wave (km/s) = 3.50904 3.66549 3.58812
# Velocity P-wave (km/s) = 5.64865 6.04563 5.85051
#
# Compressibility (1/GPa) = 0.03387153
#
# Stress axis : x y z
#
# Youngs Moduli (GPa) = 69.67860 36.27592 82.53566
#
# Poissons Ratio (x) = 0.04298 0.24005
# Poissons Ratio (y) = 0.08256 0.49422
# Poissons Ratio (z) = 0.20266 0.21722
#
# Static dielectric constant tensor:
#      x y z
#    x 3.389560 0.000000 0.000000 
#    y 0.000000 3.159330 0.000000 
#    z 0.000000 0.000000 3.776260 
# 
# 
# High freq. dielectric constant tensor:
#      x y z
#    x 1.732910 0.000000 0.000000 
#    y 0.000000 1.706720 0.000000 
#    z 0.000000 0.000000 1.757590 
# 
# From -- ./inp_files/57569.got.cif
#   From: 2010.03.12/outbox.cif.g09.slc.cpg/sg63_29_cif.got.tgz:57569.got - 2010.04.10 19:34:48.
