data_PCOD8257338
_publ_section_title
;
Structure prediction by ZEFSAII (Michael W. Deem and Ramdas Pophale) SiO2 
 PCOD8257338
Probable space group: C M C M
;
_chemical_formula_sum "Si O2"
_cell_formula_units_Z 112
_cell_length_a 15.077491
_cell_length_b 24.123287
_cell_length_c 16.336327
_cell_angle_alpha 90.000000
_cell_angle_beta 90.000000
_cell_angle_gamma 90.000000
_cell_volume 5941.826682
_symmetry_space_group_name_H-M "C M C M"
_symmetry_group_IT_number 63
_symmetry_cell_setting 'orthorhombic'
loop_
_space_group_symop_operation_xyz
x,y,z
-x,-y,1/2+z
x,-y,-z
-x,y,1/2-z
-x,-y,-z
x,y,1/2-z
-x,y,z
x,-y,1/2+z
1/2+x,1/2+y,z
1/2-x,1/2-y,1/2+z
1/2+x,1/2-y,-z
1/2-x,1/2+y,1/2-z
1/2-x,1/2-y,-z
1/2+x,1/2+y,1/2-z
1/2-x,1/2+y,z
1/2+x,1/2-y,1/2+z
loop_
_atom_site_type_symbol
_atom_site_label
_atom_site_fract_x
_atom_site_fract_y
_atom_site_fract_z
Si Si1 0.826554 0.631338 0.544141
Si Si2 0.758175 0.214783 0.842151
Si Si3 0.399164 0.289255 0.617185
Si Si4 0.240267 0.541251 0.428571
Si Si5 0.097365 0.087215 0.155675
Si Si6 0.101829 0.465063 0.155655
Si Si7 0.401355 0.765646 0.546671
O O1 0.751836 0.659820 0.601961
O O2 0.783318 0.600519 0.467004
O O3 0.882135 0.588995 0.600132
O O4 0.889038 0.677459 0.503557
O O5 0.787254 0.198307 0.750000
O O6 0.664364 0.246156 0.836897
O O7 0.831133 0.256187 0.880997
O O8 0.500000 0.277166 0.645983
O O9 0.369143 0.350456 0.641445
O O10 0.389910 0.283776 0.519031
O O11 0.263648 0.500000 0.500000
O O12 0.330401 0.544818 0.377790
O O13 0.160695 0.517355 0.372880
O O14 0.088533 0.074385 0.250000
O O15 0.000000 0.078482 0.114274
O O16 0.123531 0.450566 0.250000
O O17 0.000000 0.483403 0.145142
O O18 0.500000 0.765512 0.584925
#
# Coordination Sequence:
#
# PCOD8257338 Si02
#       7
#    16  16  16  16  16  16  16
#     4  10  20  36  55  77 104 139 181 220 260 309
#     4  11  21  33  52  78 110 141 172 215 261 309
#     4   9  18  33  53  76 101 130 167 212 260 309
#     4  10  21  35  54  75 102 138 175 219 263 312
#     4  10  19  32  52  76 101 129 164 210 262 312
#     4  10  21  37  57  81 108 137 173 221 274 321
#     4  10  20  34  53  76 106 143 178 210 249 309
#
# _framework density 18.849422000000001
#
# number of rings (size 3 to 8) (size 9 to 14) (size 15 to 20)
#    0.000    2.000    0.000    5.143    0.000    5.143 
#    0.000    0.714    0.000    0.857    0.000    0.000 
#    0.000    0.000    0.000    0.000    0.000    0.000 
#
# Total GULP energy -694313.038369 kJ/mol
# GULP energy per Si atom -12398.447114 kJ/mol
# Density = 1.880652 g / cm^3
# Si number density = 18.849422 Si / 1000 Ang^3
#
#
#
# Elastic Constant Matrix: (Units=GPa)
#
#
# Indices 1 2 3 4 5 6 
#
# 1 113.0129 48.7601 54.9257 0.0000 0.0000 0.0000
# 2 48.7601 57.7186 32.5343 0.0000 0.0000 0.0000
# 3 54.9257 32.5343 91.9855 0.0000 0.0000 0.0000
# 4 0.0000 0.0000 0.0000 21.1458 0.0000 0.0000
# 5 0.0000 0.0000 0.0000 0.0000 24.9395 0.0000
# 6 0.0000 0.0000 0.0000 0.0000 0.0000 18.6980
#
#
#
# Elastic Compliance Matrix: (Units=1/GPa)
#
#
# Indices 1 2 3 4 5 6 
#
# 1 0.016235 -0.010305 -0.006049 0.000000 0.000000 0.000000
# 2 -0.010305 0.028181 -0.003814 0.000000 0.000000 0.000000
# 3 -0.006049 -0.003814 0.015832 0.000000 0.000000 0.000000
# 4 0.000000 0.000000 0.000000 0.047291 0.000000 0.000000
# 5 0.000000 0.000000 0.000000 0.000000 0.040097 0.000000
# 6 0.000000 0.000000 0.000000 0.000000 0.000000 0.053482
#
#
# Mechanical properties :
#
#
# Convention : Reuss Voigt Hill
#
# Bulk Modulus (GPa) = 50.22246 59.46190 54.84218
# Shear Modulus (GPa) = 20.15386 21.38977 20.77181
#
# Velocity S-wave (km/s) = 3.27341 3.37229 3.32322
# Velocity P-wave (km/s) = 6.40225 6.83940 6.62443
#
# Compressibility (1/GPa) = 0.01991141
#
# Stress axis : x y z
#
# Youngs Moduli (GPa) = 61.59615 35.48482 63.16224
#
# Poissons Ratio (x) = 0.36568 0.38208
# Poissons Ratio (y) = 0.63477 0.24090
# Poissons Ratio (z) = 0.37260 0.13534
#
# Static dielectric constant tensor:
#      x y z
#    x 3.509170 0.000000 0.000000 
#    y 0.000000 3.445340 0.000000 
#    z 0.000000 0.000000 3.552270 
# 
# 
# High freq. dielectric constant tensor:
#      x y z
#    x 1.732450 0.000000 0.000000 
#    y 0.000000 1.720810 0.000000 
#    z 0.000000 0.000000 1.731720 
# 
# From -- ./inp_files/32327.got.cif
#   From: 2010.03.12/outbox.cif.g09.slc.cpg/sg63_17_cif.got.tgz:32327.got - 2010.04.10 19:34:48.
