data_PCOD8257757
_publ_section_title
;
Structure prediction by ZEFSAII (Michael W. Deem and Ramdas Pophale) SiO2 
 PCOD8257757
Probable space group: C M C M
;
_chemical_formula_sum "Si O2"
_cell_formula_units_Z 72
_cell_length_a 18.846553
_cell_length_b 14.699371
_cell_length_c 14.365463
_cell_angle_alpha 90.000000
_cell_angle_beta 90.000000
_cell_angle_gamma 90.000000
_cell_volume 3979.699764
_symmetry_space_group_name_H-M "C M C M"
_symmetry_group_IT_number 63
_symmetry_cell_setting 'orthorhombic'
loop_
_space_group_symop_operation_xyz
x,y,z
-x,-y,1/2+z
x,-y,-z
-x,y,1/2-z
-x,-y,-z
x,y,1/2-z
-x,y,z
x,-y,1/2+z
1/2+x,1/2+y,z
1/2-x,1/2-y,1/2+z
1/2+x,1/2-y,-z
1/2-x,1/2+y,1/2-z
1/2-x,1/2-y,-z
1/2+x,1/2+y,1/2-z
1/2-x,1/2+y,z
1/2+x,1/2-y,1/2+z
loop_
_atom_site_type_symbol
_atom_site_label
_atom_site_fract_x
_atom_site_fract_y
_atom_site_fract_z
Si Si1 0.173707 0.264118 0.042894
Si Si2 0.416582 0.007462 0.250000
Si Si3 0.084652 0.908956 0.948360
Si Si4 0.421211 0.620703 0.250000
Si Si5 0.921247 0.409332 0.557565
Si Si6 0.642246 0.195267 0.750000
O O1 0.125457 0.178246 0.012566
O O2 0.184269 0.282537 0.153841
O O3 0.250000 0.250000 0.000000
O O4 0.136028 0.348500 0.994039
O O5 0.500000 0.989168 0.250000
O O6 0.381349 0.908429 0.250000
O O7 0.393073 0.066071 0.339281
O O8 0.113769 0.920506 0.842662
O O9 0.000000 0.891819 0.954339
O O10 0.108181 0.000000 0.000000
O O11 0.500000 0.584216 0.250000
O O12 0.422070 0.731524 0.250000
O O13 0.929246 0.500000 0.500000
O O14 0.000000 0.363144 0.562525
#
# Coordination Sequence:
#
# PCOD8257757 Si02
#       6
#    16   8  16   8  16   8
#     4  11  23  37  57  81 117 152 190 231 286 345
#     4  10  19  33  59  91 120 148 186 236 292 347
#     4   9  18  35  57  80 106 140 186 232 272 318
#     4   8  15  28  53  82 105 130 176 232 271 313
#     4  10  20  35  58  88 117 147 186 236 289 340
#     4  10  19  35  54  81 108 150 192 230 275 340
#
# _framework density 18.091816999999999
#
# number of rings (size 3 to 8) (size 9 to 14) (size 15 to 20)
#    0.000    2.222    2.222    1.000    0.000    3.556 
#    0.000    2.222    0.000    4.000    0.000    0.000 
#    0.000    0.000    0.000    0.000    0.000    0.000 
#
# Total GULP energy -446012.415385 kJ/mol
# GULP energy per Si atom -12389.233761 kJ/mol
# Density = 1.805064 g / cm^3
# Si number density = 18.091817 Si / 1000 Ang^3
#
#
#
# Elastic Constant Matrix: (Units=GPa)
#
#
# Indices 1 2 3 4 5 6 
#
# 1 83.1352 48.5723 48.7813 0.0000 0.0000 0.0000
# 2 48.5723 102.8229 59.2031 0.0000 0.0000 0.0000
# 3 48.7813 59.2031 146.3186 0.0000 0.0000 0.0000
# 4 0.0000 0.0000 0.0000 31.7843 0.0000 0.0000
# 5 0.0000 0.0000 0.0000 0.0000 23.8633 0.0000
# 6 0.0000 0.0000 0.0000 0.0000 0.0000 12.9920
#
#
#
# Elastic Compliance Matrix: (Units=1/GPa)
#
#
# Indices 1 2 3 4 5 6 
#
# 1 0.017753 -0.006490 -0.003292 0.000000 0.000000 0.000000
# 2 -0.006490 0.015052 -0.003927 0.000000 0.000000 0.000000
# 3 -0.003292 -0.003927 0.009521 0.000000 0.000000 0.000000
# 4 0.000000 0.000000 0.000000 0.031462 0.000000 0.000000
# 5 0.000000 0.000000 0.000000 0.000000 0.041905 0.000000
# 6 0.000000 0.000000 0.000000 0.000000 0.000000 0.076971
#
#
# Mechanical properties :
#
#
# Convention : Reuss Voigt Hill
#
# Bulk Modulus (GPa) = 67.08310 71.71001 69.39655
# Shear Modulus (GPa) = 22.21714 25.44258 23.82986
#
# Velocity S-wave (km/s) = 3.50812 3.75414 3.63321
# Velocity P-wave (km/s) = 7.31908 7.64946 7.48609
#
# Compressibility (1/GPa) = 0.01490689
#
# Stress axis : x y z
#
# Youngs Moduli (GPa) = 56.32997 66.43511 105.03292
#
# Poissons Ratio (x) = 0.43119 0.34581
# Poissons Ratio (y) = 0.36560 0.41242
# Poissons Ratio (z) = 0.18546 0.26086
#
# Static dielectric constant tensor:
#      x y z
#    x 3.026010 0.000000 0.000000 
#    y 0.000000 3.294730 0.000000 
#    z 0.000000 0.000000 3.791330 
# 
# 
# High freq. dielectric constant tensor:
#      x y z
#    x 1.670260 0.000000 0.000000 
#    y 0.000000 1.695030 0.000000 
#    z 0.000000 0.000000 1.719550 
# 
# From -- ./inp_files/33712.got.cif
#   From: 2010.03.12/outbox.cif.g09.slc.cpg/sg63_17_cif.got.tgz:33712.got - 2010.04.10 19:34:48.
