data_PCOD8257813
_publ_section_title
;
Structure prediction by ZEFSAII (Michael W. Deem and Ramdas Pophale) SiO2 
 PCOD8257813
Probable space group: C M C M
;
_chemical_formula_sum "Si O2"
_cell_formula_units_Z 96
_cell_length_a 8.889620
_cell_length_b 23.494021
_cell_length_c 25.257765
_cell_angle_alpha 90.000000
_cell_angle_beta 90.000000
_cell_angle_gamma 90.000000
_cell_volume 5275.157947
_symmetry_space_group_name_H-M "C M C M"
_symmetry_group_IT_number 63
_symmetry_cell_setting 'orthorhombic'
loop_
_space_group_symop_operation_xyz
x,y,z
-x,-y,1/2+z
x,-y,-z
-x,y,1/2-z
-x,-y,-z
x,y,1/2-z
-x,y,z
x,-y,1/2+z
1/2+x,1/2+y,z
1/2-x,1/2-y,1/2+z
1/2+x,1/2-y,-z
1/2-x,1/2+y,1/2-z
1/2-x,1/2-y,-z
1/2+x,1/2+y,1/2-z
1/2-x,1/2+y,z
1/2+x,1/2-y,1/2+z
loop_
_atom_site_type_symbol
_atom_site_label
_atom_site_fract_x
_atom_site_fract_y
_atom_site_fract_z
Si Si1 0.321933 0.500239 0.060671
Si Si2 0.821110 0.386323 0.095309
Si Si3 0.678786 0.189572 0.691575
Si Si4 0.672462 0.682535 0.311658
Si Si5 0.675806 0.810780 0.997765
Si Si6 0.176077 0.613212 0.399078
O O1 0.500000 0.496539 0.062685
O O2 0.253501 0.447764 0.092841
O O3 0.267479 0.556209 0.090346
O O4 0.263309 0.500000 0.000000
O O5 0.761822 0.355322 0.148510
O O6 0.000000 0.393345 0.095117
O O7 0.763960 0.349542 0.045623
O O8 0.739699 0.172285 0.750000
O O9 0.500000 0.190299 0.692574
O O10 0.732126 0.253432 0.676981
O O11 0.686942 0.668055 0.250000
O O12 0.500000 0.676035 0.330568
O O13 0.776909 0.638228 0.342547
O O14 0.500000 0.801740 0.003679
O O15 0.720461 0.840629 0.943159
O O16 0.750000 0.750000 0.000000
O O17 0.000000 0.599001 0.400008
#
# Coordination Sequence:
#
# PCOD8257813 Si02
#       6
#    16  16  16  16  16  16
#     4  11  23  38  56  77 103 143 188 230 276 329
#     4  10  19  34  55  78 108 142 179 225 272 323
#     4   8  15  30  55  84 110 141 179 217 265 322
#     4   9  18  35  59  84 112 146 182 221 266 320
#     4  10  21  33  50  78 109 141 176 219 275 330
#     4  11  22  36  55  80 110 143 182 227 274 328
#
# _framework density 18.198508
#
# number of rings (size 3 to 8) (size 9 to 14) (size 15 to 20)
#    0.000    2.167    1.667    3.000    0.000    4.333 
#    0.000    1.667    0.000    4.500    0.000    0.000 
#    0.000    0.000    0.000    0.000    0.000    0.000 
#
# Total GULP energy -595295.870030 kJ/mol
# GULP energy per Si atom -12401.997292 kJ/mol
# Density = 1.815709 g / cm^3
# Si number density = 18.198508 Si / 1000 Ang^3
#
#
#
# Elastic Constant Matrix: (Units=GPa)
#
#
# Indices 1 2 3 4 5 6 
#
# 1 34.0996 28.7612 25.2215 0.0000 0.0000 0.0000
# 2 28.7612 119.2801 49.1013 0.0000 0.0000 0.0000
# 3 25.2215 49.1013 100.0157 0.0000 0.0000 0.0000
# 4 0.0000 0.0000 0.0000 28.1733 0.0000 0.0000
# 5 0.0000 0.0000 0.0000 0.0000 21.1065 0.0000
# 6 0.0000 0.0000 0.0000 0.0000 0.0000 31.6359
#
#
#
# Elastic Compliance Matrix: (Units=1/GPa)
#
#
# Indices 1 2 3 4 5 6 
#
# 1 0.040127 -0.006906 -0.006729 0.000000 0.000000 0.000000
# 2 -0.006906 0.011695 -0.004000 0.000000 0.000000 0.000000
# 3 -0.006729 -0.004000 0.013659 0.000000 0.000000 0.000000
# 4 0.000000 0.000000 0.000000 0.035495 0.000000 0.000000
# 5 0.000000 0.000000 0.000000 0.000000 0.047379 0.000000
# 6 0.000000 0.000000 0.000000 0.000000 0.000000 0.031610
#
#
# Mechanical properties :
#
#
# Convention : Reuss Voigt Hill
#
# Bulk Modulus (GPa) = 33.09909 51.06259 42.08084
# Shear Modulus (GPa) = 22.19209 26.20391 24.19800
#
# Velocity S-wave (km/s) = 3.49584 3.79871 3.65042
# Velocity P-wave (km/s) = 5.87553 6.88185 6.39850
#
# Compressibility (1/GPa) = 0.03021231
#
# Stress axis : x y z
#
# Youngs Moduli (GPa) = 24.92062 85.50323 73.21091
#
# Poissons Ratio (x) = 0.59046 0.49263
# Poissons Ratio (y) = 0.17209 0.29286
# Poissons Ratio (z) = 0.16769 0.34204
#
# Static dielectric constant tensor:
#      x y z
#    x 3.124580 0.000000 0.000000 
#    y 0.000000 3.115280 0.000000 
#    z 0.000000 0.000000 3.515730 
# 
# 
# High freq. dielectric constant tensor:
#      x y z
#    x 1.685700 0.000000 0.000000 
#    y 0.000000 1.708330 0.000000 
#    z 0.000000 0.000000 1.709080 
# 
# From -- ./inp_files/59873.got.cif
#   From: 2010.03.12/outbox.cif.g09.slc.cpg/sg63_30_cif.got.tgz:59873.got - 2010.04.10 19:34:48.
