data_PCOD8257894
_publ_section_title
;
Structure prediction by ZEFSAII (Michael W. Deem and Ramdas Pophale) SiO2 
 PCOD8257894
Probable space group: C M C M
;
_chemical_formula_sum "Si O2"
_cell_formula_units_Z 80
_cell_length_a 8.708369
_cell_length_b 25.189999
_cell_length_c 18.859268
_cell_angle_alpha 90.000000
_cell_angle_beta 90.000000
_cell_angle_gamma 90.000000
_cell_volume 4137.040814
_symmetry_space_group_name_H-M "C M C M"
_symmetry_group_IT_number 63
_symmetry_cell_setting 'orthorhombic'
loop_
_space_group_symop_operation_xyz
x,y,z
-x,-y,1/2+z
x,-y,-z
-x,y,1/2-z
-x,-y,-z
x,y,1/2-z
-x,y,z
x,-y,1/2+z
1/2+x,1/2+y,z
1/2-x,1/2-y,1/2+z
1/2+x,1/2-y,-z
1/2-x,1/2+y,1/2-z
1/2-x,1/2-y,-z
1/2+x,1/2+y,1/2-z
1/2-x,1/2+y,z
1/2+x,1/2-y,1/2+z
loop_
_atom_site_type_symbol
_atom_site_label
_atom_site_fract_x
_atom_site_fract_y
_atom_site_fract_z
Si Si1 0.682673 0.234515 0.670521
Si Si2 0.320521 0.934271 0.831427
Si Si3 0.319510 0.972139 0.430213
Si Si4 0.682562 0.853916 0.436437
Si Si5 0.819257 0.837504 0.912966
O O1 0.750585 0.230789 0.750000
O O2 0.500000 0.233970 0.673050
O O3 0.744897 0.184636 0.625318
O O4 0.740805 0.289001 0.635117
O O5 0.269884 0.932872 0.750000
O O6 0.500000 0.921526 0.841383
O O7 0.223675 0.892003 0.874859
O O8 0.281096 0.992790 0.861195
O O9 0.500000 0.966478 0.441611
O O10 0.250836 0.912989 0.421321
O O11 0.247567 0.000000 0.500000
O O12 0.500000 0.853686 0.437418
O O13 0.739413 0.832287 0.511398
O O14 0.000000 0.834968 0.924278
#
# Coordination Sequence:
#
# PCOD8257894 Si02
#       5
#    16  16  16  16  16
#     4   9  19  34  52  77 106 136 173 218 267 314
#     4  10  20  34  54  80 106 135 176 220 263 313
#     4   9  16  30  52  77 104 130 162 213 265 302
#     4  10  19  34  58  79 102 137 178 220 260 311
#     4  11  21  34  53  77 109 142 174 214 260 312
#
# _framework density 19.337492999999998
#
# number of rings (size 3 to 8) (size 9 to 14) (size 15 to 20)
#    0.000    2.200    2.000    1.800    0.000    2.000 
#    0.000    7.000    0.000    3.000    0.000    0.000 
#    0.000    0.000    0.000    0.000    0.000    0.000 
#
# Total GULP energy -496005.223779 kJ/mol
# GULP energy per Si atom -12400.130594 kJ/mol
# Density = 1.929348 g / cm^3
# Si number density = 19.337493 Si / 1000 Ang^3
#
#
#
# Elastic Constant Matrix: (Units=GPa)
#
#
# Indices 1 2 3 4 5 6 
#
# 1 10.9481 12.2664 8.2392 0.0000 0.0000 0.0000
# 2 12.2664 149.5054 77.3747 0.0000 0.0000 0.0000
# 3 8.2392 77.3747 153.8047 0.0000 0.0000 0.0000
# 4 0.0000 0.0000 0.0000 38.3521 0.0000 0.0000
# 5 0.0000 0.0000 0.0000 0.0000 20.3574 0.0000
# 6 0.0000 0.0000 0.0000 0.0000 0.0000 14.9701
#
#
#
# Elastic Compliance Matrix: (Units=1/GPa)
#
#
# Indices 1 2 3 4 5 6 
#
# 1 0.100906 -0.007411 -0.001677 0.000000 0.000000 0.000000
# 2 -0.007411 0.009587 -0.004426 0.000000 0.000000 0.000000
# 3 -0.001677 -0.004426 0.008818 0.000000 0.000000 0.000000
# 4 0.000000 0.000000 0.000000 0.026074 0.000000 0.000000
# 5 0.000000 0.000000 0.000000 0.000000 0.049122 0.000000
# 6 0.000000 0.000000 0.000000 0.000000 0.000000 0.066800
#
#
# Mechanical properties :
#
#
# Convention : Reuss Voigt Hill
#
# Bulk Modulus (GPa) = 10.83623 56.66874 33.75249
# Shear Modulus (GPa) = 15.66920 29.16111 22.41515
#
# Velocity S-wave (km/s) = 2.84967 3.88752 3.40833
# Velocity P-wave (km/s) = 4.05504 7.03699 5.74293
#
# Compressibility (1/GPa) = 0.09228298
#
# Stress axis : x y z
#
# Youngs Moduli (GPa) = 9.91023 104.30271 113.40076
#
# Poissons Ratio (x) = 0.77298 0.19020
# Poissons Ratio (y) = 0.07344 0.50193
# Poissons Ratio (z) = 0.01662 0.46166
#
# Static dielectric constant tensor:
#      x y z
#    x 3.055060 0.000000 0.000000 
#    y 0.000000 3.860820 0.000000 
#    z 0.000000 0.000000 3.747420 
# 
# 
# High freq. dielectric constant tensor:
#      x y z
#    x 1.702910 0.000000 0.000000 
#    y 0.000000 1.768680 0.000000 
#    z 0.000000 0.000000 1.762160 
# 
# From -- ./inp_files/40455.got.cif
#   From: 2010.03.12/outbox.cif.g09.slc.cpg/sg63_21_cif.got.tgz:40455.got - 2010.04.10 19:34:48.
