data_PCOD8257452
_publ_section_title
;
Structure prediction by ZEFSAII (Michael W. Deem and Ramdas Pophale) SiO2 
 PCOD8257452
Probable space group: C M C M
;
_chemical_formula_sum "Si O2"
_cell_formula_units_Z 80
_cell_length_a 9.356774
_cell_length_b 15.218753
_cell_length_c 28.742275
_cell_angle_alpha 90.000000
_cell_angle_beta 90.000000
_cell_angle_gamma 90.000000
_cell_volume 4092.854903
_symmetry_space_group_name_H-M "C M C M"
_symmetry_group_IT_number 63
_symmetry_cell_setting 'orthorhombic'
loop_
_space_group_symop_operation_xyz
x,y,z
-x,-y,1/2+z
x,-y,-z
-x,y,1/2-z
-x,-y,-z
x,y,1/2-z
-x,y,z
x,-y,1/2+z
1/2+x,1/2+y,z
1/2-x,1/2-y,1/2+z
1/2+x,1/2-y,-z
1/2-x,1/2+y,1/2-z
1/2-x,1/2-y,-z
1/2+x,1/2+y,1/2-z
1/2-x,1/2+y,z
1/2+x,1/2-y,1/2+z
loop_
_atom_site_type_symbol
_atom_site_label
_atom_site_fract_x
_atom_site_fract_y
_atom_site_fract_z
Si Si1 0.335457 0.857874 0.043381
Si Si2 0.836463 0.094992 0.353456
Si Si3 0.335308 0.600057 0.632276
Si Si4 0.332396 0.758916 0.802998
Si Si5 0.663438 0.349062 0.545315
O O1 0.500000 0.886429 0.042236
O O2 0.258350 0.905439 0.085974
O O3 0.315565 0.754561 0.050081
O O4 0.262398 0.888472 0.995300
O O5 0.742593 0.151344 0.318274
O O6 0.785211 0.108433 0.406498
O O7 0.000000 0.126384 0.348497
O O8 0.819172 0.992368 0.340608
O O9 0.500000 0.616061 0.617986
O O10 0.279023 0.677048 0.666003
O O11 0.290781 0.738117 0.750000
O O12 0.500000 0.773138 0.808855
O O13 0.500000 0.373385 0.533711
#
# Coordination Sequence:
#
# PCOD8257452 Si02
#       5
#    16  16  16  16  16
#     4  10  19  32  54  82 114 151 192 230 272 327
#     4  10  21  38  60  86 112 147 191 232 274 330
#     4  10  21  37  59  84 114 149 185 228 281 335
#     4  10  22  40  60  83 112 144 180 229 287 339
#     4   9  18  33  53  79 113 150 191 230 273 327
#
# _framework density 19.546258999999999
#
# number of rings (size 3 to 8) (size 9 to 14) (size 15 to 20)
#    0.000    2.200    2.000    0.600    0.000    4.400 
#    0.000    6.000    0.000    0.000    0.000    0.000 
#    0.000    0.000    0.000    0.000    0.000    0.000 
#
# Total GULP energy -496145.208999 kJ/mol
# GULP energy per Si atom -12403.630225 kJ/mol
# Density = 1.950177 g / cm^3
# Si number density = 19.546259 Si / 1000 Ang^3
#
#
#
# Elastic Constant Matrix: (Units=GPa)
#
#
# Indices 1 2 3 4 5 6 
#
# 1 66.7859 24.7651 41.7206 0.0000 0.0000 0.0000
# 2 24.7651 61.5769 28.5034 0.0000 0.0000 0.0000
# 3 41.7206 28.5034 95.9491 0.0000 0.0000 0.0000
# 4 0.0000 0.0000 0.0000 14.2814 0.0000 0.0000
# 5 0.0000 0.0000 0.0000 0.0000 32.4572 0.0000
# 6 0.0000 0.0000 0.0000 0.0000 0.0000 26.7791
#
#
#
# Elastic Compliance Matrix: (Units=1/GPa)
#
#
# Indices 1 2 3 4 5 6 
#
# 1 0.021852 -0.005090 -0.007989 0.000000 0.000000 0.000000
# 2 -0.005090 0.020015 -0.003732 0.000000 0.000000 0.000000
# 3 -0.007989 -0.003732 0.015005 0.000000 0.000000 0.000000
# 4 0.000000 0.000000 0.000000 0.070021 0.000000 0.000000
# 5 0.000000 0.000000 0.000000 0.000000 0.030810 0.000000
# 6 0.000000 0.000000 0.000000 0.000000 0.000000 0.037343
#
#
# Mechanical properties :
#
#
# Convention : Reuss Voigt Hill
#
# Bulk Modulus (GPa) = 43.01565 46.03222 44.52394
# Shear Modulus (GPa) = 21.14901 23.32508 22.23705
#
# Velocity S-wave (km/s) = 3.29294 3.45820 3.37658
# Velocity P-wave (km/s) = 6.04259 6.28865 6.16684
#
# Compressibility (1/GPa) = 0.02324735
#
# Stress axis : x y z
#
# Youngs Moduli (GPa) = 45.76322 49.96321 66.64473
#
# Poissons Ratio (x) = 0.25432 0.53245
# Poissons Ratio (y) = 0.23294 0.24875
# Poissons Ratio (z) = 0.36562 0.18648
#
# Static dielectric constant tensor:
#      x y z
#    x 3.497850 0.000000 0.000000 
#    y 0.000000 3.529090 0.000000 
#    z 0.000000 0.000000 3.510480 
# 
# 
# High freq. dielectric constant tensor:
#      x y z
#    x 1.753990 0.000000 0.000000 
#    y 0.000000 1.760780 0.000000 
#    z 0.000000 0.000000 1.755530 
# 
# From -- ./inp_files/71603.got.cif
#   From: 2010.03.12/outbox.cif.g09.slc.cpg/sg63_36_cif.got.tgz:71603.got - 2010.04.10 19:34:48.
