data_PCOD8257645
_publ_section_title
;
Structure prediction by ZEFSAII (Michael W. Deem and Ramdas Pophale) SiO2 
 PCOD8257645
Probable space group: C M C M
;
_chemical_formula_sum "Si O2"
_cell_formula_units_Z 88
_cell_length_a 19.679969
_cell_length_b 24.849021
_cell_length_c 8.773745
_cell_angle_alpha 90.000000
_cell_angle_beta 90.000000
_cell_angle_gamma 90.000000
_cell_volume 4290.606645
_symmetry_space_group_name_H-M "C M C M"
_symmetry_group_IT_number 63
_symmetry_cell_setting 'orthorhombic'
loop_
_space_group_symop_operation_xyz
x,y,z
-x,-y,1/2+z
x,-y,-z
-x,y,1/2-z
-x,-y,-z
x,y,1/2-z
-x,y,z
x,-y,1/2+z
1/2+x,1/2+y,z
1/2-x,1/2-y,1/2+z
1/2+x,1/2-y,-z
1/2-x,1/2+y,1/2-z
1/2-x,1/2-y,-z
1/2+x,1/2+y,1/2-z
1/2-x,1/2+y,z
1/2+x,1/2-y,1/2+z
loop_
_atom_site_type_symbol
_atom_site_label
_atom_site_fract_x
_atom_site_fract_y
_atom_site_fract_z
Si Si1 0.124027 0.127197 0.928695
Si Si2 0.724375 0.553856 0.076250
Si Si3 0.824303 0.243108 0.569565
Si Si4 0.424940 0.832858 0.569248
Si Si5 0.000000 0.939257 0.568662
Si Si6 0.885123 0.553349 0.421694
O O1 0.109337 0.121212 0.750000
O O2 0.133533 0.189518 0.976244
O O3 0.196266 0.102391 0.975482
O O4 0.065139 0.095706 0.018363
O O5 0.698382 0.557428 0.250000
O O6 0.804599 0.555828 0.067208
O O7 0.695124 0.500000 0.000000
O O8 0.815740 0.245375 0.750000
O O9 0.750000 0.250000 0.500000
O O10 0.869632 0.291783 0.502995
O O11 0.415282 0.836011 0.750000
O O12 0.500000 0.812231 0.525384
O O13 0.413932 0.892576 0.499580
O O14 0.000000 0.945265 0.750000
O O15 0.000000 0.000000 0.500000
O O16 0.914444 0.500000 0.500000
O O17 0.911020 0.550350 0.250000
#
# Coordination Sequence:
#
# PCOD8257645 Si02
#       6
#    16  16  16  16   8  16
#     4  11  23  38  59  87 118 154 198 248 304 363
#     4  10  19  33  54  80 113 149 190 239 292 349
#     4  10  22  39  63  89 117 155 199 252 301 356
#     4   9  18  34  57  82 110 148 192 232 279 342
#     4  12  26  44  64  88 122 164 205 254 309 374
#     4   9  18  32  53  81 111 146 187 233 282 338
#
# _framework density 20.509920000000001
#
# number of rings (size 3 to 8) (size 9 to 14) (size 15 to 20)
#    0.000    2.000    0.000    3.545    1.273    4.000 
#    0.000    0.909    0.000    1.091    0.000    0.000 
#    0.000    0.000    0.000    0.000    0.000    0.000 
#
# Total GULP energy -545424.715925 kJ/mol
# GULP energy per Si atom -12396.016271 kJ/mol
# Density = 2.046324 g / cm^3
# Si number density = 20.509920 Si / 1000 Ang^3
#
#
#
# Elastic Constant Matrix: (Units=GPa)
#
#
# Indices 1 2 3 4 5 6 
#
# 1 98.1794 78.1586 33.5245 0.0000 0.0000 0.0000
# 2 78.1586 184.5329 48.3150 0.0000 0.0000 0.0000
# 3 33.5245 48.3150 64.9457 0.0000 0.0000 0.0000
# 4 0.0000 0.0000 0.0000 29.2008 0.0000 0.0000
# 5 0.0000 0.0000 0.0000 0.0000 22.8787 0.0000
# 6 0.0000 0.0000 0.0000 0.0000 0.0000 33.7770
#
#
#
# Elastic Compliance Matrix: (Units=1/GPa)
#
#
# Indices 1 2 3 4 5 6 
#
# 1 0.016178 -0.005794 -0.004040 0.000000 0.000000 0.000000
# 2 -0.005794 0.008805 -0.003560 0.000000 0.000000 0.000000
# 3 -0.004040 -0.003560 0.020131 0.000000 0.000000 0.000000
# 4 0.000000 0.000000 0.000000 0.034246 0.000000 0.000000
# 5 0.000000 0.000000 0.000000 0.000000 0.043709 0.000000
# 6 0.000000 0.000000 0.000000 0.000000 0.000000 0.029606
#
#
# Mechanical properties :
#
#
# Convention : Reuss Voigt Hill
#
# Bulk Modulus (GPa) = 54.56762 74.18378 64.37570
# Shear Modulus (GPa) = 26.94388 29.68198 28.31293
#
# Velocity S-wave (km/s) = 3.62843 3.80834 3.71947
# Velocity P-wave (km/s) = 6.64961 7.45561 7.06411
#
# Compressibility (1/GPa) = 0.01832589
#
# Stress axis : x y z
#
# Youngs Moduli (GPa) = 61.81354 113.56982 49.67438
#
# Poissons Ratio (x) = 0.65804 0.20070
# Poissons Ratio (y) = 0.35816 0.17682
# Poissons Ratio (z) = 0.24975 0.40425
#
# Static dielectric constant tensor:
#      x y z
#    x 3.658910 0.000000 0.000000 
#    y 0.000000 4.188890 0.000000 
#    z 0.000000 0.000000 3.596780 
# 
# 
# High freq. dielectric constant tensor:
#      x y z
#    x 1.807580 0.000000 0.000000 
#    y 0.000000 1.820340 0.000000 
#    z 0.000000 0.000000 1.776250 
# 
# From -- ./inp_files/8228.got.cif
#   From: 2010.03.12/outbox.cif.g09.slc.cpg/sg63_5_cif.got.tgz:8228.got - 2010.04.10 19:34:48.
