data_PCOD8257740
_publ_section_title
;
Structure prediction by ZEFSAII (Michael W. Deem and Ramdas Pophale) SiO2 
 PCOD8257740
Probable space group: C M C M
;
_chemical_formula_sum "Si O2"
_cell_formula_units_Z 64
_cell_length_a 8.914703
_cell_length_b 18.382685
_cell_length_c 20.640912
_cell_angle_alpha 90.000000
_cell_angle_beta 90.000000
_cell_angle_gamma 90.000000
_cell_volume 3382.553751
_symmetry_space_group_name_H-M "C M C M"
_symmetry_group_IT_number 63
_symmetry_cell_setting 'orthorhombic'
loop_
_space_group_symop_operation_xyz
x,y,z
-x,-y,1/2+z
x,-y,-z
-x,y,1/2-z
-x,-y,-z
x,y,1/2-z
-x,y,z
x,-y,1/2+z
1/2+x,1/2+y,z
1/2-x,1/2-y,1/2+z
1/2+x,1/2-y,-z
1/2-x,1/2+y,1/2-z
1/2-x,1/2-y,-z
1/2+x,1/2+y,1/2-z
1/2-x,1/2+y,z
1/2+x,1/2-y,1/2+z
loop_
_atom_site_type_symbol
_atom_site_label
_atom_site_fract_x
_atom_site_fract_y
_atom_site_fract_z
Si Si1 0.327968 0.675216 0.250000
Si Si2 0.822423 0.583878 0.863410
Si Si3 0.326653 0.570065 0.131635
Si Si4 0.335037 0.085996 0.494026
Si Si5 0.676594 0.326882 0.250000
O O1 0.500000 0.702539 0.250000
O O2 0.293421 0.628065 0.186867
O O3 0.215830 0.742324 0.250000
O O4 0.767448 0.501738 0.852503
O O5 0.780490 0.613935 0.935406
O O6 0.743767 0.637153 0.813798
O O7 0.000000 0.584698 0.852534
O O8 0.500000 0.547987 0.128543
O O9 0.279323 0.607013 0.063197
O O10 0.500000 0.117828 0.477389
O O11 0.346614 0.000000 0.500000
O O12 0.500000 0.338170 0.250000
#
# Coordination Sequence:
#
# PCOD8257740 Si02
#       5
#     8  16  16  16   8
#     4  10  23  40  53  73 109 147 179 216 269 322
#     4  10  20  36  58  81 110 145 176 214 268 325
#     4  10  19  33  57  85 111 140 179 225 264 309
#     4   8  16  31  52  80 110 140 175 215 264 319
#     4  12  25  38  55  79 105 137 183 230 267 314
#
# _framework density 18.920615000000002
#
# number of rings (size 3 to 8) (size 9 to 14) (size 15 to 20)
#    0.000    2.250    0.000    4.875    0.000    8.500 
#    0.000    1.250    0.000    0.000    0.000    0.000 
#    0.000    0.000    0.000    0.000    0.000    0.000 
#
# Total GULP energy -396747.377021 kJ/mol
# GULP energy per Si atom -12398.355532 kJ/mol
# Density = 1.887755 g / cm^3
# Si number density = 18.920615 Si / 1000 Ang^3
#
#
#
# Elastic Constant Matrix: (Units=GPa)
#
#
# Indices 1 2 3 4 5 6 
#
# 1 122.3926 51.9040 79.5524 0.0000 0.0000 0.0000
# 2 51.9040 70.0660 58.5111 0.0000 0.0000 0.0000
# 3 79.5524 58.5111 172.0938 0.0000 0.0000 0.0000
# 4 0.0000 0.0000 0.0000 -23.2559 0.0000 0.0000
# 5 0.0000 0.0000 0.0000 0.0000 57.5804 0.0000
# 6 0.0000 0.0000 0.0000 0.0000 0.0000 28.9583
#
#
#
# Elastic Compliance Matrix: (Units=1/GPa)
#
#
# Indices 1 2 3 4 5 6 
#
# 1 0.013642 -0.006758 -0.004008 0.000000 0.000000 0.000000
# 2 -0.006758 0.023280 -0.004791 0.000000 0.000000 0.000000
# 3 -0.004008 -0.004791 0.009292 0.000000 0.000000 0.000000
# 4 0.000000 0.000000 0.000000 -0.043000 0.000000 0.000000
# 5 0.000000 0.000000 0.000000 0.000000 0.017367 0.000000
# 6 0.000000 0.000000 0.000000 0.000000 0.000000 0.034532
#
#
# Mechanical properties :
#
#
# Convention : Reuss Voigt Hill
#
# Bulk Modulus (GPa) = 66.23000 82.72082 74.47541
# Shear Modulus (GPa) = 54.78785 24.29558 39.54172
#
# Velocity S-wave (km/s) = 5.38698 3.58729 4.57647
# Velocity P-wave (km/s) = 8.58911 7.80853 8.20810
#
# Compressibility (1/GPa) = 0.01509890
#
# Stress axis : x y z
#
# Youngs Moduli (GPa) = 73.30408 42.95622 107.61399
#
# Poissons Ratio (x) = 0.29032 0.43134
# Poissons Ratio (y) = 0.49542 0.51555
# Poissons Ratio (z) = 0.29382 0.20579
#
# Static dielectric constant tensor:
#      x y z
#    x 3.566970 0.000000 0.000000 
#    y 0.000000 3.070350 0.000000 
#    z 0.000000 0.000000 4.171070 
# 
# 
# High freq. dielectric constant tensor:
#      x y z
#    x 1.742560 0.000000 0.000000 
#    y 0.000000 1.695420 0.000000 
#    z 0.000000 0.000000 1.758960 
# 
# From -- ./inp_files/50337.got.cif
#   From: 2010.03.12/outbox.cif.g09.slc.cpg/sg63_26_cif.got.tgz:50337.got - 2010.04.10 19:34:48.
