data_PCOD8257750
_publ_section_title
;
Structure prediction by ZEFSAII (Michael W. Deem and Ramdas Pophale) SiO2 
 PCOD8257750
Probable space group: C M C M
;
_chemical_formula_sum "Si O2"
_cell_formula_units_Z 72
_cell_length_a 18.211672
_cell_length_b 8.864546
_cell_length_c 20.742445
_cell_angle_alpha 90.000000
_cell_angle_beta 90.000000
_cell_angle_gamma 90.000000
_cell_volume 3348.623071
_symmetry_space_group_name_H-M "C M C M"
_symmetry_group_IT_number 63
_symmetry_cell_setting 'orthorhombic'
loop_
_space_group_symop_operation_xyz
x,y,z
-x,-y,1/2+z
x,-y,-z
-x,y,1/2-z
-x,-y,-z
x,y,1/2-z
-x,y,z
x,-y,1/2+z
1/2+x,1/2+y,z
1/2-x,1/2-y,1/2+z
1/2+x,1/2-y,-z
1/2-x,1/2+y,1/2-z
1/2-x,1/2-y,-z
1/2+x,1/2+y,1/2-z
1/2-x,1/2+y,z
1/2+x,1/2-y,1/2+z
loop_
_atom_site_type_symbol
_atom_site_label
_atom_site_fract_x
_atom_site_fract_y
_atom_site_fract_z
Si Si1 0.653729 0.719024 0.325309
Si Si2 0.500000 0.381934 0.057880
Si Si3 0.780264 0.085846 0.674197
Si Si4 0.739448 0.000000 0.500000
Si Si5 0.156812 0.755918 0.067676
Si Si6 0.500000 0.389403 0.672804
O O1 0.656970 0.695898 0.250000
O O2 0.695184 0.873152 0.345125
O O3 0.698430 0.576915 0.355338
O O4 0.569374 0.714252 0.347583
O O5 0.571581 0.277058 0.049369
O O6 0.500000 0.461176 0.128779
O O7 0.500000 0.500000 0.000000
O O8 0.792737 0.095295 0.750000
O O9 0.833284 0.215681 0.644513
O O10 0.791237 0.886168 0.461813
O O11 0.684563 0.908034 0.546897
O O12 0.500000 0.431110 0.750000
#
# Coordination Sequence:
#
# PCOD8257750 Si02
#       6
#    16   8  16   8  16   8
#     4   9  18  32  55  84 115 146 191 237 286 342
#     4  12  24  37  59  90 119 153 198 250 298 350
#     4  10  19  33  57  89 114 147 190 241 288 340
#     4  10  24  40  60  84 112 160 200 238 288 352
#     4  11  22  40  61  84 119 154 198 244 291 352
#     4  10  20  36  57  86 117 156 192 236 292 352
#
# _framework density 21.501374999999999
#
# number of rings (size 3 to 8) (size 9 to 14) (size 15 to 20)
#    0.000    1.778    3.333    1.333    0.000    0.444 
#    0.000    0.000    0.000    6.667    0.000   17.111 
#    0.000    0.000    0.000    0.000    0.000    0.000 
#
# Total GULP energy -445996.257454 kJ/mol
# GULP energy per Si atom -12388.784929 kJ/mol
# Density = 2.145244 g / cm^3
# Si number density = 21.501375 Si / 1000 Ang^3
#
#
#
# Elastic Constant Matrix: (Units=GPa)
#
#
# Indices 1 2 3 4 5 6 
#
# 1 197.5731 60.2723 13.7954 0.0000 0.0000 0.0000
# 2 60.2723 72.8275 12.8029 0.0000 0.0000 0.0000
# 3 13.7954 12.8029 57.8670 0.0000 0.0000 0.0000
# 4 0.0000 0.0000 0.0000 22.5566 0.0000 0.0000
# 5 0.0000 0.0000 0.0000 0.0000 21.5153 0.0000
# 6 0.0000 0.0000 0.0000 0.0000 0.0000 33.9107
#
#
#
# Elastic Compliance Matrix: (Units=1/GPa)
#
#
# Indices 1 2 3 4 5 6 
#
# 1 0.006779 -0.005542 -0.000390 0.000000 0.000000 0.000000
# 2 -0.005542 0.018817 -0.002842 0.000000 0.000000 0.000000
# 3 -0.000390 -0.002842 0.018003 0.000000 0.000000 0.000000
# 4 0.000000 0.000000 0.000000 0.044333 0.000000 0.000000
# 5 0.000000 0.000000 0.000000 0.000000 0.046478 0.000000
# 6 0.000000 0.000000 0.000000 0.000000 0.000000 0.029489
#
#
# Mechanical properties :
#
#
# Convention : Reuss Voigt Hill
#
# Bulk Modulus (GPa) = 38.38596 55.77877 47.08237
# Shear Modulus (GPa) = 26.29751 31.68964 28.99357
#
# Velocity S-wave (km/s) = 3.50102 3.84323 3.67611
# Velocity P-wave (km/s) = 5.85102 6.75960 6.32165
#
# Compressibility (1/GPa) = 0.02605119
#
# Stress axis : x y z
#
# Youngs Moduli (GPa) = 147.50736 53.14256 55.54693
#
# Poissons Ratio (x) = 0.29452 0.02166
# Poissons Ratio (y) = 0.81749 0.15787
# Poissons Ratio (z) = 0.05753 0.15103
#
# Static dielectric constant tensor:
#      x y z
#    x 4.384100 0.000000 0.000000 
#    y 0.000000 3.872790 0.000000 
#    z 0.000000 0.000000 4.113440 
# 
# 
# High freq. dielectric constant tensor:
#      x y z
#    x 1.846240 0.000000 0.000000 
#    y 0.000000 1.819010 0.000000 
#    z 0.000000 0.000000 1.852520 
# 
# From -- ./inp_files/69696.got.cif
#   From: 2010.03.12/outbox.cif.g09.slc.cpg/sg63_35_cif.got.tgz:69696.got - 2010.04.10 19:34:48.
