data_PCOD8257625
_publ_section_title
;
Structure prediction by ZEFSAII (Michael W. Deem and Ramdas Pophale) SiO2 
 PCOD8257625
Probable space group: C M C M
;
_chemical_formula_sum "Si O2"
_cell_formula_units_Z 96
_cell_length_a 18.505843
_cell_length_b 15.382572
_cell_length_c 14.470716
_cell_angle_alpha 90.000000
_cell_angle_beta 90.000000
_cell_angle_gamma 90.000000
_cell_volume 4119.342002
_symmetry_space_group_name_H-M "C M C M"
_symmetry_group_IT_number 63
_symmetry_cell_setting 'orthorhombic'
loop_
_space_group_symop_operation_xyz
x,y,z
-x,-y,1/2+z
x,-y,-z
-x,y,1/2-z
-x,-y,-z
x,y,1/2-z
-x,y,z
x,-y,1/2+z
1/2+x,1/2+y,z
1/2-x,1/2-y,1/2+z
1/2+x,1/2-y,-z
1/2-x,1/2+y,1/2-z
1/2-x,1/2-y,-z
1/2+x,1/2+y,1/2-z
1/2-x,1/2+y,z
1/2+x,1/2-y,1/2+z
loop_
_atom_site_type_symbol
_atom_site_label
_atom_site_fract_x
_atom_site_fract_y
_atom_site_fract_z
Si Si1 0.721844 0.180500 0.640155
Si Si2 0.370004 0.461346 0.901769
Si Si3 0.155612 0.314014 0.640102
Si Si4 0.500000 0.443643 0.404836
Si Si5 0.781373 0.488418 0.648720
Si Si6 0.080450 0.780294 0.858409
Si Si7 0.000000 0.753951 0.141035
O O1 0.730530 0.175869 0.750000
O O2 0.787774 0.240943 0.600818
O O3 0.723191 0.082307 0.597284
O O4 0.643118 0.214682 0.609230
O O5 0.426953 0.527242 0.852026
O O6 0.299832 0.452058 0.838609
O O7 0.408596 0.368707 0.915020
O O8 0.345570 0.500000 0.000000
O O9 0.164999 0.316885 0.750000
O O10 0.173998 0.410405 0.598856
O O11 0.072710 0.296474 0.611634
O O12 0.500000 0.500000 0.500000
O O13 0.500000 0.341189 0.418428
O O14 0.815562 0.503650 0.750000
O O15 0.088258 0.800845 0.750000
O O16 0.000000 0.742382 0.880263
O O17 0.000000 0.775336 0.250000
#
# Coordination Sequence:
#
# PCOD8257625 Si02
#       7
#    16  16  16   8  16  16   8
#     4   9  17  31  52  79 107 140 183 227 272 321
#     4  11  21  34  53  77 112 142 181 230 280 333
#     4   9  17  31  52  81 116 143 178 231 279 326
#     4  10  22  36  52  75 116 146 177 230 290 336
#     4  10  19  34  57  80 109 150 186 228 277 326
#     4  10  19  33  54  78 107 142 181 226 278 338
#     4  10  20  34  56  87 113 144 188 231 280 338
#
# _framework density 23.304694000000001
#
# number of rings (size 3 to 8) (size 9 to 14) (size 15 to 20)
#    0.000    2.167    2.500    1.500    0.000    2.667 
#    1.500    0.833    3.667    0.000    0.000    0.583 
#    0.000    0.000    0.000    0.000    0.000    0.000 
#
# Total GULP energy -594690.901482 kJ/mol
# GULP energy per Si atom -12389.393781 kJ/mol
# Density = 2.325165 g / cm^3
# Si number density = 23.304694 Si / 1000 Ang^3
#
#
#
# Elastic Constant Matrix: (Units=GPa)
#
#
# Indices 1 2 3 4 5 6 
#
# 1 206.7983 99.5806 9.6894 0.0000 0.0000 0.0000
# 2 99.5806 199.7028 3.3277 0.0000 0.0000 0.0000
# 3 9.6894 3.3277 18.9271 0.0000 0.0000 0.0000
# 4 0.0000 0.0000 0.0000 8.2809 0.0000 0.0000
# 5 0.0000 0.0000 0.0000 0.0000 15.3279 0.0000
# 6 0.0000 0.0000 0.0000 0.0000 0.0000 40.8059
#
#
#
# Elastic Compliance Matrix: (Units=1/GPa)
#
#
# Indices 1 2 3 4 5 6 
#
# 1 0.006505 -0.003198 -0.002768 0.000000 0.000000 0.000000
# 2 -0.003198 0.006594 0.000478 0.000000 0.000000 0.000000
# 3 -0.002768 0.000478 0.054167 0.000000 0.000000 0.000000
# 4 0.000000 0.000000 0.000000 0.120760 0.000000 0.000000
# 5 0.000000 0.000000 0.000000 0.000000 0.065240 0.000000
# 6 0.000000 0.000000 0.000000 0.000000 0.000000 0.024506
#
#
# Mechanical properties :
#
#
# Convention : Reuss Voigt Hill
#
# Bulk Modulus (GPa) = 17.76501 72.29152 45.02826
# Shear Modulus (GPa) = 16.25950 33.73829 24.99890
#
# Velocity S-wave (km/s) = 2.64425 3.80900 3.27876
# Velocity P-wave (km/s) = 4.11852 7.10156 5.80493
#
# Compressibility (1/GPa) = 0.05629042
#
# Stress axis : x y z
#
# Youngs Moduli (GPa) = 153.72613 151.65430 18.46133
#
# Poissons Ratio (x) = 0.48493 0.05110
# Poissons Ratio (y) = 0.49155 -0.00882
# Poissons Ratio (z) = 0.42551 -0.07243
#
# Static dielectric constant tensor:
#      x y z
#    x 4.547990 0.000000 0.000000 
#    y 0.000000 4.331940 0.000000 
#    z 0.000000 0.000000 3.542530 
# 
# 
# High freq. dielectric constant tensor:
#      x y z
#    x 1.928350 0.000000 0.000000 
#    y 0.000000 1.916810 0.000000 
#    z 0.000000 0.000000 1.887100 
# 
# From -- ./inp_files/54244.got.cif
#   From: 2010.03.12/outbox.cif.g09.slc.cpg/sg63_28_cif.got.tgz:54244.got - 2010.04.10 19:34:48.
