data_PCOD8257518
_publ_section_title
;
Structure prediction by ZEFSAII (Michael W. Deem and Ramdas Pophale) SiO2 
 PCOD8257518
Probable space group: C M C M
;
_chemical_formula_sum "Si O2"
_cell_formula_units_Z 120
_cell_length_a 26.986487
_cell_length_b 27.943617
_cell_length_c 8.910154
_cell_angle_alpha 90.000000
_cell_angle_beta 90.000000
_cell_angle_gamma 90.000000
_cell_volume 6719.147638
_symmetry_space_group_name_H-M "C M C M"
_symmetry_group_IT_number 63
_symmetry_cell_setting 'orthorhombic'
loop_
_space_group_symop_operation_xyz
x,y,z
-x,-y,1/2+z
x,-y,-z
-x,y,1/2-z
-x,-y,-z
x,y,1/2-z
-x,y,z
x,-y,1/2+z
1/2+x,1/2+y,z
1/2-x,1/2-y,1/2+z
1/2+x,1/2-y,-z
1/2-x,1/2+y,1/2-z
1/2-x,1/2-y,-z
1/2+x,1/2+y,1/2-z
1/2-x,1/2+y,z
1/2+x,1/2-y,1/2+z
loop_
_atom_site_type_symbol
_atom_site_label
_atom_site_fract_x
_atom_site_fract_y
_atom_site_fract_z
Si Si1 0.117983 0.451760 0.572327
Si Si2 0.205351 0.600313 0.927739
Si Si3 0.945168 0.639174 0.074006
Si Si4 0.295576 0.724391 0.077114
Si Si5 0.192552 0.116522 0.071101
Si Si6 0.108265 0.947423 0.072209
Si Si7 0.139279 0.311283 0.421702
Si Si8 0.000000 0.049767 0.577735
O O1 0.096612 0.500000 0.500000
O O2 0.125497 0.456283 0.750000
O O3 0.170115 0.440842 0.492591
O O4 0.078232 0.411508 0.528744
O O5 0.211846 0.594490 0.750000
O O6 0.182706 0.652119 0.973215
O O7 0.257658 0.592627 0.008602
O O8 0.948080 0.644936 0.250000
O O9 0.000000 0.642738 0.002978
O O10 0.911116 0.681907 0.013381
O O11 0.281096 0.720860 0.250000
O O12 0.307928 0.671734 0.014617
O O13 0.343924 0.757005 0.050967
O O14 0.250000 0.750000 0.000000
O O15 0.190515 0.112386 0.250000
O O16 0.145864 0.089680 0.001408
O O17 0.118272 0.951403 0.250000
O O18 0.052815 0.925128 0.038001
O O19 0.114805 0.000000 0.000000
O O20 0.126850 0.322110 0.250000
O O21 0.000000 0.037185 0.750000
O O22 0.000000 0.000000 0.500000
#
# Coordination Sequence:
#
# PCOD8257518 Si02
#       8
#    16  16  16  16  16  16  16   8
#     4  10  20  34  51  73 103 137 175 219 268 319
#     4  10  19  33  52  73 101 136 174 213 259 315
#     4   9  19  35  54  76 102 134 175 222 269 318
#     4  10  20  34  54  80 109 139 175 216 260 310
#     4  11  22  34  52  81 113 142 175 215 261 312
#     4  10  20  36  57  81 109 140 176 216 259 308
#     4   9  18  33  53  77 102 132 172 216 261 313
#     4   8  16  32  56  80 100 130 170 212 254 302
#
# _framework density 17.859407999999998
#
# number of rings (size 3 to 8) (size 9 to 14) (size 15 to 20)
#    0.000    2.267    1.333    1.600    0.000    3.733 
#    0.000    2.667    1.467    0.000    0.000    0.000 
#    0.000    0.000    0.000    0.000    0.000    0.000 
#
# Total GULP energy -743798.234620 kJ/mol
# GULP energy per Si atom -12396.637244 kJ/mol
# Density = 1.781876 g / cm^3
# Si number density = 17.859408 Si / 1000 Ang^3
#
#
#
# Elastic Constant Matrix: (Units=GPa)
#
#
# Indices 1 2 3 4 5 6 
#
# 1 156.7850 51.7441 52.3774 0.0000 0.0000 0.0000
# 2 51.7441 82.7172 34.7286 0.0000 0.0000 0.0000
# 3 52.3774 34.7286 63.9993 0.0000 0.0000 0.0000
# 4 0.0000 0.0000 0.0000 25.7212 0.0000 0.0000
# 5 0.0000 0.0000 0.0000 0.0000 28.9832 0.0000
# 6 0.0000 0.0000 0.0000 0.0000 0.0000 16.3917
#
#
#
# Elastic Compliance Matrix: (Units=1/GPa)
#
#
# Indices 1 2 3 4 5 6 
#
# 1 0.009487 -0.003464 -0.005885 0.000000 0.000000 0.000000
# 2 -0.003464 0.016921 -0.006347 0.000000 0.000000 0.000000
# 3 -0.005885 -0.006347 0.023885 0.000000 0.000000 0.000000
# 4 0.000000 0.000000 0.000000 0.038878 0.000000 0.000000
# 5 0.000000 0.000000 0.000000 0.000000 0.034503 0.000000
# 6 0.000000 0.000000 0.000000 0.000000 0.000000 0.061006
#
#
# Mechanical properties :
#
#
# Convention : Reuss Voigt Hill
#
# Bulk Modulus (GPa) = 52.90405 64.57798 58.74102
# Shear Modulus (GPa) = 22.48464 25.19598 23.84031
#
# Velocity S-wave (km/s) = 3.55206 3.76013 3.65758
# Velocity P-wave (km/s) = 6.81980 7.42220 7.12737
#
# Compressibility (1/GPa) = 0.01890214
#
# Stress axis : x y z
#
# Youngs Moduli (GPa) = 105.40328 59.09752 41.86659
#
# Poissons Ratio (x) = 0.20472 0.24637
# Poissons Ratio (y) = 0.36514 0.26573
# Poissons Ratio (z) = 0.62027 0.37509
#
# Static dielectric constant tensor:
#      x y z
#    x 3.772280 0.000000 0.000000 
#    y 0.000000 3.302430 0.000000 
#    z 0.000000 0.000000 3.329420 
# 
# 
# High freq. dielectric constant tensor:
#      x y z
#    x 1.693150 0.000000 0.000000 
#    y 0.000000 1.674230 0.000000 
#    z 0.000000 0.000000 1.697980 
# 
# From -- ./inp_files/13158.got.cif
#   From: 2010.03.12/outbox.cif.g09.slc.cpg/sg63_7_cif.got.tgz:13158.got - 2010.04.10 19:34:48.
