data_PCOD8257361
_publ_section_title
;
Structure prediction by ZEFSAII (Michael W. Deem and Ramdas Pophale) SiO2 
 PCOD8257361
Probable space group: C M C M
;
_chemical_formula_sum "Si O2"
_cell_formula_units_Z 96
_cell_length_a 9.029249
_cell_length_b 23.315576
_cell_length_c 23.324131
_cell_angle_alpha 90.000000
_cell_angle_beta 90.000000
_cell_angle_gamma 90.000000
_cell_volume 4910.246002
_symmetry_space_group_name_H-M "C M C M"
_symmetry_group_IT_number 63
_symmetry_cell_setting 'orthorhombic'
loop_
_space_group_symop_operation_xyz
x,y,z
-x,-y,1/2+z
x,-y,-z
-x,y,1/2-z
-x,-y,-z
x,y,1/2-z
-x,y,z
x,-y,1/2+z
1/2+x,1/2+y,z
1/2-x,1/2-y,1/2+z
1/2+x,1/2-y,-z
1/2-x,1/2+y,1/2-z
1/2-x,1/2-y,-z
1/2+x,1/2+y,1/2-z
1/2-x,1/2+y,z
1/2+x,1/2-y,1/2+z
loop_
_atom_site_type_symbol
_atom_site_label
_atom_site_fract_x
_atom_site_fract_y
_atom_site_fract_z
Si Si1 0.677661 0.149153 0.750000
Si Si2 0.327058 0.217914 0.861034
Si Si3 0.339614 0.964099 0.444614
Si Si4 0.675132 0.161233 0.523311
Si Si5 0.176777 0.976280 0.250000
Si Si6 0.326004 0.337248 0.904066
Si Si7 0.173567 0.041357 0.361406
O O1 0.500000 0.145152 0.750000
O O2 0.738235 0.183917 0.694000
O O3 0.744958 0.085535 0.750000
O O4 0.500000 0.205123 0.861037
O O5 0.263217 0.196746 0.922234
O O6 0.294079 0.286250 0.858171
O O7 0.500000 0.958010 0.412075
O O8 0.276493 0.903231 0.463032
O O9 0.371508 0.000000 0.500000
O O10 0.214409 0.994573 0.408197
O O11 0.500000 0.168310 0.514583
O O12 0.753430 0.180045 0.464623
O O13 0.000000 0.966314 0.250000
O O14 0.233329 0.015331 0.302340
O O15 0.500000 0.343584 0.915526
O O16 0.258209 0.396054 0.877213
O O17 0.000000 0.048835 0.358171
#
# Coordination Sequence:
#
# PCOD8257361 Si02
#       7
#     8  16  16  16   8  16  16
#     4  10  20  39  63  81  99 134 181 224 260 312
#     4   9  19  34  55  80 104 133 175 221 261 303
#     4  10  19  32  52  77 106 139 175 219 267 311
#     4  10  19  33  52  77 108 139 172 215 265 313
#     4  10  22  39  55  77 109 140 171 218 270 312
#     4  10  20  34  52  78 108 138 174 214 258 314
#     4  10  21  35  53  77 108 143 178 215 263 320
#
# _framework density 19.550954000000001
#
# number of rings (size 3 to 8) (size 9 to 14) (size 15 to 20)
#    0.000    2.167    1.667    1.500    0.000    3.667 
#    0.000    5.000    0.000    0.000    0.000    2.333 
#    0.000    0.000    0.000    0.000    0.000    0.000 
#
# Total GULP energy -594862.800979 kJ/mol
# GULP energy per Si atom -12392.975020 kJ/mol
# Density = 1.950646 g / cm^3
# Si number density = 19.550954 Si / 1000 Ang^3
#
#
#
# Elastic Constant Matrix: (Units=GPa)
#
#
# Indices 1 2 3 4 5 6 
#
# 1 16.8862 22.2570 24.7840 0.0000 0.0000 0.0000
# 2 22.2570 102.5894 62.3113 0.0000 0.0000 0.0000
# 3 24.7840 62.3113 137.1078 0.0000 0.0000 0.0000
# 4 0.0000 0.0000 0.0000 29.5540 0.0000 0.0000
# 5 0.0000 0.0000 0.0000 0.0000 20.4463 0.0000
# 6 0.0000 0.0000 0.0000 0.0000 0.0000 25.1442
#
#
#
# Elastic Compliance Matrix: (Units=1/GPa)
#
#
# Indices 1 2 3 4 5 6 
#
# 1 0.092773 -0.013732 -0.010529 0.000000 0.000000 0.000000
# 2 -0.013732 0.015497 -0.004561 0.000000 0.000000 0.000000
# 3 -0.010529 -0.004561 0.011269 0.000000 0.000000 0.000000
# 4 0.000000 0.000000 0.000000 0.033836 0.000000 0.000000
# 5 0.000000 0.000000 0.000000 0.000000 0.048909 0.000000
# 6 0.000000 0.000000 0.000000 0.000000 0.000000 0.039771
#
#
# Mechanical properties :
#
#
# Convention : Reuss Voigt Hill
#
# Bulk Modulus (GPa) = 16.15613 52.80977 34.48295
# Shear Modulus (GPa) = 15.60885 24.84430 20.22657
#
# Velocity S-wave (km/s) = 2.82861 3.56862 3.21994
# Velocity P-wave (km/s) = 4.35311 6.63702 5.61247
#
# Compressibility (1/GPa) = 0.06189601
#
# Stress axis : x y z
#
# Youngs Moduli (GPa) = 10.77895 64.52932 88.73536
#
# Poissons Ratio (x) = 0.88612 0.93431
# Poissons Ratio (y) = 0.14802 0.40468
# Poissons Ratio (z) = 0.11349 0.29429
#
# Static dielectric constant tensor:
#      x y z
#    x 3.221800 0.000000 0.000000 
#    y 0.000000 3.743190 0.000000 
#    z 0.000000 0.000000 3.708940 
# 
# 
# High freq. dielectric constant tensor:
#      x y z
#    x 1.724050 0.000000 0.000000 
#    y 0.000000 1.782200 0.000000 
#    z 0.000000 0.000000 1.760000 
# 
# From -- ./inp_files/60014.got.cif
#   From: 2010.03.12/outbox.cif.g09.slc.cpg/sg63_31_cif.got.tgz:60014.got - 2010.04.10 19:34:48.
