data_PCOD8257200
_publ_section_title
;
Structure prediction by ZEFSAII (Michael W. Deem and Ramdas Pophale) SiO2 
 PCOD8257200
Probable space group: C M C M
;
_chemical_formula_sum "Si O2"
_cell_formula_units_Z 120
_cell_length_a 25.914559
_cell_length_b 29.467880
_cell_length_c 9.054387
_cell_angle_alpha 90.000000
_cell_angle_beta 90.000000
_cell_angle_gamma 90.000000
_cell_volume 6914.356509
_symmetry_space_group_name_H-M "C M C M"
_symmetry_group_IT_number 63
_symmetry_cell_setting 'orthorhombic'
loop_
_space_group_symop_operation_xyz
x,y,z
-x,-y,1/2+z
x,-y,-z
-x,y,1/2-z
-x,-y,-z
x,y,1/2-z
-x,y,z
x,-y,1/2+z
1/2+x,1/2+y,z
1/2-x,1/2-y,1/2+z
1/2+x,1/2-y,-z
1/2-x,1/2+y,1/2-z
1/2-x,1/2-y,-z
1/2+x,1/2+y,1/2-z
1/2-x,1/2+y,z
1/2+x,1/2-y,1/2+z
loop_
_atom_site_type_symbol
_atom_site_label
_atom_site_fract_x
_atom_site_fract_y
_atom_site_fract_z
Si Si1 0.894698 0.907260 0.076197
Si Si2 0.709073 0.546230 0.577580
Si Si3 0.793646 0.219286 0.416189
Si Si4 0.762291 0.360755 0.075078
Si Si5 0.943664 0.262548 0.920300
Si Si6 0.163720 0.696806 0.424765
Si Si7 0.500000 0.547332 0.576612
Si Si8 0.596231 0.684284 0.088309
O O1 0.891724 0.899392 0.250000
O O2 0.848919 0.940906 0.025580
O O3 0.949506 0.926212 0.023594
O O4 0.887006 0.859465 0.001013
O O5 0.727340 0.500000 0.500000
O O6 0.710271 0.536657 0.750000
O O7 0.747672 0.587387 0.536195
O O8 0.769709 0.224773 0.250000
O O9 0.777921 0.172776 0.496632
O O10 0.791317 0.265814 0.520537
O O11 0.854820 0.216711 0.396894
O O12 0.761416 0.352479 0.250000
O O13 0.819175 0.349670 0.006817
O O14 0.934903 0.250902 0.750000
O O15 0.895393 0.293548 0.973116
O O16 0.000000 0.286429 0.945820
O O17 0.946182 0.214301 0.003351
O O18 0.168093 0.691565 0.250000
O O19 0.500000 0.500000 0.500000
O O20 0.500000 0.539734 0.750000
O O21 0.574960 0.670626 0.250000
#
# Coordination Sequence:
#
# PCOD8257200 Si02
#       8
#    16  16  16  16  16  16   8  16
#     4  10  20  36  52  69  93 125 165 207 258 311
#     4  10  22  37  55  74  97 129 167 212 259 309
#     4  10  19  32  49  71  99 131 166 203 244 291
#     4  11  21  34  51  73 102 134 165 203 251 303
#     4   9  19  35  53  71  98 136 171 204 245 294
#     4  10  20  33  51  75 102 133 168 206 246 294
#     4  10  22  36  52  68  86 114 154 208 262 310
#     4  10  20  31  47  73  98 125 163 208 249 288
#
# _framework density 17.355194000000001
#
# number of rings (size 3 to 8) (size 9 to 14) (size 15 to 20)
#    0.000    2.000    1.333    2.400    0.933    4.000 
#    0.000    0.000    0.000    0.000    0.000    0.000 
#    0.000    0.533    0.000    1.200    0.000    1.867 
#
# Total GULP energy -743648.695042 kJ/mol
# GULP energy per Si atom -12394.144917 kJ/mol
# Density = 1.731569 g / cm^3
# Si number density = 17.355194 Si / 1000 Ang^3
#
#
#
# Elastic Constant Matrix: (Units=GPa)
#
#
# Indices 1 2 3 4 5 6 
#
# 1 89.1471 54.0464 36.3481 0.0000 0.0000 0.0000
# 2 54.0464 109.2871 49.9097 0.0000 0.0000 0.0000
# 3 36.3481 49.9097 73.2664 0.0000 0.0000 0.0000
# 4 0.0000 0.0000 0.0000 30.9285 0.0000 0.0000
# 5 0.0000 0.0000 0.0000 0.0000 20.3600 0.0000
# 6 0.0000 0.0000 0.0000 0.0000 0.0000 19.9730
#
#
#
# Elastic Compliance Matrix: (Units=1/GPa)
#
#
# Indices 1 2 3 4 5 6 
#
# 1 0.016744 -0.006513 -0.003870 0.000000 0.000000 0.000000
# 2 -0.006513 0.015816 -0.007543 0.000000 0.000000 0.000000
# 3 -0.003870 -0.007543 0.020707 0.000000 0.000000 0.000000
# 4 0.000000 0.000000 0.000000 0.032333 0.000000 0.000000
# 5 0.000000 0.000000 0.000000 0.000000 0.049116 0.000000
# 6 0.000000 0.000000 0.000000 0.000000 0.000000 0.050068
#
#
# Mechanical properties :
#
#
# Convention : Reuss Voigt Hill
#
# Bulk Modulus (GPa) = 57.42154 61.36767 59.39461
# Shear Modulus (GPa) = 22.08096 23.01206 22.54651
#
# Velocity S-wave (km/s) = 3.57080 3.64531 3.60824
# Velocity P-wave (km/s) = 7.08228 7.29070 7.18724
#
# Compressibility (1/GPa) = 0.01741507
#
# Stress axis : x y z
#
# Youngs Moduli (GPa) = 59.72281 63.22806 48.29314
#
# Poissons Ratio (x) = 0.41181 0.18690
# Poissons Ratio (y) = 0.38898 0.36426
# Poissons Ratio (z) = 0.23113 0.47690
#
# Static dielectric constant tensor:
#      x y z
#    x 3.371050 0.000000 0.000000 
#    y 0.000000 3.052890 0.000000 
#    z 0.000000 0.000000 3.400120 
# 
# 
# High freq. dielectric constant tensor:
#      x y z
#    x 1.671510 0.000000 0.000000 
#    y 0.000000 1.639450 0.000000 
#    z 0.000000 0.000000 1.680060 
# 
# From -- ./inp_files/13176.got.cif
#   From: 2010.03.12/outbox.cif.g09.slc.cpg/sg63_7_cif.got.tgz:13176.got - 2010.04.10 19:34:48.
