data_PCOD8257687
_publ_section_title
;
Structure prediction by ZEFSAII (Michael W. Deem and Ramdas Pophale) SiO2 
 PCOD8257687
Probable space group: C M C M
;
_chemical_formula_sum "Si O2"
_cell_formula_units_Z 112
_cell_length_a 18.711180
_cell_length_b 20.078556
_cell_length_c 15.543259
_cell_angle_alpha 90.000000
_cell_angle_beta 90.000000
_cell_angle_gamma 90.000000
_cell_volume 5839.500994
_symmetry_space_group_name_H-M "C M C M"
_symmetry_group_IT_number 63
_symmetry_cell_setting 'orthorhombic'
loop_
_space_group_symop_operation_xyz
x,y,z
-x,-y,1/2+z
x,-y,-z
-x,y,1/2-z
-x,-y,-z
x,y,1/2-z
-x,y,z
x,-y,1/2+z
1/2+x,1/2+y,z
1/2-x,1/2-y,1/2+z
1/2+x,1/2-y,-z
1/2-x,1/2+y,1/2-z
1/2-x,1/2-y,-z
1/2+x,1/2+y,1/2-z
1/2-x,1/2+y,z
1/2+x,1/2-y,1/2+z
loop_
_atom_site_type_symbol
_atom_site_label
_atom_site_fract_x
_atom_site_fract_y
_atom_site_fract_z
Si Si1 0.082328 0.806023 0.492480
Si Si2 0.079771 0.669320 0.579071
Si Si3 0.172311 0.751036 0.153383
Si Si4 0.579359 0.939820 0.939112
Si Si5 0.208283 0.604283 0.348361
Si Si6 0.188045 0.073496 0.496592
Si Si7 0.224927 0.629637 0.846626
O O1 0.095261 0.747606 0.562255
O O2 0.106013 0.779171 0.399840
O O3 0.126793 0.871777 0.515440
O O4 0.000000 0.826773 0.487845
O O5 0.081862 0.630127 0.489157
O O6 0.139733 0.638186 0.641040
O O7 0.000000 0.661128 0.620085
O O8 0.143280 0.745093 0.250000
O O9 0.198461 0.679896 0.119777
O O10 0.241247 0.797535 0.145371
O O11 0.500000 0.953962 0.902948
O O12 0.633457 0.935350 0.859062
O O13 0.604210 0.000000 0.000000
O O14 0.233964 0.599130 0.250000
O O15 0.265936 0.572092 0.410215
O O16 0.238411 0.083780 0.580719
O O17 0.152769 0.000000 0.500000
O O18 0.237978 0.600190 0.750000
#
# Coordination Sequence:
#
# PCOD8257687 Si02
#       7
#    16  16  16  16  16  16  16
#     4  10  20  36  59  82 109 150 189 230 291 344
#     4  10  19  33  55  82 113 146 182 223 272 328
#     4   9  18  32  53  85 113 137 177 232 281 334
#     4  10  20  35  52  76 114 150 180 221 272 327
#     4  11  21  34  58  85 111 147 188 227 279 335
#     4  11  23  39  56  80 114 148 192 245 284 325
#     4  10  20  35  57  81 111 147 184 224 278 338
#
# _framework density 19.179722000000002
#
# number of rings (size 3 to 8) (size 9 to 14) (size 15 to 20)
#    0.000    1.857    2.857    1.286    0.000    4.000 
#    0.000    1.429    0.000    3.857    0.000    2.000 
#    0.000    0.000    0.000    0.000    0.000    0.000 
#
# Total GULP energy -694251.235490 kJ/mol
# GULP energy per Si atom -12397.343491 kJ/mol
# Density = 1.913607 g / cm^3
# Si number density = 19.179722 Si / 1000 Ang^3
#
#
#
# Elastic Constant Matrix: (Units=GPa)
#
#
# Indices 1 2 3 4 5 6 
#
# 1 87.8613 21.8083 26.8734 0.0000 0.0000 0.0000
# 2 21.8083 103.8909 12.8836 0.0000 0.0000 0.0000
# 3 26.8734 12.8836 66.6260 0.0000 0.0000 0.0000
# 4 0.0000 0.0000 0.0000 17.8368 0.0000 0.0000
# 5 0.0000 0.0000 0.0000 0.0000 14.3561 0.0000
# 6 0.0000 0.0000 0.0000 0.0000 0.0000 14.6941
#
#
#
# Elastic Compliance Matrix: (Units=1/GPa)
#
#
# Indices 1 2 3 4 5 6 
#
# 1 0.013459 -0.002205 -0.005002 0.000000 0.000000 0.000000
# 2 -0.002205 0.010223 -0.001088 0.000000 0.000000 0.000000
# 3 -0.005002 -0.001088 0.017237 0.000000 0.000000 0.000000
# 4 0.000000 0.000000 0.000000 0.056064 0.000000 0.000000
# 5 0.000000 0.000000 0.000000 0.000000 0.069657 0.000000
# 6 0.000000 0.000000 0.000000 0.000000 0.000000 0.068055
#
#
# Mechanical properties :
#
#
# Convention : Reuss Voigt Hill
#
# Bulk Modulus (GPa) = 41.10183 42.38986 41.74585
# Shear Modulus (GPa) = 19.27573 22.49826 20.88699
#
# Velocity S-wave (km/s) = 3.17362 3.42866 3.30360
# Velocity P-wave (km/s) = 5.90809 6.15009 6.03031
#
# Compressibility (1/GPa) = 0.02432981
#
# Stress axis : x y z
#
# Youngs Moduli (GPa) = 74.30056 97.81681 58.01446
#
# Poissons Ratio (x) = 0.21567 0.29020
# Poissons Ratio (y) = 0.16382 0.06309
# Poissons Ratio (z) = 0.37167 0.10638
#
# Static dielectric constant tensor:
#      x y z
#    x 3.483080 0.000000 0.000000 
#    y 0.000000 3.603870 0.000000 
#    z 0.000000 0.000000 3.322810 
# 
# 
# High freq. dielectric constant tensor:
#      x y z
#    x 1.738600 0.000000 0.000000 
#    y 0.000000 1.752200 0.000000 
#    z 0.000000 0.000000 1.726260 
# 
# From -- ./inp_files/46095.got.cif
#   From: 2010.03.12/outbox.cif.g09.slc.cpg/sg63_24_cif.got.tgz:46095.got - 2010.04.10 19:34:48.
