data_PCOD8257827
_publ_section_title
;
Structure prediction by ZEFSAII (Michael W. Deem and Ramdas Pophale) SiO2 
 PCOD8257827
Probable space group: C M C M
;
_chemical_formula_sum "Si O2"
_cell_formula_units_Z 112
_cell_length_a 18.233737
_cell_length_b 17.175240
_cell_length_c 19.237534
_cell_angle_alpha 90.000000
_cell_angle_beta 90.000000
_cell_angle_gamma 90.000000
_cell_volume 6024.595612
_symmetry_space_group_name_H-M "C M C M"
_symmetry_group_IT_number 63
_symmetry_cell_setting 'orthorhombic'
loop_
_space_group_symop_operation_xyz
x,y,z
-x,-y,1/2+z
x,-y,-z
-x,y,1/2-z
-x,-y,-z
x,y,1/2-z
-x,y,z
x,-y,1/2+z
1/2+x,1/2+y,z
1/2-x,1/2-y,1/2+z
1/2+x,1/2-y,-z
1/2-x,1/2+y,1/2-z
1/2-x,1/2-y,-z
1/2+x,1/2+y,1/2-z
1/2-x,1/2+y,z
1/2+x,1/2-y,1/2+z
loop_
_atom_site_type_symbol
_atom_site_label
_atom_site_fract_x
_atom_site_fract_y
_atom_site_fract_z
Si Si1 0.082018 0.430927 0.832198
Si Si2 0.583260 0.653378 0.579283
Si Si3 0.301547 0.944514 0.331873
Si Si4 0.832986 0.999360 0.920796
Si Si5 0.415477 0.657637 0.080253
Si Si6 0.162813 0.277378 0.669631
Si Si7 0.676003 0.767584 0.329895
O O1 0.077255 0.424452 0.750000
O O2 0.124894 0.509085 0.853493
O O3 0.125667 0.355512 0.860645
O O4 0.000000 0.433384 0.864411
O O5 0.500000 0.665250 0.603450
O O6 0.603319 0.563130 0.587641
O O7 0.594759 0.680183 0.500106
O O8 0.635135 0.703182 0.628138
O O9 0.285864 0.950663 0.250000
O O10 0.310912 0.855689 0.355815
O O11 0.233832 0.984033 0.370033
O O12 0.868163 0.917509 0.899305
O O13 0.803836 0.000000 0.000000
O O14 0.500000 0.640506 0.097527
O O15 0.388607 0.730855 0.124969
O O16 0.142555 0.264145 0.750000
O O17 0.250222 0.282910 0.659838
O O18 0.650640 0.767845 0.250000
#
# Coordination Sequence:
#
# PCOD8257827 Si02
#       7
#    16  16  16  16  16  16  16
#     4   9  18  32  52  77 103 136 176 218 268 323
#     4  10  20  35  56  81 112 148 183 225 278 331
#     4  10  20  37  58  80 109 144 184 228 272 327
#     4  10  20  37  57  82 109 146 186 227 275 330
#     4  10  22  38  56  81 113 148 186 226 271 329
#     4  10  19  34  55  81 110 139 181 231 277 326
#     4  10  21  37  57  82 110 143 183 227 275 328
#
# _framework density 18.590458999999999
#
# number of rings (size 3 to 8) (size 9 to 14) (size 15 to 20)
#    0.000    2.143    1.429    1.714    0.000    5.714 
#    2.571    1.429    0.000    3.000    0.000    0.000 
#    0.000    0.000    0.000    0.000    0.000    0.000 
#
# Total GULP energy -694555.914046 kJ/mol
# GULP energy per Si atom -12402.784179 kJ/mol
# Density = 1.854815 g / cm^3
# Si number density = 18.590459 Si / 1000 Ang^3
#
#
#
# Elastic Constant Matrix: (Units=GPa)
#
#
# Indices 1 2 3 4 5 6 
#
# 1 92.1989 56.6743 41.0998 0.0000 0.0000 0.0000
# 2 56.6743 108.7945 40.4970 0.0000 0.0000 0.0000
# 3 41.0998 40.4970 52.7556 0.0000 0.0000 0.0000
# 4 0.0000 0.0000 0.0000 27.3830 0.0000 0.0000
# 5 0.0000 0.0000 0.0000 0.0000 22.7117 0.0000
# 6 0.0000 0.0000 0.0000 0.0000 0.0000 33.4749
#
#
#
# Elastic Compliance Matrix: (Units=1/GPa)
#
#
# Indices 1 2 3 4 5 6 
#
# 1 0.019210 -0.006211 -0.010198 0.000000 0.000000 0.000000
# 2 -0.006211 0.014877 -0.006581 0.000000 0.000000 0.000000
# 3 -0.010198 -0.006581 0.031952 0.000000 0.000000 0.000000
# 4 0.000000 0.000000 0.000000 0.036519 0.000000 0.000000
# 5 0.000000 0.000000 0.000000 0.000000 0.044030 0.000000
# 6 0.000000 0.000000 0.000000 0.000000 0.000000 0.029873
#
#
# Mechanical properties :
#
#
# Convention : Reuss Voigt Hill
#
# Bulk Modulus (GPa) = 49.85394 58.92124 54.38759
# Shear Modulus (GPa) = 21.82186 24.41245 23.11715
#
# Velocity S-wave (km/s) = 3.42982 3.62770 3.53015
# Velocity P-wave (km/s) = 6.52381 7.02212 6.77754
#
# Compressibility (1/GPa) = 0.02005860
#
# Stress axis : x y z
#
# Youngs Moduli (GPa) = 52.05631 67.21813 31.29677
#
# Poissons Ratio (x) = 0.41749 0.31916
# Poissons Ratio (y) = 0.32332 0.20597
# Poissons Ratio (z) = 0.53087 0.44238
#
# Static dielectric constant tensor:
#      x y z
#    x 3.488410 0.000000 0.000000 
#    y 0.000000 3.474330 0.000000 
#    z 0.000000 0.000000 3.232670 
# 
# 
# High freq. dielectric constant tensor:
#      x y z
#    x 1.726490 0.000000 0.000000 
#    y 0.000000 1.730170 0.000000 
#    z 0.000000 0.000000 1.699310 
# 
# From -- ./inp_files/55828.got.cif
#   From: 2010.03.12/outbox.cif.g09.slc.cpg/sg63_28_cif.got.tgz:55828.got - 2010.04.10 19:34:48.
