data_PCOD8257578
_publ_section_title
;
Structure prediction by ZEFSAII (Michael W. Deem and Ramdas Pophale) SiO2 
 PCOD8257578
Probable space group: C M C M
;
_chemical_formula_sum "Si O2"
_cell_formula_units_Z 88
_cell_length_a 22.479748
_cell_length_b 25.649785
_cell_length_c 7.876732
_cell_angle_alpha 90.000000
_cell_angle_beta 90.000000
_cell_angle_gamma 90.000000
_cell_volume 4541.729209
_symmetry_space_group_name_H-M "C M C M"
_symmetry_group_IT_number 63
_symmetry_cell_setting 'orthorhombic'
loop_
_space_group_symop_operation_xyz
x,y,z
-x,-y,1/2+z
x,-y,-z
-x,y,1/2-z
-x,-y,-z
x,y,1/2-z
-x,y,z
x,-y,1/2+z
1/2+x,1/2+y,z
1/2-x,1/2-y,1/2+z
1/2+x,1/2-y,-z
1/2-x,1/2+y,1/2-z
1/2-x,1/2-y,-z
1/2+x,1/2+y,1/2-z
1/2-x,1/2+y,z
1/2+x,1/2-y,1/2+z
loop_
_atom_site_type_symbol
_atom_site_label
_atom_site_fract_x
_atom_site_fract_y
_atom_site_fract_z
Si Si1 0.730731 0.364142 0.559105
Si Si2 0.065411 0.773555 0.250000
Si Si3 0.853683 0.346970 0.438718
Si Si4 0.500000 0.440709 0.449201
Si Si5 0.371107 0.559852 0.549786
Si Si6 0.645108 0.274234 0.556939
Si Si7 0.566712 0.850282 0.750000
O O1 0.754407 0.365561 0.750000
O O2 0.789234 0.374927 0.446147
O O3 0.680663 0.407648 0.537509
O O4 0.704343 0.307053 0.518120
O O5 0.096427 0.793994 0.421493
O O6 0.062341 0.711539 0.250000
O O7 0.000000 0.798485 0.250000
O O8 0.880688 0.356114 0.250000
O O9 0.841223 0.286190 0.474145
O O10 0.899251 0.369463 0.579407
O O11 0.500000 0.500000 0.500000
O O12 0.500000 0.435265 0.250000
O O13 0.436219 0.418193 0.515563
O O14 0.362463 0.500000 0.500000
O O15 0.365517 0.566582 0.750000
O O16 0.622332 0.284269 0.750000
O O17 0.500000 0.874227 0.750000
#
# Coordination Sequence:
#
# PCOD8257578 Si02
#       7
#    16   8  16   8  16  16   8
#     4  11  21  34  50  74 103 135 174 220 264 313
#     4   9  18  32  50  68  97 140 174 216 269 306
#     4  10  19  33  53  77 105 140 171 215 260 310
#     4   8  16  32  52  70  92 126 176 220 266 314
#     4  10  20  35  53  74  99 135 175 223 271 316
#     4   9  20  33  48  73 102 135 178 218 261 311
#     4   9  18  34  52  76 105 135 173 209 250 310
#
# _framework density 19.375879999999999
#
# number of rings (size 3 to 8) (size 9 to 14) (size 15 to 20)
#    0.000    2.364    0.909    1.636    2.545    1.455 
#    1.636    3.636    0.000    0.000    0.000    0.000 
#    0.000    0.727    0.364    0.000    0.000    0.000 
#
# Total GULP energy -545238.215472 kJ/mol
# GULP energy per Si atom -12391.777624 kJ/mol
# Density = 1.933178 g / cm^3
# Si number density = 19.375880 Si / 1000 Ang^3
#
#
#
# Elastic Constant Matrix: (Units=GPa)
#
#
# Indices 1 2 3 4 5 6 
#
# 1 149.7901 20.6890 63.8874 0.0000 0.0000 0.0000
# 2 20.6890 27.9031 3.1464 0.0000 0.0000 0.0000
# 3 63.8874 3.1464 105.2711 0.0000 0.0000 0.0000
# 4 0.0000 0.0000 0.0000 17.6939 0.0000 0.0000
# 5 0.0000 0.0000 0.0000 0.0000 28.8841 0.0000
# 6 0.0000 0.0000 0.0000 0.0000 0.0000 19.6048
#
#
#
# Elastic Compliance Matrix: (Units=1/GPa)
#
#
# Indices 1 2 3 4 5 6 
#
# 1 0.010169 -0.006867 -0.005966 0.000000 0.000000 0.000000
# 2 -0.006867 0.040597 0.002954 0.000000 0.000000 0.000000
# 3 -0.005966 0.002954 0.013032 0.000000 0.000000 0.000000
# 4 0.000000 0.000000 0.000000 0.056517 0.000000 0.000000
# 5 0.000000 0.000000 0.000000 0.000000 0.034621 0.000000
# 6 0.000000 0.000000 0.000000 0.000000 0.000000 0.051008
#
#
# Mechanical properties :
#
#
# Convention : Reuss Voigt Hill
#
# Bulk Modulus (GPa) = 22.70691 50.93441 36.82066
# Shear Modulus (GPa) = 20.80021 26.25266 23.52643
#
# Velocity S-wave (km/s) = 3.28000 3.68491 3.48834
# Velocity P-wave (km/s) = 5.10775 6.66703 5.93879
#
# Compressibility (1/GPa) = 0.04403946
#
# Stress axis : x y z
#
# Youngs Moduli (GPa) = 98.33614 24.63235 76.73523
#
# Poissons Ratio (x) = 0.16916 0.45782
# Poissons Ratio (y) = 0.67530 -0.22670
# Poissons Ratio (z) = 0.58670 -0.07277
#
# Static dielectric constant tensor:
#      x y z
#    x 3.714090 0.000000 0.000000 
#    y 0.000000 2.916580 0.000000 
#    z 0.000000 0.000000 3.897810 
# 
# 
# High freq. dielectric constant tensor:
#      x y z
#    x 1.753570 0.000000 0.000000 
#    y 0.000000 1.696680 0.000000 
#    z 0.000000 0.000000 1.767690 
# 
# From -- ./inp_files/9046.got.cif
#   From: 2010.03.12/outbox.cif.g09.slc.cpg/sg63_5_cif.got.tgz:9046.got - 2010.04.10 19:34:48.
