data_PCOD8257078
_publ_section_title
;
Structure prediction by ZEFSAII (Michael W. Deem and Ramdas Pophale) SiO2 
 PCOD8257078
Probable space group: C M C M
;
_chemical_formula_sum "Si O2"
_cell_formula_units_Z 96
_cell_length_a 30.870272
_cell_length_b 19.769477
_cell_length_c 8.719617
_cell_angle_alpha 90.000000
_cell_angle_beta 90.000000
_cell_angle_gamma 90.000000
_cell_volume 5321.487493
_symmetry_space_group_name_H-M "C M C M"
_symmetry_group_IT_number 63
_symmetry_cell_setting 'orthorhombic'
loop_
_space_group_symop_operation_xyz
x,y,z
-x,-y,1/2+z
x,-y,-z
-x,y,1/2-z
-x,-y,-z
x,y,1/2-z
-x,y,z
x,-y,1/2+z
1/2+x,1/2+y,z
1/2-x,1/2-y,1/2+z
1/2+x,1/2-y,-z
1/2-x,1/2+y,1/2-z
1/2-x,1/2-y,-z
1/2+x,1/2+y,1/2-z
1/2-x,1/2+y,z
1/2+x,1/2-y,1/2+z
loop_
_atom_site_type_symbol
_atom_site_label
_atom_site_fract_x
_atom_site_fract_y
_atom_site_fract_z
Si Si1 0.360768 0.074667 0.431849
Si Si2 0.046978 0.073892 0.929813
Si Si3 0.201050 0.317096 0.428570
Si Si4 0.866823 0.074479 0.069413
Si Si5 0.198587 0.823027 0.072052
Si Si6 0.954400 0.426858 0.929279
O O1 0.352429 0.073118 0.250000
O O2 0.325030 0.118572 0.515103
O O3 0.408398 0.107542 0.473554
O O4 0.357134 0.000000 0.500000
O O5 0.055965 0.068948 0.750000
O O6 0.000000 0.110114 0.960916
O O7 0.088362 0.109951 0.008784
O O8 0.044505 0.000000 0.000000
O O9 0.193476 0.303763 0.250000
O O10 0.184209 0.251612 0.519766
O O11 0.250950 0.332867 0.464712
O O12 0.868879 0.067946 0.250000
O O13 0.826625 0.120578 0.022941
O O14 0.860593 0.000000 0.000000
O O15 0.187696 0.832012 0.250000
O O16 0.954089 0.437841 0.750000
O O17 0.000000 0.388428 0.977310
O O18 0.955317 0.500000 0.000000
#
# Coordination Sequence:
#
# PCOD8257078 Si02
#       6
#    16  16  16  16  16  16
#     4  10  19  31  50  76 105 135 167 208 252 294
#     4   9  16  27  45  70 101 135 169 205 247 296
#     4  10  21  37  56  76  99 130 167 207 253 308
#     4  11  21  33  52  78 107 136 169 211 255 298
#     4  10  21  38  57  75  98 130 168 208 253 307
#     4   8  14  25  42  66  96 129 164 200 240 286
#
# _framework density 18.040068000000002
#
# number of rings (size 3 to 8) (size 9 to 14) (size 15 to 20)
#    0.000    2.333    0.000    4.500    0.000    4.333 
#    0.000    0.000    0.000    1.000    0.000    2.333 
#    0.000    0.000    0.000    0.000    0.000    0.000 
#
# Total GULP energy -594646.217586 kJ/mol
# GULP energy per Si atom -12388.462866 kJ/mol
# Density = 1.799901 g / cm^3
# Si number density = 18.040068 Si / 1000 Ang^3
#
#
#
# Elastic Constant Matrix: (Units=GPa)
#
#
# Indices 1 2 3 4 5 6 
#
# 1 117.9630 55.0158 52.3047 0.0000 0.0000 0.0000
# 2 55.0158 60.7906 26.2026 0.0000 0.0000 0.0000
# 3 52.3047 26.2026 90.7639 0.0000 0.0000 0.0000
# 4 0.0000 0.0000 0.0000 27.1855 0.0000 0.0000
# 5 0.0000 0.0000 0.0000 0.0000 27.4740 0.0000
# 6 0.0000 0.0000 0.0000 0.0000 0.0000 1.1254
#
#
#
# Elastic Compliance Matrix: (Units=1/GPa)
#
#
# Indices 1 2 3 4 5 6 
#
# 1 0.017275 -0.012955 -0.006215 0.000000 0.000000 0.000000
# 2 -0.012955 0.028503 -0.000763 0.000000 0.000000 0.000000
# 3 -0.006215 -0.000763 0.014819 0.000000 0.000000 0.000000
# 4 0.000000 0.000000 0.000000 0.036784 0.000000 0.000000
# 5 0.000000 0.000000 0.000000 0.000000 0.036398 0.000000
# 6 0.000000 0.000000 0.000000 0.000000 0.000000 0.888539
#
#
# Mechanical properties :
#
#
# Convention : Reuss Voigt Hill
#
# Bulk Modulus (GPa) = 48.23600 59.61819 53.92710
# Shear Modulus (GPa) = 4.67685 20.22327 12.45006
#
# Velocity S-wave (km/s) = 1.61186 3.35180 2.62989
# Velocity P-wave (km/s) = 5.50095 6.93533 6.25936
#
# Compressibility (1/GPa) = 0.02073140
#
# Stress axis : x y z
#
# Youngs Moduli (GPa) = 57.88699 35.08380 67.47889
#
# Poissons Ratio (x) = 0.45451 0.41939
# Poissons Ratio (y) = 0.74993 0.05148
# Poissons Ratio (z) = 0.35977 0.02677
#
# Static dielectric constant tensor:
#      x y z
#    x 4.211140 0.000000 0.000000 
#    y 0.000000 2.692410 0.000000 
#    z 0.000000 0.000000 3.573310 
# 
# 
# High freq. dielectric constant tensor:
#      x y z
#    x 1.725150 0.000000 0.000000 
#    y 0.000000 1.645010 0.000000 
#    z 0.000000 0.000000 1.715460 
# 
# From -- ./inp_files/12404.got.cif
#   From: 2010.03.12/outbox.cif.g09.slc.cpg/sg63_7_cif.got.tgz:12404.got - 2010.04.10 19:34:48.
