data_PCOD8257676
_publ_section_title
;
Structure prediction by ZEFSAII (Michael W. Deem and Ramdas Pophale) SiO2 
 PCOD8257676
Probable space group: C M C M
;
_chemical_formula_sum "Si O2"
_cell_formula_units_Z 88
_cell_length_a 21.493420
_cell_length_b 22.518457
_cell_length_c 9.485998
_cell_angle_alpha 90.000000
_cell_angle_beta 90.000000
_cell_angle_gamma 90.000000
_cell_volume 4591.210264
_symmetry_space_group_name_H-M "C M C M"
_symmetry_group_IT_number 63
_symmetry_cell_setting 'orthorhombic'
loop_
_space_group_symop_operation_xyz
x,y,z
-x,-y,1/2+z
x,-y,-z
-x,y,1/2-z
-x,-y,-z
x,y,1/2-z
-x,y,z
x,-y,1/2+z
1/2+x,1/2+y,z
1/2-x,1/2-y,1/2+z
1/2+x,1/2-y,-z
1/2-x,1/2+y,1/2-z
1/2-x,1/2-y,-z
1/2+x,1/2+y,1/2-z
1/2-x,1/2+y,z
1/2+x,1/2-y,1/2+z
loop_
_atom_site_type_symbol
_atom_site_label
_atom_site_fract_x
_atom_site_fract_y
_atom_site_fract_z
Si Si1 0.863576 0.437248 0.918012
Si Si2 0.573047 0.461487 0.250000
Si Si3 0.572769 0.637282 0.959037
Si Si4 0.702118 0.165043 0.915424
Si Si5 0.828186 0.227547 0.595305
Si Si6 0.573617 0.408370 0.750000
Si Si7 0.500000 0.057212 0.408487
O O1 0.847931 0.444373 0.750000
O O2 0.934035 0.409159 0.936383
O O3 0.858528 0.500000 0.000000
O O4 0.815700 0.392924 0.994354
O O5 0.500000 0.471416 0.250000
O O6 0.593315 0.424303 0.113454
O O7 0.605411 0.526193 0.250000
O O8 0.500000 0.648681 0.937874
O O9 0.606632 0.693695 0.894152
O O10 0.594792 0.630628 0.118832
O O11 0.685745 0.156139 0.750000
O O12 0.774939 0.178965 0.940119
O O13 0.665450 0.221889 0.977266
O O14 0.814633 0.256048 0.750000
O O15 0.500000 0.417300 0.750000
O O16 0.500000 0.033697 0.250000
O O17 0.500000 0.000000 0.500000
#
# Coordination Sequence:
#
# PCOD8257676 Si02
#       7
#    16   8  16  16  16   8   8
#     4  10  19  36  61  89 120 150 184 228 281 334
#     4   9  16  30  52  75 104 144 185 215 272 332
#     4  10  19  33  55  81 110 144 180 232 283 323
#     4  10  22  39  60  81 107 149 192 229 274 334
#     4  10  21  39  59  79 107 146 192 232 276 334
#     4   9  18  30  48  77 112 146 179 219 268 334
#     4   8  16  30  54  84 114 148 178 216 271 334
#
# _framework density 19.167059999999999
#
# number of rings (size 3 to 8) (size 9 to 14) (size 15 to 20)
#    0.000    2.364    0.909    1.636    1.273    3.636 
#    1.636    1.818    0.000    0.000    0.000    0.000 
#    0.000    0.000    0.000    0.000    0.000    0.000 
#
# Total GULP energy -545146.942022 kJ/mol
# GULP energy per Si atom -12389.703228 kJ/mol
# Density = 1.912343 g / cm^3
# Si number density = 19.167060 Si / 1000 Ang^3
#
#
#
# Elastic Constant Matrix: (Units=GPa)
#
#
# Indices 1 2 3 4 5 6 
#
# 1 54.4150 40.8400 32.4581 0.0000 0.0000 0.0000
# 2 40.8400 87.8958 45.3022 0.0000 0.0000 0.0000
# 3 32.4581 45.3022 138.5139 0.0000 0.0000 0.0000
# 4 0.0000 0.0000 0.0000 42.2486 0.0000 0.0000
# 5 0.0000 0.0000 0.0000 0.0000 21.3038 0.0000
# 6 0.0000 0.0000 0.0000 0.0000 0.0000 24.9547
#
#
#
# Elastic Compliance Matrix: (Units=1/GPa)
#
#
# Indices 1 2 3 4 5 6 
#
# 1 0.029147 -0.012055 -0.002887 0.000000 0.000000 0.000000
# 2 -0.012055 0.018669 -0.003281 0.000000 0.000000 0.000000
# 3 -0.002887 -0.003281 0.008969 0.000000 0.000000 0.000000
# 4 0.000000 0.000000 0.000000 0.023669 0.000000 0.000000
# 5 0.000000 0.000000 0.000000 0.000000 0.046940 0.000000
# 6 0.000000 0.000000 0.000000 0.000000 0.000000 0.040073
#
#
# Mechanical properties :
#
#
# Convention : Reuss Voigt Hill
#
# Bulk Modulus (GPa) = 49.16672 57.55835 53.36253
# Shear Modulus (GPa) = 23.73112 28.51639 26.12376
#
# Velocity S-wave (km/s) = 3.52251 3.86136 3.69582
# Velocity P-wave (km/s) = 6.50011 7.06931 6.79068
#
# Compressibility (1/GPa) = 0.02033896
#
# Stress axis : x y z
#
# Youngs Moduli (GPa) = 34.30888 53.56372 111.49203
#
# Poissons Ratio (x) = 0.64569 0.32193
# Poissons Ratio (y) = 0.41358 0.36583
# Poissons Ratio (z) = 0.09907 0.17575
#
# Static dielectric constant tensor:
#      x y z
#    x 3.495860 0.000000 0.000000 
#    y 0.000000 4.063230 0.000000 
#    z 0.000000 0.000000 3.819070 
# 
# 
# High freq. dielectric constant tensor:
#      x y z
#    x 1.723100 0.000000 0.000000 
#    y 0.000000 1.723620 0.000000 
#    z 0.000000 0.000000 1.768670 
# 
# From -- ./inp_files/8266.got.cif
#   From: 2010.03.12/outbox.cif.g09.slc.cpg/sg63_5_cif.got.tgz:8266.got - 2010.04.10 19:34:48.
