data_PCOD8257980
_publ_section_title
;
Structure prediction by ZEFSAII (Michael W. Deem and Ramdas Pophale) SiO2 
 PCOD8257980
Probable space group: C M C M
;
_chemical_formula_sum "Si O2"
_cell_formula_units_Z 88
_cell_length_a 22.682284
_cell_length_b 10.977243
_cell_length_c 19.019251
_cell_angle_alpha 90.000000
_cell_angle_beta 90.000000
_cell_angle_gamma 90.000000
_cell_volume 4735.583208
_symmetry_space_group_name_H-M "C M C M"
_symmetry_group_IT_number 63
_symmetry_cell_setting 'orthorhombic'
loop_
_space_group_symop_operation_xyz
x,y,z
-x,-y,1/2+z
x,-y,-z
-x,y,1/2-z
-x,-y,-z
x,y,1/2-z
-x,y,z
x,-y,1/2+z
1/2+x,1/2+y,z
1/2-x,1/2-y,1/2+z
1/2+x,1/2-y,-z
1/2-x,1/2+y,1/2-z
1/2-x,1/2-y,-z
1/2+x,1/2+y,1/2-z
1/2-x,1/2+y,z
1/2+x,1/2-y,1/2+z
loop_
_atom_site_type_symbol
_atom_site_label
_atom_site_fract_x
_atom_site_fract_y
_atom_site_fract_z
Si Si1 0.728824 0.544312 0.750000
Si Si2 0.877647 0.161344 0.385036
Si Si3 0.694924 0.721174 0.250000
Si Si4 0.806051 0.066104 0.594782
Si Si5 0.000000 0.808530 0.450507
Si Si6 0.876739 0.718288 0.472976
Si Si7 0.799601 0.500000 0.500000
Si Si8 0.500000 0.566297 0.102213
O O1 0.741379 0.395407 0.750000
O O2 0.781879 0.640663 0.750000
O O3 0.692828 0.574387 0.820496
O O4 0.844436 0.213676 0.318688
O O5 0.882524 0.266333 0.443068
O O6 0.941373 0.113872 0.358900
O O7 0.842299 0.054381 0.425905
O O8 0.837849 0.182746 0.565677
O O9 0.740714 0.060224 0.560979
O O10 0.942736 0.722395 0.440626
O O11 0.000000 0.878586 0.524246
O O12 0.000000 0.918930 0.394422
O O13 0.842625 0.593083 0.459711
#
# Coordination Sequence:
#
# PCOD8257980 Si02
#       8
#     8  16   8  16   8  16   8   8
#     4  10  24  36  54  78 116 148 188 223 285 348
#     4  10  19  35  56  81 109 139 188 234 280 329
#     4  10  22  37  52  80 116 149 178 237 283 340
#     4  11  21  36  55  81 111 147 184 235 278 338
#     4   9  18  33  56  76 109 142 181 233 272 329
#     4  11  21  36  56  82 111 148 191 227 281 337
#     4  12  24  31  56  85 116 152 180 234 280 340
#     4   9  16  31  56  82  97 140 187 231 283 313
#
# _framework density 18.582716000000001
#
# number of rings (size 3 to 8) (size 9 to 14) (size 15 to 20)
#    0.000    1.636    3.636    1.636    5.091    0.727 
#    0.000    0.000    0.000    0.545    0.000    0.000 
#    0.000    0.000    0.000    0.000    0.000    0.000 
#
# Total GULP energy -545290.742047 kJ/mol
# GULP energy per Si atom -12392.971410 kJ/mol
# Density = 1.854042 g / cm^3
# Si number density = 18.582716 Si / 1000 Ang^3
#
#
#
# Elastic Constant Matrix: (Units=GPa)
#
#
# Indices 1 2 3 4 5 6 
#
# 1 138.2174 53.8206 16.7655 0.0000 0.0000 0.0000
# 2 53.8206 44.0846 18.7778 0.0000 0.0000 0.0000
# 3 16.7655 18.7778 68.2633 0.0000 0.0000 0.0000
# 4 0.0000 0.0000 0.0000 15.6278 0.0000 0.0000
# 5 0.0000 0.0000 0.0000 0.0000 9.9748 0.0000
# 6 0.0000 0.0000 0.0000 0.0000 0.0000 19.2804
#
#
#
# Elastic Compliance Matrix: (Units=1/GPa)
#
#
# Indices 1 2 3 4 5 6 
#
# 1 0.013912 -0.017590 0.001422 0.000000 0.000000 0.000000
# 2 -0.017590 0.047935 -0.008866 0.000000 0.000000 0.000000
# 3 0.001422 -0.008866 0.016739 0.000000 0.000000 0.000000
# 4 0.000000 0.000000 0.000000 0.063988 0.000000 0.000000
# 5 0.000000 0.000000 0.000000 0.000000 0.100253 0.000000
# 6 0.000000 0.000000 0.000000 0.000000 0.000000 0.051866
#
#
# Mechanical properties :
#
#
# Convention : Reuss Voigt Hill
#
# Bulk Modulus (GPa) = 35.06602 47.69924 41.38263
# Shear Modulus (GPa) = 14.11370 19.72336 16.91853
#
# Velocity S-wave (km/s) = 2.75890 3.26142 3.02063
# Velocity P-wave (km/s) = 5.39073 6.31718 5.87225
#
# Compressibility (1/GPa) = 0.02851764
#
# Stress axis : x y z
#
# Youngs Moduli (GPa) = 71.88120 20.86176 59.74169
#
# Poissons Ratio (x) = 0.36696 -0.08494
# Poissons Ratio (y) = 1.26438 0.52965
# Poissons Ratio (z) = -0.10221 0.18496
#
# Static dielectric constant tensor:
#      x y z
#    x 3.630520 0.000000 0.000000 
#    y 0.000000 3.443940 0.000000 
#    z 0.000000 0.000000 3.285350 
# 
# 
# High freq. dielectric constant tensor:
#      x y z
#    x 1.720250 0.000000 0.000000 
#    y 0.000000 1.708510 0.000000 
#    z 0.000000 0.000000 1.707750 
# 
# From -- ./inp_files/57421.got.cif
#   From: 2010.03.12/outbox.cif.g09.slc.cpg/sg63_29_cif.got.tgz:57421.got - 2010.04.10 19:34:48.
