data_PCOD8257706
_publ_section_title
;
Structure prediction by ZEFSAII (Michael W. Deem and Ramdas Pophale) SiO2 
 PCOD8257706
Probable space group: C M C M
;
_chemical_formula_sum "Si O2"
_cell_formula_units_Z 80
_cell_length_a 13.636279
_cell_length_b 18.501091
_cell_length_c 17.195002
_cell_angle_alpha 90.000000
_cell_angle_beta 90.000000
_cell_angle_gamma 90.000000
_cell_volume 4338.058940
_symmetry_space_group_name_H-M "C M C M"
_symmetry_group_IT_number 63
_symmetry_cell_setting 'orthorhombic'
loop_
_space_group_symop_operation_xyz
x,y,z
-x,-y,1/2+z
x,-y,-z
-x,y,1/2-z
-x,-y,-z
x,y,1/2-z
-x,y,z
x,-y,1/2+z
1/2+x,1/2+y,z
1/2-x,1/2-y,1/2+z
1/2+x,1/2-y,-z
1/2-x,1/2+y,1/2-z
1/2-x,1/2-y,-z
1/2+x,1/2+y,1/2-z
1/2-x,1/2+y,z
1/2+x,1/2-y,1/2+z
loop_
_atom_site_type_symbol
_atom_site_label
_atom_site_fract_x
_atom_site_fract_y
_atom_site_fract_z
Si Si1 0.115524 0.613380 0.341062
Si Si2 0.111021 0.882523 0.160010
Si Si3 0.716492 0.749607 0.588190
Si Si4 0.702671 0.965068 0.159550
Si Si5 0.107335 0.679706 0.658446
O O1 0.138494 0.625550 0.250000
O O2 0.161398 0.677241 0.390976
O O3 0.166070 0.540738 0.375706
O O4 0.000000 0.608935 0.355927
O O5 0.121820 0.857514 0.250000
O O6 0.142099 0.815869 0.105948
O O7 0.181080 0.951828 0.144509
O O8 0.000000 0.905680 0.140503
O O9 0.750000 0.750000 0.500000
O O10 0.816343 0.742634 0.637739
O O11 0.677824 0.968668 0.250000
O O12 0.643773 0.897077 0.123065
O O13 0.101726 0.673341 0.750000
O O14 0.000000 0.697857 0.623626
#
# Coordination Sequence:
#
# PCOD8257706 Si02
#       5
#    16  16  16  16  16
#     4  10  19  33  56  82 104 127 161 210 260 299
#     4   9  17  33  57  78  98 132 175 213 250 299
#     4  11  22  33  47  71 106 138 169 207 247 295
#     4   8  15  29  52  81 104 122 157 210 259 299
#     4   9  17  32  52  70  93 130 171 206 245 297
#
# _framework density 18.441427000000001
#
# number of rings (size 3 to 8) (size 9 to 14) (size 15 to 20)
#    0.000    2.600    0.000    4.200    0.000    5.600 
#    0.000    5.000    0.000   10.800    0.000    0.000 
#    0.000    0.000    0.000    0.000    0.000    0.000 
#
# Total GULP energy -495813.488699 kJ/mol
# GULP energy per Si atom -12395.337217 kJ/mol
# Density = 1.839945 g / cm^3
# Si number density = 18.441427 Si / 1000 Ang^3
#
#
#
# Elastic Constant Matrix: (Units=GPa)
#
#
# Indices 1 2 3 4 5 6 
#
# 1 167.3705 64.7011 34.8357 0.0000 0.0000 0.0000
# 2 64.7011 115.9194 33.3989 0.0000 0.0000 0.0000
# 3 34.8357 33.3989 49.9592 0.0000 0.0000 0.0000
# 4 0.0000 0.0000 0.0000 6.1104 0.0000 0.0000
# 5 0.0000 0.0000 0.0000 0.0000 18.7665 0.0000
# 6 0.0000 0.0000 0.0000 0.0000 0.0000 29.5017
#
#
#
# Elastic Compliance Matrix: (Units=1/GPa)
#
#
# Indices 1 2 3 4 5 6 
#
# 1 0.008016 -0.003547 -0.003218 0.000000 0.000000 0.000000
# 2 -0.003547 0.012254 -0.005719 0.000000 0.000000 0.000000
# 3 -0.003218 -0.005719 0.026084 0.000000 0.000000 0.000000
# 4 0.000000 0.000000 0.000000 0.163656 0.000000 0.000000
# 5 0.000000 0.000000 0.000000 0.000000 0.053286 0.000000
# 6 0.000000 0.000000 0.000000 0.000000 0.000000 0.033896
#
#
# Mechanical properties :
#
#
# Convention : Reuss Voigt Hill
#
# Bulk Modulus (GPa) = 46.76064 66.56893 56.66479
# Shear Modulus (GPa) = 15.18426 24.22996 19.70711
#
# Velocity S-wave (km/s) = 2.87257 3.62869 3.27254
# Velocity P-wave (km/s) = 6.03436 7.33024 6.71364
#
# Compressibility (1/GPa) = 0.02138551
#
# Stress axis : x y z
#
# Youngs Moduli (GPa) = 124.75581 81.60518 38.33837
#
# Poissons Ratio (x) = 0.28944 0.12338
# Poissons Ratio (y) = 0.44248 0.21926
# Poissons Ratio (z) = 0.40147 0.46670
#
# Static dielectric constant tensor:
#      x y z
#    x 1.854370 0.000000 0.000000 
#    y 0.000000 3.458810 0.000000 
#    z 0.000000 0.000000 3.045250 
# 
# 
# High freq. dielectric constant tensor:
#      x y z
#    x 1.731570 0.000000 0.000000 
#    y 0.000000 1.703070 0.000000 
#    z 0.000000 0.000000 1.677570 
# 
# From -- ./inp_files/43928.got.cif
#   From: 2010.03.12/outbox.cif.g09.slc.cpg/sg63_22_cif.got.tgz:43928.got - 2010.04.10 19:34:48.
