data_PCOD8257533
_publ_section_title
;
Structure prediction by ZEFSAII (Michael W. Deem and Ramdas Pophale) SiO2 
 PCOD8257533
Probable space group: C M C M
;
_chemical_formula_sum "Si O2"
_cell_formula_units_Z 128
_cell_length_a 23.740110
_cell_length_b 11.628816
_cell_length_c 24.505082
_cell_angle_alpha 90.000000
_cell_angle_beta 90.000000
_cell_angle_gamma 90.000000
_cell_volume 6765.102574
_symmetry_space_group_name_H-M "C M C M"
_symmetry_group_IT_number 63
_symmetry_cell_setting 'orthorhombic'
loop_
_space_group_symop_operation_xyz
x,y,z
-x,-y,1/2+z
x,-y,-z
-x,y,1/2-z
-x,-y,-z
x,y,1/2-z
-x,y,z
x,-y,1/2+z
1/2+x,1/2+y,z
1/2-x,1/2-y,1/2+z
1/2+x,1/2-y,-z
1/2-x,1/2+y,1/2-z
1/2-x,1/2-y,-z
1/2+x,1/2+y,1/2-z
1/2-x,1/2+y,z
1/2+x,1/2-y,1/2+z
loop_
_atom_site_type_symbol
_atom_site_label
_atom_site_fract_x
_atom_site_fract_y
_atom_site_fract_z
Si Si1 0.724842 0.235442 0.639685
Si Si2 0.136547 0.426409 0.189670
Si Si3 0.658654 0.187467 0.311293
Si Si4 0.110495 0.695307 0.420760
Si Si5 0.671319 0.595275 0.064443
Si Si6 0.437017 0.719992 0.023599
Si Si7 0.293306 0.652196 0.548401
Si Si8 0.565091 0.050210 0.911581
O O1 0.685051 0.165615 0.679463
O O2 0.781469 0.258955 0.673062
O O3 0.692136 0.351214 0.621388
O O4 0.736288 0.161325 0.584027
O O5 0.111588 0.406435 0.250000
O O6 0.165391 0.550719 0.185175
O O7 0.085097 0.409434 0.148078
O O8 0.641256 0.227121 0.250000
O O9 0.609848 0.224236 0.355274
O O10 0.067317 0.770573 0.457391
O O11 0.172800 0.729001 0.441668
O O12 0.100296 0.560282 0.431146
O O13 0.607635 0.631345 0.048677
O O14 0.671050 0.457904 0.069974
O O15 0.715535 0.636668 0.016710
O O16 0.500000 0.678638 0.039144
O O17 0.424188 0.846997 0.046475
O O18 0.500000 0.014662 0.908565
#
# Coordination Sequence:
#
# PCOD8257533 Si02
#       8
#    16  16  16  16  16  16  16  16
#     4  11  18  32  52  73  99 143 177 209 257 304
#     4  10  20  33  49  75 104 132 173 216 256 309
#     4   9  19  33  49  71 102 135 170 213 256 302
#     4   9  18  32  51  74 102 134 168 212 258 308
#     4  10  19  34  50  74 107 142 173 214 259 314
#     4  10  19  33  53  78 105 135 172 214 262 312
#     4   9  20  33  49  75 108 138 174 212 255 318
#     4  10  19  33  52  76 105 136 171 216 262 306
#
# _framework density 18.920629999999999
#
# number of rings (size 3 to 8) (size 9 to 14) (size 15 to 20)
#    0.000    2.250    1.250    2.250    0.000    1.250 
#    0.000    6.875    0.000    1.875    0.000    0.000 
#    0.000    0.000    0.000    0.000    0.000    0.000 
#
# Total GULP energy -793134.189581 kJ/mol
# GULP energy per Si atom -12392.721712 kJ/mol
# Density = 1.887757 g / cm^3
# Si number density = 18.920630 Si / 1000 Ang^3
#
#
#
# Elastic Constant Matrix: (Units=GPa)
#
#
# Indices 1 2 3 4 5 6 
#
# 1 48.2945 25.8264 29.4587 0.0000 0.0000 0.0000
# 2 25.8264 62.2024 27.7060 0.0000 0.0000 0.0000
# 3 29.4587 27.7060 97.1939 0.0000 0.0000 0.0000
# 4 0.0000 0.0000 0.0000 21.0910 0.0000 0.0000
# 5 0.0000 0.0000 0.0000 0.0000 24.6956 0.0000
# 6 0.0000 0.0000 0.0000 0.0000 0.0000 19.9477
#
#
#
# Elastic Compliance Matrix: (Units=1/GPa)
#
#
# Indices 1 2 3 4 5 6 
#
# 1 0.029610 -0.009503 -0.006266 0.000000 0.000000 0.000000
# 2 -0.009503 0.021465 -0.003238 0.000000 0.000000 0.000000
# 3 -0.006266 -0.003238 0.013111 0.000000 0.000000 0.000000
# 4 0.000000 0.000000 0.000000 0.047414 0.000000 0.000000
# 5 0.000000 0.000000 0.000000 0.000000 0.040493 0.000000
# 6 0.000000 0.000000 0.000000 0.000000 0.000000 0.050131
#
#
# Mechanical properties :
#
#
# Convention : Reuss Voigt Hill
#
# Bulk Modulus (GPa) = 38.20979 41.51922 39.86451
# Shear Modulus (GPa) = 20.08334 21.46014 20.77174
#
# Velocity S-wave (km/s) = 3.26153 3.37147 3.31695
# Velocity P-wave (km/s) = 5.86703 6.09486 5.98203
#
# Compressibility (1/GPa) = 0.02617130
#
# Stress axis : x y z
#
# Youngs Moduli (GPa) = 33.77195 46.58797 76.27247
#
# Poissons Ratio (x) = 0.44274 0.47790
# Poissons Ratio (y) = 0.32095 0.24699
# Poissons Ratio (z) = 0.21160 0.15087
#
# Static dielectric constant tensor:
#      x y z
#    x 3.265900 0.000000 0.000000 
#    y 0.000000 3.393920 0.000000 
#    z 0.000000 0.000000 3.726440 
# 
# 
# High freq. dielectric constant tensor:
#      x y z
#    x 1.712730 0.000000 0.000000 
#    y 0.000000 1.726170 0.000000 
#    z 0.000000 0.000000 1.735840 
# 
# From -- ./inp_files/70837.got.cif
#   From: 2010.03.12/outbox.cif.g09.slc.cpg/sg63_36_cif.got.tgz:70837.got - 2010.04.10 19:34:48.
