data_PCOD8257181
_publ_section_title
;
Structure prediction by ZEFSAII (Michael W. Deem and Ramdas Pophale) SiO2 
 PCOD8257181
Probable space group: C M C M
;
_chemical_formula_sum "Si O2"
_cell_formula_units_Z 96
_cell_length_a 31.209925
_cell_length_b 9.634734
_cell_length_c 15.779645
_cell_angle_alpha 90.000000
_cell_angle_beta 90.000000
_cell_angle_gamma 90.000000
_cell_volume 4744.928609
_symmetry_space_group_name_H-M "C M C M"
_symmetry_group_IT_number 63
_symmetry_cell_setting 'orthorhombic'
loop_
_space_group_symop_operation_xyz
x,y,z
-x,-y,1/2+z
x,-y,-z
-x,y,1/2-z
-x,-y,-z
x,y,1/2-z
-x,y,z
x,-y,1/2+z
1/2+x,1/2+y,z
1/2-x,1/2-y,1/2+z
1/2+x,1/2-y,-z
1/2-x,1/2+y,1/2-z
1/2-x,1/2-y,-z
1/2+x,1/2+y,1/2-z
1/2-x,1/2+y,z
1/2+x,1/2-y,1/2+z
loop_
_atom_site_type_symbol
_atom_site_label
_atom_site_fract_x
_atom_site_fract_y
_atom_site_fract_z
Si Si1 0.375078 0.183282 0.350103
Si Si2 0.147008 0.375386 0.350755
Si Si3 0.266932 0.875890 0.056914
Si Si4 0.824384 0.931776 0.408879
Si Si5 0.452450 0.369507 0.149490
Si Si6 0.895001 0.891532 0.655356
O O1 0.365371 0.198056 0.250000
O O2 0.340998 0.272784 0.403884
O O3 0.423154 0.235911 0.372121
O O4 0.369700 0.025066 0.380994
O O5 0.148685 0.366450 0.250000
O O6 0.194355 0.333339 0.382361
O O7 0.113677 0.259033 0.387523
O O8 0.226307 0.932030 0.111312
O O9 0.250000 0.750000 0.000000
O O10 0.284909 0.000000 0.000000
O O11 0.833917 0.000000 0.500000
O O12 0.850310 0.022446 0.340711
O O13 0.454730 0.386752 0.250000
O O14 0.500000 0.349005 0.110949
O O15 0.430954 0.510967 0.110189
O O16 0.910694 0.863421 0.750000
#
# Coordination Sequence:
#
# PCOD8257181 Si02
#       6
#    16  16  16  16  16  16
#     4   9  18  32  50  73 101 130 164 207 255 306
#     4  10  20  33  49  72 102 135 168 208 258 304
#     4  11  22  35  49  70 100 133 172 213 248 291
#     4  10  19  32  49  69  93 128 171 208 245 289
#     4   8  14  28  51  74  96 126 162 200 245 301
#     4   9  18  32  49  70  97 126 160 201 244 295
#
# _framework density 20.232126999999998
#
# number of rings (size 3 to 8) (size 9 to 14) (size 15 to 20)
#    0.000    2.500    0.000    4.500    0.000    1.333 
#    0.000    5.000    0.000   13.000    0.000    0.000 
#    0.000   17.333    0.000    0.000    0.000    0.000 
#
# Total GULP energy -594745.523759 kJ/mol
# GULP energy per Si atom -12390.531745 kJ/mol
# Density = 2.018608 g / cm^3
# Si number density = 20.232127 Si / 1000 Ang^3
#
#
#
# Elastic Constant Matrix: (Units=GPa)
#
#
# Indices 1 2 3 4 5 6 
#
# 1 138.3031 53.6583 17.1688 0.0000 0.0000 0.0000
# 2 53.6583 160.0877 15.0678 0.0000 0.0000 0.0000
# 3 17.1688 15.0678 18.8576 0.0000 0.0000 0.0000
# 4 0.0000 0.0000 0.0000 27.1423 0.0000 0.0000
# 5 0.0000 0.0000 0.0000 0.0000 12.3149 0.0000
# 6 0.0000 0.0000 0.0000 0.0000 0.0000 24.9732
#
#
#
# Elastic Compliance Matrix: (Units=1/GPa)
#
#
# Indices 1 2 3 4 5 6 
#
# 1 0.008937 -0.002411 -0.006210 0.000000 0.000000 0.000000
# 2 -0.002411 0.007405 -0.003722 0.000000 0.000000 0.000000
# 3 -0.006210 -0.003722 0.061657 0.000000 0.000000 0.000000
# 4 0.000000 0.000000 0.000000 0.036843 0.000000 0.000000
# 5 0.000000 0.000000 0.000000 0.000000 0.081202 0.000000
# 6 0.000000 0.000000 0.000000 0.000000 0.000000 0.040043
#
#
# Mechanical properties :
#
#
# Convention : Reuss Voigt Hill
#
# Bulk Modulus (GPa) = 18.75715 54.33759 36.54737
# Shear Modulus (GPa) = 17.95054 28.30964 23.13009
#
# Velocity S-wave (km/s) = 2.98187 3.74470 3.38485
# Velocity P-wave (km/s) = 4.59853 6.75370 5.77750
#
# Compressibility (1/GPa) = 0.05331301
#
# Stress axis : x y z
#
# Youngs Moduli (GPa) = 111.89705 135.04434 16.21881
#
# Poissons Ratio (x) = 0.32558 0.10072
# Poissons Ratio (y) = 0.26978 0.06036
# Poissons Ratio (z) = 0.69489 0.50261
#
# Static dielectric constant tensor:
#      x y z
#    x 3.863360 0.000000 0.000000 
#    y 0.000000 2.943410 0.000000 
#    z 0.000000 0.000000 3.290140 
# 
# 
# High freq. dielectric constant tensor:
#      x y z
#    x 1.775190 0.000000 0.000000 
#    y 0.000000 1.804200 0.000000 
#    z 0.000000 0.000000 1.753480 
# 
# From -- ./inp_files/58117.got.cif
#   From: 2010.03.12/outbox.cif.g09.slc.cpg/sg63_30_cif.got.tgz:58117.got - 2010.04.10 19:34:48.
