data_PCOD8257060
_publ_section_title
;
Structure prediction by ZEFSAII (Michael W. Deem and Ramdas Pophale) SiO2 
 PCOD8257060
Probable space group: C M C M
;
_chemical_formula_sum "Si O2"
_cell_formula_units_Z 96
_cell_length_a 9.357741
_cell_length_b 30.151557
_cell_length_c 19.239748
_cell_angle_alpha 90.000000
_cell_angle_beta 90.000000
_cell_angle_gamma 90.000000
_cell_volume 5428.503771
_symmetry_space_group_name_H-M "C M C M"
_symmetry_group_IT_number 63
_symmetry_cell_setting 'orthorhombic'
loop_
_space_group_symop_operation_xyz
x,y,z
-x,-y,1/2+z
x,-y,-z
-x,y,1/2-z
-x,-y,-z
x,y,1/2-z
-x,y,z
x,-y,1/2+z
1/2+x,1/2+y,z
1/2-x,1/2-y,1/2+z
1/2+x,1/2-y,-z
1/2-x,1/2+y,1/2-z
1/2-x,1/2-y,-z
1/2+x,1/2+y,1/2-z
1/2-x,1/2+y,z
1/2+x,1/2-y,1/2+z
loop_
_atom_site_type_symbol
_atom_site_label
_atom_site_fract_x
_atom_site_fract_y
_atom_site_fract_z
Si Si1 0.168698 0.133563 0.583057
Si Si2 0.330388 0.285153 0.172575
Si Si3 0.330373 0.186422 0.327397
Si Si4 0.665376 0.983410 0.574622
Si Si5 0.833684 0.381322 0.557955
Si Si6 0.666935 0.547459 0.829973
O O1 0.228310 0.178379 0.618933
O O2 0.246497 0.128629 0.510629
O O3 0.210775 0.092852 0.632456
O O4 0.000000 0.135527 0.569950
O O5 0.271099 0.295155 0.250000
O O6 0.500000 0.288314 0.174758
O O7 0.281714 0.235841 0.149098
O O8 0.270523 0.175979 0.250000
O O9 0.500000 0.183927 0.325126
O O10 0.271350 0.150529 0.381807
O O11 0.500000 0.996465 0.582079
O O12 0.691188 0.931301 0.582767
O O13 0.723669 0.000000 0.500000
O O14 0.750897 0.006478 0.636222
O O15 0.000000 0.372216 0.542824
O O16 0.712841 0.551521 0.750000
O O17 0.500000 0.537994 0.837758
#
# Coordination Sequence:
#
# PCOD8257060 Si02
#       6
#    16  16  16  16  16  16
#     4  10  19  31  50  75 102 131 161 197 245 298
#     4   8  14  27  48  72  98 128 163 202 242 287
#     4   8  15  29  49  72  96 125 164 207 246 286
#     4  10  20  35  52  71  99 135 171 205 248 298
#     4  10  20  33  51  74 100 129 164 206 247 293
#     4  10  21  35  52  76 102 129 166 209 249 294
#
# _framework density 17.684431
#
# number of rings (size 3 to 8) (size 9 to 14) (size 15 to 20)
#    0.000    2.667    1.667    1.500    0.000    4.667 
#    0.000    1.667    0.000    2.000    0.000    2.333 
#    0.000    0.000    0.000    0.000    0.000    0.000 
#
# Total GULP energy -595134.360869 kJ/mol
# GULP energy per Si atom -12398.632518 kJ/mol
# Density = 1.764418 g / cm^3
# Si number density = 17.684431 Si / 1000 Ang^3
#
#
#
# Elastic Constant Matrix: (Units=GPa)
#
#
# Indices 1 2 3 4 5 6 
#
# 1 24.3328 38.3125 43.4682 0.0000 0.0000 0.0000
# 2 38.3125 139.1984 91.8651 0.0000 0.0000 0.0000
# 3 43.4682 91.8651 154.7990 0.0000 0.0000 0.0000
# 4 0.0000 0.0000 0.0000 37.4854 0.0000 0.0000
# 5 0.0000 0.0000 0.0000 0.0000 25.4783 0.0000
# 6 0.0000 0.0000 0.0000 0.0000 0.0000 8.2332
#
#
#
# Elastic Compliance Matrix: (Units=1/GPa)
#
#
# Indices 1 2 3 4 5 6 
#
# 1 0.097307 -0.014383 -0.018789 0.000000 0.000000 0.000000
# 2 -0.014383 0.013935 -0.004231 0.000000 0.000000 0.000000
# 3 -0.018789 -0.004231 0.014247 0.000000 0.000000 0.000000
# 4 0.000000 0.000000 0.000000 0.026677 0.000000 0.000000
# 5 0.000000 0.000000 0.000000 0.000000 0.039249 0.000000
# 6 0.000000 0.000000 0.000000 0.000000 0.000000 0.121459
#
#
# Mechanical properties :
#
#
# Convention : Reuss Voigt Hill
#
# Bulk Modulus (GPa) = 19.73009 73.95797 46.84403
# Shear Modulus (GPa) = 12.35867 23.88502 18.12184
#
# Velocity S-wave (km/s) = 2.64644 3.67907 3.20462
# Velocity P-wave (km/s) = 4.52981 7.74333 6.34343
#
# Compressibility (1/GPa) = 0.05068402
#
# Stress axis : x y z
#
# Youngs Moduli (GPa) = 10.27671 71.76267 70.19104
#
# Poissons Ratio (x) = 1.03213 1.31882
# Poissons Ratio (y) = 0.14781 0.29697
# Poissons Ratio (z) = 0.19309 0.30362
#
# Static dielectric constant tensor:
#      x y z
#    x 2.890120 0.000000 0.000000 
#    y 0.000000 3.578770 0.000000 
#    z 0.000000 0.000000 3.451260 
# 
# 
# High freq. dielectric constant tensor:
#      x y z
#    x 1.640420 0.000000 0.000000 
#    y 0.000000 1.698300 0.000000 
#    z 0.000000 0.000000 1.689000 
# 
# From -- ./inp_files/42708.got.cif
#   From: 2010.03.12/outbox.cif.g09.slc.cpg/sg63_22_cif.got.tgz:42708.got - 2010.04.10 19:34:48.
