data_PCOD8257812
_publ_section_title
;
Structure prediction by ZEFSAII (Michael W. Deem and Ramdas Pophale) SiO2 
 PCOD8257812
Probable space group: C M C M
;
_chemical_formula_sum "Si O2"
_cell_formula_units_Z 80
_cell_length_a 12.732921
_cell_length_b 22.816846
_cell_length_c 11.920081
_cell_angle_alpha 90.000000
_cell_angle_beta 90.000000
_cell_angle_gamma 90.000000
_cell_volume 3463.082696
_symmetry_space_group_name_H-M "C M C M"
_symmetry_group_IT_number 63
_symmetry_cell_setting 'orthorhombic'
loop_
_space_group_symop_operation_xyz
x,y,z
-x,-y,1/2+z
x,-y,-z
-x,y,1/2-z
-x,-y,-z
x,y,1/2-z
-x,y,z
x,-y,1/2+z
1/2+x,1/2+y,z
1/2-x,1/2-y,1/2+z
1/2+x,1/2-y,-z
1/2-x,1/2+y,1/2-z
1/2-x,1/2-y,-z
1/2+x,1/2+y,1/2-z
1/2-x,1/2+y,z
1/2+x,1/2-y,1/2+z
loop_
_atom_site_type_symbol
_atom_site_label
_atom_site_fract_x
_atom_site_fract_y
_atom_site_fract_z
Si Si1 0.890421 0.938169 0.944886
Si Si2 0.500000 0.252539 0.381574
Si Si3 0.120189 0.402642 0.118022
Si Si4 0.000000 0.377937 0.615971
Si Si5 0.830475 0.845010 0.119294
Si Si6 0.326172 0.033350 0.375311
O O1 0.789703 0.939088 0.864531
O O2 0.000000 0.924973 0.877984
O O3 0.886043 0.894060 0.047797
O O4 0.898654 0.000000 0.000000
O O5 0.500000 0.245980 0.250000
O O6 0.500000 0.187644 0.434785
O O7 0.610055 0.284739 0.416627
O O8 0.112679 0.412133 0.250000
O O9 0.204019 0.349798 0.093984
O O10 0.165348 0.466912 0.068915
O O11 0.000000 0.387281 0.075170
O O12 0.897893 0.414332 0.569391
O O13 0.000000 0.375572 0.750000
O O14 0.851715 0.857916 0.250000
O O15 0.371105 0.025527 0.250000
#
# Coordination Sequence:
#
# PCOD8257812 Si02
#       6
#    16   8  16   8  16  16
#     4  11  22  33  49  79 114 145 180 220 269 332
#     4   9  18  34  59  82 101 141 191 228 260 308
#     4   9  16  29  50  77 109 138 166 213 275 324
#     4   9  18  36  61  82 103 139 191 234 262 308
#     4  10  19  34  55  77 108 143 177 223 272 319
#     4  10  19  34  55  80 110 143 179 225 274 318
#
# _framework density 23.100805999999999
#
# number of rings (size 3 to 8) (size 9 to 14) (size 15 to 20)
#    0.000    2.200    4.000    0.000    0.000    0.400 
#    1.800    4.500    0.000    1.200    0.000    5.600 
#    0.000    0.000    0.000    0.000    0.000    0.000 
#
# Total GULP energy -495565.252595 kJ/mol
# GULP energy per Si atom -12389.131315 kJ/mol
# Density = 2.304823 g / cm^3
# Si number density = 23.100806 Si / 1000 Ang^3
#
#
#
# Elastic Constant Matrix: (Units=GPa)
#
#
# Indices 1 2 3 4 5 6 
#
# 1 244.7913 87.5439 35.3528 0.0000 0.0000 0.0000
# 2 87.5439 160.4204 46.9622 0.0000 0.0000 0.0000
# 3 35.3528 46.9622 54.5122 0.0000 0.0000 0.0000
# 4 0.0000 0.0000 0.0000 26.1789 0.0000 0.0000
# 5 0.0000 0.0000 0.0000 0.0000 21.0569 0.0000
# 6 0.0000 0.0000 0.0000 0.0000 0.0000 30.8112
#
#
#
# Elastic Compliance Matrix: (Units=1/GPa)
#
#
# Indices 1 2 3 4 5 6 
#
# 1 0.005136 -0.002444 -0.001225 0.000000 0.000000 0.000000
# 2 -0.002444 0.009499 -0.006598 0.000000 0.000000 0.000000
# 3 -0.001225 -0.006598 0.024824 0.000000 0.000000 0.000000
# 4 0.000000 0.000000 0.000000 0.038199 0.000000 0.000000
# 5 0.000000 0.000000 0.000000 0.000000 0.047490 0.000000
# 6 0.000000 0.000000 0.000000 0.000000 0.000000 0.032456
#
#
# Mechanical properties :
#
#
# Convention : Reuss Voigt Hill
#
# Bulk Modulus (GPa) = 52.84505 88.82686 70.83596
# Shear Modulus (GPa) = 27.10805 34.93373 31.02089
#
# Velocity S-wave (km/s) = 3.42931 3.89296 3.66847
# Velocity P-wave (km/s) = 6.21335 7.66434 6.97667
#
# Compressibility (1/GPa) = 0.01892325
#
# Stress axis : x y z
#
# Youngs Moduli (GPa) = 194.69732 105.27347 40.28426
#
# Poissons Ratio (x) = 0.25731 0.04936
# Poissons Ratio (y) = 0.47588 0.26581
# Poissons Ratio (z) = 0.23856 0.69463
#
# Static dielectric constant tensor:
#      x y z
#    x 6.285100 0.000000 0.000000 
#    y 0.000000 3.738490 0.000000 
#    z 0.000000 0.000000 4.296760 
# 
# 
# High freq. dielectric constant tensor:
#      x y z
#    x 1.935010 0.000000 0.000000 
#    y 0.000000 1.881430 0.000000 
#    z 0.000000 0.000000 1.943560 
# 
# From -- ./inp_files/42437.got.cif
#   From: 2010.03.12/outbox.cif.g09.slc.cpg/sg63_22_cif.got.tgz:42437.got - 2010.04.10 19:34:48.
