data_PCOD8257496
_publ_section_title
;
Structure prediction by ZEFSAII (Michael W. Deem and Ramdas Pophale) SiO2 
 PCOD8257496
Probable space group: C M C M
;
_chemical_formula_sum "Si O2"
_cell_formula_units_Z 96
_cell_length_a 21.037337
_cell_length_b 30.832843
_cell_length_c 8.714763
_cell_angle_alpha 90.000000
_cell_angle_beta 90.000000
_cell_angle_gamma 90.000000
_cell_volume 5652.751793
_symmetry_space_group_name_H-M "C M C M"
_symmetry_group_IT_number 63
_symmetry_cell_setting 'orthorhombic'
loop_
_space_group_symop_operation_xyz
x,y,z
-x,-y,1/2+z
x,-y,-z
-x,y,1/2-z
-x,-y,-z
x,y,1/2-z
-x,y,z
x,-y,1/2+z
1/2+x,1/2+y,z
1/2-x,1/2-y,1/2+z
1/2+x,1/2-y,-z
1/2-x,1/2+y,1/2-z
1/2-x,1/2-y,-z
1/2+x,1/2+y,1/2-z
1/2-x,1/2+y,z
1/2+x,1/2-y,1/2+z
loop_
_atom_site_type_symbol
_atom_site_label
_atom_site_fract_x
_atom_site_fract_y
_atom_site_fract_z
Si Si1 0.096851 0.654270 0.075970
Si Si2 0.430891 0.750590 0.568024
Si Si3 0.798672 0.214754 0.932405
Si Si4 0.204589 0.544264 0.932807
Si Si5 0.432265 0.932307 0.070212
Si Si6 0.258463 0.867665 0.575239
O O1 0.073586 0.646423 0.250000
O O2 0.073865 0.700040 0.009777
O O3 0.172535 0.653280 0.067663
O O4 0.066164 0.618338 0.968390
O O5 0.427091 0.750903 0.750000
O O6 0.500000 0.731603 0.513786
O O7 0.370413 0.723927 0.505959
O O8 0.793654 0.217846 0.750000
O O9 0.750000 0.250000 0.000000
O O10 0.786491 0.165761 0.986415
O O11 0.207292 0.544162 0.750000
O O12 0.131611 0.546295 0.999581
O O13 0.234695 0.500000 0.000000
O O14 0.244138 0.585299 0.994036
O O15 0.428423 0.938009 0.250000
O O16 0.500000 0.952555 0.010015
O O17 0.235283 0.873267 0.750000
#
# Coordination Sequence:
#
# PCOD8257496 Si02
#       6
#    16  16  16  16  16  16
#     4   9  16  28  45  64  87 120 163 204 240 283
#     4   9  17  29  45  67  96 129 166 205 242 284
#     4  11  20  32  50  73 100 132 168 207 247 293
#     4  10  20  34  50  69  92 121 155 200 250 296
#     4   9  18  30  42  60  88 120 156 199 246 291
#     4  10  19  33  51  72  94 123 163 205 246 293
#
# _framework density 16.982879000000001
#
# number of rings (size 3 to 8) (size 9 to 14) (size 15 to 20)
#    0.000    2.333    1.667    2.000    0.000    2.667 
#    0.000    0.000    0.000    3.000    0.000    0.000 
#    0.000    0.667    0.000    1.833    0.000    2.667 
#
# Total GULP energy -594789.832803 kJ/mol
# GULP energy per Si atom -12391.454850 kJ/mol
# Density = 1.694422 g / cm^3
# Si number density = 16.982879 Si / 1000 Ang^3
#
#
#
# Elastic Constant Matrix: (Units=GPa)
#
#
# Indices 1 2 3 4 5 6 
#
# 1 85.8730 51.3435 23.3102 0.0000 0.0000 0.0000
# 2 51.3435 116.7138 28.3037 0.0000 0.0000 0.0000
# 3 23.3102 28.3037 49.2885 0.0000 0.0000 0.0000
# 4 0.0000 0.0000 0.0000 28.2372 0.0000 0.0000
# 5 0.0000 0.0000 0.0000 0.0000 13.3421 0.0000
# 6 0.0000 0.0000 0.0000 0.0000 0.0000 2.4194
#
#
#
# Elastic Compliance Matrix: (Units=1/GPa)
#
#
# Indices 1 2 3 4 5 6 
#
# 1 0.016527 -0.006245 -0.004230 0.000000 0.000000 0.000000
# 2 -0.006245 0.012314 -0.004118 0.000000 0.000000 0.000000
# 3 -0.004230 -0.004118 0.024654 0.000000 0.000000 0.000000
# 4 0.000000 0.000000 0.000000 0.035414 0.000000 0.000000
# 5 0.000000 0.000000 0.000000 0.000000 0.074951 0.000000
# 6 0.000000 0.000000 0.000000 0.000000 0.000000 0.413324
#
#
# Mechanical properties :
#
#
# Convention : Reuss Voigt Hill
#
# Bulk Modulus (GPa) = 41.13636 50.86556 46.00096
# Shear Modulus (GPa) = 8.13707 18.72760 13.43233
#
# Velocity S-wave (km/s) = 2.19129 3.32435 2.81541
# Velocity P-wave (km/s) = 5.53870 6.68963 6.14118
#
# Compressibility (1/GPa) = 0.02430939
#
# Stress axis : x y z
#
# Youngs Moduli (GPa) = 60.50697 81.21122 40.56138
#
# Poissons Ratio (x) = 0.50713 0.17159
# Poissons Ratio (y) = 0.37784 0.16702
# Poissons Ratio (z) = 0.25596 0.33441
#
# Static dielectric constant tensor:
#      x y z
#    x 3.316150 0.000000 0.000000 
#    y 0.000000 3.126850 0.000000 
#    z 0.000000 0.000000 3.053720 
# 
# 
# High freq. dielectric constant tensor:
#      x y z
#    x 1.626750 0.000000 0.000000 
#    y 0.000000 1.643730 0.000000 
#    z 0.000000 0.000000 1.645440 
# 
# From -- ./inp_files/10683.got.cif
#   From: 2010.03.12/outbox.cif.g09.slc.cpg/sg63_6_cif.got.tgz:10683.got - 2010.04.10 19:34:48.
