data_PCOD8257291
_publ_section_title
;
Structure prediction by ZEFSAII (Michael W. Deem and Ramdas Pophale) SiO2 
 PCOD8257291
Probable space group: C M C M
;
_chemical_formula_sum "Si O2"
_cell_formula_units_Z 96
_cell_length_a 9.193330
_cell_length_b 31.155342
_cell_length_c 18.889712
_cell_angle_alpha 90.000000
_cell_angle_beta 90.000000
_cell_angle_gamma 90.000000
_cell_volume 5410.416628
_symmetry_space_group_name_H-M "C M C M"
_symmetry_group_IT_number 63
_symmetry_cell_setting 'orthorhombic'
loop_
_space_group_symop_operation_xyz
x,y,z
-x,-y,1/2+z
x,-y,-z
-x,y,1/2-z
-x,-y,-z
x,y,1/2-z
-x,y,z
x,-y,1/2+z
1/2+x,1/2+y,z
1/2-x,1/2-y,1/2+z
1/2+x,1/2-y,-z
1/2-x,1/2+y,1/2-z
1/2-x,1/2-y,-z
1/2+x,1/2+y,1/2-z
1/2-x,1/2+y,z
1/2+x,1/2-y,1/2+z
loop_
_atom_site_type_symbol
_atom_site_label
_atom_site_fract_x
_atom_site_fract_y
_atom_site_fract_z
Si Si1 0.665220 0.250926 0.928834
Si Si2 0.671049 0.157916 0.920636
Si Si3 0.660947 0.993394 0.165928
Si Si4 0.330892 0.910741 0.667685
Si Si5 0.170643 0.844064 0.571083
Si Si6 0.334897 0.412275 0.334049
O O1 0.500000 0.250126 0.952747
O O2 0.699548 0.206203 0.887901
O O3 0.698593 0.296918 0.891679
O O4 0.750000 0.250000 0.000000
O O5 0.500000 0.148429 0.928954
O O6 0.738585 0.125831 0.864369
O O7 0.746478 0.152139 0.996628
O O8 0.655112 0.993151 0.250000
O O9 0.500000 0.982432 0.136260
O O10 0.707653 0.041042 0.141357
O O11 0.773787 0.957896 0.137608
O O12 0.293776 0.905185 0.750000
O O13 0.500000 0.900714 0.653419
O O14 0.229591 0.878911 0.624848
O O15 0.000000 0.851995 0.557826
O O16 0.324325 0.409886 0.250000
O O17 0.500000 0.407896 0.360622
#
# Coordination Sequence:
#
# PCOD8257291 Si02
#       6
#    16  16  16  16  16  16
#     4   8  16  30  48  70  94 125 163 199 237 285
#     4  10  19  33  53  73  96 129 167 202 239 288
#     4   8  15  30  51  71  93 126 165 199 234 284
#     4   9  18  33  52  74 100 130 165 201 237 285
#     4  10  19  32  51  75 102 128 159 202 248 290
#     4  10  20  33  50  74 102 128 158 200 247 291
#
# _framework density 17.743549999999999
#
# number of rings (size 3 to 8) (size 9 to 14) (size 15 to 20)
#    0.000    2.833    0.000    2.500    0.000    3.333 
#    0.000    3.333    0.000   10.000    0.000    0.000 
#    0.000    0.000    0.000    0.000    0.000    0.000 
#
# Total GULP energy -594643.895314 kJ/mol
# GULP energy per Si atom -12388.414486 kJ/mol
# Density = 1.770317 g / cm^3
# Si number density = 17.743550 Si / 1000 Ang^3
#
#
#
# Elastic Constant Matrix: (Units=GPa)
#
#
# Indices 1 2 3 4 5 6 
#
# 1 109.4845 80.7641 32.2129 0.0000 0.0000 0.0000
# 2 80.7641 163.2443 37.5979 0.0000 0.0000 0.0000
# 3 32.2129 37.5979 30.7255 0.0000 0.0000 0.0000
# 4 0.0000 0.0000 0.0000 27.1665 0.0000 0.0000
# 5 0.0000 0.0000 0.0000 0.0000 27.5254 0.0000
# 6 0.0000 0.0000 0.0000 0.0000 0.0000 31.7490
#
#
#
# Elastic Compliance Matrix: (Units=1/GPa)
#
#
# Indices 1 2 3 4 5 6 
#
# 1 0.016358 -0.005769 -0.010091 0.000000 0.000000 0.000000
# 2 -0.005769 0.010564 -0.006879 0.000000 0.000000 0.000000
# 3 -0.010091 -0.006879 0.051543 0.000000 0.000000 0.000000
# 4 0.000000 0.000000 0.000000 0.036810 0.000000 0.000000
# 5 0.000000 0.000000 0.000000 0.000000 0.036330 0.000000
# 6 0.000000 0.000000 0.000000 0.000000 0.000000 0.031497
#
#
# Mechanical properties :
#
#
# Convention : Reuss Voigt Hill
#
# Bulk Modulus (GPa) = 30.31395 67.17823 48.74609
# Shear Modulus (GPa) = 20.87017 27.48015 24.17516
#
# Velocity S-wave (km/s) = 3.43332 3.93967 3.69518
# Velocity P-wave (km/s) = 5.73048 7.65752 6.76299
#
# Compressibility (1/GPa) = 0.03298811
#
# Stress axis : x y z
#
# Youngs Moduli (GPa) = 61.13062 94.65802 19.40132
#
# Poissons Ratio (x) = 0.54610 0.19577
# Poissons Ratio (y) = 0.35267 0.13346
# Poissons Ratio (z) = 0.61686 0.65114
#
# Static dielectric constant tensor:
#      x y z
#    x 3.463160 0.000000 0.000000 
#    y 0.000000 4.050440 0.000000 
#    z 0.000000 0.000000 2.766290 
# 
# 
# High freq. dielectric constant tensor:
#      x y z
#    x 1.697120 0.000000 0.000000 
#    y 0.000000 1.710820 0.000000 
#    z 0.000000 0.000000 1.634980 
# 
# From -- ./inp_files/51397.got.cif
#   From: 2010.03.12/outbox.cif.g09.slc.cpg/sg63_26_cif.got.tgz:51397.got - 2010.04.10 19:34:48.
