data_PCOD8257289
_publ_section_title
;
Structure prediction by ZEFSAII (Michael W. Deem and Ramdas Pophale) SiO2 
 PCOD8257289
Probable space group: C M C M
;
_chemical_formula_sum "Si O2"
_cell_formula_units_Z 112
_cell_length_a 23.361459
_cell_length_b 28.013115
_cell_length_c 8.968650
_cell_angle_alpha 90.000000
_cell_angle_beta 90.000000
_cell_angle_gamma 90.000000
_cell_volume 5869.328844
_symmetry_space_group_name_H-M "C M C M"
_symmetry_group_IT_number 63
_symmetry_cell_setting 'orthorhombic'
loop_
_space_group_symop_operation_xyz
x,y,z
-x,-y,1/2+z
x,-y,-z
-x,y,1/2-z
-x,-y,-z
x,y,1/2-z
-x,y,z
x,-y,1/2+z
1/2+x,1/2+y,z
1/2-x,1/2-y,1/2+z
1/2+x,1/2-y,-z
1/2-x,1/2+y,1/2-z
1/2-x,1/2-y,-z
1/2+x,1/2+y,1/2-z
1/2-x,1/2+y,z
1/2+x,1/2-y,1/2+z
loop_
_atom_site_type_symbol
_atom_site_label
_atom_site_fract_x
_atom_site_fract_y
_atom_site_fract_z
Si Si1 0.884746 0.051857 0.073134
Si Si2 0.438629 0.886551 0.926073
Si Si3 0.908658 0.715344 0.073363
Si Si4 0.500000 0.709231 0.572373
Si Si5 0.000000 0.894141 0.574358
Si Si6 0.772329 0.893779 0.926327
Si Si7 0.220875 0.705590 0.427594
Si Si8 0.662992 0.950188 0.573023
O O1 0.881454 0.044974 0.250000
O O2 0.944393 0.075896 0.023736
O O3 0.833819 0.087086 0.015610
O O4 0.878536 0.000000 0.000000
O O5 0.429535 0.885430 0.750000
O O6 0.500000 0.910054 0.968583
O O7 0.439720 0.832313 0.985246
O O8 0.386053 0.915838 0.994439
O O9 0.909523 0.717683 0.250000
O O10 0.943342 0.761959 0.015456
O O11 0.844032 0.710366 0.014689
O O12 0.500000 0.704120 0.750000
O O13 0.500000 0.657042 0.502704
O O14 0.000000 0.885506 0.750000
O O15 0.773571 0.890374 0.750000
O O16 0.753622 0.841790 0.988486
O O17 0.724583 0.931315 0.979464
O O18 0.223691 0.707094 0.250000
O O19 0.250000 0.750000 0.500000
O O20 0.659477 0.954280 0.750000
O O21 0.650899 0.000000 0.500000
#
# Coordination Sequence:
#
# PCOD8257289 Si02
#       8
#    16  16  16   8   8  16  16  16
#     4  10  21  38  58  79 103 137 177 217 262 314
#     4   9  15  27  49  74  98 130 171 208 245 292
#     4   9  16  30  52  77 102 132 175 218 250 291
#     4  10  20  33  55  84 108 133 175 228 265 294
#     4  10  23  39  55  78 110 141 171 208 264 334
#     4   9  18  34  55  76 102 137 173 207 253 311
#     4  10  20  34  53  78 107 138 171 209 253 307
#     4  10  19  32  51  74  99 131 169 210 253 298
#
# _framework density 19.082249000000001
#
# number of rings (size 3 to 8) (size 9 to 14) (size 15 to 20)
#    0.000    2.429    2.143    0.643    2.000    0.857 
#    0.000    1.429    0.000    0.857    0.000    0.000 
#    0.000    0.000    0.000    0.000    0.000    0.000 
#
# Total GULP energy -693974.837355 kJ/mol
# GULP energy per Si atom -12392.407810 kJ/mol
# Density = 1.903882 g / cm^3
# Si number density = 19.082249 Si / 1000 Ang^3
#
#
#
# Elastic Constant Matrix: (Units=GPa)
#
#
# Indices 1 2 3 4 5 6 
#
# 1 180.7221 84.2353 21.2532 0.0000 0.0000 0.0000
# 2 84.2353 154.5888 22.5765 0.0000 0.0000 0.0000
# 3 21.2532 22.5765 12.7781 0.0000 0.0000 0.0000
# 4 0.0000 0.0000 0.0000 30.3392 0.0000 0.0000
# 5 0.0000 0.0000 0.0000 0.0000 8.0792 0.0000
# 6 0.0000 0.0000 0.0000 0.0000 0.0000 34.9888
#
#
#
# Elastic Compliance Matrix: (Units=1/GPa)
#
#
# Indices 1 2 3 4 5 6 
#
# 1 0.007913 -0.003221 -0.007471 0.000000 0.000000 0.000000
# 2 -0.003221 0.010029 -0.012363 0.000000 0.000000 0.000000
# 3 -0.007471 -0.012363 0.112528 0.000000 0.000000 0.000000
# 4 0.000000 0.000000 0.000000 0.032961 0.000000 0.000000
# 5 0.000000 0.000000 0.000000 0.000000 0.123774 0.000000
# 6 0.000000 0.000000 0.000000 0.000000 0.000000 0.028581
#
#
# Mechanical properties :
#
#
# Convention : Reuss Voigt Hill
#
# Bulk Modulus (GPa) = 11.85381 67.13544 39.49462
# Shear Modulus (GPa) = 12.81998 29.34972 21.08485
#
# Velocity S-wave (km/s) = 2.59478 3.92607 3.32768
# Velocity P-wave (km/s) = 3.89905 7.47065 5.95874
#
# Compressibility (1/GPa) = 0.08436107
#
# Stress axis : x y z
#
# Youngs Moduli (GPa) = 126.37107 99.70810 8.88667
#
# Poissons Ratio (x) = 0.32114 0.06639
# Poissons Ratio (y) = 0.40702 0.10986
# Poissons Ratio (z) = 0.94414 1.23267
#
# Static dielectric constant tensor:
#      x y z
#    x 4.008950 0.000000 0.000000 
#    y 0.000000 3.555990 0.000000 
#    z 0.000000 0.000000 2.931290 
# 
# 
# High freq. dielectric constant tensor:
#      x y z
#    x 1.764950 0.000000 0.000000 
#    y 0.000000 1.751410 0.000000 
#    z 0.000000 0.000000 1.682040 
# 
# From -- ./inp_files/24222.got.cif
#   From: 2010.03.12/outbox.cif.g09.slc.cpg/sg63_13_cif.got.tgz:24222.got - 2010.04.10 19:34:48.
