data_PCOD8257349
_publ_section_title
;
Structure prediction by ZEFSAII (Michael W. Deem and Ramdas Pophale) SiO2 
 PCOD8257349
Probable space group: C M C M
;
_chemical_formula_sum "Si O2"
_cell_formula_units_Z 96
_cell_length_a 13.191258
_cell_length_b 13.609745
_cell_length_c 27.988389
_cell_angle_alpha 90.000000
_cell_angle_beta 90.000000
_cell_angle_gamma 90.000000
_cell_volume 5024.745894
_symmetry_space_group_name_H-M "C M C M"
_symmetry_group_IT_number 63
_symmetry_cell_setting 'orthorhombic'
loop_
_space_group_symop_operation_xyz
x,y,z
-x,-y,1/2+z
x,-y,-z
-x,y,1/2-z
-x,-y,-z
x,y,1/2-z
-x,y,z
x,-y,1/2+z
1/2+x,1/2+y,z
1/2-x,1/2-y,1/2+z
1/2+x,1/2-y,-z
1/2-x,1/2+y,1/2-z
1/2-x,1/2-y,-z
1/2+x,1/2+y,1/2-z
1/2-x,1/2+y,z
1/2+x,1/2-y,1/2+z
loop_
_atom_site_type_symbol
_atom_site_label
_atom_site_fract_x
_atom_site_fract_y
_atom_site_fract_z
Si Si1 0.798971 0.115543 0.494733
Si Si2 0.880512 0.947346 0.149796
Si Si3 0.884971 0.145507 0.104141
Si Si4 0.800368 0.263862 0.648049
Si Si5 0.617449 0.787344 0.950789
Si Si6 0.387706 0.768076 0.750000
Si Si7 0.389462 0.534444 0.750000
O O1 0.861194 0.164654 0.451019
O O2 0.680003 0.137595 0.484862
O O3 0.842061 0.175059 0.540473
O O4 0.818835 0.000000 0.500000
O O5 0.814020 0.852173 0.140203
O O6 0.838557 0.996076 0.199883
O O7 0.000000 0.917337 0.154450
O O8 0.862816 0.028914 0.109904
O O9 0.817450 0.210884 0.139749
O O10 0.000000 0.172376 0.116791
O O11 0.865129 0.314801 0.605187
O O12 0.831906 0.301879 0.700870
O O13 0.500000 0.797569 0.963725
O O14 0.500000 0.815163 0.750000
O O15 0.395285 0.652124 0.750000
O O16 0.500000 0.485799 0.750000
#
# Coordination Sequence:
#
# PCOD8257349 Si02
#       7
#    16  16  16  16  16   8   8
#     4  10  21  35  52  76 104 136 173 210 253 305
#     4   9  16  29  50  72  96 128 165 209 255 299
#     4  10  21  34  50  75 105 136 172 212 256 305
#     4  10  19  32  52  77 103 131 170 213 255 303
#     4  10  20  34  53  76 103 134 169 211 256 303
#     4   9  16  29  51  77 102 130 165 210 259 303
#     4   7  12  23  42  69  94 118 156 200 244 293
#
# _framework density 19.105445
#
# number of rings (size 3 to 8) (size 9 to 14) (size 15 to 20)
#    0.000    2.500    0.000    4.000    0.000    3.667 
#    0.000    1.250    0.000   12.000    0.000    0.000 
#    0.000    0.000    0.000    0.000    0.000    0.000 
#
# Total GULP energy -594700.103758 kJ/mol
# GULP energy per Si atom -12389.585495 kJ/mol
# Density = 1.906196 g / cm^3
# Si number density = 19.105445 Si / 1000 Ang^3
#
#
#
# Elastic Constant Matrix: (Units=GPa)
#
#
# Indices 1 2 3 4 5 6 
#
# 1 139.4332 36.3245 45.9749 0.0000 0.0000 0.0000
# 2 36.3245 53.8419 9.0403 0.0000 0.0000 0.0000
# 3 45.9749 9.0403 104.9069 0.0000 0.0000 0.0000
# 4 0.0000 0.0000 0.0000 18.2780 0.0000 0.0000
# 5 0.0000 0.0000 0.0000 0.0000 20.8628 0.0000
# 6 0.0000 0.0000 0.0000 0.0000 0.0000 24.3749
#
#
#
# Elastic Compliance Matrix: (Units=1/GPa)
#
#
# Indices 1 2 3 4 5 6 
#
# 1 0.010045 -0.006127 -0.003874 0.000000 0.000000 0.000000
# 2 -0.006127 0.022582 0.000739 0.000000 0.000000 0.000000
# 3 -0.003874 0.000739 0.011167 0.000000 0.000000 0.000000
# 4 0.000000 0.000000 0.000000 0.054711 0.000000 0.000000
# 5 0.000000 0.000000 0.000000 0.000000 0.047932 0.000000
# 6 0.000000 0.000000 0.000000 0.000000 0.000000 0.041026
#
#
# Mechanical properties :
#
#
# Convention : Reuss Voigt Hill
#
# Bulk Modulus (GPa) = 39.57267 53.42905 46.50086
# Shear Modulus (GPa) = 23.31979 26.49264 24.90622
#
# Velocity S-wave (km/s) = 3.49748 3.72782 3.61448
# Velocity P-wave (km/s) = 6.08831 6.82312 6.46616
#
# Compressibility (1/GPa) = 0.02526997
#
# Stress axis : x y z
#
# Youngs Moduli (GPa) = 99.54715 44.28271 89.55331
#
# Poissons Ratio (x) = 0.27131 0.34697
# Poissons Ratio (y) = 0.60989 -0.06618
# Poissons Ratio (z) = 0.38569 -0.03272
#
# Static dielectric constant tensor:
#      x y z
#    x 3.341720 0.000000 0.000000 
#    y 0.000000 3.118940 0.000000 
#    z 0.000000 0.000000 3.886390 
# 
# 
# High freq. dielectric constant tensor:
#      x y z
#    x 1.722040 0.000000 0.000000 
#    y 0.000000 1.705370 0.000000 
#    z 0.000000 0.000000 1.765910 
# 
# From -- ./inp_files/72790.got.cif
#   From: 2010.03.12/outbox.cif.g09.slc.cpg/sg63_37_cif.got.tgz:72790.got - 2010.04.10 19:34:48.
