data_PCOD8257396
_publ_section_title
;
Structure prediction by ZEFSAII (Michael W. Deem and Ramdas Pophale) SiO2 
 PCOD8257396
Probable space group: C M C M
;
_chemical_formula_sum "Si O2"
_cell_formula_units_Z 80
_cell_length_a 20.845528
_cell_length_b 12.517484
_cell_length_c 16.923794
_cell_angle_alpha 90.000000
_cell_angle_beta 90.000000
_cell_angle_gamma 90.000000
_cell_volume 4415.985871
_symmetry_space_group_name_H-M "C M C M"
_symmetry_group_IT_number 63
_symmetry_cell_setting 'orthorhombic'
loop_
_space_group_symop_operation_xyz
x,y,z
-x,-y,1/2+z
x,-y,-z
-x,y,1/2-z
-x,-y,-z
x,y,1/2-z
-x,y,z
x,-y,1/2+z
1/2+x,1/2+y,z
1/2-x,1/2-y,1/2+z
1/2+x,1/2-y,-z
1/2-x,1/2+y,1/2-z
1/2-x,1/2-y,-z
1/2+x,1/2+y,1/2-z
1/2-x,1/2+y,z
1/2+x,1/2-y,1/2+z
loop_
_atom_site_type_symbol
_atom_site_label
_atom_site_fract_x
_atom_site_fract_y
_atom_site_fract_z
Si Si1 0.665437 0.823016 0.107631
Si Si2 0.806484 0.868924 0.160003
Si Si3 0.664619 0.837753 0.577899
Si Si4 0.296705 0.605010 0.342713
Si Si5 0.073818 0.498361 0.659020
O O1 0.730091 0.860563 0.150345
O O2 0.655579 0.696689 0.124887
O O3 0.606137 0.887068 0.143666
O O4 0.671284 0.845095 0.015328
O O5 0.824480 0.841682 0.250000
O O6 0.843732 0.785813 0.103912
O O7 0.827881 0.989654 0.138301
O O8 0.728102 0.887786 0.615299
O O9 0.603702 0.905683 0.605163
O O10 0.284434 0.618768 0.250000
O O11 0.082404 0.465742 0.750000
O O12 0.000000 0.509480 0.635085
#
# Coordination Sequence:
#
# PCOD8257396 Si02
#       5
#    16  16  16  16  16
#     4  11  21  32  51  78 109 138 173 220 268 316
#     4  10  19  32  53  77 108 143 175 214 260 316
#     4  11  21  32  51  78 109 138 173 220 268 316
#     4  10  19  32  53  77 108 143 175 214 260 316
#     4  11  23  39  57  75 103 143 184 221 260 317
#
# _framework density 18.115998999999999
#
# number of rings (size 3 to 8) (size 9 to 14) (size 15 to 20)
#    0.000    1.400    2.000    7.800    0.000    4.000 
#    0.000    0.000    0.000    1.200    0.000    8.400 
#    0.000    0.000    0.000    0.000    0.000    0.000 
#
# Total GULP energy -496069.088678 kJ/mol
# GULP energy per Si atom -12401.727217 kJ/mol
# Density = 1.807477 g / cm^3
# Si number density = 18.115999 Si / 1000 Ang^3
#
#
#
# Elastic Constant Matrix: (Units=GPa)
#
#
# Indices 1 2 3 4 5 6 
#
# 1 67.1228 36.8255 6.1846 0.0000 0.0000 0.0000
# 2 36.8255 118.3404 2.6757 0.0000 0.0000 0.0000
# 3 6.1846 2.6757 56.9038 0.0000 0.0000 0.0000
# 4 0.0000 0.0000 0.0000 21.6814 0.0000 0.0000
# 5 0.0000 0.0000 0.0000 0.0000 7.4200 0.0000
# 6 0.0000 0.0000 0.0000 0.0000 0.0000 23.3219
#
#
#
# Elastic Compliance Matrix: (Units=1/GPa)
#
#
# Indices 1 2 3 4 5 6 
#
# 1 0.018129 -0.005603 -0.001707 0.000000 0.000000 0.000000
# 2 -0.005603 0.010191 0.000130 0.000000 0.000000 0.000000
# 3 -0.001707 0.000130 0.017753 0.000000 0.000000 0.000000
# 4 0.000000 0.000000 0.000000 0.046123 0.000000 0.000000
# 5 0.000000 0.000000 0.000000 0.000000 0.134771 0.000000
# 6 0.000000 0.000000 0.000000 0.000000 0.000000 0.042878
#
#
# Mechanical properties :
#
#
# Convention : Reuss Voigt Hill
#
# Bulk Modulus (GPa) = 31.53294 37.08206 34.30750
# Shear Modulus (GPa) = 16.96205 23.59672 20.27938
#
# Velocity S-wave (km/s) = 3.06322 3.61298 3.34940
# Velocity P-wave (km/s) = 5.47312 6.15780 5.82553
#
# Compressibility (1/GPa) = 0.03171287
#
# Stress axis : x y z
#
# Youngs Moduli (GPa) = 55.15937 98.12766 56.32869
#
# Poissons Ratio (x) = 0.54980 0.09615
# Poissons Ratio (y) = 0.30905 -0.00731
# Poissons Ratio (z) = 0.09415 -0.01273
#
# Static dielectric constant tensor:
#      x y z
#    x 2.928830 0.000000 0.000000 
#    y 0.000000 3.850720 0.000000 
#    z 0.000000 0.000000 3.482300 
# 
# 
# High freq. dielectric constant tensor:
#      x y z
#    x 1.643170 0.000000 0.000000 
#    y 0.000000 1.722290 0.000000 
#    z 0.000000 0.000000 1.721230 
# 
# From -- ./inp_files/36448.got.cif
#   From: 2010.03.12/outbox.cif.g09.slc.cpg/sg63_19_cif.got.tgz:36448.got - 2010.04.10 19:34:48.
