data_PCOD8257379
_publ_section_title
;
Structure prediction by ZEFSAII (Michael W. Deem and Ramdas Pophale) SiO2 
 PCOD8257379
Probable space group: C M C M
;
_chemical_formula_sum "Si O2"
_cell_formula_units_Z 96
_cell_length_a 9.617412
_cell_length_b 24.566601
_cell_length_c 21.444258
_cell_angle_alpha 90.000000
_cell_angle_beta 90.000000
_cell_angle_gamma 90.000000
_cell_volume 5066.573148
_symmetry_space_group_name_H-M "C M C M"
_symmetry_group_IT_number 63
_symmetry_cell_setting 'orthorhombic'
loop_
_space_group_symop_operation_xyz
x,y,z
-x,-y,1/2+z
x,-y,-z
-x,y,1/2-z
-x,-y,-z
x,y,1/2-z
-x,y,z
x,-y,1/2+z
1/2+x,1/2+y,z
1/2-x,1/2-y,1/2+z
1/2+x,1/2-y,-z
1/2-x,1/2+y,1/2-z
1/2-x,1/2-y,-z
1/2+x,1/2+y,1/2-z
1/2-x,1/2+y,z
1/2+x,1/2-y,1/2+z
loop_
_atom_site_type_symbol
_atom_site_label
_atom_site_fract_x
_atom_site_fract_y
_atom_site_fract_z
Si Si1 0.845300 0.559632 0.511161
Si Si2 0.654958 0.932591 0.155704
Si Si3 0.835056 0.313121 0.181565
Si Si4 0.662148 0.255995 0.563902
Si Si5 0.342274 0.464336 0.680448
Si Si6 0.341167 0.379807 0.577988
O O1 0.778553 0.500000 0.500000
O O2 0.852059 0.574009 0.582458
O O3 0.750674 0.605819 0.481522
O O4 0.000000 0.560906 0.481135
O O5 0.500000 0.943647 0.182224
O O6 0.715771 0.875822 0.181372
O O7 0.751927 0.981655 0.175796
O O8 0.789531 0.288778 0.250000
O O9 0.776509 0.281133 0.120652
O O10 0.000000 0.310926 0.175634
O O11 0.500000 0.242714 0.548849
O O12 0.750000 0.250000 0.500000
O O13 0.677620 0.316405 0.591926
O O14 0.332318 0.440689 0.750000
O O15 0.500000 0.480391 0.663315
O O16 0.287583 0.416089 0.635999
O O17 0.500000 0.393746 0.562206
#
# Coordination Sequence:
#
# PCOD8257379 Si02
#       6
#    16  16  16  16  16  16
#     4  10  19  32  52  79 109 140 173 213 264 318
#     4  10  19  33  54  79 106 137 176 220 265 317
#     4   9  18  33  55  81 106 138 184 233 274 316
#     4  10  21  38  59  82 108 141 182 229 278 325
#     4  10  21  35  50  73 107 142 173 211 261 315
#     4  10  21  35  53  78 106 138 175 214 264 322
#
# _framework density 18.947718999999999
#
# number of rings (size 3 to 8) (size 9 to 14) (size 15 to 20)
#    0.000    2.167    1.667    1.500    0.000    4.667 
#    0.000    4.167    0.000    1.500    0.000    2.333 
#    0.000    0.000    0.000    0.000    0.000    0.000 
#
# Total GULP energy -594962.220990 kJ/mol
# GULP energy per Si atom -12395.046271 kJ/mol
# Density = 1.890459 g / cm^3
# Si number density = 18.947719 Si / 1000 Ang^3
#
#
#
# Elastic Constant Matrix: (Units=GPa)
#
#
# Indices 1 2 3 4 5 6 
#
# 1 49.1639 33.6481 33.5149 0.0000 0.0000 0.0000
# 2 33.6481 99.7275 49.6855 0.0000 0.0000 0.0000
# 3 33.5149 49.6855 128.9423 0.0000 0.0000 0.0000
# 4 0.0000 0.0000 0.0000 23.6351 0.0000 0.0000
# 5 0.0000 0.0000 0.0000 0.0000 -93.1008 0.0000
# 6 0.0000 0.0000 0.0000 0.0000 0.0000 26.2740
#
#
#
# Elastic Compliance Matrix: (Units=1/GPa)
#
#
# Indices 1 2 3 4 5 6 
#
# 1 0.028476 -0.007327 -0.004578 0.000000 0.000000 0.000000
# 2 -0.007327 0.014295 -0.003604 0.000000 0.000000 0.000000
# 3 -0.004578 -0.003604 0.010334 0.000000 0.000000 0.000000
# 4 0.000000 0.000000 0.000000 0.042310 0.000000 0.000000
# 5 0.000000 0.000000 0.000000 0.000000 -0.010741 0.000000
# 6 0.000000 0.000000 0.000000 0.000000 0.000000 0.038060
#
#
# Mechanical properties :
#
#
# Convention : Reuss Voigt Hill
#
# Bulk Modulus (GPa) = 45.27581 56.83673 51.05627
# Shear Modulus (GPa) = 31.03402 2.09404 16.56403
#
# Velocity S-wave (km/s) = 4.05146 1.05241 2.95989
# Velocity P-wave (km/s) = 6.76999 5.61591 6.21978
#
# Compressibility (1/GPa) = 0.02208685
#
# Stress axis : x y z
#
# Youngs Moduli (GPa) = 35.11789 69.95523 96.76741
#
# Poissons Ratio (x) = 0.51254 0.44302
# Poissons Ratio (y) = 0.25730 0.34874
# Poissons Ratio (z) = 0.16078 0.25211
#
# Static dielectric constant tensor:
#      x y z
#    x 3.361590 0.000000 0.000000 
#    y 0.000000 3.550910 0.000000 
#    z 0.000000 0.000000 3.630810 
# 
# 
# High freq. dielectric constant tensor:
#      x y z
#    x 1.706920 0.000000 0.000000 
#    y 0.000000 1.737410 0.000000 
#    z 0.000000 0.000000 1.748840 
# 
# From -- ./inp_files/51277.got.cif
#   From: 2010.03.12/outbox.cif.g09.slc.cpg/sg63_26_cif.got.tgz:51277.got - 2010.04.10 19:34:48.
