data_PCOD8257257
_publ_section_title
;
Structure prediction by ZEFSAII (Michael W. Deem and Ramdas Pophale) SiO2 
 PCOD8257257
Probable space group: C M C M
;
_chemical_formula_sum "Si O2"
_cell_formula_units_Z 104
_cell_length_a 26.075554
_cell_length_b 21.714372
_cell_length_c 8.632416
_cell_angle_alpha 90.000000
_cell_angle_beta 90.000000
_cell_angle_gamma 90.000000
_cell_volume 4887.797207
_symmetry_space_group_name_H-M "C M C M"
_symmetry_group_IT_number 63
_symmetry_cell_setting 'orthorhombic'
loop_
_space_group_symop_operation_xyz
x,y,z
-x,-y,1/2+z
x,-y,-z
-x,y,1/2-z
-x,-y,-z
x,y,1/2-z
-x,y,z
x,-y,1/2+z
1/2+x,1/2+y,z
1/2-x,1/2-y,1/2+z
1/2+x,1/2-y,-z
1/2-x,1/2+y,1/2-z
1/2-x,1/2-y,-z
1/2+x,1/2+y,1/2-z
1/2-x,1/2+y,z
1/2+x,1/2-y,1/2+z
loop_
_atom_site_type_symbol
_atom_site_label
_atom_site_fract_x
_atom_site_fract_y
_atom_site_fract_z
Si Si1 0.889617 0.885125 0.433146
Si Si2 0.130085 0.565396 0.073063
Si Si3 0.293375 0.563878 0.432202
Si Si4 0.855150 0.750126 0.066198
Si Si5 0.000000 0.068152 0.567215
Si Si6 0.213146 0.652338 0.568600
Si Si7 0.055269 0.332531 0.573015
O O1 0.885147 0.894148 0.250000
O O2 0.853215 0.934277 0.518404
O O3 0.866946 0.819277 0.485509
O O4 0.948756 0.894994 0.487303
O O5 0.150393 0.562183 0.250000
O O6 0.074574 0.597292 0.064769
O O7 0.122536 0.500000 0.000000
O O8 0.169811 0.603106 0.970746
O O9 0.269599 0.500000 0.500000
O O10 0.287006 0.562129 0.250000
O O11 0.265724 0.625371 0.497681
O O12 0.851098 0.742841 0.250000
O O13 0.902958 0.711939 0.995186
O O14 0.802781 0.720179 0.997209
O O15 0.000000 0.062317 0.750000
O O16 0.000000 0.000000 0.500000
O O17 0.221867 0.659183 0.750000
O O18 0.049006 0.311382 0.750000
O O19 0.000000 0.327206 0.488608
#
# Coordination Sequence:
#
# PCOD8257257 Si02
#       7
#    16  16  16  16   8  16  16
#     4  10  22  40  63  94 126 161 203 247 300 358
#     4  10  19  32  50  76 109 148 193 242 294 354
#     4  12  25  42  64  90 121 157 200 249 302 359
#     4   9  19  36  59  87 120 155 198 246 293 352
#     4  10  22  40  64  94 128 166 205 250 301 358
#     4  11  22  38  60  85 117 155 196 244 298 358
#     4   8  15  28  49  76 106 144 189 238 290 343
#
# _framework density 21.277480000000001
#
# number of rings (size 3 to 8) (size 9 to 14) (size 15 to 20)
#    0.000    2.000    0.000    5.077    1.077    3.385 
#    0.000    0.000    0.000   11.077    0.000    0.000 
#    0.000    0.000    0.000    0.000    0.000    0.000 
#
# Total GULP energy -644542.471583 kJ/mol
# GULP energy per Si atom -12395.047530 kJ/mol
# Density = 2.122905 g / cm^3
# Si number density = 21.277480 Si / 1000 Ang^3
#
#
#
# Elastic Constant Matrix: (Units=GPa)
#
#
# Indices 1 2 3 4 5 6 
#
# 1 134.3965 39.4311 33.7509 0.0000 0.0000 0.0000
# 2 39.4311 116.1385 35.3328 0.0000 0.0000 0.0000
# 3 33.7509 35.3328 87.4936 0.0000 0.0000 0.0000
# 4 0.0000 0.0000 0.0000 30.4388 0.0000 0.0000
# 5 0.0000 0.0000 0.0000 0.0000 23.5532 0.0000
# 6 0.0000 0.0000 0.0000 0.0000 0.0000 23.0283
#
#
#
# Elastic Compliance Matrix: (Units=1/GPa)
#
#
# Indices 1 2 3 4 5 6 
#
# 1 0.008708 -0.002205 -0.002468 0.000000 0.000000 0.000000
# 2 -0.002205 0.010375 -0.003339 0.000000 0.000000 0.000000
# 3 -0.002468 -0.003339 0.013730 0.000000 0.000000 0.000000
# 4 0.000000 0.000000 0.000000 0.032853 0.000000 0.000000
# 5 0.000000 0.000000 0.000000 0.000000 0.042457 0.000000
# 6 0.000000 0.000000 0.000000 0.000000 0.000000 0.043425
#
#
# Mechanical properties :
#
#
# Convention : Reuss Voigt Hill
#
# Bulk Modulus (GPa) = 59.56996 61.67315 60.62155
# Shear Modulus (GPa) = 28.87362 30.70501 29.78931
#
# Velocity S-wave (km/s) = 3.68775 3.80290 3.74577
# Velocity P-wave (km/s) = 6.79633 6.95204 6.87463
#
# Compressibility (1/GPa) = 0.01678698
#
# Stress axis : x y z
#
# Youngs Moduli (GPa) = 114.84209 96.38535 72.83326
#
# Poissons Ratio (x) = 0.21257 0.17978
# Poissons Ratio (y) = 0.25328 0.24319
# Poissons Ratio (z) = 0.28347 0.32183
#
# Static dielectric constant tensor:
#      x y z
#    x 4.213290 0.000000 0.000000 
#    y 0.000000 3.953480 0.000000 
#    z 0.000000 0.000000 3.535860 
# 
# 
# High freq. dielectric constant tensor:
#      x y z
#    x 1.844960 0.000000 0.000000 
#    y 0.000000 1.840620 0.000000 
#    z 0.000000 0.000000 1.806670 
# 
# From -- ./inp_files/12490.got.cif
#   From: 2010.03.12/outbox.cif.g09.slc.cpg/sg63_7_cif.got.tgz:12490.got - 2010.04.10 19:34:48.
