data_PCOD8257115
_publ_section_title
;
Structure prediction by ZEFSAII (Michael W. Deem and Ramdas Pophale) SiO2 
 PCOD8257115
Probable space group: C M C M
;
_chemical_formula_sum "Si O2"
_cell_formula_units_Z 112
_cell_length_a 18.927028
_cell_length_b 12.360984
_cell_length_c 27.066238
_cell_angle_alpha 90.000000
_cell_angle_beta 90.000000
_cell_angle_gamma 90.000000
_cell_volume 6332.327461
_symmetry_space_group_name_H-M "C M C M"
_symmetry_group_IT_number 63
_symmetry_cell_setting 'orthorhombic'
loop_
_space_group_symop_operation_xyz
x,y,z
-x,-y,1/2+z
x,-y,-z
-x,y,1/2-z
-x,-y,-z
x,y,1/2-z
-x,y,z
x,-y,1/2+z
1/2+x,1/2+y,z
1/2-x,1/2-y,1/2+z
1/2+x,1/2-y,-z
1/2-x,1/2+y,1/2-z
1/2-x,1/2-y,-z
1/2+x,1/2+y,1/2-z
1/2-x,1/2+y,z
1/2+x,1/2-y,1/2+z
loop_
_atom_site_type_symbol
_atom_site_label
_atom_site_fract_x
_atom_site_fract_y
_atom_site_fract_z
Si Si1 0.319948 0.637747 0.361585
Si Si2 0.214653 0.282652 0.050634
Si Si3 0.918702 0.426319 0.452350
Si Si4 0.632286 0.989513 0.150962
Si Si5 0.185346 0.299108 0.807627
Si Si6 0.214703 0.906009 0.368092
Si Si7 0.579961 0.782206 0.196019
O O1 0.288955 0.679013 0.413550
O O2 0.263401 0.655930 0.318068
O O3 0.336567 0.510545 0.368086
O O4 0.387885 0.706329 0.346460
O O5 0.135020 0.325905 0.042269
O O6 0.267487 0.369327 0.075999
O O7 0.250000 0.250000 0.000000
O O8 0.910351 0.500000 0.500000
O O9 0.895803 0.497298 0.405052
O O10 0.000000 0.385028 0.446995
O O11 0.629582 0.110432 0.173372
O O12 0.710228 0.937326 0.156080
O O13 0.582954 0.908574 0.181674
O O14 0.173764 0.277676 0.750000
O O15 0.174838 0.186242 0.836712
O O16 0.615700 0.765318 0.250000
O O17 0.500000 0.745699 0.199178
#
# Coordination Sequence:
#
# PCOD8257115 Si02
#       7
#    16  16  16  16  16  16  16
#     4  10  20  35  51  79 109 148 181 226 276 333
#     4  10  21  33  57  82 114 145 185 237 279 334
#     4  10  21  35  56  83 111 144 180 228 287 341
#     4  10  19  34  53  77 111 138 183 228 274 333
#     4  10  19  31  51  78 110 142 172 224 283 327
#     4   9  20  33  50  80 109 144 178 220 282 327
#     4  11  21  34  55  80 107 143 189 233 273 328
#
# _framework density 17.68702
#
# number of rings (size 3 to 8) (size 9 to 14) (size 15 to 20)
#    0.000    2.000    4.286    1.286    8.000    2.857 
#    0.000    0.000    0.000    2.571    0.000    4.000 
#    0.000    0.000    0.000    0.000    0.000    0.000 
#
# Total GULP energy -694144.417855 kJ/mol
# GULP energy per Si atom -12395.436033 kJ/mol
# Density = 1.764676 g / cm^3
# Si number density = 17.687020 Si / 1000 Ang^3
#
#
#
# Elastic Constant Matrix: (Units=GPa)
#
#
# Indices 1 2 3 4 5 6 
#
# 1 61.9297 38.5568 39.3178 0.0000 0.0000 0.0000
# 2 38.5568 140.8873 55.1889 0.0000 0.0000 0.0000
# 3 39.3178 55.1889 130.5306 0.0000 0.0000 0.0000
# 4 0.0000 0.0000 0.0000 22.1867 0.0000 0.0000
# 5 0.0000 0.0000 0.0000 0.0000 22.6691 0.0000
# 6 0.0000 0.0000 0.0000 0.0000 0.0000 17.5761
#
#
#
# Elastic Compliance Matrix: (Units=1/GPa)
#
#
# Indices 1 2 3 4 5 6 
#
# 1 0.021742 -0.004057 -0.004834 0.000000 0.000000 0.000000
# 2 -0.004057 0.009264 -0.002695 0.000000 0.000000 0.000000
# 3 -0.004834 -0.002695 0.010256 0.000000 0.000000 0.000000
# 4 0.000000 0.000000 0.000000 0.045072 0.000000 0.000000
# 5 0.000000 0.000000 0.000000 0.000000 0.044113 0.000000
# 6 0.000000 0.000000 0.000000 0.000000 0.000000 0.056896
#
#
# Mechanical properties :
#
#
# Convention : Reuss Voigt Hill
#
# Bulk Modulus (GPa) = 55.27465 66.60830 60.94148
# Shear Modulus (GPa) = 23.09007 25.83865 24.46436
#
# Velocity S-wave (km/s) = 3.61706 3.82630 3.72315
# Velocity P-wave (km/s) = 6.98309 7.56716 7.28098
#
# Compressibility (1/GPa) = 0.01809147
#
# Stress axis : x y z
#
# Youngs Moduli (GPa) = 45.99430 107.94866 97.49974
#
# Poissons Ratio (x) = 0.43790 0.47130
# Poissons Ratio (y) = 0.18658 0.26274
# Poissons Ratio (z) = 0.22233 0.29090
#
# Static dielectric constant tensor:
#      x y z
#    x 3.076270 0.000000 0.000000 
#    y 0.000000 3.468640 0.000000 
#    z 0.000000 0.000000 3.394150 
# 
# 
# High freq. dielectric constant tensor:
#      x y z
#    x 1.650870 0.000000 0.000000 
#    y 0.000000 1.679580 0.000000 
#    z 0.000000 0.000000 1.694540 
# 
# From -- ./inp_files/70474.got.cif
#   From: 2010.03.12/outbox.cif.g09.slc.cpg/sg63_36_cif.got.tgz:70474.got - 2010.04.10 19:34:48.
