data_PCOD8257449
_publ_section_title
;
Structure prediction by ZEFSAII (Michael W. Deem and Ramdas Pophale) SiO2 
 PCOD8257449
Probable space group: C M C M
;
_chemical_formula_sum "Si O2"
_cell_formula_units_Z 96
_cell_length_a 14.135120
_cell_length_b 23.368268
_cell_length_c 14.707120
_cell_angle_alpha 90.000000
_cell_angle_beta 90.000000
_cell_angle_gamma 90.000000
_cell_volume 4857.956934
_symmetry_space_group_name_H-M "C M C M"
_symmetry_group_IT_number 63
_symmetry_cell_setting 'orthorhombic'
loop_
_space_group_symop_operation_xyz
x,y,z
-x,-y,1/2+z
x,-y,-z
-x,y,1/2-z
-x,-y,-z
x,y,1/2-z
-x,y,z
x,-y,1/2+z
1/2+x,1/2+y,z
1/2-x,1/2-y,1/2+z
1/2+x,1/2-y,-z
1/2-x,1/2+y,1/2-z
1/2-x,1/2-y,-z
1/2+x,1/2+y,1/2-z
1/2-x,1/2+y,z
1/2+x,1/2-y,1/2+z
loop_
_atom_site_type_symbol
_atom_site_label
_atom_site_fract_x
_atom_site_fract_y
_atom_site_fract_z
Si Si1 0.705206 0.519874 0.595658
Si Si2 0.390861 0.268781 0.351968
Si Si3 0.890611 0.087552 0.149455
Si Si4 0.896261 0.473331 0.644130
Si Si5 0.106859 0.648130 0.437091
Si Si6 0.795780 0.861631 0.471352
O O1 0.664093 0.500000 0.500000
O O2 0.652555 0.476913 0.664241
O O3 0.818822 0.512946 0.596326
O O4 0.682587 0.587542 0.602037
O O5 0.352192 0.281088 0.250000
O O6 0.500000 0.286043 0.357757
O O7 0.375293 0.202304 0.372725
O O8 0.337175 0.304307 0.429274
O O9 0.879752 0.116431 0.250000
O O10 0.000000 0.082962 0.121555
O O11 0.837556 0.124781 0.072176
O O12 0.888944 0.484544 0.750000
O O13 0.876638 0.406807 0.626062
O O14 0.000000 0.491373 0.607306
O O15 0.182737 0.646794 0.518891
O O16 0.000000 0.649566 0.477937
#
# Coordination Sequence:
#
# PCOD8257449 Si02
#       6
#    16  16  16  16  16  16
#     4  10  20  33  50  78 109 147 184 224 280 340
#     4  10  22  39  59  85 115 151 198 246 290 341
#     4  10  21  36  55  81 114 152 193 237 287 344
#     4  10  19  32  54  82 110 142 182 230 281 337
#     4  10  20  36  59  84 113 148 191 240 292 340
#     4  11  22  37  58  86 114 154 189 241 292 347
#
# _framework density 19.761393000000002
#
# number of rings (size 3 to 8) (size 9 to 14) (size 15 to 20)
#    0.000    1.833    3.333    2.000    0.000    8.667 
#    0.000    1.667    0.000    0.500    0.000    0.000 
#    0.000    0.000    0.000    0.000    0.000    0.000 
#
# Total GULP energy -594839.071120 kJ/mol
# GULP energy per Si atom -12392.480648 kJ/mol
# Density = 1.971642 g / cm^3
# Si number density = 19.761393 Si / 1000 Ang^3
#
#
#
# Elastic Constant Matrix: (Units=GPa)
#
#
# Indices 1 2 3 4 5 6 
#
# 1 94.1918 18.7131 23.5974 0.0000 0.0000 0.0000
# 2 18.7131 62.1258 23.4653 0.0000 0.0000 0.0000
# 3 23.5974 23.4653 75.0869 0.0000 0.0000 0.0000
# 4 0.0000 0.0000 0.0000 22.4469 0.0000 0.0000
# 5 0.0000 0.0000 0.0000 0.0000 23.9957 0.0000
# 6 0.0000 0.0000 0.0000 0.0000 0.0000 24.2466
#
#
#
# Elastic Compliance Matrix: (Units=1/GPa)
#
#
# Indices 1 2 3 4 5 6 
#
# 1 0.011844 -0.002451 -0.002956 0.000000 0.000000 0.000000
# 2 -0.002451 0.018758 -0.005092 0.000000 0.000000 0.000000
# 3 -0.002956 -0.005092 0.015838 0.000000 0.000000 0.000000
# 4 0.000000 0.000000 0.000000 0.044550 0.000000 0.000000
# 5 0.000000 0.000000 0.000000 0.000000 0.041674 0.000000
# 6 0.000000 0.000000 0.000000 0.000000 0.000000 0.041243
#
#
# Mechanical properties :
#
#
# Convention : Reuss Voigt Hill
#
# Bulk Modulus (GPa) = 39.30481 40.32844 39.81663
# Shear Modulus (GPa) = 24.58383 25.17974 24.88178
#
# Velocity S-wave (km/s) = 3.53091 3.57345 3.55224
# Velocity P-wave (km/s) = 6.04616 6.12193 6.08416
#
# Compressibility (1/GPa) = 0.02544218
#
# Stress axis : x y z
#
# Youngs Moduli (GPa) = 84.42950 53.31111 63.13857
#
# Poissons Ratio (x) = 0.13067 0.18666
# Poissons Ratio (y) = 0.20694 0.32148
# Poissons Ratio (z) = 0.24960 0.27144
#
# Static dielectric constant tensor:
#      x y z
#    x 3.855150 0.000000 0.000000 
#    y 0.000000 3.513430 0.000000 
#    z 0.000000 0.000000 3.446410 
# 
# 
# High freq. dielectric constant tensor:
#      x y z
#    x 1.779180 0.000000 0.000000 
#    y 0.000000 1.756050 0.000000 
#    z 0.000000 0.000000 1.756990 
# 
# From -- ./inp_files/31860.got.cif
#   From: 2010.03.12/outbox.cif.g09.slc.cpg/sg63_16_cif.got.tgz:31860.got - 2010.04.10 19:34:48.
