data_PCOD8257036
_publ_section_title
;
Structure prediction by ZEFSAII (Michael W. Deem and Ramdas Pophale) SiO2 
 PCOD8257036
Probable space group: C M C M
;
_chemical_formula_sum "Si O2"
_cell_formula_units_Z 96
_cell_length_a 20.085433
_cell_length_b 30.056535
_cell_length_c 8.839671
_cell_angle_alpha 90.000000
_cell_angle_beta 90.000000
_cell_angle_gamma 90.000000
_cell_volume 5336.496300
_symmetry_space_group_name_H-M "C M C M"
_symmetry_group_IT_number 63
_symmetry_cell_setting 'orthorhombic'
loop_
_space_group_symop_operation_xyz
x,y,z
-x,-y,1/2+z
x,-y,-z
-x,y,1/2-z
-x,-y,-z
x,y,1/2-z
-x,y,z
x,-y,1/2+z
1/2+x,1/2+y,z
1/2-x,1/2-y,1/2+z
1/2+x,1/2-y,-z
1/2-x,1/2+y,1/2-z
1/2-x,1/2-y,-z
1/2+x,1/2+y,1/2-z
1/2-x,1/2+y,z
1/2+x,1/2-y,1/2+z
loop_
_atom_site_type_symbol
_atom_site_label
_atom_site_fract_x
_atom_site_fract_y
_atom_site_fract_z
Si Si1 0.075890 0.722053 0.422909
Si Si2 0.225331 0.134367 0.575357
Si Si3 0.882414 0.634162 0.924699
Si Si4 0.775622 0.955823 0.920247
Si Si5 0.310845 0.276516 0.928456
Si Si6 0.617151 0.955891 0.920328
O O1 0.101118 0.723904 0.250000
O O2 0.080381 0.671679 0.480729
O O3 0.119819 0.754323 0.525534
O O4 0.000000 0.738305 0.435631
O O5 0.205389 0.137696 0.750000
O O6 0.303849 0.140055 0.551883
O O7 0.199816 0.087234 0.512123
O O8 0.188062 0.172790 0.483658
O O9 0.902373 0.638064 0.750000
O O10 0.907519 0.586760 0.986224
O O11 0.803541 0.953420 0.750000
O O12 0.696413 0.957678 0.919327
O O13 0.804510 0.000000 0.000000
O O14 0.302763 0.274547 0.750000
O O15 0.250000 0.250000 0.000000
O O16 0.589295 0.953227 0.750000
O O17 0.588228 0.000000 0.000000
#
# Coordination Sequence:
#
# PCOD8257036 Si02
#       6
#    16  16  16  16  16  16
#     4  11  24  40  57  77 104 138 176 219 267 319
#     4  10  19  31  49  75 104 136 174 217 261 311
#     4  10  19  31  50  73  99 133 172 215 262 313
#     4   9  16  26  41  65  99 137 171 209 257 310
#     4  12  23  36  56  80 107 139 176 221 267 317
#     4   9  16  26  42  65  95 128 167 213 260 311
#
# _framework density 17.989332000000001
#
# number of rings (size 3 to 8) (size 9 to 14) (size 15 to 20)
#    0.000    1.833    1.667    4.000    0.000    6.667 
#    0.000    0.000    0.000    0.500    0.000    0.000 
#    0.000    0.667    0.000    2.500    0.000    3.833 
#
# Total GULP energy -595360.158105 kJ/mol
# GULP energy per Si atom -12403.336627 kJ/mol
# Density = 1.794839 g / cm^3
# Si number density = 17.989332 Si / 1000 Ang^3
#
#
#
# Elastic Constant Matrix: (Units=GPa)
#
#
# Indices 1 2 3 4 5 6 
#
# 1 40.7701 33.3160 31.3898 0.0000 0.0000 0.0000
# 2 33.3160 140.6089 65.4591 0.0000 0.0000 0.0000
# 3 31.3898 65.4591 157.6944 0.0000 0.0000 0.0000
# 4 0.0000 0.0000 0.0000 41.6973 0.0000 0.0000
# 5 0.0000 0.0000 0.0000 0.0000 16.2000 0.0000
# 6 0.0000 0.0000 0.0000 0.0000 0.0000 8.7973
#
#
#
# Elastic Compliance Matrix: (Units=1/GPa)
#
#
# Indices 1 2 3 4 5 6 
#
# 1 0.032369 -0.005789 -0.004040 0.000000 0.000000 0.000000
# 2 -0.005789 0.009851 -0.002937 0.000000 0.000000 0.000000
# 3 -0.004040 -0.002937 0.008365 0.000000 0.000000 0.000000
# 4 0.000000 0.000000 0.000000 0.023982 0.000000 0.000000
# 5 0.000000 0.000000 0.000000 0.000000 0.061728 0.000000
# 6 0.000000 0.000000 0.000000 0.000000 0.000000 0.113671
#
#
# Mechanical properties :
#
#
# Convention : Reuss Voigt Hill
#
# Bulk Modulus (GPa) = 39.91568 66.60033 53.25801
# Shear Modulus (GPa) = 17.61508 27.26616 22.44062
#
# Velocity S-wave (km/s) = 3.13261 3.89740 3.53574
# Velocity P-wave (km/s) = 5.94315 7.57334 6.80722
#
# Compressibility (1/GPa) = 0.02505281
#
# Stress axis : x y z
#
# Youngs Moduli (GPa) = 30.89400 101.51610 119.55032
#
# Poissons Ratio (x) = 0.58763 0.48302
# Poissons Ratio (y) = 0.17883 0.35109
# Poissons Ratio (z) = 0.12482 0.29813
#
# Static dielectric constant tensor:
#      x y z
#    x 2.807900 0.000000 0.000000 
#    y 0.000000 3.532380 0.000000 
#    z 0.000000 0.000000 3.553290 
# 
# 
# High freq. dielectric constant tensor:
#      x y z
#    x 1.630400 0.000000 0.000000 
#    y 0.000000 1.709610 0.000000 
#    z 0.000000 0.000000 1.719280 
# 
# From -- ./inp_files/8526.got.cif
#   From: 2010.03.12/outbox.cif.g09.slc.cpg/sg63_5_cif.got.tgz:8526.got - 2010.04.10 19:34:48.
