data_PCOD8257911
_publ_section_title
;
Structure prediction by ZEFSAII (Michael W. Deem and Ramdas Pophale) SiO2 
 PCOD8257911
Probable space group: C M C M
;
_chemical_formula_sum "Si O2"
_cell_formula_units_Z 112
_cell_length_a 15.086724
_cell_length_b 22.298963
_cell_length_c 14.584185
_cell_angle_alpha 90.000000
_cell_angle_beta 90.000000
_cell_angle_gamma 90.000000
_cell_volume 4906.386728
_symmetry_space_group_name_H-M "C M C M"
_symmetry_group_IT_number 63
_symmetry_cell_setting 'orthorhombic'
loop_
_space_group_symop_operation_xyz
x,y,z
-x,-y,1/2+z
x,-y,-z
-x,y,1/2-z
-x,-y,-z
x,y,1/2-z
-x,y,z
x,-y,1/2+z
1/2+x,1/2+y,z
1/2-x,1/2-y,1/2+z
1/2+x,1/2-y,-z
1/2-x,1/2+y,1/2-z
1/2-x,1/2-y,-z
1/2+x,1/2+y,1/2-z
1/2-x,1/2+y,z
1/2+x,1/2-y,1/2+z
loop_
_atom_site_type_symbol
_atom_site_label
_atom_site_fract_x
_atom_site_fract_y
_atom_site_fract_z
Si Si1 0.137125 0.853385 0.350903
Si Si2 0.401982 0.509352 0.606446
Si Si3 0.402076 0.252167 0.017019
Si Si4 0.166193 0.692665 0.647573
Si Si5 0.897454 0.643708 0.356729
Si Si6 0.402148 0.929528 0.358115
Si Si7 0.215199 0.465766 0.645410
O O1 0.095824 0.838103 0.250000
O O2 0.123546 0.923319 0.368371
O O3 0.094338 0.817200 0.435071
O O4 0.238864 0.837092 0.348565
O O5 0.408364 0.500000 0.500000
O O6 0.500000 0.493676 0.648849
O O7 0.322517 0.465896 0.640607
O O8 0.500000 0.237730 0.981099
O O9 0.370713 0.205191 0.093813
O O10 0.339916 0.247457 0.925834
O O11 0.138067 0.714861 0.750000
O O12 0.105420 0.638903 0.605951
O O13 0.879701 0.655601 0.250000
O O14 0.830947 0.593133 0.398263
O O15 0.000000 0.625047 0.373957
O O16 0.385721 0.924545 0.250000
O O17 0.500000 0.954454 0.381634
O O18 0.328552 0.974816 0.401240
O O19 0.183788 0.465075 0.750000
#
# Coordination Sequence:
#
# PCOD8257911 Si02
#       7
#    16  16  16  16  16  16  16
#     4  11  23  43  70  95 122 166 222 275 324 378
#     4  11  25  42  62  89 122 161 212 277 335 376
#     4  11  23  38  62  96 130 168 213 261 321 387
#     4  10  21  38  59  89 129 168 211 260 315 383
#     4   9  19  35  56  91 136 172 205 252 315 387
#     4   9  16  29  53  85 122 164 206 247 301 378
#     4  10  19  34  58  87 120 162 207 255 317 380
#
# _framework density 22.827389
#
# number of rings (size 3 to 8) (size 9 to 14) (size 15 to 20)
#    0.000    1.857    1.429    2.571    2.000    5.143 
#    0.000    0.000    0.000    4.286    0.000    4.000 
#    0.000    0.000    0.000    0.000    0.000    0.000 
#
# Total GULP energy -693933.034942 kJ/mol
# GULP energy per Si atom -12391.661338 kJ/mol
# Density = 2.277543 g / cm^3
# Si number density = 22.827389 Si / 1000 Ang^3
#
#
#
# Elastic Constant Matrix: (Units=GPa)
#
#
# Indices 1 2 3 4 5 6 
#
# 1 116.4858 23.7447 17.8338 0.0000 0.0000 0.0000
# 2 23.7447 54.1020 23.2249 0.0000 0.0000 0.0000
# 3 17.8338 23.2249 89.1593 0.0000 0.0000 0.0000
# 4 0.0000 0.0000 0.0000 28.6807 0.0000 0.0000
# 5 0.0000 0.0000 0.0000 0.0000 -243.9132 0.0000
# 6 0.0000 0.0000 0.0000 0.0000 0.0000 23.8144
#
#
#
# Elastic Compliance Matrix: (Units=1/GPa)
#
#
# Indices 1 2 3 4 5 6 
#
# 1 0.009494 -0.003774 -0.000916 0.000000 0.000000 0.000000
# 2 -0.003774 0.022311 -0.005057 0.000000 0.000000 0.000000
# 3 -0.000916 -0.005057 0.012716 0.000000 0.000000 0.000000
# 4 0.000000 0.000000 0.000000 0.034867 0.000000 0.000000
# 5 0.000000 0.000000 0.000000 0.000000 -0.004100 0.000000
# 6 0.000000 0.000000 0.000000 0.000000 0.000000 0.041991
#
#
# Mechanical properties :
#
#
# Convention : Reuss Voigt Hill
#
# Bulk Modulus (GPa) = 39.95508 43.26155 41.60831
# Shear Modulus (GPa) = 34.45537 -25.28739 4.58399
#
# Velocity S-wave (km/s) = 3.88930 -3.33192 1.41861
# Velocity P-wave (km/s) = 6.14085 2.04706 4.57714
#
# Compressibility (1/GPa) = 0.02502811
#
# Stress axis : x y z
#
# Youngs Moduli (GPa) = 105.32734 44.82172 78.63894
#
# Poissons Ratio (x) = 0.16914 0.07204
# Poissons Ratio (y) = 0.39747 0.39766
# Poissons Ratio (z) = 0.09649 0.22666
#
# Static dielectric constant tensor:
#      x y z
#    x 4.372600 0.000000 0.000000 
#    y 0.000000 3.999880 0.000000 
#    z 0.000000 0.000000 4.049630 
# 
# 
# High freq. dielectric constant tensor:
#      x y z
#    x 1.907590 0.000000 0.000000 
#    y 0.000000 1.878240 0.000000 
#    z 0.000000 0.000000 1.894380 
# 
# From -- ./inp_files/32313.got.cif
#   From: 2010.03.12/outbox.cif.g09.slc.cpg/sg63_17_cif.got.tgz:32313.got - 2010.04.10 19:34:48.
