data_PCOD8257381
_publ_section_title
;
Structure prediction by ZEFSAII (Michael W. Deem and Ramdas Pophale) SiO2 
 PCOD8257381
Probable space group: C M C M
;
_chemical_formula_sum "Si O2"
_cell_formula_units_Z 112
_cell_length_a 14.513922
_cell_length_b 28.008342
_cell_length_c 15.195256
_cell_angle_alpha 90.000000
_cell_angle_beta 90.000000
_cell_angle_gamma 90.000000
_cell_volume 6177.037058
_symmetry_space_group_name_H-M "C M C M"
_symmetry_group_IT_number 63
_symmetry_cell_setting 'orthorhombic'
loop_
_space_group_symop_operation_xyz
x,y,z
-x,-y,1/2+z
x,-y,-z
-x,y,1/2-z
-x,-y,-z
x,y,1/2-z
-x,y,z
x,-y,1/2+z
1/2+x,1/2+y,z
1/2-x,1/2-y,1/2+z
1/2+x,1/2-y,-z
1/2-x,1/2+y,1/2-z
1/2-x,1/2-y,-z
1/2+x,1/2+y,1/2-z
1/2-x,1/2+y,z
1/2+x,1/2-y,1/2+z
loop_
_atom_site_type_symbol
_atom_site_label
_atom_site_fract_x
_atom_site_fract_y
_atom_site_fract_z
Si Si1 0.897027 0.749230 0.847230
Si Si2 0.101579 0.927343 0.849584
Si Si3 0.225307 0.302070 0.464582
Si Si4 0.899323 0.161752 0.025739
Si Si5 0.202058 0.460307 0.851406
Si Si6 0.391792 0.884005 0.521201
Si Si7 0.394023 0.057587 0.650212
O O1 0.872256 0.766450 0.750000
O O2 0.828238 0.706211 0.873271
O O3 0.886607 0.794720 0.908207
O O4 0.000000 0.727999 0.853092
O O5 0.106370 0.906829 0.750000
O O6 0.115004 0.885406 0.918591
O O7 0.186796 0.963144 0.865510
O O8 0.000000 0.951658 0.864121
O O9 0.250000 0.250000 0.500000
O O10 0.319790 0.332679 0.451735
O O11 0.157652 0.332205 0.529791
O O12 0.000000 0.162521 0.980273
O O13 0.177522 0.448924 0.750000
O O14 0.154054 0.419924 0.909779
O O15 0.165372 0.511950 0.878851
O O16 0.500000 0.879177 0.542476
O O17 0.373999 0.901143 0.420589
O O18 0.368979 0.074624 0.750000
O O19 0.500000 0.041623 0.645478
#
# Coordination Sequence:
#
# PCOD8257381 Si02
#       7
#    16  16  16  16  16  16  16
#     4   9  17  29  47  70  95 125 164 213 262 307
#     4   9  16  27  47  74 100 127 163 208 254 300
#     4  10  20  33  48  73 101 133 169 214 264 311
#     4   9  16  29  48  68  93 126 166 208 255 305
#     4  10  19  32  52  79 110 141 171 210 264 327
#     4  11  21  34  53  77 106 141 178 217 263 318
#     4   9  19  35  55  79 106 137 175 217 261 311
#
# _framework density 18.131671000000001
#
# number of rings (size 3 to 8) (size 9 to 14) (size 15 to 20)
#    0.000    2.429    1.429    1.714    0.000    4.857 
#    0.000    1.429    0.000    3.000    0.000    0.000 
#    0.000    0.000    0.000    0.000    0.000    0.000 
#
# Total GULP energy -693822.356695 kJ/mol
# GULP energy per Si atom -12389.684941 kJ/mol
# Density = 1.809040 g / cm^3
# Si number density = 18.131671 Si / 1000 Ang^3
#
#
#
# Elastic Constant Matrix: (Units=GPa)
#
#
# Indices 1 2 3 4 5 6 
#
# 1 126.4037 38.8535 26.7560 0.0000 0.0000 0.0000
# 2 38.8535 64.0054 18.8357 0.0000 0.0000 0.0000
# 3 26.7560 18.8357 48.4479 0.0000 0.0000 0.0000
# 4 0.0000 0.0000 0.0000 27.4309 0.0000 0.0000
# 5 0.0000 0.0000 0.0000 0.0000 24.9846 0.0000
# 6 0.0000 0.0000 0.0000 0.0000 0.0000 32.4893
#
#
#
# Elastic Compliance Matrix: (Units=1/GPa)
#
#
# Indices 1 2 3 4 5 6 
#
# 1 0.010273 -0.005156 -0.003669 0.000000 0.000000 0.000000
# 2 -0.005156 0.020230 -0.005018 0.000000 0.000000 0.000000
# 3 -0.003669 -0.005018 0.024617 0.000000 0.000000 0.000000
# 4 0.000000 0.000000 0.000000 0.036455 0.000000 0.000000
# 5 0.000000 0.000000 0.000000 0.000000 0.040025 0.000000
# 6 0.000000 0.000000 0.000000 0.000000 0.000000 0.030779
#
#
# Mechanical properties :
#
#
# Convention : Reuss Voigt Hill
#
# Bulk Modulus (GPa) = 36.44891 45.30527 40.87709
# Shear Modulus (GPa) = 25.09920 27.27507 26.18713
#
# Velocity S-wave (km/s) = 3.72462 3.88271 3.80449
# Velocity P-wave (km/s) = 6.21635 6.71875 6.47243
#
# Compressibility (1/GPa) = 0.02743566
#
# Stress axis : x y z
#
# Youngs Moduli (GPa) = 97.34654 49.43088 40.62159
#
# Poissons Ratio (x) = 0.25488 0.14902
# Poissons Ratio (y) = 0.50194 0.20382
# Poissons Ratio (z) = 0.35712 0.24802
#
# Static dielectric constant tensor:
#      x y z
#    x 4.035970 0.000000 0.000000 
#    y 0.000000 3.213850 0.000000 
#    z 0.000000 0.000000 3.312750 
# 
# 
# High freq. dielectric constant tensor:
#      x y z
#    x 1.721780 0.000000 0.000000 
#    y 0.000000 1.685040 0.000000 
#    z 0.000000 0.000000 1.676240 
# 
# From -- ./inp_files/32302.got.cif
#   From: 2010.03.12/outbox.cif.g09.slc.cpg/sg63_17_cif.got.tgz:32302.got - 2010.04.10 19:34:48.
