data_PCOD8257599
_publ_section_title
;
Structure prediction by ZEFSAII (Michael W. Deem and Ramdas Pophale) SiO2 
 PCOD8257599
Probable space group: C M C M
;
_chemical_formula_sum "Si O2"
_cell_formula_units_Z 96
_cell_length_a 19.421700
_cell_length_b 10.351564
_cell_length_c 25.486096
_cell_angle_alpha 90.000000
_cell_angle_beta 90.000000
_cell_angle_gamma 90.000000
_cell_volume 5123.851419
_symmetry_space_group_name_H-M "C M C M"
_symmetry_group_IT_number 63
_symmetry_cell_setting 'orthorhombic'
loop_
_space_group_symop_operation_xyz
x,y,z
-x,-y,1/2+z
x,-y,-z
-x,y,1/2-z
-x,-y,-z
x,y,1/2-z
-x,y,z
x,-y,1/2+z
1/2+x,1/2+y,z
1/2-x,1/2-y,1/2+z
1/2+x,1/2-y,-z
1/2-x,1/2+y,1/2-z
1/2-x,1/2-y,-z
1/2+x,1/2+y,1/2-z
1/2-x,1/2+y,z
1/2+x,1/2-y,1/2+z
loop_
_atom_site_type_symbol
_atom_site_label
_atom_site_fract_x
_atom_site_fract_y
_atom_site_fract_z
Si Si1 0.203793 0.414551 0.811261
Si Si2 0.712938 0.813504 0.362269
Si Si3 0.222934 0.876103 0.028574
Si Si4 0.923665 0.665023 0.584061
Si Si5 0.923602 0.798627 0.475244
Si Si6 0.924358 0.615526 0.379007
O O1 0.207998 0.388952 0.750000
O O2 0.258259 0.319484 0.838928
O O3 0.216435 0.566968 0.821591
O O4 0.128807 0.373035 0.831551
O O5 0.755594 0.867696 0.411330
O O6 0.635193 0.772697 0.379135
O O7 0.140187 0.896732 0.023370
O O8 0.250000 0.750000 0.000000
O O9 0.256889 0.000000 0.000000
O O10 0.914519 0.700231 0.523394
O O11 0.912987 0.512345 0.586844
O O12 0.000000 0.706882 0.604410
O O13 0.915241 0.730028 0.419682
O O14 0.000000 0.865118 0.478291
O O15 0.000000 0.617966 0.353082
#
# Coordination Sequence:
#
# PCOD8257599 Si02
#       6
#    16  16  16  16  16  16
#     4  11  23  39  60  83 108 148 197 247 293 333
#     4  11  22  38  59  83 118 147 188 238 290 338
#     4  12  24  36  57  87 121 154 190 228 277 345
#     4   9  18  31  54  84 116 149 183 223 278 344
#     4  10  19  33  53  82 118 157 187 219 272 344
#     4   9  18  33  54  83 115 147 185 234 282 335
#
# _framework density 18.735906
#
# number of rings (size 3 to 8) (size 9 to 14) (size 15 to 20)
#    0.000    1.667    3.333    2.000    2.333    2.667 
#    0.000    0.000    0.000    2.500    0.000    0.000 
#    0.000    0.000    0.000    0.000    0.000    0.000 
#
# Total GULP energy -594869.519710 kJ/mol
# GULP energy per Si atom -12393.114994 kJ/mol
# Density = 1.869326 g / cm^3
# Si number density = 18.735906 Si / 1000 Ang^3
#
#
#
# Elastic Constant Matrix: (Units=GPa)
#
#
# Indices 1 2 3 4 5 6 
#
# 1 135.2104 26.0967 34.2512 0.0000 0.0000 0.0000
# 2 26.0967 49.6679 13.0722 0.0000 0.0000 0.0000
# 3 34.2512 13.0722 86.6426 0.0000 0.0000 0.0000
# 4 0.0000 0.0000 0.0000 26.4237 0.0000 0.0000
# 5 0.0000 0.0000 0.0000 0.0000 17.5976 0.0000
# 6 0.0000 0.0000 0.0000 0.0000 0.0000 24.6219
#
#
#
# Elastic Compliance Matrix: (Units=1/GPa)
#
#
# Indices 1 2 3 4 5 6 
#
# 1 0.008890 -0.003901 -0.002926 0.000000 0.000000 0.000000
# 2 -0.003901 0.022678 -0.001879 0.000000 0.000000 0.000000
# 3 -0.002926 -0.001879 0.012982 0.000000 0.000000 0.000000
# 4 0.000000 0.000000 0.000000 0.037845 0.000000 0.000000
# 5 0.000000 0.000000 0.000000 0.000000 0.056826 0.000000
# 6 0.000000 0.000000 0.000000 0.000000 0.000000 0.040614
#
#
# Mechanical properties :
#
#
# Convention : Reuss Voigt Hill
#
# Bulk Modulus (GPa) = 36.84940 46.48455 41.66697
# Shear Modulus (GPa) = 24.23740 26.93538 25.58639
#
# Velocity S-wave (km/s) = 3.60061 3.79573 3.69946
# Velocity P-wave (km/s) = 6.08247 6.63885 6.36674
#
# Compressibility (1/GPa) = 0.02713749
#
# Stress axis : x y z
#
# Youngs Moduli (GPa) = 112.48663 44.09549 77.03071
#
# Poissons Ratio (x) = 0.17201 0.22537
# Poissons Ratio (y) = 0.43880 0.14478
# Poissons Ratio (z) = 0.32911 0.08288
#
# Static dielectric constant tensor:
#      x y z
#    x 4.118540 0.000000 0.000000 
#    y 0.000000 3.354160 0.000000 
#    z 0.000000 0.000000 3.301520 
# 
# 
# High freq. dielectric constant tensor:
#      x y z
#    x 1.749430 0.000000 0.000000 
#    y 0.000000 1.712820 0.000000 
#    z 0.000000 0.000000 1.706230 
# 
# From -- ./inp_files/56531.got.cif
#   From: 2010.03.12/outbox.cif.g09.slc.cpg/sg63_29_cif.got.tgz:56531.got - 2010.04.10 19:34:48.
