data_PCOD8257252
_publ_section_title
;
Structure prediction by ZEFSAII (Michael W. Deem and Ramdas Pophale) SiO2 
 PCOD8257252
Probable space group: C M C M
;
_chemical_formula_sum "Si O2"
_cell_formula_units_Z 128
_cell_length_a 9.594195
_cell_length_b 26.556171
_cell_length_c 27.216951
_cell_angle_alpha 90.000000
_cell_angle_beta 90.000000
_cell_angle_gamma 90.000000
_cell_volume 6934.473120
_symmetry_space_group_name_H-M "C M C M"
_symmetry_group_IT_number 63
_symmetry_cell_setting 'orthorhombic'
loop_
_space_group_symop_operation_xyz
x,y,z
-x,-y,1/2+z
x,-y,-z
-x,y,1/2-z
-x,-y,-z
x,y,1/2-z
-x,y,z
x,-y,1/2+z
1/2+x,1/2+y,z
1/2-x,1/2-y,1/2+z
1/2+x,1/2-y,-z
1/2-x,1/2+y,1/2-z
1/2-x,1/2-y,-z
1/2+x,1/2+y,1/2-z
1/2-x,1/2+y,z
1/2+x,1/2-y,1/2+z
loop_
_atom_site_type_symbol
_atom_site_label
_atom_site_fract_x
_atom_site_fract_y
_atom_site_fract_z
Si Si1 0.833631 0.064628 0.362342
Si Si2 0.847191 0.875933 0.449999
Si Si3 0.165524 0.951456 0.972156
Si Si4 0.840712 0.480810 0.192128
Si Si5 0.650669 0.289666 0.522548
Si Si6 0.335468 0.874244 0.354395
Si Si7 0.335018 0.677818 0.128551
Si Si8 0.334394 0.770010 0.305308
O O1 0.778553 0.051018 0.416847
O O2 0.757445 0.025917 0.326297
O O3 0.787301 0.122668 0.351489
O O4 0.000000 0.057845 0.356679
O O5 0.775304 0.907918 0.493292
O O6 0.873577 0.823596 0.475474
O O7 0.740611 0.872546 0.405977
O O8 0.000000 0.897359 0.432460
O O9 0.000000 0.947042 0.969680
O O10 0.220266 0.000000 0.000000
O O11 0.826113 0.478633 0.250000
O O12 0.792416 0.426003 0.172590
O O13 0.000000 0.491735 0.176119
O O14 0.500000 0.266097 0.537385
O O15 0.750000 0.250000 0.500000
O O16 0.713656 0.315769 0.571731
O O17 0.500000 0.871844 0.363184
O O18 0.284843 0.824880 0.324354
O O19 0.500000 0.678328 0.130782
O O20 0.274096 0.723786 0.161603
O O21 0.277309 0.762923 0.250000
O O22 0.500000 0.767973 0.305804
#
# Coordination Sequence:
#
# PCOD8257252 Si02
#       8
#    16  16  16  16  16  16  16  16
#     4  10  19  34  56  81 107 138 180 226 264 309
#     4  10  19  32  51  77 107 139 171 207 261 319
#     4   9  16  28  48  73 102 136 170 205 252 310
#     4  10  22  39  56  76 107 145 179 219 275 328
#     4  10  19  32  50  75 108 143 176 213 259 314
#     4  10  20  35  55  79 106 136 177 224 266 319
#     4   9  17  31  51  77 110 138 170 221 271 312
#     4   9  17  30  51  77 102 133 174 221 272 317
#
# _framework density 18.458504000000001
#
# number of rings (size 3 to 8) (size 9 to 14) (size 15 to 20)
#    0.000    2.375    1.250    1.875    0.000    5.250 
#    0.000    2.500    0.000    4.125    0.000    0.000 
#    0.000    0.000    0.000    0.000    0.000    0.000 
#
# Total GULP energy -792919.010331 kJ/mol
# GULP energy per Si atom -12389.359536 kJ/mol
# Density = 1.841649 g / cm^3
# Si number density = 18.458504 Si / 1000 Ang^3
#
#
#
# Elastic Constant Matrix: (Units=GPa)
#
#
# Indices 1 2 3 4 5 6 
#
# 1 33.8099 37.0779 31.4105 0.0000 0.0000 0.0000
# 2 37.0779 144.5347 52.7164 0.0000 0.0000 0.0000
# 3 31.4105 52.7164 108.7302 0.0000 0.0000 0.0000
# 4 0.0000 0.0000 0.0000 49.6678 0.0000 0.0000
# 5 0.0000 0.0000 0.0000 0.0000 27.4406 0.0000
# 6 0.0000 0.0000 0.0000 0.0000 0.0000 23.9435
#
#
#
# Elastic Compliance Matrix: (Units=1/GPa)
#
#
# Indices 1 2 3 4 5 6 
#
# 1 0.048254 -0.008861 -0.009644 0.000000 0.000000 0.000000
# 2 -0.008861 0.010032 -0.002304 0.000000 0.000000 0.000000
# 3 -0.009644 -0.002304 0.013100 0.000000 0.000000 0.000000
# 4 0.000000 0.000000 0.000000 0.020134 0.000000 0.000000
# 5 0.000000 0.000000 0.000000 0.000000 0.036442 0.000000
# 6 0.000000 0.000000 0.000000 0.000000 0.000000 0.041765
#
#
# Mechanical properties :
#
#
# Convention : Reuss Voigt Hill
#
# Bulk Modulus (GPa) = 33.59265 58.83161 46.21213
# Shear Modulus (GPa) = 22.59693 31.26838 26.93265
#
# Velocity S-wave (km/s) = 3.50265 4.12027 3.82395
# Velocity P-wave (km/s) = 5.88189 7.38763 6.67734
#
# Compressibility (1/GPa) = 0.02976842
#
# Stress axis : x y z
#
# Youngs Moduli (GPa) = 20.72354 99.67697 76.33536
#
# Poissons Ratio (x) = 0.88329 0.73615
# Poissons Ratio (y) = 0.18364 0.17589
# Poissons Ratio (z) = 0.19985 0.22967
#
# Static dielectric constant tensor:
#      x y z
#    x 2.896040 0.000000 0.000000 
#    y 0.000000 3.725180 0.000000 
#    z 0.000000 0.000000 3.490210 
# 
# 
# High freq. dielectric constant tensor:
#      x y z
#    x 1.664240 0.000000 0.000000 
#    y 0.000000 1.731520 0.000000 
#    z 0.000000 0.000000 1.723330 
# 
# From -- ./inp_files/68799.got.cif
#   From: 2010.03.12/outbox.cif.g09.slc.cpg/sg63_35_cif.got.tgz:68799.got - 2010.04.10 19:34:48.
