data_PCOD8257164
_publ_section_title
;
Structure prediction by ZEFSAII (Michael W. Deem and Ramdas Pophale) SiO2 
 PCOD8257164
Probable space group: C M C M
;
_chemical_formula_sum "Si O2"
_cell_formula_units_Z 104
_cell_length_a 18.368942
_cell_length_b 31.705999
_cell_length_c 10.180175
_cell_angle_alpha 90.000000
_cell_angle_beta 90.000000
_cell_angle_gamma 90.000000
_cell_volume 5928.991506
_symmetry_space_group_name_H-M "C M C M"
_symmetry_group_IT_number 63
_symmetry_cell_setting 'orthorhombic'
loop_
_space_group_symop_operation_xyz
x,y,z
-x,-y,1/2+z
x,-y,-z
-x,y,1/2-z
-x,-y,-z
x,y,1/2-z
-x,y,z
x,-y,1/2+z
1/2+x,1/2+y,z
1/2-x,1/2-y,1/2+z
1/2+x,1/2-y,-z
1/2-x,1/2+y,1/2-z
1/2-x,1/2-y,-z
1/2+x,1/2+y,1/2-z
1/2-x,1/2+y,z
1/2+x,1/2-y,1/2+z
loop_
_atom_site_type_symbol
_atom_site_label
_atom_site_fract_x
_atom_site_fract_y
_atom_site_fract_z
Si Si1 0.080697 0.438193 0.894798
Si Si2 0.138681 0.374714 0.403297
Si Si3 0.585920 0.714417 0.895668
Si Si4 0.085457 0.717253 0.899265
Si Si5 0.805022 0.500000 0.500000
Si Si6 0.080115 0.119792 0.906127
Si Si7 0.279191 0.421941 0.401341
O O1 0.089900 0.417489 0.750000
O O2 0.000000 0.458477 0.907657
O O3 0.085822 0.402791 0.007110
O O4 0.142020 0.474462 0.903098
O O5 0.123077 0.385522 0.250000
O O6 0.127175 0.325800 0.432688
O O7 0.220670 0.386860 0.445589
O O8 0.619246 0.723285 0.750000
O O9 0.500000 0.719603 0.887441
O O10 0.604488 0.667270 0.944005
O O11 0.617119 0.747470 0.002082
O O12 0.101572 0.731651 0.750000
O O13 0.000000 0.709226 0.919340
O O14 0.750575 0.531361 0.574170
O O15 0.073962 0.116845 0.750000
O O16 0.141793 0.088285 0.966961
O O17 0.000000 0.108832 0.966118
O O18 0.294066 0.416414 0.250000
#
# Coordination Sequence:
#
# PCOD8257164 Si02
#       7
#    16  16  16  16   8  16  16
#     4  10  20  32  47  68  93 123 160 197 227 259
#     4   9  18  31  46  66  94 127 160 191 225 267
#     4   8  14  25  43  66  89 115 150 190 225 258
#     4   9  16  26  41  62  90 123 155 186 221 262
#     4  10  19  32  47  66  92 120 148 186 233 282
#     4   8  14  27  48  71  90 110 145 191 231 271
#     4   9  17  30  48  66  86 117 151 185 231 281
#
# _framework density 17.540925999999999
#
# number of rings (size 3 to 8) (size 9 to 14) (size 15 to 20)
#    0.000    3.077    0.000    2.077    0.000    2.154 
#    0.000    2.692    0.000    4.615    0.000    0.000 
#    0.000    0.000    0.000    0.000    0.000    0.000 
#
# Total GULP energy -644262.801660 kJ/mol
# GULP energy per Si atom -12389.669263 kJ/mol
# Density = 1.750100 g / cm^3
# Si number density = 17.540926 Si / 1000 Ang^3
#
#
#
# Elastic Constant Matrix: (Units=GPa)
#
#
# Indices 1 2 3 4 5 6 
#
# 1 95.1705 50.0439 24.4097 0.0000 0.0000 0.0000
# 2 50.0439 76.7156 22.7512 0.0000 0.0000 0.0000
# 3 24.4097 22.7512 51.6886 0.0000 0.0000 0.0000
# 4 0.0000 0.0000 0.0000 22.3656 0.0000 0.0000
# 5 0.0000 0.0000 0.0000 0.0000 10.8008 0.0000
# 6 0.0000 0.0000 0.0000 0.0000 0.0000 9.3177
#
#
#
# Elastic Compliance Matrix: (Units=1/GPa)
#
#
# Indices 1 2 3 4 5 6 
#
# 1 0.016532 -0.009741 -0.003520 0.000000 0.000000 0.000000
# 2 -0.009741 0.020731 -0.004525 0.000000 0.000000 0.000000
# 3 -0.003520 -0.004525 0.023001 0.000000 0.000000 0.000000
# 4 0.000000 0.000000 0.000000 0.044711 0.000000 0.000000
# 5 0.000000 0.000000 0.000000 0.000000 0.092586 0.000000
# 6 0.000000 0.000000 0.000000 0.000000 0.000000 0.107322
#
#
# Mechanical properties :
#
#
# Convention : Reuss Voigt Hill
#
# Bulk Modulus (GPa) = 40.49733 46.44271 43.47002
# Shear Modulus (GPa) = 14.33956 16.92148 15.63052
#
# Velocity S-wave (km/s) = 2.86228 3.10931 2.98835
# Velocity P-wave (km/s) = 5.83618 6.27891 6.06159
#
# Compressibility (1/GPa) = 0.02469298
#
# Stress axis : x y z
#
# Youngs Moduli (GPa) = 60.48809 48.23644 43.47715
#
# Poissons Ratio (x) = 0.46985 0.15303
# Poissons Ratio (y) = 0.58919 0.19674
# Poissons Ratio (z) = 0.21291 0.21827
#
# Static dielectric constant tensor:
#      x y z
#    x 3.417000 0.000000 0.000000 
#    y 0.000000 3.261210 0.000000 
#    z 0.000000 0.000000 3.222510 
# 
# 
# High freq. dielectric constant tensor:
#      x y z
#    x 1.667440 0.000000 0.000000 
#    y 0.000000 1.666360 0.000000 
#    z 0.000000 0.000000 1.653490 
# 
# From -- ./inp_files/21618.got.cif
#   From: 2010.03.12/outbox.cif.g09.slc.cpg/sg63_11_cif.got.tgz:21618.got - 2010.04.10 19:34:48.
