data_PCOD8257054
_publ_section_title
;
Structure prediction by ZEFSAII (Michael W. Deem and Ramdas Pophale) SiO2 
 PCOD8257054
Probable space group: C M C M
;
_chemical_formula_sum "Si O2"
_cell_formula_units_Z 80
_cell_length_a 9.498699
_cell_length_b 20.317135
_cell_length_c 22.929742
_cell_angle_alpha 90.000000
_cell_angle_beta 90.000000
_cell_angle_gamma 90.000000
_cell_volume 4425.127213
_symmetry_space_group_name_H-M "C M C M"
_symmetry_group_IT_number 63
_symmetry_cell_setting 'orthorhombic'
loop_
_space_group_symop_operation_xyz
x,y,z
-x,-y,1/2+z
x,-y,-z
-x,y,1/2-z
-x,-y,-z
x,y,1/2-z
-x,y,z
x,-y,1/2+z
1/2+x,1/2+y,z
1/2-x,1/2-y,1/2+z
1/2+x,1/2-y,-z
1/2-x,1/2+y,1/2-z
1/2-x,1/2-y,-z
1/2+x,1/2+y,1/2-z
1/2-x,1/2+y,z
1/2+x,1/2-y,1/2+z
loop_
_atom_site_type_symbol
_atom_site_label
_atom_site_fract_x
_atom_site_fract_y
_atom_site_fract_z
Si Si1 0.836030 0.877173 0.873903
Si Si2 0.667912 0.491579 0.183697
Si Si3 0.838208 0.137908 0.618314
Si Si4 0.836615 0.183400 0.492701
Si Si5 0.662727 0.243180 0.684108
O O1 0.805567 0.819599 0.827685
O O2 0.000000 0.890434 0.881547
O O3 0.767431 0.943944 0.848243
O O4 0.775448 0.857099 0.937410
O O5 0.725239 0.487239 0.250000
O O6 0.500000 0.494960 0.184414
O O7 0.721681 0.428638 0.147170
O O8 0.820237 0.135722 0.548526
O O9 0.753766 0.200275 0.640770
O O10 0.000000 0.147734 0.636353
O O11 0.750000 0.250000 0.500000
O O12 0.000000 0.202927 0.482619
O O13 0.705906 0.226751 0.750000
O O14 0.500000 0.227307 0.672270
#
# Coordination Sequence:
#
# PCOD8257054 Si02
#       5
#    16  16  16  16  16
#     4   9  17  30  49  72  98 131 169 207 244 289
#     4   9  17  30  48  72 103 133 163 206 255 298
#     4  10  20  32  50  76 103 132 163 203 257 304
#     4  10  19  32  51  75 102 131 166 209 251 295
#     4  10  19  31  50  74  98 130 172 210 244 290
#
# _framework density 18.078575000000001
#
# number of rings (size 3 to 8) (size 9 to 14) (size 15 to 20)
#    0.000    2.400    2.000    1.200    0.000    4.400 
#    0.000    4.000    0.000    2.400    0.000    2.800 
#    0.000    0.000    0.000    0.000    0.000    0.000 
#
# Total GULP energy -495933.747748 kJ/mol
# GULP energy per Si atom -12398.343694 kJ/mol
# Density = 1.803743 g / cm^3
# Si number density = 18.078575 Si / 1000 Ang^3
#
#
#
# Elastic Constant Matrix: (Units=GPa)
#
#
# Indices 1 2 3 4 5 6 
#
# 1 26.0735 20.5908 21.1341 0.0000 0.0000 0.0000
# 2 20.5908 100.6000 45.5149 0.0000 0.0000 0.0000
# 3 21.1341 45.5149 123.3378 0.0000 0.0000 0.0000
# 4 0.0000 0.0000 0.0000 38.1757 0.0000 0.0000
# 5 0.0000 0.0000 0.0000 0.0000 18.6953 0.0000
# 6 0.0000 0.0000 0.0000 0.0000 0.0000 18.0879
#
#
#
# Elastic Compliance Matrix: (Units=1/GPa)
#
#
# Indices 1 2 3 4 5 6 
#
# 1 0.048781 -0.007446 -0.005611 0.000000 0.000000 0.000000
# 2 -0.007446 0.013069 -0.003547 0.000000 0.000000 0.000000
# 3 -0.005611 -0.003547 0.010378 0.000000 0.000000 0.000000
# 4 0.000000 0.000000 0.000000 0.026195 0.000000 0.000000
# 5 0.000000 0.000000 0.000000 0.000000 0.053489 0.000000
# 6 0.000000 0.000000 0.000000 0.000000 0.000000 0.055286
#
#
# Mechanical properties :
#
#
# Convention : Reuss Voigt Hill
#
# Bulk Modulus (GPa) = 25.62734 47.16565 36.39650
# Shear Modulus (GPa) = 19.73062 25.84320 22.78691
#
# Velocity S-wave (km/s) = 3.30719 3.78497 3.55412
# Velocity P-wave (km/s) = 5.36560 6.72660 6.08428
#
# Compressibility (1/GPa) = 0.03902083
#
# Stress axis : x y z
#
# Youngs Moduli (GPa) = 20.49965 76.51591 96.35571
#
# Poissons Ratio (x) = 0.56973 0.54065
# Poissons Ratio (y) = 0.15264 0.34177
# Poissons Ratio (z) = 0.11502 0.27140
#
# Static dielectric constant tensor:
#      x y z
#    x 2.916850 0.000000 0.000000 
#    y 0.000000 3.432680 0.000000 
#    z 0.000000 0.000000 3.720930 
# 
# 
# High freq. dielectric constant tensor:
#      x y z
#    x 1.646150 0.000000 0.000000 
#    y 0.000000 1.701260 0.000000 
#    z 0.000000 0.000000 1.721700 
# 
# From -- ./inp_files/61126.got.cif
#   From: 2010.03.12/outbox.cif.g09.slc.cpg/sg63_31_cif.got.tgz:61126.got - 2010.04.10 19:34:48.
