data_PCOD8257386
_publ_section_title
;
Structure prediction by ZEFSAII (Michael W. Deem and Ramdas Pophale) SiO2 
 PCOD8257386
Probable space group: C M C M
;
_chemical_formula_sum "Si O2"
_cell_formula_units_Z 56
_cell_length_a 12.415963
_cell_length_b 26.484872
_cell_length_c 8.615510
_cell_angle_alpha 90.000000
_cell_angle_beta 90.000000
_cell_angle_gamma 90.000000
_cell_volume 2833.082875
_symmetry_space_group_name_H-M "C M C M"
_symmetry_group_IT_number 63
_symmetry_cell_setting 'orthorhombic'
loop_
_space_group_symop_operation_xyz
x,y,z
-x,-y,1/2+z
x,-y,-z
-x,y,1/2-z
-x,-y,-z
x,y,1/2-z
-x,y,z
x,-y,1/2+z
1/2+x,1/2+y,z
1/2-x,1/2-y,1/2+z
1/2+x,1/2-y,-z
1/2-x,1/2+y,1/2-z
1/2-x,1/2-y,-z
1/2+x,1/2+y,1/2-z
1/2-x,1/2+y,z
1/2+x,1/2-y,1/2+z
loop_
_atom_site_type_symbol
_atom_site_label
_atom_site_fract_x
_atom_site_fract_y
_atom_site_fract_z
Si Si1 0.822456 0.873571 0.567784
Si Si2 0.875895 0.768710 0.076132
Si Si3 0.500000 0.555530 0.933181
Si Si4 0.878175 0.665245 0.933093
O O1 0.828152 0.881478 0.750000
O O2 0.869645 0.819456 0.522330
O O3 0.892081 0.916842 0.488290
O O4 0.698420 0.877465 0.508479
O O5 0.826565 0.775217 0.250000
O O6 0.000000 0.754096 0.090973
O O7 0.825803 0.719659 0.986012
O O8 0.500000 0.553854 0.750000
O O9 0.500000 0.500000 0.000000
O O10 0.874235 0.661479 0.750000
O O11 0.000000 0.657111 0.993302
#
# Coordination Sequence:
#
# PCOD8257386 Si02
#       4
#    16  16   8  16
#     4  12  23  37  59  85 117 155 196 243 298 353
#     4  10  19  32  52  80 117 159 201 244 291 348
#     4  12  26  46  68  92 118 148 194 248 303 356
#     4  10  21  36  55  82 119 161 203 243 288 348
#
# _framework density 19.766452000000001
#
# number of rings (size 3 to 8) (size 9 to 14) (size 15 to 20)
#    0.000    1.143    1.429    6.429    0.000    2.857 
#    0.000    0.000    0.000    0.857    0.000    0.000 
#    0.000    0.000    0.000    0.000    0.000    0.000 
#
# Total GULP energy -347234.227868 kJ/mol
# GULP energy per Si atom -12401.222424 kJ/mol
# Density = 1.972146 g / cm^3
# Si number density = 19.766452 Si / 1000 Ang^3
#
#
#
# Elastic Constant Matrix: (Units=GPa)
#
#
# Indices 1 2 3 4 5 6 
#
# 1 115.7716 72.7181 56.8885 0.0000 0.0000 0.0000
# 2 72.7181 116.2602 54.5388 0.0000 0.0000 0.0000
# 3 56.8885 54.5388 159.9218 0.0000 0.0000 0.0000
# 4 0.0000 0.0000 0.0000 30.7013 0.0000 0.0000
# 5 0.0000 0.0000 0.0000 0.0000 32.0806 0.0000
# 6 0.0000 0.0000 0.0000 0.0000 0.0000 20.4800
#
#
#
# Elastic Compliance Matrix: (Units=1/GPa)
#
#
# Indices 1 2 3 4 5 6 
#
# 1 0.015054 -0.008219 -0.002552 0.000000 0.000000 0.000000
# 2 -0.008219 0.014727 -0.002099 0.000000 0.000000 0.000000
# 3 -0.002552 -0.002099 0.007877 0.000000 0.000000 0.000000
# 4 0.000000 0.000000 0.000000 0.032572 0.000000 0.000000
# 5 0.000000 0.000000 0.000000 0.000000 0.031172 0.000000
# 6 0.000000 0.000000 0.000000 0.000000 0.000000 0.048828
#
#
# Mechanical properties :
#
#
# Convention : Reuss Voigt Hill
#
# Bulk Modulus (GPa) = 83.90633 84.47160 84.18896
# Shear Modulus (GPa) = 27.78688 30.50625 29.14657
#
# Velocity S-wave (km/s) = 3.75341 3.93279 3.84415
# Velocity P-wave (km/s) = 7.83104 7.96556 7.89858
#
# Compressibility (1/GPa) = 0.01191805
#
# Stress axis : x y z
#
# Youngs Moduli (GPa) = 66.42660 67.90469 126.95697
#
# Poissons Ratio (x) = 0.55809 0.32403
# Poissons Ratio (y) = 0.54594 0.26643
# Poissons Ratio (z) = 0.16954 0.14251
#
# Static dielectric constant tensor:
#      x y z
#    x 4.188060 0.000000 0.000000 
#    y 0.000000 3.243690 0.000000 
#    z 0.000000 0.000000 3.841360 
# 
# 
# High freq. dielectric constant tensor:
#      x y z
#    x 1.806140 0.000000 0.000000 
#    y 0.000000 1.718090 0.000000 
#    z 0.000000 0.000000 1.789190 
# 
# From -- ./inp_files/4450.got.cif
#   From: 2010.03.12/outbox.cif.g09.slc.cpg/sg63_3_cif.got.tgz:4450.got - 2010.04.10 19:34:48.
