data_PCOD8257766
_publ_section_title
;
Structure prediction by ZEFSAII (Michael W. Deem and Ramdas Pophale) SiO2 
 PCOD8257766
Probable space group: C M C M
;
_chemical_formula_sum "Si O2"
_cell_formula_units_Z 112
_cell_length_a 12.322081
_cell_length_b 14.943948
_cell_length_c 31.951358
_cell_angle_alpha 90.000000
_cell_angle_beta 90.000000
_cell_angle_gamma 90.000000
_cell_volume 5883.540243
_symmetry_space_group_name_H-M "C M C M"
_symmetry_group_IT_number 63
_symmetry_cell_setting 'orthorhombic'
loop_
_space_group_symop_operation_xyz
x,y,z
-x,-y,1/2+z
x,-y,-z
-x,y,1/2-z
-x,-y,-z
x,y,1/2-z
-x,y,z
x,-y,1/2+z
1/2+x,1/2+y,z
1/2-x,1/2-y,1/2+z
1/2+x,1/2-y,-z
1/2-x,1/2+y,1/2-z
1/2-x,1/2-y,-z
1/2+x,1/2+y,1/2-z
1/2-x,1/2+y,z
1/2+x,1/2-y,1/2+z
loop_
_atom_site_type_symbol
_atom_site_label
_atom_site_fract_x
_atom_site_fract_y
_atom_site_fract_z
Si Si1 0.873325 0.594437 0.653298
Si Si2 0.250022 0.420424 0.652296
Si Si3 0.881380 0.691008 0.091989
Si Si4 0.306324 0.903074 0.514444
Si Si5 0.624939 0.275122 0.701365
Si Si6 0.754462 0.642371 0.926881
Si Si7 0.374446 0.467908 0.927657
O O1 0.796982 0.513939 0.670927
O O2 0.840534 0.684809 0.677412
O O3 0.848509 0.606009 0.603810
O O4 0.000000 0.571842 0.659583
O O5 0.147147 0.376120 0.629372
O O6 0.298187 0.358000 0.688660
O O7 0.346201 0.434078 0.618800
O O8 0.888287 0.639744 0.047609
O O9 0.790611 0.766802 0.092084
O O10 0.000000 0.731607 0.100926
O O11 0.301130 0.839933 0.473392
O O12 0.189136 0.911561 0.537103
O O13 0.350046 0.000000 0.500000
O O14 0.642714 0.256608 0.750000
O O15 0.500000 0.299407 0.691359
O O16 0.657084 0.571685 0.931338
O O17 0.500000 0.453940 0.936646
#
# Coordination Sequence:
#
# PCOD8257766 Si02
#       7
#    16  16  16  16  16  16  16
#     4  10  21  38  61  87 117 153 191 228 279 341
#     4  10  20  36  57  85 114 148 184 235 282 337
#     4  11  21  33  51  76 108 148 191 235 287 337
#     4   9  20  33  47  71 106 143 195 240 281 334
#     4  10  21  39  64  90 114 145 186 230 279 339
#     4  10  19  34  51  77 109 146 190 237 281 329
#     4   9  18  32  52  75 105 143 186 236 285 331
#
# _framework density 19.036158
#
# number of rings (size 3 to 8) (size 9 to 14) (size 15 to 20)
#    0.000    2.143    1.429    2.571    0.000    4.571 
#    0.000    0.000    0.000    1.286    0.000    0.000 
#    0.000    0.000    0.000    0.000    0.000    0.000 
#
# Total GULP energy -694360.134729 kJ/mol
# GULP energy per Si atom -12399.288120 kJ/mol
# Density = 1.899283 g / cm^3
# Si number density = 19.036158 Si / 1000 Ang^3
#
#
#
# Elastic Constant Matrix: (Units=GPa)
#
#
# Indices 1 2 3 4 5 6 
#
# 1 72.9975 36.7271 27.0873 0.0000 0.0000 0.0000
# 2 36.7271 87.8782 29.9444 0.0000 0.0000 0.0000
# 3 27.0873 29.9444 82.6555 0.0000 0.0000 0.0000
# 4 0.0000 0.0000 0.0000 27.8106 0.0000 0.0000
# 5 0.0000 0.0000 0.0000 0.0000 6.5524 0.0000
# 6 0.0000 0.0000 0.0000 0.0000 0.0000 26.3172
#
#
#
# Elastic Compliance Matrix: (Units=1/GPa)
#
#
# Indices 1 2 3 4 5 6 
#
# 1 0.018276 -0.006385 -0.003676 0.000000 0.000000 0.000000
# 2 -0.006385 0.015213 -0.003419 0.000000 0.000000 0.000000
# 3 -0.003676 -0.003419 0.014542 0.000000 0.000000 0.000000
# 4 0.000000 0.000000 0.000000 0.035957 0.000000 0.000000
# 5 0.000000 0.000000 0.000000 0.000000 0.152616 0.000000
# 6 0.000000 0.000000 0.000000 0.000000 0.000000 0.037998
#
#
# Mechanical properties :
#
#
# Convention : Reuss Voigt Hill
#
# Bulk Modulus (GPa) = 47.46050 47.89432 47.67741
# Shear Modulus (GPa) = 16.20294 22.12086 19.16190
#
# Velocity S-wave (km/s) = 2.92064 3.41258 3.17615
# Velocity P-wave (km/s) = 6.02988 6.38293 6.20891
#
# Compressibility (1/GPa) = 0.02107015
#
# Stress axis : x y z
#
# Youngs Moduli (GPa) = 54.71703 65.73318 68.76824
#
# Poissons Ratio (x) = 0.41974 0.25279
# Poissons Ratio (y) = 0.34940 0.23510
# Poissons Ratio (z) = 0.20113 0.22473
#
# Static dielectric constant tensor:
#      x y z
#    x 3.191330 0.000000 0.000000 
#    y 0.000000 3.563330 0.000000 
#    z 0.000000 0.000000 3.362110 
# 
# 
# High freq. dielectric constant tensor:
#      x y z
#    x 1.724340 0.000000 0.000000 
#    y 0.000000 1.745570 0.000000 
#    z 0.000000 0.000000 1.725490 
# 
# From -- ./inp_files/72866.got.cif
#   From: 2010.03.12/outbox.cif.g09.slc.cpg/sg63_37_cif.got.tgz:72866.got - 2010.04.10 19:34:48.
