data_PCOD8257250
_publ_section_title
;
Structure prediction by ZEFSAII (Michael W. Deem and Ramdas Pophale) SiO2 
 PCOD8257250
Probable space group: C M C M
;
_chemical_formula_sum "Si O2"
_cell_formula_units_Z 80
_cell_length_a 18.268756
_cell_length_b 14.339585
_cell_length_c 14.602778
_cell_angle_alpha 90.000000
_cell_angle_beta 90.000000
_cell_angle_gamma 90.000000
_cell_volume 3825.436883
_symmetry_space_group_name_H-M "C M C M"
_symmetry_group_IT_number 63
_symmetry_cell_setting 'orthorhombic'
loop_
_space_group_symop_operation_xyz
x,y,z
-x,-y,1/2+z
x,-y,-z
-x,y,1/2-z
-x,-y,-z
x,y,1/2-z
-x,y,z
x,-y,1/2+z
1/2+x,1/2+y,z
1/2-x,1/2-y,1/2+z
1/2+x,1/2-y,-z
1/2-x,1/2+y,1/2-z
1/2-x,1/2-y,-z
1/2+x,1/2+y,1/2-z
1/2-x,1/2+y,z
1/2+x,1/2-y,1/2+z
loop_
_atom_site_type_symbol
_atom_site_label
_atom_site_fract_x
_atom_site_fract_y
_atom_site_fract_z
Si Si1 0.373266 0.239108 0.644833
Si Si2 0.701408 0.287175 0.352309
Si Si3 0.580499 0.960222 0.399816
Si Si4 0.791113 0.583351 0.350543
Si Si5 0.654825 0.403058 0.976696
O O1 0.396996 0.253083 0.750000
O O2 0.287872 0.220282 0.633148
O O3 0.415826 0.151882 0.601793
O O4 0.392082 0.333681 0.588029
O O5 0.683031 0.324299 0.250000
O O6 0.669505 0.183097 0.368590
O O7 0.668007 0.355778 0.425678
O O8 0.500000 0.988828 0.361756
O O9 0.591369 0.000000 0.500000
O O10 0.646823 0.003855 0.342263
O O11 0.752440 0.587227 0.250000
O O12 0.730479 0.564602 0.427530
O O13 0.612429 0.500000 0.000000
#
# Coordination Sequence:
#
# PCOD8257250 Si02
#       5
#    16  16  16  16  16
#     4  10  20  34  50  73 106 142 180 217 263 321
#     4   9  18  31  50  73 101 138 174 218 270 320
#     4  11  22  35  54  79 110 146 178 213 261 321
#     4  10  19  32  50  75 107 141 176 212 262 324
#     4  11  20  31  51  74 102 137 177 228 273 311
#
# _framework density 20.912644
#
# number of rings (size 3 to 8) (size 9 to 14) (size 15 to 20)
#    0.000    1.800    0.000    9.000    0.000    4.800 
#    0.000    0.000    0.000    0.600    0.000    0.000 
#    0.000    3.200    0.000    0.000    0.000    0.000 
#
# Total GULP energy -495754.517900 kJ/mol
# GULP energy per Si atom -12393.862948 kJ/mol
# Density = 2.086505 g / cm^3
# Si number density = 20.912644 Si / 1000 Ang^3
#
#
#
# Elastic Constant Matrix: (Units=GPa)
#
#
# Indices 1 2 3 4 5 6 
#
# 1 36.8557 15.6190 3.0080 0.0000 0.0000 0.0000
# 2 15.6190 149.2890 63.9082 0.0000 0.0000 0.0000
# 3 3.0080 63.9082 130.3101 0.0000 0.0000 0.0000
# 4 0.0000 0.0000 0.0000 26.6482 0.0000 0.0000
# 5 0.0000 0.0000 0.0000 0.0000 -1.5304 0.0000
# 6 0.0000 0.0000 0.0000 0.0000 0.0000 4.1913
#
#
#
# Elastic Compliance Matrix: (Units=1/GPa)
#
#
# Indices 1 2 3 4 5 6 
#
# 1 0.028498 -0.003417 0.001018 0.000000 0.000000 0.000000
# 2 -0.003417 0.008888 -0.004280 0.000000 0.000000 0.000000
# 3 0.001018 -0.004280 0.009750 0.000000 0.000000 0.000000
# 4 0.000000 0.000000 0.000000 0.037526 0.000000 0.000000
# 5 0.000000 0.000000 0.000000 0.000000 -0.653417 0.000000
# 6 0.000000 0.000000 0.000000 0.000000 0.000000 0.238590
#
#
# Mechanical properties :
#
#
# Convention : Reuss Voigt Hill
#
# Bulk Modulus (GPa) = 29.60587 53.50279 41.55433
# Shear Modulus (GPa) = -16.36410 21.45645 2.54617
#
# Velocity S-wave (km/s) = -2.80035 3.20660 1.10461
# Velocity P-wave (km/s) = 1.93176 6.27290 4.64117
#
# Compressibility (1/GPa) = 0.03377708
#
# Stress axis : x y z
#
# Youngs Moduli (GPa) = 35.09014 112.50826 102.56792
#
# Poissons Ratio (x) = 0.38449 -0.10443
# Poissons Ratio (y) = 0.11992 0.43901
# Poissons Ratio (z) = -0.03573 0.48156
#
# Static dielectric constant tensor:
#      x y z
#    x 3.259960 0.000000 0.000000 
#    y 0.000000 4.222710 0.000000 
#    z 0.000000 0.000000 2.407390 
# 
# 
# High freq. dielectric constant tensor:
#      x y z
#    x 1.745670 0.000000 0.000000 
#    y 0.000000 1.833910 0.000000 
#    z 0.000000 0.000000 1.839400 
# 
# From -- ./inp_files/35084.got.cif
#   From: 2010.03.12/outbox.cif.g09.slc.cpg/sg63_18_cif.got.tgz:35084.got - 2010.04.10 19:34:48.
