data_PCOD8257667
_publ_section_title
;
Structure prediction by ZEFSAII (Michael W. Deem and Ramdas Pophale) SiO2 
 PCOD8257667
Probable space group: C M C M
;
_chemical_formula_sum "Si O2"
_cell_formula_units_Z 80
_cell_length_a 9.330623
_cell_length_b 25.034346
_cell_length_c 18.689761
_cell_angle_alpha 90.000000
_cell_angle_beta 90.000000
_cell_angle_gamma 90.000000
_cell_volume 4365.667346
_symmetry_space_group_name_H-M "C M C M"
_symmetry_group_IT_number 63
_symmetry_cell_setting 'orthorhombic'
loop_
_space_group_symop_operation_xyz
x,y,z
-x,-y,1/2+z
x,-y,-z
-x,y,1/2-z
-x,-y,-z
x,y,1/2-z
-x,y,z
x,-y,1/2+z
1/2+x,1/2+y,z
1/2-x,1/2-y,1/2+z
1/2+x,1/2-y,-z
1/2-x,1/2+y,1/2-z
1/2-x,1/2-y,-z
1/2+x,1/2+y,1/2-z
1/2-x,1/2+y,z
1/2+x,1/2-y,1/2+z
loop_
_atom_site_type_symbol
_atom_site_label
_atom_site_fract_x
_atom_site_fract_y
_atom_site_fract_z
Si Si1 0.667897 0.646369 0.059402
Si Si2 0.167607 0.976101 0.575291
Si Si3 0.169585 0.765190 0.670369
Si Si4 0.830255 0.662291 0.915264
Si Si5 0.167080 0.443740 0.332463
O O1 0.500000 0.652325 0.042268
O O2 0.707817 0.585931 0.078966
O O3 0.716217 0.682630 0.126086
O O4 0.754620 0.666293 0.991249
O O5 0.000000 0.986351 0.585494
O O6 0.221318 0.000000 0.500000
O O7 0.248763 0.004743 0.639821
O O8 0.236689 0.768904 0.750000
O O9 0.225878 0.711778 0.631869
O O10 0.000000 0.762142 0.676187
O O11 0.782384 0.608308 0.875687
O O12 0.000000 0.664637 0.926801
O O13 0.205080 0.434253 0.250000
O O14 0.000000 0.454462 0.343670
#
# Coordination Sequence:
#
# PCOD8257667 Si02
#       5
#    16  16  16  16  16
#     4  10  20  34  55  79 104 136 176 217 257 310
#     4  10  20  35  53  76 107 141 176 216 259 307
#     4   9  18  33  53  77 104 135 173 216 260 308
#     4  10  19  33  55  79 104 135 171 215 263 312
#     4  10  21  35  53  79 107 137 175 217 263 314
#
# _framework density 18.324805999999999
#
# number of rings (size 3 to 8) (size 9 to 14) (size 15 to 20)
#    0.000    2.200    2.000    1.200    0.000    4.800 
#    0.000    2.000    0.000    3.600    0.000    0.000 
#    0.000    0.000    0.000    0.000    0.000    0.000 
#
# Total GULP energy -496130.483049 kJ/mol
# GULP energy per Si atom -12403.262076 kJ/mol
# Density = 1.828310 g / cm^3
# Si number density = 18.324806 Si / 1000 Ang^3
#
#
#
# Elastic Constant Matrix: (Units=GPa)
#
#
# Indices 1 2 3 4 5 6 
#
# 1 26.4571 33.6892 39.1658 0.0000 0.0000 0.0000
# 2 33.6892 151.7599 86.0810 0.0000 0.0000 0.0000
# 3 39.1658 86.0810 144.4086 0.0000 0.0000 0.0000
# 4 0.0000 0.0000 0.0000 33.6726 0.0000 0.0000
# 5 0.0000 0.0000 0.0000 0.0000 29.6816 0.0000
# 6 0.0000 0.0000 0.0000 0.0000 0.0000 11.0212
#
#
#
# Elastic Compliance Matrix: (Units=1/GPa)
#
#
# Indices 1 2 3 4 5 6 
#
# 1 0.067706 -0.006971 -0.014207 0.000000 0.000000 0.000000
# 2 -0.006971 0.010673 -0.004472 0.000000 0.000000 0.000000
# 3 -0.014207 -0.004472 0.013443 0.000000 0.000000 0.000000
# 4 0.000000 0.000000 0.000000 0.029698 0.000000 0.000000
# 5 0.000000 0.000000 0.000000 0.000000 0.033691 0.000000
# 6 0.000000 0.000000 0.000000 0.000000 0.000000 0.090734
#
#
# Mechanical properties :
#
#
# Convention : Reuss Voigt Hill
#
# Bulk Modulus (GPa) = 24.67779 71.16639 47.92209
# Shear Modulus (GPa) = 16.08994 25.78772 20.93883
#
# Velocity S-wave (km/s) = 2.96639 3.75541 3.38398
# Velocity P-wave (km/s) = 5.02282 7.59767 6.44024
#
# Compressibility (1/GPa) = 0.04052226
#
# Stress axis : x y z
#
# Youngs Moduli (GPa) = 14.76976 93.69213 74.38566
#
# Poissons Ratio (x) = 0.65317 1.05682
# Poissons Ratio (y) = 0.10297 0.33262
# Poissons Ratio (z) = 0.20984 0.41894
#
# Static dielectric constant tensor:
#      x y z
#    x 3.068560 0.000000 0.000000 
#    y 0.000000 3.555770 0.000000 
#    z 0.000000 0.000000 3.484760 
# 
# 
# High freq. dielectric constant tensor:
#      x y z
#    x 1.679310 0.000000 0.000000 
#    y 0.000000 1.725900 0.000000 
#    z 0.000000 0.000000 1.717850 
# 
# From -- ./inp_files/29688.got.cif
#   From: 2010.03.12/outbox.cif.g09.slc.cpg/sg63_15_cif.got.tgz:29688.got - 2010.04.10 19:34:48.
