data_PCOD8257453
_publ_section_title
;
Structure prediction by ZEFSAII (Michael W. Deem and Ramdas Pophale) SiO2 
 PCOD8257453
Probable space group: C M C M
;
_chemical_formula_sum "Si O2"
_cell_formula_units_Z 96
_cell_length_a 9.105107
_cell_length_b 29.585060
_cell_length_c 18.969851
_cell_angle_alpha 90.000000
_cell_angle_beta 90.000000
_cell_angle_gamma 90.000000
_cell_volume 5110.006210
_symmetry_space_group_name_H-M "C M C M"
_symmetry_group_IT_number 63
_symmetry_cell_setting 'orthorhombic'
loop_
_space_group_symop_operation_xyz
x,y,z
-x,-y,1/2+z
x,-y,-z
-x,y,1/2-z
-x,-y,-z
x,y,1/2-z
-x,y,z
x,-y,1/2+z
1/2+x,1/2+y,z
1/2-x,1/2-y,1/2+z
1/2+x,1/2-y,-z
1/2-x,1/2+y,1/2-z
1/2-x,1/2-y,-z
1/2+x,1/2+y,1/2-z
1/2-x,1/2+y,z
1/2+x,1/2-y,1/2+z
loop_
_atom_site_type_symbol
_atom_site_label
_atom_site_fract_x
_atom_site_fract_y
_atom_site_fract_z
Si Si1 0.329755 0.094591 0.930509
Si Si2 0.670343 0.684576 0.542200
Si Si3 0.829916 0.572605 0.410811
Si Si4 0.825555 0.515688 0.670157
Si Si5 0.330555 0.350408 0.670847
Si Si6 0.830417 0.280468 0.904848
O O1 0.500000 0.107339 0.920019
O O2 0.234476 0.139791 0.922037
O O3 0.272622 0.060817 0.869742
O O4 0.306886 0.069477 0.005294
O O5 0.500000 0.677517 0.523100
O O6 0.759128 0.695767 0.472319
O O7 0.690484 0.726437 0.596176
O O8 0.767658 0.527610 0.373344
O O9 0.737940 0.614666 0.383540
O O10 0.000000 0.580147 0.391477
O O11 0.762530 0.515076 0.750000
O O12 0.000000 0.514527 0.671020
O O13 0.306862 0.368149 0.750000
O O14 0.500000 0.343911 0.652564
O O15 0.250160 0.301840 0.662852
O O16 0.000000 0.294190 0.904612
#
# Coordination Sequence:
#
# PCOD8257453 Si02
#       6
#    16  16  16  16  16  16
#     4  10  19  32  54  83 110 141 185 230 271 322
#     4  10  20  34  55  81 109 138 174 223 274 321
#     4  10  19  33  55  81 107 141 186 231 273 322
#     4   9  18  33  53  78 109 145 185 229 274 322
#     4  11  23  36  52  79 115 149 181 225 279 330
#     4  10  20  35  55  79 106 142 183 221 266 323
#
# _framework density 18.786670000000001
#
# number of rings (size 3 to 8) (size 9 to 14) (size 15 to 20)
#    0.000    2.000    1.667    2.500    0.000    6.000 
#    0.000    1.667    0.000    6.500    0.000    0.000 
#    0.000    0.000    0.000    0.000    0.000    0.000 
#
# Total GULP energy -595226.112774 kJ/mol
# GULP energy per Si atom -12400.544016 kJ/mol
# Density = 1.874391 g / cm^3
# Si number density = 18.786670 Si / 1000 Ang^3
#
#
#
# Elastic Constant Matrix: (Units=GPa)
#
#
# Indices 1 2 3 4 5 6 
#
# 1 88.7235 47.7159 33.3439 0.0000 0.0000 0.0000
# 2 47.7159 129.2747 50.1936 0.0000 0.0000 0.0000
# 3 33.3439 50.1936 84.9041 0.0000 0.0000 0.0000
# 4 0.0000 0.0000 0.0000 25.3101 0.0000 0.0000
# 5 0.0000 0.0000 0.0000 0.0000 18.5235 0.0000
# 6 0.0000 0.0000 0.0000 0.0000 0.0000 29.0714
#
#
#
# Elastic Compliance Matrix: (Units=1/GPa)
#
#
# Indices 1 2 3 4 5 6 
#
# 1 0.014759 -0.004150 -0.003343 0.000000 0.000000 0.000000
# 2 -0.004150 0.011207 -0.004996 0.000000 0.000000 0.000000
# 3 -0.003343 -0.004996 0.016044 0.000000 0.000000 0.000000
# 4 0.000000 0.000000 0.000000 0.039510 0.000000 0.000000
# 5 0.000000 0.000000 0.000000 0.000000 0.053985 0.000000
# 6 0.000000 0.000000 0.000000 0.000000 0.000000 0.034398
#
#
# Mechanical properties :
#
#
# Convention : Reuss Voigt Hill
#
# Bulk Modulus (GPa) = 58.70786 62.82323 60.76554
# Shear Modulus (GPa) = 24.93050 26.02428 25.47739
#
# Velocity S-wave (km/s) = 3.64680 3.72594 3.68658
# Velocity P-wave (km/s) = 7.00355 7.21270 7.10890
#
# Compressibility (1/GPa) = 0.01703349
#
# Stress axis : x y z
#
# Youngs Moduli (GPa) = 67.75507 89.23209 62.32808
#
# Poissons Ratio (x) = 0.37028 0.20837
# Poissons Ratio (y) = 0.28116 0.31136
# Poissons Ratio (z) = 0.22651 0.44576
#
# Static dielectric constant tensor:
#      x y z
#    x 3.323390 0.000000 0.000000 
#    y 0.000000 3.655430 0.000000 
#    z 0.000000 0.000000 3.461940 
# 
# 
# High freq. dielectric constant tensor:
#      x y z
#    x 1.715600 0.000000 0.000000 
#    y 0.000000 1.738160 0.000000 
#    z 0.000000 0.000000 1.715370 
# 
# From -- ./inp_files/51248.got.cif
#   From: 2010.03.12/outbox.cif.g09.slc.cpg/sg63_26_cif.got.tgz:51248.got - 2010.04.10 19:34:48.
