data_PCOD8257792
_publ_section_title
;
Structure prediction by ZEFSAII (Michael W. Deem and Ramdas Pophale) SiO2 
 PCOD8257792
Probable space group: C M C M
;
_chemical_formula_sum "Si O2"
_cell_formula_units_Z 88
_cell_length_a 26.920290
_cell_length_b 15.616392
_cell_length_c 10.167386
_cell_angle_alpha 90.000000
_cell_angle_beta 90.000000
_cell_angle_gamma 90.000000
_cell_volume 4274.346720
_symmetry_space_group_name_H-M "C M C M"
_symmetry_group_IT_number 63
_symmetry_cell_setting 'orthorhombic'
loop_
_space_group_symop_operation_xyz
x,y,z
-x,-y,1/2+z
x,-y,-z
-x,y,1/2-z
-x,-y,-z
x,y,1/2-z
-x,y,z
x,-y,1/2+z
1/2+x,1/2+y,z
1/2-x,1/2-y,1/2+z
1/2+x,1/2-y,-z
1/2-x,1/2+y,1/2-z
1/2-x,1/2-y,-z
1/2+x,1/2+y,1/2-z
1/2-x,1/2+y,z
1/2+x,1/2-y,1/2+z
loop_
_atom_site_type_symbol
_atom_site_label
_atom_site_fract_x
_atom_site_fract_y
_atom_site_fract_z
Si Si1 0.085289 0.200376 0.000729
Si Si2 0.555257 0.129144 0.602753
Si Si3 0.369563 0.140716 0.104859
Si Si4 0.000000 0.919717 0.401455
Si Si5 0.838323 0.928467 0.603038
Si Si6 0.741012 0.172903 0.098555
O O1 0.116849 0.257613 0.896632
O O2 0.048745 0.137032 0.924251
O O3 0.055267 0.266852 0.093431
O O4 0.123629 0.149708 0.092116
O O5 0.569862 0.101066 0.750000
O O6 0.500000 0.095987 0.567007
O O7 0.595592 0.089908 0.500149
O O8 0.380489 0.103895 0.250000
O O9 0.311902 0.129028 0.067572
O O10 0.000000 0.952376 0.250000
O O11 0.000000 0.000000 0.500000
O O12 0.842100 0.966638 0.750000
O O13 0.782482 0.898473 0.573291
O O14 0.854472 0.000000 0.500000
O O15 0.742881 0.206048 0.250000
O O16 0.750000 0.250000 0.000000
#
# Coordination Sequence:
#
# PCOD8257792 Si02
#       6
#    16  16  16   8  16  16
#     4  10  19  34  54  67  93 130 170 211 252 288
#     4   9  17  29  48  72 100 131 161 201 248 290
#     4   9  18  30  51  75  96 125 162 208 254 298
#     4  12  26  38  48  66  94 134 177 210 246 295
#     4  11  24  38  53  74 103 135 172 214 258 310
#     4  10  19  35  55  76  99 128 167 212 263 312
#
# _framework density 20.587941000000001
#
# number of rings (size 3 to 8) (size 9 to 14) (size 15 to 20)
#    1.091    0.909    2.727    1.636    0.000    6.182 
#    0.000    0.000    0.000    0.000    0.000    0.000 
#    0.000    0.727    0.000    1.636    0.000    2.909 
#
# Total GULP energy -545303.134664 kJ/mol
# GULP energy per Si atom -12393.253061 kJ/mol
# Density = 2.054108 g / cm^3
# Si number density = 20.587941 Si / 1000 Ang^3
#
#
#
# Elastic Constant Matrix: (Units=GPa)
#
#
# Indices 1 2 3 4 5 6 
#
# 1 121.9258 -5.8938 42.5870 0.0000 0.0000 0.0000
# 2 -5.8938 16.0687 -3.3679 0.0000 0.0000 0.0000
# 3 42.5870 -3.3679 116.6990 0.0000 0.0000 0.0000
# 4 0.0000 0.0000 0.0000 10.4302 0.0000 0.0000
# 5 0.0000 0.0000 0.0000 0.0000 35.4681 0.0000
# 6 0.0000 0.0000 0.0000 0.0000 0.0000 14.9500
#
#
#
# Elastic Compliance Matrix: (Units=1/GPa)
#
#
# Indices 1 2 3 4 5 6 
#
# 1 0.009522 0.002781 -0.003395 0.000000 0.000000 0.000000
# 2 0.002781 0.063424 0.000816 0.000000 0.000000 0.000000
# 3 -0.003395 0.000816 0.009831 0.000000 0.000000 0.000000
# 4 0.000000 0.000000 0.000000 0.095876 0.000000 0.000000
# 5 0.000000 0.000000 0.000000 0.000000 0.028194 0.000000
# 6 0.000000 0.000000 0.000000 0.000000 0.000000 0.066889
#
#
# Mechanical properties :
#
#
# Convention : Reuss Voigt Hill
#
# Bulk Modulus (GPa) = 12.02202 35.70491 23.86347
# Shear Modulus (GPa) = 16.60804 26.92755 21.76779
#
# Velocity S-wave (km/s) = 2.84331 3.62045 3.25515
# Velocity P-wave (km/s) = 4.07814 5.90400 5.07387
#
# Compressibility (1/GPa) = 0.08318071
#
# Stress axis : x y z
#
# Youngs Moduli (GPa) = 105.02209 15.76700 101.71528
#
# Poissons Ratio (x) = -0.04385 0.34528
# Poissons Ratio (y) = -0.29207 -0.08295
# Poissons Ratio (z) = 0.35650 -0.01286
#
# Static dielectric constant tensor:
#      x y z
#    x 3.879720 0.000000 0.000000 
#    y 0.000000 3.205580 0.000000 
#    z 0.000000 0.000000 3.601770 
# 
# 
# High freq. dielectric constant tensor:
#      x y z
#    x 1.821550 0.000000 0.000000 
#    y 0.000000 1.767390 0.000000 
#    z 0.000000 0.000000 1.805160 
# 
# From -- ./inp_files/24900.got.cif
#   From: 2010.03.12/outbox.cif.g09.slc.cpg/sg63_13_cif.got.tgz:24900.got - 2010.04.10 19:34:48.
