data_PCOD8257914
_publ_section_title
;
Structure prediction by ZEFSAII (Michael W. Deem and Ramdas Pophale) SiO2 
 PCOD8257914
Probable space group: C M C M
;
_chemical_formula_sum "Si O2"
_cell_formula_units_Z 56
_cell_length_a 7.562964
_cell_length_b 24.060128
_cell_length_c 16.664969
_cell_angle_alpha 90.000000
_cell_angle_beta 90.000000
_cell_angle_gamma 90.000000
_cell_volume 3032.455781
_symmetry_space_group_name_H-M "C M C M"
_symmetry_group_IT_number 63
_symmetry_cell_setting 'orthorhombic'
loop_
_space_group_symop_operation_xyz
x,y,z
-x,-y,1/2+z
x,-y,-z
-x,y,1/2-z
-x,-y,-z
x,y,1/2-z
-x,y,z
x,-y,1/2+z
1/2+x,1/2+y,z
1/2-x,1/2-y,1/2+z
1/2+x,1/2-y,-z
1/2-x,1/2+y,1/2-z
1/2-x,1/2-y,-z
1/2+x,1/2+y,1/2-z
1/2-x,1/2+y,z
1/2+x,1/2-y,1/2+z
loop_
_atom_site_type_symbol
_atom_site_label
_atom_site_fract_x
_atom_site_fract_y
_atom_site_fract_z
Si Si1 0.699315 0.958096 0.841953
Si Si2 0.500000 0.657591 0.566727
Si Si3 0.500000 0.541864 0.655982
Si Si4 0.695404 0.656387 0.413078
Si Si5 0.000000 0.269496 0.844578
O O1 0.739670 0.941488 0.750000
O O2 0.500000 0.980043 0.852304
O O3 0.827656 0.007187 0.870394
O O4 0.726169 0.903995 0.895632
O O5 0.500000 0.598969 0.609682
O O6 0.674215 0.662557 0.509772
O O7 0.500000 0.704725 0.634245
O O8 0.500000 0.554617 0.750000
O O9 0.500000 0.662600 0.372486
O O10 0.824244 0.703525 0.380745
O O11 0.000000 0.278170 0.750000
#
# Coordination Sequence:
#
# PCOD8257914 Si02
#       5
#    16   8   8  16   8
#     4  10  19  34  58  89 118 151 199 246 285 331
#     4  10  24  42  56  85 127 156 188 234 297 354
#     4  10  20  39  60  82 120 162 194 232 284 355
#     4  10  22  37  62  86 119 148 192 247 298 331
#     4  12  23  41  65  86 113 154 200 241 288 351
#
# _framework density 18.466881999999998
#
# number of rings (size 3 to 8) (size 9 to 14) (size 15 to 20)
#    0.857    0.857    2.857    2.143    0.000    4.000 
#    2.571    1.429    0.000    3.429    0.000    0.000 
#    0.000    0.000    0.000    0.000    0.000    0.000 
#
# Total GULP energy -347147.827807 kJ/mol
# GULP energy per Si atom -12398.136707 kJ/mol
# Density = 1.842485 g / cm^3
# Si number density = 18.466882 Si / 1000 Ang^3
#
#
#
# Elastic Constant Matrix: (Units=GPa)
#
#
# Indices 1 2 3 4 5 6 
#
# 1 128.7261 47.2033 21.1421 0.0000 0.0000 0.0000
# 2 47.2033 124.4448 35.5481 0.0000 0.0000 0.0000
# 3 21.1421 35.5481 58.7569 0.0000 0.0000 0.0000
# 4 0.0000 0.0000 0.0000 34.9177 0.0000 0.0000
# 5 0.0000 0.0000 0.0000 0.0000 0.1685 0.0000
# 6 0.0000 0.0000 0.0000 0.0000 0.0000 34.2043
#
#
#
# Elastic Compliance Matrix: (Units=1/GPa)
#
#
# Indices 1 2 3 4 5 6 
#
# 1 0.009123 -0.003050 -0.001438 0.000000 0.000000 0.000000
# 2 -0.003050 0.010734 -0.005397 0.000000 0.000000 0.000000
# 3 -0.001438 -0.005397 0.020802 0.000000 0.000000 0.000000
# 4 0.000000 0.000000 0.000000 0.028639 0.000000 0.000000
# 5 0.000000 0.000000 0.000000 0.000000 5.936035 0.000000
# 6 0.000000 0.000000 0.000000 0.000000 0.000000 0.029236
#
#
# Mechanical properties :
#
#
# Convention : Reuss Voigt Hill
#
# Bulk Modulus (GPa) = 47.86876 57.74608 52.80742
# Shear Modulus (GPa) = 0.82491 27.72704 14.27597
#
# Velocity S-wave (km/s) = 0.66908 3.87905 2.78341
# Velocity P-wave (km/s) = 5.15505 7.16943 6.24401
#
# Compressibility (1/GPa) = 0.02089045
#
# Stress axis : x y z
#
# Youngs Moduli (GPa) = 109.61463 93.16095 48.07323
#
# Poissons Ratio (x) = 0.28412 0.06911
# Poissons Ratio (y) = 0.33430 0.25944
# Poissons Ratio (z) = 0.15757 0.50277
#
# Static dielectric constant tensor:
#      x y z
#    x 3.730600 0.000000 0.000000 
#    y 0.000000 3.216450 0.000000 
#    z 0.000000 0.000000 3.366370 
# 
# 
# High freq. dielectric constant tensor:
#      x y z
#    x 1.722510 0.000000 0.000000 
#    y 0.000000 1.713100 0.000000 
#    z 0.000000 0.000000 1.707020 
# 
# From -- ./inp_files/27259.got.cif
#   From: 2010.03.12/outbox.cif.g09.slc.cpg/sg63_14_cif.got.tgz:27259.got - 2010.04.10 19:34:48.
