data_PCOD8257063
_publ_section_title
;
Structure prediction by ZEFSAII (Michael W. Deem and Ramdas Pophale) SiO2 
 PCOD8257063
Probable space group: C M C M
;
_chemical_formula_sum "Si O2"
_cell_formula_units_Z 96
_cell_length_a 9.149099
_cell_length_b 26.882137
_cell_length_c 22.682636
_cell_angle_alpha 90.000000
_cell_angle_beta 90.000000
_cell_angle_gamma 90.000000
_cell_volume 5578.733824
_symmetry_space_group_name_H-M "C M C M"
_symmetry_group_IT_number 63
_symmetry_cell_setting 'orthorhombic'
loop_
_space_group_symop_operation_xyz
x,y,z
-x,-y,1/2+z
x,-y,-z
-x,y,1/2-z
-x,-y,-z
x,y,1/2-z
-x,y,z
x,-y,1/2+z
1/2+x,1/2+y,z
1/2-x,1/2-y,1/2+z
1/2+x,1/2-y,-z
1/2-x,1/2+y,1/2-z
1/2-x,1/2-y,-z
1/2+x,1/2+y,1/2-z
1/2-x,1/2+y,z
1/2+x,1/2-y,1/2+z
loop_
_atom_site_type_symbol
_atom_site_label
_atom_site_fract_x
_atom_site_fract_y
_atom_site_fract_z
Si Si1 0.663534 0.195121 0.940727
Si Si2 0.324848 0.372923 0.250000
Si Si3 0.834137 0.213360 0.141856
Si Si4 0.172166 0.757799 0.250000
Si Si5 0.327523 0.899933 0.133034
Si Si6 0.329737 0.350969 0.540444
Si Si7 0.672173 0.447528 0.027541
O O1 0.500000 0.184989 0.962372
O O2 0.682289 0.248054 0.911148
O O3 0.707875 0.154316 0.892257
O O4 0.762774 0.191030 0.998139
O O5 0.500000 0.376545 0.250000
O O6 0.271635 0.314902 0.250000
O O7 0.258484 0.402308 0.305459
O O8 0.725608 0.226825 0.193854
O O9 0.791373 0.160970 0.109456
O O10 0.000000 0.212587 0.166713
O O11 0.000000 0.757355 0.250000
O O12 0.500000 0.909532 0.142603
O O13 0.261593 0.940851 0.088180
O O14 0.500000 0.345020 0.531663
O O15 0.278890 0.406003 0.520713
O O16 0.500000 0.444334 0.041532
O O17 0.716445 0.500000 0.000000
#
# Coordination Sequence:
#
# PCOD8257063 Si02
#       7
#    16   8  16   8  16  16  16
#     4   9  17  28  44  68  98 130 158 193 242 288
#     4  11  21  33  49  72 103 136 169 202 241 294
#     4  10  19  32  47  66  97 133 167 200 237 287
#     4  11  23  33  47  70  97 136 175 204 237 288
#     4  10  19  31  50  75 103 133 167 204 247 300
#     4   9  18  30  48  72  95 126 165 202 243 292
#     4   9  18  34  54  76 103 131 164 211 262 305
#
# _framework density 17.208207000000002
#
# number of rings (size 3 to 8) (size 9 to 14) (size 15 to 20)
#    0.000    2.333    1.667    1.500    0.000    3.000 
#    0.000    0.000    0.000    1.000    0.000    3.500 
#    0.000    0.000    0.000    0.000    0.000    0.000 
#
# Total GULP energy -595006.269576 kJ/mol
# GULP energy per Si atom -12395.963950 kJ/mol
# Density = 1.716904 g / cm^3
# Si number density = 17.208207 Si / 1000 Ang^3
#
#
#
# Elastic Constant Matrix: (Units=GPa)
#
#
# Indices 1 2 3 4 5 6 
#
# 1 62.7007 27.4612 53.5818 0.0000 0.0000 0.0000
# 2 27.4612 61.6524 49.5440 0.0000 0.0000 0.0000
# 3 53.5818 49.5440 116.8396 0.0000 0.0000 0.0000
# 4 0.0000 0.0000 0.0000 15.1908 0.0000 0.0000
# 5 0.0000 0.0000 0.0000 0.0000 34.9870 0.0000
# 6 0.0000 0.0000 0.0000 0.0000 0.0000 18.3369
#
#
#
# Elastic Compliance Matrix: (Units=1/GPa)
#
#
# Indices 1 2 3 4 5 6 
#
# 1 0.026613 -0.003104 -0.010888 0.000000 0.000000 0.000000
# 2 -0.003104 0.024966 -0.009163 0.000000 0.000000 0.000000
# 3 -0.010888 -0.009163 0.017437 0.000000 0.000000 0.000000
# 4 0.000000 0.000000 0.000000 0.065829 0.000000 0.000000
# 5 0.000000 0.000000 0.000000 0.000000 0.028582 0.000000
# 6 0.000000 0.000000 0.000000 0.000000 0.000000 0.054535
#
#
# Mechanical properties :
#
#
# Convention : Reuss Voigt Hill
#
# Bulk Modulus (GPa) = 44.04165 55.81853 49.93009
# Shear Modulus (GPa) = 18.39307 21.07667 19.73487
#
# Velocity S-wave (km/s) = 3.27288 3.50352 3.39016
# Velocity P-wave (km/s) = 6.31912 6.99098 6.66352
#
# Compressibility (1/GPa) = 0.02270578
#
# Stress axis : x y z
#
# Youngs Moduli (GPa) = 37.57552 40.05462 57.34799
#
# Poissons Ratio (x) = 0.12434 0.62442
# Poissons Ratio (y) = 0.11664 0.52547
# Poissons Ratio (z) = 0.40913 0.36702
#
# Static dielectric constant tensor:
#      x y z
#    x 3.210610 0.000000 0.000000 
#    y 0.000000 3.180390 0.000000 
#    z 0.000000 0.000000 3.354740 
# 
# 
# High freq. dielectric constant tensor:
#      x y z
#    x 1.665550 0.000000 0.000000 
#    y 0.000000 1.636710 0.000000 
#    z 0.000000 0.000000 1.661590 
# 
# From -- ./inp_files/60294.got.cif
#   From: 2010.03.12/outbox.cif.g09.slc.cpg/sg63_31_cif.got.tgz:60294.got - 2010.04.10 19:34:48.
