data_PCOD8257943
_publ_section_title
;
Structure prediction by ZEFSAII (Michael W. Deem and Ramdas Pophale) SiO2 
 PCOD8257943
Probable space group: C M C M
;
_chemical_formula_sum "Si O2"
_cell_formula_units_Z 80
_cell_length_a 22.882939
_cell_length_b 26.606355
_cell_length_c 9.209816
_cell_angle_alpha 90.000000
_cell_angle_beta 90.000000
_cell_angle_gamma 90.000000
_cell_volume 5607.226997
_symmetry_space_group_name_H-M "C M C M"
_symmetry_group_IT_number 63
_symmetry_cell_setting 'orthorhombic'
loop_
_space_group_symop_operation_xyz
x,y,z
-x,-y,1/2+z
x,-y,-z
-x,y,1/2-z
-x,-y,-z
x,y,1/2-z
-x,y,z
x,-y,1/2+z
1/2+x,1/2+y,z
1/2-x,1/2-y,1/2+z
1/2+x,1/2-y,-z
1/2-x,1/2+y,1/2-z
1/2-x,1/2-y,-z
1/2+x,1/2+y,1/2-z
1/2-x,1/2+y,z
1/2+x,1/2-y,1/2+z
loop_
_atom_site_type_symbol
_atom_site_label
_atom_site_fract_x
_atom_site_fract_y
_atom_site_fract_z
Si Si1 0.695767 0.644586 0.917961
Si Si2 0.389364 0.263309 0.084695
Si Si3 0.220024 0.704718 0.417571
Si Si4 0.000000 0.103294 0.578690
Si Si5 0.500000 0.709719 0.077710
Si Si6 0.119367 0.051059 0.580249
O O1 0.713173 0.646530 0.750000
O O2 0.647869 0.687058 0.953520
O O3 0.669088 0.591091 0.962434
O O4 0.755355 0.653422 0.010522
O O5 0.412408 0.267487 0.250000
O O6 0.349879 0.212807 0.066018
O O7 0.443300 0.259460 0.974836
O O8 0.238503 0.706209 0.250000
O O9 0.250000 0.750000 0.500000
O O10 0.943717 0.071459 0.531215
O O11 0.000000 0.115663 0.750000
O O12 0.000000 0.154998 0.492697
O O13 0.500000 0.705395 0.250000
O O14 0.119159 0.040317 0.750000
O O15 0.134858 0.000000 0.500000
#
# Coordination Sequence:
#
# PCOD8257943 Si02
#       6
#    16  16  16   8   8  16
#     4   9  17  30  46  61  80 108 138 172 216 257
#     4   9  17  31  45  57  81 113 138 164 211 262
#     4   9  17  28  44  63  81 104 134 169 209 253
#     4  10  19  35  47  52  78 116 146 179 223 265
#     4  12  22  27  41  66  85 106 143 185 212 241
#     4  10  20  32  46  61  80 110 145 183 223 257
#
# _framework density 14.267301
#
# number of rings (size 3 to 8) (size 9 to 14) (size 15 to 20)
#    0.000    2.400    2.000    3.000    0.000    5.600 
#    0.000    0.000    0.000    0.000    0.000    0.000 
#    0.000    0.000    0.000    0.900    0.000   11.800 
#
# Total GULP energy -495859.001651 kJ/mol
# GULP energy per Si atom -12396.475041 kJ/mol
# Density = 1.423483 g / cm^3
# Si number density = 14.267301 Si / 1000 Ang^3
#
#
#
# Elastic Constant Matrix: (Units=GPa)
#
#
# Indices 1 2 3 4 5 6 
#
# 1 78.9185 55.2109 50.5724 0.0000 0.0000 0.0000
# 2 55.2109 72.0913 40.1050 0.0000 0.0000 0.0000
# 3 50.5724 40.1050 76.1386 0.0000 0.0000 0.0000
# 4 0.0000 0.0000 0.0000 24.1811 0.0000 0.0000
# 5 0.0000 0.0000 0.0000 0.0000 23.6611 0.0000
# 6 0.0000 0.0000 0.0000 0.0000 0.0000 18.5966
#
#
#
# Elastic Compliance Matrix: (Units=1/GPa)
#
#
# Indices 1 2 3 4 5 6 
#
# 1 0.034119 -0.019127 -0.012587 0.000000 0.000000 0.000000
# 2 -0.019127 0.030344 -0.003279 0.000000 0.000000 0.000000
# 3 -0.012587 -0.003279 0.023221 0.000000 0.000000 0.000000
# 4 0.000000 0.000000 0.000000 0.041355 0.000000 0.000000
# 5 0.000000 0.000000 0.000000 0.000000 0.042263 0.000000
# 6 0.000000 0.000000 0.000000 0.000000 0.000000 0.053773
#
#
# Mechanical properties :
#
#
# Convention : Reuss Voigt Hill
#
# Bulk Modulus (GPa) = 56.50364 57.65833 57.08099
# Shear Modulus (GPa) = 16.61349 18.70511 17.65930
#
# Velocity S-wave (km/s) = 3.41610 3.62477 3.52198
# Velocity P-wave (km/s) = 7.43298 7.61704 7.52557
#
# Compressibility (1/GPa) = 0.01769797
#
# Stress axis : x y z
#
# Youngs Moduli (GPa) = 29.30947 32.95569 43.06379
#
# Poissons Ratio (x) = 0.63036 0.54205
# Poissons Ratio (y) = 0.56061 0.14118
# Poissons Ratio (z) = 0.36892 0.10805
#
# Static dielectric constant tensor:
#      x y z
#    x 3.275220 0.000000 0.000000 
#    y 0.000000 2.736110 0.000000 
#    z 0.000000 0.000000 2.901450 
# 
# 
# High freq. dielectric constant tensor:
#      x y z
#    x 1.532550 0.000000 0.000000 
#    y 0.000000 1.508570 0.000000 
#    z 0.000000 0.000000 1.550940 
# 
# From -- ./inp_files/8921.got.cif
#   From: 2010.03.12/outbox.cif.g09.slc.cpg/sg63_5_cif.got.tgz:8921.got - 2010.04.10 19:34:48.
