data_PCOD8257738
_publ_section_title
;
Structure prediction by ZEFSAII (Michael W. Deem and Ramdas Pophale) SiO2 
 PCOD8257738
Probable space group: C M C M
;
_chemical_formula_sum "Si O2"
_cell_formula_units_Z 96
_cell_length_a 9.219302
_cell_length_b 26.998343
_cell_length_c 18.979984
_cell_angle_alpha 90.000000
_cell_angle_beta 90.000000
_cell_angle_gamma 90.000000
_cell_volume 4724.229575
_symmetry_space_group_name_H-M "C M C M"
_symmetry_group_IT_number 63
_symmetry_cell_setting 'orthorhombic'
loop_
_space_group_symop_operation_xyz
x,y,z
-x,-y,1/2+z
x,-y,-z
-x,y,1/2-z
-x,-y,-z
x,y,1/2-z
-x,y,z
x,-y,1/2+z
1/2+x,1/2+y,z
1/2-x,1/2-y,1/2+z
1/2+x,1/2-y,-z
1/2-x,1/2+y,1/2-z
1/2-x,1/2-y,-z
1/2+x,1/2+y,1/2-z
1/2-x,1/2+y,z
1/2+x,1/2-y,1/2+z
loop_
_atom_site_type_symbol
_atom_site_label
_atom_site_fract_x
_atom_site_fract_y
_atom_site_fract_z
Si Si1 0.167427 0.354500 0.044883
Si Si2 0.333024 0.996964 0.167920
Si Si3 0.831524 0.700535 0.089237
Si Si4 0.328278 0.106424 0.173088
Si Si5 0.830291 0.287204 0.169460
Si Si6 0.828624 0.047115 0.546568
O O1 0.201789 0.337463 0.125214
O O2 0.263080 0.400979 0.019459
O O3 0.000000 0.370358 0.036183
O O4 0.198564 0.306427 0.994419
O O5 0.314441 0.985376 0.250000
O O6 0.500000 0.989658 0.145043
O O7 0.274679 0.052115 0.149377
O O8 0.232799 0.959201 0.125320
O O9 0.776519 0.648103 0.119775
O O10 0.743744 0.742918 0.127627
O O11 0.000000 0.710614 0.105230
O O12 0.264002 0.119458 0.250000
O O13 0.500000 0.103429 0.178331
O O14 0.771669 0.292634 0.250000
O O15 0.000000 0.275980 0.170431
O O16 0.000000 0.051915 0.547580
O O17 0.777567 0.000000 0.500000
#
# Coordination Sequence:
#
# PCOD8257738 Si02
#       6
#    16  16  16  16  16  16
#     4  10  22  39  59  82 109 146 192 237 277 326
#     4   9  18  34  57  82 109 147 194 239 283 335
#     4  10  19  33  57  85 110 141 185 236 283 327
#     4   8  14  26  47  77 108 136 174 226 278 328
#     4  10  22  39  57  81 115 150 183 223 275 335
#     4  11  24  39  56  83 118 152 187 233 289 344
#
# _framework density 20.320774
#
# number of rings (size 3 to 8) (size 9 to 14) (size 15 to 20)
#    0.000    2.333    0.000    3.500    0.000    6.000 
#    0.000    2.500    0.000    1.000    0.000    0.000 
#    0.000    0.000    0.000    0.000    0.000    0.000 
#
# Total GULP energy -594962.082612 kJ/mol
# GULP energy per Si atom -12395.043388 kJ/mol
# Density = 2.027452 g / cm^3
# Si number density = 20.320774 Si / 1000 Ang^3
#
#
#
# Elastic Constant Matrix: (Units=GPa)
#
#
# Indices 1 2 3 4 5 6 
#
# 1 56.9388 41.8853 38.7601 0.0000 0.0000 0.0000
# 2 41.8853 88.6646 46.0176 0.0000 0.0000 0.0000
# 3 38.7601 46.0176 109.5040 0.0000 0.0000 0.0000
# 4 0.0000 0.0000 0.0000 23.1971 0.0000 0.0000
# 5 0.0000 0.0000 0.0000 0.0000 26.4859 0.0000
# 6 0.0000 0.0000 0.0000 0.0000 0.0000 33.3003
#
#
#
# Elastic Compliance Matrix: (Units=1/GPa)
#
#
# Indices 1 2 3 4 5 6 
#
# 1 0.029614 -0.010934 -0.005887 0.000000 0.000000 0.000000
# 2 -0.010934 0.018462 -0.003888 0.000000 0.000000 0.000000
# 3 -0.005887 -0.003888 0.012850 0.000000 0.000000 0.000000
# 4 0.000000 0.000000 0.000000 0.043109 0.000000 0.000000
# 5 0.000000 0.000000 0.000000 0.000000 0.037756 0.000000
# 6 0.000000 0.000000 0.000000 0.000000 0.000000 0.030030
#
#
# Mechanical properties :
#
#
# Convention : Reuss Voigt Hill
#
# Bulk Modulus (GPa) = 51.26479 56.49263 53.87871
# Shear Modulus (GPa) = 22.75411 25.15960 23.95686
#
# Velocity S-wave (km/s) = 3.34989 3.52251 3.43729
# Velocity P-wave (km/s) = 6.34389 6.66370 6.50576
#
# Compressibility (1/GPa) = 0.01950656
#
# Stress axis : x y z
#
# Youngs Moduli (GPa) = 33.76820 54.16630 77.82215
#
# Poissons Ratio (x) = 0.59226 0.45815
# Poissons Ratio (y) = 0.36922 0.30258
# Poissons Ratio (z) = 0.19880 0.21060
#
# Static dielectric constant tensor:
#      x y z
#    x 3.311770 0.000000 0.000000 
#    y 0.000000 3.711730 0.000000 
#    z 0.000000 0.000000 3.994300 
# 
# 
# High freq. dielectric constant tensor:
#      x y z
#    x 1.758520 0.000000 0.000000 
#    y 0.000000 1.792450 0.000000 
#    z 0.000000 0.000000 1.808790 
# 
# From -- ./inp_files/51332.got.cif
#   From: 2010.03.12/outbox.cif.g09.slc.cpg/sg63_26_cif.got.tgz:51332.got - 2010.04.10 19:34:48.
