data_PCOD8257952
_publ_section_title
;
Structure prediction by ZEFSAII (Michael W. Deem and Ramdas Pophale) SiO2 
 PCOD8257952
Probable space group: C M C M
;
_chemical_formula_sum "Si O2"
_cell_formula_units_Z 96
_cell_length_a 20.162670
_cell_length_b 21.921870
_cell_length_c 11.683169
_cell_angle_alpha 90.000000
_cell_angle_beta 90.000000
_cell_angle_gamma 90.000000
_cell_volume 5164.000778
_symmetry_space_group_name_H-M "C M C M"
_symmetry_group_IT_number 63
_symmetry_cell_setting 'orthorhombic'
loop_
_space_group_symop_operation_xyz
x,y,z
-x,-y,1/2+z
x,-y,-z
-x,y,1/2-z
-x,-y,-z
x,y,1/2-z
-x,y,z
x,-y,1/2+z
1/2+x,1/2+y,z
1/2-x,1/2-y,1/2+z
1/2+x,1/2-y,-z
1/2-x,1/2+y,1/2-z
1/2-x,1/2-y,-z
1/2+x,1/2+y,1/2-z
1/2-x,1/2+y,z
1/2+x,1/2-y,1/2+z
loop_
_atom_site_type_symbol
_atom_site_label
_atom_site_fract_x
_atom_site_fract_y
_atom_site_fract_z
Si Si1 0.688442 0.930612 0.974288
Si Si2 0.181989 0.039127 0.380423
Si Si3 0.232801 0.325199 0.120006
Si Si4 0.425388 0.641650 0.120547
Si Si5 0.643775 0.262861 0.469788
Si Si6 0.926353 0.349738 0.880388
O O1 0.746066 0.927465 0.876707
O O2 0.620624 0.898508 0.940207
O O3 0.719181 0.895047 0.083365
O O4 0.669549 0.000000 0.000000
O O5 0.173230 0.009078 0.250000
O O6 0.122645 0.085271 0.401750
O O7 0.183383 0.000000 0.500000
O O8 0.212390 0.318688 0.250000
O O9 0.188142 0.277738 0.052521
O O10 0.310094 0.308530 0.102921
O O11 0.418236 0.664978 0.250000
O O12 0.500000 0.619380 0.094002
O O13 0.408627 0.698231 0.040748
O O14 0.602503 0.218590 0.387423
O O15 0.931168 0.368947 0.750000
O O16 0.000000 0.352405 0.936385
#
# Coordination Sequence:
#
# PCOD8257952 Si02
#       6
#    16  16  16  16  16  16
#     4  10  21  37  57  82 109 147 188 238 282 334
#     4  10  21  38  58  83 111 149 193 240 288 339
#     4  10  20  33  55  83 111 142 185 235 286 336
#     4  10  20  35  56  80 110 147 186 228 279 339
#     4  10  19  35  53  80 111 145 182 227 283 335
#     4  10  21  36  55  80 111 147 184 228 285 345
#
# _framework density 18.590236000000001
#
# number of rings (size 3 to 8) (size 9 to 14) (size 15 to 20)
#    0.000    2.000    1.667    2.000    0.000    4.000 
#    0.000    0.000    0.000    6.500    0.000    0.000 
#    0.000    0.000    0.000    0.000    0.000    0.000 
#
# Total GULP energy -594751.761011 kJ/mol
# GULP energy per Si atom -12390.661688 kJ/mol
# Density = 1.854792 g / cm^3
# Si number density = 18.590236 Si / 1000 Ang^3
#
#
#
# Elastic Constant Matrix: (Units=GPa)
#
#
# Indices 1 2 3 4 5 6 
#
# 1 139.2862 50.9341 22.4073 0.0000 0.0000 0.0000
# 2 50.9341 92.6824 32.9011 0.0000 0.0000 0.0000
# 3 22.4073 32.9011 83.1663 0.0000 0.0000 0.0000
# 4 0.0000 0.0000 0.0000 12.5247 0.0000 0.0000
# 5 0.0000 0.0000 0.0000 0.0000 -46.4950 0.0000
# 6 0.0000 0.0000 0.0000 0.0000 0.0000 19.4397
#
#
#
# Elastic Compliance Matrix: (Units=1/GPa)
#
#
# Indices 1 2 3 4 5 6 
#
# 1 0.009006 -0.004756 -0.000545 0.000000 0.000000 0.000000
# 2 -0.004756 0.015064 -0.004678 0.000000 0.000000 0.000000
# 3 -0.000545 -0.004678 0.014022 0.000000 0.000000 0.000000
# 4 0.000000 0.000000 0.000000 0.079842 0.000000 0.000000
# 5 0.000000 0.000000 0.000000 0.000000 -0.021508 0.000000
# 6 0.000000 0.000000 0.000000 0.000000 0.000000 0.051441
#
#
# Mechanical properties :
#
#
# Convention : Reuss Voigt Hill
#
# Bulk Modulus (GPa) = 55.14582 58.62445 56.88513
# Shear Modulus (GPa) = 28.75716 11.02005 19.88860
#
# Velocity S-wave (km/s) = 3.93733 2.43736 3.27439
# Velocity P-wave (km/s) = 7.09918 6.28685 6.70533
#
# Compressibility (1/GPa) = 0.01813374
#
# Stress axis : x y z
#
# Youngs Moduli (GPa) = 111.03322 66.38422 71.31866
#
# Poissons Ratio (x) = 0.31572 0.03887
# Poissons Ratio (y) = 0.52807 0.33362
# Poissons Ratio (z) = 0.06052 0.31054
#
# Static dielectric constant tensor:
#      x y z
#    x 3.720300 0.000000 0.000000 
#    y 0.000000 3.357080 0.000000 
#    z 0.000000 0.000000 3.407150 
# 
# 
# High freq. dielectric constant tensor:
#      x y z
#    x 1.732090 0.000000 0.000000 
#    y 0.000000 1.713050 0.000000 
#    z 0.000000 0.000000 1.716520 
# 
# From -- ./inp_files/21326.got.cif
#   From: 2010.03.12/outbox.cif.g09.slc.cpg/sg63_11_cif.got.tgz:21326.got - 2010.04.10 19:34:48.
