data_PCOD8257544
_publ_section_title
;
Structure prediction by ZEFSAII (Michael W. Deem and Ramdas Pophale) SiO2 
 PCOD8257544
Probable space group: C M C M
;
_chemical_formula_sum "Si O2"
_cell_formula_units_Z 104
_cell_length_a 23.042828
_cell_length_b 12.588833
_cell_length_c 19.811875
_cell_angle_alpha 90.000000
_cell_angle_beta 90.000000
_cell_angle_gamma 90.000000
_cell_volume 5747.074536
_symmetry_space_group_name_H-M "C M C M"
_symmetry_group_IT_number 63
_symmetry_cell_setting 'orthorhombic'
loop_
_space_group_symop_operation_xyz
x,y,z
-x,-y,1/2+z
x,-y,-z
-x,y,1/2-z
-x,-y,-z
x,y,1/2-z
-x,y,z
x,-y,1/2+z
1/2+x,1/2+y,z
1/2-x,1/2-y,1/2+z
1/2+x,1/2-y,-z
1/2-x,1/2+y,1/2-z
1/2-x,1/2-y,-z
1/2+x,1/2+y,1/2-z
1/2-x,1/2+y,z
1/2+x,1/2-y,1/2+z
loop_
_atom_site_type_symbol
_atom_site_label
_atom_site_fract_x
_atom_site_fract_y
_atom_site_fract_z
Si Si1 0.937304 0.577515 0.437175
Si Si2 0.180224 0.495480 0.082129
Si Si3 0.802066 0.068869 0.374895
Si Si4 0.664003 0.648083 0.675950
Si Si5 0.291189 0.798811 0.170517
Si Si6 0.564953 0.685801 0.927562
Si Si7 0.123683 0.000000 0.500000
O O1 0.937665 0.500000 0.500000
O O2 0.880677 0.548097 0.392868
O O3 0.931458 0.699000 0.463049
O O4 0.000000 0.565069 0.398509
O O5 0.233047 0.562184 0.113031
O O6 0.179685 0.378781 0.116480
O O7 0.184155 0.500000 0.000000
O O8 0.817820 0.182629 0.343144
O O9 0.824408 0.978570 0.324083
O O10 0.834566 0.049290 0.444555
O O11 0.647390 0.685000 0.750000
O O12 0.722991 0.705269 0.652074
O O13 0.609840 0.685103 0.633152
O O14 0.300739 0.830789 0.250000
O O15 0.500000 0.663706 0.900326
O O16 0.581630 0.594980 0.979663
#
# Coordination Sequence:
#
# PCOD8257544 Si02
#       7
#    16  16  16  16  16  16   8
#     4   9  19  34  52  76 106 141 179 222 272 323
#     4  10  20  33  53  83 108 142 185 233 272 327
#     4  10  19  33  52  81 111 142 176 225 275 334
#     4   9  19  35  52  76 107 140 180 222 268 325
#     4  10  21  35  55  80 112 151 184 222 279 340
#     4  10  20  35  53  77 107 138 181 226 274 323
#     4  10  21  32  52  84 111 140 172 230 278 330
#
# _framework density 18.096163000000001
#
# number of rings (size 3 to 8) (size 9 to 14) (size 15 to 20)
#    0.000    2.308    0.769    1.615    4.308    1.538 
#    0.000    0.769    0.000    1.385    0.000    0.000 
#    0.000    0.000    0.000    0.000    0.000    0.000 
#
# Total GULP energy -644245.117316 kJ/mol
# GULP energy per Si atom -12389.329179 kJ/mol
# Density = 1.805498 g / cm^3
# Si number density = 18.096163 Si / 1000 Ang^3
#
#
#
# Elastic Constant Matrix: (Units=GPa)
#
#
# Indices 1 2 3 4 5 6 
#
# 1 131.3196 44.0272 29.7749 0.0000 0.0000 0.0000
# 2 44.0272 125.6769 33.5966 0.0000 0.0000 0.0000
# 3 29.7749 33.5966 54.7120 0.0000 0.0000 0.0000
# 4 0.0000 0.0000 0.0000 10.3627 0.0000 0.0000
# 5 0.0000 0.0000 0.0000 0.0000 0.4597 0.0000
# 6 0.0000 0.0000 0.0000 0.0000 0.0000 11.2124
#
#
#
# Elastic Compliance Matrix: (Units=1/GPa)
#
#
# Indices 1 2 3 4 5 6 
#
# 1 0.009191 -0.002252 -0.003619 0.000000 0.000000 0.000000
# 2 -0.002252 0.010072 -0.004959 0.000000 0.000000 0.000000
# 3 -0.003619 -0.004959 0.023292 0.000000 0.000000 0.000000
# 4 0.000000 0.000000 0.000000 0.096500 0.000000 0.000000
# 5 0.000000 0.000000 0.000000 0.000000 2.175550 0.000000
# 6 0.000000 0.000000 0.000000 0.000000 0.000000 0.089187
#
#
# Mechanical properties :
#
#
# Convention : Reuss Voigt Hill
#
# Bulk Modulus (GPa) = 47.85935 58.50065 53.18000
# Shear Modulus (GPa) = 2.05557 18.02762 10.04160
#
# Velocity S-wave (km/s) = 1.06695 3.15971 2.35819
# Velocity P-wave (km/s) = 5.29363 6.76088 6.07174
#
# Compressibility (1/GPa) = 0.02089456
#
# Stress axis : x y z
#
# Youngs Moduli (GPa) = 108.80691 99.28945 42.93353
#
# Poissons Ratio (x) = 0.22363 0.15536
# Poissons Ratio (y) = 0.24507 0.21290
# Poissons Ratio (z) = 0.39372 0.49236
#
# Static dielectric constant tensor:
#      x y z
#    x 3.811420 0.000000 0.000000 
#    y 0.000000 3.457450 0.000000 
#    z 0.000000 0.000000 3.105710 
# 
# 
# High freq. dielectric constant tensor:
#      x y z
#    x 1.706640 0.000000 0.000000 
#    y 0.000000 1.712300 0.000000 
#    z 0.000000 0.000000 1.672520 
# 
# From -- ./inp_files/57581.got.cif
#   From: 2010.03.12/outbox.cif.g09.slc.cpg/sg63_29_cif.got.tgz:57581.got - 2010.04.10 19:34:48.
