data_PCOD8257345
_publ_section_title
;
Structure prediction by ZEFSAII (Michael W. Deem and Ramdas Pophale) SiO2 
 PCOD8257345
Probable space group: C M C M
;
_chemical_formula_sum "Si O2"
_cell_formula_units_Z 72
_cell_length_a 24.857761
_cell_length_b 11.817363
_cell_length_c 13.376775
_cell_angle_alpha 90.000000
_cell_angle_beta 90.000000
_cell_angle_gamma 90.000000
_cell_volume 3929.470263
_symmetry_space_group_name_H-M "C M C M"
_symmetry_group_IT_number 63
_symmetry_cell_setting 'orthorhombic'
loop_
_space_group_symop_operation_xyz
x,y,z
-x,-y,1/2+z
x,-y,-z
-x,y,1/2-z
-x,-y,-z
x,y,1/2-z
-x,y,z
x,-y,1/2+z
1/2+x,1/2+y,z
1/2-x,1/2-y,1/2+z
1/2+x,1/2-y,-z
1/2-x,1/2+y,1/2-z
1/2-x,1/2-y,-z
1/2+x,1/2+y,1/2-z
1/2-x,1/2+y,z
1/2+x,1/2-y,1/2+z
loop_
_atom_site_type_symbol
_atom_site_label
_atom_site_fract_x
_atom_site_fract_y
_atom_site_fract_z
Si Si1 0.712084 0.902034 0.863202
Si Si2 0.855317 0.178747 0.634129
Si Si3 0.393193 0.039728 0.863821
Si Si4 0.701102 0.500000 0.500000
Si Si5 0.061806 0.671688 0.038097
O O1 0.732868 0.914626 0.750000
O O2 0.687479 0.778776 0.880337
O O3 0.667738 0.999163 0.884524
O O4 0.762225 0.914766 0.936381
O O5 0.862540 0.147239 0.750000
O O6 0.912547 0.218326 0.589769
O O7 0.836249 0.068907 0.575289
O O8 0.401464 0.077814 0.750000
O O9 0.433410 0.936117 0.888224
O O10 0.406752 0.145910 0.934346
O O11 0.000000 0.697875 0.015242
#
# Coordination Sequence:
#
# PCOD8257345 Si02
#       5
#    16  16  16   8  16
#     4   9  18  32  52  78 107 136 164 202 257 313
#     4  10  22  37  52  75 102 130 171 217 261 313
#     4   9  17  30  51  83 114 135 165 210 259 314
#     4  12  20  34  55  74 101 138 176 214 250 300
#     4  10  19  32  52  76 104 141 177 211 259 311
#
# _framework density 18.323080000000001
#
# number of rings (size 3 to 8) (size 9 to 14) (size 15 to 20)
#    0.000    2.222    0.000    7.333    0.000    3.111 
#    0.000    5.000    0.000    0.000    0.000    0.000 
#    0.000    0.000    0.000    0.000    0.000    0.000 
#
# Total GULP energy -446445.414539 kJ/mol
# GULP energy per Si atom -12401.261515 kJ/mol
# Density = 1.828138 g / cm^3
# Si number density = 18.323080 Si / 1000 Ang^3
#
#
#
# Elastic Constant Matrix: (Units=GPa)
#
#
# Indices 1 2 3 4 5 6 
#
# 1 66.1311 35.3121 50.1433 0.0000 0.0000 0.0000
# 2 35.3121 61.6311 52.1479 0.0000 0.0000 0.0000
# 3 50.1433 52.1479 148.4554 0.0000 0.0000 0.0000
# 4 0.0000 0.0000 0.0000 33.6100 0.0000 0.0000
# 5 0.0000 0.0000 0.0000 0.0000 13.6447 0.0000
# 6 0.0000 0.0000 0.0000 0.0000 0.0000 14.4065
#
#
#
# Elastic Compliance Matrix: (Units=1/GPa)
#
#
# Indices 1 2 3 4 5 6 
#
# 1 0.023831 -0.009738 -0.004629 0.000000 0.000000 0.000000
# 2 -0.009738 0.027067 -0.006219 0.000000 0.000000 0.000000
# 3 -0.004629 -0.006219 0.010484 0.000000 0.000000 0.000000
# 4 0.000000 0.000000 0.000000 0.029753 0.000000 0.000000
# 5 0.000000 0.000000 0.000000 0.000000 0.073289 0.000000
# 6 0.000000 0.000000 0.000000 0.000000 0.000000 0.069413
#
#
# Mechanical properties :
#
#
# Convention : Reuss Voigt Hill
#
# Bulk Modulus (GPa) = 49.47713 61.26935 55.37324
# Shear Modulus (GPa) = 17.74668 21.57320 19.65994
#
# Velocity S-wave (km/s) = 3.11552 3.43502 3.27916
# Velocity P-wave (km/s) = 6.32481 7.01736 6.68007
#
# Compressibility (1/GPa) = 0.02021136
#
# Stress axis : x y z
#
# Youngs Moduli (GPa) = 41.96264 36.94598 95.38452
#
# Poissons Ratio (x) = 0.35976 0.44151
# Poissons Ratio (y) = 0.40861 0.59316
# Poissons Ratio (z) = 0.19423 0.22975
#
# Static dielectric constant tensor:
#      x y z
#    x 3.227800 0.000000 0.000000 
#    y 0.000000 2.975220 0.000000 
#    z 0.000000 0.000000 3.585460 
# 
# 
# High freq. dielectric constant tensor:
#      x y z
#    x 1.694780 0.000000 0.000000 
#    y 0.000000 1.666900 0.000000 
#    z 0.000000 0.000000 1.730270 
# 
# From -- ./inp_files/36381.got.cif
#   From: 2010.03.12/outbox.cif.g09.slc.cpg/sg63_19_cif.got.tgz:36381.got - 2010.04.10 19:34:48.
