data_PCOD8257045
_publ_section_title
;
Structure prediction by ZEFSAII (Michael W. Deem and Ramdas Pophale) SiO2 
 PCOD8257045
Probable space group: C M C M
;
_chemical_formula_sum "Si O2"
_cell_formula_units_Z 96
_cell_length_a 9.288302
_cell_length_b 25.704064
_cell_length_c 23.327754
_cell_angle_alpha 90.000000
_cell_angle_beta 90.000000
_cell_angle_gamma 90.000000
_cell_volume 5569.433828
_symmetry_space_group_name_H-M "C M C M"
_symmetry_group_IT_number 63
_symmetry_cell_setting 'orthorhombic'
loop_
_space_group_symop_operation_xyz
x,y,z
-x,-y,1/2+z
x,-y,-z
-x,y,1/2-z
-x,-y,-z
x,y,1/2-z
-x,y,z
x,-y,1/2+z
1/2+x,1/2+y,z
1/2-x,1/2-y,1/2+z
1/2+x,1/2-y,-z
1/2-x,1/2+y,1/2-z
1/2-x,1/2-y,-z
1/2+x,1/2+y,1/2-z
1/2-x,1/2+y,z
1/2+x,1/2-y,1/2+z
loop_
_atom_site_type_symbol
_atom_site_label
_atom_site_fract_x
_atom_site_fract_y
_atom_site_fract_z
Si Si1 0.170564 0.906938 0.109442
Si Si2 0.168967 0.560073 0.499853
Si Si3 0.670816 0.197936 0.314014
Si Si4 0.828870 0.812835 0.185669
Si Si5 0.830049 0.404055 0.625229
Si Si6 0.165828 0.994491 0.816000
O O1 0.230914 0.855818 0.141808
O O2 0.000000 0.904640 0.100747
O O3 0.217318 0.956801 0.146346
O O4 0.245850 0.908593 0.048037
O O5 0.216391 0.500000 0.500000
O O6 0.216269 0.585252 0.439817
O O7 0.000000 0.565672 0.511567
O O8 0.729831 0.186248 0.250000
O O9 0.500000 0.197688 0.312263
O O10 0.723429 0.255244 0.334276
O O11 0.725770 0.153574 0.357623
O O12 0.771560 0.824252 0.250000
O O13 0.000000 0.815863 0.186485
O O14 0.759190 0.444704 0.668259
O O15 0.000000 0.409818 0.632816
O O16 0.190933 0.009271 0.750000
O O17 0.000000 0.981327 0.828322
#
# Coordination Sequence:
#
# PCOD8257045 Si02
#       6
#    16  16  16  16  16  16
#     4  10  19  31  50  72  94 123 159 194 232 284
#     4  10  20  34  48  65  95 133 165 196 237 277
#     4   8  14  26  47  73  95 117 152 197 239 278
#     4   8  14  27  48  73  98 121 150 194 242 283
#     4  10  19  32  50  70  93 125 165 200 231 276
#     4  10  20  31  45  70 100 123 147 189 243 289
#
# _framework density 17.236941000000002
#
# number of rings (size 3 to 8) (size 9 to 14) (size 15 to 20)
#    0.000    2.667    1.667    2.000    0.000    4.000 
#    0.000    0.833    0.000    2.500    0.000    2.333 
#    0.000    0.000    0.000    0.000    0.000    0.000 
#
# Total GULP energy -595100.952069 kJ/mol
# GULP energy per Si atom -12397.936501 kJ/mol
# Density = 1.719771 g / cm^3
# Si number density = 17.236941 Si / 1000 Ang^3
#
#
#
# Elastic Constant Matrix: (Units=GPa)
#
#
# Indices 1 2 3 4 5 6 
#
# 1 17.3666 19.7580 21.2712 0.0000 0.0000 0.0000
# 2 19.7580 138.5845 64.8446 0.0000 0.0000 0.0000
# 3 21.2712 64.8446 104.7651 0.0000 0.0000 0.0000
# 4 0.0000 0.0000 0.0000 32.1373 0.0000 0.0000
# 5 0.0000 0.0000 0.0000 0.0000 16.8500 0.0000
# 6 0.0000 0.0000 0.0000 0.0000 0.0000 14.5093
#
#
#
# Elastic Compliance Matrix: (Units=1/GPa)
#
#
# Indices 1 2 3 4 5 6 
#
# 1 0.079325 -0.005312 -0.012818 0.000000 0.000000 0.000000
# 2 -0.005312 0.010513 -0.005429 0.000000 0.000000 0.000000
# 3 -0.012818 -0.005429 0.015508 0.000000 0.000000 0.000000
# 4 0.000000 0.000000 0.000000 0.031116 0.000000 0.000000
# 5 0.000000 0.000000 0.000000 0.000000 0.059347 0.000000
# 6 0.000000 0.000000 0.000000 0.000000 0.000000 0.068922
#
#
# Mechanical properties :
#
#
# Convention : Reuss Voigt Hill
#
# Bulk Modulus (GPa) = 17.17356 52.49595 34.83476
# Shear Modulus (GPa) = 15.09395 23.02214 19.05805
#
# Velocity S-wave (km/s) = 2.96239 3.65859 3.32874
# Velocity P-wave (km/s) = 4.65681 6.95476 5.91838
#
# Compressibility (1/GPa) = 0.05822905
#
# Stress axis : x y z
#
# Youngs Moduli (GPa) = 12.60633 95.11826 64.48336
#
# Poissons Ratio (x) = 0.50523 0.82657
# Poissons Ratio (y) = 0.06696 0.35006
# Poissons Ratio (z) = 0.16159 0.51637
#
# Static dielectric constant tensor:
#      x y z
#    x 2.819130 0.000000 0.000000 
#    y 0.000000 3.545140 0.000000 
#    z 0.000000 0.000000 3.275530 
# 
# 
# High freq. dielectric constant tensor:
#      x y z
#    x 1.623830 0.000000 0.000000 
#    y 0.000000 1.672750 0.000000 
#    z 0.000000 0.000000 1.666870 
# 
# From -- ./inp_files/59848.got.cif
#   From: 2010.03.12/outbox.cif.g09.slc.cpg/sg63_30_cif.got.tgz:59848.got - 2010.04.10 19:34:48.
