data_PCOD8257193
_publ_section_title
;
Structure prediction by ZEFSAII (Michael W. Deem and Ramdas Pophale) SiO2 
 PCOD8257193
Probable space group: C M C M
;
_chemical_formula_sum "Si O2"
_cell_formula_units_Z 96
_cell_length_a 19.909771
_cell_length_b 28.910594
_cell_length_c 9.583683
_cell_angle_alpha 90.000000
_cell_angle_beta 90.000000
_cell_angle_gamma 90.000000
_cell_volume 5516.399619
_symmetry_space_group_name_H-M "C M C M"
_symmetry_group_IT_number 63
_symmetry_cell_setting 'orthorhombic'
loop_
_space_group_symop_operation_xyz
x,y,z
-x,-y,1/2+z
x,-y,-z
-x,y,1/2-z
-x,-y,-z
x,y,1/2-z
-x,y,z
x,-y,1/2+z
1/2+x,1/2+y,z
1/2-x,1/2-y,1/2+z
1/2+x,1/2-y,-z
1/2-x,1/2+y,1/2-z
1/2-x,1/2-y,-z
1/2+x,1/2+y,1/2-z
1/2-x,1/2+y,z
1/2+x,1/2-y,1/2+z
loop_
_atom_site_type_symbol
_atom_site_label
_atom_site_fract_x
_atom_site_fract_y
_atom_site_fract_z
Si Si1 0.573458 0.955083 0.091181
Si Si2 0.152825 0.775773 0.405180
Si Si3 0.334512 0.453069 0.416424
Si Si4 0.693622 0.199856 0.594669
Si Si5 0.076075 0.133379 0.915383
Si Si6 0.201708 0.598482 0.914960
O O1 0.588505 0.969561 0.250000
O O2 0.500000 0.931180 0.078100
O O3 0.630489 0.921202 0.035843
O O4 0.576045 0.000000 0.000000
O O5 0.123494 0.765755 0.250000
O O6 0.232316 0.780024 0.394268
O O7 0.141827 0.731783 0.506468
O O8 0.117420 0.821703 0.469581
O O9 0.350738 0.500000 0.500000
O O10 0.336392 0.462652 0.250000
O O11 0.388950 0.414448 0.462356
O O12 0.262205 0.433944 0.468221
O O13 0.662215 0.195812 0.750000
O O14 0.702260 0.149857 0.520999
O O15 0.076753 0.135084 0.750000
O O16 0.000000 0.134643 0.974305
O O17 0.210262 0.602992 0.750000
#
# Coordination Sequence:
#
# PCOD8257193 Si02
#       6
#    16  16  16  16  16  16
#     4   9  17  29  45  64  87 118 153 185 221 269
#     4   9  16  29  48  70  91 116 152 189 224 267
#     4  10  19  32  49  70  94 122 159 200 238 276
#     4   9  16  28  48  70  92 118 148 185 228 273
#     4   9  17  31  51  70  92 127 165 194 228 282
#     4   9  16  29  48  68  92 123 154 186 227 279
#
# _framework density 17.402654999999999
#
# number of rings (size 3 to 8) (size 9 to 14) (size 15 to 20)
#    0.000    2.833    1.667    0.500    0.000    0.333 
#    0.000    3.333    0.000    2.500    0.000    0.000 
#    0.000    0.000    0.000    0.000    0.000    0.000 
#
# Total GULP energy -594794.746662 kJ/mol
# GULP energy per Si atom -12391.557222 kJ/mol
# Density = 1.736305 g / cm^3
# Si number density = 17.402655 Si / 1000 Ang^3
#
#
#
# Elastic Constant Matrix: (Units=GPa)
#
#
# Indices 1 2 3 4 5 6 
#
# 1 83.6883 44.3362 23.1387 0.0000 0.0000 0.0000
# 2 44.3362 117.7985 35.1735 0.0000 0.0000 0.0000
# 3 23.1387 35.1735 38.4791 0.0000 0.0000 0.0000
# 4 0.0000 0.0000 0.0000 28.4534 0.0000 0.0000
# 5 0.0000 0.0000 0.0000 0.0000 4.4465 0.0000
# 6 0.0000 0.0000 0.0000 0.0000 0.0000 19.3974
#
#
#
# Elastic Compliance Matrix: (Units=1/GPa)
#
#
# Indices 1 2 3 4 5 6 
#
# 1 0.015749 -0.004263 -0.005573 0.000000 0.000000 0.000000
# 2 -0.004263 0.012830 -0.009164 0.000000 0.000000 0.000000
# 3 -0.005573 -0.009164 0.037716 0.000000 0.000000 0.000000
# 4 0.000000 0.000000 0.000000 0.035145 0.000000 0.000000
# 5 0.000000 0.000000 0.000000 0.000000 0.224896 0.000000
# 6 0.000000 0.000000 0.000000 0.000000 0.000000 0.051553
#
#
# Mechanical properties :
#
#
# Convention : Reuss Voigt Hill
#
# Bulk Modulus (GPa) = 35.34339 49.47365 42.40852
# Shear Modulus (GPa) = 11.75580 19.61395 15.68487
#
# Velocity S-wave (km/s) = 2.60189 3.36082 3.00541
# Velocity P-wave (km/s) = 5.42031 6.59929 6.03864
#
# Compressibility (1/GPa) = 0.02829383
#
# Stress axis : x y z
#
# Youngs Moduli (GPa) = 63.49774 77.94238 26.51367
#
# Poissons Ratio (x) = 0.33229 0.14776
# Poissons Ratio (y) = 0.27071 0.24298
# Poissons Ratio (z) = 0.35388 0.71428
#
# Static dielectric constant tensor:
#      x y z
#    x 3.408860 0.000000 0.000000 
#    y 0.000000 3.396690 0.000000 
#    z 0.000000 0.000000 3.089080 
# 
# 
# High freq. dielectric constant tensor:
#      x y z
#    x 1.662820 0.000000 0.000000 
#    y 0.000000 1.675660 0.000000 
#    z 0.000000 0.000000 1.632810 
# 
# From -- ./inp_files/21538.got.cif
#   From: 2010.03.12/outbox.cif.g09.slc.cpg/sg63_11_cif.got.tgz:21538.got - 2010.04.10 19:34:48.
