data_PCOD8257884
_publ_section_title
;
Structure prediction by ZEFSAII (Michael W. Deem and Ramdas Pophale) SiO2 
 PCOD8257884
Probable space group: C M C M
;
_chemical_formula_sum "Si O2"
_cell_formula_units_Z 96
_cell_length_a 8.845661
_cell_length_b 30.288597
_cell_length_c 19.005161
_cell_angle_alpha 90.000000
_cell_angle_beta 90.000000
_cell_angle_gamma 90.000000
_cell_volume 5091.913312
_symmetry_space_group_name_H-M "C M C M"
_symmetry_group_IT_number 63
_symmetry_cell_setting 'orthorhombic'
loop_
_space_group_symop_operation_xyz
x,y,z
-x,-y,1/2+z
x,-y,-z
-x,y,1/2-z
-x,-y,-z
x,y,1/2-z
-x,y,z
x,-y,1/2+z
1/2+x,1/2+y,z
1/2-x,1/2-y,1/2+z
1/2+x,1/2-y,-z
1/2-x,1/2+y,1/2-z
1/2-x,1/2-y,-z
1/2+x,1/2+y,1/2-z
1/2-x,1/2+y,z
1/2+x,1/2-y,1/2+z
loop_
_atom_site_type_symbol
_atom_site_label
_atom_site_fract_x
_atom_site_fract_y
_atom_site_fract_z
Si Si1 0.178032 0.263471 0.072861
Si Si2 0.322407 0.941114 0.168313
Si Si3 0.823944 0.183135 0.168426
Si Si4 0.178792 0.015537 0.076759
Si Si5 0.678913 0.891015 0.922038
Si Si6 0.321022 0.138652 0.925840
O O1 0.226336 0.229231 0.133113
O O2 0.236830 0.312342 0.094398
O O3 0.000000 0.264129 0.061756
O O4 0.250000 0.250000 0.000000
O O5 0.283016 0.937772 0.250000
O O6 0.500000 0.948230 0.155040
O O7 0.232542 0.981663 0.135728
O O8 0.263067 0.896044 0.132122
O O9 0.785877 0.187451 0.250000
O O10 0.726752 0.143447 0.137341
O O11 0.000000 0.173433 0.154789
O O12 0.000000 0.019534 0.078474
O O13 0.249499 0.062227 0.096741
O O14 0.236536 0.000000 0.000000
O O15 0.500000 0.895901 0.922443
O O16 0.742177 0.874768 0.997457
O O17 0.500000 0.137982 0.928264
#
# Coordination Sequence:
#
# PCOD8257884 Si02
#       6
#    16  16  16  16  16  16
#     4  10  19  34  57  84 113 148 190 231 277 330
#     4  10  21  38  60  86 116 149 186 233 287 339
#     4  10  22  38  56  83 120 155 188 234 288 340
#     4  11  23  38  59  86 115 150 190 233 285 342
#     4  11  21  36  61  86 112 148 192 239 284 332
#     4   9  18  33  56  86 114 143 185 236 280 327
#
# _framework density 18.853422999999999
#
# number of rings (size 3 to 8) (size 9 to 14) (size 15 to 20)
#    0.000    1.833    3.333    1.000    0.000    2.667 
#    0.000    4.167    0.000    0.000    0.000    2.333 
#    0.000    0.000    0.000    0.000    0.000    0.000 
#
# Total GULP energy -595329.657248 kJ/mol
# GULP energy per Si atom -12402.701193 kJ/mol
# Density = 1.881051 g / cm^3
# Si number density = 18.853423 Si / 1000 Ang^3
#
#
#
# Elastic Constant Matrix: (Units=GPa)
#
#
# Indices 1 2 3 4 5 6 
#
# 1 45.1918 44.1798 38.0279 0.0000 0.0000 0.0000
# 2 44.1798 195.3276 80.6405 0.0000 0.0000 0.0000
# 3 38.0279 80.6405 141.3912 0.0000 0.0000 0.0000
# 4 0.0000 0.0000 0.0000 34.7952 0.0000 0.0000
# 5 0.0000 0.0000 0.0000 0.0000 26.5301 0.0000
# 6 0.0000 0.0000 0.0000 0.0000 0.0000 19.4099
#
#
#
# Elastic Compliance Matrix: (Units=1/GPa)
#
#
# Indices 1 2 3 4 5 6 
#
# 1 0.031669 -0.004770 -0.005797 0.000000 0.000000 0.000000
# 2 -0.004770 0.007415 -0.002946 0.000000 0.000000 0.000000
# 3 -0.005797 -0.002946 0.010312 0.000000 0.000000 0.000000
# 4 0.000000 0.000000 0.000000 0.028740 0.000000 0.000000
# 5 0.000000 0.000000 0.000000 0.000000 0.037693 0.000000
# 6 0.000000 0.000000 0.000000 0.000000 0.000000 0.051520
#
#
# Mechanical properties :
#
#
# Convention : Reuss Voigt Hill
#
# Bulk Modulus (GPa) = 44.70302 78.62299 61.66301
# Shear Modulus (GPa) = 24.77323 30.75120 27.76222
#
# Velocity S-wave (km/s) = 3.62883 4.04303 3.84152
# Velocity P-wave (km/s) = 6.42808 7.97418 7.24251
#
# Compressibility (1/GPa) = 0.02236985
#
# Stress axis : x y z
#
# Youngs Moduli (GPa) = 31.57663 134.86766 96.97414
#
# Poissons Ratio (x) = 0.64326 0.56219
# Poissons Ratio (y) = 0.15061 0.28569
# Poissons Ratio (z) = 0.18306 0.39733
#
# Static dielectric constant tensor:
#      x y z
#    x 3.256710 0.000000 0.000000 
#    y 0.000000 3.772330 0.000000 
#    z 0.000000 0.000000 3.434840 
# 
# 
# High freq. dielectric constant tensor:
#      x y z
#    x 1.712950 0.000000 0.000000 
#    y 0.000000 1.752000 0.000000 
#    z 0.000000 0.000000 1.730520 
# 
# From -- ./inp_files/51255.got.cif
#   From: 2010.03.12/outbox.cif.g09.slc.cpg/sg63_26_cif.got.tgz:51255.got - 2010.04.10 19:34:48.
