data_PCOD8257951
_publ_section_title
;
Structure prediction by ZEFSAII (Michael W. Deem and Ramdas Pophale) SiO2 
 PCOD8257951
Probable space group: C M C M
;
_chemical_formula_sum "Si O2"
_cell_formula_units_Z 104
_cell_length_a 31.954912
_cell_length_b 20.340665
_cell_length_c 8.937865
_cell_angle_alpha 90.000000
_cell_angle_beta 90.000000
_cell_angle_gamma 90.000000
_cell_volume 5809.470675
_symmetry_space_group_name_H-M "C M C M"
_symmetry_group_IT_number 63
_symmetry_cell_setting 'orthorhombic'
loop_
_space_group_symop_operation_xyz
x,y,z
-x,-y,1/2+z
x,-y,-z
-x,y,1/2-z
-x,-y,-z
x,y,1/2-z
-x,y,z
x,-y,1/2+z
1/2+x,1/2+y,z
1/2-x,1/2-y,1/2+z
1/2+x,1/2-y,-z
1/2-x,1/2+y,1/2-z
1/2-x,1/2-y,-z
1/2+x,1/2+y,1/2-z
1/2-x,1/2+y,z
1/2+x,1/2-y,1/2+z
loop_
_atom_site_type_symbol
_atom_site_label
_atom_site_fract_x
_atom_site_fract_y
_atom_site_fract_z
Si Si1 0.070619 0.144688 0.919316
Si Si2 0.154384 0.831473 0.928240
Si Si3 0.868849 0.314988 0.073874
Si Si4 0.046915 0.295460 0.918748
Si Si5 0.784519 0.931329 0.073130
Si Si6 0.187400 0.566352 0.575480
Si Si7 0.000000 0.931457 0.575748
O O1 0.070640 0.116999 0.750000
O O2 0.054258 0.218281 0.920808
O O3 0.115700 0.133816 0.991579
O O4 0.041237 0.105135 0.027190
O O5 0.152887 0.840438 0.750000
O O6 0.152290 0.754310 0.974239
O O7 0.194840 0.867662 0.995470
O O8 0.872720 0.317406 0.250000
O O9 0.838859 0.372189 0.011224
O O10 0.915796 0.328087 0.013269
O O11 0.049713 0.322390 0.750000
O O12 0.000000 0.310774 0.983319
O O13 0.794024 0.932588 0.250000
O O14 0.735762 0.921837 0.037768
O O15 0.800447 0.000000 0.000000
O O16 0.170620 0.500000 0.500000
O O17 0.179899 0.558709 0.750000
O O18 0.000000 0.940318 0.750000
O O19 0.000000 0.000000 0.500000
#
# Coordination Sequence:
#
# PCOD8257951 Si02
#       7
#    16  16  16  16  16  16   8
#     4  10  19  35  53  71  98 132 168 212 260 305
#     4  10  20  34  52  78 108 137 172 217 264 313
#     4   9  19  34  52  79 110 138 171 215 263 313
#     4   9  17  31  52  77 104 133 166 207 252 304
#     4  10  20  35  54  75 101 139 180 219 263 314
#     4   9  19  36  56  78 106 138 175 215 260 314
#     4  12  24  36  50  70  96 130 173 216 261 310
#
# _framework density 17.901803999999998
#
# number of rings (size 3 to 8) (size 9 to 14) (size 15 to 20)
#    0.000    2.308    0.769    2.077    0.000    4.000 
#    0.000    3.077    0.000    0.462    0.000    0.000 
#    0.000    0.000    0.000    0.000    0.000    0.000 
#
# Total GULP energy -644632.632163 kJ/mol
# GULP energy per Si atom -12396.781388 kJ/mol
# Density = 1.786106 g / cm^3
# Si number density = 17.901804 Si / 1000 Ang^3
#
#
#
# Elastic Constant Matrix: (Units=GPa)
#
#
# Indices 1 2 3 4 5 6 
#
# 1 108.3781 63.5053 43.8602 0.0000 0.0000 0.0000
# 2 63.5053 88.9346 42.9386 0.0000 0.0000 0.0000
# 3 43.8602 42.9386 89.5588 0.0000 0.0000 0.0000
# 4 0.0000 0.0000 0.0000 26.0665 0.0000 0.0000
# 5 0.0000 0.0000 0.0000 0.0000 31.6706 0.0000
# 6 0.0000 0.0000 0.0000 0.0000 0.0000 9.9597
#
#
#
# Elastic Compliance Matrix: (Units=1/GPa)
#
#
# Indices 1 2 3 4 5 6 
#
# 1 0.016529 -0.010272 -0.003170 0.000000 0.000000 0.000000
# 2 -0.010272 0.021015 -0.005045 0.000000 0.000000 0.000000
# 3 -0.003170 -0.005045 0.015137 0.000000 0.000000 0.000000
# 4 0.000000 0.000000 0.000000 0.038363 0.000000 0.000000
# 5 0.000000 0.000000 0.000000 0.000000 0.031575 0.000000
# 6 0.000000 0.000000 0.000000 0.000000 0.000000 0.100404
#
#
# Mechanical properties :
#
#
# Convention : Reuss Voigt Hill
#
# Bulk Modulus (GPa) = 63.66596 65.27550 64.47073
# Shear Modulus (GPa) = 18.85130 22.64385 20.74758
#
# Velocity S-wave (km/s) = 3.24858 3.56039 3.40805
# Velocity P-wave (km/s) = 7.05069 7.31055 7.18179
#
# Compressibility (1/GPa) = 0.01570698
#
# Stress axis : x y z
#
# Youngs Moduli (GPa) = 60.49982 47.58485 66.06361
#
# Poissons Ratio (x) = 0.48881 0.20941
# Poissons Ratio (y) = 0.62148 0.33328
# Poissons Ratio (z) = 0.19177 0.24006
#
# Static dielectric constant tensor:
#      x y z
#    x 3.526310 0.000000 0.000000 
#    y 0.000000 3.282120 0.000000 
#    z 0.000000 0.000000 3.348200 
# 
# 
# High freq. dielectric constant tensor:
#      x y z
#    x 1.697350 0.000000 0.000000 
#    y 0.000000 1.674580 0.000000 
#    z 0.000000 0.000000 1.698650 
# 
# From -- ./inp_files/12531.got.cif
#   From: 2010.03.12/outbox.cif.g09.slc.cpg/sg63_7_cif.got.tgz:12531.got - 2010.04.10 19:34:48.
