data_PCOD8257201
_publ_section_title
;
Structure prediction by ZEFSAII (Michael W. Deem and Ramdas Pophale) SiO2 
 PCOD8257201
Probable space group: C M C M
;
_chemical_formula_sum "Si O2"
_cell_formula_units_Z 128
_cell_length_a 23.058689
_cell_length_b 18.709994
_cell_length_c 18.449750
_cell_angle_alpha 90.000000
_cell_angle_beta 90.000000
_cell_angle_gamma 90.000000
_cell_volume 7959.737504
_symmetry_space_group_name_H-M "C M C M"
_symmetry_group_IT_number 63
_symmetry_cell_setting 'orthorhombic'
loop_
_space_group_symop_operation_xyz
x,y,z
-x,-y,1/2+z
x,-y,-z
-x,y,1/2-z
-x,-y,-z
x,y,1/2-z
-x,y,z
x,-y,1/2+z
1/2+x,1/2+y,z
1/2-x,1/2-y,1/2+z
1/2+x,1/2-y,-z
1/2-x,1/2+y,1/2-z
1/2-x,1/2-y,-z
1/2+x,1/2+y,1/2-z
1/2-x,1/2+y,z
1/2+x,1/2-y,1/2+z
loop_
_atom_site_type_symbol
_atom_site_label
_atom_site_fract_x
_atom_site_fract_y
_atom_site_fract_z
Si Si1 0.839769 0.614412 0.067326
Si Si2 0.781899 0.275869 0.833011
Si Si3 0.626133 0.866434 0.402090
Si Si4 0.273861 0.481693 0.921405
Si Si5 0.753903 0.620829 0.667151
Si Si6 0.831317 0.136411 0.332712
Si Si7 0.435720 0.990595 0.585448
Si Si8 0.066276 0.237387 0.333507
O O1 0.826572 0.685249 0.113304
O O2 0.788227 0.556855 0.072370
O O3 0.896387 0.578247 0.103300
O O4 0.850908 0.635834 0.984461
O O5 0.799572 0.292423 0.750000
O O6 0.784440 0.191393 0.849172
O O7 0.716938 0.303427 0.848427
O O8 0.679794 0.859517 0.348231
O O9 0.582332 0.801603 0.387467
O O10 0.592413 0.938588 0.381170
O O11 0.268320 0.556170 0.880571
O O12 0.321003 0.432539 0.882190
O O13 0.298745 0.500000 0.000000
O O14 0.747941 0.597677 0.750000
O O15 0.828043 0.110450 0.250000
O O16 0.893977 0.168920 0.351672
O O17 0.500000 0.978673 0.618168
O O18 0.438984 0.000000 0.500000
O O19 0.076092 0.261151 0.250000
O O20 0.000000 0.215009 0.347734
#
# Coordination Sequence:
#
# PCOD8257201 Si02
#       8
#    16  16  16  16  16  16  16  16
#     4  10  19  32  49  71  99 133 166 203 242 286
#     4   9  19  33  49  71  99 130 165 202 246 295
#     4  11  18  30  47  73 103 129 161 199 237 289
#     4  11  19  32  48  73 100 126 163 201 242 293
#     4  11  20  31  48  69  98 133 159 194 245 296
#     4   9  18  32  49  71  98 129 161 198 244 293
#     4   9  17  30  46  66  96 132 165 195 230 276
#     4  10  20  34  51  72  99 130 164 201 242 291
#
# _framework density 16.080932000000001
#
# number of rings (size 3 to 8) (size 9 to 14) (size 15 to 20)
#    0.000    2.000    3.750    1.500    0.000    2.500 
#    0.000    0.000    0.000    2.250    0.000    0.875 
#    0.000    1.000    0.000    0.000    0.000    0.000 
#
# Total GULP energy -793643.539743 kJ/mol
# GULP energy per Si atom -12400.680308 kJ/mol
# Density = 1.604433 g / cm^3
# Si number density = 16.080932 Si / 1000 Ang^3
#
#
#
# Elastic Constant Matrix: (Units=GPa)
#
#
# Indices 1 2 3 4 5 6 
#
# 1 95.9167 55.3210 41.3503 0.0000 0.0000 0.0000
# 2 55.3210 100.3967 61.3218 0.0000 0.0000 0.0000
# 3 41.3503 61.3218 81.9767 0.0000 0.0000 0.0000
# 4 0.0000 0.0000 0.0000 31.6607 0.0000 0.0000
# 5 0.0000 0.0000 0.0000 0.0000 13.9826 0.0000
# 6 0.0000 0.0000 0.0000 0.0000 0.0000 26.4893
#
#
#
# Elastic Compliance Matrix: (Units=1/GPa)
#
#
# Indices 1 2 3 4 5 6 
#
# 1 0.015589 -0.006973 -0.002647 0.000000 0.000000 0.000000
# 2 -0.006973 0.021459 -0.012535 0.000000 0.000000 0.000000
# 3 -0.002647 -0.012535 0.022911 0.000000 0.000000 0.000000
# 4 0.000000 0.000000 0.000000 0.031585 0.000000 0.000000
# 5 0.000000 0.000000 0.000000 0.000000 0.071517 0.000000
# 6 0.000000 0.000000 0.000000 0.000000 0.000000 0.037751
#
#
# Mechanical properties :
#
#
# Convention : Reuss Voigt Hill
#
# Bulk Modulus (GPa) = 63.90532 66.03072 64.96802
# Shear Modulus (GPa) = 19.97306 22.44632 21.20969
#
# Velocity S-wave (km/s) = 3.52807 3.74014 3.63565
# Velocity P-wave (km/s) = 7.51149 7.73319 7.62314
#
# Compressibility (1/GPa) = 0.01564815
#
# Stress axis : x y z
#
# Youngs Moduli (GPa) = 64.14964 46.60064 43.64807
#
# Poissons Ratio (x) = 0.32494 0.11555
# Poissons Ratio (y) = 0.44730 0.54713
# Poissons Ratio (z) = 0.16982 0.58414
#
# Static dielectric constant tensor:
#      x y z
#    x 3.035070 0.000000 0.000000 
#    y 0.000000 3.042220 0.000000 
#    z 0.000000 0.000000 3.010530 
# 
# 
# High freq. dielectric constant tensor:
#      x y z
#    x 1.596460 0.000000 0.000000 
#    y 0.000000 1.617510 0.000000 
#    z 0.000000 0.000000 1.613010 
# 
# From -- ./inp_files/48446.got.cif
#   From: 2010.03.12/outbox.cif.g09.slc.cpg/sg63_25_cif.got.tgz:48446.got - 2010.04.10 19:34:48.
