data_PCOD8257154
_publ_section_title
;
Structure prediction by ZEFSAII (Michael W. Deem and Ramdas Pophale) SiO2 
 PCOD8257154
Probable space group: C M C M
;
_chemical_formula_sum "Si O2"
_cell_formula_units_Z 104
_cell_length_a 31.495679
_cell_length_b 19.690207
_cell_length_c 9.178700
_cell_angle_alpha 90.000000
_cell_angle_beta 90.000000
_cell_angle_gamma 90.000000
_cell_volume 5692.229908
_symmetry_space_group_name_H-M "C M C M"
_symmetry_group_IT_number 63
_symmetry_cell_setting 'orthorhombic'
loop_
_space_group_symop_operation_xyz
x,y,z
-x,-y,1/2+z
x,-y,-z
-x,y,1/2-z
-x,-y,-z
x,y,1/2-z
-x,y,z
x,-y,1/2+z
1/2+x,1/2+y,z
1/2-x,1/2-y,1/2+z
1/2+x,1/2-y,-z
1/2-x,1/2+y,1/2-z
1/2-x,1/2-y,-z
1/2+x,1/2+y,1/2-z
1/2-x,1/2+y,z
1/2+x,1/2-y,1/2+z
loop_
_atom_site_type_symbol
_atom_site_label
_atom_site_fract_x
_atom_site_fract_y
_atom_site_fract_z
Si Si1 0.500000 0.425879 0.425605
Si Si2 0.776165 0.836257 0.916849
Si Si3 0.153283 0.066077 0.085805
Si Si4 0.399021 0.196465 0.921394
Si Si5 0.687055 0.789023 0.917407
Si Si6 0.048792 0.566344 0.579594
Si Si7 0.573396 0.344510 0.919040
O O1 0.500000 0.500000 0.500000
O O2 0.500000 0.433544 0.250000
O O3 0.459011 0.383853 0.476924
O O4 0.786876 0.814240 0.750000
O O5 0.799353 0.907477 0.952614
O O6 0.725372 0.843825 0.937364
O O7 0.795333 0.782235 0.027222
O O8 0.150537 0.041983 0.250000
O O9 0.120176 0.126088 0.054194
O O10 0.140193 0.000000 0.000000
O O11 0.391349 0.196556 0.750000
O O12 0.427158 0.133421 0.974469
O O13 0.423612 0.265534 0.965947
O O14 0.353511 0.186761 0.994515
O O15 0.673927 0.780923 0.750000
O O16 0.067704 0.500000 0.500000
O O17 0.054798 0.555095 0.750000
O O18 0.000000 0.576720 0.535946
O O19 0.559083 0.352060 0.750000
#
# Coordination Sequence:
#
# PCOD8257154 Si02
#       7
#     8  16  16  16  16  16  16
#     4  12  26  42  58  80 113 150 189 234 283 334
#     4   9  18  35  53  74 106 145 183 220 271 328
#     4  10  20  35  55  78 107 144 186 230 273 320
#     4  10  20  36  59  84 113 148 184 223 274 336
#     4  10  19  31  54  82 109 139 177 228 274 319
#     4   9  19  36  59  84 109 143 182 221 270 331
#     4  10  21  38  60  82 108 147 189 231 277 330
#
# _framework density 18.270520999999999
#
# number of rings (size 3 to 8) (size 9 to 14) (size 15 to 20)
#    0.000    2.154    1.538    1.615    1.077    4.308 
#    0.000    0.769    0.000    3.692    0.000    0.000 
#    0.000    0.000    0.000    0.000    0.000    0.000 
#
# Total GULP energy -644727.398392 kJ/mol
# GULP energy per Si atom -12398.603815 kJ/mol
# Density = 1.822894 g / cm^3
# Si number density = 18.270521 Si / 1000 Ang^3
#
#
#
# Elastic Constant Matrix: (Units=GPa)
#
#
# Indices 1 2 3 4 5 6 
#
# 1 101.9458 60.7131 47.8125 0.0000 0.0000 0.0000
# 2 60.7131 139.8646 50.9543 0.0000 0.0000 0.0000
# 3 47.8125 50.9543 66.0925 0.0000 0.0000 0.0000
# 4 0.0000 0.0000 0.0000 28.1529 0.0000 0.0000
# 5 0.0000 0.0000 0.0000 0.0000 32.7330 0.0000
# 6 0.0000 0.0000 0.0000 0.0000 0.0000 14.0194
#
#
#
# Elastic Compliance Matrix: (Units=1/GPa)
#
#
# Indices 1 2 3 4 5 6 
#
# 1 0.016207 -0.003843 -0.008761 0.000000 0.000000 0.000000
# 2 -0.003843 0.010854 -0.005587 0.000000 0.000000 0.000000
# 3 -0.008761 -0.005587 0.025776 0.000000 0.000000 0.000000
# 4 0.000000 0.000000 0.000000 0.035520 0.000000 0.000000
# 5 0.000000 0.000000 0.000000 0.000000 0.030550 0.000000
# 6 0.000000 0.000000 0.000000 0.000000 0.000000 0.071330
#
#
# Mechanical properties :
#
#
# Convention : Reuss Voigt Hill
#
# Bulk Modulus (GPa) = 60.78082 69.65142 65.21612
# Shear Modulus (GPa) = 21.54191 24.87592 23.20891
#
# Velocity S-wave (km/s) = 3.43746 3.69390 3.56798
# Velocity P-wave (km/s) = 7.00673 7.50988 7.26266
#
# Compressibility (1/GPa) = 0.01645256
#
# Stress axis : x y z
#
# Youngs Moduli (GPa) = 61.70113 92.13503 38.79570
#
# Poissons Ratio (x) = 0.35411 0.33991
# Poissons Ratio (y) = 0.23714 0.21676
# Poissons Ratio (z) = 0.54059 0.51478
#
# Static dielectric constant tensor:
#      x y z
#    x 3.559530 0.000000 0.000000 
#    y 0.000000 3.354770 0.000000 
#    z 0.000000 0.000000 3.374650 
# 
# 
# High freq. dielectric constant tensor:
#      x y z
#    x 1.713580 0.000000 0.000000 
#    y 0.000000 1.697730 0.000000 
#    z 0.000000 0.000000 1.705120 
# 
# From -- ./inp_files/14484.got.cif
#   From: 2010.03.12/outbox.cif.g09.slc.cpg/sg63_8_cif.got.tgz:14484.got - 2010.04.10 19:34:48.
