data_PCOD8257308
_publ_section_title
;
Structure prediction by ZEFSAII (Michael W. Deem and Ramdas Pophale) SiO2 
 PCOD8257308
Probable space group: C M C M
;
_chemical_formula_sum "Si O2"
_cell_formula_units_Z 80
_cell_length_a 25.761652
_cell_length_b 9.668891
_cell_length_c 17.364309
_cell_angle_alpha 90.000000
_cell_angle_beta 90.000000
_cell_angle_gamma 90.000000
_cell_volume 4325.216780
_symmetry_space_group_name_H-M "C M C M"
_symmetry_group_IT_number 63
_symmetry_cell_setting 'orthorhombic'
loop_
_space_group_symop_operation_xyz
x,y,z
-x,-y,1/2+z
x,-y,-z
-x,y,1/2-z
-x,-y,-z
x,y,1/2-z
-x,y,z
x,-y,1/2+z
1/2+x,1/2+y,z
1/2-x,1/2-y,1/2+z
1/2+x,1/2-y,-z
1/2-x,1/2+y,1/2-z
1/2-x,1/2-y,-z
1/2+x,1/2+y,1/2-z
1/2-x,1/2+y,z
1/2+x,1/2-y,1/2+z
loop_
_atom_site_type_symbol
_atom_site_label
_atom_site_fract_x
_atom_site_fract_y
_atom_site_fract_z
Si Si1 0.706054 0.488978 0.658082
Si Si2 0.704884 0.795728 0.658957
Si Si3 0.500000 0.014443 0.090337
Si Si4 0.087913 0.701065 0.340668
Si Si5 0.500000 0.290739 0.841788
Si Si6 0.908709 0.984779 0.841364
O O1 0.708269 0.487889 0.750000
O O2 0.715199 0.642968 0.626249
O O3 0.751468 0.394862 0.621828
O O4 0.648849 0.438762 0.630760
O O5 0.711462 0.793730 0.750000
O O6 0.646698 0.844832 0.638705
O O7 0.500000 0.863546 0.127483
O O8 0.449070 0.096974 0.115027
O O9 0.500000 0.000000 0.000000
O O10 0.076983 0.688230 0.250000
O O11 0.078071 0.858923 0.368950
O O12 0.500000 0.285837 0.750000
O O13 0.449821 0.373972 0.873647
O O14 0.910372 0.987081 0.750000
#
# Coordination Sequence:
#
# PCOD8257308 Si02
#       6
#    16  16   8  16   8  16
#     4   8  13  22  37  67 104 128 147 183 231 276
#     4   8  14  23  40  66  95 123 152 185 229 278
#     4  12  25  36  46  68  98 126 157 202 250 290
#     4   9  17  33  53  70  92 129 164 191 233 293
#     4  10  19  32  51  76  97 120 159 204 240 274
#     4   8  15  28  49  74 100 127 160 198 235 277
#
# _framework density 18.496182999999998
#
# number of rings (size 3 to 8) (size 9 to 14) (size 15 to 20)
#    0.000    3.200    0.000    3.900    0.000    3.200 
#    0.000    8.000    0.000    0.000    0.000   12.600 
#    0.000    0.000    0.000    0.000    0.000    0.000 
#
# Total GULP energy -495695.818526 kJ/mol
# GULP energy per Si atom -12392.395463 kJ/mol
# Density = 1.845408 g / cm^3
# Si number density = 18.496183 Si / 1000 Ang^3
#
#
#
# Elastic Constant Matrix: (Units=GPa)
#
#
# Indices 1 2 3 4 5 6 
#
# 1 174.4735 102.3604 19.4021 0.0000 0.0000 0.0000
# 2 102.3604 127.1456 15.6970 0.0000 0.0000 0.0000
# 3 19.4021 15.6970 20.0304 0.0000 0.0000 0.0000
# 4 0.0000 0.0000 0.0000 1.2749 0.0000 0.0000
# 5 0.0000 0.0000 0.0000 0.0000 3.1441 0.0000
# 6 0.0000 0.0000 0.0000 0.0000 0.0000 42.6444
#
#
#
# Elastic Compliance Matrix: (Units=1/GPa)
#
#
# Indices 1 2 3 4 5 6 
#
# 1 0.011169 -0.008476 -0.004176 0.000000 0.000000 0.000000
# 2 -0.008476 0.015140 -0.003654 0.000000 0.000000 0.000000
# 3 -0.004176 -0.003654 0.056833 0.000000 0.000000 0.000000
# 4 0.000000 0.000000 0.000000 0.784390 0.000000 0.000000
# 5 0.000000 0.000000 0.000000 0.000000 0.318053 0.000000
# 6 0.000000 0.000000 0.000000 0.000000 0.000000 0.023450
#
#
# Mechanical properties :
#
#
# Convention : Reuss Voigt Hill
#
# Bulk Modulus (GPa) = 19.79072 66.28537 43.03805
# Shear Modulus (GPa) = 3.97302 21.69202 12.83252
#
# Velocity S-wave (km/s) = 1.46720 3.42831 2.63685
# Velocity P-wave (km/s) = 3.68692 7.18235 5.70875
#
# Compressibility (1/GPa) = 0.05052874
#
# Stress axis : x y z
#
# Youngs Moduli (GPa) = 89.53720 66.05130 17.59539
#
# Poissons Ratio (x) = 0.55984 0.07348
# Poissons Ratio (y) = 0.75890 0.06430
# Poissons Ratio (z) = 0.37391 0.24138
#
# Static dielectric constant tensor:
#      x y z
#    x 3.884340 0.000000 0.000000 
#    y 0.000000 3.734210 0.000000 
#    z 0.000000 0.000000 2.658780 
# 
# 
# High freq. dielectric constant tensor:
#      x y z
#    x 1.736930 0.000000 0.000000 
#    y 0.000000 1.720070 0.000000 
#    z 0.000000 0.000000 1.642360 
# 
# From -- ./inp_files/48852.got.cif
#   From: 2010.03.12/outbox.cif.g09.slc.cpg/sg63_25_cif.got.tgz:48852.got - 2010.04.10 19:34:48.
