data_PCOD8257958
_publ_section_title
;
Structure prediction by ZEFSAII (Michael W. Deem and Ramdas Pophale) SiO2 
 PCOD8257958
Probable space group: C M C M
;
_chemical_formula_sum "Si O2"
_cell_formula_units_Z 80
_cell_length_a 8.828338
_cell_length_b 20.783090
_cell_length_c 24.761152
_cell_angle_alpha 90.000000
_cell_angle_beta 90.000000
_cell_angle_gamma 90.000000
_cell_volume 4543.179715
_symmetry_space_group_name_H-M "C M C M"
_symmetry_group_IT_number 63
_symmetry_cell_setting 'orthorhombic'
loop_
_space_group_symop_operation_xyz
x,y,z
-x,-y,1/2+z
x,-y,-z
-x,y,1/2-z
-x,-y,-z
x,y,1/2-z
-x,y,z
x,-y,1/2+z
1/2+x,1/2+y,z
1/2-x,1/2-y,1/2+z
1/2+x,1/2-y,-z
1/2-x,1/2+y,1/2-z
1/2-x,1/2-y,-z
1/2+x,1/2+y,1/2-z
1/2-x,1/2+y,z
1/2+x,1/2-y,1/2+z
loop_
_atom_site_type_symbol
_atom_site_label
_atom_site_fract_x
_atom_site_fract_y
_atom_site_fract_z
Si Si1 0.834005 0.357317 0.750000
Si Si2 0.831075 0.489606 0.250000
Si Si3 0.320922 0.506406 0.859893
Si Si4 0.322392 0.186768 0.023744
Si Si5 0.178221 0.440714 0.038101
Si Si6 0.318879 0.131706 0.135275
O O1 0.841996 0.433980 0.750000
O O2 0.755854 0.338098 0.807404
O O3 0.000000 0.325844 0.750000
O O4 0.742134 0.466532 0.303204
O O5 0.000000 0.459673 0.250000
O O6 0.500000 0.501660 0.856123
O O7 0.270236 0.555945 0.906163
O O8 0.253696 0.437268 0.875671
O O9 0.500000 0.194063 0.019111
O O10 0.273988 0.178999 0.086569
O O11 0.250000 0.250000 0.000000
O O12 0.268080 0.124602 0.990725
O O13 0.000000 0.441284 0.050524
O O14 0.223352 0.500000 0.000000
O O15 0.500000 0.121213 0.138795
#
# Coordination Sequence:
#
# PCOD8257958 Si02
#       6
#     8   8  16  16  16  16
#     4   7  12  23  47  72  91 120 167 209 243 293
#     4   9  17  31  49  70 103 144 175 205 257 325
#     4  11  20  29  48  80 110 132 168 226 273 304
#     4  10  21  35  53  74 103 139 178 222 264 314
#     4  10  19  35  55  73 100 141 184 214 252 319
#     4   9  16  31  50  72 100 137 174 209 256 322
#
# _framework density 17.608813000000001
#
# number of rings (size 3 to 8) (size 9 to 14) (size 15 to 20)
#    0.000    2.400    2.000    3.300    0.000    2.000 
#    0.000    0.000    0.000    1.200    0.000    4.200 
#    0.000    0.000    0.000    0.000    0.000    0.000 
#
# Total GULP energy -495745.531989 kJ/mol
# GULP energy per Si atom -12393.638300 kJ/mol
# Density = 1.756873 g / cm^3
# Si number density = 17.608813 Si / 1000 Ang^3
#
#
#
# Elastic Constant Matrix: (Units=GPa)
#
#
# Indices 1 2 3 4 5 6 
#
# 1 62.4949 24.9101 51.2059 0.0000 0.0000 0.0000
# 2 24.9101 90.6401 68.1817 0.0000 0.0000 0.0000
# 3 51.2059 68.1817 196.2882 0.0000 0.0000 0.0000
# 4 0.0000 0.0000 0.0000 19.1866 0.0000 0.0000
# 5 0.0000 0.0000 0.0000 0.0000 22.7922 0.0000
# 6 0.0000 0.0000 0.0000 0.0000 0.0000 22.5159
#
#
#
# Elastic Compliance Matrix: (Units=1/GPa)
#
#
# Indices 1 2 3 4 5 6 
#
# 1 0.020670 -0.002199 -0.004628 0.000000 0.000000 0.000000
# 2 -0.002199 0.015169 -0.004695 0.000000 0.000000 0.000000
# 3 -0.004628 -0.004695 0.007933 0.000000 0.000000 0.000000
# 4 0.000000 0.000000 0.000000 0.052120 0.000000 0.000000
# 5 0.000000 0.000000 0.000000 0.000000 0.043875 0.000000
# 6 0.000000 0.000000 0.000000 0.000000 0.000000 0.044413
#
#
# Mechanical properties :
#
#
# Convention : Reuss Voigt Hill
#
# Bulk Modulus (GPa) = 48.24760 70.89095 59.56927
# Shear Modulus (GPa) = 23.34991 26.57400 24.96196
#
# Velocity S-wave (km/s) = 3.64543 3.88897 3.76917
# Velocity P-wave (km/s) = 6.72146 7.77892 7.26944
#
# Compressibility (1/GPa) = 0.02072642
#
# Stress axis : x y z
#
# Youngs Moduli (GPa) = 48.37894 65.92417 126.05716
#
# Poissons Ratio (x) = 0.14497 0.58344
# Poissons Ratio (y) = 0.10639 0.59188
# Poissons Ratio (z) = 0.22392 0.30954
#
# Static dielectric constant tensor:
#      x y z
#    x 3.100040 0.000000 0.000000 
#    y 0.000000 2.640350 0.000000 
#    z 0.000000 0.000000 3.861830 
# 
# 
# High freq. dielectric constant tensor:
#      x y z
#    x 1.664670 0.000000 0.000000 
#    y 0.000000 1.625270 0.000000 
#    z 0.000000 0.000000 1.710420 
# 
# From -- ./inp_files/66652.got.cif
#   From: 2010.03.12/outbox.cif.g09.slc.cpg/sg63_34_cif.got.tgz:66652.got - 2010.04.10 19:34:48.
