data_PCOD8257721
_publ_section_title
;
Structure prediction by ZEFSAII (Michael W. Deem and Ramdas Pophale) SiO2 
 PCOD8257721
Probable space group: C M C M
;
_chemical_formula_sum "Si O2"
_cell_formula_units_Z 96
_cell_length_a 8.725839
_cell_length_b 23.436623
_cell_length_c 25.243964
_cell_angle_alpha 90.000000
_cell_angle_beta 90.000000
_cell_angle_gamma 90.000000
_cell_volume 5162.496637
_symmetry_space_group_name_H-M "C M C M"
_symmetry_group_IT_number 63
_symmetry_cell_setting 'orthorhombic'
loop_
_space_group_symop_operation_xyz
x,y,z
-x,-y,1/2+z
x,-y,-z
-x,y,1/2-z
-x,-y,-z
x,y,1/2-z
-x,y,z
x,-y,1/2+z
1/2+x,1/2+y,z
1/2-x,1/2-y,1/2+z
1/2+x,1/2-y,-z
1/2-x,1/2+y,1/2-z
1/2-x,1/2-y,-z
1/2+x,1/2+y,1/2-z
1/2-x,1/2+y,z
1/2+x,1/2-y,1/2+z
loop_
_atom_site_type_symbol
_atom_site_label
_atom_site_fract_x
_atom_site_fract_y
_atom_site_fract_z
Si Si1 0.817697 0.439513 0.691470
Si Si2 0.321853 0.364219 0.098644
Si Si3 0.676002 0.067928 0.688588
Si Si4 0.822287 0.434389 0.007756
Si Si5 0.819840 0.362881 0.903984
Si Si6 0.320005 0.249388 0.558170
O O1 0.758632 0.421145 0.750000
O O2 0.762639 0.503678 0.678248
O O3 0.754920 0.395472 0.647816
O O4 0.000000 0.440153 0.690912
O O5 0.500000 0.349358 0.095742
O O6 0.280476 0.388329 0.156260
O O7 0.280965 0.411330 0.055022
O O8 0.226563 0.307068 0.089258
O O9 0.691498 0.083945 0.750000
O O10 0.500000 0.073361 0.669754
O O11 0.000000 0.426361 0.022830
O O12 0.780495 0.500000 0.000000
O O13 0.780101 0.400842 0.954696
O O14 0.734799 0.302900 0.907435
O O15 0.000000 0.351652 0.899394
O O16 0.500000 0.251254 0.551231
O O17 0.250000 0.250000 0.500000
#
# Coordination Sequence:
#
# PCOD8257721 Si02
#       6
#    16  16  16  16  16  16
#     4   8  15  31  58  89 117 148 187 227 273 334
#     4  12  24  37  56  83 115 150 190 236 286 340
#     4   9  18  36  62  88 115 151 192 232 278 335
#     4  10  20  34  55  82 113 149 187 230 282 343
#     4  10  19  33  56  84 114 148 187 232 281 336
#     4  12  24  40  59  79 108 149 194 239 289 344
#
# _framework density 18.595654
#
# number of rings (size 3 to 8) (size 9 to 14) (size 15 to 20)
#    0.000    1.833    1.667    5.000    0.000    3.333 
#    0.000    3.333    0.000    4.500    0.000    0.000 
#    0.000    0.000    0.000    0.000    0.000    0.000 
#
# Total GULP energy -595335.835854 kJ/mol
# GULP energy per Si atom -12402.829914 kJ/mol
# Density = 1.855333 g / cm^3
# Si number density = 18.595654 Si / 1000 Ang^3
#
#
#
# Elastic Constant Matrix: (Units=GPa)
#
#
# Indices 1 2 3 4 5 6 
#
# 1 58.4594 23.8724 30.9391 0.0000 0.0000 0.0000
# 2 23.8724 122.4066 58.6904 0.0000 0.0000 0.0000
# 3 30.9391 58.6904 111.1838 0.0000 0.0000 0.0000
# 4 0.0000 0.0000 0.0000 28.2649 0.0000 0.0000
# 5 0.0000 0.0000 0.0000 0.0000 -32.9475 0.0000
# 6 0.0000 0.0000 0.0000 0.0000 0.0000 23.5353
#
#
#
# Elastic Compliance Matrix: (Units=1/GPa)
#
#
# Indices 1 2 3 4 5 6 
#
# 1 0.020314 -0.001675 -0.004768 0.000000 0.000000 0.000000
# 2 -0.001675 0.011076 -0.005380 0.000000 0.000000 0.000000
# 3 -0.004768 -0.005380 0.013161 0.000000 0.000000 0.000000
# 4 0.000000 0.000000 0.000000 0.035380 0.000000 0.000000
# 5 0.000000 0.000000 0.000000 0.000000 -0.030351 0.000000
# 6 0.000000 0.000000 0.000000 0.000000 0.000000 0.042489
#
#
# Mechanical properties :
#
#
# Convention : Reuss Voigt Hill
#
# Bulk Modulus (GPa) = 47.84118 57.67261 52.75690
# Shear Modulus (GPa) = 40.75504 15.67373 28.21439
#
# Velocity S-wave (km/s) = 4.68658 2.90637 3.89942
# Velocity P-wave (km/s) = 7.42080 6.50723 6.97898
#
# Compressibility (1/GPa) = 0.02090249
#
# Stress axis : x y z
#
# Youngs Moduli (GPa) = 49.22811 90.28514 75.98123
#
# Poissons Ratio (x) = 0.15127 0.36230
# Poissons Ratio (y) = 0.08248 0.40881
# Poissons Ratio (z) = 0.23473 0.48578
#
# Static dielectric constant tensor:
#      x y z
#    x 3.241500 0.000000 0.000000 
#    y 0.000000 3.568670 0.000000 
#    z 0.000000 0.000000 3.603850 
# 
# 
# High freq. dielectric constant tensor:
#      x y z
#    x 1.700040 0.000000 0.000000 
#    y 0.000000 1.726660 0.000000 
#    z 0.000000 0.000000 1.725390 
# 
# From -- ./inp_files/66980.got.cif
#   From: 2010.03.12/outbox.cif.g09.slc.cpg/sg63_34_cif.got.tgz:66980.got - 2010.04.10 19:34:48.
