data_PCOD8257315
_publ_section_title
;
Structure prediction by ZEFSAII (Michael W. Deem and Ramdas Pophale) SiO2 
 PCOD8257315
Probable space group: C M C M
;
_chemical_formula_sum "Si O2"
_cell_formula_units_Z 64
_cell_length_a 10.111489
_cell_length_b 17.475585
_cell_length_c 19.427552
_cell_angle_alpha 90.000000
_cell_angle_beta 90.000000
_cell_angle_gamma 90.000000
_cell_volume 3432.929752
_symmetry_space_group_name_H-M "C M C M"
_symmetry_group_IT_number 63
_symmetry_cell_setting 'orthorhombic'
loop_
_space_group_symop_operation_xyz
x,y,z
-x,-y,1/2+z
x,-y,-z
-x,y,1/2-z
-x,-y,-z
x,y,1/2-z
-x,y,z
x,-y,1/2+z
1/2+x,1/2+y,z
1/2-x,1/2-y,1/2+z
1/2+x,1/2-y,-z
1/2-x,1/2+y,1/2-z
1/2-x,1/2-y,-z
1/2+x,1/2+y,1/2-z
1/2-x,1/2+y,z
1/2+x,1/2-y,1/2+z
loop_
_atom_site_type_symbol
_atom_site_label
_atom_site_fract_x
_atom_site_fract_y
_atom_site_fract_z
Si Si1 0.285966 0.980297 0.326965
Si Si2 0.500000 0.447031 0.174801
Si Si3 0.000000 0.137033 0.959057
Si Si4 0.000000 0.685420 0.035446
Si Si5 0.784826 0.418160 0.469565
Si Si6 0.000000 0.606753 0.172960
O O1 0.318356 0.947133 0.250000
O O2 0.129732 0.000700 0.334004
O O3 0.316263 0.918602 0.387134
O O4 0.368952 0.056573 0.339529
O O5 0.500000 0.408470 0.250000
O O6 0.500000 0.375228 0.123222
O O7 0.000000 0.225228 0.979556
O O8 0.131652 0.097027 0.988935
O O9 0.000000 0.674497 0.117920
O O10 0.130136 0.649044 0.002371
O O11 0.827488 0.500000 0.500000
O O12 0.000000 0.641358 0.250000
#
# Coordination Sequence:
#
# PCOD8257315 Si02
#       6
#    16   8   8   8  16   8
#     4   9  17  31  52  80 103 131 176 225 259 298
#     4   8  16  32  53  74 101 137 179 219 258 309
#     4  10  23  35  52  79 113 142 172 219 271 317
#     4  12  22  36  52  80 113 142 172 219 273 312
#     4  11  20  36  58  80 105 140 184 218 259 315
#     4  10  19  32  51  78 106 136 173 218 264 310
#
# _framework density 18.642968
#
# number of rings (size 3 to 8) (size 9 to 14) (size 15 to 20)
#    0.000    2.000    2.500    2.250    0.000    0.500 
#    0.000    0.000    0.000    0.000    0.000    3.500 
#    0.000    0.000    0.000    0.000    0.000    0.000 
#
# Total GULP energy -396554.375539 kJ/mol
# GULP energy per Si atom -12392.324236 kJ/mol
# Density = 1.860054 g / cm^3
# Si number density = 18.642968 Si / 1000 Ang^3
#
#
#
# Elastic Constant Matrix: (Units=GPa)
#
#
# Indices 1 2 3 4 5 6 
#
# 1 86.0038 10.8486 20.4945 0.0000 0.0000 0.0000
# 2 10.8486 64.9836 16.1486 0.0000 0.0000 0.0000
# 3 20.4945 16.1486 96.5017 0.0000 0.0000 0.0000
# 4 0.0000 0.0000 0.0000 16.6554 0.0000 0.0000
# 5 0.0000 0.0000 0.0000 0.0000 25.9659 0.0000
# 6 0.0000 0.0000 0.0000 0.0000 0.0000 22.2850
#
#
#
# Elastic Compliance Matrix: (Units=1/GPa)
#
#
# Indices 1 2 3 4 5 6 
#
# 1 0.012381 -0.001475 -0.002383 0.000000 0.000000 0.000000
# 2 -0.001475 0.016232 -0.002403 0.000000 0.000000 0.000000
# 3 -0.002383 -0.002403 0.011271 0.000000 0.000000 0.000000
# 4 0.000000 0.000000 0.000000 0.060041 0.000000 0.000000
# 5 0.000000 0.000000 0.000000 0.000000 0.038512 0.000000
# 6 0.000000 0.000000 0.000000 0.000000 0.000000 0.044873
#
#
# Mechanical properties :
#
#
# Convention : Reuss Voigt Hill
#
# Bulk Modulus (GPa) = 36.54614 38.05249 37.29931
# Shear Modulus (GPa) = 24.39599 26.31441 25.35520
#
# Velocity S-wave (km/s) = 3.62137 3.76106 3.69187
# Velocity P-wave (km/s) = 6.09356 6.27027 6.18254
#
# Compressibility (1/GPa) = 0.02736267
#
# Stress axis : x y z
#
# Youngs Moduli (GPa) = 80.76747 61.60714 88.72609
#
# Poissons Ratio (x) = 0.09086 0.21140
# Poissons Ratio (y) = 0.11912 0.21321
# Poissons Ratio (z) = 0.19244 0.14804
#
# Static dielectric constant tensor:
#      x y z
#    x 3.747190 0.000000 0.000000 
#    y 0.000000 2.849130 0.000000 
#    z 0.000000 0.000000 3.800010 
# 
# 
# High freq. dielectric constant tensor:
#      x y z
#    x 1.746270 0.000000 0.000000 
#    y 0.000000 1.662060 0.000000 
#    z 0.000000 0.000000 1.742320 
# 
# From -- ./inp_files/41568.got.cif
#   From: 2010.03.12/outbox.cif.g09.slc.cpg/sg63_21_cif.got.tgz:41568.got - 2010.04.10 19:34:48.
