data_PCOD8257984
_publ_section_title
;
Structure prediction by ZEFSAII (Michael W. Deem and Ramdas Pophale) SiO2 
 PCOD8257984
Probable space group: C M C M
;
_chemical_formula_sum "Si O2"
_cell_formula_units_Z 80
_cell_length_a 11.402365
_cell_length_b 21.885142
_cell_length_c 17.149614
_cell_angle_alpha 90.000000
_cell_angle_beta 90.000000
_cell_angle_gamma 90.000000
_cell_volume 4279.555445
_symmetry_space_group_name_H-M "C M C M"
_symmetry_group_IT_number 63
_symmetry_cell_setting 'orthorhombic'
loop_
_space_group_symop_operation_xyz
x,y,z
-x,-y,1/2+z
x,-y,-z
-x,y,1/2-z
-x,-y,-z
x,y,1/2-z
-x,y,z
x,-y,1/2+z
1/2+x,1/2+y,z
1/2-x,1/2-y,1/2+z
1/2+x,1/2-y,-z
1/2-x,1/2+y,1/2-z
1/2-x,1/2-y,-z
1/2+x,1/2+y,1/2-z
1/2-x,1/2+y,z
1/2+x,1/2-y,1/2+z
loop_
_atom_site_type_symbol
_atom_site_label
_atom_site_fract_x
_atom_site_fract_y
_atom_site_fract_z
Si Si1 0.288975 0.832362 0.065978
Si Si2 0.500000 0.886231 0.342396
Si Si3 0.000000 0.475675 0.657504
Si Si4 0.134813 0.070091 0.482003
Si Si5 0.365396 0.779356 0.595373
Si Si6 0.277851 0.100179 0.339232
O O1 0.383921 0.852532 0.128931
O O2 0.205389 0.783117 0.107199
O O3 0.212291 0.890207 0.040596
O O4 0.355754 0.803010 0.992951
O O5 0.500000 0.885693 0.250000
O O6 0.500000 0.955564 0.375108
O O7 0.114733 0.440308 0.627169
O O8 0.000000 0.474086 0.750000
O O9 0.165604 0.084891 0.392112
O O10 0.000000 0.087657 0.495258
O O11 0.159769 0.000000 0.500000
O O12 0.500000 0.766906 0.616342
O O13 0.312210 0.828802 0.654796
O O14 0.246766 0.084236 0.250000
#
# Coordination Sequence:
#
# PCOD8257984 Si02
#       6
#    16   8   8  16  16  16
#     4  10  21  36  56  81 115 150 191 235 285 344
#     4  11  22  37  57  85 116 147 185 240 298 343
#     4   9  18  33  55  81 113 143 179 232 292 345
#     4  10  21  37  58  84 114 154 201 240 283 350
#     4  10  19  35  57  79 110 153 193 229 282 346
#     4  10  20  35  57  87 116 148 192 246 300 341
#
# _framework density 18.693531
#
# number of rings (size 3 to 8) (size 9 to 14) (size 15 to 20)
#    0.000    2.000    2.000    1.800    0.000    1.200 
#    1.800    3.000    0.000    3.000    0.000    0.000 
#    0.000    0.000    0.000    0.000    0.000    0.000 
#
# Total GULP energy -496160.153377 kJ/mol
# GULP energy per Si atom -12404.003834 kJ/mol
# Density = 1.865098 g / cm^3
# Si number density = 18.693531 Si / 1000 Ang^3
#
#
#
# Elastic Constant Matrix: (Units=GPa)
#
#
# Indices 1 2 3 4 5 6 
#
# 1 118.5194 69.1941 40.3080 0.0000 0.0000 0.0000
# 2 69.1941 130.3755 35.3677 0.0000 0.0000 0.0000
# 3 40.3080 35.3677 69.1300 0.0000 0.0000 0.0000
# 4 0.0000 0.0000 0.0000 23.6456 0.0000 0.0000
# 5 0.0000 0.0000 0.0000 0.0000 20.5746 0.0000
# 6 0.0000 0.0000 0.0000 0.0000 0.0000 26.2064
#
#
#
# Elastic Compliance Matrix: (Units=1/GPa)
#
#
# Indices 1 2 3 4 5 6 
#
# 1 0.013513 -0.005845 -0.004888 0.000000 0.000000 0.000000
# 2 -0.005845 0.011435 -0.002442 0.000000 0.000000 0.000000
# 3 -0.004888 -0.002442 0.018565 0.000000 0.000000 0.000000
# 4 0.000000 0.000000 0.000000 0.042291 0.000000 0.000000
# 5 0.000000 0.000000 0.000000 0.000000 0.048604 0.000000
# 6 0.000000 0.000000 0.000000 0.000000 0.000000 0.038159
#
#
# Mechanical properties :
#
#
# Convention : Reuss Voigt Hill
#
# Bulk Modulus (GPa) = 58.27057 67.52940 62.89998
# Shear Modulus (GPa) = 24.43341 25.62899 25.03120
#
# Velocity S-wave (km/s) = 3.61924 3.70673 3.66325
# Velocity P-wave (km/s) = 6.97885 7.38395 7.18426
#
# Compressibility (1/GPa) = 0.01716132
#
# Stress axis : x y z
#
# Youngs Moduli (GPa) = 74.00480 87.45120 53.86471
#
# Poissons Ratio (x) = 0.51119 0.26331
# Poissons Ratio (y) = 0.43259 0.13153
# Poissons Ratio (z) = 0.36176 0.21355
#
# Static dielectric constant tensor:
#      x y z
#    x 3.428980 0.000000 0.000000 
#    y 0.000000 3.595670 0.000000 
#    z 0.000000 0.000000 3.147040 
# 
# 
# High freq. dielectric constant tensor:
#      x y z
#    x 1.729830 0.000000 0.000000 
#    y 0.000000 1.738210 0.000000 
#    z 0.000000 0.000000 1.706460 
# 
# From -- ./inp_files/42177.got.cif
#   From: 2010.03.12/outbox.cif.g09.slc.cpg/sg63_22_cif.got.tgz:42177.got - 2010.04.10 19:34:48.
