data_PCOD8257489
_publ_section_title
;
Structure prediction by ZEFSAII (Michael W. Deem and Ramdas Pophale) SiO2 
 PCOD8257489
Probable space group: C M C M
;
_chemical_formula_sum "Si O2"
_cell_formula_units_Z 104
_cell_length_a 22.414964
_cell_length_b 30.097702
_cell_length_c 8.865735
_cell_angle_alpha 90.000000
_cell_angle_beta 90.000000
_cell_angle_gamma 90.000000
_cell_volume 5981.169768
_symmetry_space_group_name_H-M "C M C M"
_symmetry_group_IT_number 63
_symmetry_cell_setting 'orthorhombic'
loop_
_space_group_symop_operation_xyz
x,y,z
-x,-y,1/2+z
x,-y,-z
-x,y,1/2-z
-x,-y,-z
x,y,1/2-z
-x,y,z
x,-y,1/2+z
1/2+x,1/2+y,z
1/2-x,1/2-y,1/2+z
1/2+x,1/2-y,-z
1/2-x,1/2+y,1/2-z
1/2-x,1/2-y,-z
1/2+x,1/2+y,1/2-z
1/2-x,1/2+y,z
1/2+x,1/2-y,1/2+z
loop_
_atom_site_type_symbol
_atom_site_label
_atom_site_fract_x
_atom_site_fract_y
_atom_site_fract_z
Si Si1 0.192850 0.700398 0.083984
Si Si2 0.719284 0.886858 0.072817
Si Si3 0.930284 0.953772 0.426191
Si Si4 0.128148 0.451709 0.927977
Si Si5 0.500000 0.953620 0.578209
Si Si6 0.167713 0.216876 0.084095
Si Si7 0.346202 0.618639 0.429539
O O1 0.168838 0.687214 0.250000
O O2 0.261373 0.713702 0.096017
O O3 0.186872 0.659023 0.971865
O O4 0.152719 0.741855 0.025288
O O5 0.730509 0.887640 0.250000
O O6 0.677148 0.926125 0.021955
O O7 0.781782 0.895087 0.990320
O O8 0.915460 0.955843 0.250000
O O9 0.896568 0.912449 0.500207
O O10 0.000000 0.946359 0.457420
O O11 0.908596 0.000000 0.500000
O O12 0.144037 0.452903 0.750000
O O13 0.062671 0.428358 0.956745
O O14 0.127041 0.500000 0.000000
O O15 0.500000 0.967451 0.750000
O O16 0.500000 0.000000 0.500000
O O17 0.141319 0.226915 0.250000
O O18 0.140853 0.170111 0.023380
O O19 0.345902 0.613790 0.250000
#
# Coordination Sequence:
#
# PCOD8257489 Si02
#       7
#    16  16  16  16   8  16  16
#     4   9  16  27  44  67  96 129 162 197 238 286
#     4  11  21  32  47  71 103 136 167 203 249 298
#     4  10  21  37  56  77 101 131 169 211 254 304
#     4  10  19  33  50  71  97 126 163 202 244 290
#     4   8  16  30  50  70  90 118 154 198 236 274
#     4   8  15  27  44  68  96 125 157 195 239 286
#     4  10  20  34  52  75 102 131 165 205 250 298
#
# _framework density 17.387903000000001
#
# number of rings (size 3 to 8) (size 9 to 14) (size 15 to 20)
#    0.000    2.462    0.000    4.154    0.000    6.462 
#    0.000    3.077    0.000    0.000    2.000    0.000 
#    0.000    0.000    0.000    0.000    0.000    0.000 
#
# Total GULP energy -644380.546036 kJ/mol
# GULP energy per Si atom -12391.933578 kJ/mol
# Density = 1.734833 g / cm^3
# Si number density = 17.387903 Si / 1000 Ang^3
#
#
#
# Elastic Constant Matrix: (Units=GPa)
#
#
# Indices 1 2 3 4 5 6 
#
# 1 57.3729 44.1710 34.9479 0.0000 0.0000 0.0000
# 2 44.1710 103.3182 48.4946 0.0000 0.0000 0.0000
# 3 34.9479 48.4946 102.0282 0.0000 0.0000 0.0000
# 4 0.0000 0.0000 0.0000 32.0919 0.0000 0.0000
# 5 0.0000 0.0000 0.0000 0.0000 21.1013 0.0000
# 6 0.0000 0.0000 0.0000 0.0000 0.0000 14.3343
#
#
#
# Elastic Compliance Matrix: (Units=1/GPa)
#
#
# Indices 1 2 3 4 5 6 
#
# 1 0.027825 -0.009554 -0.004990 0.000000 0.000000 0.000000
# 2 -0.009554 0.015738 -0.004208 0.000000 0.000000 0.000000
# 3 -0.004990 -0.004208 0.013511 0.000000 0.000000 0.000000
# 4 0.000000 0.000000 0.000000 0.031161 0.000000 0.000000
# 5 0.000000 0.000000 0.000000 0.000000 0.047390 0.000000
# 6 0.000000 0.000000 0.000000 0.000000 0.000000 0.069763
#
#
# Mechanical properties :
#
#
# Convention : Reuss Voigt Hill
#
# Bulk Modulus (GPa) = 51.09788 57.54958 54.32373
# Shear Modulus (GPa) = 20.04701 22.51256 21.27978
#
# Velocity S-wave (km/s) = 3.39916 3.60213 3.50212
# Velocity P-wave (km/s) = 6.69751 7.10421 6.90385
#
# Compressibility (1/GPa) = 0.01957028
#
# Stress axis : x y z
#
# Youngs Moduli (GPa) = 35.93941 63.53891 74.01602
#
# Poissons Ratio (x) = 0.60702 0.36934
# Poissons Ratio (y) = 0.34335 0.31147
# Poissons Ratio (z) = 0.17934 0.26738
#
# Static dielectric constant tensor:
#      x y z
#    x 3.145930 0.000000 0.000000 
#    y 0.000000 3.317050 0.000000 
#    z 0.000000 0.000000 3.491560 
# 
# 
# High freq. dielectric constant tensor:
#      x y z
#    x 1.634250 0.000000 0.000000 
#    y 0.000000 1.667760 0.000000 
#    z 0.000000 0.000000 1.688970 
# 
# From -- ./inp_files/9126.got.cif
#   From: 2010.03.12/outbox.cif.g09.slc.cpg/sg63_5_cif.got.tgz:9126.got - 2010.04.10 19:34:48.
