data_PCOD8257651
_publ_section_title
;
Structure prediction by ZEFSAII (Michael W. Deem and Ramdas Pophale) SiO2 
 PCOD8257651
Probable space group: C M C M
;
_chemical_formula_sum "Si O2"
_cell_formula_units_Z 96
_cell_length_a 21.940337
_cell_length_b 9.599982
_cell_length_c 25.131682
_cell_angle_alpha 90.000000
_cell_angle_beta 90.000000
_cell_angle_gamma 90.000000
_cell_volume 5293.406770
_symmetry_space_group_name_H-M "C M C M"
_symmetry_group_IT_number 63
_symmetry_cell_setting 'orthorhombic'
loop_
_space_group_symop_operation_xyz
x,y,z
-x,-y,1/2+z
x,-y,-z
-x,y,1/2-z
-x,-y,-z
x,y,1/2-z
-x,y,z
x,-y,1/2+z
1/2+x,1/2+y,z
1/2-x,1/2-y,1/2+z
1/2+x,1/2-y,-z
1/2-x,1/2+y,1/2-z
1/2-x,1/2-y,-z
1/2+x,1/2+y,1/2-z
1/2-x,1/2+y,z
1/2+x,1/2-y,1/2+z
loop_
_atom_site_type_symbol
_atom_site_label
_atom_site_fract_x
_atom_site_fract_y
_atom_site_fract_z
Si Si1 0.812145 0.560333 0.188430
Si Si2 0.568240 0.158619 0.365064
Si Si3 0.849214 0.820139 0.549044
Si Si4 0.142724 0.129144 0.929097
Si Si5 0.567053 0.924667 0.450166
Si Si6 0.241070 0.294412 0.368169
O O1 0.805557 0.525282 0.250000
O O2 0.879477 0.626384 0.178436
O O3 0.802029 0.413908 0.157282
O O4 0.760713 0.674479 0.173500
O O5 0.500000 0.187670 0.340606
O O6 0.586564 0.287784 0.402961
O O7 0.564322 0.021687 0.399722
O O8 0.837407 0.805939 0.485869
O O9 0.899709 0.713165 0.568230
O O10 0.788588 0.783974 0.581567
O O11 0.876749 0.969955 0.563575
O O12 0.199247 0.129682 0.889406
O O13 0.500000 0.880658 0.469913
O O14 0.600970 0.000000 0.500000
#
# Coordination Sequence:
#
# PCOD8257651 Si02
#       6
#    16  16  16  16  16  16
#     4  11  23  39  62  83 106 146 191 240 290 335
#     4  10  21  38  58  82 114 145 184 235 280 329
#     4  11  20  34  54  83 116 153 187 219 273 341
#     4  10  22  34  53  83 119 153 185 217 276 342
#     4  10  19  33  54  81 112 147 185 225 274 329
#     4  11  21  39  54  83 117 143 184 234 285 333
#
# _framework density 18.135769
#
# number of rings (size 3 to 8) (size 9 to 14) (size 15 to 20)
#    0.000    1.500    5.000    1.000    0.000    1.000 
#    3.000    1.667    0.000    0.000    0.000    0.000 
#    0.000    0.000    0.000    0.000    0.000    0.000 
#
# Total GULP energy -594963.773700 kJ/mol
# GULP energy per Si atom -12395.078619 kJ/mol
# Density = 1.809449 g / cm^3
# Si number density = 18.135769 Si / 1000 Ang^3
#
#
#
# Elastic Constant Matrix: (Units=GPa)
#
#
# Indices 1 2 3 4 5 6 
#
# 1 93.2279 39.6314 24.0889 0.0000 0.0000 0.0000
# 2 39.6314 98.9803 22.2347 0.0000 0.0000 0.0000
# 3 24.0889 22.2347 65.2319 0.0000 0.0000 0.0000
# 4 0.0000 0.0000 0.0000 23.4703 0.0000 0.0000
# 5 0.0000 0.0000 0.0000 0.0000 46.5753 0.0000
# 6 0.0000 0.0000 0.0000 0.0000 0.0000 68.3819
#
#
#
# Elastic Compliance Matrix: (Units=1/GPa)
#
#
# Indices 1 2 3 4 5 6 
#
# 1 0.013600 -0.004675 -0.003429 0.000000 0.000000 0.000000
# 2 -0.004675 0.012548 -0.002551 0.000000 0.000000 0.000000
# 3 -0.003429 -0.002551 0.017465 0.000000 0.000000 0.000000
# 4 0.000000 0.000000 0.000000 0.042607 0.000000 0.000000
# 5 0.000000 0.000000 0.000000 0.000000 0.021471 0.000000
# 6 0.000000 0.000000 0.000000 0.000000 0.000000 0.014624
#
#
# Mechanical properties :
#
#
# Convention : Reuss Voigt Hill
#
# Bulk Modulus (GPa) = 44.83408 47.70556 46.26982
# Shear Modulus (GPa) = 33.09991 39.11783 36.10887
#
# Velocity S-wave (km/s) = 4.27677 4.64933 4.46694
# Velocity P-wave (km/s) = 7.01162 7.42856 7.22310
#
# Compressibility (1/GPa) = 0.02230446
#
# Stress axis : x y z
#
# Youngs Moduli (GPa) = 73.53107 79.69483 57.25596
#
# Poissons Ratio (x) = 0.37258 0.19631
# Poissons Ratio (y) = 0.34376 0.14604
# Poissons Ratio (z) = 0.25211 0.20327
#
# Static dielectric constant tensor:
#      x y z
#    x 3.481180 0.000000 0.000000 
#    y 0.000000 3.415480 0.000000 
#    z 0.000000 0.000000 3.152020 
# 
# 
# High freq. dielectric constant tensor:
#      x y z
#    x 1.695410 0.000000 0.000000 
#    y 0.000000 1.712690 0.000000 
#    z 0.000000 0.000000 1.684520 
# 
# From -- ./inp_files/64932.got.cif
#   From: 2010.03.12/outbox.cif.g09.slc.cpg/sg63_33_cif.got.tgz:64932.got - 2010.04.10 19:34:48.
