data_PCOD8257297
_publ_section_title
;
Structure prediction by ZEFSAII (Michael W. Deem and Ramdas Pophale) SiO2 
 PCOD8257297
Probable space group: C M C M
;
_chemical_formula_sum "Si O2"
_cell_formula_units_Z 88
_cell_length_a 18.195695
_cell_length_b 28.694626
_cell_length_c 9.492034
_cell_angle_alpha 90.000000
_cell_angle_beta 90.000000
_cell_angle_gamma 90.000000
_cell_volume 4955.968100
_symmetry_space_group_name_H-M "C M C M"
_symmetry_group_IT_number 63
_symmetry_cell_setting 'orthorhombic'
loop_
_space_group_symop_operation_xyz
x,y,z
-x,-y,1/2+z
x,-y,-z
-x,y,1/2-z
-x,-y,-z
x,y,1/2-z
-x,y,z
x,-y,1/2+z
1/2+x,1/2+y,z
1/2-x,1/2-y,1/2+z
1/2+x,1/2-y,-z
1/2-x,1/2+y,1/2-z
1/2-x,1/2-y,-z
1/2+x,1/2+y,1/2-z
1/2-x,1/2+y,z
1/2+x,1/2-y,1/2+z
loop_
_atom_site_type_symbol
_atom_site_label
_atom_site_fract_x
_atom_site_fract_y
_atom_site_fract_z
Si Si1 0.307109 0.278881 0.087934
Si Si2 0.500000 0.048230 0.916531
Si Si3 0.917147 0.046455 0.913551
Si Si4 0.082813 0.700865 0.411197
Si Si5 0.297944 0.617447 0.585445
Si Si6 0.132831 0.615263 0.913885
O O1 0.280705 0.280632 0.250000
O O2 0.385009 0.252850 0.072875
O O3 0.310889 0.330825 0.022923
O O4 0.250000 0.250000 0.000000
O O5 0.500000 0.037818 0.750000
O O6 0.572736 0.077089 0.962524
O O7 0.500000 0.000000 0.000000
O O8 0.901062 0.035747 0.750000
O O9 0.859292 0.083264 0.978943
O O10 0.000000 0.065816 0.933509
O O11 0.905135 0.000000 0.000000
O O12 0.087943 0.683879 0.250000
O O13 0.125599 0.663714 0.505075
O O14 0.000000 0.703361 0.465497
O O15 0.312945 0.620547 0.750000
O O16 0.215814 0.597589 0.554509
O O17 0.121507 0.626231 0.750000
#
# Coordination Sequence:
#
# PCOD8257297 Si02
#       6
#    16   8  16  16  16  16
#     4  10  19  32  51  75 104 138 172 209 252 299
#     4  10  22  36  52  74 100 134 174 220 265 310
#     4   9  18  34  55  77 102 134 170 210 261 313
#     4  10  20  32  49  76 106 135 171 213 255 300
#     4   9  18  32  53  78 104 134 171 214 254 305
#     4  10  19  34  54  74  98 135 179 213 253 312
#
# _framework density 17.75637
#
# number of rings (size 3 to 8) (size 9 to 14) (size 15 to 20)
#    0.000    2.364    2.727    0.000    0.000    2.182 
#    0.000    5.455    0.000    0.000    0.000    2.545 
#    0.000    0.000    0.000    0.000    0.000    0.000 
#
# Total GULP energy -545479.998988 kJ/mol
# GULP energy per Si atom -12397.272704 kJ/mol
# Density = 1.771596 g / cm^3
# Si number density = 17.756370 Si / 1000 Ang^3
#
#
#
# Elastic Constant Matrix: (Units=GPa)
#
#
# Indices 1 2 3 4 5 6 
#
# 1 135.5817 76.7735 32.1971 0.0000 0.0000 0.0000
# 2 76.7735 126.3730 34.4970 0.0000 0.0000 0.0000
# 3 32.1971 34.4970 36.7954 0.0000 0.0000 0.0000
# 4 0.0000 0.0000 0.0000 25.6298 0.0000 0.0000
# 5 0.0000 0.0000 0.0000 0.0000 16.7936 0.0000
# 6 0.0000 0.0000 0.0000 0.0000 0.0000 36.3809
#
#
#
# Elastic Compliance Matrix: (Units=1/GPa)
#
#
# Indices 1 2 3 4 5 6 
#
# 1 0.011859 -0.005875 -0.004868 0.000000 0.000000 0.000000
# 2 -0.005875 0.013546 -0.007559 0.000000 0.000000 0.000000
# 3 -0.004868 -0.007559 0.038524 0.000000 0.000000 0.000000
# 4 0.000000 0.000000 0.000000 0.039017 0.000000 0.000000
# 5 0.000000 0.000000 0.000000 0.000000 0.059546 0.000000
# 6 0.000000 0.000000 0.000000 0.000000 0.000000 0.027487
#
#
# Mechanical properties :
#
#
# Convention : Reuss Voigt Hill
#
# Bulk Modulus (GPa) = 36.59838 65.07617 50.83728
# Shear Modulus (GPa) = 21.21422 26.11301 23.66362
#
# Velocity S-wave (km/s) = 3.46025 3.83904 3.65455
# Velocity P-wave (km/s) = 6.05149 7.50866 6.81911
#
# Compressibility (1/GPa) = 0.02732361
#
# Stress axis : x y z
#
# Youngs Moduli (GPa) = 84.32639 73.82376 25.95811
#
# Poissons Ratio (x) = 0.43374 0.12637
# Poissons Ratio (y) = 0.49545 0.19620
# Poissons Ratio (z) = 0.41053 0.55800
#
# Static dielectric constant tensor:
#      x y z
#    x 3.632100 0.000000 0.000000 
#    y 0.000000 3.502330 0.000000 
#    z 0.000000 0.000000 3.080310 
# 
# 
# High freq. dielectric constant tensor:
#      x y z
#    x 1.700010 0.000000 0.000000 
#    y 0.000000 1.682050 0.000000 
#    z 0.000000 0.000000 1.663720 
# 
# From -- ./inp_files/6795.got.cif
#   From: 2010.03.12/outbox.cif.g09.slc.cpg/sg63_4_cif.got.tgz:6795.got - 2010.04.10 19:34:48.
