data_PCOD8257618
_publ_section_title
;
Structure prediction by ZEFSAII (Michael W. Deem and Ramdas Pophale) SiO2 
 PCOD8257618
Probable space group: C M C M
;
_chemical_formula_sum "Si O2"
_cell_formula_units_Z 96
_cell_length_a 8.694572
_cell_length_b 23.191304
_cell_length_c 23.717187
_cell_angle_alpha 90.000000
_cell_angle_beta 90.000000
_cell_angle_gamma 90.000000
_cell_volume 4782.297119
_symmetry_space_group_name_H-M "C M C M"
_symmetry_group_IT_number 63
_symmetry_cell_setting 'orthorhombic'
loop_
_space_group_symop_operation_xyz
x,y,z
-x,-y,1/2+z
x,-y,-z
-x,y,1/2-z
-x,-y,-z
x,y,1/2-z
-x,y,z
x,-y,1/2+z
1/2+x,1/2+y,z
1/2-x,1/2-y,1/2+z
1/2+x,1/2-y,-z
1/2-x,1/2+y,1/2-z
1/2-x,1/2-y,-z
1/2+x,1/2+y,1/2-z
1/2-x,1/2+y,z
1/2+x,1/2-y,1/2+z
loop_
_atom_site_type_symbol
_atom_site_label
_atom_site_fract_x
_atom_site_fract_y
_atom_site_fract_z
Si Si1 0.682786 0.433674 0.314560
Si Si2 0.179092 0.654759 0.310639
Si Si3 0.679222 0.387569 0.970642
Si Si4 0.679969 0.776940 0.584286
Si Si5 0.180333 0.149508 0.590283
Si Si6 0.317913 0.044135 0.124857
O O1 0.747318 0.431097 0.250000
O O2 0.500000 0.435712 0.313048
O O3 0.741678 0.378578 0.351196
O O4 0.740825 0.488311 0.349111
O O5 0.257786 0.665939 0.250000
O O6 0.208974 0.709486 0.349898
O O7 0.247140 0.596916 0.338029
O O8 0.000000 0.643742 0.302982
O O9 0.500000 0.394777 0.958127
O O10 0.729485 0.323055 0.953138
O O11 0.767764 0.439710 0.939157
O O12 0.715942 0.392799 0.037542
O O13 0.500000 0.781945 0.568459
O O14 0.750727 0.712861 0.577187
O O15 0.000000 0.159654 0.596862
O O16 0.500000 0.036646 0.126306
#
# Coordination Sequence:
#
# PCOD8257618 Si02
#       6
#    16  16  16  16  16  16
#     4  10  21  37  56  78 105 138 175 212 254 310
#     4   8  14  25  45  72  97 124 162 209 256 300
#     4  10  19  33  54  78 105 136 173 218 267 314
#     4   9  17  31  51  76 106 138 174 214 259 314
#     4   9  19  34  52  76 107 142 174 209 259 318
#     4  10  20  35  54  76 104 136 175 222 268 313
#
# _framework density 20.074036
#
# number of rings (size 3 to 8) (size 9 to 14) (size 15 to 20)
#    0.000    2.667    0.000    3.000    0.000    2.333 
#    0.000   10.000    0.000    4.500    0.000    0.000 
#    0.000    0.000    0.000    0.000    0.000    0.000 
#
# Total GULP energy -594771.399374 kJ/mol
# GULP energy per Si atom -12391.070820 kJ/mol
# Density = 2.002835 g / cm^3
# Si number density = 20.074036 Si / 1000 Ang^3
#
#
#
# Elastic Constant Matrix: (Units=GPa)
#
#
# Indices 1 2 3 4 5 6 
#
# 1 18.3594 5.6239 17.7354 0.0000 0.0000 0.0000
# 2 5.6239 71.4166 37.7147 0.0000 0.0000 0.0000
# 3 17.7354 37.7147 119.3303 0.0000 0.0000 0.0000
# 4 0.0000 0.0000 0.0000 23.1493 0.0000 0.0000
# 5 0.0000 0.0000 0.0000 0.0000 15.5813 0.0000
# 6 0.0000 0.0000 0.0000 0.0000 0.0000 24.0774
#
#
#
# Elastic Compliance Matrix: (Units=1/GPa)
#
#
# Indices 1 2 3 4 5 6 
#
# 1 0.063599 -0.000020 -0.009446 0.000000 0.000000 0.000000
# 2 -0.000020 0.016808 -0.005309 0.000000 0.000000 0.000000
# 3 -0.009446 -0.005309 0.011462 0.000000 0.000000 0.000000
# 4 0.000000 0.000000 0.000000 0.043198 0.000000 0.000000
# 5 0.000000 0.000000 0.000000 0.000000 0.064180 0.000000
# 6 0.000000 0.000000 0.000000 0.000000 0.000000 0.041533
#
#
# Mechanical properties :
#
#
# Convention : Reuss Voigt Hill
#
# Bulk Modulus (GPa) = 16.04660 36.80605 26.42632
# Shear Modulus (GPa) = 17.17610 22.43042 19.80326
#
# Velocity S-wave (km/s) = 2.92830 3.34636 3.14429
# Velocity P-wave (km/s) = 4.40957 5.77111 5.13566
#
# Compressibility (1/GPa) = 0.06231851
#
# Stress axis : x y z
#
# Youngs Moduli (GPa) = 15.72346 59.49679 87.24479
#
# Poissons Ratio (x) = 0.00118 0.82413
# Poissons Ratio (y) = 0.00031 0.46320
# Poissons Ratio (z) = 0.14853 0.31588
#
# Static dielectric constant tensor:
#      x y z
#    x 3.266020 0.000000 0.000000 
#    y 0.000000 3.657970 0.000000 
#    z 0.000000 0.000000 4.138240 
# 
# 
# High freq. dielectric constant tensor:
#      x y z
#    x 1.743590 0.000000 0.000000 
#    y 0.000000 1.778220 0.000000 
#    z 0.000000 0.000000 1.798270 
# 
# From -- ./inp_files/59943.got.cif
#   From: 2010.03.12/outbox.cif.g09.slc.cpg/sg63_30_cif.got.tgz:59943.got - 2010.04.10 19:34:48.
