data_PCOD8257655
_publ_section_title
;
Structure prediction by ZEFSAII (Michael W. Deem and Ramdas Pophale) SiO2 
 PCOD8257655
Probable space group: C M C M
;
_chemical_formula_sum "Si O2"
_cell_formula_units_Z 112
_cell_length_a 22.005546
_cell_length_b 13.000927
_cell_length_c 19.806797
_cell_angle_alpha 90.000000
_cell_angle_beta 90.000000
_cell_angle_gamma 90.000000
_cell_volume 5666.576014
_symmetry_space_group_name_H-M "C M C M"
_symmetry_group_IT_number 63
_symmetry_cell_setting 'orthorhombic'
loop_
_space_group_symop_operation_xyz
x,y,z
-x,-y,1/2+z
x,-y,-z
-x,y,1/2-z
-x,-y,-z
x,y,1/2-z
-x,y,z
x,-y,1/2+z
1/2+x,1/2+y,z
1/2-x,1/2-y,1/2+z
1/2+x,1/2-y,-z
1/2-x,1/2+y,1/2-z
1/2-x,1/2-y,-z
1/2+x,1/2+y,1/2-z
1/2-x,1/2+y,z
1/2+x,1/2-y,1/2+z
loop_
_atom_site_type_symbol
_atom_site_label
_atom_site_fract_x
_atom_site_fract_y
_atom_site_fract_z
Si Si1 0.315605 0.119594 0.008868
Si Si2 0.371319 0.260699 0.672354
Si Si3 0.370149 0.328039 0.169760
Si Si4 0.429318 0.054114 0.673085
Si Si5 0.070728 0.351678 0.910931
Si Si6 0.751201 0.256083 0.391883
Si Si7 0.432047 0.463743 0.830345
O O1 0.386610 0.149023 0.022336
O O2 0.277083 0.154865 0.074227
O O3 0.290634 0.178198 0.944275
O O4 0.305479 0.000000 0.000000
O O5 0.390018 0.257635 0.750000
O O6 0.393810 0.151943 0.641232
O O7 0.299094 0.277205 0.665150
O O8 0.404574 0.358679 0.638268
O O9 0.372238 0.314193 0.250000
O O10 0.414742 0.243565 0.137724
O O11 0.301591 0.321974 0.142779
O O12 0.393119 0.439082 0.145265
O O13 0.408739 0.031235 0.750000
O O14 0.500000 0.080015 0.670034
O O15 0.412578 0.955680 0.628771
O O16 0.000000 0.348445 0.932608
O O17 0.431086 0.458786 0.750000
O O18 0.500000 0.476599 0.858205
#
# Coordination Sequence:
#
# PCOD8257655 Si02
#       7
#    16  16  16  16  16  16  16
#     4  10  22  39  56  75 103 147 190 235 280 318
#     4  10  19  33  54  82 113 144 180 227 281 342
#     4  10  20  35  57  86 116 147 182 226 284 347
#     4   9  17  30  51  81 115 146 175 218 281 343
#     4  10  20  35  57  83 112 144 185 233 280 334
#     4  10  22  37  55  79 106 145 191 233 281 333
#     4   9  18  32  52  80 113 148 179 214 269 335
#
# _framework density 19.765022999999999
#
# number of rings (size 3 to 8) (size 9 to 14) (size 15 to 20)
#    0.000    2.286    0.000    2.571    2.000    3.429 
#    0.000    1.429    0.000    0.000    0.000    4.000 
#    0.000    0.000    0.000    0.000    0.000    0.000 
#
# Total GULP energy -694347.301130 kJ/mol
# GULP energy per Si atom -12399.058949 kJ/mol
# Density = 1.972004 g / cm^3
# Si number density = 19.765023 Si / 1000 Ang^3
#
#
#
# Elastic Constant Matrix: (Units=GPa)
#
#
# Indices 1 2 3 4 5 6 
#
# 1 136.9983 63.3878 23.3169 0.0000 0.0000 0.0000
# 2 63.3878 138.4106 23.3939 0.0000 0.0000 0.0000
# 3 23.3169 23.3939 27.5625 0.0000 0.0000 0.0000
# 4 0.0000 0.0000 0.0000 14.7632 0.0000 0.0000
# 5 0.0000 0.0000 0.0000 0.0000 25.1418 0.0000
# 6 0.0000 0.0000 0.0000 0.0000 0.0000 29.0888
#
#
#
# Elastic Compliance Matrix: (Units=1/GPa)
#
#
# Indices 1 2 3 4 5 6 
#
# 1 0.009877 -0.003632 -0.005273 0.000000 0.000000 0.000000
# 2 -0.003632 0.009771 -0.005220 0.000000 0.000000 0.000000
# 3 -0.005273 -0.005220 0.045173 0.000000 0.000000 0.000000
# 4 0.000000 0.000000 0.000000 0.067736 0.000000 0.000000
# 5 0.000000 0.000000 0.000000 0.000000 0.039774 0.000000
# 6 0.000000 0.000000 0.000000 0.000000 0.000000 0.034378
#
#
# Mechanical properties :
#
#
# Convention : Reuss Voigt Hill
#
# Bulk Modulus (GPa) = 27.34498 58.12985 42.73741
# Shear Modulus (GPa) = 20.23067 26.65694 23.44381
#
# Velocity S-wave (km/s) = 3.20278 3.67644 3.44775
# Velocity P-wave (km/s) = 5.24806 6.89173 6.12528
#
# Compressibility (1/GPa) = 0.03656979
#
# Stress axis : x y z
#
# Youngs Moduli (GPa) = 101.24056 102.34715 22.13733
#
# Poissons Ratio (x) = 0.37176 0.11673
# Poissons Ratio (y) = 0.36774 0.11556
# Poissons Ratio (z) = 0.53384 0.53426
#
# Static dielectric constant tensor:
#      x y z
#    x 3.695760 0.000000 0.000000 
#    y 0.000000 3.753490 0.000000 
#    z 0.000000 0.000000 3.412020 
# 
# 
# High freq. dielectric constant tensor:
#      x y z
#    x 1.781600 0.000000 0.000000 
#    y 0.000000 1.780000 0.000000 
#    z 0.000000 0.000000 1.745410 
# 
# From -- ./inp_files/57629.got.cif
#   From: 2010.03.12/outbox.cif.g09.slc.cpg/sg63_29_cif.got.tgz:57629.got - 2010.04.10 19:34:48.
