data_PCOD8257117
_publ_section_title
;
Structure prediction by ZEFSAII (Michael W. Deem and Ramdas Pophale) SiO2 
 PCOD8257117
Probable space group: C M C M
;
_chemical_formula_sum "Si O2"
_cell_formula_units_Z 128
_cell_length_a 22.761920
_cell_length_b 19.083144
_cell_length_c 17.492265
_cell_angle_alpha 90.000000
_cell_angle_beta 90.000000
_cell_angle_gamma 90.000000
_cell_volume 7598.097605
_symmetry_space_group_name_H-M "C M C M"
_symmetry_group_IT_number 63
_symmetry_cell_setting 'orthorhombic'
loop_
_space_group_symop_operation_xyz
x,y,z
-x,-y,1/2+z
x,-y,-z
-x,y,1/2-z
-x,-y,-z
x,y,1/2-z
-x,y,z
x,-y,1/2+z
1/2+x,1/2+y,z
1/2-x,1/2-y,1/2+z
1/2+x,1/2-y,-z
1/2-x,1/2+y,1/2-z
1/2-x,1/2-y,-z
1/2+x,1/2+y,1/2-z
1/2-x,1/2+y,z
1/2+x,1/2-y,1/2+z
loop_
_atom_site_type_symbol
_atom_site_label
_atom_site_fract_x
_atom_site_fract_y
_atom_site_fract_z
Si Si1 0.838351 0.003378 0.415584
Si Si2 0.717972 0.077890 0.574139
Si Si3 0.564902 0.578311 0.839864
Si Si4 0.067593 0.361077 0.839911
Si Si5 0.124449 0.783360 0.340426
Si Si6 0.257327 0.785812 0.160012
Si Si7 0.780954 0.130067 0.163299
Si Si8 0.326623 0.934234 0.596865
O O1 0.784638 0.948432 0.413372
O O2 0.890458 0.984168 0.358174
O O3 0.865417 0.000000 0.500000
O O4 0.818240 0.081859 0.394070
O O5 0.708585 0.151884 0.616390
O O6 0.700213 0.085931 0.485797
O O7 0.676882 0.017849 0.611180
O O8 0.559950 0.586031 0.750000
O O9 0.500000 0.563824 0.874315
O O10 0.590788 0.649901 0.875710
O O11 0.078044 0.373649 0.750000
O O12 0.087494 0.283979 0.865508
O O13 0.105473 0.415052 0.890609
O O14 0.000000 0.372174 0.861973
O O15 0.127192 0.789209 0.250000
O O16 0.190884 0.780706 0.371982
O O17 0.258356 0.802175 0.250000
O O18 0.289344 0.711972 0.141962
O O19 0.801580 0.116659 0.250000
O O20 0.712053 0.109220 0.158005
#
# Coordination Sequence:
#
# PCOD8257117 Si02
#       8
#    16  16  16  16  16  16  16  16
#     4  11  20  35  49  72 104 136 170 210 258 305
#     4  10  20  34  49  72 107 135 168 210 259 306
#     4  10  20  33  51  73  98 134 174 209 250 300
#     4  10  19  32  51  75 104 135 166 204 253 308
#     4   9  16  28  46  72 103 126 154 198 248 304
#     4  10  19  31  51  79 103 135 173 205 256 312
#     4  10  19  32  51  74 102 135 172 213 253 301
#     4  10  19  34  49  75 104 135 168 209 255 307
#
# _framework density 16.846323000000002
#
# number of rings (size 3 to 8) (size 9 to 14) (size 15 to 20)
#    0.000    2.000    5.000    1.125    0.000    4.750 
#    2.250    1.250    0.000    0.000    0.000    0.875 
#    0.000    3.000    0.000    0.000    0.000    0.000 
#
# Total GULP energy -793383.549922 kJ/mol
# GULP energy per Si atom -12396.617968 kJ/mol
# Density = 1.680798 g / cm^3
# Si number density = 16.846323 Si / 1000 Ang^3
#
#
#
# Elastic Constant Matrix: (Units=GPa)
#
#
# Indices 1 2 3 4 5 6 
#
# 1 104.0958 54.3649 28.9810 0.0000 0.0000 0.0000
# 2 54.3649 127.6344 44.7769 0.0000 0.0000 0.0000
# 3 28.9810 44.7769 49.4503 0.0000 0.0000 0.0000
# 4 0.0000 0.0000 0.0000 21.5259 0.0000 0.0000
# 5 0.0000 0.0000 0.0000 0.0000 19.3717 0.0000
# 6 0.0000 0.0000 0.0000 0.0000 0.0000 19.9300
#
#
#
# Elastic Compliance Matrix: (Units=1/GPa)
#
#
# Indices 1 2 3 4 5 6 
#
# 1 0.012816 -0.004138 -0.003763 0.000000 0.000000 0.000000
# 2 -0.004138 0.012819 -0.009182 0.000000 0.000000 0.000000
# 3 -0.003763 -0.009182 0.030742 0.000000 0.000000 0.000000
# 4 0.000000 0.000000 0.000000 0.046456 0.000000 0.000000
# 5 0.000000 0.000000 0.000000 0.000000 0.051622 0.000000
# 6 0.000000 0.000000 0.000000 0.000000 0.000000 0.050176
#
#
# Mechanical properties :
#
#
# Convention : Reuss Voigt Hill
#
# Bulk Modulus (GPa) = 45.02696 59.71399 52.37047
# Shear Modulus (GPa) = 20.30865 22.36936 21.33900
#
# Velocity S-wave (km/s) = 3.47583 3.64792 3.56291
# Velocity P-wave (km/s) = 6.54940 7.29838 6.93401
#
# Compressibility (1/GPa) = 0.02220892
#
# Stress axis : x y z
#
# Youngs Moduli (GPa) = 78.02966 78.01012 32.52857
#
# Poissons Ratio (x) = 0.32284 0.12242
# Poissons Ratio (y) = 0.32292 0.29868
# Poissons Ratio (z) = 0.29366 0.71629
#
# Static dielectric constant tensor:
#      x y z
#    x 3.028070 0.000000 0.000000 
#    y 0.000000 3.227220 0.000000 
#    z 0.000000 0.000000 2.922620 
# 
# 
# High freq. dielectric constant tensor:
#      x y z
#    x 1.624750 0.000000 0.000000 
#    y 0.000000 1.654000 0.000000 
#    z 0.000000 0.000000 1.627370 
# 
# From -- ./inp_files/48426.got.cif
#   From: 2010.03.12/outbox.cif.g09.slc.cpg/sg63_25_cif.got.tgz:48426.got - 2010.04.10 19:34:48.
