data_PCOD8257372
_publ_section_title
;
Structure prediction by ZEFSAII (Michael W. Deem and Ramdas Pophale) SiO2 
 PCOD8257372
Probable space group: C M C M
;
_chemical_formula_sum "Si O2"
_cell_formula_units_Z 112
_cell_length_a 16.806735
_cell_length_b 16.857960
_cell_length_c 21.879419
_cell_angle_alpha 90.000000
_cell_angle_beta 90.000000
_cell_angle_gamma 90.000000
_cell_volume 6199.035975
_symmetry_space_group_name_H-M "C M C M"
_symmetry_group_IT_number 63
_symmetry_cell_setting 'orthorhombic'
loop_
_space_group_symop_operation_xyz
x,y,z
-x,-y,1/2+z
x,-y,-z
-x,y,1/2-z
-x,-y,-z
x,y,1/2-z
-x,y,z
x,-y,1/2+z
1/2+x,1/2+y,z
1/2-x,1/2-y,1/2+z
1/2+x,1/2-y,-z
1/2-x,1/2+y,1/2-z
1/2-x,1/2-y,-z
1/2+x,1/2+y,1/2-z
1/2-x,1/2+y,z
1/2+x,1/2-y,1/2+z
loop_
_atom_site_type_symbol
_atom_site_label
_atom_site_fract_x
_atom_site_fract_y
_atom_site_fract_z
Si Si1 0.835440 0.355104 0.909466
Si Si2 0.591784 0.658248 0.113918
Si Si3 0.410782 0.968379 0.681571
Si Si4 0.591567 0.193003 0.967455
Si Si5 0.197171 0.400776 0.372942
Si Si6 0.300279 0.525240 0.433764
Si Si7 0.225283 0.762443 0.818858
O O1 0.899205 0.397264 0.866075
O O2 0.777389 0.419487 0.940146
O O3 0.786422 0.294264 0.868682
O O4 0.881002 0.307497 0.962246
O O5 0.500000 0.647962 0.132673
O O6 0.602075 0.716823 0.055782
O O7 0.628063 0.571902 0.099212
O O8 0.638675 0.697728 0.170560
O O9 0.393319 0.936705 0.750000
O O10 0.500000 0.000268 0.675484
O O11 0.353763 0.041100 0.668455
O O12 0.500000 0.165535 0.961909
O O13 0.645177 0.131833 0.929379
O O14 0.276051 0.446365 0.396370
O O15 0.223097 0.331516 0.327485
O O16 0.331234 0.500000 0.500000
O O17 0.252578 0.782325 0.750000
#
# Coordination Sequence:
#
# PCOD8257372 Si02
#       7
#    16  16  16  16  16  16  16
#     4  10  20  33  52  76 105 138 177 216 261 318
#     4   9  21  36  54  80 108 138 178 220 267 323
#     4  10  20  33  49  72 105 142 176 213 258 315
#     4  10  19  33  53  80 109 137 171 219 272 318
#     4  10  20  33  53  80 108 135 173 220 268 321
#     4  10  19  32  52  78 109 140 168 209 268 312
#     4  10  21  36  57  77 100 137 179 222 264 307
#
# _framework density 18.067325
#
# number of rings (size 3 to 8) (size 9 to 14) (size 15 to 20)
#    0.000    2.143    1.429    1.714    2.000    2.857 
#    0.000    2.857    0.000    0.000    0.000    0.000 
#    0.000    0.000    0.000    0.000    0.000    0.000 
#
# Total GULP energy -694446.361234 kJ/mol
# GULP energy per Si atom -12400.827879 kJ/mol
# Density = 1.802620 g / cm^3
# Si number density = 18.067325 Si / 1000 Ang^3
#
#
#
# Elastic Constant Matrix: (Units=GPa)
#
#
# Indices 1 2 3 4 5 6 
#
# 1 62.9249 36.4637 19.8339 0.0000 0.0000 0.0000
# 2 36.4637 72.6000 25.3467 0.0000 0.0000 0.0000
# 3 19.8339 25.3467 94.7690 0.0000 0.0000 0.0000
# 4 0.0000 0.0000 0.0000 9.4588 0.0000 0.0000
# 5 0.0000 0.0000 0.0000 0.0000 22.1084 0.0000
# 6 0.0000 0.0000 0.0000 0.0000 0.0000 24.2334
#
#
#
# Elastic Compliance Matrix: (Units=1/GPa)
#
#
# Indices 1 2 3 4 5 6 
#
# 1 0.022715 -0.010753 -0.001878 0.000000 0.000000 0.000000
# 2 -0.010753 0.020283 -0.003174 0.000000 0.000000 0.000000
# 3 -0.001878 -0.003174 0.011794 0.000000 0.000000 0.000000
# 4 0.000000 0.000000 0.000000 0.105721 0.000000 0.000000
# 5 0.000000 0.000000 0.000000 0.000000 0.045232 0.000000
# 6 0.000000 0.000000 0.000000 0.000000 0.000000 0.041265
#
#
# Mechanical properties :
#
#
# Convention : Reuss Voigt Hill
#
# Bulk Modulus (GPa) = 43.13816 43.73139 43.43478
# Shear Modulus (GPa) = 17.46121 21.07009 19.26565
#
# Velocity S-wave (km/s) = 3.11215 3.41867 3.26901
# Velocity P-wave (km/s) = 6.06978 6.31192 6.19203
#
# Compressibility (1/GPa) = 0.02318133
#
# Stress axis : x y z
#
# Youngs Moduli (GPa) = 44.02354 49.30189 84.78871
#
# Poissons Ratio (x) = 0.53015 0.15923
# Poissons Ratio (y) = 0.47339 0.26915
# Poissons Ratio (z) = 0.08267 0.15650
#
# Static dielectric constant tensor:
#      x y z
#    x 3.275940 0.000000 0.000000 
#    y 0.000000 3.332780 0.000000 
#    z 0.000000 0.000000 3.302300 
# 
# 
# High freq. dielectric constant tensor:
#      x y z
#    x 1.688980 0.000000 0.000000 
#    y 0.000000 1.696620 0.000000 
#    z 0.000000 0.000000 1.699400 
# 
# From -- ./inp_files/55817.got.cif
#   From: 2010.03.12/outbox.cif.g09.slc.cpg/sg63_28_cif.got.tgz:55817.got - 2010.04.10 19:34:48.
