data_PCOD8257288
_publ_section_title
;
Structure prediction by ZEFSAII (Michael W. Deem and Ramdas Pophale) SiO2 
 PCOD8257288
Probable space group: C M C M
;
_chemical_formula_sum "Si O2"
_cell_formula_units_Z 80
_cell_length_a 8.882884
_cell_length_b 20.146839
_cell_length_c 25.360197
_cell_angle_alpha 90.000000
_cell_angle_beta 90.000000
_cell_angle_gamma 90.000000
_cell_volume 4538.512433
_symmetry_space_group_name_H-M "C M C M"
_symmetry_group_IT_number 63
_symmetry_cell_setting 'orthorhombic'
loop_
_space_group_symop_operation_xyz
x,y,z
-x,-y,1/2+z
x,-y,-z
-x,y,1/2-z
-x,-y,-z
x,y,1/2-z
-x,y,z
x,-y,1/2+z
1/2+x,1/2+y,z
1/2-x,1/2-y,1/2+z
1/2+x,1/2-y,-z
1/2-x,1/2+y,1/2-z
1/2-x,1/2-y,-z
1/2+x,1/2+y,1/2-z
1/2-x,1/2+y,z
1/2+x,1/2-y,1/2+z
loop_
_atom_site_type_symbol
_atom_site_label
_atom_site_fract_x
_atom_site_fract_y
_atom_site_fract_z
Si Si1 0.820669 0.074074 0.363911
Si Si2 0.827199 0.432038 0.135040
Si Si3 0.674660 0.178280 0.439467
Si Si4 0.175514 0.685180 0.938457
Si Si5 0.831264 0.554608 0.750000
Si Si6 0.326577 0.422174 0.750000
O O1 0.762268 0.120825 0.409633
O O2 0.760750 0.102900 0.306577
O O3 0.000000 0.072040 0.364685
O O4 0.762677 0.999790 0.373886
O O5 0.762452 0.375398 0.096713
O O6 0.812662 0.404294 0.195528
O O7 0.000000 0.446625 0.120325
O O8 0.500000 0.173259 0.425764
O O9 0.734342 0.249651 0.420998
O O10 0.707325 0.167278 0.501035
O O11 0.000000 0.698761 0.928096
O O12 0.699977 0.500735 0.750000
O O13 0.000000 0.521908 0.750000
O O14 0.500000 0.405067 0.750000
#
# Coordination Sequence:
#
# PCOD8257288 Si02
#       6
#    16  16  16  16   8   8
#     4  10  19  32  51  74  99 126 159 198 239 285
#     4   9  17  31  51  74  98 124 157 196 238 284
#     4  10  20  34  51  70  95 129 166 202 242 287
#     4   9  19  35  52  69  95 131 165 199 242 291
#     4   8  14  26  47  72  95 121 153 191 235 282
#     4   8  16  30  47  68  95 127 157 189 235 286
#
# _framework density 17.626920999999999
#
# number of rings (size 3 to 8) (size 9 to 14) (size 15 to 20)
#    0.000    2.800    0.000    1.200    0.000    3.200 
#    0.000    5.000    0.000    3.600    0.000    0.000 
#    0.000    0.000    0.000    0.000    0.000    0.000 
#
# Total GULP energy -495612.927292 kJ/mol
# GULP energy per Si atom -12390.323182 kJ/mol
# Density = 1.758680 g / cm^3
# Si number density = 17.626921 Si / 1000 Ang^3
#
#
#
# Elastic Constant Matrix: (Units=GPa)
#
#
# Indices 1 2 3 4 5 6 
#
# 1 48.7505 42.4124 35.7334 0.0000 0.0000 0.0000
# 2 42.4124 111.6982 77.9019 0.0000 0.0000 0.0000
# 3 35.7334 77.9019 106.1458 0.0000 0.0000 0.0000
# 4 0.0000 0.0000 0.0000 5.8054 0.0000 0.0000
# 5 0.0000 0.0000 0.0000 0.0000 22.0887 0.0000
# 6 0.0000 0.0000 0.0000 0.0000 0.0000 29.5810
#
#
#
# Elastic Compliance Matrix: (Units=1/GPa)
#
#
# Indices 1 2 3 4 5 6 
#
# 1 0.031333 -0.009302 -0.003721 0.000000 0.000000 0.000000
# 2 -0.009302 0.021102 -0.012355 0.000000 0.000000 0.000000
# 3 -0.003721 -0.012355 0.019742 0.000000 0.000000 0.000000
# 4 0.000000 0.000000 0.000000 0.172254 0.000000 0.000000
# 5 0.000000 0.000000 0.000000 0.000000 0.045272 0.000000
# 6 0.000000 0.000000 0.000000 0.000000 0.000000 0.033805
#
#
# Mechanical properties :
#
#
# Convention : Reuss Voigt Hill
#
# Bulk Modulus (GPa) = 46.68762 64.29889 55.49325
# Shear Modulus (GPa) = 13.10944 18.86481 15.98712
#
# Velocity S-wave (km/s) = 2.73008 3.27498 3.01486
# Velocity P-wave (km/s) = 6.04002 7.13145 6.60830
#
# Compressibility (1/GPa) = 0.02141895
#
# Stress axis : x y z
#
# Youngs Moduli (GPa) = 31.91550 47.38934 50.65463
#
# Poissons Ratio (x) = 0.44081 0.18849
# Poissons Ratio (y) = 0.29688 0.62586
# Poissons Ratio (z) = 0.11876 0.58552
#
# Static dielectric constant tensor:
#      x y z
#    x 3.272490 0.000000 0.000000 
#    y 0.000000 3.028100 0.000000 
#    z 0.000000 0.000000 3.680950 
# 
# 
# High freq. dielectric constant tensor:
#      x y z
#    x 1.680530 0.000000 0.000000 
#    y 0.000000 1.650800 0.000000 
#    z 0.000000 0.000000 1.697920 
# 
# From -- ./inp_files/59519.got.cif
#   From: 2010.03.12/outbox.cif.g09.slc.cpg/sg63_30_cif.got.tgz:59519.got - 2010.04.10 19:34:48.
