data_PCOD8257855
_publ_section_title
;
Structure prediction by ZEFSAII (Michael W. Deem and Ramdas Pophale) SiO2 
 PCOD8257855
Probable space group: C M C M
;
_chemical_formula_sum "Si O2"
_cell_formula_units_Z 96
_cell_length_a 9.179178
_cell_length_b 20.553949
_cell_length_c 27.888365
_cell_angle_alpha 90.000000
_cell_angle_beta 90.000000
_cell_angle_gamma 90.000000
_cell_volume 5261.651989
_symmetry_space_group_name_H-M "C M C M"
_symmetry_group_IT_number 63
_symmetry_cell_setting 'orthorhombic'
loop_
_space_group_symop_operation_xyz
x,y,z
-x,-y,1/2+z
x,-y,-z
-x,y,1/2-z
-x,-y,-z
x,y,1/2-z
-x,y,z
x,-y,1/2+z
1/2+x,1/2+y,z
1/2-x,1/2-y,1/2+z
1/2+x,1/2-y,-z
1/2-x,1/2+y,1/2-z
1/2-x,1/2-y,-z
1/2+x,1/2+y,1/2-z
1/2-x,1/2+y,z
1/2+x,1/2-y,1/2+z
loop_
_atom_site_type_symbol
_atom_site_label
_atom_site_fract_x
_atom_site_fract_y
_atom_site_fract_z
Si Si1 0.328339 0.369186 0.138303
Si Si2 0.330517 0.923559 0.447131
Si Si3 0.169915 0.427628 0.943657
Si Si4 0.830708 0.260461 0.694016
Si Si5 0.327238 0.377824 0.855987
Si Si6 0.826955 0.007688 0.803347
O O1 0.500000 0.373952 0.131722
O O2 0.256532 0.372653 0.085796
O O3 0.283036 0.303694 0.165308
O O4 0.266498 0.429428 0.169107
O O5 0.500000 0.916514 0.435952
O O6 0.297569 0.905370 0.502126
O O7 0.279790 0.997586 0.436720
O O8 0.261399 0.379815 0.909458
O O9 0.000000 0.420363 0.931732
O O10 0.798353 0.249155 0.750000
O O11 0.732771 0.318228 0.674402
O O12 0.000000 0.276668 0.685454
O O13 0.500000 0.372171 0.859176
O O14 0.273420 0.442910 0.829616
O O15 0.760791 0.007929 0.750000
O O16 0.000000 0.010084 0.801164
#
# Coordination Sequence:
#
# PCOD8257855 Si02
#       6
#    16  16  16  16  16  16
#     4  10  19  34  56  81 107 140 183 226 269 321
#     4   9  18  33  55  82 112 144 176 220 276 327
#     4   9  18  34  55  80 112 147 179 216 272 335
#     4  10  22  39  57  77 108 151 188 219 266 329
#     4  11  21  34  55  83 111 142 181 229 277 318
#     4   9  17  30  50  77 106 134 171 221 271 317
#
# _framework density 18.245221000000001
#
# number of rings (size 3 to 8) (size 9 to 14) (size 15 to 20)
#    0.000    2.333    1.667    2.500    0.000    4.333 
#    0.000    2.500    0.000    2.500    0.000    0.000 
#    0.000    0.000    0.000    0.000    0.000    0.000 
#
# Total GULP energy -595264.995633 kJ/mol
# GULP energy per Si atom -12401.354076 kJ/mol
# Density = 1.820369 g / cm^3
# Si number density = 18.245221 Si / 1000 Ang^3
#
#
#
# Elastic Constant Matrix: (Units=GPa)
#
#
# Indices 1 2 3 4 5 6 
#
# 1 45.0177 29.8277 33.6449 0.0000 0.0000 0.0000
# 2 29.8277 84.6098 27.8026 0.0000 0.0000 0.0000
# 3 33.6449 27.8026 98.6978 0.0000 0.0000 0.0000
# 4 0.0000 0.0000 0.0000 36.4395 0.0000 0.0000
# 5 0.0000 0.0000 0.0000 0.0000 28.8649 0.0000
# 6 0.0000 0.0000 0.0000 0.0000 0.0000 28.3243
#
#
#
# Elastic Compliance Matrix: (Units=1/GPa)
#
#
# Indices 1 2 3 4 5 6 
#
# 1 0.035518 -0.009414 -0.009456 0.000000 0.000000 0.000000
# 2 -0.009414 0.015520 -0.001163 0.000000 0.000000 0.000000
# 3 -0.009456 -0.001163 0.013683 0.000000 0.000000 0.000000
# 4 0.000000 0.000000 0.000000 0.027443 0.000000 0.000000
# 5 0.000000 0.000000 0.000000 0.000000 0.034644 0.000000
# 6 0.000000 0.000000 0.000000 0.000000 0.000000 0.035305
#
#
# Mechanical properties :
#
#
# Convention : Reuss Voigt Hill
#
# Bulk Modulus (GPa) = 40.55889 45.65286 43.10588
# Shear Modulus (GPa) = 23.76467 27.86243 25.81355
#
# Velocity S-wave (km/s) = 3.61295 3.91206 3.76548
# Velocity P-wave (km/s) = 6.29942 6.74402 6.52551
#
# Compressibility (1/GPa) = 0.02465551
#
# Stress axis : x y z
#
# Youngs Moduli (GPa) = 28.15477 64.43385 73.08445
#
# Poissons Ratio (x) = 0.60659 0.69107
# Poissons Ratio (y) = 0.26505 0.08497
# Poissons Ratio (z) = 0.26622 0.07492
#
# Static dielectric constant tensor:
#      x y z
#    x 3.087720 0.000000 0.000000 
#    y 0.000000 3.283560 0.000000 
#    z 0.000000 0.000000 3.500030 
# 
# 
# High freq. dielectric constant tensor:
#      x y z
#    x 1.686910 0.000000 0.000000 
#    y 0.000000 1.694020 0.000000 
#    z 0.000000 0.000000 1.722390 
# 
# From -- ./inp_files/66973.got.cif
#   From: 2010.03.12/outbox.cif.g09.slc.cpg/sg63_34_cif.got.tgz:66973.got - 2010.04.10 19:34:48.
