data_PCOD8257211
_publ_section_title
;
Structure prediction by ZEFSAII (Michael W. Deem and Ramdas Pophale) SiO2 
 PCOD8257211
Probable space group: C M C M
;
_chemical_formula_sum "Si O2"
_cell_formula_units_Z 120
_cell_length_a 29.119645
_cell_length_b 26.901827
_cell_length_c 8.927629
_cell_angle_alpha 90.000000
_cell_angle_beta 90.000000
_cell_angle_gamma 90.000000
_cell_volume 6993.651479
_symmetry_space_group_name_H-M "C M C M"
_symmetry_group_IT_number 63
_symmetry_cell_setting 'orthorhombic'
loop_
_space_group_symop_operation_xyz
x,y,z
-x,-y,1/2+z
x,-y,-z
-x,y,1/2-z
-x,-y,-z
x,y,1/2-z
-x,y,z
x,-y,1/2+z
1/2+x,1/2+y,z
1/2-x,1/2-y,1/2+z
1/2+x,1/2-y,-z
1/2-x,1/2+y,1/2-z
1/2-x,1/2-y,-z
1/2+x,1/2+y,1/2-z
1/2-x,1/2+y,z
1/2+x,1/2-y,1/2+z
loop_
_atom_site_type_symbol
_atom_site_label
_atom_site_fract_x
_atom_site_fract_y
_atom_site_fract_z
Si Si1 0.206694 0.344940 0.077729
Si Si2 0.633604 0.230330 0.576205
Si Si3 0.552015 0.722409 0.574548
Si Si4 0.740322 0.950629 0.071416
Si Si5 0.580430 0.388245 0.074011
Si Si6 0.326928 0.412106 0.581116
Si Si7 0.000000 0.946949 0.573609
Si Si8 0.211177 0.197474 0.416101
O O1 0.220258 0.345806 0.250000
O O2 0.154674 0.325145 0.051372
O O3 0.211791 0.401507 0.017673
O O4 0.241197 0.303651 0.007657
O O5 0.625105 0.241871 0.750000
O O6 0.584587 0.234900 0.494599
O O7 0.670951 0.269347 0.509335
O O8 0.550314 0.730825 0.750000
O O9 0.500000 0.726068 0.509522
O O10 0.574641 0.669671 0.533363
O O11 0.742091 0.955389 0.250000
O O12 0.791358 0.948266 0.002176
O O13 0.716721 0.000000 0.000000
O O14 0.572578 0.397295 0.250000
O O15 0.628918 0.409784 0.024121
O O16 0.544209 0.417574 0.977575
O O17 0.337987 0.431649 0.750000
O O18 0.305587 0.358325 0.592250
O O19 0.000000 0.953008 0.750000
O O20 0.000000 0.000000 0.500000
O O21 0.221502 0.218510 0.250000
#
# Coordination Sequence:
#
# PCOD8257211 Si02
#       8
#    16  16  16  16  16  16   8  16
#     4   9  19  32  48  71 102 133 166 204 248 296
#     4  10  19  32  49  74 103 132 165 204 246 298
#     4  10  21  36  53  75 102 134 169 206 250 304
#     4  10  20  35  52  72  98 134 171 209 251 294
#     4  11  21  37  56  74  98 127 163 208 256 307
#     4  10  19  32  50  75 100 127 164 207 247 291
#     4  12  26  42  58  74  92 118 158 212 269 314
#     4   9  17  28  45  71 102 130 163 198 236 290
#
# _framework density 17.158418000000001
#
# number of rings (size 3 to 8) (size 9 to 14) (size 15 to 20)
#    0.000    2.000    2.000    2.200    0.000    3.467 
#    0.000    2.667    0.000    0.000    0.000    0.000 
#    0.000    0.533    0.000    1.200    0.000    2.133 
#
# Total GULP energy -743775.921092 kJ/mol
# GULP energy per Si atom -12396.265352 kJ/mol
# Density = 1.711936 g / cm^3
# Si number density = 17.158418 Si / 1000 Ang^3
#
#
#
# Elastic Constant Matrix: (Units=GPa)
#
#
# Indices 1 2 3 4 5 6 
#
# 1 67.9656 44.7969 37.9291 0.0000 0.0000 0.0000
# 2 44.7969 73.4998 27.2396 0.0000 0.0000 0.0000
# 3 37.9291 27.2396 70.9421 0.0000 0.0000 0.0000
# 4 0.0000 0.0000 0.0000 23.0442 0.0000 0.0000
# 5 0.0000 0.0000 0.0000 0.0000 27.7847 0.0000
# 6 0.0000 0.0000 0.0000 0.0000 0.0000 19.1950
#
#
#
# Elastic Compliance Matrix: (Units=1/GPa)
#
#
# Indices 1 2 3 4 5 6 
#
# 1 0.030132 -0.014451 -0.010561 0.000000 0.000000 0.000000
# 2 -0.014451 0.022793 -0.001026 0.000000 0.000000 0.000000
# 3 -0.010561 -0.001026 0.020136 0.000000 0.000000 0.000000
# 4 0.000000 0.000000 0.000000 0.043395 0.000000 0.000000
# 5 0.000000 0.000000 0.000000 0.000000 0.035991 0.000000
# 6 0.000000 0.000000 0.000000 0.000000 0.000000 0.052097
#
#
# Mechanical properties :
#
#
# Convention : Reuss Voigt Hill
#
# Bulk Modulus (GPa) = 47.65138 48.03763 47.84451
# Shear Modulus (GPa) = 18.96702 20.83423 19.90062
#
# Velocity S-wave (km/s) = 3.32837 3.48836 3.40930
# Velocity P-wave (km/s) = 6.52706 6.65448 6.59108
#
# Compressibility (1/GPa) = 0.02098575
#
# Stress axis : x y z
#
# Youngs Moduli (GPa) = 33.18741 43.87279 49.66109
#
# Poissons Ratio (x) = 0.63400 0.52449
# Poissons Ratio (y) = 0.47958 0.05094
# Poissons Ratio (z) = 0.35050 0.04500
#
# Static dielectric constant tensor:
#      x y z
#    x 3.485670 0.000000 0.000000 
#    y 0.000000 3.191180 0.000000 
#    z 0.000000 0.000000 3.317600 
# 
# 
# High freq. dielectric constant tensor:
#      x y z
#    x 1.639700 0.000000 0.000000 
#    y 0.000000 1.650450 0.000000 
#    z 0.000000 0.000000 1.666400 
# 
# From -- ./inp_files/13203.got.cif
#   From: 2010.03.12/outbox.cif.g09.slc.cpg/sg63_7_cif.got.tgz:13203.got - 2010.04.10 19:34:48.
