data_PCOD8257253
_publ_section_title
;
Structure prediction by ZEFSAII (Michael W. Deem and Ramdas Pophale) SiO2 
 PCOD8257253
Probable space group: C M C M
;
_chemical_formula_sum "Si O2"
_cell_formula_units_Z 80
_cell_length_a 27.363787
_cell_length_b 18.141620
_cell_length_c 8.663341
_cell_angle_alpha 90.000000
_cell_angle_beta 90.000000
_cell_angle_gamma 90.000000
_cell_volume 4300.685416
_symmetry_space_group_name_H-M "C M C M"
_symmetry_group_IT_number 63
_symmetry_cell_setting 'orthorhombic'
loop_
_space_group_symop_operation_xyz
x,y,z
-x,-y,1/2+z
x,-y,-z
-x,y,1/2-z
-x,-y,-z
x,y,1/2-z
-x,y,z
x,-y,1/2+z
1/2+x,1/2+y,z
1/2-x,1/2-y,1/2+z
1/2+x,1/2-y,-z
1/2-x,1/2+y,1/2-z
1/2-x,1/2-y,-z
1/2+x,1/2+y,1/2-z
1/2-x,1/2+y,z
1/2+x,1/2-y,1/2+z
loop_
_atom_site_type_symbol
_atom_site_label
_atom_site_fract_x
_atom_site_fract_y
_atom_site_fract_z
Si Si1 0.191903 0.855521 0.568071
Si Si2 0.908852 0.922478 0.932564
Si Si3 0.853944 0.294886 0.432299
Si Si4 0.944719 0.776757 0.072098
Si Si5 0.207436 0.420035 0.567421
O O1 0.196669 0.852917 0.750000
O O2 0.147625 0.909079 0.519260
O O3 0.180323 0.772755 0.509243
O O4 0.242218 0.886407 0.496331
O O5 0.915836 0.920831 0.750000
O O6 0.942181 0.859308 0.005795
O O7 0.926528 0.000000 0.000000
O O8 0.850460 0.305953 0.250000
O O9 0.909864 0.278186 0.477192
O O10 0.837337 0.368639 0.517735
O O11 0.928391 0.777423 0.250000
O O12 0.000000 0.747919 0.053178
O O13 0.197798 0.500000 0.500000
O O14 0.210207 0.425634 0.750000
#
# Coordination Sequence:
#
# PCOD8257253 Si02
#       5
#    16  16  16  16  16
#     4   8  17  32  51  76 106 141 178 213 250 299
#     4  10  19  32  50  75 108 143 179 217 258 303
#     4  10  20  36  56  79 106 136 173 215 260 309
#     4  10  21  37  56  77 100 131 173 218 265 315
#     4  11  21  34  52  77 109 142 176 213 256 303
#
# _framework density 18.601685
#
# number of rings (size 3 to 8) (size 9 to 14) (size 15 to 20)
#    0.000    2.200    0.000    4.800    0.000    2.000 
#    0.000   10.000    0.000    0.600    0.000    0.000 
#    0.000    0.000    0.000    0.000    0.000    0.000 
#
# Total GULP energy -496062.335075 kJ/mol
# GULP energy per Si atom -12401.558377 kJ/mol
# Density = 1.855935 g / cm^3
# Si number density = 18.601685 Si / 1000 Ang^3
#
#
#
# Elastic Constant Matrix: (Units=GPa)
#
#
# Indices 1 2 3 4 5 6 
#
# 1 83.4364 45.4563 18.9063 0.0000 0.0000 0.0000
# 2 45.4563 113.5925 27.2879 0.0000 0.0000 0.0000
# 3 18.9063 27.2879 64.6515 0.0000 0.0000 0.0000
# 4 0.0000 0.0000 0.0000 28.3064 0.0000 0.0000
# 5 0.0000 0.0000 0.0000 0.0000 25.7922 0.0000
# 6 0.0000 0.0000 0.0000 0.0000 0.0000 26.5859
#
#
#
# Elastic Compliance Matrix: (Units=1/GPa)
#
#
# Indices 1 2 3 4 5 6 
#
# 1 0.015589 -0.005723 -0.002143 0.000000 0.000000 0.000000
# 2 -0.005723 0.011898 -0.003348 0.000000 0.000000 0.000000
# 3 -0.002143 -0.003348 0.017507 0.000000 0.000000 0.000000
# 4 0.000000 0.000000 0.000000 0.035328 0.000000 0.000000
# 5 0.000000 0.000000 0.000000 0.000000 0.038771 0.000000
# 6 0.000000 0.000000 0.000000 0.000000 0.000000 0.037614
#
#
# Mechanical properties :
#
#
# Convention : Reuss Voigt Hill
#
# Bulk Modulus (GPa) = 44.31605 49.44239 46.87922
# Shear Modulus (GPa) = 26.78692 27.47223 27.12957
#
# Velocity S-wave (km/s) = 3.79888 3.84717 3.82311
# Velocity P-wave (km/s) = 6.56639 6.80967 6.68913
#
# Compressibility (1/GPa) = 0.02256519
#
# Stress axis : x y z
#
# Youngs Moduli (GPa) = 64.14827 84.04747 57.11868
#
# Poissons Ratio (x) = 0.48104 0.12241
# Poissons Ratio (y) = 0.36715 0.19124
# Poissons Ratio (z) = 0.13747 0.28140
#
# Static dielectric constant tensor:
#      x y z
#    x 3.419100 0.000000 0.000000 
#    y 0.000000 3.396040 0.000000 
#    z 0.000000 0.000000 3.317990 
# 
# 
# High freq. dielectric constant tensor:
#      x y z
#    x 1.714640 0.000000 0.000000 
#    y 0.000000 1.709110 0.000000 
#    z 0.000000 0.000000 1.720850 
# 
# From -- ./inp_files/11992.got.cif
#   From: 2010.03.12/outbox.cif.g09.slc.cpg/sg63_6_cif.got.tgz:11992.got - 2010.04.10 19:34:48.
