data_PCOD8257929
_publ_section_title
;
Structure prediction by ZEFSAII (Michael W. Deem and Ramdas Pophale) SiO2 
 PCOD8257929
Probable space group: C M C M
;
_chemical_formula_sum "Si O2"
_cell_formula_units_Z 48
_cell_length_a 25.287237
_cell_length_b 5.158176
_cell_length_c 17.338850
_cell_angle_alpha 90.000000
_cell_angle_beta 90.000000
_cell_angle_gamma 90.000000
_cell_volume 2261.610568
_symmetry_space_group_name_H-M "C M C M"
_symmetry_group_IT_number 63
_symmetry_cell_setting 'orthorhombic'
loop_
_space_group_symop_operation_xyz
x,y,z
-x,-y,1/2+z
x,-y,-z
-x,y,1/2-z
-x,-y,-z
x,y,1/2-z
-x,y,z
x,-y,1/2+z
1/2+x,1/2+y,z
1/2-x,1/2-y,1/2+z
1/2+x,1/2-y,-z
1/2-x,1/2+y,1/2-z
1/2-x,1/2-y,-z
1/2+x,1/2+y,1/2-z
1/2-x,1/2+y,z
1/2+x,1/2-y,1/2+z
loop_
_atom_site_type_symbol
_atom_site_label
_atom_site_fract_x
_atom_site_fract_y
_atom_site_fract_z
Si Si1 0.227115 0.711525 0.585784
Si Si2 0.560763 0.581671 0.661818
Si Si3 0.104690 0.577565 0.915010
O O1 0.250000 0.750000 0.500000
O O2 0.258979 0.480223 0.629124
O O3 0.165565 0.656324 0.584961
O O4 0.573474 0.510391 0.750000
O O5 0.500000 0.662325 0.650360
O O6 0.571900 0.327192 0.611435
O O7 0.596132 0.828817 0.639087
O O8 0.085323 0.500000 0.000000
#
# Coordination Sequence:
#
# PCOD8257929 Si02
#       3
#    16  16  16
#     4  10  19  34  59  95 125 164 196 253 319 391
#     4  11  26  46  64  88 134 182 210 256 337 398
#     4  12  23  38  71 103 122 163 225 276 308 377
#
# _framework density 21.223811000000001
#
# number of rings (size 3 to 8) (size 9 to 14) (size 15 to 20)
#    0.000    1.000    3.333    5.000    4.667    6.667 
#    0.000    0.000    0.000   20.000    0.000    0.000 
#    0.000    0.000    0.000    0.000    0.000    0.000 
#
# Total GULP energy -297541.368232 kJ/mol
# GULP energy per Si atom -12397.557010 kJ/mol
# Density = 2.117550 g / cm^3
# Si number density = 21.223811 Si / 1000 Ang^3
#
#
#
# Elastic Constant Matrix: (Units=GPa)
#
#
# Indices 1 2 3 4 5 6 
#
# 1 96.8251 44.4664 57.2179 0.0000 0.0000 0.0000
# 2 44.4664 193.5423 37.3326 0.0000 0.0000 0.0000
# 3 57.2179 37.3326 68.5313 0.0000 0.0000 0.0000
# 4 0.0000 0.0000 0.0000 33.6123 0.0000 0.0000
# 5 0.0000 0.0000 0.0000 0.0000 8.8240 0.0000
# 6 0.0000 0.0000 0.0000 0.0000 0.0000 47.1408
#
#
#
# Elastic Compliance Matrix: (Units=1/GPa)
#
#
# Indices 1 2 3 4 5 6 
#
# 1 0.020819 -0.001598 -0.016512 0.000000 0.000000 0.000000
# 2 -0.001598 0.005896 -0.001878 0.000000 0.000000 0.000000
# 3 -0.016512 -0.001878 0.029401 0.000000 0.000000 0.000000
# 4 0.000000 0.000000 0.000000 0.029751 0.000000 0.000000
# 5 0.000000 0.000000 0.000000 0.000000 0.113327 0.000000
# 6 0.000000 0.000000 0.000000 0.000000 0.000000 0.021213
#
#
# Mechanical properties :
#
#
# Convention : Reuss Voigt Hill
#
# Bulk Modulus (GPa) = 61.95401 70.77028 66.36215
# Shear Modulus (GPa) = 18.81375 32.57420 25.69398
#
# Velocity S-wave (km/s) = 2.98055 3.92190 3.48317
# Velocity P-wave (km/s) = 6.41086 7.34340 6.89292
#
# Compressibility (1/GPa) = 0.01614100
#
# Stress axis : x y z
#
# Youngs Moduli (GPa) = 48.03223 169.60089 34.01294
#
# Poissons Ratio (x) = 0.27107 0.56161
# Poissons Ratio (y) = 0.07677 0.06386
# Poissons Ratio (z) = 0.79310 0.31843
#
# Static dielectric constant tensor:
#      x y z
#    x 3.888430 0.000000 0.000000 
#    y 0.000000 3.795940 0.000000 
#    z 0.000000 0.000000 3.672680 
# 
# 
# High freq. dielectric constant tensor:
#      x y z
#    x 1.840450 0.000000 0.000000 
#    y 0.000000 1.870590 0.000000 
#    z 0.000000 0.000000 1.795400 
# 
# From -- ./inp_files/37297.got.cif
#   From: 2010.03.12/outbox.cif.g09.slc.cpg/sg63_19_cif.got.tgz:37297.got - 2010.04.10 19:34:48.
