data_PCOD8257631
_publ_section_title
;
Structure prediction by ZEFSAII (Michael W. Deem and Ramdas Pophale) SiO2 
 PCOD8257631
Probable space group: C M C M
;
_chemical_formula_sum "Si O2"
_cell_formula_units_Z 112
_cell_length_a 30.287123
_cell_length_b 12.627110
_cell_length_c 15.313198
_cell_angle_alpha 90.000000
_cell_angle_beta 90.000000
_cell_angle_gamma 90.000000
_cell_volume 5856.361583
_symmetry_space_group_name_H-M "C M C M"
_symmetry_group_IT_number 63
_symmetry_cell_setting 'orthorhombic'
loop_
_space_group_symop_operation_xyz
x,y,z
-x,-y,1/2+z
x,-y,-z
-x,y,1/2-z
-x,-y,-z
x,y,1/2-z
-x,y,z
x,-y,1/2+z
1/2+x,1/2+y,z
1/2-x,1/2-y,1/2+z
1/2+x,1/2-y,-z
1/2-x,1/2+y,1/2-z
1/2-x,1/2-y,-z
1/2+x,1/2+y,1/2-z
1/2-x,1/2+y,z
1/2+x,1/2-y,1/2+z
loop_
_atom_site_type_symbol
_atom_site_label
_atom_site_fract_x
_atom_site_fract_y
_atom_site_fract_z
Si Si1 0.049560 0.423594 0.646675
Si Si2 0.303308 0.418046 0.848418
Si Si3 0.333536 0.240612 0.523910
Si Si4 0.874523 0.074832 0.575722
Si Si5 0.789645 0.431959 0.917239
Si Si6 0.869817 0.562007 0.647739
Si Si7 0.452082 0.310152 0.149014
O O1 0.054096 0.423499 0.750000
O O2 0.084978 0.509175 0.612228
O O3 0.060643 0.305754 0.609343
O O4 0.000000 0.457746 0.618066
O O5 0.317048 0.388785 0.750000
O O6 0.308018 0.317749 0.910741
O O7 0.332637 0.519517 0.877386
O O8 0.251253 0.441521 0.850987
O O9 0.364271 0.310310 0.462566
O O10 0.300027 0.183991 0.456603
O O11 0.361683 0.161021 0.584060
O O12 0.916043 0.097083 0.637775
O O13 0.892505 0.000000 0.500000
O O14 0.831432 0.475656 0.864440
O O15 0.775927 0.500000 0.000000
O O16 0.871975 0.596538 0.750000
O O17 0.457967 0.290159 0.250000
O O18 0.500000 0.346071 0.110448
#
# Coordination Sequence:
#
# PCOD8257631 Si02
#       7
#    16  16  16  16  16  16  16
#     4   8  15  29  51  78 105 131 163 208 258 306
#     4  11  22  37  55  76 102 136 181 222 257 305
#     4  10  21  36  53  75 108 143 171 211 266 316
#     4  10  21  36  53  75 105 140 177 218 266 313
#     4  10  20  35  54  76 106 137 168 211 264 314
#     4  10  19  33  54  79 106 138 176 213 254 310
#     4   9  17  32  55  80 104 134 175 221 266 312
#
# _framework density 19.124502
#
# number of rings (size 3 to 8) (size 9 to 14) (size 15 to 20)
#    0.000    2.286    0.000    4.714    0.000    1.429 
#    0.000    5.714    0.000    6.429    0.000    8.000 
#    0.000    0.000    0.000    0.000    0.000    0.000 
#
# Total GULP energy -693902.970473 kJ/mol
# GULP energy per Si atom -12391.124473 kJ/mol
# Density = 1.908097 g / cm^3
# Si number density = 19.124502 Si / 1000 Ang^3
#
#
#
# Elastic Constant Matrix: (Units=GPa)
#
#
# Indices 1 2 3 4 5 6 
#
# 1 134.9721 61.5518 19.1048 0.0000 0.0000 0.0000
# 2 61.5518 103.3104 23.2800 0.0000 0.0000 0.0000
# 3 19.1048 23.2800 55.5783 0.0000 0.0000 0.0000
# 4 0.0000 0.0000 0.0000 22.3561 0.0000 0.0000
# 5 0.0000 0.0000 0.0000 0.0000 23.8478 0.0000
# 6 0.0000 0.0000 0.0000 0.0000 0.0000 26.6852
#
#
#
# Elastic Compliance Matrix: (Units=1/GPa)
#
#
# Indices 1 2 3 4 5 6 
#
# 1 0.010230 -0.005855 -0.001064 0.000000 0.000000 0.000000
# 2 -0.005855 0.014040 -0.003868 0.000000 0.000000 0.000000
# 3 -0.001064 -0.003868 0.019979 0.000000 0.000000 0.000000
# 4 0.000000 0.000000 0.000000 0.044731 0.000000 0.000000
# 5 0.000000 0.000000 0.000000 0.000000 0.041933 0.000000
# 6 0.000000 0.000000 0.000000 0.000000 0.000000 0.037474
#
#
# Mechanical properties :
#
#
# Convention : Reuss Voigt Hill
#
# Bulk Modulus (GPa) = 44.10389 55.74820 49.92604
# Shear Modulus (GPa) = 25.31431 27.23944 26.27688
#
# Velocity S-wave (km/s) = 3.64216 3.77811 3.71076
# Velocity P-wave (km/s) = 6.38738 6.94591 6.67249
#
# Compressibility (1/GPa) = 0.02267374
#
# Stress axis : x y z
#
# Youngs Moduli (GPa) = 97.75549 71.22721 50.05364
#
# Poissons Ratio (x) = 0.41704 0.05325
# Poissons Ratio (y) = 0.57236 0.19361
# Poissons Ratio (z) = 0.10400 0.27551
#
# Static dielectric constant tensor:
#      x y z
#    x 3.533980 0.000000 0.000000 
#    y 0.000000 3.450460 0.000000 
#    z 0.000000 0.000000 3.344850 
# 
# 
# High freq. dielectric constant tensor:
#      x y z
#    x 1.746990 0.000000 0.000000 
#    y 0.000000 1.738710 0.000000 
#    z 0.000000 0.000000 1.733440 
# 
# From -- ./inp_files/38530.got.cif
#   From: 2010.03.12/outbox.cif.g09.slc.cpg/sg63_20_cif.got.tgz:38530.got - 2010.04.10 19:34:48.
