data_PCOD8257564
_publ_section_title
;
Structure prediction by ZEFSAII (Michael W. Deem and Ramdas Pophale) SiO2 
 PCOD8257564
Probable space group: C M C M
;
_chemical_formula_sum "Si O2"
_cell_formula_units_Z 104
_cell_length_a 20.151179
_cell_length_b 31.852224
_cell_length_c 8.911696
_cell_angle_alpha 90.000000
_cell_angle_beta 90.000000
_cell_angle_gamma 90.000000
_cell_volume 5720.060013
_symmetry_space_group_name_H-M "C M C M"
_symmetry_group_IT_number 63
_symmetry_cell_setting 'orthorhombic'
loop_
_space_group_symop_operation_xyz
x,y,z
-x,-y,1/2+z
x,-y,-z
-x,y,1/2-z
-x,-y,-z
x,y,1/2-z
-x,y,z
x,-y,1/2+z
1/2+x,1/2+y,z
1/2-x,1/2-y,1/2+z
1/2+x,1/2-y,-z
1/2-x,1/2+y,1/2-z
1/2-x,1/2-y,-z
1/2+x,1/2+y,1/2-z
1/2-x,1/2+y,z
1/2+x,1/2-y,1/2+z
loop_
_atom_site_type_symbol
_atom_site_label
_atom_site_fract_x
_atom_site_fract_y
_atom_site_fract_z
Si Si1 0.574678 0.813668 0.923108
Si Si2 0.802262 0.632394 0.075430
Si Si3 0.129262 0.928086 0.419390
Si Si4 0.678387 0.665822 0.917731
Si Si5 0.000000 0.954794 0.927599
Si Si6 0.075255 0.773055 0.573103
Si Si7 0.757292 0.458406 0.572166
O O1 0.582054 0.800383 0.750000
O O2 0.500000 0.829164 0.958670
O O3 0.623790 0.851933 0.963110
O O4 0.593941 0.773715 0.022225
O O5 0.785332 0.635441 0.250000
O O6 0.797388 0.583650 0.024057
O O7 0.750487 0.663386 0.994261
O O8 0.119126 0.945570 0.250000
O O9 0.148668 0.880088 0.414589
O O10 0.183858 0.955976 0.503160
O O11 0.063244 0.929476 0.516444
O O12 0.687262 0.683697 0.750000
O O13 0.628081 0.695207 0.005837
O O14 0.000000 0.957962 0.750000
O O15 0.000000 0.000000 0.000000
O O16 0.080506 0.775673 0.750000
O O17 0.000000 0.784101 0.519428
O O18 0.791672 0.500000 0.500000
O O19 0.753790 0.463471 0.750000
#
# Coordination Sequence:
#
# PCOD8257564 Si02
#       7
#    16  16  16  16   8  16  16
#     4   9  18  35  58  81 104 134 172 213 258 309
#     4   9  19  35  55  79 106 135 171 214 260 309
#     4  10  21  36  51  71  98 130 171 217 261 305
#     4  10  21  35  53  76 103 137 176 217 260 305
#     4  12  24  36  50  68  94 130 172 216 264 312
#     4  10  21  35  52  76 106 141 178 216 259 309
#     4  10  19  33  53  76 102 133 168 208 255 308
#
# _framework density 18.181626999999999
#
# number of rings (size 3 to 8) (size 9 to 14) (size 15 to 20)
#    0.000    2.154    0.000    3.000    1.077    4.615 
#    0.000    0.000    0.000    0.462    0.000    0.000 
#    0.000    0.000    0.000    0.000    0.000    0.462 
#
# Total GULP energy -644793.986862 kJ/mol
# GULP energy per Si atom -12399.884363 kJ/mol
# Density = 1.814025 g / cm^3
# Si number density = 18.181627 Si / 1000 Ang^3
#
#
#
# Elastic Constant Matrix: (Units=GPa)
#
#
# Indices 1 2 3 4 5 6 
#
# 1 101.2747 57.1500 42.9427 0.0000 0.0000 0.0000
# 2 57.1500 90.7658 41.2265 0.0000 0.0000 0.0000
# 3 42.9427 41.2265 97.2303 0.0000 0.0000 0.0000
# 4 0.0000 0.0000 0.0000 28.4324 0.0000 0.0000
# 5 0.0000 0.0000 0.0000 0.0000 22.5658 0.0000
# 6 0.0000 0.0000 0.0000 0.0000 0.0000 14.0457
#
#
#
# Elastic Compliance Matrix: (Units=1/GPa)
#
#
# Indices 1 2 3 4 5 6 
#
# 1 0.016230 -0.008624 -0.003511 0.000000 0.000000 0.000000
# 2 -0.008624 0.018228 -0.003920 0.000000 0.000000 0.000000
# 3 -0.003511 -0.003920 0.013498 0.000000 0.000000 0.000000
# 4 0.000000 0.000000 0.000000 0.035171 0.000000 0.000000
# 5 0.000000 0.000000 0.000000 0.000000 0.044315 0.000000
# 6 0.000000 0.000000 0.000000 0.000000 0.000000 0.071196
#
#
# Mechanical properties :
#
#
# Convention : Reuss Voigt Hill
#
# Bulk Modulus (GPa) = 63.11227 63.54548 63.32887
# Shear Modulus (GPa) = 21.18380 22.87221 22.02801
#
# Velocity S-wave (km/s) = 3.41709 3.55066 3.48451
# Velocity P-wave (km/s) = 7.09621 7.19971 7.14814
#
# Compressibility (1/GPa) = 0.01584478
#
# Stress axis : x y z
#
# Youngs Moduli (GPa) = 61.61584 54.86114 74.08649
#
# Poissons Ratio (x) = 0.47312 0.26014
# Poissons Ratio (y) = 0.53137 0.29041
# Poissons Ratio (z) = 0.21635 0.21505
#
# Static dielectric constant tensor:
#      x y z
#    x 3.305570 0.000000 0.000000 
#    y 0.000000 3.423600 0.000000 
#    z 0.000000 0.000000 3.612020 
# 
# 
# High freq. dielectric constant tensor:
#      x y z
#    x 1.690980 0.000000 0.000000 
#    y 0.000000 1.702310 0.000000 
#    z 0.000000 0.000000 1.716230 
# 
# From -- ./inp_files/9108.got.cif
#   From: 2010.03.12/outbox.cif.g09.slc.cpg/sg63_5_cif.got.tgz:9108.got - 2010.04.10 19:34:48.
