data_PCOD8257632
_publ_section_title
;
Structure prediction by ZEFSAII (Michael W. Deem and Ramdas Pophale) SiO2 
 PCOD8257632
Probable space group: C M C M
;
_chemical_formula_sum "Si O2"
_cell_formula_units_Z 104
_cell_length_a 31.737572
_cell_length_b 19.500480
_cell_length_c 9.105333
_cell_angle_alpha 90.000000
_cell_angle_beta 90.000000
_cell_angle_gamma 90.000000
_cell_volume 5635.271364
_symmetry_space_group_name_H-M "C M C M"
_symmetry_group_IT_number 63
_symmetry_cell_setting 'orthorhombic'
loop_
_space_group_symop_operation_xyz
x,y,z
-x,-y,1/2+z
x,-y,-z
-x,y,1/2-z
-x,-y,-z
x,y,1/2-z
-x,y,z
x,-y,1/2+z
1/2+x,1/2+y,z
1/2-x,1/2-y,1/2+z
1/2+x,1/2-y,-z
1/2-x,1/2+y,1/2-z
1/2-x,1/2-y,-z
1/2+x,1/2+y,1/2-z
1/2-x,1/2+y,z
1/2+x,1/2-y,1/2+z
loop_
_atom_site_type_symbol
_atom_site_label
_atom_site_fract_x
_atom_site_fract_y
_atom_site_fract_z
Si Si1 0.920540 0.837553 0.078788
Si Si2 0.271146 0.351641 0.919564
Si Si3 0.048399 0.432121 0.078074
Si Si4 0.305577 0.799424 0.418952
Si Si5 0.841560 0.930512 0.422853
Si Si6 0.901259 0.299722 0.076480
Si Si7 0.500000 0.427035 0.076723
O O1 0.924572 0.821843 0.250000
O O2 0.876576 0.873897 0.040566
O O3 0.958826 0.885322 0.025551
O O4 0.923178 0.765918 0.994923
O O5 0.269414 0.373606 0.750000
O O6 0.293676 0.279295 0.942362
O O7 0.223829 0.348311 0.982793
O O8 0.296918 0.408010 0.010061
O O9 0.054377 0.442611 0.250000
O O10 0.074213 0.366749 0.021371
O O11 0.000000 0.419814 0.034585
O O12 0.066276 0.500000 0.000000
O O13 0.300092 0.821365 0.250000
O O14 0.353106 0.808597 0.474788
O O15 0.836669 0.942554 0.250000
O O16 0.856567 0.000000 0.500000
O O17 0.904086 0.289847 0.250000
O O18 0.500000 0.439511 0.250000
O O19 0.500000 0.500000 0.000000
#
# Coordination Sequence:
#
# PCOD8257632 Si02
#       7
#    16  16  16  16  16  16   8
#     4  10  22  37  55  81 113 146 186 233 280 330
#     4  10  19  33  54  79 106 141 183 223 271 328
#     4   9  19  36  57  82 111 143 179 218 266 325
#     4   9  18  33  53  78 109 142 176 222 273 323
#     4  11  22  36  55  79 110 148 189 234 279 327
#     4  10  20  35  57  85 113 144 185 230 274 326
#     4  10  22  40  56  78 111 150 191 232 281 334
#
# _framework density 18.455188
#
# number of rings (size 3 to 8) (size 9 to 14) (size 15 to 20)
#    0.000    2.154    1.538    1.385    1.077    3.077 
#    0.000    0.769    0.000    1.846    0.000    0.000 
#    0.000    0.000    0.000    0.000    0.000    0.000 
#
# Total GULP energy -645011.310567 kJ/mol
# GULP energy per Si atom -12404.063665 kJ/mol
# Density = 1.841318 g / cm^3
# Si number density = 18.455188 Si / 1000 Ang^3
#
#
#
# Elastic Constant Matrix: (Units=GPa)
#
#
# Indices 1 2 3 4 5 6 
#
# 1 113.2195 67.9246 42.7431 0.0000 0.0000 0.0000
# 2 67.9246 134.6714 54.7689 0.0000 0.0000 0.0000
# 3 42.7431 54.7689 67.5905 0.0000 0.0000 0.0000
# 4 0.0000 0.0000 0.0000 36.1279 0.0000 0.0000
# 5 0.0000 0.0000 0.0000 0.0000 23.9049 0.0000
# 6 0.0000 0.0000 0.0000 0.0000 0.0000 24.1250
#
#
#
# Elastic Compliance Matrix: (Units=1/GPa)
#
#
# Indices 1 2 3 4 5 6 
#
# 1 0.013529 -0.004988 -0.004514 0.000000 0.000000 0.000000
# 2 -0.004988 0.012914 -0.007310 0.000000 0.000000 0.000000
# 3 -0.004514 -0.007310 0.023573 0.000000 0.000000 0.000000
# 4 0.000000 0.000000 0.000000 0.027679 0.000000 0.000000
# 5 0.000000 0.000000 0.000000 0.000000 0.041833 0.000000
# 6 0.000000 0.000000 0.000000 0.000000 0.000000 0.041451
#
#
# Mechanical properties :
#
#
# Convention : Reuss Voigt Hill
#
# Bulk Modulus (GPa) = 61.00413 71.81720 66.41066
# Shear Modulus (GPa) = 24.99171 26.83453 25.91312
#
# Velocity S-wave (km/s) = 3.68392 3.81732 3.75121
# Velocity P-wave (km/s) = 7.15696 7.64383 7.40439
#
# Compressibility (1/GPa) = 0.01639233
#
# Stress axis : x y z
#
# Youngs Moduli (GPa) = 73.91594 77.43409 42.42181
#
# Poissons Ratio (x) = 0.38624 0.19148
# Poissons Ratio (y) = 0.36869 0.31011
# Poissons Ratio (z) = 0.33363 0.56605
#
# Static dielectric constant tensor:
#      x y z
#    x 3.524110 0.000000 0.000000 
#    y 0.000000 3.308100 0.000000 
#    z 0.000000 0.000000 3.324040 
# 
# 
# High freq. dielectric constant tensor:
#      x y z
#    x 1.721010 0.000000 0.000000 
#    y 0.000000 1.708490 0.000000 
#    z 0.000000 0.000000 1.713530 
# 
# From -- ./inp_files/14491.got.cif
#   From: 2010.03.12/outbox.cif.g09.slc.cpg/sg63_8_cif.got.tgz:14491.got - 2010.04.10 19:34:48.
