data_PCOD8257184
_publ_section_title
;
Structure prediction by ZEFSAII (Michael W. Deem and Ramdas Pophale) SiO2 
 PCOD8257184
Probable space group: C M C M
;
_chemical_formula_sum "Si O2"
_cell_formula_units_Z 96
_cell_length_a 9.275041
_cell_length_b 29.577205
_cell_length_c 20.621320
_cell_angle_alpha 90.000000
_cell_angle_beta 90.000000
_cell_angle_gamma 90.000000
_cell_volume 5657.042365
_symmetry_space_group_name_H-M "C M C M"
_symmetry_group_IT_number 63
_symmetry_cell_setting 'orthorhombic'
loop_
_space_group_symop_operation_xyz
x,y,z
-x,-y,1/2+z
x,-y,-z
-x,y,1/2-z
-x,-y,-z
x,y,1/2-z
-x,y,z
x,-y,1/2+z
1/2+x,1/2+y,z
1/2-x,1/2-y,1/2+z
1/2+x,1/2-y,-z
1/2-x,1/2+y,1/2-z
1/2-x,1/2-y,-z
1/2+x,1/2+y,1/2-z
1/2-x,1/2+y,z
1/2+x,1/2-y,1/2+z
loop_
_atom_site_type_symbol
_atom_site_label
_atom_site_fract_x
_atom_site_fract_y
_atom_site_fract_z
Si Si1 0.169235 0.948102 0.677972
Si Si2 0.838140 0.873136 0.987798
Si Si3 0.170795 0.782999 0.450533
Si Si4 0.339932 0.653115 0.344683
Si Si5 0.168695 0.460131 0.950003
Si Si6 0.165636 0.739615 0.320181
O O1 0.203739 0.968634 0.750000
O O2 0.214719 0.895685 0.679284
O O3 0.257055 0.971929 0.619513
O O4 0.000000 0.952928 0.661611
O O5 0.837521 0.844623 0.921951
O O6 0.730299 0.915136 0.983901
O O7 0.000000 0.891394 0.002361
O O8 0.787180 0.835931 0.040467
O O9 0.250000 0.750000 0.500000
O O10 0.224912 0.771117 0.377831
O O11 0.000000 0.776795 0.460277
O O12 0.500000 0.661891 0.317887
O O13 0.238762 0.691039 0.316080
O O14 0.000000 0.453464 0.937465
O O15 0.200986 0.500000 0.000000
O O16 0.188643 0.763735 0.250000
O O17 0.000000 0.729533 0.333878
#
# Coordination Sequence:
#
# PCOD8257184 Si02
#       6
#    16  16  16  16  16  16
#     4   9  18  32  50  73 102 133 163 199 245 300
#     4   9  18  32  50  71  94 127 169 208 248 292
#     4  10  19  32  49  69  96 129 168 205 239 284
#     4   9  16  28  45  67  96 127 159 194 235 286
#     4  10  21  35  52  76 103 130 164 207 257 305
#     4  10  20  30  42  65  97 130 162 200 245 287
#
# _framework density 16.969998
#
# number of rings (size 3 to 8) (size 9 to 14) (size 15 to 20)
#    0.000    2.500    1.667    2.000    0.000    6.000 
#    0.000    0.000    0.000    1.000    0.000    2.333 
#    0.000    0.000    0.000    0.000    0.000    0.000 
#
# Total GULP energy -594870.674710 kJ/mol
# GULP energy per Si atom -12393.139056 kJ/mol
# Density = 1.693137 g / cm^3
# Si number density = 16.969998 Si / 1000 Ang^3
#
#
#
# Elastic Constant Matrix: (Units=GPa)
#
#
# Indices 1 2 3 4 5 6 
#
# 1 63.8040 40.4971 52.3840 0.0000 0.0000 0.0000
# 2 40.4971 68.9878 56.7813 0.0000 0.0000 0.0000
# 3 52.3840 56.7813 132.4830 0.0000 0.0000 0.0000
# 4 0.0000 0.0000 0.0000 17.4071 0.0000 0.0000
# 5 0.0000 0.0000 0.0000 0.0000 18.5137 0.0000
# 6 0.0000 0.0000 0.0000 0.0000 0.0000 24.4696
#
#
#
# Elastic Compliance Matrix: (Units=1/GPa)
#
#
# Indices 1 2 3 4 5 6 
#
# 1 0.027934 -0.011289 -0.006207 0.000000 0.000000 0.000000
# 2 -0.011289 0.026958 -0.007090 0.000000 0.000000 0.000000
# 3 -0.006207 -0.007090 0.013041 0.000000 0.000000 0.000000
# 4 0.000000 0.000000 0.000000 0.057448 0.000000 0.000000
# 5 0.000000 0.000000 0.000000 0.000000 0.054014 0.000000
# 6 0.000000 0.000000 0.000000 0.000000 0.000000 0.040867
#
#
# Mechanical properties :
#
#
# Convention : Reuss Voigt Hill
#
# Bulk Modulus (GPa) = 53.30253 62.73329 58.01791
# Shear Modulus (GPa) = 18.13638 19.78556 18.96097
#
# Velocity S-wave (km/s) = 3.27269 3.41825 3.34626
# Velocity P-wave (km/s) = 6.76452 7.25443 7.01375
#
# Compressibility (1/GPa) = 0.01876084
#
# Stress axis : x y z
#
# Youngs Moduli (GPa) = 35.79819 37.09459 76.68079
#
# Poissons Ratio (x) = 0.41878 0.47594
# Poissons Ratio (y) = 0.40414 0.54368
# Poissons Ratio (z) = 0.22219 0.26301
#
# Static dielectric constant tensor:
#      x y z
#    x 3.145420 0.000000 0.000000 
#    y 0.000000 2.901990 0.000000 
#    z 0.000000 0.000000 3.516020 
# 
# 
# High freq. dielectric constant tensor:
#      x y z
#    x 1.650380 0.000000 0.000000 
#    y 0.000000 1.618860 0.000000 
#    z 0.000000 0.000000 1.662750 
# 
# From -- ./inp_files/60248.got.cif
#   From: 2010.03.12/outbox.cif.g09.slc.cpg/sg63_31_cif.got.tgz:60248.got - 2010.04.10 19:34:48.
