data_PCOD8257114
_publ_section_title
;
Structure prediction by ZEFSAII (Michael W. Deem and Ramdas Pophale) SiO2 
 PCOD8257114
Probable space group: C M C M
;
_chemical_formula_sum "Si O2"
_cell_formula_units_Z 96
_cell_length_a 9.008364
_cell_length_b 25.478229
_cell_length_c 23.180943
_cell_angle_alpha 90.000000
_cell_angle_beta 90.000000
_cell_angle_gamma 90.000000
_cell_volume 5320.424225
_symmetry_space_group_name_H-M "C M C M"
_symmetry_group_IT_number 63
_symmetry_cell_setting 'orthorhombic'
loop_
_space_group_symop_operation_xyz
x,y,z
-x,-y,1/2+z
x,-y,-z
-x,y,1/2-z
-x,-y,-z
x,y,1/2-z
-x,y,z
x,-y,1/2+z
1/2+x,1/2+y,z
1/2-x,1/2-y,1/2+z
1/2+x,1/2-y,-z
1/2-x,1/2+y,1/2-z
1/2-x,1/2-y,-z
1/2+x,1/2+y,1/2-z
1/2-x,1/2+y,z
1/2+x,1/2-y,1/2+z
loop_
_atom_site_type_symbol
_atom_site_label
_atom_site_fract_x
_atom_site_fract_y
_atom_site_fract_z
Si Si1 0.674489 0.155810 0.883866
Si Si2 0.325755 0.552350 0.183551
Si Si3 0.327736 0.944470 0.316680
Si Si4 0.329722 0.744108 0.316394
Si Si5 0.175511 0.350650 0.627760
Si Si6 0.326330 0.194319 0.494071
O O1 0.500000 0.155886 0.872349
O O2 0.738699 0.102985 0.855196
O O3 0.738972 0.207934 0.853226
O O4 0.715436 0.157483 0.951498
O O5 0.286600 0.565111 0.250000
O O6 0.500000 0.554334 0.172536
O O7 0.266045 0.495325 0.166344
O O8 0.246598 0.593711 0.142327
O O9 0.305641 0.929173 0.250000
O O10 0.500000 0.955755 0.330371
O O11 0.317829 0.760047 0.250000
O O12 0.500000 0.732108 0.333909
O O13 0.233325 0.692549 0.327537
O O14 0.227045 0.335304 0.563293
O O15 0.000000 0.355290 0.633193
O O16 0.500000 0.205572 0.492298
O O17 0.250000 0.250000 0.500000
#
# Coordination Sequence:
#
# PCOD8257114 Si02
#       6
#    16  16  16  16  16  16
#     4   9  17  32  54  78 105 136 173 214 258 311
#     4  10  21  37  56  77 103 138 176 214 263 318
#     4   9  17  32  56  82 105 132 169 215 265 313
#     4  10  19  31  51  78 106 137 172 212 261 316
#     4  11  22  34  51  77 106 138 178 218 260 308
#     4  10  20  35  54  76 104 142 181 215 257 308
#
# _framework density 18.043675
#
# number of rings (size 3 to 8) (size 9 to 14) (size 15 to 20)
#    0.000    2.167    1.667    2.000    0.000    6.000 
#    0.000    2.500    0.000    7.000    0.000    0.000 
#    0.000    0.000    0.000    0.000    0.000    0.000 
#
# Total GULP energy -595310.638640 kJ/mol
# GULP energy per Si atom -12402.304972 kJ/mol
# Density = 1.800261 g / cm^3
# Si number density = 18.043675 Si / 1000 Ang^3
#
#
#
# Elastic Constant Matrix: (Units=GPa)
#
#
# Indices 1 2 3 4 5 6 
#
# 1 52.1520 42.9645 32.6725 0.0000 0.0000 0.0000
# 2 42.9645 134.2680 59.5583 0.0000 0.0000 0.0000
# 3 32.6725 59.5583 99.1628 0.0000 0.0000 0.0000
# 4 0.0000 0.0000 0.0000 32.3709 0.0000 0.0000
# 5 0.0000 0.0000 0.0000 0.0000 20.8360 0.0000
# 6 0.0000 0.0000 0.0000 0.0000 0.0000 29.1581
#
#
#
# Elastic Compliance Matrix: (Units=1/GPa)
#
#
# Indices 1 2 3 4 5 6 
#
# 1 0.027890 -0.006609 -0.005220 0.000000 0.000000 0.000000
# 2 -0.006609 0.011719 -0.004861 0.000000 0.000000 0.000000
# 3 -0.005220 -0.004861 0.014724 0.000000 0.000000 0.000000
# 4 0.000000 0.000000 0.000000 0.030892 0.000000 0.000000
# 5 0.000000 0.000000 0.000000 0.000000 0.047994 0.000000
# 6 0.000000 0.000000 0.000000 0.000000 0.000000 0.034296
#
#
# Mechanical properties :
#
#
# Convention : Reuss Voigt Hill
#
# Bulk Modulus (GPa) = 47.72617 61.77482 54.75049
# Shear Modulus (GPa) = 24.05269 26.49884 25.27576
#
# Velocity S-wave (km/s) = 3.65502 3.83638 3.74680
# Velocity P-wave (km/s) = 6.65733 7.34400 7.00908
#
# Compressibility (1/GPa) = 0.02095286
#
# Stress axis : x y z
#
# Youngs Moduli (GPa) = 35.85578 85.33298 67.91769
#
# Poissons Ratio (x) = 0.56397 0.35451
# Poissons Ratio (y) = 0.23697 0.33014
# Poissons Ratio (z) = 0.18715 0.41479
#
# Static dielectric constant tensor:
#      x y z
#    x 3.179630 0.000000 0.000000 
#    y 0.000000 3.392390 0.000000 
#    z 0.000000 0.000000 3.500800 
# 
# 
# High freq. dielectric constant tensor:
#      x y z
#    x 1.681210 0.000000 0.000000 
#    y 0.000000 1.701600 0.000000 
#    z 0.000000 0.000000 1.699750 
# 
# From -- ./inp_files/59825.got.cif
#   From: 2010.03.12/outbox.cif.g09.slc.cpg/sg63_30_cif.got.tgz:59825.got - 2010.04.10 19:34:48.
