data_PCOD8257214
_publ_section_title
;
Structure prediction by ZEFSAII (Michael W. Deem and Ramdas Pophale) SiO2 
 PCOD8257214
Probable space group: C M C M
;
_chemical_formula_sum "Si O2"
_cell_formula_units_Z 72
_cell_length_a 15.208115
_cell_length_b 14.741769
_cell_length_c 18.716231
_cell_angle_alpha 90.000000
_cell_angle_beta 90.000000
_cell_angle_gamma 90.000000
_cell_volume 4196.076393
_symmetry_space_group_name_H-M "C M C M"
_symmetry_group_IT_number 63
_symmetry_cell_setting 'orthorhombic'
loop_
_space_group_symop_operation_xyz
x,y,z
-x,-y,1/2+z
x,-y,-z
-x,y,1/2-z
-x,-y,-z
x,y,1/2-z
-x,y,z
x,-y,1/2+z
1/2+x,1/2+y,z
1/2-x,1/2-y,1/2+z
1/2+x,1/2-y,-z
1/2-x,1/2+y,1/2-z
1/2-x,1/2-y,-z
1/2+x,1/2+y,1/2-z
1/2-x,1/2+y,z
1/2+x,1/2-y,1/2+z
loop_
_atom_site_type_symbol
_atom_site_label
_atom_site_fract_x
_atom_site_fract_y
_atom_site_fract_z
Si Si1 0.399081 0.646026 0.830405
Si Si2 0.098915 0.051999 0.123415
Si Si3 0.600695 0.747249 0.170502
Si Si4 0.718882 0.500000 0.000000
Si Si5 0.756053 0.681432 0.565721
O O1 0.378269 0.680984 0.750000
O O2 0.500000 0.670378 0.851206
O O3 0.384695 0.537710 0.829913
O O4 0.333857 0.691346 0.888034
O O5 0.119554 0.139550 0.171281
O O6 0.000000 0.054629 0.094229
O O7 0.159545 0.056681 0.054291
O O8 0.621322 0.783659 0.250000
O O9 0.500000 0.767368 0.149531
O O10 0.660618 0.798521 0.114280
O O11 0.774454 0.578076 0.960320
O O12 0.750000 0.750000 0.500000
#
# Coordination Sequence:
#
# PCOD8257214 Si02
#       5
#    16  16  16   8  16
#     4   9  18  32  52  78 106 134 165 209 266 318
#     4   9  16  28  50  78 106 131 162 207 263 318
#     4  10  20  34  53  76 103 137 177 217 256 300
#     4  10  19  32  49  76 108 134 170 206 258 308
#     4  11  21  34  52  77 106 138 173 211 255 308
#
# _framework density 17.158887
#
# number of rings (size 3 to 8) (size 9 to 14) (size 15 to 20)
#    0.000    2.222    2.222    1.667    0.000    4.444 
#    0.000    0.556    0.000    0.000    0.000    3.111 
#    0.000    0.000    0.000    0.000    0.000    0.000 
#
# Total GULP energy -446268.264977 kJ/mol
# GULP energy per Si atom -12396.340694 kJ/mol
# Density = 1.711983 g / cm^3
# Si number density = 17.158887 Si / 1000 Ang^3
#
#
#
# Elastic Constant Matrix: (Units=GPa)
#
#
# Indices 1 2 3 4 5 6 
#
# 1 99.7928 49.6317 74.0088 0.0000 0.0000 0.0000
# 2 49.6317 76.2402 49.0940 0.0000 0.0000 0.0000
# 3 74.0088 49.0940 125.4449 0.0000 0.0000 0.0000
# 4 0.0000 0.0000 0.0000 26.5966 0.0000 0.0000
# 5 0.0000 0.0000 0.0000 0.0000 18.3304 0.0000
# 6 0.0000 0.0000 0.0000 0.0000 0.0000 -2.9652
#
#
#
# Elastic Compliance Matrix: (Units=1/GPa)
#
#
# Indices 1 2 3 4 5 6 
#
# 1 0.020559 -0.007451 -0.009213 0.000000 0.000000 0.000000
# 2 -0.007451 0.020236 -0.003524 0.000000 0.000000 0.000000
# 3 -0.009213 -0.003524 0.014786 0.000000 0.000000 0.000000
# 4 0.000000 0.000000 0.000000 0.037599 0.000000 0.000000
# 5 0.000000 0.000000 0.000000 0.000000 0.054554 0.000000
# 6 0.000000 0.000000 0.000000 0.000000 0.000000 -0.337242
#
#
# Mechanical properties :
#
#
# Convention : Reuss Voigt Hill
#
# Bulk Modulus (GPa) = 65.76585 71.88298 68.82442
# Shear Modulus (GPa) = -34.70716 16.97524 -8.86596
#
# Velocity S-wave (km/s) = -4.50232 3.14872 -2.27557
# Velocity P-wave (km/s) = 3.37387 7.42986 5.77000
#
# Compressibility (1/GPa) = 0.01520546
#
# Stress axis : x y z
#
# Youngs Moduli (GPa) = 48.63943 49.41670 67.63037
#
# Poissons Ratio (x) = 0.36821 0.62311
# Poissons Ratio (y) = 0.36242 0.23830
# Poissons Ratio (z) = 0.44813 0.17413
#
# Static dielectric constant tensor:
#      x y z
#    x 3.142220 0.000000 0.000000 
#    y 0.000000 3.078490 0.000000 
#    z 0.000000 0.000000 3.422180 
# 
# 
# High freq. dielectric constant tensor:
#      x y z
#    x 1.647680 0.000000 0.000000 
#    y 0.000000 1.641320 0.000000 
#    z 0.000000 0.000000 1.677010 
# 
# From -- ./inp_files/43748.got.cif
#   From: 2010.03.12/outbox.cif.g09.slc.cpg/sg63_22_cif.got.tgz:43748.got - 2010.04.10 19:34:48.
