data_PCOD8257029
_publ_section_title
;
Structure prediction by ZEFSAII (Michael W. Deem and Ramdas Pophale) SiO2 
 PCOD8257029
Probable space group: C M C M
;
_chemical_formula_sum "Si O2"
_cell_formula_units_Z 96
_cell_length_a 9.042497
_cell_length_b 31.211237
_cell_length_c 18.224538
_cell_angle_alpha 90.000000
_cell_angle_beta 90.000000
_cell_angle_gamma 90.000000
_cell_volume 5143.466107
_symmetry_space_group_name_H-M "C M C M"
_symmetry_group_IT_number 63
_symmetry_cell_setting 'orthorhombic'
loop_
_space_group_symop_operation_xyz
x,y,z
-x,-y,1/2+z
x,-y,-z
-x,y,1/2-z
-x,-y,-z
x,y,1/2-z
-x,y,z
x,-y,1/2+z
1/2+x,1/2+y,z
1/2-x,1/2-y,1/2+z
1/2+x,1/2-y,-z
1/2-x,1/2+y,1/2-z
1/2-x,1/2-y,-z
1/2+x,1/2+y,1/2-z
1/2-x,1/2+y,z
1/2+x,1/2-y,1/2+z
loop_
_atom_site_type_symbol
_atom_site_label
_atom_site_fract_x
_atom_site_fract_y
_atom_site_fract_z
Si Si1 0.676061 0.499888 0.667204
Si Si2 0.175438 0.917563 0.917918
Si Si3 0.172789 0.833644 0.664637
Si Si4 0.675350 0.414862 0.414424
Si Si5 0.333300 0.748901 0.837213
Si Si6 0.326948 0.836245 0.335613
O O1 0.737935 0.499461 0.750000
O O2 0.500000 0.498334 0.667186
O O3 0.741045 0.458884 0.624102
O O4 0.730889 0.542813 0.627328
O O5 0.234659 0.874519 0.879395
O O6 0.000000 0.918801 0.912392
O O7 0.227508 0.918920 0.001750
O O8 0.206139 0.841628 0.750000
O O9 0.256882 0.792097 0.633330
O O10 0.000000 0.826210 0.650862
O O11 0.500000 0.408768 0.407671
O O12 0.754043 0.374565 0.379292
O O13 0.330396 0.749681 0.750000
O O14 0.500000 0.746398 0.867620
O O15 0.243117 0.707839 0.865647
O O16 0.291840 0.842652 0.250000
O O17 0.500000 0.834759 0.351314
#
# Coordination Sequence:
#
# PCOD8257029 Si02
#       6
#    16  16  16  16  16  16
#     4   9  16  27  47  75 102 129 166 209 247 285
#     4   9  17  29  46  71 103 135 165 201 246 293
#     4   9  16  28  48  72  98 130 168 206 244 290
#     4  10  19  31  49  74 103 132 164 204 248 291
#     4   9  17  30  50  75 100 125 159 206 253 292
#     4  10  20  34  52  73  98 129 165 203 244 294
#
# _framework density 18.664456000000001
#
# number of rings (size 3 to 8) (size 9 to 14) (size 15 to 20)
#    0.000    2.667    0.000    2.500    0.000    7.667 
#    0.000    1.667    0.000    3.000    0.000    2.333 
#    0.000    0.000    0.000    0.000    0.000    0.000 
#
# Total GULP energy -595225.803983 kJ/mol
# GULP energy per Si atom -12400.537583 kJ/mol
# Density = 1.862197 g / cm^3
# Si number density = 18.664456 Si / 1000 Ang^3
#
#
#
# Elastic Constant Matrix: (Units=GPa)
#
#
# Indices 1 2 3 4 5 6 
#
# 1 52.1251 52.6159 39.3047 0.0000 0.0000 0.0000
# 2 52.6159 212.8462 94.0931 0.0000 0.0000 0.0000
# 3 39.3047 94.0931 114.4888 0.0000 0.0000 0.0000
# 4 0.0000 0.0000 0.0000 -26.8310 0.0000 0.0000
# 5 0.0000 0.0000 0.0000 0.0000 13.3928 0.0000
# 6 0.0000 0.0000 0.0000 0.0000 0.0000 26.4496
#
#
#
# Elastic Compliance Matrix: (Units=1/GPa)
#
#
# Indices 1 2 3 4 5 6 
#
# 1 0.028100 -0.004212 -0.006185 0.000000 0.000000 0.000000
# 2 -0.004212 0.008011 -0.005138 0.000000 0.000000 0.000000
# 3 -0.006185 -0.005138 0.015080 0.000000 0.000000 0.000000
# 4 0.000000 0.000000 0.000000 -0.037270 0.000000 0.000000
# 5 0.000000 0.000000 0.000000 0.000000 0.074667 0.000000
# 6 0.000000 0.000000 0.000000 0.000000 0.000000 0.037808
#
#
# Mechanical properties :
#
#
# Convention : Reuss Voigt Hill
#
# Bulk Modulus (GPa) = 49.69840 83.49862 66.59851
# Shear Modulus (GPa) = 30.45573 15.49871 22.97722
#
# Velocity S-wave (km/s) = 4.04388 2.88477 3.51246
# Velocity P-wave (km/s) = 6.96340 7.47861 7.22560
#
# Compressibility (1/GPa) = 0.02012137
#
# Stress axis : x y z
#
# Youngs Moduli (GPa) = 35.58671 124.83441 66.31213
#
# Poissons Ratio (x) = 0.52582 0.41016
# Poissons Ratio (y) = 0.14990 0.34068
# Poissons Ratio (z) = 0.22011 0.64134
#
# Static dielectric constant tensor:
#      x y z
#    x 3.099050 0.000000 0.000000 
#    y 0.000000 3.698070 0.000000 
#    z 0.000000 0.000000 3.389500 
# 
# 
# High freq. dielectric constant tensor:
#      x y z
#    x 1.684780 0.000000 0.000000 
#    y 0.000000 1.745690 0.000000 
#    z 0.000000 0.000000 1.709830 
# 
# From -- ./inp_files/51288.got.cif
#   From: 2010.03.12/outbox.cif.g09.slc.cpg/sg63_26_cif.got.tgz:51288.got - 2010.04.10 19:34:48.
