data_PCOD8257245
_publ_section_title
;
Structure prediction by ZEFSAII (Michael W. Deem and Ramdas Pophale) SiO2 
 PCOD8257245
Probable space group: C M C M
;
_chemical_formula_sum "Si O2"
_cell_formula_units_Z 96
_cell_length_a 12.113499
_cell_length_b 31.597666
_cell_length_c 14.103519
_cell_angle_alpha 90.000000
_cell_angle_beta 90.000000
_cell_angle_gamma 90.000000
_cell_volume 5398.238893
_symmetry_space_group_name_H-M "C M C M"
_symmetry_group_IT_number 63
_symmetry_cell_setting 'orthorhombic'
loop_
_space_group_symop_operation_xyz
x,y,z
-x,-y,1/2+z
x,-y,-z
-x,y,1/2-z
-x,-y,-z
x,y,1/2-z
-x,y,z
x,-y,1/2+z
1/2+x,1/2+y,z
1/2-x,1/2-y,1/2+z
1/2+x,1/2-y,-z
1/2-x,1/2+y,1/2-z
1/2-x,1/2-y,-z
1/2+x,1/2+y,1/2-z
1/2-x,1/2+y,z
1/2+x,1/2-y,1/2+z
loop_
_atom_site_type_symbol
_atom_site_label
_atom_site_fract_x
_atom_site_fract_y
_atom_site_fract_z
Si Si1 0.000000 0.077404 0.138001
Si Si2 0.373416 0.029479 0.859442
Si Si3 0.762729 0.051390 0.361757
Si Si4 0.295050 0.728701 0.362595
Si Si5 0.126854 0.602732 0.498254
Si Si6 0.000000 0.827821 0.637822
Si Si7 0.628375 0.198991 0.510222
O O1 0.891015 0.051669 0.105814
O O2 0.000000 0.124835 0.093915
O O3 0.000000 0.082217 0.250000
O O4 0.350992 0.039328 0.750000
O O5 0.500000 0.015426 0.876955
O O6 0.294766 0.991864 0.896554
O O7 0.342964 0.071901 0.915017
O O8 0.750239 0.057144 0.250000
O O9 0.701245 0.091359 0.407771
O O10 0.279522 0.730307 0.250000
O O11 0.391470 0.696923 0.396290
O O12 0.323493 0.775523 0.400236
O O13 0.182802 0.712850 0.410917
O O14 0.153054 0.650003 0.531946
O O15 0.000000 0.597849 0.467430
O O16 0.000000 0.829786 0.750000
O O17 0.500000 0.208230 0.498784
#
# Coordination Sequence:
#
# PCOD8257245 Si02
#       7
#     8  16  16  16  16   8  16
#     4   9  18  30  47  73 100 130 169 214 248 290
#     4   9  18  33  52  73  99 137 176 209 252 304
#     4  10  19  32  50  74 104 137 175 213 255 303
#     4  10  20  35  55  77 103 137 171 211 264 318
#     4  10  20  33  51  76 106 134 165 212 261 306
#     4   9  16  30  52  73  96 130 171 208 257 310
#     4  10  21  35  52  79 107 133 172 217 263 315
#
# _framework density 17.783579
#
# number of rings (size 3 to 8) (size 9 to 14) (size 15 to 20)
#    0.000    2.333    0.833    2.000    0.000    5.333 
#    0.000    5.000    0.000    0.000    0.000    0.000 
#    0.000    0.000    0.000    0.000    0.000    0.000 
#
# Total GULP energy -595246.224365 kJ/mol
# GULP energy per Si atom -12400.963008 kJ/mol
# Density = 1.774310 g / cm^3
# Si number density = 17.783579 Si / 1000 Ang^3
#
#
#
# Elastic Constant Matrix: (Units=GPa)
#
#
# Indices 1 2 3 4 5 6 
#
# 1 86.6036 63.2970 31.5704 0.0000 0.0000 0.0000
# 2 63.2970 130.1068 39.3694 0.0000 0.0000 0.0000
# 3 31.5704 39.3694 63.0711 0.0000 0.0000 0.0000
# 4 0.0000 0.0000 0.0000 20.9316 0.0000 0.0000
# 5 0.0000 0.0000 0.0000 0.0000 17.4851 0.0000
# 6 0.0000 0.0000 0.0000 0.0000 0.0000 20.8048
#
#
#
# Elastic Compliance Matrix: (Units=1/GPa)
#
#
# Indices 1 2 3 4 5 6 
#
# 1 0.018941 -0.007824 -0.004597 0.000000 0.000000 0.000000
# 2 -0.007824 0.012707 -0.004016 0.000000 0.000000 0.000000
# 3 -0.004597 -0.004016 0.020663 0.000000 0.000000 0.000000
# 4 0.000000 0.000000 0.000000 0.047775 0.000000 0.000000
# 5 0.000000 0.000000 0.000000 0.000000 0.057192 0.000000
# 6 0.000000 0.000000 0.000000 0.000000 0.000000 0.048066
#
#
# Mechanical properties :
#
#
# Convention : Reuss Voigt Hill
#
# Bulk Modulus (GPa) = 51.44664 60.91724 56.18194
# Shear Modulus (GPa) = 20.43349 21.54729 20.99039
#
# Velocity S-wave (km/s) = 3.39338 3.48464 3.43931
# Velocity P-wave (km/s) = 6.65924 7.10770 6.88712
#
# Compressibility (1/GPa) = 0.01943762
#
# Stress axis : x y z
#
# Youngs Moduli (GPa) = 52.79575 78.69449 48.39550
#
# Poissons Ratio (x) = 0.61568 0.22249
# Poissons Ratio (y) = 0.41305 0.19435
# Poissons Ratio (z) = 0.24272 0.31603
#
# Static dielectric constant tensor:
#      x y z
#    x 3.474590 0.000000 0.000000 
#    y 0.000000 3.446660 0.000000 
#    z 0.000000 0.000000 3.089950 
# 
# 
# High freq. dielectric constant tensor:
#      x y z
#    x 1.690860 0.000000 0.000000 
#    y 0.000000 1.693590 0.000000 
#    z 0.000000 0.000000 1.669880 
# 
# From -- ./inp_files/30335.got.cif
#   From: 2010.03.12/outbox.cif.g09.slc.cpg/sg63_16_cif.got.tgz:30335.got - 2010.04.10 19:34:48.
