data_PCOD8257731
_publ_section_title
;
Structure prediction by ZEFSAII (Michael W. Deem and Ramdas Pophale) SiO2 
 PCOD8257731
Probable space group: C M C M
;
_chemical_formula_sum "Si O2"
_cell_formula_units_Z 104
_cell_length_a 22.195369
_cell_length_b 28.250468
_cell_length_c 8.645400
_cell_angle_alpha 90.000000
_cell_angle_beta 90.000000
_cell_angle_gamma 90.000000
_cell_volume 5420.921373
_symmetry_space_group_name_H-M "C M C M"
_symmetry_group_IT_number 63
_symmetry_cell_setting 'orthorhombic'
loop_
_space_group_symop_operation_xyz
x,y,z
-x,-y,1/2+z
x,-y,-z
-x,y,1/2-z
-x,-y,-z
x,y,1/2-z
-x,y,z
x,-y,1/2+z
1/2+x,1/2+y,z
1/2-x,1/2-y,1/2+z
1/2+x,1/2-y,-z
1/2-x,1/2+y,1/2-z
1/2-x,1/2-y,-z
1/2+x,1/2+y,1/2-z
1/2-x,1/2+y,z
1/2+x,1/2-y,1/2+z
loop_
_atom_site_type_symbol
_atom_site_label
_atom_site_fract_x
_atom_site_fract_y
_atom_site_fract_z
Si Si1 0.880956 0.099464 0.567952
Si Si2 0.313169 0.799932 0.575475
Si Si3 0.766282 0.050290 0.432369
Si Si4 0.338261 0.109805 0.926191
Si Si5 0.929175 0.548104 0.424068
Si Si6 0.185647 0.805649 0.427805
Si Si7 0.000000 0.946629 0.566830
O O1 0.890588 0.093781 0.750000
O O2 0.828311 0.064755 0.513448
O O3 0.863037 0.154068 0.525182
O O4 0.942097 0.083722 0.484798
O O5 0.323706 0.817157 0.750000
O O6 0.346966 0.834514 0.457540
O O7 0.242243 0.805524 0.541422
O O8 0.341080 0.747338 0.554930
O O9 0.776309 0.046985 0.250000
O O10 0.714951 0.088588 0.469047
O O11 0.745243 0.000000 0.500000
O O12 0.321956 0.099533 0.750000
O O13 0.402732 0.089219 0.971076
O O14 0.906406 0.500000 0.500000
O O15 0.903896 0.550557 0.250000
O O16 0.000000 0.553000 0.427470
O O17 0.206876 0.814489 0.250000
O O18 0.000000 0.951381 0.750000
O O19 0.000000 0.000000 0.500000
#
# Coordination Sequence:
#
# PCOD8257731 Si02
#       7
#    16  16  16  16  16  16   8
#     4  11  22  40  63  88 118 153 195 243 298 355
#     4  10  19  33  56  87 119 151 190 233 282 341
#     4  12  24  38  56  83 117 153 190 236 289 346
#     4  12  23  36  55  83 117 153 190 236 286 338
#     4  10  21  38  59  82 110 147 190 233 279 338
#     4   9  19  35  58  86 117 150 187 232 286 345
#     4  12  26  44  64  88 118 158 206 252 301 360
#
# _framework density 19.184930000000001
#
# number of rings (size 3 to 8) (size 9 to 14) (size 15 to 20)
#    0.000    1.231    1.538    5.769    0.000    2.154 
#    0.000    0.000    1.692    0.000    0.000    0.000 
#    0.000    0.000    0.000    0.000    0.000    0.000 
#
# Total GULP energy -644750.014758 kJ/mol
# GULP energy per Si atom -12399.038745 kJ/mol
# Density = 1.914126 g / cm^3
# Si number density = 19.184930 Si / 1000 Ang^3
#
#
#
# Elastic Constant Matrix: (Units=GPa)
#
#
# Indices 1 2 3 4 5 6 
#
# 1 45.0567 42.0215 34.1360 0.0000 0.0000 0.0000
# 2 42.0215 133.5594 51.7492 0.0000 0.0000 0.0000
# 3 34.1360 51.7492 106.9425 0.0000 0.0000 0.0000
# 4 0.0000 0.0000 0.0000 32.2041 0.0000 0.0000
# 5 0.0000 0.0000 0.0000 0.0000 30.3597 0.0000
# 6 0.0000 0.0000 0.0000 0.0000 0.0000 43.0671
#
#
#
# Elastic Compliance Matrix: (Units=1/GPa)
#
#
# Indices 1 2 3 4 5 6 
#
# 1 0.035503 -0.008344 -0.007295 0.000000 0.000000 0.000000
# 2 -0.008344 0.011176 -0.002745 0.000000 0.000000 0.000000
# 3 -0.007295 -0.002745 0.013008 0.000000 0.000000 0.000000
# 4 0.000000 0.000000 0.000000 0.031052 0.000000 0.000000
# 5 0.000000 0.000000 0.000000 0.000000 0.032938 0.000000
# 6 0.000000 0.000000 0.000000 0.000000 0.000000 0.023220
#
#
# Mechanical properties :
#
#
# Convention : Reuss Voigt Hill
#
# Bulk Modulus (GPa) = 43.63101 60.15246 51.89173
# Shear Modulus (GPa) = 26.13664 31.63631 28.88647
#
# Velocity S-wave (km/s) = 3.69501 4.06522 3.88453
# Velocity P-wave (km/s) = 6.40280 7.31141 6.87214
#
# Compressibility (1/GPa) = 0.02291948
#
# Stress axis : x y z
#
# Youngs Moduli (GPa) = 28.16695 89.47814 76.87851
#
# Poissons Ratio (x) = 0.74657 0.56083
# Poissons Ratio (y) = 0.23501 0.21101
# Poissons Ratio (z) = 0.20548 0.24559
#
# Static dielectric constant tensor:
#      x y z
#    x 3.276320 0.000000 0.000000 
#    y 0.000000 3.812220 0.000000 
#    z 0.000000 0.000000 3.646410 
# 
# 
# High freq. dielectric constant tensor:
#      x y z
#    x 1.717970 0.000000 0.000000 
#    y 0.000000 1.760160 0.000000 
#    z 0.000000 0.000000 1.761840 
# 
# From -- ./inp_files/10849.got.cif
#   From: 2010.03.12/outbox.cif.g09.slc.cpg/sg63_6_cif.got.tgz:10849.got - 2010.04.10 19:34:48.
