data_PCOD8257373
_publ_section_title
;
Structure prediction by ZEFSAII (Michael W. Deem and Ramdas Pophale) SiO2 
 PCOD8257373
Probable space group: C M C M
;
_chemical_formula_sum "Si O2"
_cell_formula_units_Z 72
_cell_length_a 16.352383
_cell_length_b 27.369792
_cell_length_c 8.504847
_cell_angle_alpha 90.000000
_cell_angle_beta 90.000000
_cell_angle_gamma 90.000000
_cell_volume 3806.440562
_symmetry_space_group_name_H-M "C M C M"
_symmetry_group_IT_number 63
_symmetry_cell_setting 'orthorhombic'
loop_
_space_group_symop_operation_xyz
x,y,z
-x,-y,1/2+z
x,-y,-z
-x,y,1/2-z
-x,-y,-z
x,y,1/2-z
-x,y,z
x,-y,1/2+z
1/2+x,1/2+y,z
1/2-x,1/2-y,1/2+z
1/2+x,1/2-y,-z
1/2-x,1/2+y,1/2-z
1/2-x,1/2-y,-z
1/2+x,1/2+y,1/2-z
1/2-x,1/2+y,z
1/2+x,1/2-y,1/2+z
loop_
_atom_site_type_symbol
_atom_site_label
_atom_site_fract_x
_atom_site_fract_y
_atom_site_fract_z
Si Si1 0.191574 0.051288 0.568142
Si Si2 0.158723 0.392309 0.565831
Si Si3 0.753706 0.195778 0.937245
Si Si4 0.000000 0.555162 0.565026
Si Si5 0.911279 0.141988 0.567932
O O1 0.218073 0.048396 0.750000
O O2 0.268152 0.070632 0.469838
O O3 0.113067 0.085621 0.545053
O O4 0.163636 0.000000 0.500000
O O5 0.143697 0.388231 0.750000
O O6 0.179778 0.338066 0.500236
O O7 0.078060 0.413813 0.487385
O O8 0.750543 0.194025 0.750000
O O9 0.839954 0.175481 0.005038
O O10 0.750000 0.250000 0.000000
O O11 0.000000 0.500000 0.500000
O O12 0.000000 0.550162 0.750000
O O13 0.918609 0.154988 0.750000
O O14 0.000000 0.151280 0.486737
#
# Coordination Sequence:
#
# PCOD8257373 Si02
#       5
#    16  16  16   8  16
#     4  10  19  32  52  78 109 146 184 224 273 328
#     4  11  22  38  58  82 112 148 192 236 283 341
#     4  10  20  37  60  83 111 147 187 235 289 341
#     4  12  24  40  60  86 120 154 192 240 293 350
#     4   8  16  32  53  77 105 139 180 226 273 323
#
# _framework density 18.915309000000001
#
# number of rings (size 3 to 8) (size 9 to 14) (size 15 to 20)
#    0.000    2.000    0.000    6.333    0.000    0.444 
#    2.000    0.000    0.000   22.667    0.000    0.000 
#    0.000    0.000    0.000    0.000    0.000    0.000 
#
# Total GULP energy -446282.251972 kJ/mol
# GULP energy per Si atom -12396.729221 kJ/mol
# Density = 1.887226 g / cm^3
# Si number density = 18.915309 Si / 1000 Ang^3
#
#
#
# Elastic Constant Matrix: (Units=GPa)
#
#
# Indices 1 2 3 4 5 6 
#
# 1 135.1977 65.3687 39.7732 0.0000 0.0000 0.0000
# 2 65.3687 166.0010 47.4281 0.0000 0.0000 0.0000
# 3 39.7732 47.4281 110.4663 0.0000 0.0000 0.0000
# 4 0.0000 0.0000 0.0000 34.7719 0.0000 0.0000
# 5 0.0000 0.0000 0.0000 0.0000 19.4668 0.0000
# 6 0.0000 0.0000 0.0000 0.0000 0.0000 17.4368
#
#
#
# Elastic Compliance Matrix: (Units=1/GPa)
#
#
# Indices 1 2 3 4 5 6 
#
# 1 0.009536 -0.003162 -0.002076 0.000000 0.000000 0.000000
# 2 -0.003162 0.007915 -0.002260 0.000000 0.000000 0.000000
# 3 -0.002076 -0.002260 0.010770 0.000000 0.000000 0.000000
# 4 0.000000 0.000000 0.000000 0.028759 0.000000 0.000000
# 5 0.000000 0.000000 0.000000 0.000000 0.051370 0.000000
# 6 0.000000 0.000000 0.000000 0.000000 0.000000 0.057350
#
#
# Mechanical properties :
#
#
# Convention : Reuss Voigt Hill
#
# Bulk Modulus (GPa) = 75.60946 79.64502 77.62724
# Shear Modulus (GPa) = 27.01190 31.60807 29.30999
#
# Velocity S-wave (km/s) = 3.78305 4.09226 3.94069
# Velocity P-wave (km/s) = 7.69034 8.03283 7.86345
#
# Compressibility (1/GPa) = 0.01322586
#
# Stress axis : x y z
#
# Youngs Moduli (GPa) = 104.86408 126.34451 92.84938
#
# Poissons Ratio (x) = 0.39951 0.19274
# Poissons Ratio (y) = 0.33159 0.20981
# Poissons Ratio (z) = 0.21768 0.28550
#
# Static dielectric constant tensor:
#      x y z
#    x 3.723260 0.000000 0.000000 
#    y 0.000000 3.439820 0.000000 
#    z 0.000000 0.000000 3.421910 
# 
# 
# High freq. dielectric constant tensor:
#      x y z
#    x 1.736710 0.000000 0.000000 
#    y 0.000000 1.738240 0.000000 
#    z 0.000000 0.000000 1.730720 
# 
# From -- ./inp_files/4663.got.cif
#   From: 2010.03.12/outbox.cif.g09.slc.cpg/sg63_3_cif.got.tgz:4663.got - 2010.04.10 19:34:48.
