data_PCOD8257841
_publ_section_title
;
Structure prediction by ZEFSAII (Michael W. Deem and Ramdas Pophale) SiO2 
 PCOD8257841
Probable space group: C M C M
;
_chemical_formula_sum "Si O2"
_cell_formula_units_Z 96
_cell_length_a 18.915640
_cell_length_b 14.891218
_cell_length_c 16.971192
_cell_angle_alpha 90.000000
_cell_angle_beta 90.000000
_cell_angle_gamma 90.000000
_cell_volume 4780.393072
_symmetry_space_group_name_H-M "C M C M"
_symmetry_group_IT_number 63
_symmetry_cell_setting 'orthorhombic'
loop_
_space_group_symop_operation_xyz
x,y,z
-x,-y,1/2+z
x,-y,-z
-x,y,1/2-z
-x,-y,-z
x,y,1/2-z
-x,y,z
x,-y,1/2+z
1/2+x,1/2+y,z
1/2-x,1/2-y,1/2+z
1/2+x,1/2-y,-z
1/2-x,1/2+y,1/2-z
1/2-x,1/2-y,-z
1/2+x,1/2+y,1/2-z
1/2-x,1/2+y,z
1/2+x,1/2-y,1/2+z
loop_
_atom_site_type_symbol
_atom_site_label
_atom_site_fract_x
_atom_site_fract_y
_atom_site_fract_z
Si Si1 0.079134 0.911724 0.449222
Si Si2 0.716823 0.819058 0.099207
Si Si3 0.722769 0.132609 0.082989
Si Si4 0.699868 0.527401 0.660335
Si Si5 0.924137 0.580196 0.059354
Si Si6 0.423372 0.245722 0.551540
O O1 0.130709 0.924685 0.375401
O O2 0.107541 0.832476 0.505971
O O3 0.000000 0.888017 0.418424
O O4 0.076804 0.000000 0.500000
O O5 0.765557 0.732362 0.117133
O O6 0.736814 0.899341 0.158026
O O7 0.635514 0.787608 0.113895
O O8 0.726314 0.860160 0.011617
O O9 0.645797 0.095060 0.113078
O O10 0.781862 0.063049 0.112637
O O11 0.684650 0.500185 0.750000
O O12 0.000000 0.561127 0.104261
O O13 0.906972 0.500000 0.000000
O O14 0.935627 0.670818 0.012689
O O15 0.500000 0.266601 0.592440
#
# Coordination Sequence:
#
# PCOD8257841 Si02
#       6
#    16  16  16  16  16  16
#     4  10  20  36  58  81 104 134 179 229 271 313
#     4  10  19  34  57  79 103 137 182 230 273 315
#     4  10  19  34  56  77 101 136 183 234 270 311
#     4  12  24  35  51  78 114 150 178 212 269 337
#     4   9  16  26  45  74 102 127 161 212 268 311
#     4   9  17  30  53  82 104 126 167 225 275 309
#
# _framework density 20.082031000000001
#
# number of rings (size 3 to 8) (size 9 to 14) (size 15 to 20)
#    0.000    2.000    0.000    7.500    0.000    1.000 
#    0.000    0.000    0.000    2.000    0.000    0.000 
#    0.000    0.000    0.000    0.000    0.000    0.000 
#
# Total GULP energy -594730.166913 kJ/mol
# GULP energy per Si atom -12390.211811 kJ/mol
# Density = 2.003632 g / cm^3
# Si number density = 20.082031 Si / 1000 Ang^3
#
#
#
# Elastic Constant Matrix: (Units=GPa)
#
#
# Indices 1 2 3 4 5 6 
#
# 1 129.1010 21.2552 30.7996 0.0000 0.0000 0.0000
# 2 21.2552 114.7508 17.9239 0.0000 0.0000 0.0000
# 3 30.7996 17.9239 34.8244 0.0000 0.0000 0.0000
# 4 0.0000 0.0000 0.0000 11.2611 0.0000 0.0000
# 5 0.0000 0.0000 0.0000 0.0000 11.8645 0.0000
# 6 0.0000 0.0000 0.0000 0.0000 0.0000 33.8408
#
#
#
# Elastic Compliance Matrix: (Units=1/GPa)
#
#
# Indices 1 2 3 4 5 6 
#
# 1 0.009844 -0.000504 -0.008447 0.000000 0.000000 0.000000
# 2 -0.000504 0.009502 -0.004445 0.000000 0.000000 0.000000
# 3 -0.008447 -0.004445 0.038474 0.000000 0.000000 0.000000
# 4 0.000000 0.000000 0.000000 0.088801 0.000000 0.000000
# 5 0.000000 0.000000 0.000000 0.000000 0.084285 0.000000
# 6 0.000000 0.000000 0.000000 0.000000 0.000000 0.029550
#
#
# Mechanical properties :
#
#
# Convention : Reuss Voigt Hill
#
# Bulk Modulus (GPa) = 32.22852 46.51486 39.37169
# Shear Modulus (GPa) = 16.80156 25.30645 21.05400
#
# Velocity S-wave (km/s) = 2.89562 3.55372 3.24141
# Velocity P-wave (km/s) = 5.22138 6.32860 5.80147
#
# Compressibility (1/GPa) = 0.03102842
#
# Stress axis : x y z
#
# Youngs Moduli (GPa) = 101.58445 105.23894 25.99162
#
# Poissons Ratio (x) = 0.05304 0.21955
# Poissons Ratio (y) = 0.05120 0.11553
# Poissons Ratio (z) = 0.85807 0.46778
#
# Static dielectric constant tensor:
#      x y z
#    x 4.743250 0.000000 0.000000 
#    y 0.000000 3.790210 0.000000 
#    z 0.000000 0.000000 2.847190 
# 
# 
# High freq. dielectric constant tensor:
#      x y z
#    x 1.812570 0.000000 0.000000 
#    y 0.000000 1.813150 0.000000 
#    z 0.000000 0.000000 1.684130 
# 
# From -- ./inp_files/35309.got.cif
#   From: 2010.03.12/outbox.cif.g09.slc.cpg/sg63_18_cif.got.tgz:35309.got - 2010.04.10 19:34:48.
