data_PCOD8257673
_publ_section_title
;
Structure prediction by ZEFSAII (Michael W. Deem and Ramdas Pophale) SiO2 
 PCOD8257673
Probable space group: C M C M
;
_chemical_formula_sum "Si O2"
_cell_formula_units_Z 80
_cell_length_a 8.887256
_cell_length_b 18.218764
_cell_length_c 26.043485
_cell_angle_alpha 90.000000
_cell_angle_beta 90.000000
_cell_angle_gamma 90.000000
_cell_volume 4216.826177
_symmetry_space_group_name_H-M "C M C M"
_symmetry_group_IT_number 63
_symmetry_cell_setting 'orthorhombic'
loop_
_space_group_symop_operation_xyz
x,y,z
-x,-y,1/2+z
x,-y,-z
-x,y,1/2-z
-x,-y,-z
x,y,1/2-z
-x,y,z
x,-y,1/2+z
1/2+x,1/2+y,z
1/2-x,1/2-y,1/2+z
1/2+x,1/2-y,-z
1/2-x,1/2+y,1/2-z
1/2-x,1/2-y,-z
1/2+x,1/2+y,1/2-z
1/2-x,1/2+y,z
1/2+x,1/2-y,1/2+z
loop_
_atom_site_type_symbol
_atom_site_label
_atom_site_fract_x
_atom_site_fract_y
_atom_site_fract_z
Si Si1 0.331837 0.460441 0.250000
Si Si2 0.178669 0.457249 0.549058
Si Si3 0.178789 0.710784 0.048623
Si Si4 0.675840 0.041881 0.852230
Si Si5 0.329031 0.285938 0.250000
Si Si6 0.177079 0.712648 0.645645
O O1 0.500000 0.491101 0.250000
O O2 0.250772 0.490131 0.199153
O O3 0.326321 0.373145 0.250000
O O4 0.245801 0.500000 0.500000
O O5 0.231307 0.373474 0.547087
O O6 0.242377 0.496012 0.600182
O O7 0.000000 0.463535 0.548938
O O8 0.239387 0.745271 0.100643
O O9 0.000000 0.718535 0.046282
O O10 0.250000 0.750000 0.000000
O O11 0.500000 0.029827 0.845676
O O12 0.713940 0.126960 0.861335
O O13 0.500000 0.256007 0.250000
O O14 0.242115 0.257289 0.300431
O O15 0.000000 0.728093 0.643435
#
# Coordination Sequence:
#
# PCOD8257673 Si02
#       6
#     8  16  16  16   8  16
#     4   9  17  29  48  77 110 137 165 209 260 303
#     4   9  18  34  55  77 100 131 173 215 254 304
#     4  11  22  36  55  78 105 137 174 217 264 313
#     4   9  17  32  55  78 101 135 177 213 247 299
#     4   9  17  31  52  79 110 141 175 213 254 305
#     4  10  19  33  55  81 108 138 174 216 260 307
#
# _framework density 18.971615
#
# number of rings (size 3 to 8) (size 9 to 14) (size 15 to 20)
#    0.000    2.400    0.000    3.000    0.000    6.400 
#    0.000    3.000    0.000    6.600    0.000    0.000 
#    0.000    0.000    0.000    0.000    0.000    0.000 
#
# Total GULP energy -496036.871362 kJ/mol
# GULP energy per Si atom -12400.921784 kJ/mol
# Density = 1.892843 g / cm^3
# Si number density = 18.971615 Si / 1000 Ang^3
#
#
#
# Elastic Constant Matrix: (Units=GPa)
#
#
# Indices 1 2 3 4 5 6 
#
# 1 76.2823 49.1197 62.7829 0.0000 0.0000 0.0000
# 2 49.1197 96.6345 86.3870 0.0000 0.0000 0.0000
# 3 62.7829 86.3870 217.7682 0.0000 0.0000 0.0000
# 4 0.0000 0.0000 0.0000 31.9148 0.0000 0.0000
# 5 0.0000 0.0000 0.0000 0.0000 31.6432 0.0000
# 6 0.0000 0.0000 0.0000 0.0000 0.0000 20.6966
#
#
#
# Elastic Compliance Matrix: (Units=1/GPa)
#
#
# Indices 1 2 3 4 5 6 
#
# 1 0.020500 -0.007959 -0.002753 0.000000 0.000000 0.000000
# 2 -0.007959 0.019125 -0.005292 0.000000 0.000000 0.000000
# 3 -0.002753 -0.005292 0.007485 0.000000 0.000000 0.000000
# 4 0.000000 0.000000 0.000000 0.031333 0.000000 0.000000
# 5 0.000000 0.000000 0.000000 0.000000 0.031602 0.000000
# 6 0.000000 0.000000 0.000000 0.000000 0.000000 0.048317
#
#
# Mechanical properties :
#
#
# Convention : Reuss Voigt Hill
#
# Bulk Modulus (GPa) = 66.21830 87.47379 76.84604
# Shear Modulus (GPa) = 25.58789 29.67727 27.63258
#
# Velocity S-wave (km/s) = 3.67651 3.95941 3.82058
# Velocity P-wave (km/s) = 7.28025 8.19209 7.74959
#
# Compressibility (1/GPa) = 0.01510157
#
# Stress axis : x y z
#
# Youngs Moduli (GPa) = 48.78039 52.28787 133.60138
#
# Poissons Ratio (x) = 0.41618 0.36777
# Poissons Ratio (y) = 0.38826 0.70702
# Poissons Ratio (z) = 0.13428 0.27671
#
# Static dielectric constant tensor:
#      x y z
#    x 3.378480 0.000000 0.000000 
#    y 0.000000 3.357580 0.000000 
#    z 0.000000 0.000000 3.694240 
# 
# 
# High freq. dielectric constant tensor:
#      x y z
#    x 1.725120 0.000000 0.000000 
#    y 0.000000 1.713650 0.000000 
#    z 0.000000 0.000000 1.760550 
# 
# From -- ./inp_files/66668.got.cif
#   From: 2010.03.12/outbox.cif.g09.slc.cpg/sg63_34_cif.got.tgz:66668.got - 2010.04.10 19:34:48.
