data_PCOD8257437
_publ_section_title
;
Structure prediction by ZEFSAII (Michael W. Deem and Ramdas Pophale) SiO2 
 PCOD8257437
Probable space group: C M C M
;
_chemical_formula_sum "Si O2"
_cell_formula_units_Z 96
_cell_length_a 16.007401
_cell_length_b 12.974649
_cell_length_c 25.915369
_cell_angle_alpha 90.000000
_cell_angle_beta 90.000000
_cell_angle_gamma 90.000000
_cell_volume 5382.373597
_symmetry_space_group_name_H-M "C M C M"
_symmetry_group_IT_number 63
_symmetry_cell_setting 'orthorhombic'
loop_
_space_group_symop_operation_xyz
x,y,z
-x,-y,1/2+z
x,-y,-z
-x,y,1/2-z
-x,-y,-z
x,y,1/2-z
-x,y,z
x,-y,1/2+z
1/2+x,1/2+y,z
1/2-x,1/2-y,1/2+z
1/2+x,1/2-y,-z
1/2-x,1/2+y,1/2-z
1/2-x,1/2-y,-z
1/2+x,1/2+y,1/2-z
1/2-x,1/2+y,z
1/2+x,1/2-y,1/2+z
loop_
_atom_site_type_symbol
_atom_site_label
_atom_site_fract_x
_atom_site_fract_y
_atom_site_fract_z
Si Si1 0.670147 0.766793 0.535839
Si Si2 0.672600 0.946304 0.613331
Si Si3 0.500000 0.169588 0.997621
Si Si4 0.262595 0.689848 0.189808
Si Si5 0.595331 0.533197 0.309949
Si Si6 0.000000 0.504359 0.915923
Si Si7 0.202727 0.878007 0.372299
O O1 0.750000 0.750000 0.500000
O O2 0.584284 0.762062 0.502822
O O3 0.661116 0.681057 0.580064
O O4 0.681482 0.877738 0.562144
O O5 0.580137 0.991513 0.620394
O O6 0.734754 0.039863 0.603805
O O7 0.691924 0.883867 0.665512
O O8 0.500000 0.083877 0.041418
O O9 0.500000 0.117100 0.941574
O O10 0.244495 0.699975 0.250000
O O11 0.352643 0.637653 0.178159
O O12 0.256708 0.802121 0.164237
O O13 0.602514 0.504872 0.250000
O O14 0.500000 0.554199 0.326590
O O15 0.629703 0.434237 0.340488
#
# Coordination Sequence:
#
# PCOD8257437 Si02
#       7
#    16  16   8  16  16   8  16
#     4  10  20  33  53  76 107 137 179 222 265 315
#     4   9  19  34  53  78 101 138 172 217 265 311
#     4   9  18  30  50  75  96 134 172 215 258 309
#     4   9  18  34  53  76 106 136 171 214 265 322
#     4   9  18  33  54  78 104 138 179 221 269 326
#     4   9  16  32  51  70 100 130 171 212 262 304
#     4  10  19  32  54  76 104 140 176 214 268 319
#
# _framework density 17.835996999999999
#
# number of rings (size 3 to 8) (size 9 to 14) (size 15 to 20)
#    0.000    2.667    0.000    1.500    1.167    2.667 
#    3.000    0.417   14.667    1.000    0.000    0.000 
#    0.000    0.000    0.000    0.000    0.000    0.000 
#
# Total GULP energy -595156.666221 kJ/mol
# GULP energy per Si atom -12399.097213 kJ/mol
# Density = 1.779540 g / cm^3
# Si number density = 17.835997 Si / 1000 Ang^3
#
#
#
# Elastic Constant Matrix: (Units=GPa)
#
#
# Indices 1 2 3 4 5 6 
#
# 1 156.4620 50.4616 51.4493 0.0000 0.0000 0.0000
# 2 50.4616 88.1314 33.4463 0.0000 0.0000 0.0000
# 3 51.4493 33.4463 66.4354 0.0000 0.0000 0.0000
# 4 0.0000 0.0000 0.0000 17.8494 0.0000 0.0000
# 5 0.0000 0.0000 0.0000 0.0000 28.7625 0.0000
# 6 0.0000 0.0000 0.0000 0.0000 0.0000 22.7649
#
#
#
# Elastic Compliance Matrix: (Units=1/GPa)
#
#
# Indices 1 2 3 4 5 6 
#
# 1 0.009246 -0.003185 -0.005557 0.000000 0.000000 0.000000
# 2 -0.003185 0.015124 -0.005147 0.000000 0.000000 0.000000
# 3 -0.005557 -0.005147 0.021947 0.000000 0.000000 0.000000
# 4 0.000000 0.000000 0.000000 0.056024 0.000000 0.000000
# 5 0.000000 0.000000 0.000000 0.000000 0.034767 0.000000
# 6 0.000000 0.000000 0.000000 0.000000 0.000000 0.043927
#
#
# Mechanical properties :
#
#
# Convention : Reuss Voigt Hill
#
# Bulk Modulus (GPa) = 53.94256 64.63813 59.29034
# Shear Modulus (GPa) = 23.25660 25.58682 24.42171
#
# Velocity S-wave (km/s) = 3.61489 3.79167 3.70433
# Velocity P-wave (km/s) = 6.90888 7.44902 7.18403
#
# Compressibility (1/GPa) = 0.01853824
#
# Stress axis : x y z
#
# Youngs Moduli (GPa) = 108.15769 66.12082 45.56477
#
# Poissons Ratio (x) = 0.21060 0.25319
# Poissons Ratio (y) = 0.34449 0.23454
# Poissons Ratio (z) = 0.60099 0.34035
#
# Static dielectric constant tensor:
#      x y z
#    x 3.494370 0.000000 0.000000 
#    y 0.000000 3.354310 0.000000 
#    z 0.000000 0.000000 3.205190 
# 
# 
# High freq. dielectric constant tensor:
#      x y z
#    x 1.692990 0.000000 0.000000 
#    y 0.000000 1.688450 0.000000 
#    z 0.000000 0.000000 1.680930 
# 
# From -- ./inp_files/73369.got.cif
#   From: 2010.03.12/outbox.cif.g09.slc.cpg/sg63_37_cif.got.tgz:73369.got - 2010.04.10 19:34:48.
