data_PCOD8257144
_publ_section_title
;
Structure prediction by ZEFSAII (Michael W. Deem and Ramdas Pophale) SiO2 
 PCOD8257144
Probable space group: C M C M
;
_chemical_formula_sum "Si O2"
_cell_formula_units_Z 112
_cell_length_a 15.019394
_cell_length_b 21.699114
_cell_length_c 16.765151
_cell_angle_alpha 90.000000
_cell_angle_beta 90.000000
_cell_angle_gamma 90.000000
_cell_volume 5463.889164
_symmetry_space_group_name_H-M "C M C M"
_symmetry_group_IT_number 63
_symmetry_cell_setting 'orthorhombic'
loop_
_space_group_symop_operation_xyz
x,y,z
-x,-y,1/2+z
x,-y,-z
-x,y,1/2-z
-x,-y,-z
x,y,1/2-z
-x,y,z
x,-y,1/2+z
1/2+x,1/2+y,z
1/2-x,1/2-y,1/2+z
1/2+x,1/2-y,-z
1/2-x,1/2+y,1/2-z
1/2-x,1/2-y,-z
1/2+x,1/2+y,1/2-z
1/2-x,1/2+y,z
1/2+x,1/2-y,1/2+z
loop_
_atom_site_type_symbol
_atom_site_label
_atom_site_fract_x
_atom_site_fract_y
_atom_site_fract_z
Si Si1 0.659766 0.859939 0.839284
Si Si2 0.402737 0.477620 0.341090
Si Si3 0.150976 0.107438 0.113448
Si Si4 0.905031 0.766703 0.842715
Si Si5 0.600299 0.073039 0.495716
Si Si6 0.281475 0.394107 0.062017
Si Si7 0.216114 0.775590 0.156643
O O1 0.617893 0.868701 0.750000
O O2 0.761289 0.881528 0.833632
O O3 0.607274 0.899794 0.905300
O O4 0.660822 0.786749 0.862496
O O5 0.392375 0.458477 0.250000
O O6 0.500000 0.454155 0.372469
O O7 0.402719 0.550963 0.350358
O O8 0.317711 0.450338 0.385942
O O9 0.089364 0.167390 0.114448
O O10 0.177361 0.094658 0.023297
O O11 0.892703 0.779829 0.750000
O O12 0.819340 0.728997 0.871662
O O13 0.000000 0.732596 0.860552
O O14 0.500000 0.087578 0.526234
O O15 0.673419 0.104178 0.554259
O O16 0.617700 0.000000 0.500000
O O17 0.318798 0.331398 0.102196
O O18 0.207901 0.792555 0.250000
#
# Coordination Sequence:
#
# PCOD8257144 Si02
#       7
#    16  16  16  16  16  16  16
#     4   9  18  35  60  85 110 149 195 235 280 335
#     4  11  23  38  58  83 111 146 186 227 277 341
#     4  10  19  31  53  82 112 143 180 227 283 343
#     4   9  17  30  50  77 107 139 179 228 275 320
#     4  10  22  39  58  84 116 150 195 249 297 339
#     4  11  22  37  56  81 116 154 185 228 287 339
#     4   9  19  36  56  78 108 148 192 231 272 334
#
# _framework density 20.49822
#
# number of rings (size 3 to 8) (size 9 to 14) (size 15 to 20)
#    0.000    2.143    0.000    5.143    0.000    8.857 
#    0.000    1.429    0.000    3.857    0.000    0.000 
#    0.000    0.000    0.000    0.000    0.000    0.000 
#
# Total GULP energy -693972.934668 kJ/mol
# GULP energy per Si atom -12392.373833 kJ/mol
# Density = 2.045156 g / cm^3
# Si number density = 20.498220 Si / 1000 Ang^3
#
#
#
# Elastic Constant Matrix: (Units=GPa)
#
#
# Indices 1 2 3 4 5 6 
#
# 1 68.1634 6.2002 21.5638 0.0000 0.0000 0.0000
# 2 6.2002 81.2249 34.2083 0.0000 0.0000 0.0000
# 3 21.5638 34.2083 61.0176 0.0000 0.0000 0.0000
# 4 0.0000 0.0000 0.0000 27.9436 0.0000 0.0000
# 5 0.0000 0.0000 0.0000 0.0000 16.5516 0.0000
# 6 0.0000 0.0000 0.0000 0.0000 0.0000 14.4417
#
#
#
# Elastic Compliance Matrix: (Units=1/GPa)
#
#
# Indices 1 2 3 4 5 6 
#
# 1 0.016671 0.001582 -0.006779 0.000000 0.000000 0.000000
# 2 0.001582 0.016267 -0.009679 0.000000 0.000000 0.000000
# 3 -0.006779 -0.009679 0.024211 0.000000 0.000000 0.000000
# 4 0.000000 0.000000 0.000000 0.035786 0.000000 0.000000
# 5 0.000000 0.000000 0.000000 0.000000 0.060417 0.000000
# 6 0.000000 0.000000 0.000000 0.000000 0.000000 0.069244
#
#
# Mechanical properties :
#
#
# Convention : Reuss Voigt Hill
#
# Bulk Modulus (GPa) = 36.49888 37.15005 36.82447
# Shear Modulus (GPa) = 19.12194 21.68297 20.40245
#
# Velocity S-wave (km/s) = 3.05759 3.25591 3.15830
# Velocity P-wave (km/s) = 5.50542 5.68309 5.59496
#
# Compressibility (1/GPa) = 0.02739810
#
# Stress axis : x y z
#
# Youngs Moduli (GPa) = 59.98364 61.47374 41.30399
#
# Poissons Ratio (x) = -0.09727 0.27999
# Poissons Ratio (y) = -0.09492 0.39978
# Poissons Ratio (z) = 0.40662 0.59501
#
# Static dielectric constant tensor:
#      x y z
#    x 3.842750 0.000000 0.000000 
#    y 0.000000 3.567710 0.000000 
#    z 0.000000 0.000000 3.605870 
# 
# 
# High freq. dielectric constant tensor:
#      x y z
#    x 1.793770 0.000000 0.000000 
#    y 0.000000 1.793420 0.000000 
#    z 0.000000 0.000000 1.794320 
# 
# From -- ./inp_files/32296.got.cif
#   From: 2010.03.12/outbox.cif.g09.slc.cpg/sg63_17_cif.got.tgz:32296.got - 2010.04.10 19:34:48.
