data_PCOD8257823
_publ_section_title
;
Structure prediction by ZEFSAII (Michael W. Deem and Ramdas Pophale) SiO2 
 PCOD8257823
Probable space group: C M C M
;
_chemical_formula_sum "Si O2"
_cell_formula_units_Z 96
_cell_length_a 9.046452
_cell_length_b 23.570625
_cell_length_c 25.032402
_cell_angle_alpha 90.000000
_cell_angle_beta 90.000000
_cell_angle_gamma 90.000000
_cell_volume 5337.672287
_symmetry_space_group_name_H-M "C M C M"
_symmetry_group_IT_number 63
_symmetry_cell_setting 'orthorhombic'
loop_
_space_group_symop_operation_xyz
x,y,z
-x,-y,1/2+z
x,-y,-z
-x,y,1/2-z
-x,-y,-z
x,y,1/2-z
-x,y,z
x,-y,1/2+z
1/2+x,1/2+y,z
1/2-x,1/2-y,1/2+z
1/2+x,1/2-y,-z
1/2-x,1/2+y,1/2-z
1/2-x,1/2-y,-z
1/2+x,1/2+y,1/2-z
1/2-x,1/2+y,z
1/2+x,1/2-y,1/2+z
loop_
_atom_site_type_symbol
_atom_site_label
_atom_site_fract_x
_atom_site_fract_y
_atom_site_fract_z
Si Si1 0.671602 0.553954 0.810928
Si Si2 0.327500 0.368256 0.896696
Si Si3 0.673753 0.361966 0.402830
Si Si4 0.827120 0.560780 0.311654
Si Si5 0.675606 0.563166 0.001498
Si Si6 0.173293 0.253306 0.442648
O O1 0.712834 0.569337 0.750000
O O2 0.500000 0.538832 0.817594
O O3 0.712975 0.608308 0.846666
O O4 0.759562 0.498930 0.831298
O O5 0.500000 0.379179 0.887552
O O6 0.241279 0.386658 0.843728
O O7 0.266111 0.405477 0.945852
O O8 0.293798 0.302977 0.908875
O O9 0.500000 0.349000 0.408285
O O10 0.730573 0.402931 0.449816
O O11 0.762640 0.303651 0.406552
O O12 0.787187 0.570965 0.250000
O O13 0.000000 0.558509 0.321870
O O14 0.500000 0.560996 0.001569
O O15 0.742867 0.500000 0.000000
O O16 0.250000 0.250000 0.500000
O O17 0.000000 0.261538 0.452585
#
# Coordination Sequence:
#
# PCOD8257823 Si02
#       6
#    16  16  16  16  16  16
#     4   9  18  34  58  84 109 144 185 220 263 323
#     4  10  20  35  54  77 105 142 186 221 262 325
#     4  10  19  34  55  79 110 145 182 223 266 316
#     4  10  21  36  55  81 112 143 176 222 278 323
#     4   9  16  28  49  76 104 136 173 214 262 315
#     4  11  22  37  56  78 108 145 184 224 271 323
#
# _framework density 17.985368000000001
#
# number of rings (size 3 to 8) (size 9 to 14) (size 15 to 20)
#    0.000    2.167    1.667    2.000    0.000    5.667 
#    0.000    0.833    0.000    5.000    0.000    0.000 
#    0.000    0.000    0.000    0.000    0.000    0.000 
#
# Total GULP energy -595330.702894 kJ/mol
# GULP energy per Si atom -12402.722977 kJ/mol
# Density = 1.794443 g / cm^3
# Si number density = 17.985368 Si / 1000 Ang^3
#
#
#
# Elastic Constant Matrix: (Units=GPa)
#
#
# Indices 1 2 3 4 5 6 
#
# 1 69.2889 61.7210 48.8537 0.0000 0.0000 0.0000
# 2 61.7210 155.8478 73.3984 0.0000 0.0000 0.0000
# 3 48.8537 73.3984 105.4182 0.0000 0.0000 0.0000
# 4 0.0000 0.0000 0.0000 29.5411 0.0000 0.0000
# 5 0.0000 0.0000 0.0000 0.0000 23.9380 0.0000
# 6 0.0000 0.0000 0.0000 0.0000 0.0000 33.1406
#
#
#
# Elastic Compliance Matrix: (Units=1/GPa)
#
#
# Indices 1 2 3 4 5 6 
#
# 1 0.025432 -0.006727 -0.007102 0.000000 0.000000 0.000000
# 2 -0.006727 0.011327 -0.004769 0.000000 0.000000 0.000000
# 3 -0.007102 -0.004769 0.016098 0.000000 0.000000 0.000000
# 4 0.000000 0.000000 0.000000 0.033851 0.000000 0.000000
# 5 0.000000 0.000000 0.000000 0.000000 0.041775 0.000000
# 6 0.000000 0.000000 0.000000 0.000000 0.000000 0.030175
#
#
# Mechanical properties :
#
#
# Convention : Reuss Voigt Hill
#
# Bulk Modulus (GPa) = 63.85520 77.61123 70.73321
# Shear Modulus (GPa) = 24.86658 27.09603 25.98131
#
# Velocity S-wave (km/s) = 3.72237 3.88565 3.80489
# Velocity P-wave (km/s) = 7.35226 7.96098 7.66267
#
# Compressibility (1/GPa) = 0.01566043
#
# Stress axis : x y z
#
# Youngs Moduli (GPa) = 39.32000 88.28787 62.12111
#
# Poissons Ratio (x) = 0.59393 0.44119
# Poissons Ratio (y) = 0.26451 0.29623
# Poissons Ratio (z) = 0.27926 0.42101
#
# Static dielectric constant tensor:
#      x y z
#    x 3.159740 0.000000 0.000000 
#    y 0.000000 3.422070 0.000000 
#    z 0.000000 0.000000 3.373670 
# 
# 
# High freq. dielectric constant tensor:
#      x y z
#    x 1.678550 0.000000 0.000000 
#    y 0.000000 1.699620 0.000000 
#    z 0.000000 0.000000 1.697540 
# 
# From -- ./inp_files/51330.got.cif
#   From: 2010.03.12/outbox.cif.g09.slc.cpg/sg63_26_cif.got.tgz:51330.got - 2010.04.10 19:34:48.
