data_PCOD8257451
_publ_section_title
;
Structure prediction by ZEFSAII (Michael W. Deem and Ramdas Pophale) SiO2 
 PCOD8257451
Probable space group: C M C M
;
_chemical_formula_sum "Si O2"
_cell_formula_units_Z 96
_cell_length_a 8.949641
_cell_length_b 23.292379
_cell_length_c 23.183200
_cell_angle_alpha 90.000000
_cell_angle_beta 90.000000
_cell_angle_gamma 90.000000
_cell_volume 4832.733476
_symmetry_space_group_name_H-M "C M C M"
_symmetry_group_IT_number 63
_symmetry_cell_setting 'orthorhombic'
loop_
_space_group_symop_operation_xyz
x,y,z
-x,-y,1/2+z
x,-y,-z
-x,y,1/2-z
-x,-y,-z
x,y,1/2-z
-x,y,z
x,-y,1/2+z
1/2+x,1/2+y,z
1/2-x,1/2-y,1/2+z
1/2+x,1/2-y,-z
1/2-x,1/2+y,1/2-z
1/2-x,1/2-y,-z
1/2+x,1/2+y,1/2-z
1/2-x,1/2+y,z
1/2+x,1/2-y,1/2+z
loop_
_atom_site_type_symbol
_atom_site_label
_atom_site_fract_x
_atom_site_fract_y
_atom_site_fract_z
Si Si1 0.163743 0.286407 0.044840
Si Si2 0.675546 0.094900 0.102532
Si Si3 0.179004 0.401340 0.250000
Si Si4 0.675345 0.972338 0.360819
Si Si5 0.167944 0.792969 0.847809
Si Si6 0.176736 0.410717 0.028197
Si Si7 0.675843 0.724958 0.750000
O O1 0.157673 0.256134 0.105256
O O2 0.235419 0.349068 0.050273
O O3 0.000000 0.295016 0.018183
O O4 0.250000 0.250000 0.000000
O O5 0.500000 0.110462 0.102109
O O6 0.767507 0.148134 0.127068
O O7 0.708227 0.040474 0.144290
O O8 0.731878 0.079205 0.037528
O O9 0.239467 0.436433 0.306238
O O10 0.241404 0.336516 0.250000
O O11 0.000000 0.397257 0.250000
O O12 0.500000 0.960581 0.361602
O O13 0.744326 0.953106 0.422982
O O14 0.280015 0.765615 0.802614
O O15 0.000000 0.804284 0.823343
O O16 0.000000 0.418370 0.028693
O O17 0.500000 0.713213 0.750000
#
# Coordination Sequence:
#
# PCOD8257451 Si02
#       7
#    16  16   8  16  16  16   8
#     4  10  19  32  54  82 114 151 191 237 291 345
#     4  10  19  33  56  85 118 154 199 247 285 340
#     4  10  20  39  62  83 113 146 190 244 297 356
#     4   9  18  32  55  84 113 154 200 244 292 343
#     4  11  23  39  59  86 121 157 192 238 299 355
#     4   9  16  29  51  81 114 149 194 245 291 337
#     4  12  26  43  64  87 113 148 196 244 289 350
#
# _framework density 19.864533999999999
#
# number of rings (size 3 to 8) (size 9 to 14) (size 15 to 20)
#    0.000    2.000    1.667    2.750    0.000    6.000 
#    0.000    2.500    0.000    3.000    0.000    0.000 
#    0.000    0.000    0.000    0.000    0.000    0.000 
#
# Total GULP energy -594731.105658 kJ/mol
# GULP energy per Si atom -12390.231368 kJ/mol
# Density = 1.981932 g / cm^3
# Si number density = 19.864534 Si / 1000 Ang^3
#
#
#
# Elastic Constant Matrix: (Units=GPa)
#
#
# Indices 1 2 3 4 5 6 
#
# 1 51.6296 21.7792 25.3986 0.0000 0.0000 0.0000
# 2 21.7792 119.5507 55.0823 0.0000 0.0000 0.0000
# 3 25.3986 55.0823 111.8502 0.0000 0.0000 0.0000
# 4 0.0000 0.0000 0.0000 26.3305 0.0000 0.0000
# 5 0.0000 0.0000 0.0000 0.0000 17.6983 0.0000
# 6 0.0000 0.0000 0.0000 0.0000 0.0000 26.2209
#
#
#
# Elastic Compliance Matrix: (Units=1/GPa)
#
#
# Indices 1 2 3 4 5 6 
#
# 1 0.022256 -0.002233 -0.003954 0.000000 0.000000 0.000000
# 2 -0.002233 0.011044 -0.004932 0.000000 0.000000 0.000000
# 3 -0.003954 -0.004932 0.012267 0.000000 0.000000 0.000000
# 4 0.000000 0.000000 0.000000 0.037979 0.000000 0.000000
# 5 0.000000 0.000000 0.000000 0.000000 0.056503 0.000000
# 6 0.000000 0.000000 0.000000 0.000000 0.000000 0.038138
#
#
# Mechanical properties :
#
#
# Convention : Reuss Voigt Hill
#
# Bulk Modulus (GPa) = 42.86413 54.17229 48.51821
# Shear Modulus (GPa) = 24.01550 26.10130 25.05840
#
# Velocity S-wave (km/s) = 3.48079 3.62880 3.55556
# Velocity P-wave (km/s) = 6.14651 6.69982 6.42912
#
# Compressibility (1/GPa) = 0.02332953
#
# Stress axis : x y z
#
# Youngs Moduli (GPa) = 44.93215 90.55046 81.51878
#
# Poissons Ratio (x) = 0.20215 0.32235
# Poissons Ratio (y) = 0.10031 0.40202
# Poissons Ratio (z) = 0.17768 0.44656
#
# Static dielectric constant tensor:
#      x y z
#    x 3.275580 0.000000 0.000000 
#    y 0.000000 3.655510 0.000000 
#    z 0.000000 0.000000 3.800470 
# 
# 
# High freq. dielectric constant tensor:
#      x y z
#    x 1.725540 0.000000 0.000000 
#    y 0.000000 1.794720 0.000000 
#    z 0.000000 0.000000 1.780610 
# 
# From -- ./inp_files/60104.got.cif
#   From: 2010.03.12/outbox.cif.g09.slc.cpg/sg63_31_cif.got.tgz:60104.got - 2010.04.10 19:34:48.
