data_PCOD8257087
_publ_section_title
;
Structure prediction by ZEFSAII (Michael W. Deem and Ramdas Pophale) SiO2 
 PCOD8257087
Probable space group: C M C M
;
_chemical_formula_sum "Si O2"
_cell_formula_units_Z 128
_cell_length_a 20.219457
_cell_length_b 19.868587
_cell_length_c 17.642007
_cell_angle_alpha 90.000000
_cell_angle_beta 90.000000
_cell_angle_gamma 90.000000
_cell_volume 7087.359471
_symmetry_space_group_name_H-M "C M C M"
_symmetry_group_IT_number 63
_symmetry_cell_setting 'orthorhombic'
loop_
_space_group_symop_operation_xyz
x,y,z
-x,-y,1/2+z
x,-y,-z
-x,y,1/2-z
-x,-y,-z
x,y,1/2-z
-x,y,z
x,-y,1/2+z
1/2+x,1/2+y,z
1/2-x,1/2-y,1/2+z
1/2+x,1/2-y,-z
1/2-x,1/2+y,1/2-z
1/2-x,1/2-y,-z
1/2+x,1/2+y,1/2-z
1/2-x,1/2+y,z
1/2+x,1/2-y,1/2+z
loop_
_atom_site_type_symbol
_atom_site_label
_atom_site_fract_x
_atom_site_fract_y
_atom_site_fract_z
Si Si1 0.424463 0.365804 0.074150
Si Si2 0.177911 0.779997 0.338655
Si Si3 0.189870 0.644012 0.840091
Si Si4 0.261020 0.858504 0.661103
Si Si5 0.618717 0.633198 0.406389
Si Si6 0.233423 0.494830 0.160869
Si Si7 0.073221 0.265123 0.337152
Si Si8 0.616072 0.493361 0.339255
O O1 0.500000 0.342357 0.062123
O O2 0.386390 0.306504 0.118278
O O3 0.425661 0.435177 0.120872
O O4 0.387474 0.378833 0.995510
O O5 0.166342 0.792279 0.250000
O O6 0.243264 0.819091 0.366700
O O7 0.187321 0.700709 0.357318
O O8 0.185680 0.644294 0.750000
O O9 0.190254 0.567090 0.872705
O O10 0.125755 0.682255 0.872967
O O11 0.241360 0.857815 0.750000
O O12 0.194071 0.848441 0.614338
O O13 0.293772 0.930871 0.638497
O O14 0.573592 0.695651 0.382578
O O15 0.591128 0.567132 0.363671
O O16 0.233470 0.486642 0.250000
O O17 0.308435 0.486514 0.132622
O O18 0.091473 0.249740 0.250000
O O19 0.000000 0.296857 0.344418
O O20 0.607708 0.484724 0.250000
#
# Coordination Sequence:
#
# PCOD8257087 Si02
#       8
#    16  16  16  16  16  16  16  16
#     4  12  26  38  49  73 111 150 184 222 268 322
#     4  10  19  35  57  78 101 137 184 230 268 312
#     4   9  15  28  51  77 103 132 170 219 266 312
#     4   9  17  32  57  84 105 133 180 230 272 319
#     4  11  21  35  53  76 110 141 173 217 275 330
#     4   8  14  27  51  79 102 126 163 216 268 307
#     4  10  19  31  50  77 106 137 172 214 270 333
#     4  10  20  36  57  77  99 139 188 226 262 311
#
# _framework density 18.060321999999999
#
# number of rings (size 3 to 8) (size 9 to 14) (size 15 to 20)
#    0.000    2.125    2.500    3.000    0.000    3.000 
#    0.000    0.000    0.000    0.750    0.000    3.500 
#    0.000    2.000    0.000    0.000    0.000    0.000 
#
# Total GULP energy -793375.010559 kJ/mol
# GULP energy per Si atom -12396.484540 kJ/mol
# Density = 1.801922 g / cm^3
# Si number density = 18.060322 Si / 1000 Ang^3
#
#
#
# Elastic Constant Matrix: (Units=GPa)
#
#
# Indices 1 2 3 4 5 6 
#
# 1 82.1977 59.5468 28.4504 0.0000 0.0000 0.0000
# 2 59.5468 144.3164 28.2831 0.0000 0.0000 0.0000
# 3 28.4504 28.2831 64.1227 0.0000 0.0000 0.0000
# 4 0.0000 0.0000 0.0000 13.0648 0.0000 0.0000
# 5 0.0000 0.0000 0.0000 0.0000 16.4583 0.0000
# 6 0.0000 0.0000 0.0000 0.0000 0.0000 24.3249
#
#
#
# Elastic Compliance Matrix: (Units=1/GPa)
#
#
# Indices 1 2 3 4 5 6 
#
# 1 0.018932 -0.006749 -0.005423 0.000000 0.000000 0.000000
# 2 -0.006749 0.009991 -0.001412 0.000000 0.000000 0.000000
# 3 -0.005423 -0.001412 0.018624 0.000000 0.000000 0.000000
# 4 0.000000 0.000000 0.000000 0.076542 0.000000 0.000000
# 5 0.000000 0.000000 0.000000 0.000000 0.060760 0.000000
# 6 0.000000 0.000000 0.000000 0.000000 0.000000 0.041110
#
#
# Mechanical properties :
#
#
# Convention : Reuss Voigt Hill
#
# Bulk Modulus (GPa) = 49.07158 58.13303 53.60231
# Shear Modulus (GPa) = 19.23676 22.39337 20.81507
#
# Velocity S-wave (km/s) = 3.26719 3.52507 3.39858
# Velocity P-wave (km/s) = 6.43915 6.98758 6.71896
#
# Compressibility (1/GPa) = 0.02037839
#
# Stress axis : x y z
#
# Youngs Moduli (GPa) = 52.82112 100.09411 53.69354
#
# Poissons Ratio (x) = 0.67550 0.29119
# Poissons Ratio (y) = 0.35647 0.07583
# Poissons Ratio (z) = 0.28645 0.14137
#
# Static dielectric constant tensor:
#      x y z
#    x 3.154480 0.000000 0.000000 
#    y 0.000000 3.749750 0.000000 
#    z 0.000000 0.000000 3.067420 
# 
# 
# High freq. dielectric constant tensor:
#      x y z
#    x 1.669560 0.000000 0.000000 
#    y 0.000000 1.711570 0.000000 
#    z 0.000000 0.000000 1.671260 
# 
# From -- ./inp_files/47523.got.cif
#   From: 2010.03.12/outbox.cif.g09.slc.cpg/sg63_24_cif.got.tgz:47523.got - 2010.04.10 19:34:48.
