data_PCOD8257981
_publ_section_title
;
Structure prediction by ZEFSAII (Michael W. Deem and Ramdas Pophale) SiO2 
 PCOD8257981
Probable space group: C M C M
;
_chemical_formula_sum "Si O2"
_cell_formula_units_Z 88
_cell_length_a 17.435804
_cell_length_b 15.451401
_cell_length_c 17.422973
_cell_angle_alpha 90.000000
_cell_angle_beta 90.000000
_cell_angle_gamma 90.000000
_cell_volume 4693.881330
_symmetry_space_group_name_H-M "C M C M"
_symmetry_group_IT_number 63
_symmetry_cell_setting 'orthorhombic'
loop_
_space_group_symop_operation_xyz
x,y,z
-x,-y,1/2+z
x,-y,-z
-x,y,1/2-z
-x,-y,-z
x,y,1/2-z
-x,y,z
x,-y,1/2+z
1/2+x,1/2+y,z
1/2-x,1/2-y,1/2+z
1/2+x,1/2-y,-z
1/2-x,1/2+y,1/2-z
1/2-x,1/2-y,-z
1/2+x,1/2+y,1/2-z
1/2-x,1/2+y,z
1/2+x,1/2-y,1/2+z
loop_
_atom_site_type_symbol
_atom_site_label
_atom_site_fract_x
_atom_site_fract_y
_atom_site_fract_z
Si Si1 0.591425 0.768724 0.750000
Si Si2 0.158224 0.398399 0.368960
Si Si3 0.805198 0.146120 0.053502
Si Si4 0.302421 0.704505 0.614352
Si Si5 0.409433 0.973536 0.750000
Si Si6 0.587746 0.722898 0.334385
Si Si7 0.285175 0.000000 0.000000
O O1 0.500000 0.749758 0.750000
O O2 0.628984 0.726970 0.826666
O O3 0.607590 0.871475 0.750000
O O4 0.242322 0.361705 0.344518
O O5 0.130369 0.481601 0.322485
O O6 0.097378 0.320895 0.364914
O O7 0.162402 0.429390 0.457212
O O8 0.742935 0.210829 0.088505
O O9 0.878749 0.151626 0.108030
O O10 0.832591 0.163600 0.965632
O O11 0.769096 0.050629 0.060228
O O12 0.500000 0.992071 0.750000
O O13 0.626579 0.715690 0.250000
O O14 0.500000 0.700566 0.327692
#
# Coordination Sequence:
#
# PCOD8257981 Si02
#       7
#     8  16  16  16   8  16   8
#     4  11  23  34  52  82 119 151 178 220 280 341
#     4  10  19  35  57  78 107 143 180 226 268 318
#     4   9  19  35  58  80 104 144 187 230 274 316
#     4   9  19  36  55  77 107 146 192 222 260 331
#     4  11  21  32  48  80 117 145 170 214 278 329
#     4  10  20  35  56  81 110 147 189 225 267 330
#     4  10  20  36  54  84 110 132 184 236 280 322
#
# _framework density 18.747810999999999
#
# number of rings (size 3 to 8) (size 9 to 14) (size 15 to 20)
#    0.000    2.182    0.909    3.273    3.818    0.727 
#    1.636    4.091    0.000    1.091    0.000    0.000 
#    0.000    0.000    0.000    0.000    0.000    0.000 
#
# Total GULP energy -545241.661430 kJ/mol
# GULP energy per Si atom -12391.855942 kJ/mol
# Density = 1.870514 g / cm^3
# Si number density = 18.747811 Si / 1000 Ang^3
#
#
#
# Elastic Constant Matrix: (Units=GPa)
#
#
# Indices 1 2 3 4 5 6 
#
# 1 90.5132 28.8538 55.3768 0.0000 0.0000 0.0000
# 2 28.8538 54.1509 32.8332 0.0000 0.0000 0.0000
# 3 55.3768 32.8332 110.9958 0.0000 0.0000 0.0000
# 4 0.0000 0.0000 0.0000 35.9377 0.0000 0.0000
# 5 0.0000 0.0000 0.0000 0.0000 19.5169 0.0000
# 6 0.0000 0.0000 0.0000 0.0000 0.0000 24.2951
#
#
#
# Elastic Compliance Matrix: (Units=1/GPa)
#
#
# Indices 1 2 3 4 5 6 
#
# 1 0.016839 -0.004727 -0.007003 0.000000 0.000000 0.000000
# 2 -0.004727 0.023830 -0.004691 0.000000 0.000000 0.000000
# 3 -0.007003 -0.004691 0.013891 0.000000 0.000000 0.000000
# 4 0.000000 0.000000 0.000000 0.027826 0.000000 0.000000
# 5 0.000000 0.000000 0.000000 0.000000 0.051238 0.000000
# 6 0.000000 0.000000 0.000000 0.000000 0.000000 0.041161
#
#
# Mechanical properties :
#
#
# Convention : Reuss Voigt Hill
#
# Bulk Modulus (GPa) = 46.04304 54.42082 50.23193
# Shear Modulus (GPa) = 23.27044 25.18967 24.23006
#
# Velocity S-wave (km/s) = 3.52694 3.66950 3.59893
# Velocity P-wave (km/s) = 6.41858 6.85890 6.64239
#
# Compressibility (1/GPa) = 0.02171881
#
# Stress axis : x y z
#
# Youngs Moduli (GPa) = 59.38426 41.96470 71.98963
#
# Poissons Ratio (x) = 0.19835 0.50416
# Poissons Ratio (y) = 0.28068 0.33769
# Poissons Ratio (z) = 0.41588 0.19685
#
# Static dielectric constant tensor:
#      x y z
#    x 3.303110 0.000000 0.000000 
#    y 0.000000 3.473220 0.000000 
#    z 0.000000 0.000000 3.675550 
# 
# 
# High freq. dielectric constant tensor:
#      x y z
#    x 1.705490 0.000000 0.000000 
#    y 0.000000 1.723200 0.000000 
#    z 0.000000 0.000000 1.734700 
# 
# From -- ./inp_files/45596.got.cif
#   From: 2010.03.12/outbox.cif.g09.slc.cpg/sg63_23_cif.got.tgz:45596.got - 2010.04.10 19:34:48.
