data_PCOD8257890
_publ_section_title
;
Structure prediction by ZEFSAII (Michael W. Deem and Ramdas Pophale) SiO2 
 PCOD8257890
Probable space group: C M C M
;
_chemical_formula_sum "Si O2"
_cell_formula_units_Z 112
_cell_length_a 18.671167
_cell_length_b 10.986248
_cell_length_c 27.465153
_cell_angle_alpha 90.000000
_cell_angle_beta 90.000000
_cell_angle_gamma 90.000000
_cell_volume 5633.818927
_symmetry_space_group_name_H-M "C M C M"
_symmetry_group_IT_number 63
_symmetry_cell_setting 'orthorhombic'
loop_
_space_group_symop_operation_xyz
x,y,z
-x,-y,1/2+z
x,-y,-z
-x,y,1/2-z
-x,-y,-z
x,y,1/2-z
-x,y,z
x,-y,1/2+z
1/2+x,1/2+y,z
1/2-x,1/2-y,1/2+z
1/2+x,1/2-y,-z
1/2-x,1/2+y,1/2-z
1/2-x,1/2-y,-z
1/2+x,1/2+y,1/2-z
1/2-x,1/2+y,z
1/2+x,1/2-y,1/2+z
loop_
_atom_site_type_symbol
_atom_site_label
_atom_site_fract_x
_atom_site_fract_y
_atom_site_fract_z
Si Si1 0.169352 0.948771 0.627092
Si Si2 0.417203 0.887646 0.464213
Si Si3 0.083068 0.887497 0.533321
Si Si4 0.822514 0.537646 0.874863
Si Si5 0.629089 0.853762 0.802857
Si Si6 0.286839 0.249149 0.804173
Si Si7 0.079205 0.897850 0.195268
O O1 0.124233 0.894263 0.583462
O O2 0.249510 0.973147 0.606424
O O3 0.165959 0.851375 0.670174
O O4 0.131775 0.064831 0.651478
O O5 0.500000 0.898900 0.447655
O O6 0.404709 0.751546 0.487842
O O7 0.398004 0.000000 0.500000
O O8 0.364576 0.897717 0.418282
O O9 0.000000 0.909160 0.543641
O O10 0.111539 0.000000 0.500000
O O11 0.877186 0.445482 0.848199
O O12 0.794373 0.625665 0.833342
O O13 0.618814 0.919418 0.750000
O O14 0.705117 0.787260 0.803422
O O15 0.570711 0.748139 0.809119
O O16 0.317006 0.229185 0.750000
O O17 0.107957 0.931443 0.250000
O O18 0.000000 0.954221 0.187562
#
# Coordination Sequence:
#
# PCOD8257890 Si02
#       7
#    16  16  16  16  16  16  16
#     4  11  21  36  59  90 120 153 198 252 299 353
#     4  10  23  45  67  87 117 157 201 251 314 381
#     4  10  22  42  65  88 117 157 203 253 310 365
#     4  11  21  36  61  89 117 154 199 248 298 358
#     4   9  19  33  52  82 120 161 199 236 285 349
#     4  10  19  34  57  85 121 159 197 240 291 348
#     4  10  20  34  53  81 121 163 201 243 291 351
#
# _framework density 19.879943000000001
#
# number of rings (size 3 to 8) (size 9 to 14) (size 15 to 20)
#    0.000    1.857    2.857    1.286    0.000    3.429 
#    0.000    2.857    0.000    2.143    0.000    0.000 
#    0.000    0.000    0.000    0.000    0.000    0.000 
#
# Total GULP energy -693938.754491 kJ/mol
# GULP energy per Si atom -12391.763473 kJ/mol
# Density = 1.983470 g / cm^3
# Si number density = 19.879943 Si / 1000 Ang^3
#
#
#
# Elastic Constant Matrix: (Units=GPa)
#
#
# Indices 1 2 3 4 5 6 
#
# 1 43.7133 9.4687 28.1606 0.0000 0.0000 0.0000
# 2 9.4687 100.2610 39.6178 0.0000 0.0000 0.0000
# 3 28.1606 39.6178 85.2883 0.0000 0.0000 0.0000
# 4 0.0000 0.0000 0.0000 33.2388 0.0000 0.0000
# 5 0.0000 0.0000 0.0000 0.0000 23.8351 0.0000
# 6 0.0000 0.0000 0.0000 0.0000 0.0000 20.8492
#
#
#
# Elastic Compliance Matrix: (Units=1/GPa)
#
#
# Indices 1 2 3 4 5 6 
#
# 1 0.029192 0.001288 -0.010237 0.000000 0.000000 0.000000
# 2 0.001288 0.012273 -0.006126 0.000000 0.000000 0.000000
# 3 -0.010237 -0.006126 0.017951 0.000000 0.000000 0.000000
# 4 0.000000 0.000000 0.000000 0.030085 0.000000 0.000000
# 5 0.000000 0.000000 0.000000 0.000000 0.041955 0.000000
# 6 0.000000 0.000000 0.000000 0.000000 0.000000 0.047963
#
#
# Mechanical properties :
#
#
# Convention : Reuss Voigt Hill
#
# Bulk Modulus (GPa) = 34.16984 42.63964 38.40474
# Shear Modulus (GPa) = 22.79717 25.71899 24.25808
#
# Velocity S-wave (km/s) = 3.39003 3.60073 3.49697
# Velocity P-wave (km/s) = 5.70513 6.22753 5.97204
#
# Compressibility (1/GPa) = 0.02926557
#
# Stress axis : x y z
#
# Youngs Moduli (GPa) = 34.25582 81.47874 55.70768
#
# Poissons Ratio (x) = -0.10496 0.57028
# Poissons Ratio (y) = -0.04413 0.34129
# Poissons Ratio (z) = 0.35068 0.49917
#
# Static dielectric constant tensor:
#      x y z
#    x 3.490840 0.000000 0.000000 
#    y 0.000000 3.876330 0.000000 
#    z 0.000000 0.000000 3.689180 
# 
# 
# High freq. dielectric constant tensor:
#      x y z
#    x 1.765950 0.000000 0.000000 
#    y 0.000000 1.781370 0.000000 
#    z 0.000000 0.000000 1.761950 
# 
# From -- ./inp_files/64651.got.cif
#   From: 2010.03.12/outbox.cif.g09.slc.cpg/sg63_33_cif.got.tgz:64651.got - 2010.04.10 19:34:48.
