data_PCOD8257425
_publ_section_title
;
Structure prediction by ZEFSAII (Michael W. Deem and Ramdas Pophale) SiO2 
 PCOD8257425
Probable space group: C M C M
;
_chemical_formula_sum "Si O2"
_cell_formula_units_Z 80
_cell_length_a 24.727462
_cell_length_b 20.489663
_cell_length_c 8.679240
_cell_angle_alpha 90.000000
_cell_angle_beta 90.000000
_cell_angle_gamma 90.000000
_cell_volume 4397.400853
_symmetry_space_group_name_H-M "C M C M"
_symmetry_group_IT_number 63
_symmetry_cell_setting 'orthorhombic'
loop_
_space_group_symop_operation_xyz
x,y,z
-x,-y,1/2+z
x,-y,-z
-x,y,1/2-z
-x,-y,-z
x,y,1/2-z
-x,y,z
x,-y,1/2+z
1/2+x,1/2+y,z
1/2-x,1/2-y,1/2+z
1/2+x,1/2-y,-z
1/2-x,1/2+y,1/2-z
1/2-x,1/2-y,-z
1/2+x,1/2+y,1/2-z
1/2-x,1/2+y,z
1/2+x,1/2-y,1/2+z
loop_
_atom_site_type_symbol
_atom_site_label
_atom_site_fract_x
_atom_site_fract_y
_atom_site_fract_z
Si Si1 0.110763 0.616871 0.428361
Si Si2 0.718869 0.688845 0.068684
Si Si3 0.500000 0.115982 0.923678
Si Si4 0.389349 0.270756 0.428258
Si Si5 0.781486 0.431425 0.431710
Si Si6 0.000000 0.771117 0.576403
O O1 0.117596 0.598827 0.250000
O O2 0.116731 0.693814 0.456201
O O3 0.156180 0.580571 0.525951
O O4 0.052886 0.590700 0.486768
O O5 0.726949 0.690031 0.250000
O O6 0.750000 0.750000 0.000000
O O7 0.655930 0.691947 0.025709
O O8 0.743111 0.622815 0.003290
O O9 0.500000 0.088456 0.750000
O O10 0.500000 0.193559 0.922857
O O11 0.382901 0.288618 0.250000
O O12 0.447180 0.296633 0.487127
O O13 0.761991 0.500000 0.500000
O O14 0.774777 0.431276 0.250000
O O15 0.000000 0.798669 0.750000
#
# Coordination Sequence:
#
# PCOD8257425 Si02
#       6
#    16  16   8  16  16   8
#     4  10  19  33  53  77 108 144 187 231 278 329
#     4  12  23  37  58  85 114 147 189 234 281 333
#     4   9  17  29  48  74 105 142 186 230 277 324
#     4  10  19  32  53  81 113 147 185 229 278 330
#     4  12  25  41  59  80 111 148 188 233 284 338
#     4   9  17  29  47  76 113 146 181 226 278 330
#
# _framework density 18.192564000000001
#
# number of rings (size 3 to 8) (size 9 to 14) (size 15 to 20)
#    0.000    1.400    2.000    5.400    0.000    4.000 
#    0.000    0.500    0.000    0.000    0.000    0.700 
#    0.000    0.000    0.000    0.000    0.000    0.000 
#
# Total GULP energy -496187.964010 kJ/mol
# GULP energy per Si atom -12404.699100 kJ/mol
# Density = 1.815116 g / cm^3
# Si number density = 18.192564 Si / 1000 Ang^3
#
#
#
# Elastic Constant Matrix: (Units=GPa)
#
#
# Indices 1 2 3 4 5 6 
#
# 1 125.2369 50.8373 56.4704 0.0000 0.0000 0.0000
# 2 50.8373 84.9574 54.9596 0.0000 0.0000 0.0000
# 3 56.4704 54.9596 166.9157 0.0000 0.0000 0.0000
# 4 0.0000 0.0000 0.0000 24.3640 0.0000 0.0000
# 5 0.0000 0.0000 0.0000 0.0000 39.1066 0.0000
# 6 0.0000 0.0000 0.0000 0.0000 0.0000 11.5963
#
#
#
# Elastic Compliance Matrix: (Units=1/GPa)
#
#
# Indices 1 2 3 4 5 6 
#
# 1 0.011040 -0.005324 -0.001982 0.000000 0.000000 0.000000
# 2 -0.005324 0.017524 -0.003969 0.000000 0.000000 0.000000
# 3 -0.001982 -0.003969 0.007968 0.000000 0.000000 0.000000
# 4 0.000000 0.000000 0.000000 0.041044 0.000000 0.000000
# 5 0.000000 0.000000 0.000000 0.000000 0.025571 0.000000
# 6 0.000000 0.000000 0.000000 0.000000 0.000000 0.086235
#
#
# Mechanical properties :
#
#
# Convention : Reuss Voigt Hill
#
# Bulk Modulus (GPa) = 71.51757 77.96051 74.73904
# Shear Modulus (GPa) = 23.08491 29.33622 26.21057
#
# Velocity S-wave (km/s) = 3.56605 4.02000 3.79981
# Velocity P-wave (km/s) = 7.50683 8.03076 7.77321
#
# Compressibility (1/GPa) = 0.01398258
#
# Stress axis : x y z
#
# Youngs Moduli (GPa) = 90.58260 57.06529 125.49612
#
# Poissons Ratio (x) = 0.30381 0.24873
# Poissons Ratio (y) = 0.48225 0.49807
# Poissons Ratio (z) = 0.17953 0.22648
#
# Static dielectric constant tensor:
#      x y z
#    x 3.603330 0.000000 0.000000 
#    y 0.000000 3.082720 0.000000 
#    z 0.000000 0.000000 3.593260 
# 
# 
# High freq. dielectric constant tensor:
#      x y z
#    x 1.715690 0.000000 0.000000 
#    y 0.000000 1.659320 0.000000 
#    z 0.000000 0.000000 1.727660 
# 
# From -- ./inp_files/10086.got.cif
#   From: 2010.03.12/outbox.cif.g09.slc.cpg/sg63_6_cif.got.tgz:10086.got - 2010.04.10 19:34:48.
