data_PCOD8257539
_publ_section_title
;
Structure prediction by ZEFSAII (Michael W. Deem and Ramdas Pophale) SiO2 
 PCOD8257539
Probable space group: C M C M
;
_chemical_formula_sum "Si O2"
_cell_formula_units_Z 88
_cell_length_a 18.237547
_cell_length_b 28.883198
_cell_length_c 8.802835
_cell_angle_alpha 90.000000
_cell_angle_beta 90.000000
_cell_angle_gamma 90.000000
_cell_volume 4636.969754
_symmetry_space_group_name_H-M "C M C M"
_symmetry_group_IT_number 63
_symmetry_cell_setting 'orthorhombic'
loop_
_space_group_symop_operation_xyz
x,y,z
-x,-y,1/2+z
x,-y,-z
-x,y,1/2-z
-x,-y,-z
x,y,1/2-z
-x,y,z
x,-y,1/2+z
1/2+x,1/2+y,z
1/2-x,1/2-y,1/2+z
1/2+x,1/2-y,-z
1/2-x,1/2+y,1/2-z
1/2-x,1/2-y,-z
1/2+x,1/2+y,1/2-z
1/2-x,1/2+y,z
1/2+x,1/2-y,1/2+z
loop_
_atom_site_type_symbol
_atom_site_label
_atom_site_fract_x
_atom_site_fract_y
_atom_site_fract_z
Si Si1 0.082207 0.049018 0.929210
Si Si2 0.000000 0.551171 0.430623
Si Si3 0.189164 0.219287 0.925687
Si Si4 0.205037 0.882879 0.429698
Si Si5 0.130148 0.610261 0.927805
Si Si6 0.916433 0.701911 0.074852
O O1 0.090210 0.044620 0.750000
O O2 0.142023 0.084254 0.998138
O O3 0.000000 0.065582 0.973604
O O4 0.100478 0.000000 0.000000
O O5 0.000000 0.500000 0.500000
O O6 0.926918 0.578456 0.480881
O O7 0.000000 0.547424 0.250000
O O8 0.208214 0.214685 0.750000
O O9 0.189686 0.168150 0.999621
O O10 0.112794 0.246092 0.953416
O O11 0.250000 0.250000 0.000000
O O12 0.196290 0.880220 0.250000
O O13 0.285870 0.902820 0.470903
O O14 0.114587 0.603353 0.750000
O O15 0.123131 0.664272 0.969504
O O16 0.905461 0.687102 0.250000
O O17 0.000000 0.702610 0.026234
#
# Coordination Sequence:
#
# PCOD8257539 Si02
#       6
#    16   8  16  16  16  16
#     4   9  18  35  58  81 108 143 180 223 277 332
#     4  12  26  44  62  84 114 146 192 242 291 342
#     4  10  19  33  52  77 110 146 185 228 276 325
#     4   9  19  34  55  84 115 146 187 234 278 335
#     4  11  21  36  58  82 111 149 189 231 285 339
#     4  10  20  33  52  79 110 146 190 235 277 333
#
# _framework density 18.977910999999999
#
# number of rings (size 3 to 8) (size 9 to 14) (size 15 to 20)
#    0.000    2.000    2.727    1.364    0.000    1.455 
#    0.000    8.182    0.000    0.000    0.000    2.545 
#    0.000    0.000    0.000    0.000    0.000    0.000 
#
# Total GULP energy -545466.831132 kJ/mol
# GULP energy per Si atom -12396.973435 kJ/mol
# Density = 1.893472 g / cm^3
# Si number density = 18.977911 Si / 1000 Ang^3
#
#
#
# Elastic Constant Matrix: (Units=GPa)
#
#
# Indices 1 2 3 4 5 6 
#
# 1 153.0364 88.3374 37.0649 0.0000 0.0000 0.0000
# 2 88.3374 143.0351 36.4720 0.0000 0.0000 0.0000
# 3 37.0649 36.4720 51.3605 0.0000 0.0000 0.0000
# 4 0.0000 0.0000 0.0000 28.0653 0.0000 0.0000
# 5 0.0000 0.0000 0.0000 0.0000 18.1080 0.0000
# 6 0.0000 0.0000 0.0000 0.0000 0.0000 37.7194
#
#
#
# Elastic Compliance Matrix: (Units=1/GPa)
#
#
# Indices 1 2 3 4 5 6 
#
# 1 0.010701 -0.005665 -0.003699 0.000000 0.000000 0.000000
# 2 -0.005665 0.011537 -0.004104 0.000000 0.000000 0.000000
# 3 -0.003699 -0.004104 0.025054 0.000000 0.000000 0.000000
# 4 0.000000 0.000000 0.000000 0.035631 0.000000 0.000000
# 5 0.000000 0.000000 0.000000 0.000000 0.055224 0.000000
# 6 0.000000 0.000000 0.000000 0.000000 0.000000 0.026512
#
#
# Mechanical properties :
#
#
# Convention : Reuss Voigt Hill
#
# Bulk Modulus (GPa) = 49.12936 74.57562 61.85249
# Shear Modulus (GPa) = 25.20424 29.14906 27.17665
#
# Velocity S-wave (km/s) = 3.64824 3.92337 3.78830
# Velocity P-wave (km/s) = 6.60985 7.73984 7.19705
#
# Compressibility (1/GPa) = 0.02035443
#
# Stress axis : x y z
#
# Youngs Moduli (GPa) = 93.45348 86.68066 39.91386
#
# Poissons Ratio (x) = 0.49108 0.14765
# Poissons Ratio (y) = 0.52945 0.16380
# Poissons Ratio (z) = 0.34569 0.35573
#
# Static dielectric constant tensor:
#      x y z
#    x 3.634650 0.000000 0.000000 
#    y 0.000000 3.551290 0.000000 
#    z 0.000000 0.000000 3.274900 
# 
# 
# High freq. dielectric constant tensor:
#      x y z
#    x 1.750480 0.000000 0.000000 
#    y 0.000000 1.738510 0.000000 
#    z 0.000000 0.000000 1.716060 
# 
# From -- ./inp_files/6863.got.cif
#   From: 2010.03.12/outbox.cif.g09.slc.cpg/sg63_4_cif.got.tgz:6863.got - 2010.04.10 19:34:48.
