data_PCOD8257465
_publ_section_title
;
Structure prediction by ZEFSAII (Michael W. Deem and Ramdas Pophale) SiO2 
 PCOD8257465
Probable space group: C M C M
;
_chemical_formula_sum "Si O2"
_cell_formula_units_Z 80
_cell_length_a 28.748746
_cell_length_b 15.689121
_cell_length_c 8.983034
_cell_angle_alpha 90.000000
_cell_angle_beta 90.000000
_cell_angle_gamma 90.000000
_cell_volume 4051.730603
_symmetry_space_group_name_H-M "C M C M"
_symmetry_group_IT_number 63
_symmetry_cell_setting 'orthorhombic'
loop_
_space_group_symop_operation_xyz
x,y,z
-x,-y,1/2+z
x,-y,-z
-x,y,1/2-z
-x,-y,-z
x,y,1/2-z
-x,y,z
x,-y,1/2+z
1/2+x,1/2+y,z
1/2-x,1/2-y,1/2+z
1/2+x,1/2-y,-z
1/2-x,1/2+y,1/2-z
1/2-x,1/2-y,-z
1/2+x,1/2+y,1/2-z
1/2-x,1/2+y,z
1/2+x,1/2-y,1/2+z
loop_
_atom_site_type_symbol
_atom_site_label
_atom_site_fract_x
_atom_site_fract_y
_atom_site_fract_z
Si Si1 0.800511 0.668632 0.579988
Si Si2 0.552478 0.747730 0.427146
Si Si3 0.394937 0.914145 0.077877
Si Si4 0.889396 0.085388 0.426208
Si Si5 0.196556 0.155946 0.921472
O O1 0.804664 0.703308 0.750000
O O2 0.839852 0.598162 0.549647
O O3 0.808963 0.746050 0.468288
O O4 0.749995 0.626625 0.553036
O O5 0.553426 0.748116 0.250000
O O6 0.500000 0.743996 0.488720
O O7 0.577215 0.833074 0.488416
O O8 0.580228 0.664993 0.484807
O O9 0.406750 0.924186 0.250000
O O10 0.412243 0.000000 0.000000
O O11 0.891079 0.076283 0.250000
O O12 0.836134 0.096623 0.478509
O O13 0.910204 0.000000 0.500000
O O14 0.181753 0.146547 0.750000
#
# Coordination Sequence:
#
# PCOD8257465 Si02
#       5
#    16  16  16  16  16
#     4   9  18  34  54  80 114 154 191 228 275 328
#     4   9  19  38  62  82 107 147 187 229 287 346
#     4  10  20  36  57  83 114 147 186 228 274 329
#     4  11  22  38  59  84 115 148 188 233 283 339
#     4  10  19  32  55  84 114 149 192 231 274 331
#
# _framework density 19.74465
#
# number of rings (size 3 to 8) (size 9 to 14) (size 15 to 20)
#    0.000    2.200    2.000    1.200    0.000    3.200 
#    0.000    2.000    0.000    4.200    0.000    0.000 
#    0.000    0.000    0.000    0.000    0.000    0.000 
#
# Total GULP energy -496025.452494 kJ/mol
# GULP energy per Si atom -12400.636312 kJ/mol
# Density = 1.969971 g / cm^3
# Si number density = 19.744650 Si / 1000 Ang^3
#
#
#
# Elastic Constant Matrix: (Units=GPa)
#
#
# Indices 1 2 3 4 5 6 
#
# 1 124.7539 69.8772 32.2039 0.0000 0.0000 0.0000
# 2 69.8772 157.5206 41.6627 0.0000 0.0000 0.0000
# 3 32.2039 41.6627 57.2346 0.0000 0.0000 0.0000
# 4 0.0000 0.0000 0.0000 35.2018 0.0000 0.0000
# 5 0.0000 0.0000 0.0000 0.0000 17.6911 0.0000
# 6 0.0000 0.0000 0.0000 0.0000 0.0000 14.9584
#
#
#
# Elastic Compliance Matrix: (Units=1/GPa)
#
#
# Indices 1 2 3 4 5 6 
#
# 1 0.011151 -0.004071 -0.003311 0.000000 0.000000 0.000000
# 2 -0.004071 0.009348 -0.004514 0.000000 0.000000 0.000000
# 3 -0.003311 -0.004514 0.022621 0.000000 0.000000 0.000000
# 4 0.000000 0.000000 0.000000 0.028408 0.000000 0.000000
# 5 0.000000 0.000000 0.000000 0.000000 0.056526 0.000000
# 6 0.000000 0.000000 0.000000 0.000000 0.000000 0.066852
#
#
# Mechanical properties :
#
#
# Convention : Reuss Voigt Hill
#
# Bulk Modulus (GPa) = 51.73879 69.66631 60.70255
# Shear Modulus (GPa) = 22.20847 26.62128 24.41488
#
# Velocity S-wave (km/s) = 3.35742 3.67587 3.52025
# Velocity P-wave (km/s) = 6.42577 7.30591 6.87993
#
# Compressibility (1/GPa) = 0.01932786
#
# Stress axis : x y z
#
# Youngs Moduli (GPa) = 89.68163 106.97240 44.20689
#
# Poissons Ratio (x) = 0.43546 0.14636
# Poissons Ratio (y) = 0.36508 0.19956
# Poissons Ratio (z) = 0.29692 0.48291
#
# Static dielectric constant tensor:
#      x y z
#    x 3.776720 0.000000 0.000000 
#    y 0.000000 3.500640 0.000000 
#    z 0.000000 0.000000 3.360650 
# 
# 
# High freq. dielectric constant tensor:
#      x y z
#    x 1.771300 0.000000 0.000000 
#    y 0.000000 1.762360 0.000000 
#    z 0.000000 0.000000 1.747130 
# 
# From -- ./inp_files/12003.got.cif
#   From: 2010.03.12/outbox.cif.g09.slc.cpg/sg63_7_cif.got.tgz:12003.got - 2010.04.10 19:34:48.
