data_PCOD8257290
_publ_section_title
;
Structure prediction by ZEFSAII (Michael W. Deem and Ramdas Pophale) SiO2 
 PCOD8257290
Probable space group: C M C M
;
_chemical_formula_sum "Si O2"
_cell_formula_units_Z 80
_cell_length_a 27.077987
_cell_length_b 20.736121
_cell_length_c 8.844982
_cell_angle_alpha 90.000000
_cell_angle_beta 90.000000
_cell_angle_gamma 90.000000
_cell_volume 4966.390303
_symmetry_space_group_name_H-M "C M C M"
_symmetry_group_IT_number 63
_symmetry_cell_setting 'orthorhombic'
loop_
_space_group_symop_operation_xyz
x,y,z
-x,-y,1/2+z
x,-y,-z
-x,y,1/2-z
-x,-y,-z
x,y,1/2-z
-x,y,z
x,-y,1/2+z
1/2+x,1/2+y,z
1/2-x,1/2-y,1/2+z
1/2+x,1/2-y,-z
1/2-x,1/2+y,1/2-z
1/2-x,1/2-y,-z
1/2+x,1/2+y,1/2-z
1/2-x,1/2+y,z
1/2+x,1/2-y,1/2+z
loop_
_atom_site_type_symbol
_atom_site_label
_atom_site_fract_x
_atom_site_fract_y
_atom_site_fract_z
Si Si1 0.058352 0.934056 0.423263
Si Si2 0.105763 0.686393 0.078862
Si Si3 0.198400 0.238985 0.578890
Si Si4 0.943430 0.567058 0.927493
Si Si5 0.609912 0.686147 0.071044
O O1 0.076242 0.932469 0.250000
O O2 0.082050 0.876585 0.516264
O O3 0.000000 0.927056 0.435036
O O4 0.076450 0.000000 0.500000
O O5 0.085478 0.682358 0.250000
O O6 0.165676 0.694865 0.077316
O O7 0.091712 0.622624 0.989366
O O8 0.082650 0.750079 0.997711
O O9 0.207303 0.215265 0.750000
O O10 0.250000 0.250000 0.500000
O O11 0.166824 0.184505 0.488836
O O12 0.936374 0.561517 0.750000
O O13 0.000000 0.582613 0.971688
O O14 0.926275 0.500000 0.000000
O O15 0.608806 0.689976 0.250000
#
# Coordination Sequence:
#
# PCOD8257290 Si02
#       5
#    16  16  16  16  16
#     4  10  20  34  51  72 101 136 171 206 247 296
#     4   9  19  33  50  74 100 129 166 207 247 292
#     4   9  18  32  52  76 100 128 162 203 253 299
#     4  10  20  33  50  72 100 135 170 203 244 294
#     4  10  19  32  51  75 101 131 167 207 248 294
#
# _framework density 16.108280000000001
#
# number of rings (size 3 to 8) (size 9 to 14) (size 15 to 20)
#    1.200    1.200    0.000    3.600    0.000    3.200 
#    0.000    0.000    0.000    1.200    0.000    2.800 
#    0.000    0.000    0.000    0.000    0.000    0.000 
#
# Total GULP energy -495726.937628 kJ/mol
# GULP energy per Si atom -12393.173441 kJ/mol
# Density = 1.607162 g / cm^3
# Si number density = 16.108280 Si / 1000 Ang^3
#
#
#
# Elastic Constant Matrix: (Units=GPa)
#
#
# Indices 1 2 3 4 5 6 
#
# 1 35.9995 34.9328 31.0047 0.0000 0.0000 0.0000
# 2 34.9328 119.0961 56.2402 0.0000 0.0000 0.0000
# 3 31.0047 56.2402 134.1224 0.0000 0.0000 0.0000
# 4 0.0000 0.0000 0.0000 34.2315 0.0000 0.0000
# 5 0.0000 0.0000 0.0000 0.0000 18.3261 0.0000
# 6 0.0000 0.0000 0.0000 0.0000 0.0000 -28.5014
#
#
#
# Elastic Compliance Matrix: (Units=1/GPa)
#
#
# Indices 1 2 3 4 5 6 
#
# 1 0.042023 -0.009649 -0.005668 0.000000 0.000000 0.000000
# 2 -0.009649 0.012685 -0.003089 0.000000 0.000000 0.000000
# 3 -0.005668 -0.003089 0.010061 0.000000 0.000000 0.000000
# 4 0.000000 0.000000 0.000000 0.029213 0.000000 0.000000
# 5 0.000000 0.000000 0.000000 0.000000 0.054567 0.000000
# 6 0.000000 0.000000 0.000000 0.000000 0.000000 -0.035086
#
#
# Mechanical properties :
#
#
# Convention : Reuss Voigt Hill
#
# Bulk Modulus (GPa) = 35.76848 59.28593 47.52720
# Shear Modulus (GPa) = 31.32912 15.94726 23.63819
#
# Velocity S-wave (km/s) = 4.41490 3.14985 3.83489
# Velocity P-wave (km/s) = 6.94562 7.07907 7.01266
#
# Compressibility (1/GPa) = 0.02795758
#
# Stress axis : x y z
#
# Youngs Moduli (GPa) = 23.79622 78.83041 99.39076
#
# Poissons Ratio (x) = 0.76067 0.56337
# Poissons Ratio (y) = 0.22962 0.30698
# Poissons Ratio (z) = 0.13488 0.24348
#
# Static dielectric constant tensor:
#      x y z
#    x 2.806330 0.000000 0.000000 
#    y 0.000000 2.921820 0.000000 
#    z 0.000000 0.000000 3.356230 
# 
# 
# High freq. dielectric constant tensor:
#      x y z
#    x 1.592780 0.000000 0.000000 
#    y 0.000000 1.607240 0.000000 
#    z 0.000000 0.000000 1.645070 
# 
# From -- ./inp_files/14054.got.cif
#   From: 2010.03.12/outbox.cif.g09.slc.cpg/sg63_8_cif.got.tgz:14054.got - 2010.04.10 19:34:48.
