data_PCOD8257821
_publ_section_title
;
Structure prediction by ZEFSAII (Michael W. Deem and Ramdas Pophale) SiO2 
 PCOD8257821
Probable space group: C M C M
;
_chemical_formula_sum "Si O2"
_cell_formula_units_Z 96
_cell_length_a 9.224823
_cell_length_b 24.800544
_cell_length_c 21.711994
_cell_angle_alpha 90.000000
_cell_angle_beta 90.000000
_cell_angle_gamma 90.000000
_cell_volume 4967.283638
_symmetry_space_group_name_H-M "C M C M"
_symmetry_group_IT_number 63
_symmetry_cell_setting 'orthorhombic'
loop_
_space_group_symop_operation_xyz
x,y,z
-x,-y,1/2+z
x,-y,-z
-x,y,1/2-z
-x,-y,-z
x,y,1/2-z
-x,y,z
x,-y,1/2+z
1/2+x,1/2+y,z
1/2-x,1/2-y,1/2+z
1/2+x,1/2-y,-z
1/2-x,1/2+y,1/2-z
1/2-x,1/2-y,-z
1/2+x,1/2+y,1/2-z
1/2-x,1/2+y,z
1/2+x,1/2-y,1/2+z
loop_
_atom_site_type_symbol
_atom_site_label
_atom_site_fract_x
_atom_site_fract_y
_atom_site_fract_z
Si Si1 0.336998 0.824023 0.846530
Si Si2 0.670772 0.568999 0.180836
Si Si3 0.169503 0.128137 0.920403
Si Si4 0.169071 0.993984 0.430220
Si Si5 0.829925 0.792540 0.317297
Si Si6 0.336942 0.804660 0.511102
O O1 0.500000 0.831617 0.820237
O O2 0.239098 0.872017 0.822034
O O3 0.265686 0.767639 0.823812
O O4 0.340908 0.821994 0.919178
O O5 0.704174 0.545085 0.250000
O O6 0.500000 0.574700 0.172104
O O7 0.734449 0.532563 0.123999
O O8 0.199388 0.065987 0.905636
O O9 0.234290 0.164681 0.865339
O O10 0.000000 0.138622 0.932014
O O11 0.256951 0.144885 0.980498
O O12 0.000000 0.006801 0.435827
O O13 0.236378 0.000000 0.500000
O O14 0.794707 0.815755 0.250000
O O15 0.000000 0.787646 0.329886
O O16 0.500000 0.796834 0.485530
O O17 0.250000 0.750000 0.500000
#
# Coordination Sequence:
#
# PCOD8257821 Si02
#       6
#    16  16  16  16  16  16
#     4  10  20  35  54  77 107 143 182 222 269 331
#     4  10  21  36  55  83 114 145 188 237 281 327
#     4  10  19  34  55  79 107 141 181 222 272 325
#     4   9  18  33  54  78 107 144 182 223 274 328
#     4   9  17  30  49  74 103 135 174 217 261 318
#     4  11  21  34  54  81 111 141 177 223 274 331
#
# _framework density 19.326459
#
# number of rings (size 3 to 8) (size 9 to 14) (size 15 to 20)
#    0.000    2.167    1.667    2.000    0.000    4.333 
#    0.000    4.167    0.000    3.500    0.000    0.000 
#    0.000    0.000    0.000    0.000    0.000    0.000 
#
# Total GULP energy -594875.957955 kJ/mol
# GULP energy per Si atom -12393.249124 kJ/mol
# Density = 1.928247 g / cm^3
# Si number density = 19.326459 Si / 1000 Ang^3
#
#
#
# Elastic Constant Matrix: (Units=GPa)
#
#
# Indices 1 2 3 4 5 6 
#
# 1 42.8211 26.5207 19.9245 0.0000 0.0000 0.0000
# 2 26.5207 105.6557 59.4013 0.0000 0.0000 0.0000
# 3 19.9245 59.4013 125.3997 0.0000 0.0000 0.0000
# 4 0.0000 0.0000 0.0000 20.0093 0.0000 0.0000
# 5 0.0000 0.0000 0.0000 0.0000 17.3096 0.0000
# 6 0.0000 0.0000 0.0000 0.0000 0.0000 22.4829
#
#
#
# Elastic Compliance Matrix: (Units=1/GPa)
#
#
# Indices 1 2 3 4 5 6 
#
# 1 0.027862 -0.006140 -0.001518 0.000000 0.000000 0.000000
# 2 -0.006140 0.014253 -0.005776 0.000000 0.000000 0.000000
# 3 -0.001518 -0.005776 0.010952 0.000000 0.000000 0.000000
# 4 0.000000 0.000000 0.000000 0.049977 0.000000 0.000000
# 5 0.000000 0.000000 0.000000 0.000000 0.057771 0.000000
# 6 0.000000 0.000000 0.000000 0.000000 0.000000 0.044478
#
#
# Mechanical properties :
#
#
# Convention : Reuss Voigt Hill
#
# Bulk Modulus (GPa) = 38.17057 53.95216 46.06137
# Shear Modulus (GPa) = 20.75584 23.16236 21.95910
#
# Velocity S-wave (km/s) = 3.28069 3.46566 3.37444
# Velocity P-wave (km/s) = 5.84327 6.63259 6.25040
#
# Compressibility (1/GPa) = 0.02619820
#
# Stress axis : x y z
#
# Youngs Moduli (GPa) = 35.89084 70.15886 91.30817
#
# Poissons Ratio (x) = 0.43078 0.13865
# Poissons Ratio (y) = 0.22037 0.52741
# Poissons Ratio (z) = 0.05450 0.40525
#
# Static dielectric constant tensor:
#      x y z
#    x 3.173050 0.000000 0.000000 
#    y 0.000000 3.604420 0.000000 
#    z 0.000000 0.000000 3.842310 
# 
# 
# High freq. dielectric constant tensor:
#      x y z
#    x 1.704730 0.000000 0.000000 
#    y 0.000000 1.753440 0.000000 
#    z 0.000000 0.000000 1.770620 
# 
# From -- ./inp_files/51418.got.cif
#   From: 2010.03.12/outbox.cif.g09.slc.cpg/sg63_26_cif.got.tgz:51418.got - 2010.04.10 19:34:48.
