data_PCOD8257593
_publ_section_title
;
Structure prediction by ZEFSAII (Michael W. Deem and Ramdas Pophale) SiO2 
 PCOD8257593
Probable space group: C M C M
;
_chemical_formula_sum "Si O2"
_cell_formula_units_Z 80
_cell_length_a 9.118281
_cell_length_b 15.573697
_cell_length_c 29.083178
_cell_angle_alpha 90.000000
_cell_angle_beta 90.000000
_cell_angle_gamma 90.000000
_cell_volume 4129.966739
_symmetry_space_group_name_H-M "C M C M"
_symmetry_group_IT_number 63
_symmetry_cell_setting 'orthorhombic'
loop_
_space_group_symop_operation_xyz
x,y,z
-x,-y,1/2+z
x,-y,-z
-x,y,1/2-z
-x,-y,-z
x,y,1/2-z
-x,y,z
x,-y,1/2+z
1/2+x,1/2+y,z
1/2-x,1/2-y,1/2+z
1/2+x,1/2-y,-z
1/2-x,1/2+y,1/2-z
1/2-x,1/2-y,-z
1/2+x,1/2+y,1/2-z
1/2-x,1/2+y,z
1/2+x,1/2-y,1/2+z
loop_
_atom_site_type_symbol
_atom_site_label
_atom_site_fract_x
_atom_site_fract_y
_atom_site_fract_z
Si Si1 0.666940 0.973842 0.449743
Si Si2 0.334134 0.773146 0.454418
Si Si3 0.326082 0.872778 0.197290
Si Si4 0.327740 0.288542 0.859128
Si Si5 0.827815 0.019817 0.360148
O O1 0.500000 0.007007 0.443176
O O2 0.675232 0.872852 0.442907
O O3 0.725741 0.000000 0.500000
O O4 0.771514 0.017337 0.412386
O O5 0.500000 0.743239 0.462610
O O6 0.250000 0.750000 0.500000
O O7 0.262250 0.724918 0.410490
O O8 0.276380 0.874518 0.250000
O O9 0.500000 0.880865 0.192013
O O10 0.265917 0.783250 0.175933
O O11 0.255066 0.953273 0.171965
O O12 0.500000 0.273211 0.863503
O O13 0.293248 0.384276 0.841004
O O14 0.000000 0.999932 0.359393
#
# Coordination Sequence:
#
# PCOD8257593 Si02
#       5
#    16  16  16  16  16
#     4  10  20  35  56  82 116 158 199 238 283 344
#     4  10  19  33  53  78 113 151 191 234 277 337
#     4  10  21  41  66  85 110 154 199 237 288 355
#     4   9  19  37  58  82 114 153 191 231 284 347
#     4  11  22  36  59  89 120 150 188 245 296 340
#
# _framework density 19.370615999999998
#
# number of rings (size 3 to 8) (size 9 to 14) (size 15 to 20)
#    0.000    2.000    2.000    1.800    0.000    2.400 
#    0.000    5.000    0.000    0.000    0.000    0.000 
#    0.000    0.000    0.000    0.000    0.000    0.000 
#
# Total GULP energy -495981.393498 kJ/mol
# GULP energy per Si atom -12399.534837 kJ/mol
# Density = 1.932653 g / cm^3
# Si number density = 19.370616 Si / 1000 Ang^3
#
#
#
# Elastic Constant Matrix: (Units=GPa)
#
#
# Indices 1 2 3 4 5 6 
#
# 1 41.4141 27.5007 38.8061 0.0000 0.0000 0.0000
# 2 27.5007 119.3319 67.1916 0.0000 0.0000 0.0000
# 3 38.8061 67.1916 152.5472 0.0000 0.0000 0.0000
# 4 0.0000 0.0000 0.0000 31.5289 0.0000 0.0000
# 5 0.0000 0.0000 0.0000 0.0000 22.9588 0.0000
# 6 0.0000 0.0000 0.0000 0.0000 0.0000 23.4178
#
#
#
# Elastic Compliance Matrix: (Units=1/GPa)
#
#
# Indices 1 2 3 4 5 6 
#
# 1 0.032965 -0.003823 -0.006702 0.000000 0.000000 0.000000
# 2 -0.003823 0.011587 -0.004131 0.000000 0.000000 0.000000
# 3 -0.006702 -0.004131 0.010080 0.000000 0.000000 0.000000
# 4 0.000000 0.000000 0.000000 0.031717 0.000000 0.000000
# 5 0.000000 0.000000 0.000000 0.000000 0.043556 0.000000
# 6 0.000000 0.000000 0.000000 0.000000 0.000000 0.042703
#
#
# Mechanical properties :
#
#
# Convention : Reuss Voigt Hill
#
# Bulk Modulus (GPa) = 39.49544 64.47668 51.98606
# Shear Modulus (GPa) = 23.76872 27.56741 25.66806
#
# Velocity S-wave (km/s) = 3.50673 3.77657 3.64415
# Velocity P-wave (km/s) = 6.06876 7.23704 6.67849
#
# Compressibility (1/GPa) = 0.02531938
#
# Stress axis : x y z
#
# Youngs Moduli (GPa) = 30.33511 86.30199 99.20817
#
# Poissons Ratio (x) = 0.32997 0.66487
# Poissons Ratio (y) = 0.11598 0.40984
# Poissons Ratio (z) = 0.20330 0.35652
#
# Static dielectric constant tensor:
#      x y z
#    x 3.335550 0.000000 0.000000 
#    y 0.000000 4.041890 0.000000 
#    z 0.000000 0.000000 4.004730 
# 
# 
# High freq. dielectric constant tensor:
#      x y z
#    x 1.725750 0.000000 0.000000 
#    y 0.000000 1.767580 0.000000 
#    z 0.000000 0.000000 1.758190 
# 
# From -- ./inp_files/66568.got.cif
#   From: 2010.03.12/outbox.cif.g09.slc.cpg/sg63_34_cif.got.tgz:66568.got - 2010.04.10 19:34:48.
