data_PCOD8257351
_publ_section_title
;
Structure prediction by ZEFSAII (Michael W. Deem and Ramdas Pophale) SiO2 
 PCOD8257351
Probable space group: C M C M
;
_chemical_formula_sum "Si O2"
_cell_formula_units_Z 112
_cell_length_a 12.658502
_cell_length_b 22.330454
_cell_length_c 23.041961
_cell_angle_alpha 90.000000
_cell_angle_beta 90.000000
_cell_angle_gamma 90.000000
_cell_volume 6513.273342
_symmetry_space_group_name_H-M "C M C M"
_symmetry_group_IT_number 63
_symmetry_cell_setting 'orthorhombic'
loop_
_space_group_symop_operation_xyz
x,y,z
-x,-y,1/2+z
x,-y,-z
-x,y,1/2-z
-x,-y,-z
x,y,1/2-z
-x,y,z
x,-y,1/2+z
1/2+x,1/2+y,z
1/2-x,1/2-y,1/2+z
1/2+x,1/2-y,-z
1/2-x,1/2+y,1/2-z
1/2-x,1/2-y,-z
1/2+x,1/2+y,1/2-z
1/2-x,1/2+y,z
1/2+x,1/2-y,1/2+z
loop_
_atom_site_type_symbol
_atom_site_label
_atom_site_fract_x
_atom_site_fract_y
_atom_site_fract_z
Si Si1 0.617340 0.384098 0.869172
Si Si2 0.707274 0.841130 0.479591
Si Si3 0.830711 0.423967 0.816645
Si Si4 0.000000 0.482798 0.603226
Si Si5 0.119091 0.931970 0.997657
Si Si6 0.773172 0.770802 0.907598
Si Si7 0.882158 0.710703 0.186228
Si Si8 0.000000 0.583613 0.518867
O O1 0.500000 0.391004 0.841104
O O2 0.705549 0.417953 0.830666
O O3 0.639476 0.312670 0.876347
O O4 0.619121 0.414671 0.931060
O O5 0.805424 0.886333 0.466769
O O6 0.723032 0.806901 0.539580
O O7 0.685841 0.793456 0.428431
O O8 0.602555 0.877292 0.485524
O O9 0.843356 0.445779 0.750000
O O10 0.893860 0.468954 0.859401
O O11 0.884202 0.359995 0.826937
O O12 0.000000 0.551753 0.582381
O O13 0.000000 0.453799 0.539950
O O14 0.000000 0.927786 0.023651
O O15 0.162386 0.000000 0.000000
O O16 0.683909 0.753869 0.861152
O O17 0.832978 0.721907 0.250000
O O18 0.000000 0.735907 0.183231
#
# Coordination Sequence:
#
# PCOD8257351 Si02
#       8
#    16  16  16   8  16  16  16   8
#     4   9  18  31  50  73 102 136 166 213 266 310
#     4  10  21  33  48  76 105 144 175 209 257 312
#     4  10  19  32  52  77 104 133 174 218 262 308
#     4  11  21  34  52  78 107 143 164 216 263 306
#     4   9  18  32  50  71 101 135 173 214 258 316
#     4   9  19  33  49  73 106 141 171 213 258 313
#     4   9  16  28  50  77 100 127 166 217 265 301
#     4  11  24  32  52  80 112 138 173 210 255 321
#
# _framework density 17.195654999999999
#
# number of rings (size 3 to 8) (size 9 to 14) (size 15 to 20)
#    0.000    2.429    0.714    2.786    6.000    0.857 
#    2.571    0.000    0.000    1.714    0.000    0.000 
#    0.000    0.000    0.000    0.000    0.000    0.000 
#
# Total GULP energy -693952.720298 kJ/mol
# GULP energy per Si atom -12392.012862 kJ/mol
# Density = 1.715652 g / cm^3
# Si number density = 17.195655 Si / 1000 Ang^3
#
#
#
# Elastic Constant Matrix: (Units=GPa)
#
#
# Indices 1 2 3 4 5 6 
#
# 1 91.4272 9.3498 5.6585 0.0000 0.0000 0.0000
# 2 9.3498 43.8603 -3.2771 0.0000 0.0000 0.0000
# 3 5.6585 -3.2771 28.4014 0.0000 0.0000 0.0000
# 4 0.0000 0.0000 0.0000 17.2632 0.0000 0.0000
# 5 0.0000 0.0000 0.0000 0.0000 29.3458 0.0000
# 6 0.0000 0.0000 0.0000 0.0000 0.0000 -11.4677
#
#
#
# Elastic Compliance Matrix: (Units=1/GPa)
#
#
# Indices 1 2 3 4 5 6 
#
# 1 0.011364 -0.002614 -0.002566 0.000000 0.000000 0.000000
# 2 -0.002614 0.023599 0.003244 0.000000 0.000000 0.000000
# 3 -0.002566 0.003244 0.036095 0.000000 0.000000 0.000000
# 4 0.000000 0.000000 0.000000 0.057927 0.000000 0.000000
# 5 0.000000 0.000000 0.000000 0.000000 0.034076 0.000000
# 6 0.000000 0.000000 0.000000 0.000000 0.000000 -0.087202
#
#
# Mechanical properties :
#
#
# Convention : Reuss Voigt Hill
#
# Bulk Modulus (GPa) = 14.88403 20.79460 17.83932
# Shear Modulus (GPa) = 48.95868 17.15877 33.05872
#
# Velocity S-wave (km/s) = 5.34166 3.16231 4.38939
# Velocity P-wave (km/s) = 6.83513 5.04508 6.00715
#
# Compressibility (1/GPa) = 0.06718610
#
# Stress axis : x y z
#
# Youngs Moduli (GPa) = 87.99877 42.37418 27.70463
#
# Poissons Ratio (x) = 0.11077 0.07108
# Poissons Ratio (y) = 0.23004 -0.08987
# Poissons Ratio (z) = 0.22578 -0.13745
#
# Static dielectric constant tensor:
#      x y z
#    x 3.401910 0.000000 0.000000 
#    y 0.000000 3.136400 0.000000 
#    z 0.000000 0.000000 3.198920 
# 
# 
# High freq. dielectric constant tensor:
#      x y z
#    x 1.671620 0.000000 0.000000 
#    y 0.000000 1.636430 0.000000 
#    z 0.000000 0.000000 1.649870 
# 
# From -- ./inp_files/61980.got.cif
#   From: 2010.03.12/outbox.cif.g09.slc.cpg/sg63_31_cif.got.tgz:61980.got - 2010.04.10 19:34:48.
