data_PCOD8257017
_publ_section_title
;
Structure prediction by ZEFSAII (Michael W. Deem and Ramdas Pophale) SiO2 
 PCOD8257017
Probable space group: C M C M
;
_chemical_formula_sum "Si O2"
_cell_formula_units_Z 96
_cell_length_a 9.122682
_cell_length_b 31.381313
_cell_length_c 18.875655
_cell_angle_alpha 90.000000
_cell_angle_beta 90.000000
_cell_angle_gamma 90.000000
_cell_volume 5403.755343
_symmetry_space_group_name_H-M "C M C M"
_symmetry_group_IT_number 63
_symmetry_cell_setting 'orthorhombic'
loop_
_space_group_symop_operation_xyz
x,y,z
-x,-y,1/2+z
x,-y,-z
-x,y,1/2-z
-x,-y,-z
x,y,1/2-z
-x,y,z
x,-y,1/2+z
1/2+x,1/2+y,z
1/2-x,1/2-y,1/2+z
1/2+x,1/2-y,-z
1/2-x,1/2+y,1/2-z
1/2-x,1/2-y,-z
1/2+x,1/2+y,1/2-z
1/2-x,1/2+y,z
1/2+x,1/2-y,1/2+z
loop_
_atom_site_type_symbol
_atom_site_label
_atom_site_fract_x
_atom_site_fract_y
_atom_site_fract_z
Si Si1 0.667048 0.250305 0.928002
Si Si2 0.672542 0.158190 0.918089
Si Si3 0.665548 0.997173 0.165716
Si Si4 0.171457 0.918996 0.668616
Si Si5 0.171226 0.842608 0.568481
Si Si6 0.332267 0.414020 0.334004
O O1 0.500000 0.247441 0.950184
O O2 0.705742 0.206272 0.886841
O O3 0.698884 0.296476 0.891952
O O4 0.750000 0.250000 0.000000
O O5 0.500000 0.148038 0.918981
O O6 0.752404 0.126909 0.864828
O O7 0.734624 0.152861 0.997313
O O8 0.668292 0.996582 0.250000
O O9 0.500000 0.995533 0.136449
O O10 0.742952 0.040098 0.138261
O O11 0.753735 0.956459 0.136373
O O12 0.213086 0.909857 0.750000
O O13 0.222447 0.878313 0.623652
O O14 0.000000 0.928413 0.660620
O O15 0.000000 0.847920 0.548979
O O16 0.320500 0.411508 0.250000
O O17 0.500000 0.415024 0.359505
#
# Coordination Sequence:
#
# PCOD8257017 Si02
#       6
#    16  16  16  16  16  16
#     4   8  15  28  46  68  93 125 162 195 231 277
#     4  10  19  31  49  73  99 126 159 200 243 284
#     4   9  17  30  49  71  95 124 157 193 235 284
#     4   9  17  30  49  72  97 126 160 196 234 279
#     4   9  17  31  50  71  97 129 164 199 235 280
#     4  10  20  34  52  72  95 125 160 196 236 285
#
# _framework density 17.765422000000001
#
# number of rings (size 3 to 8) (size 9 to 14) (size 15 to 20)
#    0.000    2.833    0.000    1.500    0.000    4.333 
#    0.000    1.667    0.000    8.000    0.000    2.333 
#    0.000    0.000    0.000    0.000    0.000    0.000 
#
# Total GULP energy -594727.344978 kJ/mol
# GULP energy per Si atom -12390.153020 kJ/mol
# Density = 1.772499 g / cm^3
# Si number density = 17.765422 Si / 1000 Ang^3
#
#
#
# Elastic Constant Matrix: (Units=GPa)
#
#
# Indices 1 2 3 4 5 6 
#
# 1 96.7488 74.9671 25.6644 0.0000 0.0000 0.0000
# 2 74.9671 183.0026 35.1019 0.0000 0.0000 0.0000
# 3 25.6644 35.1019 25.6338 0.0000 0.0000 0.0000
# 4 0.0000 0.0000 0.0000 27.5827 0.0000 0.0000
# 5 0.0000 0.0000 0.0000 0.0000 20.9756 0.0000
# 6 0.0000 0.0000 0.0000 0.0000 0.0000 30.8160
#
#
#
# Elastic Compliance Matrix: (Units=1/GPa)
#
#
# Indices 1 2 3 4 5 6 
#
# 1 0.016863 -0.004977 -0.010068 0.000000 0.000000 0.000000
# 2 -0.004977 0.008880 -0.007177 0.000000 0.000000 0.000000
# 3 -0.010068 -0.007177 0.058919 0.000000 0.000000 0.000000
# 4 0.000000 0.000000 0.000000 0.036255 0.000000 0.000000
# 5 0.000000 0.000000 0.000000 0.000000 0.047674 0.000000
# 6 0.000000 0.000000 0.000000 0.000000 0.000000 0.032451
#
#
# Mechanical properties :
#
#
# Convention : Reuss Voigt Hill
#
# Bulk Modulus (GPa) = 24.86441 64.09466 44.47954
# Shear Modulus (GPa) = 19.31311 27.18499 23.24905
#
# Velocity S-wave (km/s) = 3.30072 3.91605 3.62148
# Velocity P-wave (km/s) = 5.34347 7.52355 6.52520
#
# Compressibility (1/GPa) = 0.04021812
#
# Stress axis : x y z
#
# Youngs Moduli (GPa) = 59.30078 112.61573 16.97246
#
# Poissons Ratio (x) = 0.56047 0.17088
# Poissons Ratio (y) = 0.29513 0.12181
# Poissons Ratio (z) = 0.59706 0.80822
#
# Static dielectric constant tensor:
#      x y z
#    x 3.426500 0.000000 0.000000 
#    y 0.000000 4.034590 0.000000 
#    z 0.000000 0.000000 2.814840 
# 
# 
# High freq. dielectric constant tensor:
#      x y z
#    x 1.696260 0.000000 0.000000 
#    y 0.000000 1.713950 0.000000 
#    z 0.000000 0.000000 1.633440 
# 
# From -- ./inp_files/51396.got.cif
#   From: 2010.03.12/outbox.cif.g09.slc.cpg/sg63_26_cif.got.tgz:51396.got - 2010.04.10 19:34:48.
