data_PCOD8257018
_publ_section_title
;
Structure prediction by ZEFSAII (Michael W. Deem and Ramdas Pophale) SiO2 
 PCOD8257018
Probable space group: C M C M
;
_chemical_formula_sum "Si O2"
_cell_formula_units_Z 72
_cell_length_a 12.199404
_cell_length_b 32.864140
_cell_length_c 9.841492
_cell_angle_alpha 90.000000
_cell_angle_beta 90.000000
_cell_angle_gamma 90.000000
_cell_volume 3945.679719
_symmetry_space_group_name_H-M "C M C M"
_symmetry_group_IT_number 63
_symmetry_cell_setting 'orthorhombic'
loop_
_space_group_symop_operation_xyz
x,y,z
-x,-y,1/2+z
x,-y,-z
-x,y,1/2-z
-x,-y,-z
x,y,1/2-z
-x,y,z
x,-y,1/2+z
1/2+x,1/2+y,z
1/2-x,1/2-y,1/2+z
1/2+x,1/2-y,-z
1/2-x,1/2+y,1/2-z
1/2-x,1/2-y,-z
1/2+x,1/2+y,1/2-z
1/2-x,1/2+y,z
1/2+x,1/2-y,1/2+z
loop_
_atom_site_type_symbol
_atom_site_label
_atom_site_fract_x
_atom_site_fract_y
_atom_site_fract_z
Si Si1 0.781265 0.794737 0.750000
Si Si2 0.373019 0.793218 0.250000
Si Si3 0.124835 0.678095 0.032213
Si Si4 0.373203 0.382647 0.750000
Si Si5 0.624745 0.973148 0.750000
Si Si6 0.299330 0.091030 0.457354
Si Si7 0.865383 0.564139 0.750000
O O1 0.854781 0.754894 0.750000
O O2 0.701427 0.793458 0.878405
O O3 0.860235 0.833943 0.750000
O O4 0.500000 0.802111 0.250000
O O5 0.325201 0.815864 0.381693
O O6 0.130367 0.631142 0.079097
O O7 0.000000 0.693473 0.045668
O O8 0.500000 0.394697 0.750000
O O9 0.320409 0.401626 0.888792
O O10 0.500000 0.984345 0.750000
O O11 0.650784 0.948632 0.886635
O O12 0.678865 0.017740 0.750000
O O13 0.307386 0.084820 0.619243
O O14 0.000000 0.570063 0.750000
#
# Coordination Sequence:
#
# PCOD8257018 Si02
#       7
#     8   8  16   8   8  16   8
#     4  10  19  32  51  72  96 127 168 212 250 297
#     4  10  20  32  47  69 100 132 162 200 247 297
#     4  10  19  31  49  73  99 130 163 201 252 305
#     4   9  20  38  57  73  95 136 184 222 254 291
#     4  10  19  31  50  78 111 143 168 197 248 314
#     4  10  20  33  53  76 104 137 172 211 250 305
#     4  11  20  31  51  82 116 140 160 199 257 315
#
# _framework density 18.247807000000002
#
# number of rings (size 3 to 8) (size 9 to 14) (size 15 to 20)
#    0.000    2.000    0.000    5.333    0.000    2.667 
#    0.000    0.556    0.000   12.000    0.000    0.000 
#    0.000    0.000    0.000    0.000    0.000    0.000 
#
# Total GULP energy -446112.784838 kJ/mol
# GULP energy per Si atom -12392.021801 kJ/mol
# Density = 1.820627 g / cm^3
# Si number density = 18.247807 Si / 1000 Ang^3
#
#
#
# Elastic Constant Matrix: (Units=GPa)
#
#
# Indices 1 2 3 4 5 6 
#
# 1 70.3754 11.6405 45.6376 0.0000 0.0000 0.0000
# 2 11.6405 70.7164 14.3663 0.0000 0.0000 0.0000
# 3 45.6376 14.3663 139.9522 0.0000 0.0000 0.0000
# 4 0.0000 0.0000 0.0000 32.5909 0.0000 0.0000
# 5 0.0000 0.0000 0.0000 0.0000 2.5378 0.0000
# 6 0.0000 0.0000 0.0000 0.0000 0.0000 21.6677
#
#
#
# Elastic Compliance Matrix: (Units=1/GPa)
#
#
# Indices 1 2 3 4 5 6 
#
# 1 0.018250 -0.001833 -0.005763 0.000000 0.000000 0.000000
# 2 -0.001833 0.014626 -0.000904 0.000000 0.000000 0.000000
# 3 -0.005763 -0.000904 0.009117 0.000000 0.000000 0.000000
# 4 0.000000 0.000000 0.000000 0.030683 0.000000 0.000000
# 5 0.000000 0.000000 0.000000 0.000000 0.394046 0.000000
# 6 0.000000 0.000000 0.000000 0.000000 0.000000 0.046152
#
#
# Mechanical properties :
#
#
# Convention : Reuss Voigt Hill
#
# Bulk Modulus (GPa) = 40.00988 47.14808 43.57898
# Shear Modulus (GPa) = 9.29012 25.31926 17.30469
#
# Velocity S-wave (km/s) = 2.25879 3.72899 3.08281
# Velocity P-wave (km/s) = 5.36436 6.66590 6.05023
#
# Compressibility (1/GPa) = 0.02499383
#
# Stress axis : x y z
#
# Youngs Moduli (GPa) = 54.79453 68.36988 109.68110
#
# Poissons Ratio (x) = 0.12534 0.63210
# Poissons Ratio (y) = 0.10046 0.09911
# Poissons Ratio (z) = 0.31578 0.06178
#
# Static dielectric constant tensor:
#      x y z
#    x 3.039300 0.000000 0.000000 
#    y 0.000000 3.345890 0.000000 
#    z 0.000000 0.000000 3.792780 
# 
# 
# High freq. dielectric constant tensor:
#      x y z
#    x 1.667700 0.000000 0.000000 
#    y 0.000000 1.713150 0.000000 
#    z 0.000000 0.000000 1.723870 
# 
# From -- ./inp_files/5029.got.cif
#   From: 2010.03.12/outbox.cif.g09.slc.cpg/sg63_3_cif.got.tgz:5029.got - 2010.04.10 19:34:48.
