data_PCOD8257480
_publ_section_title
;
Structure prediction by ZEFSAII (Michael W. Deem and Ramdas Pophale) SiO2 
 PCOD8257480
Probable space group: C M C M
;
_chemical_formula_sum "Si O2"
_cell_formula_units_Z 104
_cell_length_a 31.946822
_cell_length_b 20.780317
_cell_length_c 8.888129
_cell_angle_alpha 90.000000
_cell_angle_beta 90.000000
_cell_angle_gamma 90.000000
_cell_volume 5900.518543
_symmetry_space_group_name_H-M "C M C M"
_symmetry_group_IT_number 63
_symmetry_cell_setting 'orthorhombic'
loop_
_space_group_symop_operation_xyz
x,y,z
-x,-y,1/2+z
x,-y,-z
-x,y,1/2-z
-x,-y,-z
x,y,1/2-z
-x,y,z
x,-y,1/2+z
1/2+x,1/2+y,z
1/2-x,1/2-y,1/2+z
1/2+x,1/2-y,-z
1/2-x,1/2+y,1/2-z
1/2-x,1/2-y,-z
1/2+x,1/2+y,1/2-z
1/2-x,1/2+y,z
1/2+x,1/2-y,1/2+z
loop_
_atom_site_type_symbol
_atom_site_label
_atom_site_fract_x
_atom_site_fract_y
_atom_site_fract_z
Si Si1 0.342759 0.172991 0.427778
Si Si2 0.285838 0.067015 0.926695
Si Si3 0.453751 0.283028 0.076681
Si Si4 0.427217 0.157195 0.926222
Si Si5 0.363046 0.684108 0.574151
Si Si6 0.311275 0.565313 0.926158
Si Si7 0.000000 0.566841 0.574668
O O1 0.336044 0.169524 0.250000
O O2 0.306876 0.131128 0.506567
O O3 0.386720 0.142259 0.474208
O O4 0.344943 0.247441 0.487308
O O5 0.294868 0.063172 0.750000
O O6 0.237167 0.075924 0.964591
O O7 0.302359 0.000000 0.000000
O O8 0.450041 0.259856 0.250000
O O9 0.500000 0.316077 0.050786
O O10 0.412904 0.327124 0.040291
O O11 0.450430 0.223277 0.965726
O O12 0.415950 0.156707 0.750000
O O13 0.458370 0.102111 0.977585
O O14 0.354538 0.684608 0.750000
O O15 0.337280 0.624975 0.502367
O O16 0.319174 0.559504 0.750000
O O17 0.328230 0.500000 0.000000
O O18 0.000000 0.500000 0.500000
O O19 0.000000 0.559363 0.750000
#
# Coordination Sequence:
#
# PCOD8257480 Si02
#       7
#    16  16  16  16  16  16   8
#     4  10  20  34  52  75 101 131 166 208 254 302
#     4  10  20  34  52  73  97 132 172 210 254 303
#     4   9  16  28  50  75  97 127 164 199 242 299
#     4  10  19  33  48  67  95 126 160 203 251 293
#     4   8  16  31  50  75 104 132 165 207 254 300
#     4   9  18  34  54  74 100 133 169 207 250 304
#     4  10  22  34  46  64  88 122 161 200 243 286
#
# _framework density 17.625568999999999
#
# number of rings (size 3 to 8) (size 9 to 14) (size 15 to 20)
#    0.000    2.615    0.769    2.308    0.000    3.077 
#    0.000    5.385    0.000    0.462    0.000    0.000 
#    0.000    0.000    0.000    0.000    0.000    0.000 
#
# Total GULP energy -644370.065317 kJ/mol
# GULP energy per Si atom -12391.732025 kJ/mol
# Density = 1.758545 g / cm^3
# Si number density = 17.625569 Si / 1000 Ang^3
#
#
#
# Elastic Constant Matrix: (Units=GPa)
#
#
# Indices 1 2 3 4 5 6 
#
# 1 109.2860 79.8741 32.4764 0.0000 0.0000 0.0000
# 2 79.8741 129.3933 32.7964 0.0000 0.0000 0.0000
# 3 32.4764 32.7964 36.0912 0.0000 0.0000 0.0000
# 4 0.0000 0.0000 0.0000 23.1412 0.0000 0.0000
# 5 0.0000 0.0000 0.0000 0.0000 21.5805 0.0000
# 6 0.0000 0.0000 0.0000 0.0000 0.0000 26.2601
#
#
#
# Elastic Compliance Matrix: (Units=1/GPa)
#
#
# Indices 1 2 3 4 5 6 
#
# 1 0.018317 -0.009263 -0.008065 0.000000 0.000000 0.000000
# 2 -0.009263 0.014725 -0.005046 0.000000 0.000000 0.000000
# 3 -0.008065 -0.005046 0.039550 0.000000 0.000000 0.000000
# 4 0.000000 0.000000 0.000000 0.043213 0.000000 0.000000
# 5 0.000000 0.000000 0.000000 0.000000 0.046338 0.000000
# 6 0.000000 0.000000 0.000000 0.000000 0.000000 0.038081
#
#
# Mechanical properties :
#
#
# Convention : Reuss Voigt Hill
#
# Bulk Modulus (GPa) = 35.91352 62.78492 49.34922
# Shear Modulus (GPa) = 19.66544 22.83795 21.25169
#
# Velocity S-wave (km/s) = 3.34388 3.60353 3.47613
# Velocity P-wave (km/s) = 5.94380 7.28098 6.64611
#
# Compressibility (1/GPa) = 0.02784467
#
# Stress axis : x y z
#
# Youngs Moduli (GPa) = 54.59444 67.91088 25.28428
#
# Poissons Ratio (x) = 0.62904 0.20392
# Poissons Ratio (y) = 0.50569 0.12758
# Poissons Ratio (z) = 0.44031 0.34267
#
# Static dielectric constant tensor:
#      x y z
#    x 3.591210 0.000000 0.000000 
#    y 0.000000 3.334950 0.000000 
#    z 0.000000 0.000000 3.127670 
# 
# 
# High freq. dielectric constant tensor:
#      x y z
#    x 1.688060 0.000000 0.000000 
#    y 0.000000 1.661200 0.000000 
#    z 0.000000 0.000000 1.672760 
# 
# From -- ./inp_files/14474.got.cif
#   From: 2010.03.12/outbox.cif.g09.slc.cpg/sg63_8_cif.got.tgz:14474.got - 2010.04.10 19:34:48.
