data_PCOD8257552
_publ_section_title
;
Structure prediction by ZEFSAII (Michael W. Deem and Ramdas Pophale) SiO2 
 PCOD8257552
Probable space group: C M C M
;
_chemical_formula_sum "Si O2"
_cell_formula_units_Z 104
_cell_length_a 20.498291
_cell_length_b 29.964417
_cell_length_c 9.527300
_cell_angle_alpha 90.000000
_cell_angle_beta 90.000000
_cell_angle_gamma 90.000000
_cell_volume 5851.851911
_symmetry_space_group_name_H-M "C M C M"
_symmetry_group_IT_number 63
_symmetry_cell_setting 'orthorhombic'
loop_
_space_group_symop_operation_xyz
x,y,z
-x,-y,1/2+z
x,-y,-z
-x,y,1/2-z
-x,-y,-z
x,y,1/2-z
-x,y,z
x,-y,1/2+z
1/2+x,1/2+y,z
1/2-x,1/2-y,1/2+z
1/2+x,1/2-y,-z
1/2-x,1/2+y,1/2-z
1/2-x,1/2-y,-z
1/2+x,1/2+y,1/2-z
1/2-x,1/2+y,z
1/2+x,1/2-y,1/2+z
loop_
_atom_site_type_symbol
_atom_site_label
_atom_site_fract_x
_atom_site_fract_y
_atom_site_fract_z
Si Si1 0.274864 0.871665 0.584608
Si Si2 0.500000 0.957553 0.592822
Si Si3 0.306547 0.225758 0.414055
Si Si4 0.642186 0.953955 0.914583
Si Si5 0.076933 0.961131 0.905100
Si Si6 0.372899 0.367107 0.916560
Si Si7 0.073850 0.786625 0.089231
O O1 0.275006 0.877351 0.750000
O O2 0.311563 0.826120 0.540599
O O3 0.309909 0.915834 0.522712
O O4 0.201204 0.867664 0.528907
O O5 0.500000 0.975667 0.750000
O O6 0.431078 0.932511 0.564908
O O7 0.500000 0.000000 0.500000
O O8 0.288449 0.230040 0.250000
O O9 0.250000 0.250000 0.500000
O O10 0.376762 0.246778 0.449274
O O11 0.655670 0.963811 0.750000
O O12 0.652175 0.000000 0.000000
O O13 0.107561 0.966093 0.750000
O O14 0.094883 0.913156 0.967246
O O15 0.000000 0.966435 0.898806
O O16 0.108182 0.000000 0.000000
O O17 0.378300 0.360092 0.750000
O O18 0.412970 0.328294 0.989939
O O19 0.083957 0.801754 0.250000
O O20 0.000000 0.769516 0.064134
#
# Coordination Sequence:
#
# PCOD8257552 Si02
#       7
#    16   8  16  16  16  16  16
#     4   9  18  32  51  74 100 129 163 203 248 295
#     4   8  14  26  46  68  92 126 166 202 242 292
#     4  10  19  35  56  76 102 137 171 208 252 302
#     4   9  17  31  49  72 100 131 167 207 249 297
#     4   9  18  31  46  66  93 125 161 200 243 290
#     4  10  19  33  53  74  97 131 172 209 247 302
#     4  10  21  35  52  78 107 132 165 213 261 302
#
# _framework density 17.772151000000001
#
# number of rings (size 3 to 8) (size 9 to 14) (size 15 to 20)
#    0.000    2.615    1.538    0.462    0.000    2.154 
#    1.385    3.077    0.000    0.000    0.000    0.000 
#    0.000    0.000    0.000    0.000    0.000    0.000 
#
# Total GULP energy -644442.237746 kJ/mol
# GULP energy per Si atom -12393.119957 kJ/mol
# Density = 1.773170 g / cm^3
# Si number density = 17.772151 Si / 1000 Ang^3
#
#
#
# Elastic Constant Matrix: (Units=GPa)
#
#
# Indices 1 2 3 4 5 6 
#
# 1 97.2500 45.3104 30.0670 0.0000 0.0000 0.0000
# 2 45.3104 124.7756 41.2220 0.0000 0.0000 0.0000
# 3 30.0670 41.2220 43.1976 0.0000 0.0000 0.0000
# 4 0.0000 0.0000 0.0000 25.2016 0.0000 0.0000
# 5 0.0000 0.0000 0.0000 0.0000 20.0019 0.0000
# 6 0.0000 0.0000 0.0000 0.0000 0.0000 34.1134
#
#
#
# Elastic Compliance Matrix: (Units=1/GPa)
#
#
# Indices 1 2 3 4 5 6 
#
# 1 0.013682 -0.002661 -0.006983 0.000000 0.000000 0.000000
# 2 -0.002661 0.012222 -0.009811 0.000000 0.000000 0.000000
# 3 -0.006983 -0.009811 0.037372 0.000000 0.000000 0.000000
# 4 0.000000 0.000000 0.000000 0.039680 0.000000 0.000000
# 5 0.000000 0.000000 0.000000 0.000000 0.049995 0.000000
# 6 0.000000 0.000000 0.000000 0.000000 0.000000 0.029314
#
#
# Mechanical properties :
#
#
# Convention : Reuss Voigt Hill
#
# Bulk Modulus (GPa) = 41.04226 55.38023 48.21125
# Shear Modulus (GPa) = 21.80574 25.77163 23.78869
#
# Velocity S-wave (km/s) = 3.50660 3.81217 3.66257
# Velocity P-wave (km/s) = 6.28798 7.11377 6.71358
#
# Compressibility (1/GPa) = 0.02436513
#
# Stress axis : x y z
#
# Youngs Moduli (GPa) = 73.08997 81.82029 26.75791
#
# Poissons Ratio (x) = 0.21774 0.18686
# Poissons Ratio (y) = 0.19451 0.26251
# Poissons Ratio (z) = 0.51042 0.80271
#
# Static dielectric constant tensor:
#      x y z
#    x 4.227400 0.000000 0.000000 
#    y 0.000000 3.296350 0.000000 
#    z 0.000000 0.000000 3.241310 
# 
# 
# High freq. dielectric constant tensor:
#      x y z
#    x 1.693890 0.000000 0.000000 
#    y 0.000000 1.681720 0.000000 
#    z 0.000000 0.000000 1.667390 
# 
# From -- ./inp_files/9082.got.cif
#   From: 2010.03.12/outbox.cif.g09.slc.cpg/sg63_5_cif.got.tgz:9082.got - 2010.04.10 19:34:48.
