data_PCOD8257066
_publ_section_title
;
Structure prediction by ZEFSAII (Michael W. Deem and Ramdas Pophale) SiO2 
 PCOD8257066
Probable space group: C M C M
;
_chemical_formula_sum "Si O2"
_cell_formula_units_Z 72
_cell_length_a 16.132716
_cell_length_b 26.938276
_cell_length_c 9.156127
_cell_angle_alpha 90.000000
_cell_angle_beta 90.000000
_cell_angle_gamma 90.000000
_cell_volume 3979.138858
_symmetry_space_group_name_H-M "C M C M"
_symmetry_group_IT_number 63
_symmetry_cell_setting 'orthorhombic'
loop_
_space_group_symop_operation_xyz
x,y,z
-x,-y,1/2+z
x,-y,-z
-x,y,1/2-z
-x,-y,-z
x,y,1/2-z
-x,y,z
x,-y,1/2+z
1/2+x,1/2+y,z
1/2-x,1/2-y,1/2+z
1/2+x,1/2-y,-z
1/2-x,1/2+y,1/2-z
1/2-x,1/2-y,-z
1/2+x,1/2+y,1/2-z
1/2-x,1/2+y,z
1/2+x,1/2-y,1/2+z
loop_
_atom_site_type_symbol
_atom_site_label
_atom_site_fract_x
_atom_site_fract_y
_atom_site_fract_z
Si Si1 0.000000 0.553196 0.577583
Si Si2 0.173071 0.948987 0.081447
Si Si3 0.250356 0.302079 0.920805
Si Si4 0.592280 0.365259 0.584472
Si Si5 0.336218 0.111831 0.580646
O O1 0.000000 0.500000 0.500000
O O2 0.920614 0.585460 0.529125
O O3 0.000000 0.543141 0.750000
O O4 0.156187 0.958119 0.250000
O O5 0.264077 0.927595 0.050803
O O6 0.103789 0.911647 0.022094
O O7 0.163348 0.000000 0.000000
O O8 0.231944 0.295449 0.750000
O O9 0.342056 0.322694 0.952696
O O10 0.250000 0.250000 0.000000
O O11 0.180243 0.338524 0.987050
O O12 0.605605 0.383975 0.750000
O O13 0.500000 0.343372 0.561646
O O14 0.340311 0.127484 0.750000
#
# Coordination Sequence:
#
# PCOD8257066 Si02
#       5
#     8  16  16  16  16
#     4  10  20  34  54  80 112 148 182 224 271 320
#     4  10  19  31  50  75 104 138 173 209 253 303
#     4  10  20  36  58  79 103 135 172 216 266 317
#     4   9  19  36  55  75  99 130 170 211 252 301
#     4   9  19  35  53  76 106 140 180 220 262 312
#
# _framework density 18.094366999999998
#
# number of rings (size 3 to 8) (size 9 to 14) (size 15 to 20)
#    0.000    2.444    0.000    2.000    0.000    3.556 
#    2.000    0.000    0.000    0.000    0.000    0.000 
#    0.000    0.000    0.000    0.000    0.000    0.000 
#
# Total GULP energy -446451.153077 kJ/mol
# GULP energy per Si atom -12401.420919 kJ/mol
# Density = 1.805318 g / cm^3
# Si number density = 18.094367 Si / 1000 Ang^3
#
#
#
# Elastic Constant Matrix: (Units=GPa)
#
#
# Indices 1 2 3 4 5 6 
#
# 1 118.6172 63.4901 45.5670 0.0000 0.0000 0.0000
# 2 63.4901 154.2199 82.9751 0.0000 0.0000 0.0000
# 3 45.5670 82.9751 97.1084 0.0000 0.0000 0.0000
# 4 0.0000 0.0000 0.0000 40.3484 0.0000 0.0000
# 5 0.0000 0.0000 0.0000 0.0000 25.1450 0.0000
# 6 0.0000 0.0000 0.0000 0.0000 0.0000 18.1437
#
#
#
# Elastic Compliance Matrix: (Units=1/GPa)
#
#
# Indices 1 2 3 4 5 6 
#
# 1 0.011111 -0.003275 -0.002416 0.000000 0.000000 0.000000
# 2 -0.003275 0.012967 -0.009543 0.000000 0.000000 0.000000
# 3 -0.002416 -0.009543 0.019586 0.000000 0.000000 0.000000
# 4 0.000000 0.000000 0.000000 0.024784 0.000000 0.000000
# 5 0.000000 0.000000 0.000000 0.000000 0.039769 0.000000
# 6 0.000000 0.000000 0.000000 0.000000 0.000000 0.055116
#
#
# Mechanical properties :
#
#
# Convention : Reuss Voigt Hill
#
# Bulk Modulus (GPa) = 75.77676 83.77888 79.77782
# Shear Modulus (GPa) = 25.22726 28.58830 26.90778
#
# Velocity S-wave (km/s) = 3.73796 3.97918 3.86045
# Velocity P-wave (km/s) = 7.78456 8.21665 8.00352
#
# Compressibility (1/GPa) = 0.01319666
#
# Stress axis : x y z
#
# Youngs Moduli (GPa) = 89.99892 77.12032 51.05817
#
# Poissons Ratio (x) = 0.25253 0.12335
# Poissons Ratio (y) = 0.29470 0.48725
# Poissons Ratio (z) = 0.21743 0.73596
#
# Static dielectric constant tensor:
#      x y z
#    x 3.509550 0.000000 0.000000 
#    y 0.000000 3.243090 0.000000 
#    z 0.000000 0.000000 3.487620 
# 
# 
# High freq. dielectric constant tensor:
#      x y z
#    x 1.701500 0.000000 0.000000 
#    y 0.000000 1.695980 0.000000 
#    z 0.000000 0.000000 1.707630 
# 
# From -- ./inp_files/4597.got.cif
#   From: 2010.03.12/outbox.cif.g09.slc.cpg/sg63_3_cif.got.tgz:4597.got - 2010.04.10 19:34:48.
