data_PCOD8257587
_publ_section_title
;
Structure prediction by ZEFSAII (Michael W. Deem and Ramdas Pophale) SiO2 
 PCOD8257587
Probable space group: C M C M
;
_chemical_formula_sum "Si O2"
_cell_formula_units_Z 112
_cell_length_a 13.768901
_cell_length_b 30.334278
_cell_length_c 13.920355
_cell_angle_alpha 90.000000
_cell_angle_beta 90.000000
_cell_angle_gamma 90.000000
_cell_volume 5814.110089
_symmetry_space_group_name_H-M "C M C M"
_symmetry_group_IT_number 63
_symmetry_cell_setting 'orthorhombic'
loop_
_space_group_symop_operation_xyz
x,y,z
-x,-y,1/2+z
x,-y,-z
-x,y,1/2-z
-x,-y,-z
x,y,1/2-z
-x,y,z
x,-y,1/2+z
1/2+x,1/2+y,z
1/2-x,1/2-y,1/2+z
1/2+x,1/2-y,-z
1/2-x,1/2+y,1/2-z
1/2-x,1/2-y,-z
1/2+x,1/2+y,1/2-z
1/2-x,1/2+y,z
1/2+x,1/2-y,1/2+z
loop_
_atom_site_type_symbol
_atom_site_label
_atom_site_fract_x
_atom_site_fract_y
_atom_site_fract_z
Si Si1 0.757836 0.761457 0.139288
Si Si2 0.198512 0.985012 0.861403
Si Si3 0.613503 0.434656 0.029798
Si Si4 0.188657 0.856077 0.352963
Si Si5 0.607300 0.123887 0.594750
Si Si6 0.888970 0.708720 0.012454
Si Si7 0.106421 0.471408 0.360605
O O1 0.729705 0.754803 0.250000
O O2 0.825689 0.804737 0.121833
O O3 0.657937 0.765815 0.079230
O O4 0.824015 0.720424 0.105276
O O5 0.178505 0.974034 0.750000
O O6 0.142280 0.029769 0.889430
O O7 0.312787 0.992112 0.883702
O O8 0.163723 0.944695 0.927405
O O9 0.500000 0.436454 0.012750
O O10 0.644666 0.386092 0.063277
O O11 0.138986 0.867325 0.250000
O O12 0.304362 0.862803 0.336581
O O13 0.500000 0.131023 0.642665
O O14 0.614745 0.155405 0.500696
O O15 0.619935 0.071703 0.571454
O O16 0.000000 0.724729 0.024617
O O17 0.117347 0.455441 0.250000
O O18 0.000000 0.492691 0.378472
#
# Coordination Sequence:
#
# PCOD8257587 Si02
#       7
#    16  16  16  16  16  16  16
#     4   9  19  34  54  81 111 143 180 222 271 322
#     4  10  20  36  54  73 101 134 170 215 264 313
#     4  11  23  35  50  75 102 134 179 225 262 304
#     4  10  19  33  53  78 107 136 169 218 273 315
#     4   9  16  28  50  78 106 135 165 201 256 319
#     4   9  18  32  51  80 114 145 176 216 263 319
#     4   9  16  28  51  82 109 132 163 208 262 316
#
# _framework density 19.263480999999999
#
# number of rings (size 3 to 8) (size 9 to 14) (size 15 to 20)
#    0.000    2.429    1.429    1.714    0.000    4.571 
#    0.000    7.857    0.000    7.714    0.000    6.000 
#    0.000    0.000    0.000    0.000    0.000    0.000 
#
# Total GULP energy -693853.532496 kJ/mol
# GULP energy per Si atom -12390.241652 kJ/mol
# Density = 1.921964 g / cm^3
# Si number density = 19.263481 Si / 1000 Ang^3
#
#
#
# Elastic Constant Matrix: (Units=GPa)
#
#
# Indices 1 2 3 4 5 6 
#
# 1 116.7958 28.3924 32.6587 0.0000 0.0000 0.0000
# 2 28.3924 50.8793 30.3635 0.0000 0.0000 0.0000
# 3 32.6587 30.3635 93.8062 0.0000 0.0000 0.0000
# 4 0.0000 0.0000 0.0000 25.0562 0.0000 0.0000
# 5 0.0000 0.0000 0.0000 0.0000 17.7310 0.0000
# 6 0.0000 0.0000 0.0000 0.0000 0.0000 22.1561
#
#
#
# Elastic Compliance Matrix: (Units=1/GPa)
#
#
# Indices 1 2 3 4 5 6 
#
# 1 0.010237 -0.004444 -0.002125 0.000000 0.000000 0.000000
# 2 -0.004444 0.026289 -0.006962 0.000000 0.000000 0.000000
# 3 -0.002125 -0.006962 0.013654 0.000000 0.000000 0.000000
# 4 0.000000 0.000000 0.000000 0.039910 0.000000 0.000000
# 5 0.000000 0.000000 0.000000 0.000000 0.056398 0.000000
# 6 0.000000 0.000000 0.000000 0.000000 0.000000 0.045134
#
#
# Mechanical properties :
#
#
# Convention : Reuss Voigt Hill
#
# Bulk Modulus (GPa) = 43.25949 49.36783 46.31366
# Shear Modulus (GPa) = 22.08570 24.32645 23.20607
#
# Velocity S-wave (km/s) = 3.38968 3.55748 3.47460
# Velocity P-wave (km/s) = 6.15024 6.52362 6.33968
#
# Compressibility (1/GPa) = 0.02311632
#
# Stress axis : x y z
#
# Youngs Moduli (GPa) = 97.68897 38.03859 73.23967
#
# Poissons Ratio (x) = 0.16904 0.15567
# Poissons Ratio (y) = 0.43412 0.50991
# Poissons Ratio (z) = 0.20763 0.26483
#
# Static dielectric constant tensor:
#      x y z
#    x 3.677050 0.000000 0.000000 
#    y 0.000000 3.375740 0.000000 
#    z 0.000000 0.000000 3.344980 
# 
# 
# High freq. dielectric constant tensor:
#      x y z
#    x 1.757600 0.000000 0.000000 
#    y 0.000000 1.724320 0.000000 
#    z 0.000000 0.000000 1.725610 
# 
# From -- ./inp_files/32773.got.cif
#   From: 2010.03.12/outbox.cif.g09.slc.cpg/sg63_17_cif.got.tgz:32773.got - 2010.04.10 19:34:48.
