data_PCOD8257398
_publ_section_title
;
Structure prediction by ZEFSAII (Michael W. Deem and Ramdas Pophale) SiO2 
 PCOD8257398
Probable space group: C M C M
;
_chemical_formula_sum "Si O2"
_cell_formula_units_Z 96
_cell_length_a 15.223232
_cell_length_b 18.926363
_cell_length_c 17.684819
_cell_angle_alpha 90.000000
_cell_angle_beta 90.000000
_cell_angle_gamma 90.000000
_cell_volume 5095.357387
_symmetry_space_group_name_H-M "C M C M"
_symmetry_group_IT_number 63
_symmetry_cell_setting 'orthorhombic'
loop_
_space_group_symop_operation_xyz
x,y,z
-x,-y,1/2+z
x,-y,-z
-x,y,1/2-z
-x,-y,-z
x,y,1/2-z
-x,y,z
x,-y,1/2+z
1/2+x,1/2+y,z
1/2-x,1/2-y,1/2+z
1/2+x,1/2-y,-z
1/2-x,1/2+y,1/2-z
1/2-x,1/2-y,-z
1/2+x,1/2+y,1/2-z
1/2-x,1/2+y,z
1/2+x,1/2-y,1/2+z
loop_
_atom_site_type_symbol
_atom_site_label
_atom_site_fract_x
_atom_site_fract_y
_atom_site_fract_z
Si Si1 0.102023 0.147505 0.337816
Si Si2 0.096829 0.494875 0.660142
Si Si3 0.255584 0.254215 0.911071
Si Si4 0.903754 0.987966 0.160220
Si Si5 0.398842 0.163542 0.161784
Si Si6 0.242417 0.397308 0.159784
O O1 0.127487 0.157083 0.250000
O O2 0.162742 0.197384 0.387813
O O3 0.000000 0.167199 0.350546
O O4 0.120695 0.067399 0.365126
O O5 0.096111 0.494614 0.750000
O O6 0.122084 0.415929 0.633269
O O7 0.165635 0.551557 0.629152
O O8 0.000000 0.515271 0.629610
O O9 0.162647 0.282537 0.882042
O O10 0.272868 0.177624 0.877074
O O11 0.250000 0.250000 0.000000
O O12 0.906022 0.987747 0.250000
O O13 0.833628 0.931272 0.130411
O O14 0.000000 0.966794 0.128389
O O15 0.377945 0.170951 0.250000
O O16 0.500000 0.183112 0.145180
O O17 0.240631 0.390266 0.250000
#
# Coordination Sequence:
#
# PCOD8257398 Si02
#       6
#    16  16  16  16  16  16
#     4   9  18  36  61  81  99 133 181 225 264 313
#     4   8  15  30  55  83 102 121 163 224 275 309
#     4  12  25  36  48  74 116 154 179 210 256 314
#     4   8  15  30  55  83 102 121 163 224 275 309
#     4   9  18  36  61  81  99 133 181 225 264 313
#     4  10  19  32  53  78 103 132 169 216 266 312
#
# _framework density 18.840681
#
# number of rings (size 3 to 8) (size 9 to 14) (size 15 to 20)
#    0.000    2.667    0.000    4.500    0.000    4.667 
#    0.000    6.667    0.000    4.000    0.000    0.000 
#    0.000    0.000    0.000    0.000    0.000    0.000 
#
# Total GULP energy -595086.841102 kJ/mol
# GULP energy per Si atom -12397.642523 kJ/mol
# Density = 1.879780 g / cm^3
# Si number density = 18.840681 Si / 1000 Ang^3
#
#
#
# Elastic Constant Matrix: (Units=GPa)
#
#
# Indices 1 2 3 4 5 6 
#
# 1 84.5886 23.1464 21.3503 0.0000 0.0000 0.0000
# 2 23.1464 57.6056 13.8705 0.0000 0.0000 0.0000
# 3 21.3503 13.8705 46.4421 0.0000 0.0000 0.0000
# 4 0.0000 0.0000 0.0000 -6.2385 0.0000 0.0000
# 5 0.0000 0.0000 0.0000 0.0000 13.4096 0.0000
# 6 0.0000 0.0000 0.0000 0.0000 0.0000 16.7714
#
#
#
# Elastic Compliance Matrix: (Units=1/GPa)
#
#
# Indices 1 2 3 4 5 6 
#
# 1 0.014386 -0.004512 -0.005266 0.000000 0.000000 0.000000
# 2 -0.004512 0.020120 -0.003935 0.000000 0.000000 0.000000
# 3 -0.005266 -0.003935 0.025128 0.000000 0.000000 0.000000
# 4 0.000000 0.000000 0.000000 -0.160296 0.000000 0.000000
# 5 0.000000 0.000000 0.000000 0.000000 0.074573 0.000000
# 6 0.000000 0.000000 0.000000 0.000000 0.000000 0.059625
#
#
# Mechanical properties :
#
#
# Convention : Reuss Voigt Hill
#
# Bulk Modulus (GPa) = 31.04794 33.93007 32.48900
# Shear Modulus (GPa) = 69.73718 13.47313 41.60516
#
# Velocity S-wave (km/s) = 6.09053 2.67705 4.70431
# Velocity P-wave (km/s) = 8.12246 5.25390 6.84024
#
# Compressibility (1/GPa) = 0.03220825
#
# Stress axis : x y z
#
# Youngs Moduli (GPa) = 69.51329 49.70193 39.79617
#
# Poissons Ratio (x) = 0.22428 0.20955
# Poissons Ratio (y) = 0.31367 0.15658
# Poissons Ratio (z) = 0.36604 0.19556
#
# Static dielectric constant tensor:
#      x y z
#    x 3.927840 0.000000 0.000000 
#    y 0.000000 3.530430 0.000000 
#    z 0.000000 0.000000 2.914150 
# 
# 
# High freq. dielectric constant tensor:
#      x y z
#    x 1.750050 0.000000 0.000000 
#    y 0.000000 1.736010 0.000000 
#    z 0.000000 0.000000 1.680290 
# 
# From -- ./inp_files/31908.got.cif
#   From: 2010.03.12/outbox.cif.g09.slc.cpg/sg63_16_cif.got.tgz:31908.got - 2010.04.10 19:34:48.
