data_PCOD8257635
_publ_section_title
;
Structure prediction by ZEFSAII (Michael W. Deem and Ramdas Pophale) SiO2 
 PCOD8257635
Probable space group: C M C M
;
_chemical_formula_sum "Si O2"
_cell_formula_units_Z 80
_cell_length_a 21.766116
_cell_length_b 11.877153
_cell_length_c 14.219522
_cell_angle_alpha 90.000000
_cell_angle_beta 90.000000
_cell_angle_gamma 90.000000
_cell_volume 3676.023575
_symmetry_space_group_name_H-M "C M C M"
_symmetry_group_IT_number 63
_symmetry_cell_setting 'orthorhombic'
loop_
_space_group_symop_operation_xyz
x,y,z
-x,-y,1/2+z
x,-y,-z
-x,y,1/2-z
-x,-y,-z
x,y,1/2-z
-x,y,z
x,-y,1/2+z
1/2+x,1/2+y,z
1/2-x,1/2-y,1/2+z
1/2+x,1/2-y,-z
1/2-x,1/2+y,1/2-z
1/2-x,1/2-y,-z
1/2+x,1/2+y,1/2-z
1/2-x,1/2+y,z
1/2+x,1/2-y,1/2+z
loop_
_atom_site_type_symbol
_atom_site_label
_atom_site_fract_x
_atom_site_fract_y
_atom_site_fract_z
Si Si1 0.302716 0.664665 0.525392
Si Si2 0.790877 0.450303 0.142171
Si Si3 0.630486 0.275485 0.643315
Si Si4 0.127903 0.340813 0.861281
Si Si5 0.000000 0.310425 0.139523
Si Si6 0.500000 0.938935 0.637653
O O1 0.250000 0.750000 0.500000
O O2 0.271087 0.560110 0.579271
O O3 0.338096 0.633962 0.427626
O O4 0.352216 0.723250 0.593919
O O5 0.770330 0.463432 0.250000
O O6 0.836756 0.345196 0.131989
O O7 0.825162 0.561567 0.105628
O O8 0.636673 0.320617 0.750000
O O9 0.560036 0.260472 0.611512
O O10 0.129729 0.328708 0.750000
O O11 0.059845 0.371583 0.897405
O O12 0.000000 0.435102 0.092860
O O13 0.000000 0.331597 0.250000
O O14 0.500000 0.947562 0.750000
#
# Coordination Sequence:
#
# PCOD8257635 Si02
#       6
#    16  16  16  16   8   8
#     4  10  21  32  46  70 103 138 182 216 249 306
#     4   9  17  32  51  70 100 138 171 210 260 308
#     4   9  17  29  45  65  95 134 171 209 253 300
#     4  10  19  33  54  79 109 142 173 210 262 317
#     4   9  14  27  47  69  98 134 171 206 256 318
#     4   9  16  29  51  79 108 138 168 205 263 327
#
# _framework density 21.762644999999999
#
# number of rings (size 3 to 8) (size 9 to 14) (size 15 to 20)
#    0.000    2.600    2.000    0.600    0.000    4.800 
#    0.000    1.000    0.000    1.200    0.000    0.000 
#    0.000   33.600    0.000  117.600    0.000    0.000 
#
# Total GULP energy -495848.572243 kJ/mol
# GULP energy per Si atom -12396.214306 kJ/mol
# Density = 2.171311 g / cm^3
# Si number density = 21.762645 Si / 1000 Ang^3
#
#
#
# Elastic Constant Matrix: (Units=GPa)
#
#
# Indices 1 2 3 4 5 6 
#
# 1 159.5090 39.7584 72.2346 0.0000 0.0000 0.0000
# 2 39.7584 33.7827 29.4273 0.0000 0.0000 0.0000
# 3 72.2346 29.4273 85.4141 0.0000 0.0000 0.0000
# 4 0.0000 0.0000 0.0000 20.5466 0.0000 0.0000
# 5 0.0000 0.0000 0.0000 0.0000 29.2651 0.0000
# 6 0.0000 0.0000 0.0000 0.0000 0.0000 19.0352
#
#
#
# Elastic Compliance Matrix: (Units=1/GPa)
#
#
# Indices 1 2 3 4 5 6 
#
# 1 0.011228 -0.007062 -0.007062 0.000000 0.000000 0.000000
# 2 -0.007062 0.046735 -0.010129 0.000000 0.000000 0.000000
# 3 -0.007062 -0.010129 0.021170 0.000000 0.000000 0.000000
# 4 0.000000 0.000000 0.000000 0.048670 0.000000 0.000000
# 5 0.000000 0.000000 0.000000 0.000000 0.034170 0.000000
# 6 0.000000 0.000000 0.000000 0.000000 0.000000 0.052534
#
#
# Mechanical properties :
#
#
# Convention : Reuss Voigt Hill
#
# Bulk Modulus (GPa) = 32.65179 62.39406 47.52293
# Shear Modulus (GPa) = 18.30010 22.92176 20.61093
#
# Velocity S-wave (km/s) = 2.90296 3.24892 3.08080
# Velocity P-wave (km/s) = 5.12566 6.54267 5.87703
#
# Compressibility (1/GPa) = 0.03062619
#
# Stress axis : x y z
#
# Youngs Moduli (GPa) = 89.06630 21.39709 47.23696
#
# Poissons Ratio (x) = 0.15111 0.33359
# Poissons Ratio (y) = 0.62898 0.47847
# Poissons Ratio (z) = 0.62900 0.21674
#
# Static dielectric constant tensor:
#      x y z
#    x 4.097530 0.000000 0.000000 
#    y 0.000000 3.522290 0.000000 
#    z 0.000000 0.000000 4.269420 
# 
# 
# High freq. dielectric constant tensor:
#      x y z
#    x 1.858430 0.000000 0.000000 
#    y 0.000000 1.797530 0.000000 
#    z 0.000000 0.000000 1.870970 
# 
# From -- ./inp_files/36525.got.cif
#   From: 2010.03.12/outbox.cif.g09.slc.cpg/sg63_19_cif.got.tgz:36525.got - 2010.04.10 19:34:48.
