data_PCOD8257512
_publ_section_title
;
Structure prediction by ZEFSAII (Michael W. Deem and Ramdas Pophale) SiO2 
 PCOD8257512
Probable space group: C M C M
;
_chemical_formula_sum "Si O2"
_cell_formula_units_Z 80
_cell_length_a 20.964000
_cell_length_b 12.664682
_cell_length_c 17.762363
_cell_angle_alpha 90.000000
_cell_angle_beta 90.000000
_cell_angle_gamma 90.000000
_cell_volume 4715.949890
_symmetry_space_group_name_H-M "C M C M"
_symmetry_group_IT_number 63
_symmetry_cell_setting 'orthorhombic'
loop_
_space_group_symop_operation_xyz
x,y,z
-x,-y,1/2+z
x,-y,-z
-x,y,1/2-z
-x,-y,-z
x,y,1/2-z
-x,y,z
x,-y,1/2+z
1/2+x,1/2+y,z
1/2-x,1/2-y,1/2+z
1/2+x,1/2-y,-z
1/2-x,1/2+y,1/2-z
1/2-x,1/2-y,-z
1/2+x,1/2+y,1/2-z
1/2-x,1/2+y,z
1/2+x,1/2-y,1/2+z
loop_
_atom_site_type_symbol
_atom_site_label
_atom_site_fract_x
_atom_site_fract_y
_atom_site_fract_z
Si Si1 0.337874 0.337611 0.663993
Si Si2 0.661484 0.006813 0.411247
Si Si3 0.707236 0.445498 0.339239
Si Si4 0.926392 0.343581 0.161001
Si Si5 0.192365 0.714562 0.335807
O O1 0.358067 0.346194 0.750000
O O2 0.337354 0.457766 0.631074
O O3 0.389479 0.259138 0.626461
O O4 0.268172 0.288824 0.653485
O O5 0.657091 0.130417 0.388518
O O6 0.662483 0.000000 0.500000
O O7 0.724228 0.951525 0.378405
O O8 0.599424 0.948638 0.378918
O O9 0.720222 0.456628 0.250000
O O10 0.672541 0.334525 0.358087
O O11 0.914820 0.355097 0.250000
O O12 0.000000 0.330115 0.140524
O O13 0.173475 0.688921 0.250000
#
# Coordination Sequence:
#
# PCOD8257512 Si02
#       5
#    16  16  16  16  16
#     4   8  14  26  46  71  91 112 150 197 241 273
#     4  11  21  30  44  72 105 131 155 195 243 300
#     4   9  16  30  50  70  97 126 155 197 242 291
#     4  10  19  33  52  69  90 124 169 206 231 278
#     4   9  16  29  51  71  97 127 156 196 240 291
#
# _framework density 16.963709000000001
#
# number of rings (size 3 to 8) (size 9 to 14) (size 15 to 20)
#    0.000    2.600    2.000    3.000    0.000    1.200 
#    0.000    0.000    0.000    1.200    0.000    7.000 
#    0.000    0.000    0.000    0.000    0.000    0.000 
#
# Total GULP energy -495726.348204 kJ/mol
# GULP energy per Si atom -12393.158705 kJ/mol
# Density = 1.692510 g / cm^3
# Si number density = 16.963709 Si / 1000 Ang^3
#
#
#
# Elastic Constant Matrix: (Units=GPa)
#
#
# Indices 1 2 3 4 5 6 
#
# 1 64.0239 45.9279 29.4133 0.0000 0.0000 0.0000
# 2 45.9279 148.7011 40.7329 0.0000 0.0000 0.0000
# 3 29.4133 40.7329 59.1296 0.0000 0.0000 0.0000
# 4 0.0000 0.0000 0.0000 4.7093 0.0000 0.0000
# 5 0.0000 0.0000 0.0000 0.0000 5.8431 0.0000
# 6 0.0000 0.0000 0.0000 0.0000 0.0000 22.8255
#
#
#
# Elastic Compliance Matrix: (Units=1/GPa)
#
#
# Indices 1 2 3 4 5 6 
#
# 1 0.022762 -0.004843 -0.007987 0.000000 0.000000 0.000000
# 2 -0.004843 0.009319 -0.004011 0.000000 0.000000 0.000000
# 3 -0.007987 -0.004011 0.023648 0.000000 0.000000 0.000000
# 4 0.000000 0.000000 0.000000 0.212345 0.000000 0.000000
# 5 0.000000 0.000000 0.000000 0.000000 0.171143 0.000000
# 6 0.000000 0.000000 0.000000 0.000000 0.000000 0.043811
#
#
# Mechanical properties :
#
#
# Convention : Reuss Voigt Hill
#
# Bulk Modulus (GPa) = 45.35399 56.00030 50.67715
# Shear Modulus (GPa) = 9.54090 17.06093 13.30092
#
# Velocity S-wave (km/s) = 2.37413 3.17477 2.80318
# Velocity P-wave (km/s) = 5.85741 6.82073 6.35734
#
# Compressibility (1/GPa) = 0.02204878
#
# Stress axis : x y z
#
# Youngs Moduli (GPa) = 43.93229 107.30450 42.28681
#
# Poissons Ratio (x) = 0.51963 0.33774
# Poissons Ratio (y) = 0.21275 0.16961
# Poissons Ratio (z) = 0.35088 0.43039
#
# Static dielectric constant tensor:
#      x y z
#    x 2.847860 0.000000 0.000000 
#    y 0.000000 3.664990 0.000000 
#    z 0.000000 0.000000 2.876730 
# 
# 
# High freq. dielectric constant tensor:
#      x y z
#    x 1.605680 0.000000 0.000000 
#    y 0.000000 1.679220 0.000000 
#    z 0.000000 0.000000 1.621360 
# 
# From -- ./inp_files/47020.got.cif
#   From: 2010.03.12/outbox.cif.g09.slc.cpg/sg63_24_cif.got.tgz:47020.got - 2010.04.10 19:34:48.
