data_PCOD8257090
_publ_section_title
;
Structure prediction by ZEFSAII (Michael W. Deem and Ramdas Pophale) SiO2 
 PCOD8257090
Probable space group: C M C M
;
_chemical_formula_sum "Si O2"
_cell_formula_units_Z 104
_cell_length_a 19.629048
_cell_length_b 32.782104
_cell_length_c 9.148014
_cell_angle_alpha 90.000000
_cell_angle_beta 90.000000
_cell_angle_gamma 90.000000
_cell_volume 5886.577706
_symmetry_space_group_name_H-M "C M C M"
_symmetry_group_IT_number 63
_symmetry_cell_setting 'orthorhombic'
loop_
_space_group_symop_operation_xyz
x,y,z
-x,-y,1/2+z
x,-y,-z
-x,y,1/2-z
-x,-y,-z
x,y,1/2-z
-x,y,z
x,-y,1/2+z
1/2+x,1/2+y,z
1/2-x,1/2-y,1/2+z
1/2+x,1/2-y,-z
1/2-x,1/2+y,1/2-z
1/2-x,1/2-y,-z
1/2+x,1/2+y,1/2-z
1/2-x,1/2+y,z
1/2+x,1/2-y,1/2+z
loop_
_atom_site_type_symbol
_atom_site_label
_atom_site_fract_x
_atom_site_fract_y
_atom_site_fract_z
Si Si1 0.500000 0.457806 0.576474
Si Si2 0.778150 0.542539 0.424259
Si Si3 0.679043 0.747208 0.581938
Si Si4 0.828610 0.380576 0.081833
Si Si5 0.578880 0.807652 0.079189
Si Si6 0.137615 0.081476 0.078477
Si Si7 0.684724 0.345427 0.413238
O O1 0.500000 0.500000 0.500000
O O2 0.500000 0.462549 0.750000
O O3 0.432907 0.435550 0.517400
O O4 0.798932 0.500000 0.500000
O O5 0.785562 0.538521 0.250000
O O6 0.827193 0.578968 0.480998
O O7 0.701255 0.553904 0.474900
O O8 0.689008 0.760640 0.750000
O O9 0.750000 0.750000 0.500000
O O10 0.619939 0.773986 0.510878
O O11 0.657267 0.700172 0.570291
O O12 0.829792 0.395121 0.250000
O O13 0.894737 0.353401 0.042978
O O14 0.764990 0.350326 0.050110
O O15 0.590048 0.798347 0.250000
O O16 0.500000 0.805258 0.033984
O O17 0.137737 0.082853 0.250000
O O18 0.141530 0.127480 0.023260
O O19 0.671856 0.361723 0.250000
#
# Coordination Sequence:
#
# PCOD8257090 Si02
#       7
#     8  16  16  16  16  16  16
#     4  10  20  34  50  70  98 134 176 218 262 318
#     4  10  19  31  50  78 104 131 168 215 266 316
#     4  11  21  35  57  83 112 145 185 230 272 323
#     4   9  17  33  54  76 104 136 170 212 261 316
#     4  10  21  38  58  82 112 146 184 224 275 332
#     4   9  19  33  49  71 100 133 173 217 263 315
#     4   9  18  33  52  74 100 133 174 217 263 312
#
# _framework density 17.667311000000002
#
# number of rings (size 3 to 8) (size 9 to 14) (size 15 to 20)
#    0.000    2.308    1.538    1.385    0.000    3.385 
#    1.385    0.000    0.000    0.462    0.000    0.000 
#    0.000    0.000    0.000    0.000    0.000    0.000 
#
# Total GULP energy -644721.431325 kJ/mol
# GULP energy per Si atom -12398.489064 kJ/mol
# Density = 1.762710 g / cm^3
# Si number density = 17.667311 Si / 1000 Ang^3
#
#
#
# Elastic Constant Matrix: (Units=GPa)
#
#
# Indices 1 2 3 4 5 6 
#
# 1 109.8727 57.7606 43.5870 0.0000 0.0000 0.0000
# 2 57.7606 116.2361 49.3540 0.0000 0.0000 0.0000
# 3 43.5870 49.3540 57.0656 0.0000 0.0000 0.0000
# 4 0.0000 0.0000 0.0000 37.3006 0.0000 0.0000
# 5 0.0000 0.0000 0.0000 0.0000 22.2263 0.0000
# 6 0.0000 0.0000 0.0000 0.0000 0.0000 25.9103
#
#
#
# Elastic Compliance Matrix: (Units=1/GPa)
#
#
# Indices 1 2 3 4 5 6 
#
# 1 0.014063 -0.003836 -0.007424 0.000000 0.000000 0.000000
# 2 -0.003836 0.014642 -0.009734 0.000000 0.000000 0.000000
# 3 -0.007424 -0.009734 0.031612 0.000000 0.000000 0.000000
# 4 0.000000 0.000000 0.000000 0.026809 0.000000 0.000000
# 5 0.000000 0.000000 0.000000 0.000000 0.044992 0.000000
# 6 0.000000 0.000000 0.000000 0.000000 0.000000 0.038595
#
#
# Mechanical properties :
#
#
# Convention : Reuss Voigt Hill
#
# Bulk Modulus (GPa) = 54.55314 64.95306 59.75310
# Shear Modulus (GPa) = 22.85082 25.91895 24.38489
#
# Velocity S-wave (km/s) = 3.60028 3.83437 3.71917
# Velocity P-wave (km/s) = 6.94462 7.51316 7.23448
#
# Compressibility (1/GPa) = 0.01833075
#
# Stress axis : x y z
#
# Youngs Moduli (GPa) = 71.10757 68.29499 31.63343
#
# Poissons Ratio (x) = 0.26200 0.23484
# Poissons Ratio (y) = 0.27279 0.30790
# Poissons Ratio (z) = 0.52788 0.66475
#
# Static dielectric constant tensor:
#      x y z
#    x 3.223860 0.000000 0.000000 
#    y 0.000000 3.321250 0.000000 
#    z 0.000000 0.000000 3.284730 
# 
# 
# High freq. dielectric constant tensor:
#      x y z
#    x 1.661250 0.000000 0.000000 
#    y 0.000000 1.687190 0.000000 
#    z 0.000000 0.000000 1.685380 
# 
# From -- ./inp_files/9094.got.cif
#   From: 2010.03.12/outbox.cif.g09.slc.cpg/sg63_5_cif.got.tgz:9094.got - 2010.04.10 19:34:48.
