data_PCOD8257940
_publ_section_title
;
Structure prediction by ZEFSAII (Michael W. Deem and Ramdas Pophale) SiO2 
 PCOD8257940
Probable space group: C M C M
;
_chemical_formula_sum "Si O2"
_cell_formula_units_Z 72
_cell_length_a 21.459036
_cell_length_b 10.640556
_cell_length_c 17.731946
_cell_angle_alpha 90.000000
_cell_angle_beta 90.000000
_cell_angle_gamma 90.000000
_cell_volume 4048.842939
_symmetry_space_group_name_H-M "C M C M"
_symmetry_group_IT_number 63
_symmetry_cell_setting 'orthorhombic'
loop_
_space_group_symop_operation_xyz
x,y,z
-x,-y,1/2+z
x,-y,-z
-x,y,1/2-z
-x,-y,-z
x,y,1/2-z
-x,y,z
x,-y,1/2+z
1/2+x,1/2+y,z
1/2-x,1/2-y,1/2+z
1/2+x,1/2-y,-z
1/2-x,1/2+y,1/2-z
1/2-x,1/2-y,-z
1/2+x,1/2+y,1/2-z
1/2-x,1/2+y,z
1/2+x,1/2-y,1/2+z
loop_
_atom_site_type_symbol
_atom_site_label
_atom_site_fract_x
_atom_site_fract_y
_atom_site_fract_z
Si Si1 0.853553 0.406169 0.564651
Si Si2 0.232924 0.807726 0.419981
Si Si3 0.927881 0.229955 0.458406
Si Si4 0.860425 0.368471 0.338725
Si Si5 0.844852 0.000000 0.500000
O O1 0.821458 0.500000 0.500000
O O2 0.810673 0.305562 0.609450
O O3 0.908754 0.332882 0.521429
O O4 0.877776 0.491730 0.632980
O O5 0.250000 0.750000 0.500000
O O6 0.291129 0.828396 0.365452
O O7 0.196896 0.939740 0.432675
O O8 0.912735 0.279031 0.374606
O O9 0.000000 0.198761 0.467432
O O10 0.888375 0.104471 0.464350
O O11 0.864714 0.359184 0.250000
#
# Coordination Sequence:
#
# PCOD8257940 Si02
#       5
#    16  16  16  16   8
#     4   9  18  33  54  77 105 143 185 230 267 324
#     4  11  17  32  56  80 111 144 178 222 281 334
#     4  10  21  37  58  83 109 147 196 230 267 329
#     4  11  23  34  52  84 116 147 182 232 290 334
#     4  10  19  34  62  84 107 142 184 236 276 318
#
# _framework density 17.782858999999998
#
# number of rings (size 3 to 8) (size 9 to 14) (size 15 to 20)
#    0.000    1.778    6.667    1.667    0.000    5.333 
#    0.000    0.000    0.000    1.333    0.000    0.000 
#    0.000    0.000    0.000    0.000    0.000    0.000 
#
# Total GULP energy -445996.937689 kJ/mol
# GULP energy per Si atom -12388.803825 kJ/mol
# Density = 1.774238 g / cm^3
# Si number density = 17.782859 Si / 1000 Ang^3
#
#
#
# Elastic Constant Matrix: (Units=GPa)
#
#
# Indices 1 2 3 4 5 6 
#
# 1 72.1185 15.6787 10.7725 0.0000 0.0000 0.0000
# 2 15.6787 95.4243 17.9985 0.0000 0.0000 0.0000
# 3 10.7725 17.9985 90.3566 0.0000 0.0000 0.0000
# 4 0.0000 0.0000 0.0000 13.3652 0.0000 0.0000
# 5 0.0000 0.0000 0.0000 0.0000 14.8329 0.0000
# 6 0.0000 0.0000 0.0000 0.0000 0.0000 14.1295
#
#
#
# Elastic Compliance Matrix: (Units=1/GPa)
#
#
# Indices 1 2 3 4 5 6 
#
# 1 0.014526 -0.002141 -0.001305 0.000000 0.000000 0.000000
# 2 -0.002141 0.011204 -0.001977 0.000000 0.000000 0.000000
# 3 -0.001305 -0.001977 0.011617 0.000000 0.000000 0.000000
# 4 0.000000 0.000000 0.000000 0.074821 0.000000 0.000000
# 5 0.000000 0.000000 0.000000 0.000000 0.067418 0.000000
# 6 0.000000 0.000000 0.000000 0.000000 0.000000 0.070774
#
#
# Mechanical properties :
#
#
# Convention : Reuss Voigt Hill
#
# Bulk Modulus (GPa) = 37.73317 38.53321 38.13319
# Shear Modulus (GPa) = 18.51584 22.69550 20.60567
#
# Velocity S-wave (km/s) = 3.23029 3.57635 3.40772
# Velocity P-wave (km/s) = 5.93110 6.22651 6.08060
#
# Compressibility (1/GPa) = 0.02650188
#
# Stress axis : x y z
#
# Youngs Moduli (GPa) = 68.84002 89.25368 86.08353
#
# Poissons Ratio (x) = 0.19105 0.11238
# Poissons Ratio (y) = 0.14735 0.17015
# Poissons Ratio (z) = 0.08987 0.17642
#
# Static dielectric constant tensor:
#      x y z
#    x 1.253380 0.000000 0.000000 
#    y 0.000000 4.903610 0.000000 
#    z 0.000000 0.000000 2.888720 
# 
# 
# High freq. dielectric constant tensor:
#      x y z
#    x 1.677850 0.000000 0.000000 
#    y 0.000000 1.714710 0.000000 
#    z 0.000000 0.000000 1.641130 
# 
# From -- ./inp_files/47875.got.cif
#   From: 2010.03.12/outbox.cif.g09.slc.cpg/sg63_24_cif.got.tgz:47875.got - 2010.04.10 19:34:48.
