data_PCOD8257401
_publ_section_title
;
Structure prediction by ZEFSAII (Michael W. Deem and Ramdas Pophale) SiO2 
 PCOD8257401
Probable space group: C M C M
;
_chemical_formula_sum "Si O2"
_cell_formula_units_Z 96
_cell_length_a 9.393161
_cell_length_b 20.387025
_cell_length_c 28.040347
_cell_angle_alpha 90.000000
_cell_angle_beta 90.000000
_cell_angle_gamma 90.000000
_cell_volume 5369.687422
_symmetry_space_group_name_H-M "C M C M"
_symmetry_group_IT_number 63
_symmetry_cell_setting 'orthorhombic'
loop_
_space_group_symop_operation_xyz
x,y,z
-x,-y,1/2+z
x,-y,-z
-x,y,1/2-z
-x,-y,-z
x,y,1/2-z
-x,y,z
x,-y,1/2+z
1/2+x,1/2+y,z
1/2-x,1/2-y,1/2+z
1/2+x,1/2-y,-z
1/2-x,1/2+y,1/2-z
1/2-x,1/2-y,-z
1/2+x,1/2+y,1/2-z
1/2-x,1/2+y,z
1/2+x,1/2-y,1/2+z
loop_
_atom_site_type_symbol
_atom_site_label
_atom_site_fract_x
_atom_site_fract_y
_atom_site_fract_z
Si Si1 0.668830 0.242888 0.852653
Si Si2 0.669786 0.204956 0.750000
Si Si3 0.831093 0.442215 0.250000
Si Si4 0.166982 0.619567 0.913249
Si Si5 0.666253 0.575398 0.498687
Si Si6 0.666590 0.996631 0.847888
Si Si7 0.666679 0.619033 0.107028
O O1 0.500000 0.238886 0.851759
O O2 0.726091 0.240971 0.797967
O O3 0.725927 0.180503 0.882323
O O4 0.721189 0.308860 0.878418
O O5 0.500000 0.203582 0.750000
O O6 0.731317 0.131169 0.750000
O O7 0.777529 0.480463 0.296433
O O8 0.000000 0.436863 0.250000
O O9 0.248525 0.618524 0.963257
O O10 0.202446 0.552856 0.885747
O O11 0.000000 0.626904 0.923403
O O12 0.718046 0.500000 0.500000
O O13 0.500000 0.579678 0.510839
O O14 0.703450 0.606937 0.447959
O O15 0.500000 0.980594 0.847309
O O16 0.751263 0.931562 0.859976
O O17 0.500000 0.610224 0.116809
#
# Coordination Sequence:
#
# PCOD8257401 Si02
#       7
#    16   8   8  16  16  16  16
#     4   9  18  32  51  77 105 132 168 215 258 302
#     4   9  14  27  52  77 101 130 165 206 260 308
#     4   9  16  29  51  79 105 130 163 208 260 310
#     4  10  19  32  54  80 100 125 172 223 252 288
#     4  10  20  34  51  72 104 145 174 201 259 322
#     4  10  19  32  53  79 103 129 167 212 254 299
#     4  10  21  36  52  74 107 140 172 211 257 309
#
# _framework density 17.878136000000001
#
# number of rings (size 3 to 8) (size 9 to 14) (size 15 to 20)
#    0.000    2.333    3.333    0.000    0.000    2.333 
#    0.000    2.083    0.000    0.000    0.000    1.750 
#    0.000    0.000    0.000    0.000    0.000    0.000 
#
# Total GULP energy -595223.284448 kJ/mol
# GULP energy per Si atom -12400.485093 kJ/mol
# Density = 1.783744 g / cm^3
# Si number density = 17.878136 Si / 1000 Ang^3
#
#
#
# Elastic Constant Matrix: (Units=GPa)
#
#
# Indices 1 2 3 4 5 6 
#
# 1 21.8174 25.5805 32.6848 0.0000 0.0000 0.0000
# 2 25.5805 126.7564 70.4475 0.0000 0.0000 0.0000
# 3 32.6848 70.4475 152.2085 0.0000 0.0000 0.0000
# 4 0.0000 0.0000 0.0000 35.1070 0.0000 0.0000
# 5 0.0000 0.0000 0.0000 0.0000 9.9441 0.0000
# 6 0.0000 0.0000 0.0000 0.0000 0.0000 19.0814
#
#
#
# Elastic Compliance Matrix: (Units=1/GPa)
#
#
# Indices 1 2 3 4 5 6 
#
# 1 0.073323 -0.008140 -0.011977 0.000000 0.000000 0.000000
# 2 -0.008140 0.011525 -0.003586 0.000000 0.000000 0.000000
# 3 -0.011977 -0.003586 0.010802 0.000000 0.000000 0.000000
# 4 0.000000 0.000000 0.000000 0.028484 0.000000 0.000000
# 5 0.000000 0.000000 0.000000 0.000000 0.100563 0.000000
# 6 0.000000 0.000000 0.000000 0.000000 0.000000 0.052407
#
#
# Mechanical properties :
#
#
# Convention : Reuss Voigt Hill
#
# Bulk Modulus (GPa) = 20.72901 62.02311 41.37606
# Shear Modulus (GPa) = 14.68032 24.29780 19.48906
#
# Velocity S-wave (km/s) = 2.86865 3.69057 3.30526
# Velocity P-wave (km/s) = 4.75310 7.27515 6.14491
#
# Compressibility (1/GPa) = 0.04824156
#
# Stress axis : x y z
#
# Youngs Moduli (GPa) = 13.63831 86.76768 92.57766
#
# Poissons Ratio (x) = 0.70633 1.10885
# Poissons Ratio (y) = 0.11102 0.33200
# Poissons Ratio (z) = 0.16335 0.31116
#
# Static dielectric constant tensor:
#      x y z
#    x 2.880570 0.000000 0.000000 
#    y 0.000000 3.382020 0.000000 
#    z 0.000000 0.000000 3.511680 
# 
# 
# High freq. dielectric constant tensor:
#      x y z
#    x 1.647800 0.000000 0.000000 
#    y 0.000000 1.693960 0.000000 
#    z 0.000000 0.000000 1.708180 
# 
# From -- ./inp_files/61546.got.cif
#   From: 2010.03.12/outbox.cif.g09.slc.cpg/sg63_31_cif.got.tgz:61546.got - 2010.04.10 19:34:48.
