data_PCOD8257772
_publ_section_title
;
Structure prediction by ZEFSAII (Michael W. Deem and Ramdas Pophale) SiO2 
 PCOD8257772
Probable space group: C M C M
;
_chemical_formula_sum "Si O2"
_cell_formula_units_Z 72
_cell_length_a 15.883044
_cell_length_b 14.778194
_cell_length_c 16.877085
_cell_angle_alpha 90.000000
_cell_angle_beta 90.000000
_cell_angle_gamma 90.000000
_cell_volume 3961.435053
_symmetry_space_group_name_H-M "C M C M"
_symmetry_group_IT_number 63
_symmetry_cell_setting 'orthorhombic'
loop_
_space_group_symop_operation_xyz
x,y,z
-x,-y,1/2+z
x,-y,-z
-x,y,1/2-z
-x,-y,-z
x,y,1/2-z
-x,y,z
x,-y,1/2+z
1/2+x,1/2+y,z
1/2-x,1/2-y,1/2+z
1/2+x,1/2-y,-z
1/2-x,1/2+y,1/2-z
1/2-x,1/2-y,-z
1/2+x,1/2+y,1/2-z
1/2-x,1/2+y,z
1/2+x,1/2-y,1/2+z
loop_
_atom_site_type_symbol
_atom_site_label
_atom_site_fract_x
_atom_site_fract_y
_atom_site_fract_z
Si Si1 0.637864 0.691817 0.338427
Si Si2 0.000000 0.217172 0.033311
Si Si3 0.672724 0.506642 0.840034
Si Si4 0.500000 0.559375 0.923110
Si Si5 0.000000 0.582388 0.939372
Si Si6 0.832070 0.391886 0.159181
O O1 0.594364 0.691373 0.250000
O O2 0.576544 0.687602 0.412064
O O3 0.692763 0.600712 0.346771
O O4 0.689972 0.784846 0.346589
O O5 0.000000 0.323363 0.012104
O O6 0.000000 0.164606 0.949714
O O7 0.668111 0.539040 0.750000
O O8 0.583833 0.536122 0.875535
O O9 0.752203 0.557126 0.880444
O O10 0.500000 0.500000 0.000000
O O11 0.082859 0.579724 0.885242
O O12 0.000000 0.500000 0.000000
O O13 0.845004 0.422020 0.250000
#
# Coordination Sequence:
#
# PCOD8257772 Si02
#       6
#    16   8  16   8   8  16
#     4   9  16  31  55  80 102 131 178 224 260 302
#     4  10  19  34  52  79 104 137 176 215 268 306
#     4  10  20  35  55  79 107 141 176 219 264 310
#     4  12  21  33  53  80 112 138 171 211 268 327
#     4  10  21  39  56  79 108 140 175 221 264 313
#     4   9  19  36  59  80 102 136 181 224 260 304
#
# _framework density 18.175232000000001
#
# number of rings (size 3 to 8) (size 9 to 14) (size 15 to 20)
#    0.000    2.222    2.222    1.000    0.000    5.333 
#    4.000    2.222    0.000    1.333    0.000    0.000 
#    0.000    0.000    0.000    0.000    0.000    0.000 
#
# Total GULP energy -446010.440077 kJ/mol
# GULP energy per Si atom -12389.178891 kJ/mol
# Density = 1.813386 g / cm^3
# Si number density = 18.175232 Si / 1000 Ang^3
#
#
#
# Elastic Constant Matrix: (Units=GPa)
#
#
# Indices 1 2 3 4 5 6 
#
# 1 145.3142 76.5944 38.4922 0.0000 0.0000 0.0000
# 2 76.5944 149.3560 50.3475 0.0000 0.0000 0.0000
# 3 38.4922 50.3475 55.1594 0.0000 0.0000 0.0000
# 4 0.0000 0.0000 0.0000 31.8582 0.0000 0.0000
# 5 0.0000 0.0000 0.0000 0.0000 5.2850 0.0000
# 6 0.0000 0.0000 0.0000 0.0000 0.0000 22.7838
#
#
#
# Elastic Compliance Matrix: (Units=1/GPa)
#
#
# Indices 1 2 3 4 5 6 
#
# 1 0.009820 -0.003938 -0.003259 0.000000 0.000000 0.000000
# 2 -0.003938 0.011250 -0.007521 0.000000 0.000000 0.000000
# 3 -0.003259 -0.007521 0.027268 0.000000 0.000000 0.000000
# 4 0.000000 0.000000 0.000000 0.031389 0.000000 0.000000
# 5 0.000000 0.000000 0.000000 0.000000 0.189214 0.000000
# 6 0.000000 0.000000 0.000000 0.000000 0.000000 0.043891
#
#
# Mechanical properties :
#
#
# Convention : Reuss Voigt Hill
#
# Bulk Modulus (GPa) = 52.89901 75.63307 64.26604
# Shear Modulus (GPa) = 14.34440 24.27844 19.31142
#
# Velocity S-wave (km/s) = 2.81237 3.65882 3.26316
# Velocity P-wave (km/s) = 6.30191 7.71705 7.04510
#
# Compressibility (1/GPa) = 0.01890394
#
# Stress axis : x y z
#
# Youngs Moduli (GPa) = 101.82886 88.88897 36.67287
#
# Poissons Ratio (x) = 0.35001 0.11951
# Poissons Ratio (y) = 0.40097 0.27581
# Poissons Ratio (z) = 0.33185 0.66851
#
# Static dielectric constant tensor:
#      x y z
#    x 1.041590 0.000000 0.000000 
#    y 0.000000 3.732430 0.000000 
#    z 0.000000 0.000000 3.560260 
# 
# 
# High freq. dielectric constant tensor:
#      x y z
#    x 1.686450 0.000000 0.000000 
#    y 0.000000 1.717260 0.000000 
#    z 0.000000 0.000000 1.693370 
# 
# From -- ./inp_files/43785.got.cif
#   From: 2010.03.12/outbox.cif.g09.slc.cpg/sg63_22_cif.got.tgz:43785.got - 2010.04.10 19:34:48.
