data_PCOD8257854
_publ_section_title
;
Structure prediction by ZEFSAII (Michael W. Deem and Ramdas Pophale) SiO2 
 PCOD8257854
Probable space group: C M C M
;
_chemical_formula_sum "Si O2"
_cell_formula_units_Z 96
_cell_length_a 9.236974
_cell_length_b 20.429097
_cell_length_c 27.871296
_cell_angle_alpha 90.000000
_cell_angle_beta 90.000000
_cell_angle_gamma 90.000000
_cell_volume 5259.398224
_symmetry_space_group_name_H-M "C M C M"
_symmetry_group_IT_number 63
_symmetry_cell_setting 'orthorhombic'
loop_
_space_group_symop_operation_xyz
x,y,z
-x,-y,1/2+z
x,-y,-z
-x,y,1/2-z
-x,-y,-z
x,y,1/2-z
-x,y,z
x,-y,1/2+z
1/2+x,1/2+y,z
1/2-x,1/2-y,1/2+z
1/2+x,1/2-y,-z
1/2-x,1/2+y,1/2-z
1/2-x,1/2-y,-z
1/2+x,1/2+y,1/2-z
1/2-x,1/2+y,z
1/2+x,1/2-y,1/2+z
loop_
_atom_site_type_symbol
_atom_site_label
_atom_site_fract_x
_atom_site_fract_y
_atom_site_fract_z
Si Si1 0.331703 0.010306 0.893371
Si Si2 0.669008 0.127491 0.440688
Si Si3 0.328346 0.258376 0.889512
Si Si4 0.169222 0.047881 0.803757
Si Si5 0.334110 0.698827 0.695109
Si Si6 0.671397 0.865333 0.451068
O O1 0.500000 0.020479 0.882859
O O2 0.253852 0.003688 0.842006
O O3 0.266174 0.071946 0.922650
O O4 0.302347 0.946447 0.924712
O O5 0.500000 0.145970 0.437157
O O6 0.760084 0.174035 0.406403
O O7 0.729771 0.135159 0.494634
O O8 0.500000 0.264886 0.888035
O O9 0.270920 0.243595 0.836382
O O10 0.276633 0.200792 0.925239
O O11 0.213475 0.025761 0.750000
O O12 0.211709 0.123499 0.811295
O O13 0.000000 0.037591 0.811565
O O14 0.314184 0.720729 0.750000
O O15 0.500000 0.708947 0.678889
O O16 0.500000 0.871356 0.452203
#
# Coordination Sequence:
#
# PCOD8257854 Si02
#       6
#    16  16  16  16  16  16
#     4  10  19  34  56  81 106 137 179 222 261 306
#     4  10  21  36  54  75 108 149 181 213 259 317
#     4  11  21  34  54  81 111 138 173 223 269 310
#     4   9  18  33  54  80 108 137 169 212 267 320
#     4   9  18  34  56  80 105 136 175 215 260 319
#     4   9  18  34  55  79 104 138 182 222 261 307
#
# _framework density 18.253039000000001
#
# number of rings (size 3 to 8) (size 9 to 14) (size 15 to 20)
#    0.000    2.333    1.667    2.500    0.000    3.333 
#    0.000    4.167    0.000    3.000    0.000    0.000 
#    0.000    0.000    0.000    0.000    0.000    0.000 
#
# Total GULP energy -595305.209961 kJ/mol
# GULP energy per Si atom -12402.191874 kJ/mol
# Density = 1.821149 g / cm^3
# Si number density = 18.253039 Si / 1000 Ang^3
#
#
#
# Elastic Constant Matrix: (Units=GPa)
#
#
# Indices 1 2 3 4 5 6 
#
# 1 51.4447 29.7440 37.3928 0.0000 0.0000 0.0000
# 2 29.7440 57.3358 19.7539 0.0000 0.0000 0.0000
# 3 37.3928 19.7539 105.9107 0.0000 0.0000 0.0000
# 4 0.0000 0.0000 0.0000 19.0268 0.0000 0.0000
# 5 0.0000 0.0000 0.0000 0.0000 28.6786 0.0000
# 6 0.0000 0.0000 0.0000 0.0000 0.0000 25.3161
#
#
#
# Elastic Compliance Matrix: (Units=1/GPa)
#
#
# Indices 1 2 3 4 5 6 
#
# 1 0.034990 -0.014850 -0.009584 0.000000 0.000000 0.000000
# 2 -0.014850 0.024941 0.000591 0.000000 0.000000 0.000000
# 3 -0.009584 0.000591 0.012715 0.000000 0.000000 0.000000
# 4 0.000000 0.000000 0.000000 0.052557 0.000000 0.000000
# 5 0.000000 0.000000 0.000000 0.000000 0.034869 0.000000
# 6 0.000000 0.000000 0.000000 0.000000 0.000000 0.039501
#
#
# Mechanical properties :
#
#
# Convention : Reuss Voigt Hill
#
# Bulk Modulus (GPa) = 40.06220 43.16361 41.61291
# Shear Modulus (GPa) = 19.56335 23.12435 21.34385
#
# Velocity S-wave (km/s) = 3.27737 3.56318 3.42326
# Velocity P-wave (km/s) = 6.02639 6.37394 6.20260
#
# Compressibility (1/GPa) = 0.02496119
#
# Stress axis : x y z
#
# Youngs Moduli (GPa) = 28.57934 40.09440 78.64486
#
# Poissons Ratio (x) = 0.59540 0.75373
# Poissons Ratio (y) = 0.42440 -0.04648
# Poissons Ratio (z) = 0.27390 -0.02370
#
# Static dielectric constant tensor:
#      x y z
#    x 3.114170 0.000000 0.000000 
#    y 0.000000 3.213670 0.000000 
#    z 0.000000 0.000000 3.494310 
# 
# 
# High freq. dielectric constant tensor:
#      x y z
#    x 1.687290 0.000000 0.000000 
#    y 0.000000 1.694430 0.000000 
#    z 0.000000 0.000000 1.720410 
# 
# From -- ./inp_files/59952.got.cif
#   From: 2010.03.12/outbox.cif.g09.slc.cpg/sg63_30_cif.got.tgz:59952.got - 2010.04.10 19:34:48.
