data_PCOD8257612
_publ_section_title
;
Structure prediction by ZEFSAII (Michael W. Deem and Ramdas Pophale) SiO2 
 PCOD8257612
Probable space group: C M C M
;
_chemical_formula_sum "Si O2"
_cell_formula_units_Z 96
_cell_length_a 9.491333
_cell_length_b 20.379223
_cell_length_c 27.963912
_cell_angle_alpha 90.000000
_cell_angle_beta 90.000000
_cell_angle_gamma 90.000000
_cell_volume 5408.947412
_symmetry_space_group_name_H-M "C M C M"
_symmetry_group_IT_number 63
_symmetry_cell_setting 'orthorhombic'
loop_
_space_group_symop_operation_xyz
x,y,z
-x,-y,1/2+z
x,-y,-z
-x,y,1/2-z
-x,-y,-z
x,y,1/2-z
-x,y,z
x,-y,1/2+z
1/2+x,1/2+y,z
1/2-x,1/2-y,1/2+z
1/2+x,1/2-y,-z
1/2-x,1/2+y,1/2-z
1/2-x,1/2-y,-z
1/2+x,1/2+y,1/2-z
1/2-x,1/2+y,z
1/2+x,1/2-y,1/2+z
loop_
_atom_site_type_symbol
_atom_site_label
_atom_site_fract_x
_atom_site_fract_y
_atom_site_fract_z
Si Si1 0.333107 0.570781 0.698340
Si Si2 0.335754 0.240979 0.048258
Si Si3 0.664702 0.626849 0.600742
Si Si4 0.334660 0.116440 0.390480
Si Si5 0.836324 0.921726 0.695586
Si Si6 0.660798 0.014794 0.555145
O O1 0.273345 0.595428 0.750000
O O2 0.500000 0.570516 0.701155
O O3 0.280292 0.617491 0.655413
O O4 0.282525 0.496429 0.689055
O O5 0.500000 0.239015 0.034746
O O6 0.301164 0.299670 0.084787
O O7 0.287458 0.174478 0.074117
O O8 0.250000 0.250000 0.000000
O O9 0.500000 0.610674 0.597226
O O10 0.743184 0.576760 0.566265
O O11 0.500000 0.120990 0.380023
O O12 0.253179 0.123783 0.340234
O O13 0.290229 0.048322 0.414949
O O14 0.809623 0.898277 0.750000
O O15 0.000000 0.915347 0.682230
O O16 0.500000 0.032859 0.567293
O O17 0.680074 0.000000 0.500000
#
# Coordination Sequence:
#
# PCOD8257612 Si02
#       6
#    16  16  16  16  16  16
#     4   8  14  27  49  76 103 128 158 205 259 301
#     4  10  22  38  54  75 104 141 179 214 259 313
#     4  10  19  33  54  78 101 128 171 218 252 296
#     4  10  20  34  51  75 107 139 172 211 259 314
#     4   9  17  31  53  79 105 135 171 210 257 310
#     4  10  20  33  50  72 101 136 170 209 258 308
#
# _framework density 17.748370999999999
#
# number of rings (size 3 to 8) (size 9 to 14) (size 15 to 20)
#    0.000    2.500    1.667    2.000    0.000    3.333 
#    0.000    0.833    0.000    3.500    0.000    0.000 
#    0.000    0.000    0.000    0.000    0.000    0.000 
#
# Total GULP energy -595132.537508 kJ/mol
# GULP energy per Si atom -12398.594531 kJ/mol
# Density = 1.770797 g / cm^3
# Si number density = 17.748371 Si / 1000 Ang^3
#
#
#
# Elastic Constant Matrix: (Units=GPa)
#
#
# Indices 1 2 3 4 5 6 
#
# 1 42.0517 28.3077 43.4788 0.0000 0.0000 0.0000
# 2 28.3077 53.5167 34.9910 0.0000 0.0000 0.0000
# 3 43.4788 34.9910 123.5704 0.0000 0.0000 0.0000
# 4 0.0000 0.0000 0.0000 30.2699 0.0000 0.0000
# 5 0.0000 0.0000 0.0000 0.0000 31.1477 0.0000
# 6 0.0000 0.0000 0.0000 0.0000 0.0000 21.9992
#
#
#
# Elastic Compliance Matrix: (Units=1/GPa)
#
#
# Indices 1 2 3 4 5 6 
#
# 1 0.047879 -0.017563 -0.011873 0.000000 0.000000 0.000000
# 2 -0.017563 0.029373 -0.002138 0.000000 0.000000 0.000000
# 3 -0.011873 -0.002138 0.012876 0.000000 0.000000 0.000000
# 4 0.000000 0.000000 0.000000 0.033036 0.000000 0.000000
# 5 0.000000 0.000000 0.000000 0.000000 0.032105 0.000000
# 6 0.000000 0.000000 0.000000 0.000000 0.000000 0.045456
#
#
# Mechanical properties :
#
#
# Convention : Reuss Voigt Hill
#
# Bulk Modulus (GPa) = 37.06418 48.07709 42.57064
# Shear Modulus (GPa) = 18.32394 24.17412 21.24903
#
# Velocity S-wave (km/s) = 3.21663 3.69460 3.46387
# Velocity P-wave (km/s) = 5.89272 6.73402 6.32737
#
# Compressibility (1/GPa) = 0.02698023
#
# Stress axis : x y z
#
# Youngs Moduli (GPa) = 20.88594 34.04434 77.66570
#
# Poissons Ratio (x) = 0.59790 0.92215
# Poissons Ratio (y) = 0.36681 0.16606
# Poissons Ratio (z) = 0.24799 0.07279
#
# Static dielectric constant tensor:
#      x y z
#    x 3.076560 0.000000 0.000000 
#    y 0.000000 3.228950 0.000000 
#    z 0.000000 0.000000 3.503690 
# 
# 
# High freq. dielectric constant tensor:
#      x y z
#    x 1.664430 0.000000 0.000000 
#    y 0.000000 1.670660 0.000000 
#    z 0.000000 0.000000 1.702820 
# 
# From -- ./inp_files/61697.got.cif
#   From: 2010.03.12/outbox.cif.g09.slc.cpg/sg63_31_cif.got.tgz:61697.got - 2010.04.10 19:34:48.
