data_PCOD8257479
_publ_section_title
;
Structure prediction by ZEFSAII (Michael W. Deem and Ramdas Pophale) SiO2 
 PCOD8257479
Probable space group: C M C M
;
_chemical_formula_sum "Si O2"
_cell_formula_units_Z 104
_cell_length_a 22.473059
_cell_length_b 30.028061
_cell_length_c 9.268750
_cell_angle_alpha 90.000000
_cell_angle_beta 90.000000
_cell_angle_gamma 90.000000
_cell_volume 6254.759995
_symmetry_space_group_name_H-M "C M C M"
_symmetry_group_IT_number 63
_symmetry_cell_setting 'orthorhombic'
loop_
_space_group_symop_operation_xyz
x,y,z
-x,-y,1/2+z
x,-y,-z
-x,y,1/2-z
-x,-y,-z
x,y,1/2-z
-x,y,z
x,-y,1/2+z
1/2+x,1/2+y,z
1/2-x,1/2-y,1/2+z
1/2+x,1/2-y,-z
1/2-x,1/2+y,1/2-z
1/2-x,1/2-y,-z
1/2+x,1/2+y,1/2-z
1/2-x,1/2+y,z
1/2+x,1/2-y,1/2+z
loop_
_atom_site_type_symbol
_atom_site_label
_atom_site_fract_x
_atom_site_fract_y
_atom_site_fract_z
Si Si1 0.398042 0.600310 0.082234
Si Si2 0.933482 0.377928 0.922092
Si Si3 0.929147 0.280612 0.589896
Si Si4 0.000000 0.047773 0.924309
Si Si5 0.652392 0.955267 0.579685
Si Si6 0.431522 0.302499 0.916278
Si Si7 0.287010 0.457090 0.915302
O O1 0.417763 0.593587 0.250000
O O2 0.397264 0.652381 0.041543
O O3 0.331000 0.583835 0.054812
O O4 0.441865 0.574056 0.976645
O O5 0.934389 0.376676 0.750000
O O6 0.911634 0.329020 0.976261
O O7 0.888401 0.415270 0.980012
O O8 0.000000 0.388655 0.979805
O O9 0.902712 0.275458 0.750000
O O10 0.902810 0.239753 0.497701
O O11 0.000000 0.278021 0.592894
O O12 0.000000 0.043328 0.750000
O O13 0.000000 0.000000 0.000000
O O14 0.644097 0.962004 0.750000
O O15 0.720375 0.943354 0.537801
O O16 0.631688 0.000000 0.500000
O O17 0.424715 0.291217 0.750000
O O18 0.500000 0.309922 0.959698
O O19 0.287704 0.471449 0.750000
O O20 0.310418 0.500000 0.000000
#
# Coordination Sequence:
#
# PCOD8257479 Si02
#       7
#    16  16  16   8  16  16  16
#     4  10  19  33  48  64  89 119 151 188 231 275
#     4   8  14  26  45  68  94 122 149 181 222 265
#     4   8  14  25  42  63  86 114 148 183 215 258
#     4  12  24  34  46  66  92 120 150 188 235 278
#     4   9  17  30  47  68  91 118 153 187 222 265
#     4   9  16  27  43  62  86 114 142 180 228 270
#     4   9  18  31  48  65  84 115 154 190 222 265
#
# _framework density 16.627337000000001
#
# number of rings (size 3 to 8) (size 9 to 14) (size 15 to 20)
#    0.000    2.923    0.769    2.077    0.000    2.769 
#    0.000    0.769    0.000    1.846    0.000    0.000 
#    0.000    0.000    0.000    0.000    0.000    0.000 
#
# Total GULP energy -644556.319015 kJ/mol
# GULP energy per Si atom -12395.313827 kJ/mol
# Density = 1.658949 g / cm^3
# Si number density = 16.627337 Si / 1000 Ang^3
#
#
#
# Elastic Constant Matrix: (Units=GPa)
#
#
# Indices 1 2 3 4 5 6 
#
# 1 69.9226 71.1247 28.9421 0.0000 0.0000 0.0000
# 2 71.1247 175.5224 54.3104 0.0000 0.0000 0.0000
# 3 28.9421 54.3104 51.2996 0.0000 0.0000 0.0000
# 4 0.0000 0.0000 0.0000 29.0696 0.0000 0.0000
# 5 0.0000 0.0000 0.0000 0.0000 12.7995 0.0000
# 6 0.0000 0.0000 0.0000 0.0000 0.0000 20.6679
#
#
#
# Elastic Compliance Matrix: (Units=1/GPa)
#
#
# Indices 1 2 3 4 5 6 
#
# 1 0.025184 -0.008638 -0.005063 0.000000 0.000000 0.000000
# 2 -0.008638 0.011436 -0.007233 0.000000 0.000000 0.000000
# 3 -0.005063 -0.007233 0.030008 0.000000 0.000000 0.000000
# 4 0.000000 0.000000 0.000000 0.034400 0.000000 0.000000
# 5 0.000000 0.000000 0.000000 0.000000 0.078128 0.000000
# 6 0.000000 0.000000 0.000000 0.000000 0.000000 0.048384
#
#
# Mechanical properties :
#
#
# Convention : Reuss Voigt Hill
#
# Bulk Modulus (GPa) = 40.39080 67.27769 53.83424
# Shear Modulus (GPa) = 18.00749 21.99857 20.00303
#
# Velocity S-wave (km/s) = 3.29447 3.64130 3.47222
# Velocity P-wave (km/s) = 6.23024 7.63077 6.96580
#
# Compressibility (1/GPa) = 0.02475812
#
# Stress axis : x y z
#
# Youngs Moduli (GPa) = 39.70755 87.44373 33.32480
#
# Poissons Ratio (x) = 0.75538 0.16872
# Poissons Ratio (y) = 0.34301 0.24105
# Poissons Ratio (z) = 0.20103 0.63252
#
# Static dielectric constant tensor:
#      x y z
#    x 3.023150 0.000000 0.000000 
#    y 0.000000 3.415020 0.000000 
#    z 0.000000 0.000000 3.057070 
# 
# 
# High freq. dielectric constant tensor:
#      x y z
#    x 1.609750 0.000000 0.000000 
#    y 0.000000 1.650130 0.000000 
#    z 0.000000 0.000000 1.621540 
# 
# From -- ./inp_files/11086.got.cif
#   From: 2010.03.12/outbox.cif.g09.slc.cpg/sg63_6_cif.got.tgz:11086.got - 2010.04.10 19:34:48.
