data_PCOD8257680
_publ_section_title
;
Structure prediction by ZEFSAII (Michael W. Deem and Ramdas Pophale) SiO2 
 PCOD8257680
Probable space group: C M C M
;
_chemical_formula_sum "Si O2"
_cell_formula_units_Z 96
_cell_length_a 31.465038
_cell_length_b 16.286928
_cell_length_c 9.937245
_cell_angle_alpha 90.000000
_cell_angle_beta 90.000000
_cell_angle_gamma 90.000000
_cell_volume 5092.528104
_symmetry_space_group_name_H-M "C M C M"
_symmetry_group_IT_number 63
_symmetry_cell_setting 'orthorhombic'
loop_
_space_group_symop_operation_xyz
x,y,z
-x,-y,1/2+z
x,-y,-z
-x,y,1/2-z
-x,-y,-z
x,y,1/2-z
-x,y,z
x,-y,1/2+z
1/2+x,1/2+y,z
1/2-x,1/2-y,1/2+z
1/2+x,1/2-y,-z
1/2-x,1/2+y,1/2-z
1/2-x,1/2-y,-z
1/2+x,1/2+y,1/2-z
1/2-x,1/2+y,z
1/2+x,1/2-y,1/2+z
loop_
_atom_site_type_symbol
_atom_site_label
_atom_site_fract_x
_atom_site_fract_y
_atom_site_fract_z
Si Si1 0.178531 0.873463 0.099585
Si Si2 0.666912 0.220533 0.593111
Si Si3 0.927219 0.298643 0.407597
Si Si4 0.000000 0.580245 0.589269
Si Si5 0.887144 0.000000 0.000000
Si Si6 0.046143 0.125170 0.095789
Si Si7 0.726962 0.072576 0.595378
O O1 0.177845 0.835553 0.250000
O O2 0.223259 0.916512 0.071031
O O3 0.142163 0.942642 0.092578
O O4 0.172271 0.803189 0.990562
O O5 0.669409 0.245468 0.750000
O O6 0.621547 0.179311 0.557683
O O7 0.703361 0.156389 0.553614
O O8 0.933841 0.291213 0.250000
O O9 0.938669 0.210269 0.474681
O O10 0.958422 0.369603 0.459078
O O11 0.000000 0.500000 0.500000
O O12 0.000000 0.561251 0.750000
O O13 0.918085 0.944021 0.911829
O O14 0.039101 0.144746 0.250000
O O15 0.000000 0.098725 0.033370
O O16 0.716500 0.049913 0.750000
O O17 0.710019 0.000000 0.500000
#
# Coordination Sequence:
#
# PCOD8257680 Si02
#       7
#    16  16  16   8   8  16  16
#     4  11  23  37  55  84 119 152 190 236 289 343
#     4  10  21  38  61  84 110 149 196 238 287 346
#     4   9  17  33  57  81 105 145 186 226 274 336
#     4  10  20  36  60  85 112 142 188 235 282 340
#     4  12  21  34  56  82 116 152 194 231 282 336
#     4  10  19  33  55  82 110 146 192 232 272 329
#     4  10  22  39  58  84 114 149 192 240 291 347
#
# _framework density 18.851148999999999
#
# number of rings (size 3 to 8) (size 9 to 14) (size 15 to 20)
#    0.000    1.833    3.333    1.250    0.000    2.667 
#    0.000    0.833    0.000    0.000    0.000    0.000 
#    0.000    0.000    0.000    0.000    0.000    0.000 
#
# Total GULP energy -594997.332236 kJ/mol
# GULP energy per Si atom -12395.777755 kJ/mol
# Density = 1.880824 g / cm^3
# Si number density = 18.851149 Si / 1000 Ang^3
#
#
#
# Elastic Constant Matrix: (Units=GPa)
#
#
# Indices 1 2 3 4 5 6 
#
# 1 123.9237 57.6496 28.8268 0.0000 0.0000 0.0000
# 2 57.6496 134.0024 49.2620 0.0000 0.0000 0.0000
# 3 28.8268 49.2620 62.1204 0.0000 0.0000 0.0000
# 4 0.0000 0.0000 0.0000 33.8906 0.0000 0.0000
# 5 0.0000 0.0000 0.0000 0.0000 19.6813 0.0000
# 6 0.0000 0.0000 0.0000 0.0000 0.0000 34.1775
#
#
#
# Elastic Compliance Matrix: (Units=1/GPa)
#
#
# Indices 1 2 3 4 5 6 
#
# 1 0.010225 -0.003747 -0.001774 0.000000 0.000000 0.000000
# 2 -0.003747 0.011906 -0.007703 0.000000 0.000000 0.000000
# 3 -0.001774 -0.007703 0.023029 0.000000 0.000000 0.000000
# 4 0.000000 0.000000 0.000000 0.029507 0.000000 0.000000
# 5 0.000000 0.000000 0.000000 0.000000 0.050810 0.000000
# 6 0.000000 0.000000 0.000000 0.000000 0.000000 0.029259
#
#
# Mechanical properties :
#
#
# Convention : Reuss Voigt Hill
#
# Bulk Modulus (GPa) = 53.43689 65.72479 59.58084
# Shear Modulus (GPa) = 26.67784 29.83709 28.25747
#
# Velocity S-wave (km/s) = 3.76597 3.98272 3.87586
# Velocity P-wave (km/s) = 6.87884 7.48934 7.19057
#
# Compressibility (1/GPa) = 0.01871366
#
# Stress axis : x y z
#
# Youngs Moduli (GPa) = 97.79804 83.98873 43.42281
#
# Poissons Ratio (x) = 0.31471 0.07701
# Poissons Ratio (y) = 0.36645 0.33449
# Poissons Ratio (z) = 0.17345 0.64697
#
# Static dielectric constant tensor:
#      x y z
#    x 3.855460 0.000000 0.000000 
#    y 0.000000 3.390120 0.000000 
#    z 0.000000 0.000000 3.138170 
# 
# 
# High freq. dielectric constant tensor:
#      x y z
#    x 1.755130 0.000000 0.000000 
#    y 0.000000 1.729390 0.000000 
#    z 0.000000 0.000000 1.697360 
# 
# From -- ./inp_files/25888.got.cif
#   From: 2010.03.12/outbox.cif.g09.slc.cpg/sg63_13_cif.got.tgz:25888.got - 2010.04.10 19:34:48.
