data_PCOD8257317
_publ_section_title
;
Structure prediction by ZEFSAII (Michael W. Deem and Ramdas Pophale) SiO2 
 PCOD8257317
Probable space group: C M C M
;
_chemical_formula_sum "Si O2"
_cell_formula_units_Z 104
_cell_length_a 26.673524
_cell_length_b 24.234644
_cell_length_c 8.924563
_cell_angle_alpha 90.000000
_cell_angle_beta 90.000000
_cell_angle_gamma 90.000000
_cell_volume 5769.045986
_symmetry_space_group_name_H-M "C M C M"
_symmetry_group_IT_number 63
_symmetry_cell_setting 'orthorhombic'
loop_
_space_group_symop_operation_xyz
x,y,z
-x,-y,1/2+z
x,-y,-z
-x,y,1/2-z
-x,-y,-z
x,y,1/2-z
-x,y,z
x,-y,1/2+z
1/2+x,1/2+y,z
1/2-x,1/2-y,1/2+z
1/2+x,1/2-y,-z
1/2-x,1/2+y,1/2-z
1/2-x,1/2-y,-z
1/2+x,1/2+y,1/2-z
1/2-x,1/2+y,z
1/2+x,1/2-y,1/2+z
loop_
_atom_site_type_symbol
_atom_site_label
_atom_site_fract_x
_atom_site_fract_y
_atom_site_fract_z
Si Si1 0.689903 0.812673 0.077906
Si Si2 0.117718 0.852412 0.074826
Si Si3 0.919896 0.643089 0.573424
Si Si4 0.790954 0.815611 0.920753
Si Si5 0.444535 0.442721 0.918416
Si Si6 0.055203 0.249198 0.581855
Si Si7 0.500000 0.938080 0.931685
O O1 0.702514 0.826840 0.250000
O O2 0.638953 0.845515 0.029941
O O3 0.688899 0.746671 0.056674
O O4 0.734542 0.830712 0.968806
O O5 0.110510 0.856057 0.250000
O O6 0.091894 0.796609 0.013403
O O7 0.175444 0.853269 0.027868
O O8 0.093874 0.905044 0.002683
O O9 0.925351 0.632025 0.750000
O O10 0.947540 0.699005 0.528580
O O11 0.948680 0.593038 0.487224
O O12 0.797141 0.833805 0.750000
O O13 0.425708 0.451302 0.750000
O O14 0.500000 0.416150 0.922234
O O15 0.445170 0.500000 0.000000
O O16 0.072268 0.267550 0.750000
O O17 0.000000 0.222892 0.588975
O O18 0.500000 0.940079 0.750000
O O19 0.500000 0.000000 0.000000
#
# Coordination Sequence:
#
# PCOD8257317 Si02
#       7
#    16  16  16  16  16  16   8
#     4   9  19  34  52  78 112 149 185 225 276 336
#     4  11  21  33  52  78 112 149 187 231 278 328
#     4  11  21  36  58  84 114 147 183 228 281 333
#     4  10  19  32  51  78 112 149 190 230 275 332
#     4  10  21  37  56  77 104 142 187 232 277 327
#     4  10  20  32  48  76 112 149 184 224 276 333
#     4  12  26  44  64  88 116 150 195 236 281 338
#
# _framework density 18.027245000000001
#
# number of rings (size 3 to 8) (size 9 to 14) (size 15 to 20)
#    0.000    1.692    2.308    3.000    0.000    4.000 
#    0.000    0.000    0.000    0.923    0.000    2.154 
#    0.000    0.000    0.000    0.000    0.000    0.000 
#
# Total GULP energy -644390.409617 kJ/mol
# GULP energy per Si atom -12392.123262 kJ/mol
# Density = 1.798621 g / cm^3
# Si number density = 18.027245 Si / 1000 Ang^3
#
#
#
# Elastic Constant Matrix: (Units=GPa)
#
#
# Indices 1 2 3 4 5 6 
#
# 1 110.5685 43.3546 48.0746 0.0000 0.0000 0.0000
# 2 43.3546 64.6479 35.4291 0.0000 0.0000 0.0000
# 3 48.0746 35.4291 85.5992 0.0000 0.0000 0.0000
# 4 0.0000 0.0000 0.0000 29.2172 0.0000 0.0000
# 5 0.0000 0.0000 0.0000 0.0000 37.0909 0.0000
# 6 0.0000 0.0000 0.0000 0.0000 0.0000 76.3811
#
#
#
# Elastic Compliance Matrix: (Units=1/GPa)
#
#
# Indices 1 2 3 4 5 6 
#
# 1 0.013782 -0.006468 -0.005063 0.000000 0.000000 0.000000
# 2 -0.006468 0.023042 -0.005904 0.000000 0.000000 0.000000
# 3 -0.005063 -0.005904 0.016970 0.000000 0.000000 0.000000
# 4 0.000000 0.000000 0.000000 0.034226 0.000000 0.000000
# 5 0.000000 0.000000 0.000000 0.000000 0.026961 0.000000
# 6 0.000000 0.000000 0.000000 0.000000 0.000000 0.013092
#
#
# Mechanical properties :
#
#
# Convention : Reuss Voigt Hill
#
# Bulk Modulus (GPa) = 52.84699 57.17026 55.00862
# Shear Modulus (GPa) = 29.54208 37.46835 33.50521
#
# Velocity S-wave (km/s) = 4.05253 4.56392 4.31581
# Velocity P-wave (km/s) = 7.16073 7.71717 7.44415
#
# Compressibility (1/GPa) = 0.01892255
#
# Stress axis : x y z
#
# Youngs Moduli (GPa) = 72.56070 43.39987 58.92826
#
# Poissons Ratio (x) = 0.28069 0.29836
# Poissons Ratio (y) = 0.46929 0.34794
# Poissons Ratio (z) = 0.36739 0.25625
#
# Static dielectric constant tensor:
#      x y z
#    x 3.620370 0.000000 0.000000 
#    y 0.000000 3.086940 0.000000 
#    z 0.000000 0.000000 3.434970 
# 
# 
# High freq. dielectric constant tensor:
#      x y z
#    x 1.706000 0.000000 0.000000 
#    y 0.000000 1.660390 0.000000 
#    z 0.000000 0.000000 1.710860 
# 
# From -- ./inp_files/12589.got.cif
#   From: 2010.03.12/outbox.cif.g09.slc.cpg/sg63_7_cif.got.tgz:12589.got - 2010.04.10 19:34:48.
