data_PCOD8257059
_publ_section_title
;
Structure prediction by ZEFSAII (Michael W. Deem and Ramdas Pophale) SiO2 
 PCOD8257059
Probable space group: C M C M
;
_chemical_formula_sum "Si O2"
_cell_formula_units_Z 80
_cell_length_a 17.993367
_cell_length_b 25.741747
_cell_length_c 9.123817
_cell_angle_alpha 90.000000
_cell_angle_beta 90.000000
_cell_angle_gamma 90.000000
_cell_volume 4225.975954
_symmetry_space_group_name_H-M "C M C M"
_symmetry_group_IT_number 63
_symmetry_cell_setting 'orthorhombic'
loop_
_space_group_symop_operation_xyz
x,y,z
-x,-y,1/2+z
x,-y,-z
-x,y,1/2-z
-x,-y,-z
x,y,1/2-z
-x,y,z
x,-y,1/2+z
1/2+x,1/2+y,z
1/2-x,1/2-y,1/2+z
1/2+x,1/2-y,-z
1/2-x,1/2+y,1/2-z
1/2-x,1/2-y,-z
1/2+x,1/2+y,1/2-z
1/2-x,1/2+y,z
1/2+x,1/2-y,1/2+z
loop_
_atom_site_type_symbol
_atom_site_label
_atom_site_fract_x
_atom_site_fract_y
_atom_site_fract_z
Si Si1 0.319068 0.347818 0.420694
Si Si2 0.146996 0.346830 0.421565
Si Si3 0.355067 0.050181 0.415711
Si Si4 0.085410 0.249900 0.917368
Si Si5 0.821935 0.049972 0.414957
O O1 0.330739 0.359305 0.250000
O O2 0.233258 0.336934 0.457878
O O3 0.365302 0.298093 0.473625
O O4 0.349874 0.397676 0.507041
O O5 0.133223 0.353875 0.250000
O O6 0.117075 0.398350 0.501655
O O7 0.099967 0.298692 0.479478
O O8 0.385852 0.050470 0.250000
O O9 0.266585 0.048183 0.416639
O O10 0.387339 0.000000 0.500000
O O11 0.106616 0.264240 0.750000
O O12 0.000000 0.233232 0.930040
O O13 0.852876 0.048996 0.250000
O O14 0.854213 0.000000 0.500000
#
# Coordination Sequence:
#
# PCOD8257059 Si02
#       5
#    16  16  16  16  16
#     4   9  18  32  50  73 100 129 163 203 245 289
#     4  10  19  31  50  75 101 129 163 203 244 288
#     4   9  16  27  45  71 102 131 160 196 240 289
#     4  10  21  36  52  70  96 131 167 204 248 294
#     4   9  16  26  44  71 101 130 159 196 242 289
#
# _framework density 18.930539
#
# number of rings (size 3 to 8) (size 9 to 14) (size 15 to 20)
#    0.000    2.600    0.000    2.400    0.000    6.800 
#    0.000    0.000    0.000    1.200    0.000    0.000 
#    0.000    0.000    0.000    0.000    0.000    0.000 
#
# Total GULP energy -496091.601757 kJ/mol
# GULP energy per Si atom -12402.290044 kJ/mol
# Density = 1.888745 g / cm^3
# Si number density = 18.930539 Si / 1000 Ang^3
#
#
#
# Elastic Constant Matrix: (Units=GPa)
#
#
# Indices 1 2 3 4 5 6 
#
# 1 26.7047 18.2644 14.6808 0.0000 0.0000 0.0000
# 2 18.2644 141.8830 65.2166 0.0000 0.0000 0.0000
# 3 14.6808 65.2166 112.8667 0.0000 0.0000 0.0000
# 4 0.0000 0.0000 0.0000 42.9838 0.0000 0.0000
# 5 0.0000 0.0000 0.0000 0.0000 13.5050 0.0000
# 6 0.0000 0.0000 0.0000 0.0000 0.0000 0.6445
#
#
#
# Elastic Compliance Matrix: (Units=1/GPa)
#
#
# Indices 1 2 3 4 5 6 
#
# 1 0.041881 -0.003932 -0.003176 0.000000 0.000000 0.000000
# 2 -0.003932 0.009966 -0.005247 0.000000 0.000000 0.000000
# 3 -0.003176 -0.005247 0.012305 0.000000 0.000000 0.000000
# 4 0.000000 0.000000 0.000000 0.023265 0.000000 0.000000
# 5 0.000000 0.000000 0.000000 0.000000 0.074047 0.000000
# 6 0.000000 0.000000 0.000000 0.000000 0.000000 1.551657
#
#
# Mechanical properties :
#
#
# Convention : Reuss Voigt Hill
#
# Bulk Modulus (GPa) = 25.35285 53.08646 39.21966
# Shear Modulus (GPa) = 2.85555 23.64617 13.25086
#
# Velocity S-wave (km/s) = 1.22952 3.53810 2.64857
# Velocity P-wave (km/s) = 3.92903 6.69287 5.48779
#
# Compressibility (1/GPa) = 0.03944329
#
# Stress axis : x y z
#
# Youngs Moduli (GPa) = 23.87690 100.34084 81.26754
#
# Poissons Ratio (x) = 0.39449 0.25810
# Poissons Ratio (y) = 0.09387 0.42643
# Poissons Ratio (z) = 0.07583 0.52651
#
# Static dielectric constant tensor:
#      x y z
#    x 2.971070 0.000000 0.000000 
#    y 0.000000 3.614270 0.000000 
#    z 0.000000 0.000000 3.573750 
# 
# 
# High freq. dielectric constant tensor:
#      x y z
#    x 1.682380 0.000000 0.000000 
#    y 0.000000 1.749460 0.000000 
#    z 0.000000 0.000000 1.743630 
# 
# From -- ./inp_files/6348.got.cif
#   From: 2010.03.12/outbox.cif.g09.slc.cpg/sg63_4_cif.got.tgz:6348.got - 2010.04.10 19:34:48.
