data_PCOD8257945
_publ_section_title
;
Structure prediction by ZEFSAII (Michael W. Deem and Ramdas Pophale) SiO2 
 PCOD8257945
Probable space group: C M C M
;
_chemical_formula_sum "Si O2"
_cell_formula_units_Z 96
_cell_length_a 21.616264
_cell_length_b 8.922227
_cell_length_c 27.687742
_cell_angle_alpha 90.000000
_cell_angle_beta 90.000000
_cell_angle_gamma 90.000000
_cell_volume 5340.002294
_symmetry_space_group_name_H-M "C M C M"
_symmetry_group_IT_number 63
_symmetry_cell_setting 'orthorhombic'
loop_
_space_group_symop_operation_xyz
x,y,z
-x,-y,1/2+z
x,-y,-z
-x,y,1/2-z
-x,-y,-z
x,y,1/2-z
-x,y,z
x,-y,1/2+z
1/2+x,1/2+y,z
1/2-x,1/2-y,1/2+z
1/2+x,1/2-y,-z
1/2-x,1/2+y,1/2-z
1/2-x,1/2-y,-z
1/2+x,1/2+y,1/2-z
1/2-x,1/2+y,z
1/2+x,1/2-y,1/2+z
loop_
_atom_site_type_symbol
_atom_site_label
_atom_site_fract_x
_atom_site_fract_y
_atom_site_fract_z
Si Si1 0.571695 0.451919 0.053693
Si Si2 0.828371 0.299283 0.305191
Si Si3 0.932156 0.159987 0.141701
Si Si4 0.663293 0.295568 0.115807
Si Si5 0.930280 0.144682 0.805313
Si Si6 0.752302 0.550541 0.350814
O O1 0.500000 0.399065 0.057691
O O2 0.583853 0.592372 0.089110
O O3 0.617478 0.316488 0.069781
O O4 0.589117 0.500000 0.000000
O O5 0.851027 0.296436 0.250000
O O6 0.885678 0.290332 0.342513
O O7 0.795255 0.454794 0.315787
O O8 0.783177 0.160570 0.314808
O O9 0.000000 0.232542 0.140501
O O10 0.927803 0.030412 0.181846
O O11 0.620298 0.268530 0.162902
O O12 0.704984 0.445843 0.119796
O O13 0.706920 0.149168 0.111016
O O14 0.911407 0.166911 0.750000
O O15 0.000000 0.205234 0.815376
#
# Coordination Sequence:
#
# PCOD8257945 Si02
#       6
#    16  16  16  16  16  16
#     4   9  17  33  60  85 101 127 172 222 268 313
#     4  11  20  33  50  73 102 140 179 215 250 301
#     4   9  17  30  49  73 100 128 162 211 260 304
#     4  10  19  35  51  73 105 136 172 213 257 307
#     4   9  16  27  47  71  94 126 168 212 256 301
#     4  10  22  33  49  70 106 140 176 205 252 304
#
# _framework density 17.977519999999998
#
# number of rings (size 3 to 8) (size 9 to 14) (size 15 to 20)
#    0.000    2.333    3.333    2.500    0.000    4.333 
#    0.000    2.500    0.000    0.000    0.000    3.500 
#    0.000    0.000    0.000    0.000    0.000    0.000 
#
# Total GULP energy -594980.305957 kJ/mol
# GULP energy per Si atom -12395.423041 kJ/mol
# Density = 1.793660 g / cm^3
# Si number density = 17.977520 Si / 1000 Ang^3
#
#
#
# Elastic Constant Matrix: (Units=GPa)
#
#
# Indices 1 2 3 4 5 6 
#
# 1 111.9559 38.0903 50.8738 0.0000 0.0000 0.0000
# 2 38.0903 68.1770 22.5523 0.0000 0.0000 0.0000
# 3 50.8738 22.5523 88.8464 0.0000 0.0000 0.0000
# 4 0.0000 0.0000 0.0000 12.8993 0.0000 0.0000
# 5 0.0000 0.0000 0.0000 0.0000 24.2264 0.0000
# 6 0.0000 0.0000 0.0000 0.0000 0.0000 15.1637
#
#
#
# Elastic Compliance Matrix: (Units=1/GPa)
#
#
# Indices 1 2 3 4 5 6 
#
# 1 0.013760 -0.005547 -0.006471 0.000000 0.000000 0.000000
# 2 -0.005547 0.018248 -0.001456 0.000000 0.000000 0.000000
# 3 -0.006471 -0.001456 0.015330 0.000000 0.000000 0.000000
# 4 0.000000 0.000000 0.000000 0.077524 0.000000 0.000000
# 5 0.000000 0.000000 0.000000 0.000000 0.041277 0.000000
# 6 0.000000 0.000000 0.000000 0.000000 0.000000 0.065947
#
#
# Mechanical properties :
#
#
# Convention : Reuss Voigt Hill
#
# Bulk Modulus (GPa) = 49.04154 54.66799 51.85476
# Shear Modulus (GPa) = 18.80897 20.95540 19.88218
#
# Velocity S-wave (km/s) = 3.23809 3.41786 3.32919
# Velocity P-wave (km/s) = 6.42797 6.78607 6.60945
#
# Compressibility (1/GPa) = 0.02039088
#
# Stress axis : x y z
#
# Youngs Moduli (GPa) = 72.67574 54.79934 65.23092
#
# Poissons Ratio (x) = 0.30397 0.42210
# Poissons Ratio (y) = 0.40314 0.09496
# Poissons Ratio (z) = 0.47027 0.07978
#
# Static dielectric constant tensor:
#      x y z
#    x 3.730320 0.000000 0.000000 
#    y 0.000000 3.046200 0.000000 
#    z 0.000000 0.000000 3.113840 
# 
# 
# High freq. dielectric constant tensor:
#      x y z
#    x 1.719480 0.000000 0.000000 
#    y 0.000000 1.656530 0.000000 
#    z 0.000000 0.000000 1.671130 
# 
# From -- ./inp_files/70262.got.cif
#   From: 2010.03.12/outbox.cif.g09.slc.cpg/sg63_36_cif.got.tgz:70262.got - 2010.04.10 19:34:48.
