data_PCOD8257354
_publ_section_title
;
Structure prediction by ZEFSAII (Michael W. Deem and Ramdas Pophale) SiO2 
 PCOD8257354
Probable space group: C M C M
;
_chemical_formula_sum "Si O2"
_cell_formula_units_Z 128
_cell_length_a 24.602711
_cell_length_b 29.643467
_cell_length_c 9.493057
_cell_angle_alpha 90.000000
_cell_angle_beta 90.000000
_cell_angle_gamma 90.000000
_cell_volume 6923.378094
_symmetry_space_group_name_H-M "C M C M"
_symmetry_group_IT_number 63
_symmetry_cell_setting 'orthorhombic'
loop_
_space_group_symop_operation_xyz
x,y,z
-x,-y,1/2+z
x,-y,-z
-x,y,1/2-z
-x,-y,-z
x,y,1/2-z
-x,y,z
x,-y,1/2+z
1/2+x,1/2+y,z
1/2-x,1/2-y,1/2+z
1/2+x,1/2-y,-z
1/2-x,1/2+y,1/2-z
1/2-x,1/2-y,-z
1/2+x,1/2+y,1/2-z
1/2-x,1/2+y,z
1/2+x,1/2-y,1/2+z
loop_
_atom_site_type_symbol
_atom_site_label
_atom_site_fract_x
_atom_site_fract_y
_atom_site_fract_z
Si Si1 0.561264 0.887837 0.583134
Si Si2 0.436908 0.542149 0.412600
Si Si3 0.284611 0.215316 0.410671
Si Si4 0.368735 0.374475 0.917796
Si Si5 0.157371 0.453004 0.918361
Si Si6 0.252950 0.882254 0.917045
Si Si7 0.560297 0.707176 0.089876
Si Si8 0.409554 0.788498 0.911036
O O1 0.563534 0.886460 0.750000
O O2 0.500000 0.898964 0.529623
O O3 0.603120 0.926301 0.531617
O O4 0.580060 0.838687 0.527372
O O5 0.415017 0.500000 0.500000
O O6 0.423550 0.533163 0.250000
O O7 0.500000 0.550662 0.438859
O O8 0.405914 0.585219 0.473257
O O9 0.263789 0.218221 0.250000
O O10 0.250000 0.250000 0.500000
O O11 0.277867 0.164782 0.470329
O O12 0.347464 0.226936 0.423053
O O13 0.368996 0.372893 0.750000
O O14 0.308387 0.383843 0.977339
O O15 0.395170 0.327748 0.973502
O O16 0.157556 0.461104 0.750000
O O17 0.209961 0.423991 0.968564
O O18 0.159166 0.500000 0.000000
O O19 0.252817 0.883320 0.750000
O O20 0.575964 0.719515 0.250000
O O21 0.500000 0.684958 0.084583
O O22 0.556959 0.752944 0.001407
O O23 0.429813 0.786474 0.750000
#
# Coordination Sequence:
#
# PCOD8257354 Si02
#       8
#    16  16  16  16  16  16  16  16
#     4   9  17  32  55  78 101 134 174 212 253 310
#     4   9  17  30  48  69  92 121 161 205 247 295
#     4  10  19  32  52  77 104 136 174 214 255 305
#     4   9  17  30  50  72  97 134 172 204 248 307
#     4  10  20  36  56  78 103 134 171 214 261 311
#     4   9  17  32  52  73 100 132 169 207 248 305
#     4  10  20  33  50  76 108 139 174 217 263 310
#     4  10  19  33  53  77 104 137 179 218 255 310
#
# _framework density 18.488085000000002
#
# number of rings (size 3 to 8) (size 9 to 14) (size 15 to 20)
#    0.000    2.500    1.250    1.500    0.000    4.500 
#    0.000    1.875    0.000    3.750    0.000    0.000 
#    0.000    0.000    0.000    0.000    0.000    0.000 
#
# Total GULP energy -793367.847264 kJ/mol
# GULP energy per Si atom -12396.372614 kJ/mol
# Density = 1.844600 g / cm^3
# Si number density = 18.488085 Si / 1000 Ang^3
#
#
#
# Elastic Constant Matrix: (Units=GPa)
#
#
# Indices 1 2 3 4 5 6 
#
# 1 116.0308 69.8991 27.9050 0.0000 0.0000 0.0000
# 2 69.8991 155.1726 41.4876 0.0000 0.0000 0.0000
# 3 27.9050 41.4876 35.6271 0.0000 0.0000 0.0000
# 4 0.0000 0.0000 0.0000 31.1560 0.0000 0.0000
# 5 0.0000 0.0000 0.0000 0.0000 15.0232 0.0000
# 6 0.0000 0.0000 0.0000 0.0000 0.0000 36.2697
#
#
#
# Elastic Compliance Matrix: (Units=1/GPa)
#
#
# Indices 1 2 3 4 5 6 
#
# 1 0.012333 -0.004317 -0.004633 0.000000 0.000000 0.000000
# 2 -0.004317 0.010869 -0.009276 0.000000 0.000000 0.000000
# 3 -0.004633 -0.009276 0.042499 0.000000 0.000000 0.000000
# 4 0.000000 0.000000 0.000000 0.032097 0.000000 0.000000
# 5 0.000000 0.000000 0.000000 0.000000 0.066564 0.000000
# 6 0.000000 0.000000 0.000000 0.000000 0.000000 0.027571
#
#
# Mechanical properties :
#
#
# Convention : Reuss Voigt Hill
#
# Bulk Modulus (GPa) = 34.18823 65.04600 49.61711
# Shear Modulus (GPa) = 20.99660 27.65902 24.32781
#
# Velocity S-wave (km/s) = 3.37365 3.87207 3.63142
# Velocity P-wave (km/s) = 5.80582 7.43301 6.66922
#
# Compressibility (1/GPa) = 0.02924983
#
# Stress axis : x y z
#
# Youngs Moduli (GPa) = 81.08182 92.00454 23.53010
#
# Poissons Ratio (x) = 0.39718 0.10901
# Poissons Ratio (y) = 0.35003 0.21826
# Poissons Ratio (z) = 0.37565 0.85340
#
# Static dielectric constant tensor:
#      x y z
#    x 3.684760 0.000000 0.000000 
#    y 0.000000 3.471920 0.000000 
#    z 0.000000 0.000000 2.947760 
# 
# 
# High freq. dielectric constant tensor:
#      x y z
#    x 1.733050 0.000000 0.000000 
#    y 0.000000 1.721660 0.000000 
#    z 0.000000 0.000000 1.664870 
# 
# From -- ./inp_files/24232.got.cif
#   From: 2010.03.12/outbox.cif.g09.slc.cpg/sg63_13_cif.got.tgz:24232.got - 2010.04.10 19:34:48.
