data_PCOD8257499
_publ_section_title
;
Structure prediction by ZEFSAII (Michael W. Deem and Ramdas Pophale) SiO2 
 PCOD8257499
Probable space group: C M C M
;
_chemical_formula_sum "Si O2"
_cell_formula_units_Z 112
_cell_length_a 14.633447
_cell_length_b 23.802596
_cell_length_c 14.592942
_cell_angle_alpha 90.000000
_cell_angle_beta 90.000000
_cell_angle_gamma 90.000000
_cell_volume 5082.926394
_symmetry_space_group_name_H-M "C M C M"
_symmetry_group_IT_number 63
_symmetry_cell_setting 'orthorhombic'
loop_
_space_group_symop_operation_xyz
x,y,z
-x,-y,1/2+z
x,-y,-z
-x,y,1/2-z
-x,-y,-z
x,y,1/2-z
-x,y,z
x,-y,1/2+z
1/2+x,1/2+y,z
1/2-x,1/2-y,1/2+z
1/2+x,1/2-y,-z
1/2-x,1/2+y,1/2-z
1/2-x,1/2-y,-z
1/2+x,1/2+y,1/2-z
1/2-x,1/2+y,z
1/2+x,1/2-y,1/2+z
loop_
_atom_site_type_symbol
_atom_site_label
_atom_site_fract_x
_atom_site_fract_y
_atom_site_fract_z
Si Si1 0.601286 0.512259 0.397103
Si Si2 0.397582 0.858756 0.940382
Si Si3 0.748277 0.564387 0.849788
Si Si4 0.102968 0.142200 0.354300
Si Si5 0.897684 0.754616 0.353333
Si Si6 0.218881 0.166055 0.527085
Si Si7 0.604601 0.977793 0.857941
O O1 0.635220 0.500000 0.500000
O O2 0.500000 0.487365 0.383406
O O3 0.670509 0.481418 0.329732
O O4 0.603230 0.576526 0.370445
O O5 0.500000 0.863562 0.981700
O O6 0.395883 0.813070 0.858801
O O7 0.363079 0.919141 0.903517
O O8 0.329251 0.834410 0.017989
O O9 0.774948 0.590460 0.750000
O O10 0.700318 0.609509 0.915972
O O11 0.836007 0.531206 0.893515
O O12 0.134201 0.156301 0.250000
O O13 0.172733 0.169053 0.426870
O O14 0.000000 0.165426 0.370845
O O15 0.876036 0.772796 0.250000
O O16 0.819219 0.780742 0.417726
O O17 0.000000 0.776112 0.381438
O O18 0.618349 0.970728 0.750000
O O19 0.500000 0.990645 0.883846
#
# Coordination Sequence:
#
# PCOD8257499 Si02
#       7
#    16  16  16  16  16  16  16
#     4  10  19  33  51  73 109 157 202 246 294 349
#     4  10  22  39  62  90 118 156 208 261 308 351
#     4  11  23  36  55  86 123 161 201 243 299 371
#     4  10  21  36  54  79 114 157 203 249 301 363
#     4  10  22  42  67  93 121 156 203 258 309 361
#     4  12  23  38  60  89 125 161 196 245 305 375
#     4   9  19  37  60  87 120 158 202 253 304 354
#
# _framework density 22.034552000000001
#
# number of rings (size 3 to 8) (size 9 to 14) (size 15 to 20)
#    0.000    1.714    1.429    3.000    0.000    6.000 
#    0.000    1.429    0.000    1.286    0.000    2.000 
#    0.000    0.000    0.000    0.000    0.000    0.000 
#
# Total GULP energy -694064.915485 kJ/mol
# GULP energy per Si atom -12394.016348 kJ/mol
# Density = 2.198440 g / cm^3
# Si number density = 22.034552 Si / 1000 Ang^3
#
#
#
# Elastic Constant Matrix: (Units=GPa)
#
#
# Indices 1 2 3 4 5 6 
#
# 1 70.4961 -0.2386 26.2704 0.0000 0.0000 0.0000
# 2 -0.2386 50.9051 17.7406 0.0000 0.0000 0.0000
# 3 26.2704 17.7406 99.7776 0.0000 0.0000 0.0000
# 4 0.0000 0.0000 0.0000 18.3922 0.0000 0.0000
# 5 0.0000 0.0000 0.0000 0.0000 33.3806 0.0000
# 6 0.0000 0.0000 0.0000 0.0000 0.0000 13.0299
#
#
#
# Elastic Compliance Matrix: (Units=1/GPa)
#
#
# Indices 1 2 3 4 5 6 
#
# 1 0.015854 0.001630 -0.004464 0.000000 0.000000 0.000000
# 2 0.001630 0.021110 -0.004183 0.000000 0.000000 0.000000
# 3 -0.004464 -0.004183 0.011941 0.000000 0.000000 0.000000
# 4 0.000000 0.000000 0.000000 0.054371 0.000000 0.000000
# 5 0.000000 0.000000 0.000000 0.000000 0.029958 0.000000
# 6 0.000000 0.000000 0.000000 0.000000 0.000000 0.076747
#
#
# Mechanical properties :
#
#
# Convention : Reuss Voigt Hill
#
# Bulk Modulus (GPa) = 28.67620 34.30264 31.48942
# Shear Modulus (GPa) = 21.21905 24.78764 23.00334
#
# Velocity S-wave (km/s) = 3.10657 3.35766 3.23455
# Velocity P-wave (km/s) = 5.09021 5.53473 5.31712
#
# Compressibility (1/GPa) = 0.03487212
#
# Stress axis : x y z
#
# Youngs Moduli (GPa) = 63.07463 47.37170 83.74307
#
# Poissons Ratio (x) = -0.07722 0.37384
# Poissons Ratio (y) = -0.10282 0.35026
# Poissons Ratio (z) = 0.28157 0.19813
#
# Static dielectric constant tensor:
#      x y z
#    x 4.213690 0.000000 0.000000 
#    y 0.000000 3.726130 0.000000 
#    z 0.000000 0.000000 3.958780 
# 
# 
# High freq. dielectric constant tensor:
#      x y z
#    x 1.875930 0.000000 0.000000 
#    y 0.000000 1.845160 0.000000 
#    z 0.000000 0.000000 1.861310 
# 
# From -- ./inp_files/32333.got.cif
#   From: 2010.03.12/outbox.cif.g09.slc.cpg/sg63_17_cif.got.tgz:32333.got - 2010.04.10 19:34:48.
