data_PCOD8257039
_publ_section_title
;
Structure prediction by ZEFSAII (Michael W. Deem and Ramdas Pophale) SiO2 
 PCOD8257039
Probable space group: C M C M
;
_chemical_formula_sum "Si O2"
_cell_formula_units_Z 72
_cell_length_a 12.303334
_cell_length_b 32.015332
_cell_length_c 8.821533
_cell_angle_alpha 90.000000
_cell_angle_beta 90.000000
_cell_angle_gamma 90.000000
_cell_volume 3474.760588
_symmetry_space_group_name_H-M "C M C M"
_symmetry_group_IT_number 63
_symmetry_cell_setting 'orthorhombic'
loop_
_space_group_symop_operation_xyz
x,y,z
-x,-y,1/2+z
x,-y,-z
-x,y,1/2-z
-x,-y,-z
x,y,1/2-z
-x,y,z
x,-y,1/2+z
1/2+x,1/2+y,z
1/2-x,1/2-y,1/2+z
1/2+x,1/2-y,-z
1/2-x,1/2+y,1/2-z
1/2-x,1/2-y,-z
1/2+x,1/2+y,1/2-z
1/2-x,1/2+y,z
1/2+x,1/2-y,1/2+z
loop_
_atom_site_type_symbol
_atom_site_label
_atom_site_fract_x
_atom_site_fract_y
_atom_site_fract_z
Si Si1 0.129488 0.230900 0.424172
Si Si2 0.878396 0.854266 0.425602
Si Si3 0.500000 0.954883 0.572050
Si Si4 0.831191 0.603721 0.923609
Si Si5 0.376177 0.187089 0.416019
O O1 0.161133 0.237725 0.250000
O O2 0.171490 0.184952 0.480184
O O3 0.180161 0.269968 0.521770
O O4 0.000000 0.229856 0.445971
O O5 0.878361 0.840977 0.250000
O O6 0.799909 0.894627 0.451037
O O7 0.000000 0.866343 0.479691
O O8 0.500000 0.959583 0.750000
O O9 0.609910 0.930859 0.525062
O O10 0.500000 0.000000 0.500000
O O11 0.860421 0.593845 0.750000
O O12 0.873027 0.649603 0.964294
O O13 0.327452 0.174987 0.250000
O O14 0.500000 0.199569 0.395531
#
# Coordination Sequence:
#
# PCOD8257039 Si02
#       5
#    16  16   8  16  16
#     4   9  17  29  47  73 108 153 203 253 296 338
#     4   9  19  36  56  81 116 158 202 243 286 339
#     4  12  26  46  70  96 124 150 182 232 294 362
#     4  11  22  37  61  89 117 151 191 239 293 351
#     4  10  19  31  49  75 111 154 199 248 298 350
#
# _framework density 20.720853999999999
#
# number of rings (size 3 to 8) (size 9 to 14) (size 15 to 20)
#    0.000    2.000    1.111    3.000    0.000    6.222 
#    0.000    0.000    0.000    0.667    0.000    0.000 
#    0.000    0.000    0.000    0.000    0.000    0.000 
#
# Total GULP energy -446372.149685 kJ/mol
# GULP energy per Si atom -12399.226380 kJ/mol
# Density = 2.067369 g / cm^3
# Si number density = 20.720854 Si / 1000 Ang^3
#
#
#
# Elastic Constant Matrix: (Units=GPa)
#
#
# Indices 1 2 3 4 5 6 
#
# 1 100.6029 55.9330 30.0918 0.0000 0.0000 0.0000
# 2 55.9330 119.5909 49.2361 0.0000 0.0000 0.0000
# 3 30.0918 49.2361 122.2611 0.0000 0.0000 0.0000
# 4 0.0000 0.0000 0.0000 32.6356 0.0000 0.0000
# 5 0.0000 0.0000 0.0000 0.0000 23.7002 0.0000
# 6 0.0000 0.0000 0.0000 0.0000 0.0000 22.9875
#
#
#
# Elastic Compliance Matrix: (Units=1/GPa)
#
#
# Indices 1 2 3 4 5 6 
#
# 1 0.013522 -0.005939 -0.000937 0.000000 0.000000 0.000000
# 2 -0.005939 0.012632 -0.003625 0.000000 0.000000 0.000000
# 3 -0.000937 -0.003625 0.009870 0.000000 0.000000 0.000000
# 4 0.000000 0.000000 0.000000 0.030641 0.000000 0.000000
# 5 0.000000 0.000000 0.000000 0.000000 0.042194 0.000000
# 6 0.000000 0.000000 0.000000 0.000000 0.000000 0.043502
#
#
# Mechanical properties :
#
#
# Convention : Reuss Voigt Hill
#
# Bulk Modulus (GPa) = 66.56710 68.10853 67.33781
# Shear Modulus (GPa) = 28.03171 29.67759 28.85465
#
# Velocity S-wave (km/s) = 3.68207 3.78862 3.73573
# Velocity P-wave (km/s) = 7.09029 7.21659 7.15372
#
# Compressibility (1/GPa) = 0.01502244
#
# Stress axis : x y z
#
# Youngs Moduli (GPa) = 73.95358 79.16416 101.32009
#
# Poissons Ratio (x) = 0.47013 0.09489
# Poissons Ratio (y) = 0.43919 0.36732
# Poissons Ratio (z) = 0.06926 0.28700
#
# Static dielectric constant tensor:
#      x y z
#    x 4.487340 0.000000 0.000000 
#    y 0.000000 3.374290 0.000000 
#    z 0.000000 0.000000 3.905440 
# 
# 
# High freq. dielectric constant tensor:
#      x y z
#    x 1.858510 0.000000 0.000000 
#    y 0.000000 1.755890 0.000000 
#    z 0.000000 0.000000 1.819440 
# 
# From -- ./inp_files/4622.got.cif
#   From: 2010.03.12/outbox.cif.g09.slc.cpg/sg63_3_cif.got.tgz:4622.got - 2010.04.10 19:34:48.
