data_PCOD8257325
_publ_section_title
;
Structure prediction by ZEFSAII (Michael W. Deem and Ramdas Pophale) SiO2 
 PCOD8257325
Probable space group: C M C M
;
_chemical_formula_sum "Si O2"
_cell_formula_units_Z 96
_cell_length_a 8.984492
_cell_length_b 29.209559
_cell_length_c 20.569710
_cell_angle_alpha 90.000000
_cell_angle_beta 90.000000
_cell_angle_gamma 90.000000
_cell_volume 5398.171716
_symmetry_space_group_name_H-M "C M C M"
_symmetry_group_IT_number 63
_symmetry_cell_setting 'orthorhombic'
loop_
_space_group_symop_operation_xyz
x,y,z
-x,-y,1/2+z
x,-y,-z
-x,y,1/2-z
-x,-y,-z
x,y,1/2-z
-x,y,z
x,-y,1/2+z
1/2+x,1/2+y,z
1/2-x,1/2-y,1/2+z
1/2+x,1/2-y,-z
1/2-x,1/2+y,1/2-z
1/2-x,1/2-y,-z
1/2+x,1/2+y,1/2-z
1/2-x,1/2+y,z
1/2+x,1/2-y,1/2+z
loop_
_atom_site_type_symbol
_atom_site_label
_atom_site_fract_x
_atom_site_fract_y
_atom_site_fract_z
Si Si1 0.174810 0.777405 0.557833
Si Si2 0.674270 0.376871 0.515434
Si Si3 0.176743 0.719947 0.822047
Si Si4 0.327093 0.463939 0.323212
Si Si5 0.176458 0.376601 0.123112
Si Si6 0.324287 0.473421 0.562317
O O1 0.250000 0.750000 0.500000
O O2 0.216517 0.830903 0.554284
O O3 0.233269 0.758412 0.627130
O O4 0.000000 0.769177 0.550841
O O5 0.500000 0.378407 0.498030
O O6 0.764613 0.380330 0.449498
O O7 0.721251 0.419963 0.560335
O O8 0.241099 0.730688 0.750000
O O9 0.234589 0.670559 0.845483
O O10 0.000000 0.719748 0.819533
O O11 0.302075 0.481710 0.250000
O O12 0.500000 0.453673 0.337180
O O13 0.237288 0.417384 0.332903
O O14 0.264348 0.503196 0.371616
O O15 0.000000 0.378750 0.121782
O O16 0.256155 0.500000 0.500000
O O17 0.500000 0.478199 0.560614
#
# Coordination Sequence:
#
# PCOD8257325 Si02
#       6
#    16  16  16  16  16  16
#     4  10  19  32  52  75 100 131 168 210 250 297
#     4  10  19  32  52  76 100 129 169 211 250 294
#     4   9  18  32  48  70 102 135 161 195 252 306
#     4  10  20  34  52  74 101 133 167 204 248 299
#     4  11  20  31  51  76 104 133 164 206 253 300
#     4   9  16  30  51  71  97 131 162 199 248 294
#
# _framework density 17.783798999999998
#
# number of rings (size 3 to 8) (size 9 to 14) (size 15 to 20)
#    0.000    2.167    3.333    1.000    0.000    1.000 
#    0.000    2.500    0.000    6.500    0.000    0.000 
#    0.000    1.333    0.000    0.000    0.000    0.000 
#
# Total GULP energy -595111.671113 kJ/mol
# GULP energy per Si atom -12398.159815 kJ/mol
# Density = 1.774332 g / cm^3
# Si number density = 17.783799 Si / 1000 Ang^3
#
#
#
# Elastic Constant Matrix: (Units=GPa)
#
#
# Indices 1 2 3 4 5 6 
#
# 1 27.0603 23.2449 19.0227 0.0000 0.0000 0.0000
# 2 23.2449 155.8384 80.8110 0.0000 0.0000 0.0000
# 3 19.0227 80.8110 145.9060 0.0000 0.0000 0.0000
# 4 0.0000 0.0000 0.0000 29.4573 0.0000 0.0000
# 5 0.0000 0.0000 0.0000 0.0000 17.6697 0.0000
# 6 0.0000 0.0000 0.0000 0.0000 0.0000 20.6543
#
#
#
# Elastic Compliance Matrix: (Units=1/GPa)
#
#
# Indices 1 2 3 4 5 6 
#
# 1 0.043241 -0.004947 -0.002898 0.000000 0.000000 0.000000
# 2 -0.004947 0.009569 -0.004655 0.000000 0.000000 0.000000
# 3 -0.002898 -0.004655 0.009809 0.000000 0.000000 0.000000
# 4 0.000000 0.000000 0.000000 0.033947 0.000000 0.000000
# 5 0.000000 0.000000 0.000000 0.000000 0.056594 0.000000
# 6 0.000000 0.000000 0.000000 0.000000 0.000000 0.048416
#
#
# Mechanical properties :
#
#
# Convention : Reuss Voigt Hill
#
# Bulk Modulus (GPa) = 26.58141 63.88467 45.23304
# Shear Modulus (GPa) = 20.91040 27.27134 24.09087
#
# Velocity S-wave (km/s) = 3.43273 3.92023 3.68455
# Velocity P-wave (km/s) = 5.53994 7.51611 6.60238
#
# Compressibility (1/GPa) = 0.03762027
#
# Stress axis : x y z
#
# Youngs Moduli (GPa) = 23.12613 104.50957 101.94237
#
# Poissons Ratio (x) = 0.51704 0.29538
# Poissons Ratio (y) = 0.11441 0.47450
# Poissons Ratio (z) = 0.06701 0.48645
#
# Static dielectric constant tensor:
#      x y z
#    x 3.007440 0.000000 0.000000 
#    y 0.000000 3.629250 0.000000 
#    z 0.000000 0.000000 3.827370 
# 
# 
# High freq. dielectric constant tensor:
#      x y z
#    x 1.651780 0.000000 0.000000 
#    y 0.000000 1.694070 0.000000 
#    z 0.000000 0.000000 1.689940 
# 
# From -- ./inp_files/51412.got.cif
#   From: 2010.03.12/outbox.cif.g09.slc.cpg/sg63_26_cif.got.tgz:51412.got - 2010.04.10 19:34:48.
