data_PCOD8257836
_publ_section_title
;
Structure prediction by ZEFSAII (Michael W. Deem and Ramdas Pophale) SiO2 
 PCOD8257836
Probable space group: C M C M
;
_chemical_formula_sum "Si O2"
_cell_formula_units_Z 72
_cell_length_a 10.750227
_cell_length_b 14.065803
_cell_length_c 23.977403
_cell_angle_alpha 90.000000
_cell_angle_beta 90.000000
_cell_angle_gamma 90.000000
_cell_volume 3625.636899
_symmetry_space_group_name_H-M "C M C M"
_symmetry_group_IT_number 63
_symmetry_cell_setting 'orthorhombic'
loop_
_space_group_symop_operation_xyz
x,y,z
-x,-y,1/2+z
x,-y,-z
-x,y,1/2-z
-x,-y,-z
x,y,1/2-z
-x,y,z
x,-y,1/2+z
1/2+x,1/2+y,z
1/2-x,1/2-y,1/2+z
1/2+x,1/2-y,-z
1/2-x,1/2+y,1/2-z
1/2-x,1/2-y,-z
1/2+x,1/2+y,1/2-z
1/2-x,1/2+y,z
1/2+x,1/2-y,1/2+z
loop_
_atom_site_type_symbol
_atom_site_label
_atom_site_fract_x
_atom_site_fract_y
_atom_site_fract_z
Si Si1 0.500000 0.350958 0.185578
Si Si2 0.000000 0.668513 0.382518
Si Si3 0.247946 0.237212 0.081573
Si Si4 0.857703 0.890447 0.493702
Si Si5 0.769225 0.349988 0.314663
Si Si6 0.500000 0.015023 0.687270
O O1 0.500000 0.362852 0.250000
O O2 0.500000 0.240591 0.169335
O O3 0.366463 0.394632 0.165560
O O4 0.120437 0.682875 0.420704
O O5 0.000000 0.564014 0.358764
O O6 0.149502 0.166765 0.052492
O O7 0.203020 0.259853 0.144893
O O8 0.264625 0.337868 0.049205
O O9 0.000000 0.886550 0.471664
O O10 0.815232 0.000000 0.500000
O O11 0.764791 0.314831 0.250000
O O12 0.875860 0.425754 0.323191
O O13 0.500000 0.974094 0.750000
#
# Coordination Sequence:
#
# PCOD8257836 Si02
#       6
#     8   8  16  16  16   8
#     4   8  15  32  56  76 107 156 190 220 281 345
#     4  10  19  34  55  83 113 150 188 237 279 356
#     4  10  21  38  60  86 116 152 196 237 292 356
#     4  10  22  40  60  83 113 151 195 247 296 343
#     4   9  19  35  58  88 121 154 191 238 291 351
#     4  10  21  34  55  90 122 151 196 242 291 341
#
# _framework density 19.85858
#
# number of rings (size 3 to 8) (size 9 to 14) (size 15 to 20)
#    0.000    2.444    1.111    0.333    4.667    0.889 
#    0.000    0.556    0.000    0.000    0.000   10.889 
#    0.000    0.000    0.000    0.000    0.000    0.000 
#
# Total GULP energy -446028.134960 kJ/mol
# GULP energy per Si atom -12389.670416 kJ/mol
# Density = 1.981338 g / cm^3
# Si number density = 19.858580 Si / 1000 Ang^3
#
#
#
# Elastic Constant Matrix: (Units=GPa)
#
#
# Indices 1 2 3 4 5 6 
#
# 1 91.7834 41.8507 14.7129 0.0000 0.0000 0.0000
# 2 41.8507 103.5552 46.3779 0.0000 0.0000 0.0000
# 3 14.7129 46.3779 78.6739 0.0000 0.0000 0.0000
# 4 0.0000 0.0000 0.0000 29.2839 0.0000 0.0000
# 5 0.0000 0.0000 0.0000 0.0000 24.4479 0.0000
# 6 0.0000 0.0000 0.0000 0.0000 0.0000 17.1704
#
#
#
# Elastic Compliance Matrix: (Units=1/GPa)
#
#
# Indices 1 2 3 4 5 6 
#
# 1 0.013407 -0.005836 0.000933 0.000000 0.000000 0.000000
# 2 -0.005836 0.015661 -0.008141 0.000000 0.000000 0.000000
# 3 0.000933 -0.008141 0.017335 0.000000 0.000000 0.000000
# 4 0.000000 0.000000 0.000000 0.034148 0.000000 0.000000
# 5 0.000000 0.000000 0.000000 0.000000 0.040903 0.000000
# 6 0.000000 0.000000 0.000000 0.000000 0.000000 0.058240
#
#
# Mechanical properties :
#
#
# Convention : Reuss Voigt Hill
#
# Bulk Modulus (GPa) = 49.22329 53.32171 51.27250
# Shear Modulus (GPa) = 23.52345 25.58518 24.55432
#
# Velocity S-wave (km/s) = 3.44546 3.59328 3.52015
# Velocity P-wave (km/s) = 6.37722 6.64263 6.51128
#
# Compressibility (1/GPa) = 0.02031559
#
# Stress axis : x y z
#
# Youngs Moduli (GPa) = 74.58939 63.85220 57.68634
#
# Poissons Ratio (x) = 0.37265 -0.05383
# Poissons Ratio (y) = 0.43531 0.46961
# Poissons Ratio (z) = -0.06960 0.51981
#
# Static dielectric constant tensor:
#      x y z
#    x 4.218720 0.000000 0.000000 
#    y 0.000000 3.287750 0.000000 
#    z 0.000000 0.000000 3.777850 
# 
# 
# High freq. dielectric constant tensor:
#      x y z
#    x 1.781410 0.000000 0.000000 
#    y 0.000000 1.738740 0.000000 
#    z 0.000000 0.000000 1.780560 
# 
# From -- ./inp_files/68008.got.cif
#   From: 2010.03.12/outbox.cif.g09.slc.cpg/sg63_35_cif.got.tgz:68008.got - 2010.04.10 19:34:48.
