data_PCOD8257125
_publ_section_title
;
Structure prediction by ZEFSAII (Michael W. Deem and Ramdas Pophale) SiO2 
 PCOD8257125
Probable space group: C M C M
;
_chemical_formula_sum "Si O2"
_cell_formula_units_Z 96
_cell_length_a 13.939697
_cell_length_b 22.206481
_cell_length_c 14.710489
_cell_angle_alpha 90.000000
_cell_angle_beta 90.000000
_cell_angle_gamma 90.000000
_cell_volume 4553.655651
_symmetry_space_group_name_H-M "C M C M"
_symmetry_group_IT_number 63
_symmetry_cell_setting 'orthorhombic'
loop_
_space_group_symop_operation_xyz
x,y,z
-x,-y,1/2+z
x,-y,-z
-x,y,1/2-z
-x,-y,-z
x,y,1/2-z
-x,y,z
x,-y,1/2+z
1/2+x,1/2+y,z
1/2-x,1/2-y,1/2+z
1/2+x,1/2-y,-z
1/2-x,1/2+y,1/2-z
1/2-x,1/2-y,-z
1/2+x,1/2+y,1/2-z
1/2-x,1/2+y,z
1/2+x,1/2-y,1/2+z
loop_
_atom_site_type_symbol
_atom_site_label
_atom_site_fract_x
_atom_site_fract_y
_atom_site_fract_z
Si Si1 0.742331 0.612051 0.352181
Si Si2 0.108805 0.006491 0.396563
Si Si3 0.397228 0.628535 0.648206
Si Si4 0.808036 0.344229 0.358675
Si Si5 0.893055 0.782622 0.642060
Si Si6 0.611956 0.930283 0.502654
O O1 0.777949 0.627239 0.250000
O O2 0.676866 0.552996 0.345964
O O3 0.678796 0.666241 0.394649
O O4 0.834217 0.603507 0.415607
O O5 0.000000 0.030997 0.391344
O O6 0.143174 0.000000 0.500000
O O7 0.119043 0.942854 0.347694
O O8 0.406229 0.652900 0.750000
O O9 0.500000 0.643268 0.597713
O O10 0.302796 0.658994 0.604950
O O11 0.812893 0.354828 0.250000
O O12 0.857613 0.282784 0.389966
O O13 0.861631 0.400033 0.406240
O O14 0.895094 0.785645 0.750000
O O15 0.000000 0.793303 0.602757
O O16 0.500000 0.923489 0.522124
O O17 0.642906 0.000000 0.500000
#
# Coordination Sequence:
#
# PCOD8257125 Si02
#       6
#    16  16  16  16  16  16
#     4  11  22  37  58  83 116 157 194 234 289 349
#     4  10  19  31  51  81 115 146 179 226 283 340
#     4   9  17  29  48  77 110 141 174 215 268 332
#     4  10  20  38  63  86 113 152 194 239 294 351
#     4   9  19  36  59  88 117 148 194 244 286 340
#     4  11  25  42  59  84 116 149 196 253 299 348
#
# _framework density 21.081962999999998
#
# number of rings (size 3 to 8) (size 9 to 14) (size 15 to 20)
#    0.000    2.000    0.000    4.000    0.000    5.667 
#    0.000    3.333    0.000    3.000    0.000    0.000 
#    0.000    0.000    0.000    0.000    0.000    0.000 
#
# Total GULP energy -595082.485476 kJ/mol
# GULP energy per Si atom -12397.551781 kJ/mol
# Density = 2.103398 g / cm^3
# Si number density = 21.081963 Si / 1000 Ang^3
#
#
#
# Elastic Constant Matrix: (Units=GPa)
#
#
# Indices 1 2 3 4 5 6 
#
# 1 152.0320 68.9232 37.3995 0.0000 0.0000 0.0000
# 2 68.9232 99.1833 28.8359 0.0000 0.0000 0.0000
# 3 37.3995 28.8359 69.2457 0.0000 0.0000 0.0000
# 4 0.0000 0.0000 0.0000 23.7506 0.0000 0.0000
# 5 0.0000 0.0000 0.0000 0.0000 24.7840 0.0000
# 6 0.0000 0.0000 0.0000 0.0000 0.0000 47.3214
#
#
#
# Elastic Compliance Matrix: (Units=1/GPa)
#
#
# Indices 1 2 3 4 5 6 
#
# 1 0.010082 -0.006170 -0.002876 0.000000 0.000000 0.000000
# 2 -0.006170 0.015247 -0.003017 0.000000 0.000000 0.000000
# 3 -0.002876 -0.003017 0.017251 0.000000 0.000000 0.000000
# 4 0.000000 0.000000 0.000000 0.042104 0.000000 0.000000
# 5 0.000000 0.000000 0.000000 0.000000 0.040349 0.000000
# 6 0.000000 0.000000 0.000000 0.000000 0.000000 0.021132
#
#
# Mechanical properties :
#
#
# Convention : Reuss Voigt Hill
#
# Bulk Modulus (GPa) = 54.18767 65.64201 59.91484
# Shear Modulus (GPa) = 28.33784 31.52470 29.93127
#
# Velocity S-wave (km/s) = 3.67028 3.87116 3.77205
# Velocity P-wave (km/s) = 6.61214 7.15439 6.88860
#
# Compressibility (1/GPa) = 0.01845438
#
# Stress axis : x y z
#
# Youngs Moduli (GPa) = 99.18430 65.58632 57.96782
#
# Poissons Ratio (x) = 0.40467 0.16672
# Poissons Ratio (y) = 0.61197 0.17488
# Poissons Ratio (z) = 0.28525 0.19787
#
# Static dielectric constant tensor:
#      x y z
#    x 4.092800 0.000000 0.000000 
#    y 0.000000 3.729460 0.000000 
#    z 0.000000 0.000000 3.549470 
# 
# 
# High freq. dielectric constant tensor:
#      x y z
#    x 1.837310 0.000000 0.000000 
#    y 0.000000 1.812990 0.000000 
#    z 0.000000 0.000000 1.809970 
# 
# From -- ./inp_files/31890.got.cif
#   From: 2010.03.12/outbox.cif.g09.slc.cpg/sg63_16_cif.got.tgz:31890.got - 2010.04.10 19:34:48.
