data_PCOD8257286
_publ_section_title
;
Structure prediction by ZEFSAII (Michael W. Deem and Ramdas Pophale) SiO2 
 PCOD8257286
Probable space group: C M C M
;
_chemical_formula_sum "Si O2"
_cell_formula_units_Z 96
_cell_length_a 8.994908
_cell_length_b 20.819265
_cell_length_c 28.453816
_cell_angle_alpha 90.000000
_cell_angle_beta 90.000000
_cell_angle_gamma 90.000000
_cell_volume 5328.471383
_symmetry_space_group_name_H-M "C M C M"
_symmetry_group_IT_number 63
_symmetry_cell_setting 'orthorhombic'
loop_
_space_group_symop_operation_xyz
x,y,z
-x,-y,1/2+z
x,-y,-z
-x,y,1/2-z
-x,-y,-z
x,y,1/2-z
-x,y,z
x,-y,1/2+z
1/2+x,1/2+y,z
1/2-x,1/2-y,1/2+z
1/2+x,1/2-y,-z
1/2-x,1/2+y,1/2-z
1/2-x,1/2-y,-z
1/2+x,1/2+y,1/2-z
1/2-x,1/2+y,z
1/2+x,1/2-y,1/2+z
loop_
_atom_site_type_symbol
_atom_site_label
_atom_site_fract_x
_atom_site_fract_y
_atom_site_fract_z
Si Si1 0.823602 0.748138 0.449765
Si Si2 0.676164 0.625237 0.895820
Si Si3 0.176951 0.999832 0.946648
Si Si4 0.173151 0.869153 0.601219
Si Si5 0.824208 0.182022 0.801682
Si Si6 0.170465 0.185132 0.301995
O O1 0.750000 0.750000 0.500000
O O2 0.768791 0.812095 0.423391
O O3 0.768907 0.686479 0.421777
O O4 0.000000 0.745638 0.454611
O O5 0.500000 0.620650 0.898290
O O6 0.744931 0.561405 0.919372
O O7 0.729653 0.631507 0.841388
O O8 0.000000 0.003116 0.947086
O O9 0.231318 0.936580 0.919210
O O10 0.238144 0.000000 0.000000
O O11 0.199189 0.868407 0.657806
O O12 0.000000 0.858752 0.588614
O O13 0.768543 0.159269 0.750000
O O14 0.765663 0.252425 0.814044
O O15 0.000000 0.187782 0.802940
O O16 0.211872 0.157429 0.250000
O O17 0.000000 0.207206 0.302935
#
# Coordination Sequence:
#
# PCOD8257286 Si02
#       6
#    16  16  16  16  16  16
#     4  11  21  33  51  74  99 127 163 211 253 293
#     4   9  17  30  48  72  97 125 164 203 243 291
#     4   9  17  30  48  68  95 132 169 203 245 298
#     4  10  19  32  51  74  98 129 168 205 245 296
#     4   9  16  28  48  73  98 124 159 204 250 291
#     4   9  17  29  46  71 102 130 157 195 246 298
#
# _framework density 18.016425000000002
#
# number of rings (size 3 to 8) (size 9 to 14) (size 15 to 20)
#    0.000    2.500    1.667    1.500    0.000    2.667 
#    0.000    0.833    0.000   11.500    0.000    0.000 
#    0.000    5.333    0.000    0.000    0.000    0.000 
#
# Total GULP energy -594953.767216 kJ/mol
# GULP energy per Si atom -12394.870150 kJ/mol
# Density = 1.797542 g / cm^3
# Si number density = 18.016425 Si / 1000 Ang^3
#
#
#
# Elastic Constant Matrix: (Units=GPa)
#
#
# Indices 1 2 3 4 5 6 
#
# 1 24.1976 20.5962 23.1159 0.0000 0.0000 0.0000
# 2 20.5962 147.9958 94.1851 0.0000 0.0000 0.0000
# 3 23.1159 94.1851 182.5030 0.0000 0.0000 0.0000
# 4 0.0000 0.0000 0.0000 35.3282 0.0000 0.0000
# 5 0.0000 0.0000 0.0000 0.0000 20.0599 0.0000
# 6 0.0000 0.0000 0.0000 0.0000 0.0000 19.0141
#
#
#
# Elastic Compliance Matrix: (Units=1/GPa)
#
#
# Indices 1 2 3 4 5 6 
#
# 1 0.048747 -0.004251 -0.003981 0.000000 0.000000 0.000000
# 2 -0.004251 0.010432 -0.004845 0.000000 0.000000 0.000000
# 3 -0.003981 -0.004845 0.008484 0.000000 0.000000 0.000000
# 4 0.000000 0.000000 0.000000 0.028306 0.000000 0.000000
# 5 0.000000 0.000000 0.000000 0.000000 0.049851 0.000000
# 6 0.000000 0.000000 0.000000 0.000000 0.000000 0.052593
#
#
# Mechanical properties :
#
#
# Convention : Reuss Voigt Hill
#
# Bulk Modulus (GPa) = 24.09059 70.05454 47.07256
# Shear Modulus (GPa) = 20.97292 29.33372 25.15332
#
# Velocity S-wave (km/s) = 3.41559 4.03943 3.74054
# Velocity P-wave (km/s) = 5.38103 7.79257 6.69625
#
# Compressibility (1/GPa) = 0.04150999
#
# Stress axis : x y z
#
# Youngs Moduli (GPa) = 20.51400 95.85804 117.86741
#
# Poissons Ratio (x) = 0.40746 0.46919
# Poissons Ratio (y) = 0.08720 0.57111
# Poissons Ratio (z) = 0.08166 0.46446
#
# Static dielectric constant tensor:
#      x y z
#    x 3.016540 0.000000 0.000000 
#    y 0.000000 3.387560 0.000000 
#    z 0.000000 0.000000 3.775850 
# 
# 
# High freq. dielectric constant tensor:
#      x y z
#    x 1.660310 0.000000 0.000000 
#    y 0.000000 1.678470 0.000000 
#    z 0.000000 0.000000 1.723060 
# 
# From -- ./inp_files/66963.got.cif
#   From: 2010.03.12/outbox.cif.g09.slc.cpg/sg63_34_cif.got.tgz:66963.got - 2010.04.10 19:34:48.
