data_PCOD8257767
_publ_section_title
;
Structure prediction by ZEFSAII (Michael W. Deem and Ramdas Pophale) SiO2 
 PCOD8257767
Probable space group: C M C M
;
_chemical_formula_sum "Si O2"
_cell_formula_units_Z 96
_cell_length_a 12.416740
_cell_length_b 15.141398
_cell_length_c 26.660627
_cell_angle_alpha 90.000000
_cell_angle_beta 90.000000
_cell_angle_gamma 90.000000
_cell_volume 5012.379227
_symmetry_space_group_name_H-M "C M C M"
_symmetry_group_IT_number 63
_symmetry_cell_setting 'orthorhombic'
loop_
_space_group_symop_operation_xyz
x,y,z
-x,-y,1/2+z
x,-y,-z
-x,y,1/2-z
-x,-y,-z
x,y,1/2-z
-x,y,z
x,-y,1/2+z
1/2+x,1/2+y,z
1/2-x,1/2-y,1/2+z
1/2+x,1/2-y,-z
1/2-x,1/2+y,1/2-z
1/2-x,1/2-y,-z
1/2+x,1/2+y,1/2-z
1/2-x,1/2+y,z
1/2+x,1/2-y,1/2+z
loop_
_atom_site_type_symbol
_atom_site_label
_atom_site_fract_x
_atom_site_fract_y
_atom_site_fract_z
Si Si1 0.875271 0.277355 0.646419
Si Si2 0.764503 0.343654 0.551899
Si Si3 0.378576 0.496552 0.939985
Si Si4 0.749602 0.389825 0.130697
Si Si5 0.376489 0.035427 0.191234
Si Si6 0.124464 0.679489 0.543417
O O1 0.852163 0.299210 0.588218
O O2 0.801388 0.192635 0.662145
O O3 0.843931 0.363262 0.679217
O O4 0.000000 0.252670 0.653874
O O5 0.706047 0.424093 0.580019
O O6 0.823377 0.378621 0.501493
O O7 0.669221 0.277747 0.536653
O O8 0.500000 0.473205 0.923967
O O9 0.343091 0.583687 0.909697
O O10 0.370340 0.500000 0.000000
O O11 0.791759 0.467287 0.166675
O O12 0.852006 0.358922 0.098301
O O13 0.367573 0.020328 0.250000
O O14 0.500000 0.018342 0.172812
O O15 0.000000 0.682327 0.534328
#
# Coordination Sequence:
#
# PCOD8257767 Si02
#       6
#    16  16  16  16  16  16
#     4  10  21  37  60  87 116 151 193 239 286 342
#     4  10  19  34  51  78 113 156 194 227 282 336
#     4  11  21  34  52  80 119 159 195 231 281 341
#     4  11  21  37  58  86 115 152 198 236 287 340
#     4  10  22  41  64  87 113 147 188 241 304 357
#     4  10  20  32  50  78 113 149 192 238 275 329
#
# _framework density 19.152581000000001
#
# number of rings (size 3 to 8) (size 9 to 14) (size 15 to 20)
#    0.000    1.667    3.333    2.000    0.000    0.667 
#    0.000    0.833    0.000    1.500    0.000    0.000 
#    0.000    0.000    0.000    0.000    0.000    0.000 
#
# Total GULP energy -594983.562933 kJ/mol
# GULP energy per Si atom -12395.490894 kJ/mol
# Density = 1.910899 g / cm^3
# Si number density = 19.152581 Si / 1000 Ang^3
#
#
#
# Elastic Constant Matrix: (Units=GPa)
#
#
# Indices 1 2 3 4 5 6 
#
# 1 105.5298 41.8923 38.7941 0.0000 0.0000 0.0000
# 2 41.8923 89.0384 43.4213 0.0000 0.0000 0.0000
# 3 38.7941 43.4213 58.8482 0.0000 0.0000 0.0000
# 4 0.0000 0.0000 0.0000 20.9412 0.0000 0.0000
# 5 0.0000 0.0000 0.0000 0.0000 19.5239 0.0000
# 6 0.0000 0.0000 0.0000 0.0000 0.0000 28.8674
#
#
#
# Elastic Compliance Matrix: (Units=1/GPa)
#
#
# Indices 1 2 3 4 5 6 
#
# 1 0.013009 -0.003028 -0.006342 0.000000 0.000000 0.000000
# 2 -0.003028 0.018249 -0.011469 0.000000 0.000000 0.000000
# 3 -0.006342 -0.011469 0.029636 0.000000 0.000000 0.000000
# 4 0.000000 0.000000 0.000000 0.047753 0.000000 0.000000
# 5 0.000000 0.000000 0.000000 0.000000 0.051219 0.000000
# 6 0.000000 0.000000 0.000000 0.000000 0.000000 0.034641
#
#
# Mechanical properties :
#
#
# Convention : Reuss Voigt Hill
#
# Bulk Modulus (GPa) = 52.03813 55.73687 53.88750
# Shear Modulus (GPa) = 20.61091 22.48706 21.54898
#
# Velocity S-wave (km/s) = 3.28402 3.43023 3.35792
# Velocity P-wave (km/s) = 6.45050 6.69726 6.57504
#
# Compressibility (1/GPa) = 0.01921668
#
# Stress axis : x y z
#
# Youngs Moduli (GPa) = 76.86747 54.79808 33.74310
#
# Poissons Ratio (x) = 0.16594 0.21399
# Poissons Ratio (y) = 0.23277 0.38699
# Poissons Ratio (z) = 0.48747 0.62846
#
# Static dielectric constant tensor:
#      x y z
#    x 3.484160 0.000000 0.000000 
#    y 0.000000 3.620940 0.000000 
#    z 0.000000 0.000000 3.251400 
# 
# 
# High freq. dielectric constant tensor:
#      x y z
#    x 1.746400 0.000000 0.000000 
#    y 0.000000 1.749320 0.000000 
#    z 0.000000 0.000000 1.717960 
# 
# From -- ./inp_files/68316.got.cif
#   From: 2010.03.12/outbox.cif.g09.slc.cpg/sg63_35_cif.got.tgz:68316.got - 2010.04.10 19:34:48.
