data_PCOD8257067
_publ_section_title
;
Structure prediction by ZEFSAII (Michael W. Deem and Ramdas Pophale) SiO2 
 PCOD8257067
Probable space group: C M C M
;
_chemical_formula_sum "Si O2"
_cell_formula_units_Z 72
_cell_length_a 16.219717
_cell_length_b 26.705849
_cell_length_c 9.230465
_cell_angle_alpha 90.000000
_cell_angle_beta 90.000000
_cell_angle_gamma 90.000000
_cell_volume 3998.280339
_symmetry_space_group_name_H-M "C M C M"
_symmetry_group_IT_number 63
_symmetry_cell_setting 'orthorhombic'
loop_
_space_group_symop_operation_xyz
x,y,z
-x,-y,1/2+z
x,-y,-z
-x,y,1/2-z
-x,-y,-z
x,y,1/2-z
-x,y,z
x,-y,1/2+z
1/2+x,1/2+y,z
1/2-x,1/2-y,1/2+z
1/2+x,1/2-y,-z
1/2-x,1/2+y,1/2-z
1/2-x,1/2-y,-z
1/2+x,1/2+y,1/2-z
1/2-x,1/2+y,z
1/2+x,1/2-y,1/2+z
loop_
_atom_site_type_symbol
_atom_site_label
_atom_site_fract_x
_atom_site_fract_y
_atom_site_fract_z
Si Si1 0.405542 0.852172 0.914015
Si Si2 0.172569 0.100077 0.581750
Si Si3 0.500000 0.447159 0.081484
Si Si4 0.184789 0.452361 0.584631
Si Si5 0.765239 0.301085 0.418659
O O1 0.386035 0.834004 0.750000
O O2 0.500000 0.843272 0.953919
O O3 0.385492 0.910680 0.928343
O O4 0.352881 0.821395 0.028530
O O5 0.191080 0.089100 0.750000
O O6 0.229417 0.064629 0.485691
O O7 0.192992 0.158417 0.546966
O O8 0.078628 0.087081 0.540344
O O9 0.500000 0.460521 0.250000
O O10 0.500000 0.500000 0.000000
O O11 0.149600 0.500000 0.500000
O O12 0.203429 0.466612 0.750000
O O13 0.770820 0.289553 0.250000
O O14 0.750000 0.250000 0.500000
#
# Coordination Sequence:
#
# PCOD8257067 Si02
#       5
#    16  16   8  16  16
#     4   9  19  36  55  76 103 136 174 215 260 311
#     4   9  19  35  53  74 102 137 177 217 258 314
#     4  10  20  34  52  76 106 138 176 216 261 312
#     4  10  19  31  50  75 104 138 174 211 255 308
#     4  10  20  36  57  79 105 137 175 218 267 319
#
# _framework density 18.007742
#
# number of rings (size 3 to 8) (size 9 to 14) (size 15 to 20)
#    0.000    2.444    0.000    2.000    0.000    5.333 
#    2.000    0.000    0.000    0.000    0.000    0.000 
#    0.000    0.000    0.000    0.000    0.000    0.000 
#
# Total GULP energy -446415.596391 kJ/mol
# GULP energy per Si atom -12400.433233 kJ/mol
# Density = 1.796676 g / cm^3
# Si number density = 18.007742 Si / 1000 Ang^3
#
#
#
# Elastic Constant Matrix: (Units=GPa)
#
#
# Indices 1 2 3 4 5 6 
#
# 1 110.6691 54.0500 48.1645 0.0000 0.0000 0.0000
# 2 54.0500 125.7400 69.5945 0.0000 0.0000 0.0000
# 3 48.1645 69.5945 101.4324 0.0000 0.0000 0.0000
# 4 0.0000 0.0000 0.0000 38.3170 0.0000 0.0000
# 5 0.0000 0.0000 0.0000 0.0000 25.6302 0.0000
# 6 0.0000 0.0000 0.0000 0.0000 0.0000 14.2378
#
#
#
# Elastic Compliance Matrix: (Units=1/GPa)
#
#
# Indices 1 2 3 4 5 6 
#
# 1 0.012174 -0.003279 -0.003531 0.000000 0.000000 0.000000
# 2 -0.003279 0.013705 -0.007846 0.000000 0.000000 0.000000
# 3 -0.003531 -0.007846 0.016919 0.000000 0.000000 0.000000
# 4 0.000000 0.000000 0.000000 0.026098 0.000000 0.000000
# 5 0.000000 0.000000 0.000000 0.000000 0.039017 0.000000
# 6 0.000000 0.000000 0.000000 0.000000 0.000000 0.070235
#
#
# Mechanical properties :
#
#
# Convention : Reuss Voigt Hill
#
# Bulk Modulus (GPa) = 74.15295 75.71774 74.93535
# Shear Modulus (GPa) = 23.58979 26.70584 25.14782
#
# Velocity S-wave (km/s) = 3.62329 3.85518 3.74103
# Velocity P-wave (km/s) = 7.66630 7.87116 7.76940
#
# Compressibility (1/GPa) = 0.01348564
#
# Stress axis : x y z
#
# Youngs Moduli (GPa) = 82.14201 72.96555 59.10452
#
# Poissons Ratio (x) = 0.23922 0.20871
# Poissons Ratio (y) = 0.26931 0.46376
# Poissons Ratio (z) = 0.29007 0.57252
#
# Static dielectric constant tensor:
#      x y z
#    x 3.309870 0.000000 0.000000 
#    y 0.000000 3.393380 0.000000 
#    z 0.000000 0.000000 3.488830 
# 
# 
# High freq. dielectric constant tensor:
#      x y z
#    x 1.690450 0.000000 0.000000 
#    y 0.000000 1.696770 0.000000 
#    z 0.000000 0.000000 1.705660 
# 
# From -- ./inp_files/4633.got.cif
#   From: 2010.03.12/outbox.cif.g09.slc.cpg/sg63_3_cif.got.tgz:4633.got - 2010.04.10 19:34:48.
