data_PCOD8257427
_publ_section_title
;
Structure prediction by ZEFSAII (Michael W. Deem and Ramdas Pophale) SiO2 
 PCOD8257427
Probable space group: C M C M
;
_chemical_formula_sum "Si O2"
_cell_formula_units_Z 104
_cell_length_a 23.278137
_cell_length_b 27.862822
_cell_length_c 8.745835
_cell_angle_alpha 90.000000
_cell_angle_beta 90.000000
_cell_angle_gamma 90.000000
_cell_volume 5672.501246
_symmetry_space_group_name_H-M "C M C M"
_symmetry_group_IT_number 63
_symmetry_cell_setting 'orthorhombic'
loop_
_space_group_symop_operation_xyz
x,y,z
-x,-y,1/2+z
x,-y,-z
-x,y,1/2-z
-x,-y,-z
x,y,1/2-z
-x,y,z
x,-y,1/2+z
1/2+x,1/2+y,z
1/2-x,1/2-y,1/2+z
1/2+x,1/2-y,-z
1/2-x,1/2+y,1/2-z
1/2-x,1/2-y,-z
1/2+x,1/2+y,1/2-z
1/2-x,1/2+y,z
1/2+x,1/2-y,1/2+z
loop_
_atom_site_type_symbol
_atom_site_label
_atom_site_fract_x
_atom_site_fract_y
_atom_site_fract_z
Si Si1 0.386729 0.613882 0.068958
Si Si2 0.710035 0.802200 0.922336
Si Si3 0.500000 0.554514 0.431501
Si Si4 0.170614 0.200884 0.928406
Si Si5 0.438786 0.948464 0.929217
Si Si6 0.786571 0.948412 0.429968
Si Si7 0.676111 0.094103 0.075625
O O1 0.384045 0.613468 0.250000
O O2 0.444760 0.586177 0.014314
O O3 0.379238 0.669493 0.013188
O O4 0.332216 0.587537 0.000362
O O5 0.732534 0.791768 0.750000
O O6 0.669584 0.757543 0.975295
O O7 0.671487 0.848874 0.929868
O O8 0.764580 0.814234 0.028320
O O9 0.500000 0.500000 0.500000
O O10 0.500000 0.548109 0.250000
O O11 0.160290 0.192426 0.750000
O O12 0.431303 0.953838 0.750000
O O13 0.500000 0.923132 0.968944
O O14 0.385242 0.919529 0.995357
O O15 0.437597 0.000000 0.000000
O O16 0.795061 0.950907 0.250000
O O17 0.723427 0.929886 0.468838
O O18 0.798443 0.000000 0.500000
O O19 0.686988 0.076351 0.250000
#
# Coordination Sequence:
#
# PCOD8257427 Si02
#       7
#    16  16   8  16  16  16  16
#     4  11  22  39  59  81 109 144 183 228 280 334
#     4   9  18  32  52  78 112 144 176 217 266 321
#     4  10  24  42  62  84 108 144 190 234 285 344
#     4  10  19  32  53  82 110 141 179 219 266 324
#     4   9  18  32  50  72  99 135 177 215 256 308
#     4  12  24  36  52  79 111 142 176 219 269 329
#     4  10  19  33  53  77 106 141 176 220 271 317
#
# _framework density 18.334064000000001
#
# number of rings (size 3 to 8) (size 9 to 14) (size 15 to 20)
#    0.000    1.846    1.538    3.231    0.000    4.923 
#    0.000    0.000    1.692    0.000    0.000    0.000 
#    0.000    0.000    0.000    0.000    0.000    0.000 
#
# Total GULP energy -644344.871134 kJ/mol
# GULP energy per Si atom -12391.247522 kJ/mol
# Density = 1.829233 g / cm^3
# Si number density = 18.334064 Si / 1000 Ang^3
#
#
#
# Elastic Constant Matrix: (Units=GPa)
#
#
# Indices 1 2 3 4 5 6 
#
# 1 92.1131 7.2134 20.0619 0.0000 0.0000 0.0000
# 2 7.2134 31.4004 13.7973 0.0000 0.0000 0.0000
# 3 20.0619 13.7973 53.0657 0.0000 0.0000 0.0000
# 4 0.0000 0.0000 0.0000 28.0525 0.0000 0.0000
# 5 0.0000 0.0000 0.0000 0.0000 10.6646 0.0000
# 6 0.0000 0.0000 0.0000 0.0000 0.0000 36.6219
#
#
#
# Elastic Compliance Matrix: (Units=1/GPa)
#
#
# Indices 1 2 3 4 5 6 
#
# 1 0.011850 -0.000851 -0.004259 0.000000 0.000000 0.000000
# 2 -0.000851 0.036015 -0.009042 0.000000 0.000000 0.000000
# 3 -0.004259 -0.009042 0.022806 0.000000 0.000000 0.000000
# 4 0.000000 0.000000 0.000000 0.035647 0.000000 0.000000
# 5 0.000000 0.000000 0.000000 0.000000 0.093768 0.000000
# 6 0.000000 0.000000 0.000000 0.000000 0.000000 0.027306
#
#
# Mechanical properties :
#
#
# Convention : Reuss Voigt Hill
#
# Bulk Modulus (GPa) = 23.60329 28.74717 26.17523
# Shear Modulus (GPa) = 18.53084 24.10155 21.31620
#
# Velocity S-wave (km/s) = 3.18265 3.62964 3.41347
# Velocity P-wave (km/s) = 5.13884 5.76883 5.46292
#
# Compressibility (1/GPa) = 0.04236698
#
# Stress axis : x y z
#
# Youngs Moduli (GPa) = 84.38508 27.76584 43.84862
#
# Poissons Ratio (x) = 0.02363 0.18675
# Poissons Ratio (y) = 0.07181 0.39650
# Poissons Ratio (z) = 0.35939 0.25107
#
# Static dielectric constant tensor:
#      x y z
#    x 3.605700 0.000000 0.000000 
#    y 0.000000 3.625790 0.000000 
#    z 0.000000 0.000000 3.408560 
# 
# 
# High freq. dielectric constant tensor:
#      x y z
#    x 1.695450 0.000000 0.000000 
#    y 0.000000 1.718520 0.000000 
#    z 0.000000 0.000000 1.711430 
# 
# From -- ./inp_files/10823.got.cif
#   From: 2010.03.12/outbox.cif.g09.slc.cpg/sg63_6_cif.got.tgz:10823.got - 2010.04.10 19:34:48.
