data_PCOD8257376
_publ_section_title
;
Structure prediction by ZEFSAII (Michael W. Deem and Ramdas Pophale) SiO2 
 PCOD8257376
Probable space group: C M C M
;
_chemical_formula_sum "Si O2"
_cell_formula_units_Z 64
_cell_length_a 20.463920
_cell_length_b 19.531211
_cell_length_c 8.656515
_cell_angle_alpha 90.000000
_cell_angle_beta 90.000000
_cell_angle_gamma 90.000000
_cell_volume 3459.880405
_symmetry_space_group_name_H-M "C M C M"
_symmetry_group_IT_number 63
_symmetry_cell_setting 'orthorhombic'
loop_
_space_group_symop_operation_xyz
x,y,z
-x,-y,1/2+z
x,-y,-z
-x,y,1/2-z
-x,-y,-z
x,y,1/2-z
-x,y,z
x,-y,1/2+z
1/2+x,1/2+y,z
1/2-x,1/2-y,1/2+z
1/2+x,1/2-y,-z
1/2-x,1/2+y,1/2-z
1/2-x,1/2-y,-z
1/2+x,1/2+y,1/2-z
1/2-x,1/2+y,z
1/2+x,1/2-y,1/2+z
loop_
_atom_site_type_symbol
_atom_site_label
_atom_site_fract_x
_atom_site_fract_y
_atom_site_fract_z
Si Si1 0.574057 0.787653 0.072855
Si Si2 0.771627 0.928331 0.567599
Si Si3 0.369319 0.068717 0.571009
Si Si4 0.310209 0.708431 0.930451
O O1 0.591366 0.769721 0.250000
O O2 0.500000 0.767052 0.032520
O O3 0.581088 0.869008 0.046067
O O4 0.621751 0.746424 0.961288
O O5 0.776684 0.930338 0.750000
O O6 0.697467 0.914350 0.517256
O O7 0.815909 0.866848 0.503772
O O8 0.797952 0.000000 0.500000
O O9 0.352617 0.056476 0.750000
O O10 0.401502 0.000000 0.500000
O O11 0.297854 0.701742 0.750000
O O12 0.250000 0.750000 0.000000
#
# Coordination Sequence:
#
# PCOD8257376 Si02
#       4
#    16  16  16  16
#     4  10  22  39  57  80 114 155 195 237 286 340
#     4  11  21  35  57  85 116 148 185 235 286 340
#     4  10  19  32  52  78 113 152 192 233 277 333
#     4  12  23  37  59  86 114 149 193 240 287 339
#
# _framework density 18.49775
#
# number of rings (size 3 to 8) (size 9 to 14) (size 15 to 20)
#    0.000    1.250    2.500    6.750    0.000    2.000 
#    0.000    0.000    0.000    0.750    0.000    0.000 
#    0.000    0.000    0.000    0.000    0.000    0.000 
#
# Total GULP energy -396917.623609 kJ/mol
# GULP energy per Si atom -12403.675738 kJ/mol
# Density = 1.845565 g / cm^3
# Si number density = 18.497750 Si / 1000 Ang^3
#
#
#
# Elastic Constant Matrix: (Units=GPa)
#
#
# Indices 1 2 3 4 5 6 
#
# 1 75.2485 43.2352 35.5334 0.0000 0.0000 0.0000
# 2 43.2352 123.7896 60.5358 0.0000 0.0000 0.0000
# 3 35.5334 60.5358 158.2062 0.0000 0.0000 0.0000
# 4 0.0000 0.0000 0.0000 35.4874 0.0000 0.0000
# 5 0.0000 0.0000 0.0000 0.0000 23.4594 0.0000
# 6 0.0000 0.0000 0.0000 0.0000 0.0000 23.5668
#
#
#
# Elastic Compliance Matrix: (Units=1/GPa)
#
#
# Indices 1 2 3 4 5 6 
#
# 1 0.017083 -0.005032 -0.001912 0.000000 0.000000 0.000000
# 2 -0.005032 0.011420 -0.003240 0.000000 0.000000 0.000000
# 3 -0.001912 -0.003240 0.007990 0.000000 0.000000 0.000000
# 4 0.000000 0.000000 0.000000 0.028179 0.000000 0.000000
# 5 0.000000 0.000000 0.000000 0.000000 0.042627 0.000000
# 6 0.000000 0.000000 0.000000 0.000000 0.000000 0.042433
#
#
# Mechanical properties :
#
#
# Convention : Reuss Voigt Hill
#
# Bulk Modulus (GPa) = 62.00766 70.65033 66.32900
# Shear Modulus (GPa) = 28.49455 31.03206 29.76330
#
# Velocity S-wave (km/s) = 3.92909 4.10031 4.01561
# Velocity P-wave (km/s) = 7.36058 7.79061 7.57865
#
# Compressibility (1/GPa) = 0.01612704
#
# Stress axis : x y z
#
# Youngs Moduli (GPa) = 58.53783 87.56721 125.16003
#
# Poissons Ratio (x) = 0.44061 0.23925
# Poissons Ratio (y) = 0.29454 0.40546
# Poissons Ratio (z) = 0.11190 0.28368
#
# Static dielectric constant tensor:
#      x y z
#    x 3.077270 0.000000 0.000000 
#    y 0.000000 3.826500 0.000000 
#    z 0.000000 0.000000 3.520670 
# 
# 
# High freq. dielectric constant tensor:
#      x y z
#    x 1.681720 0.000000 0.000000 
#    y 0.000000 1.728330 0.000000 
#    z 0.000000 0.000000 1.732910 
# 
# From -- ./inp_files/5732.got.cif
#   From: 2010.03.12/outbox.cif.g09.slc.cpg/sg63_3_cif.got.tgz:5732.got - 2010.04.10 19:34:48.
