data_PCOD8257575
_publ_section_title
;
Structure prediction by ZEFSAII (Michael W. Deem and Ramdas Pophale) SiO2 
 PCOD8257575
Probable space group: C M C M
;
_chemical_formula_sum "Si O2"
_cell_formula_units_Z 80
_cell_length_a 23.067471
_cell_length_b 11.152131
_cell_length_c 17.554649
_cell_angle_alpha 90.000000
_cell_angle_beta 90.000000
_cell_angle_gamma 90.000000
_cell_volume 4515.959057
_symmetry_space_group_name_H-M "C M C M"
_symmetry_group_IT_number 63
_symmetry_cell_setting 'orthorhombic'
loop_
_space_group_symop_operation_xyz
x,y,z
-x,-y,1/2+z
x,-y,-z
-x,y,1/2-z
-x,-y,-z
x,y,1/2-z
-x,y,z
x,-y,1/2+z
1/2+x,1/2+y,z
1/2-x,1/2-y,1/2+z
1/2+x,1/2-y,-z
1/2-x,1/2+y,1/2-z
1/2-x,1/2-y,-z
1/2+x,1/2+y,1/2-z
1/2-x,1/2+y,z
1/2+x,1/2-y,1/2+z
loop_
_atom_site_type_symbol
_atom_site_label
_atom_site_fract_x
_atom_site_fract_y
_atom_site_fract_z
Si Si1 0.754535 0.402753 0.059137
Si Si2 0.159834 0.284566 0.555676
Si Si3 0.654019 0.002586 0.661361
Si Si4 0.932965 0.132644 0.479332
Si Si5 0.566661 0.784066 0.336413
O O1 0.705306 0.312709 0.088284
O O2 0.781225 0.459825 0.135404
O O3 0.727321 0.500000 0.000000
O O4 0.809254 0.341969 0.017466
O O5 0.139748 0.379600 0.618367
O O6 0.099960 0.224550 0.532983
O O7 0.654974 0.975068 0.750000
O O8 0.606345 0.103039 0.640581
O O9 0.921071 0.169458 0.391024
O O10 0.000000 0.143993 0.500298
O O11 0.910288 0.000000 0.500000
O O12 0.580433 0.742473 0.250000
O O13 0.500000 0.825957 0.344668
#
# Coordination Sequence:
#
# PCOD8257575 Si02
#       5
#    16  16  16  16  16
#     4   9  18  33  53  73  99 139 174 212 258 317
#     4  10  19  33  53  77 105 134 173 219 266 305
#     4  10  20  34  53  79 107 136 174 216 262 318
#     4  10  20  34  55  80 105 138 183 222 257 315
#     4   9  18  34  55  78 106 139 173 215 264 311
#
# _framework density 17.714953000000001
#
# number of rings (size 3 to 8) (size 9 to 14) (size 15 to 20)
#    0.000    2.400    2.000    0.600    0.000    1.600 
#    0.000    3.000    0.000    1.200    0.000    0.000 
#    0.000    0.000    0.000    0.000    0.000    0.000 
#
# Total GULP energy -495842.162932 kJ/mol
# GULP energy per Si atom -12396.054073 kJ/mol
# Density = 1.767463 g / cm^3
# Si number density = 17.714953 Si / 1000 Ang^3
#
#
#
# Elastic Constant Matrix: (Units=GPa)
#
#
# Indices 1 2 3 4 5 6 
#
# 1 51.6938 42.9307 46.6349 0.0000 0.0000 0.0000
# 2 42.9307 126.9726 66.5360 0.0000 0.0000 0.0000
# 3 46.6349 66.5360 97.2907 0.0000 0.0000 0.0000
# 4 0.0000 0.0000 0.0000 28.2187 0.0000 0.0000
# 5 0.0000 0.0000 0.0000 0.0000 16.9253 0.0000
# 6 0.0000 0.0000 0.0000 0.0000 0.0000 33.1850
#
#
#
# Elastic Compliance Matrix: (Units=1/GPa)
#
#
# Indices 1 2 3 4 5 6 
#
# 1 0.035914 -0.004866 -0.013887 0.000000 0.000000 0.000000
# 2 -0.004866 0.012934 -0.006513 0.000000 0.000000 0.000000
# 3 -0.013887 -0.006513 0.021389 0.000000 0.000000 0.000000
# 4 0.000000 0.000000 0.000000 0.035437 0.000000 0.000000
# 5 0.000000 0.000000 0.000000 0.000000 0.059083 0.000000
# 6 0.000000 0.000000 0.000000 0.000000 0.000000 0.030134
#
#
# Mechanical properties :
#
#
# Convention : Reuss Voigt Hill
#
# Bulk Modulus (GPa) = 50.74828 65.35115 58.04971
# Shear Modulus (GPa) = 19.84200 23.65618 21.74909
#
# Velocity S-wave (km/s) = 3.35038 3.65825 3.50769
# Velocity P-wave (km/s) = 6.60878 7.40366 7.01749
#
# Compressibility (1/GPa) = 0.01970510
#
# Stress axis : x y z
#
# Youngs Moduli (GPa) = 27.84468 77.31706 46.75261
#
# Poissons Ratio (x) = 0.37620 0.64926
# Poissons Ratio (y) = 0.13548 0.30450
# Poissons Ratio (z) = 0.38668 0.50356
#
# Static dielectric constant tensor:
#      x y z
#    x 3.220020 0.000000 0.000000 
#    y 0.000000 3.454250 0.000000 
#    z 0.000000 0.000000 3.179080 
# 
# 
# High freq. dielectric constant tensor:
#      x y z
#    x 1.686320 0.000000 0.000000 
#    y 0.000000 1.686120 0.000000 
#    z 0.000000 0.000000 1.670680 
# 
# From -- ./inp_files/36455.got.cif
#   From: 2010.03.12/outbox.cif.g09.slc.cpg/sg63_19_cif.got.tgz:36455.got - 2010.04.10 19:34:48.
