data_PCOD8257077
_publ_section_title
;
Structure prediction by ZEFSAII (Michael W. Deem and Ramdas Pophale) SiO2 
 PCOD8257077
Probable space group: C M C M
;
_chemical_formula_sum "Si O2"
_cell_formula_units_Z 96
_cell_length_a 8.941280
_cell_length_b 21.944276
_cell_length_c 27.257925
_cell_angle_alpha 90.000000
_cell_angle_beta 90.000000
_cell_angle_gamma 90.000000
_cell_volume 5348.275178
_symmetry_space_group_name_H-M "C M C M"
_symmetry_group_IT_number 63
_symmetry_cell_setting 'orthorhombic'
loop_
_space_group_symop_operation_xyz
x,y,z
-x,-y,1/2+z
x,-y,-z
-x,y,1/2-z
-x,-y,-z
x,y,1/2-z
-x,y,z
x,-y,1/2+z
1/2+x,1/2+y,z
1/2-x,1/2-y,1/2+z
1/2+x,1/2-y,-z
1/2-x,1/2+y,1/2-z
1/2-x,1/2-y,-z
1/2+x,1/2+y,1/2-z
1/2-x,1/2+y,z
1/2+x,1/2-y,1/2+z
loop_
_atom_site_type_symbol
_atom_site_label
_atom_site_fract_x
_atom_site_fract_y
_atom_site_fract_z
Si Si1 0.333910 0.661523 0.750000
Si Si2 0.170627 0.983172 0.250000
Si Si3 0.327705 0.836111 0.155319
Si Si4 0.328662 0.154882 0.478810
Si Si5 0.176546 0.522119 0.648364
Si Si6 0.177842 0.034180 0.449069
Si Si7 0.169461 0.786465 0.433546
O O1 0.500000 0.687233 0.750000
O O2 0.328348 0.589034 0.750000
O O3 0.250879 0.688323 0.703583
O O4 0.254172 0.004748 0.199563
O O5 0.000000 0.008269 0.250000
O O6 0.500000 0.824633 0.161858
O O7 0.291011 0.906292 0.144775
O O8 0.266018 0.791483 0.114589
O O9 0.500000 0.136556 0.490250
O O10 0.245852 0.101751 0.449596
O O11 0.240466 0.165994 0.528711
O O12 0.321313 0.216369 0.447906
O O13 0.253750 0.496165 0.599542
O O14 0.000000 0.507306 0.648196
O O15 0.000000 0.036688 0.443499
O O16 0.223224 0.000000 0.500000
O O17 0.000000 0.807736 0.424991
#
# Coordination Sequence:
#
# PCOD8257077 Si02
#       7
#     8   8  16  16  16  16  16
#     4   9  17  29  47  72 103 134 165 207 252 294
#     4   9  17  31  51  74 101 134 173 213 254 300
#     4  10  19  31  50  76 104 134 168 206 250 298
#     4  10  21  36  53  74 100 132 169 207 250 299
#     4  10  20  33  51  76 106 138 172 211 255 304
#     4  11  23  36  52  76 106 138 172 212 257 306
#     4  10  20  34  53  75 100 131 167 206 248 298
#
# _framework density 17.949712000000002
#
# number of rings (size 3 to 8) (size 9 to 14) (size 15 to 20)
#    0.000    2.000    0.000    4.000    0.000   10.000 
#    0.000    0.000    0.000    1.000    0.000    1.167 
#    0.000    0.000    0.000    0.000    0.000    0.000 
#
# Total GULP energy -595082.430471 kJ/mol
# GULP energy per Si atom -12397.550635 kJ/mol
# Density = 1.790886 g / cm^3
# Si number density = 17.949712 Si / 1000 Ang^3
#
#
#
# Elastic Constant Matrix: (Units=GPa)
#
#
# Indices 1 2 3 4 5 6 
#
# 1 142.5657 33.2544 101.6950 0.0000 0.0000 0.0000
# 2 33.2544 19.2354 22.7709 0.0000 0.0000 0.0000
# 3 101.6950 22.7709 191.2755 0.0000 0.0000 0.0000
# 4 0.0000 0.0000 0.0000 19.8487 0.0000 0.0000
# 5 0.0000 0.0000 0.0000 0.0000 36.7716 0.0000
# 6 0.0000 0.0000 0.0000 0.0000 0.0000 26.4709
#
#
#
# Elastic Compliance Matrix: (Units=1/GPa)
#
#
# Indices 1 2 3 4 5 6 
#
# 1 0.016278 -0.020832 -0.006174 0.000000 0.000000 0.000000
# 2 -0.020832 0.087177 0.000698 0.000000 0.000000 0.000000
# 3 -0.006174 0.000698 0.008428 0.000000 0.000000 0.000000
# 4 0.000000 0.000000 0.000000 0.050381 0.000000 0.000000
# 5 0.000000 0.000000 0.000000 0.000000 0.027195 0.000000
# 6 0.000000 0.000000 0.000000 0.000000 0.000000 0.037777
#
#
# Mechanical properties :
#
#
# Convention : Reuss Voigt Hill
#
# Bulk Modulus (GPa) = 16.87356 74.27971 45.57663
# Shear Modulus (GPa) = 16.68846 29.64199 23.16522
#
# Velocity S-wave (km/s) = 3.05246 4.06814 3.59634
# Velocity P-wave (km/s) = 4.67378 7.97109 6.53386
#
# Compressibility (1/GPa) = 0.05926432
#
# Stress axis : x y z
#
# Youngs Moduli (GPa) = 61.43304 11.47097 118.65571
#
# Poissons Ratio (x) = 0.23897 0.73263
# Poissons Ratio (y) = 1.27978 -0.08278
# Poissons Ratio (z) = 0.37931 -0.00800
#
# Static dielectric constant tensor:
#      x y z
#    x 3.595530 0.000000 0.000000 
#    y 0.000000 3.003690 0.000000 
#    z 0.000000 0.000000 3.470200 
# 
# 
# High freq. dielectric constant tensor:
#      x y z
#    x 1.718360 0.000000 0.000000 
#    y 0.000000 1.658730 0.000000 
#    z 0.000000 0.000000 1.706050 
# 
# From -- ./inp_files/67270.got.cif
#   From: 2010.03.12/outbox.cif.g09.slc.cpg/sg63_34_cif.got.tgz:67270.got - 2010.04.10 19:34:48.
