data_PCOD8257384
_publ_section_title
;
Structure prediction by ZEFSAII (Michael W. Deem and Ramdas Pophale) SiO2 
 PCOD8257384
Probable space group: C M C M
;
_chemical_formula_sum "Si O2"
_cell_formula_units_Z 96
_cell_length_a 9.352512
_cell_length_b 29.511437
_cell_length_c 18.629597
_cell_angle_alpha 90.000000
_cell_angle_beta 90.000000
_cell_angle_gamma 90.000000
_cell_volume 5141.881829
_symmetry_space_group_name_H-M "C M C M"
_symmetry_group_IT_number 63
_symmetry_cell_setting 'orthorhombic'
loop_
_space_group_symop_operation_xyz
x,y,z
-x,-y,1/2+z
x,-y,-z
-x,y,1/2-z
-x,-y,-z
x,y,1/2-z
-x,y,z
x,-y,1/2+z
1/2+x,1/2+y,z
1/2-x,1/2-y,1/2+z
1/2+x,1/2-y,-z
1/2-x,1/2+y,1/2-z
1/2-x,1/2-y,-z
1/2+x,1/2+y,1/2-z
1/2-x,1/2+y,z
1/2+x,1/2-y,1/2+z
loop_
_atom_site_type_symbol
_atom_site_label
_atom_site_fract_x
_atom_site_fract_y
_atom_site_fract_z
Si Si1 0.668527 0.685384 0.580371
Si Si2 0.830458 0.157840 0.422751
Si Si3 0.663472 0.970505 0.397005
Si Si4 0.167337 0.272224 0.666367
Si Si5 0.334851 0.932669 0.553250
Si Si6 0.661760 0.397743 0.331106
O O1 0.500000 0.684302 0.592340
O O2 0.710364 0.683920 0.496630
O O3 0.727745 0.730443 0.618855
O O4 0.733926 0.641007 0.619234
O O5 0.756666 0.183816 0.356977
O O6 0.770501 0.107079 0.423296
O O7 0.000000 0.155916 0.411384
O O8 0.500000 0.961930 0.377789
O O9 0.701188 0.948192 0.473154
O O10 0.756958 0.945413 0.337352
O O11 0.695751 0.024138 0.395728
O O12 0.195420 0.262167 0.750000
O O13 0.000000 0.281111 0.651726
O O14 0.500000 0.917090 0.559976
O O15 0.669324 0.380088 0.250000
O O16 0.500000 0.406656 0.355714
#
# Coordination Sequence:
#
# PCOD8257384 Si02
#       6
#    16  16  16  16  16  16
#     4   9  18  34  55  81 108 140 181 219 265 324
#     4  11  21  34  56  85 112 138 175 229 277 316
#     4   9  18  33  53  77 106 139 178 223 264 311
#     4  10  21  38  58  77 104 146 187 220 263 324
#     4   9  18  34  55  78 105 140 180 219 263 317
#     4  10  19  32  52  79 113 147 179 219 269 328
#
# _framework density 18.670207999999999
#
# number of rings (size 3 to 8) (size 9 to 14) (size 15 to 20)
#    0.000    2.333    1.667    2.500    0.000    3.333 
#    0.000    4.167    0.000    3.000    0.000    0.000 
#    0.000    0.000    0.000    0.000    0.000    0.000 
#
# Total GULP energy -595182.059183 kJ/mol
# GULP energy per Si atom -12399.626233 kJ/mol
# Density = 1.862771 g / cm^3
# Si number density = 18.670208 Si / 1000 Ang^3
#
#
#
# Elastic Constant Matrix: (Units=GPa)
#
#
# Indices 1 2 3 4 5 6 
#
# 1 65.1368 50.8866 29.2858 0.0000 0.0000 0.0000
# 2 50.8866 115.5510 33.2293 0.0000 0.0000 0.0000
# 3 29.2858 33.2293 57.0721 0.0000 0.0000 0.0000
# 4 0.0000 0.0000 0.0000 25.9327 0.0000 0.0000
# 5 0.0000 0.0000 0.0000 0.0000 24.7873 0.0000
# 6 0.0000 0.0000 0.0000 0.0000 0.0000 29.7582
#
#
#
# Elastic Compliance Matrix: (Units=1/GPa)
#
#
# Indices 1 2 3 4 5 6 
#
# 1 0.026172 -0.009205 -0.008070 0.000000 0.000000 0.000000
# 2 -0.009205 0.013632 -0.003214 0.000000 0.000000 0.000000
# 3 -0.008070 -0.003214 0.023534 0.000000 0.000000 0.000000
# 4 0.000000 0.000000 0.000000 0.038561 0.000000 0.000000
# 5 0.000000 0.000000 0.000000 0.000000 0.040343 0.000000
# 6 0.000000 0.000000 0.000000 0.000000 0.000000 0.033604
#
#
# Mechanical properties :
#
#
# Convention : Reuss Voigt Hill
#
# Bulk Modulus (GPa) = 44.72248 51.61815 48.17032
# Shear Modulus (GPa) = 22.29380 24.38618 23.33999
#
# Velocity S-wave (km/s) = 3.45930 3.61800 3.53954
# Velocity P-wave (km/s) = 6.32152 6.72016 6.52389
#
# Compressibility (1/GPa) = 0.02236012
#
# Stress axis : x y z
#
# Youngs Moduli (GPa) = 38.20912 73.35687 42.49166
#
# Poissons Ratio (x) = 0.67523 0.34292
# Poissons Ratio (y) = 0.35171 0.13656
# Poissons Ratio (z) = 0.30836 0.23575
#
# Static dielectric constant tensor:
#      x y z
#    x 3.196360 0.000000 0.000000 
#    y 0.000000 3.529810 0.000000 
#    z 0.000000 0.000000 3.257210 
# 
# 
# High freq. dielectric constant tensor:
#      x y z
#    x 1.704480 0.000000 0.000000 
#    y 0.000000 1.732150 0.000000 
#    z 0.000000 0.000000 1.711210 
# 
# From -- ./inp_files/51296.got.cif
#   From: 2010.03.12/outbox.cif.g09.slc.cpg/sg63_26_cif.got.tgz:51296.got - 2010.04.10 19:34:48.
