data_PCOD8257127
_publ_section_title
;
Structure prediction by ZEFSAII (Michael W. Deem and Ramdas Pophale) SiO2 
 PCOD8257127
Probable space group: C M C M
;
_chemical_formula_sum "Si O2"
_cell_formula_units_Z 104
_cell_length_a 26.234727
_cell_length_b 22.394327
_cell_length_c 9.036648
_cell_angle_alpha 90.000000
_cell_angle_beta 90.000000
_cell_angle_gamma 90.000000
_cell_volume 5309.112529
_symmetry_space_group_name_H-M "C M C M"
_symmetry_group_IT_number 63
_symmetry_cell_setting 'orthorhombic'
loop_
_space_group_symop_operation_xyz
x,y,z
-x,-y,1/2+z
x,-y,-z
-x,y,1/2-z
-x,-y,-z
x,y,1/2-z
-x,y,z
x,-y,1/2+z
1/2+x,1/2+y,z
1/2-x,1/2-y,1/2+z
1/2+x,1/2-y,-z
1/2-x,1/2+y,1/2-z
1/2-x,1/2-y,-z
1/2+x,1/2+y,1/2-z
1/2-x,1/2+y,z
1/2+x,1/2-y,1/2+z
loop_
_atom_site_type_symbol
_atom_site_label
_atom_site_fract_x
_atom_site_fract_y
_atom_site_fract_z
Si Si1 0.500000 0.063496 0.425088
Si Si2 0.872369 0.839221 0.416408
Si Si3 0.189450 0.399885 0.577001
Si Si4 0.202937 0.730896 0.410444
Si Si5 0.558407 0.253644 0.920936
Si Si6 0.196564 0.937582 0.573333
Si Si7 0.093436 0.377201 0.422821
O O1 0.500000 0.056269 0.250000
O O2 0.548542 0.100000 0.475974
O O3 0.500000 0.000000 0.500000
O O4 0.883453 0.863661 0.250000
O O5 0.838513 0.781107 0.407276
O O6 0.923433 0.813871 0.492730
O O7 0.843233 0.889158 0.512012
O O8 0.180074 0.413897 0.750000
O O9 0.182301 0.331108 0.530148
O O10 0.244850 0.423529 0.525874
O O11 0.141969 0.419293 0.474413
O O12 0.225491 0.716726 0.250000
O O13 0.250000 0.750000 0.500000
O O14 0.561953 0.270968 0.750000
O O15 0.500000 0.240177 0.967479
O O16 0.593651 0.195086 0.951279
O O17 0.191587 0.940312 0.750000
O O18 0.181134 0.000000 0.500000
O O19 0.083920 0.390100 0.250000
#
# Coordination Sequence:
#
# PCOD8257127 Si02
#       7
#     8  16  16  16  16  16  16
#     4  12  26  44  64  82 112 158 209 258 303 356
#     4  11  22  36  59  90 121 154 199 246 301 366
#     4  10  21  37  56  85 121 159 200 244 296 350
#     4  10  19  31  51  82 117 150 189 234 286 344
#     4  10  21  38  60  89 125 159 196 245 305 365
#     4  11  24  42  62  84 119 162 206 250 298 359
#     4  11  22  38  61  90 123 159 203 252 304 356
#
# _framework density 19.588961000000001
#
# number of rings (size 3 to 8) (size 9 to 14) (size 15 to 20)
#    0.000    1.385    3.846    2.077    0.000    4.000 
#    0.000    1.538    0.000    0.462    0.000    0.000 
#    0.000    0.000    0.000    0.000    0.000    0.000 
#
# Total GULP energy -644180.117729 kJ/mol
# GULP energy per Si atom -12388.079187 kJ/mol
# Density = 1.954438 g / cm^3
# Si number density = 19.588961 Si / 1000 Ang^3
#
#
#
# Elastic Constant Matrix: (Units=GPa)
#
#
# Indices 1 2 3 4 5 6 
#
# 1 72.6494 15.7598 40.7489 0.0000 0.0000 0.0000
# 2 15.7598 79.4762 40.9507 0.0000 0.0000 0.0000
# 3 40.7489 40.9507 102.3384 0.0000 0.0000 0.0000
# 4 0.0000 0.0000 0.0000 32.9156 0.0000 0.0000
# 5 0.0000 0.0000 0.0000 0.0000 33.3863 0.0000
# 6 0.0000 0.0000 0.0000 0.0000 0.0000 1.3130
#
#
#
# Elastic Compliance Matrix: (Units=1/GPa)
#
#
# Indices 1 2 3 4 5 6 
#
# 1 0.017724 0.000153 -0.007119 0.000000 0.000000 0.000000
# 2 0.000153 0.015852 -0.006404 0.000000 0.000000 0.000000
# 3 -0.007119 -0.006404 0.015169 0.000000 0.000000 0.000000
# 4 0.000000 0.000000 0.000000 0.030381 0.000000 0.000000
# 5 0.000000 0.000000 0.000000 0.000000 0.029952 0.000000
# 6 0.000000 0.000000 0.000000 0.000000 0.000000 0.761590
#
#
# Mechanical properties :
#
#
# Convention : Reuss Voigt Hill
#
# Bulk Modulus (GPa) = 45.44295 49.93141 47.68718
# Shear Modulus (GPa) = 5.52643 23.98996 14.75820
#
# Velocity S-wave (km/s) = 1.68146 3.50332 2.74778
# Velocity P-wave (km/s) = 5.19792 6.47374 5.87059
#
# Compressibility (1/GPa) = 0.02200561
#
# Stress axis : x y z
#
# Youngs Moduli (GPa) = 56.41930 63.08453 65.92524
#
# Poissons Ratio (x) = -0.00967 0.46931
# Poissons Ratio (y) = -0.00865 0.42219
# Poissons Ratio (z) = 0.40164 0.40400
#
# Static dielectric constant tensor:
#      x y z
#    x 3.587270 0.000000 0.000000 
#    y 0.000000 3.570980 0.000000 
#    z 0.000000 0.000000 3.784840 
# 
# 
# High freq. dielectric constant tensor:
#      x y z
#    x 1.758950 0.000000 0.000000 
#    y 0.000000 1.750500 0.000000 
#    z 0.000000 0.000000 1.771160 
# 
# From -- ./inp_files/12551.got.cif
#   From: 2010.03.12/outbox.cif.g09.slc.cpg/sg63_7_cif.got.tgz:12551.got - 2010.04.10 19:34:48.
