data_PCOD8257246
_publ_section_title
;
Structure prediction by ZEFSAII (Michael W. Deem and Ramdas Pophale) SiO2 
 PCOD8257246
Probable space group: C M C M
;
_chemical_formula_sum "Si O2"
_cell_formula_units_Z 96
_cell_length_a 8.803239
_cell_length_b 30.467430
_cell_length_c 20.741302
_cell_angle_alpha 90.000000
_cell_angle_beta 90.000000
_cell_angle_gamma 90.000000
_cell_volume 5563.067503
_symmetry_space_group_name_H-M "C M C M"
_symmetry_group_IT_number 63
_symmetry_cell_setting 'orthorhombic'
loop_
_space_group_symop_operation_xyz
x,y,z
-x,-y,1/2+z
x,-y,-z
-x,y,1/2-z
-x,-y,-z
x,y,1/2-z
-x,y,z
x,-y,1/2+z
1/2+x,1/2+y,z
1/2-x,1/2-y,1/2+z
1/2+x,1/2-y,-z
1/2-x,1/2+y,1/2-z
1/2-x,1/2-y,-z
1/2+x,1/2+y,1/2-z
1/2-x,1/2+y,z
1/2+x,1/2-y,1/2+z
loop_
_atom_site_type_symbol
_atom_site_label
_atom_site_fract_x
_atom_site_fract_y
_atom_site_fract_z
Si Si1 0.321276 0.939068 0.680559
Si Si2 0.828300 0.868353 0.994128
Si Si3 0.180628 0.714878 0.549030
Si Si4 0.328657 0.649705 0.346955
Si Si5 0.819382 0.457953 0.959980
Si Si6 0.320230 0.745339 0.319655
O O1 0.262615 0.959208 0.750000
O O2 0.500000 0.943150 0.678945
O O3 0.277977 0.888159 0.680073
O O4 0.258346 0.962022 0.614746
O O5 0.827069 0.847931 0.923635
O O6 0.749722 0.915828 0.995381
O O7 0.000000 0.873203 0.020080
O O8 0.735498 0.834713 0.038302
O O9 0.250000 0.750000 0.500000
O O10 0.241505 0.726036 0.621026
O O11 0.000000 0.717232 0.542874
O O12 0.500000 0.641442 0.321784
O O13 0.259262 0.695467 0.322425
O O14 0.000000 0.453415 0.961003
O O15 0.763433 0.500000 0.000000
O O16 0.271752 0.765726 0.250000
O O17 0.500000 0.742773 0.326167
#
# Coordination Sequence:
#
# PCOD8257246 Si02
#       6
#    16  16  16  16  16  16
#     4   9  17  28  43  67  97 123 149 189 240 290
#     4  10  19  32  50  74  98 126 165 203 243 288
#     4  11  20  32  50  72  99 131 168 205 242 285
#     4   9  16  28  45  66  93 125 159 191 231 288
#     4   9  18  33  52  73  97 126 159 196 244 296
#     4   9  17  29  45  66  94 128 166 205 241 281
#
# _framework density 17.256665000000002
#
# number of rings (size 3 to 8) (size 9 to 14) (size 15 to 20)
#    0.000    2.500    1.667    1.500    0.000    2.000 
#    0.000    0.000    0.000    4.000    0.000    4.667 
#    0.000    0.000    0.000    0.000    0.000    0.000 
#
# Total GULP energy -594761.535392 kJ/mol
# GULP energy per Si atom -12390.865321 kJ/mol
# Density = 1.721739 g / cm^3
# Si number density = 17.256665 Si / 1000 Ang^3
#
#
#
# Elastic Constant Matrix: (Units=GPa)
#
#
# Indices 1 2 3 4 5 6 
#
# 1 33.0726 23.8992 26.9816 0.0000 0.0000 0.0000
# 2 23.8992 103.7643 76.6979 0.0000 0.0000 0.0000
# 3 26.9816 76.6979 146.6901 0.0000 0.0000 0.0000
# 4 0.0000 0.0000 0.0000 18.6206 0.0000 0.0000
# 5 0.0000 0.0000 0.0000 0.0000 12.5527 0.0000
# 6 0.0000 0.0000 0.0000 0.0000 0.0000 23.3309
#
#
#
# Elastic Compliance Matrix: (Units=1/GPa)
#
#
# Indices 1 2 3 4 5 6 
#
# 1 0.037589 -0.005781 -0.003891 0.000000 0.000000 0.000000
# 2 -0.005781 0.016597 -0.007615 0.000000 0.000000 0.000000
# 3 -0.003891 -0.007615 0.011514 0.000000 0.000000 0.000000
# 4 0.000000 0.000000 0.000000 0.053704 0.000000 0.000000
# 5 0.000000 0.000000 0.000000 0.000000 0.079664 0.000000
# 6 0.000000 0.000000 0.000000 0.000000 0.000000 0.042862
#
#
# Mechanical properties :
#
#
# Convention : Reuss Voigt Hill
#
# Bulk Modulus (GPa) = 32.12751 59.85381 45.99066
# Shear Modulus (GPa) = 17.42896 21.29739 19.36318
#
# Velocity S-wave (km/s) = 3.18147 3.51686 3.35336
# Velocity P-wave (km/s) = 5.67041 7.15897 6.45773
#
# Compressibility (1/GPa) = 0.03112598
#
# Stress axis : x y z
#
# Youngs Moduli (GPa) = 26.60375 60.25145 86.85006
#
# Poissons Ratio (x) = 0.34834 0.33794
# Poissons Ratio (y) = 0.15381 0.66132
# Poissons Ratio (z) = 0.10352 0.45879
#
# Static dielectric constant tensor:
#      x y z
#    x 3.086580 0.000000 0.000000 
#    y 0.000000 3.037210 0.000000 
#    z 0.000000 0.000000 3.801610 
# 
# 
# High freq. dielectric constant tensor:
#      x y z
#    x 1.649980 0.000000 0.000000 
#    y 0.000000 1.636100 0.000000 
#    z 0.000000 0.000000 1.674180 
# 
# From -- ./inp_files/60245.got.cif
#   From: 2010.03.12/outbox.cif.g09.slc.cpg/sg63_31_cif.got.tgz:60245.got - 2010.04.10 19:34:48.
