data_PCOD8257410
_publ_section_title
;
Structure prediction by ZEFSAII (Michael W. Deem and Ramdas Pophale) SiO2 
 PCOD8257410
Probable space group: C M C M
;
_chemical_formula_sum "Si O2"
_cell_formula_units_Z 96
_cell_length_a 24.284146
_cell_length_b 23.955774
_cell_length_c 8.566790
_cell_angle_alpha 90.000000
_cell_angle_beta 90.000000
_cell_angle_gamma 90.000000
_cell_volume 4983.691646
_symmetry_space_group_name_H-M "C M C M"
_symmetry_group_IT_number 63
_symmetry_cell_setting 'orthorhombic'
loop_
_space_group_symop_operation_xyz
x,y,z
-x,-y,1/2+z
x,-y,-z
-x,y,1/2-z
-x,-y,-z
x,y,1/2-z
-x,y,z
x,-y,1/2+z
1/2+x,1/2+y,z
1/2-x,1/2-y,1/2+z
1/2+x,1/2-y,-z
1/2-x,1/2+y,1/2-z
1/2-x,1/2-y,-z
1/2+x,1/2+y,1/2-z
1/2-x,1/2+y,z
1/2+x,1/2-y,1/2+z
loop_
_atom_site_type_symbol
_atom_site_label
_atom_site_fract_x
_atom_site_fract_y
_atom_site_fract_z
Si Si1 0.655560 0.268392 0.567147
Si Si2 0.635980 0.440321 0.432073
Si Si3 0.769842 0.867608 0.934044
Si Si4 0.062372 0.440018 0.065093
Si Si5 0.562629 0.351484 0.569135
Si Si6 0.154876 0.644359 0.934576
O O1 0.664144 0.262034 0.750000
O O2 0.704989 0.308274 0.503725
O O3 0.597074 0.296257 0.527650
O O4 0.654566 0.206814 0.490439
O O5 0.621134 0.500000 0.500000
O O6 0.649529 0.443074 0.250000
O O7 0.688337 0.416754 0.524574
O O8 0.582510 0.402353 0.462276
O O9 0.760711 0.866000 0.750000
O O10 0.712871 0.882657 0.018289
O O11 0.065822 0.442969 0.250000
O O12 0.104343 0.392912 0.999092
O O13 0.000000 0.425241 0.010635
O O14 0.080674 0.500000 0.000000
O O15 0.571425 0.368064 0.750000
O O16 0.500000 0.337480 0.529694
O O17 0.149162 0.647209 0.750000
#
# Coordination Sequence:
#
# PCOD8257410 Si02
#       6
#    16  16  16  16  16  16
#     4   8  16  31  51  76 106 138 171 211 257 306
#     4  11  22  37  56  77 104 138 177 220 265 311
#     4  10  20  35  53  76 107 139 172 211 261 315
#     4   9  19  35  53  73 100 133 168 209 255 302
#     4   9  18  34  55  79 108 141 176 216 264 315
#     4  10  19  32  53  80 105 134 176 217 257 309
#
# _framework density 19.262827999999999
#
# number of rings (size 3 to 8) (size 9 to 14) (size 15 to 20)
#    0.000    2.500    0.000    3.500    0.000    2.667 
#    0.000    8.333    0.000    0.000    0.000    4.667 
#    0.000    0.000    0.000    0.000    0.000    0.000 
#
# Total GULP energy -595121.004511 kJ/mol
# GULP energy per Si atom -12398.354261 kJ/mol
# Density = 1.921899 g / cm^3
# Si number density = 19.262828 Si / 1000 Ang^3
#
#
#
# Elastic Constant Matrix: (Units=GPa)
#
#
# Indices 1 2 3 4 5 6 
#
# 1 131.4167 38.8238 14.5878 0.0000 0.0000 0.0000
# 2 38.8238 70.4048 21.8384 0.0000 0.0000 0.0000
# 3 14.5878 21.8384 24.0636 0.0000 0.0000 0.0000
# 4 0.0000 0.0000 0.0000 23.1956 0.0000 0.0000
# 5 0.0000 0.0000 0.0000 0.0000 27.1457 0.0000
# 6 0.0000 0.0000 0.0000 0.0000 0.0000 15.9828
#
#
#
# Elastic Compliance Matrix: (Units=1/GPa)
#
#
# Indices 1 2 3 4 5 6 
#
# 1 0.009121 -0.004613 -0.001343 0.000000 0.000000 0.000000
# 2 -0.004613 0.022102 -0.017261 0.000000 0.000000 0.000000
# 3 -0.001343 -0.017261 0.058036 0.000000 0.000000 0.000000
# 4 0.000000 0.000000 0.000000 0.043112 0.000000 0.000000
# 5 0.000000 0.000000 0.000000 0.000000 0.036838 0.000000
# 6 0.000000 0.000000 0.000000 0.000000 0.000000 0.062567
#
#
# Mechanical properties :
#
#
# Convention : Reuss Voigt Hill
#
# Bulk Modulus (GPa) = 23.35142 41.82055 32.58599
# Shear Modulus (GPa) = 17.09487 23.30716 20.20101
#
# Velocity S-wave (km/s) = 2.98225 3.48221 3.24188
# Velocity P-wave (km/s) = 4.89972 6.15836 5.56474
#
# Compressibility (1/GPa) = 0.04282395
#
# Stress axis : x y z
#
# Youngs Moduli (GPa) = 109.63321 45.24537 17.23079
#
# Poissons Ratio (x) = 0.20873 0.02314
# Poissons Ratio (y) = 0.50577 0.29743
# Poissons Ratio (z) = 0.14721 0.78099
#
# Static dielectric constant tensor:
#      x y z
#    x 3.635020 0.000000 0.000000 
#    y 0.000000 3.752690 0.000000 
#    z 0.000000 0.000000 3.266130 
# 
# 
# High freq. dielectric constant tensor:
#      x y z
#    x 1.753870 0.000000 0.000000 
#    y 0.000000 1.749310 0.000000 
#    z 0.000000 0.000000 1.725830 
# 
# From -- ./inp_files/10499.got.cif
#   From: 2010.03.12/outbox.cif.g09.slc.cpg/sg63_6_cif.got.tgz:10499.got - 2010.04.10 19:34:48.
