data_PCOD8257342
_publ_section_title
;
Structure prediction by ZEFSAII (Michael W. Deem and Ramdas Pophale) SiO2 
 PCOD8257342
Probable space group: C M C M
;
_chemical_formula_sum "Si O2"
_cell_formula_units_Z 96
_cell_length_a 8.983340
_cell_length_b 31.050140
_cell_length_c 18.114173
_cell_angle_alpha 90.000000
_cell_angle_beta 90.000000
_cell_angle_gamma 90.000000
_cell_volume 5052.658092
_symmetry_space_group_name_H-M "C M C M"
_symmetry_group_IT_number 63
_symmetry_cell_setting 'orthorhombic'
loop_
_space_group_symop_operation_xyz
x,y,z
-x,-y,1/2+z
x,-y,-z
-x,y,1/2-z
-x,-y,-z
x,y,1/2-z
-x,y,z
x,-y,1/2+z
1/2+x,1/2+y,z
1/2-x,1/2-y,1/2+z
1/2+x,1/2-y,-z
1/2-x,1/2+y,1/2-z
1/2-x,1/2-y,-z
1/2+x,1/2+y,1/2-z
1/2-x,1/2+y,z
1/2+x,1/2-y,1/2+z
loop_
_atom_site_type_symbol
_atom_site_label
_atom_site_fract_x
_atom_site_fract_y
_atom_site_fract_z
Si Si1 0.677170 0.577698 0.166362
Si Si2 0.326433 0.000631 0.585438
Si Si3 0.174303 0.251117 0.078786
Si Si4 0.673691 0.656927 0.073289
Si Si5 0.324171 0.334490 0.406502
Si Si6 0.830024 0.587587 0.665138
O O1 0.737203 0.579637 0.250000
O O2 0.500000 0.578155 0.165331
O O3 0.732128 0.534591 0.128090
O O4 0.744949 0.618965 0.122552
O O5 0.500000 0.991061 0.598157
O O6 0.280601 0.047070 0.616434
O O7 0.282639 0.000000 0.500000
O O8 0.202638 0.203354 0.113036
O O9 0.250630 0.289980 0.124378
O O10 0.000000 0.260398 0.071048
O O11 0.250000 0.250000 0.000000
O O12 0.500000 0.648087 0.066791
O O13 0.737004 0.656035 0.989465
O O14 0.500000 0.328635 0.404771
O O15 0.276607 0.372739 0.352999
O O16 0.809337 0.574624 0.750000
O O17 0.000000 0.600697 0.647833
#
# Coordination Sequence:
#
# PCOD8257342 Si02
#       6
#    16  16  16  16  16  16
#     4  10  20  34  53  77 105 137 172 210 254 305
#     4  10  21  37  57  80 104 133 171 214 261 312
#     4   9  16  29  50  75 104 137 175 219 263 305
#     4   8  16  31  50  74 103 135 172 212 253 300
#     4  10  19  32  52  76 102 134 174 220 265 307
#     4  10  21  36  52  72 102 137 169 206 257 316
#
# _framework density 18.999901000000001
#
# number of rings (size 3 to 8) (size 9 to 14) (size 15 to 20)
#    0.000    2.500    0.000    3.500    0.000    2.333 
#    0.000    5.000    0.000    3.000    0.000    0.000 
#    0.000    0.000    0.000    0.000    0.000    0.000 
#
# Total GULP energy -595046.346389 kJ/mol
# GULP energy per Si atom -12396.798883 kJ/mol
# Density = 1.895666 g / cm^3
# Si number density = 18.999901 Si / 1000 Ang^3
#
#
#
# Elastic Constant Matrix: (Units=GPa)
#
#
# Indices 1 2 3 4 5 6 
#
# 1 57.1910 40.2371 20.2173 0.0000 0.0000 0.0000
# 2 40.2371 127.9008 38.5323 0.0000 0.0000 0.0000
# 3 20.2173 38.5323 75.4870 0.0000 0.0000 0.0000
# 4 0.0000 0.0000 0.0000 11.6949 0.0000 0.0000
# 5 0.0000 0.0000 0.0000 0.0000 20.1313 0.0000
# 6 0.0000 0.0000 0.0000 0.0000 0.0000 32.6751
#
#
#
# Elastic Compliance Matrix: (Units=1/GPa)
#
#
# Indices 1 2 3 4 5 6 
#
# 1 0.022985 -0.006353 -0.002913 0.000000 0.000000 0.000000
# 2 -0.006353 0.010996 -0.003911 0.000000 0.000000 0.000000
# 3 -0.002913 -0.003911 0.016024 0.000000 0.000000 0.000000
# 4 0.000000 0.000000 0.000000 0.085507 0.000000 0.000000
# 5 0.000000 0.000000 0.000000 0.000000 0.049674 0.000000
# 6 0.000000 0.000000 0.000000 0.000000 0.000000 0.030604
#
#
# Mechanical properties :
#
#
# Convention : Reuss Voigt Hill
#
# Bulk Modulus (GPa) = 42.28386 50.95026 46.61706
# Shear Modulus (GPa) = 19.99779 23.67308 21.83543
#
# Velocity S-wave (km/s) = 3.24778 3.53364 3.39372
# Velocity P-wave (km/s) = 6.03052 6.59721 6.32022
#
# Compressibility (1/GPa) = 0.02364969
#
# Stress axis : x y z
#
# Youngs Moduli (GPa) = 43.50669 90.94534 62.40694
#
# Poissons Ratio (x) = 0.57782 0.18178
# Poissons Ratio (y) = 0.27642 0.24408
# Poissons Ratio (z) = 0.12673 0.35570
#
# Static dielectric constant tensor:
#      x y z
#    x 3.335780 0.000000 0.000000 
#    y 0.000000 3.870720 0.000000 
#    z 0.000000 0.000000 3.131460 
# 
# 
# High freq. dielectric constant tensor:
#      x y z
#    x 1.721190 0.000000 0.000000 
#    y 0.000000 1.758800 0.000000 
#    z 0.000000 0.000000 1.717050 
# 
# From -- ./inp_files/51356.got.cif
#   From: 2010.03.12/outbox.cif.g09.slc.cpg/sg63_26_cif.got.tgz:51356.got - 2010.04.10 19:34:48.
