data_PCOD8257596
_publ_section_title
;
Structure prediction by ZEFSAII (Michael W. Deem and Ramdas Pophale) SiO2 
 PCOD8257596
Probable space group: C M C M
;
_chemical_formula_sum "Si O2"
_cell_formula_units_Z 96
_cell_length_a 23.734162
_cell_length_b 24.349480
_cell_length_c 8.711963
_cell_angle_alpha 90.000000
_cell_angle_beta 90.000000
_cell_angle_gamma 90.000000
_cell_volume 5034.769767
_symmetry_space_group_name_H-M "C M C M"
_symmetry_group_IT_number 63
_symmetry_cell_setting 'orthorhombic'
loop_
_space_group_symop_operation_xyz
x,y,z
-x,-y,1/2+z
x,-y,-z
-x,y,1/2-z
-x,-y,-z
x,y,1/2-z
-x,y,z
x,-y,1/2+z
1/2+x,1/2+y,z
1/2-x,1/2-y,1/2+z
1/2+x,1/2-y,-z
1/2-x,1/2+y,1/2-z
1/2-x,1/2-y,-z
1/2+x,1/2+y,1/2-z
1/2-x,1/2+y,z
1/2+x,1/2-y,1/2+z
loop_
_atom_site_type_symbol
_atom_site_label
_atom_site_fract_x
_atom_site_fract_y
_atom_site_fract_z
Si Si1 0.336776 0.559161 0.569063
Si Si2 0.435613 0.264490 0.427707
Si Si3 0.434904 0.378617 0.928732
Si Si4 0.232527 0.388507 0.931030
Si Si5 0.863132 0.328680 0.074405
Si Si6 0.361586 0.948146 0.424937
O O1 0.322977 0.500000 0.500000
O O2 0.329662 0.556645 0.750000
O O3 0.399903 0.576943 0.524657
O O4 0.295026 0.605080 0.498778
O O5 0.427121 0.278693 0.250000
O O6 0.500000 0.248625 0.464714
O O7 0.416799 0.317095 0.525350
O O8 0.397303 0.213230 0.471526
O O9 0.422828 0.387240 0.750000
O O10 0.500000 0.388437 0.970610
O O11 0.235566 0.380328 0.750000
O O12 0.200656 0.335715 0.008004
O O13 0.196844 0.442783 0.978536
O O14 0.860542 0.308189 0.250000
O O15 0.893854 0.389193 0.063614
O O16 0.347310 0.961794 0.250000
O O17 0.395304 0.000000 0.500000
#
# Coordination Sequence:
#
# PCOD8257596 Si02
#       6
#    16  16  16  16  16  16
#     4  12  24  39  59  85 117 151 190 232 278 336
#     4  10  20  36  60  87 113 146 190 236 283 337
#     4  10  22  41  63  86 113 147 187 233 285 337
#     4  10  19  33  53  79 112 147 185 228 276 330
#     4   9  19  33  52  81 113 148 190 233 281 335
#     4   9  17  28  46  73 105 142 182 223 269 325
#
# _framework density 19.067405999999998
#
# number of rings (size 3 to 8) (size 9 to 14) (size 15 to 20)
#    1.000    1.000    0.000    5.000    0.000    2.333 
#    0.000    0.833    0.000    0.500    0.000    0.000 
#    0.000    0.000    0.000    0.000    0.000    0.000 
#
# Total GULP energy -594870.790598 kJ/mol
# GULP energy per Si atom -12393.141471 kJ/mol
# Density = 1.902401 g / cm^3
# Si number density = 19.067406 Si / 1000 Ang^3
#
#
#
# Elastic Constant Matrix: (Units=GPa)
#
#
# Indices 1 2 3 4 5 6 
#
# 1 69.7461 32.6760 27.8268 0.0000 0.0000 0.0000
# 2 32.6760 45.7084 18.9732 0.0000 0.0000 0.0000
# 3 27.8268 18.9732 110.1018 0.0000 0.0000 0.0000
# 4 0.0000 0.0000 0.0000 35.1649 0.0000 0.0000
# 5 0.0000 0.0000 0.0000 0.0000 28.3726 0.0000
# 6 0.0000 0.0000 0.0000 0.0000 0.0000 31.3454
#
#
#
# Elastic Compliance Matrix: (Units=1/GPa)
#
#
# Indices 1 2 3 4 5 6 
#
# 1 0.022524 -0.014798 -0.003143 0.000000 0.000000 0.000000
# 2 -0.014798 0.033285 -0.001996 0.000000 0.000000 0.000000
# 3 -0.003143 -0.001996 0.010221 0.000000 0.000000 0.000000
# 4 0.000000 0.000000 0.000000 0.028437 0.000000 0.000000
# 5 0.000000 0.000000 0.000000 0.000000 0.035245 0.000000
# 6 0.000000 0.000000 0.000000 0.000000 0.000000 0.031903
#
#
# Mechanical properties :
#
#
# Convention : Reuss Voigt Hill
#
# Bulk Modulus (GPa) = 38.23018 42.72317 40.47667
# Shear Modulus (GPa) = 23.78611 28.71526 26.25068
#
# Velocity S-wave (km/s) = 3.53579 3.88491 3.71446
# Velocity P-wave (km/s) = 6.06322 6.52522 6.29846
#
# Compressibility (1/GPa) = 0.02615735
#
# Stress axis : x y z
#
# Youngs Moduli (GPa) = 44.39657 30.04372 97.84037
#
# Poissons Ratio (x) = 0.44458 0.30749
# Poissons Ratio (y) = 0.65696 0.19528
# Poissons Ratio (z) = 0.13953 0.05996
#
# Static dielectric constant tensor:
#      x y z
#    x 3.234380 0.000000 0.000000 
#    y 0.000000 3.380860 0.000000 
#    z 0.000000 0.000000 3.512980 
# 
# 
# High freq. dielectric constant tensor:
#      x y z
#    x 1.709710 0.000000 0.000000 
#    y 0.000000 1.733240 0.000000 
#    z 0.000000 0.000000 1.760810 
# 
# From -- ./inp_files/10491.got.cif
#   From: 2010.03.12/outbox.cif.g09.slc.cpg/sg63_6_cif.got.tgz:10491.got - 2010.04.10 19:34:48.
