data_PCOD8257466
_publ_section_title
;
Structure prediction by ZEFSAII (Michael W. Deem and Ramdas Pophale) SiO2 
 PCOD8257466
Probable space group: C M C M
;
_chemical_formula_sum "Si O2"
_cell_formula_units_Z 80
_cell_length_a 15.325697
_cell_length_b 28.739061
_cell_length_c 9.157554
_cell_angle_alpha 90.000000
_cell_angle_beta 90.000000
_cell_angle_gamma 90.000000
_cell_volume 4033.409320
_symmetry_space_group_name_H-M "C M C M"
_symmetry_group_IT_number 63
_symmetry_cell_setting 'orthorhombic'
loop_
_space_group_symop_operation_xyz
x,y,z
-x,-y,1/2+z
x,-y,-z
-x,y,1/2-z
-x,-y,-z
x,y,1/2-z
-x,y,z
x,-y,1/2+z
1/2+x,1/2+y,z
1/2-x,1/2-y,1/2+z
1/2+x,1/2-y,-z
1/2-x,1/2+y,1/2-z
1/2-x,1/2-y,-z
1/2+x,1/2+y,1/2-z
1/2-x,1/2+y,z
1/2+x,1/2-y,1/2+z
loop_
_atom_site_type_symbol
_atom_site_label
_atom_site_fract_x
_atom_site_fract_y
_atom_site_fract_z
Si Si1 0.900875 0.102311 0.581843
Si Si2 0.354805 0.794635 0.418874
Si Si3 0.596593 0.116104 0.416152
Si Si4 0.651401 0.295893 0.417727
Si Si5 0.251031 0.451074 0.923396
O O1 0.870228 0.096247 0.750000
O O2 0.895821 0.156452 0.536998
O O3 0.840690 0.071908 0.476976
O O4 0.000000 0.085079 0.561320
O O5 0.378006 0.793354 0.250000
O O6 0.405402 0.837272 0.489699
O O7 0.387770 0.746097 0.487356
O O8 0.253188 0.802289 0.450600
O O9 0.618786 0.129815 0.250000
O O10 0.500000 0.093278 0.428185
O O11 0.668792 0.080024 0.473732
O O12 0.633921 0.283394 0.250000
O O13 0.255205 0.457699 0.750000
O O14 0.237998 0.500000 0.000000
#
# Coordination Sequence:
#
# PCOD8257466 Si02
#       5
#    16  16  16  16  16
#     4  10  21  39  63  89 118 154 196 240 288 343
#     4  10  19  32  55  86 120 157 198 240 283 336
#     4  10  22  40  61  86 117 154 195 238 290 350
#     4   9  18  33  54  83 121 160 196 234 282 340
#     4  11  24  42  65  88 115 149 189 240 297 351
#
# _framework density 19.834337000000001
#
# number of rings (size 3 to 8) (size 9 to 14) (size 15 to 20)
#    0.000    2.000    2.000    1.200    0.000    4.800 
#    0.000    2.000    0.000    0.000    0.000    0.000 
#    0.000    0.000    0.000    0.000    0.000    0.000 
#
# Total GULP energy -496122.926112 kJ/mol
# GULP energy per Si atom -12403.073153 kJ/mol
# Density = 1.978919 g / cm^3
# Si number density = 19.834337 Si / 1000 Ang^3
#
#
#
# Elastic Constant Matrix: (Units=GPa)
#
#
# Indices 1 2 3 4 5 6 
#
# 1 88.7205 48.4309 36.8278 0.0000 0.0000 0.0000
# 2 48.4309 122.9721 56.0443 0.0000 0.0000 0.0000
# 3 36.8278 56.0443 83.7968 0.0000 0.0000 0.0000
# 4 0.0000 0.0000 0.0000 25.6687 0.0000 0.0000
# 5 0.0000 0.0000 0.0000 0.0000 24.4295 0.0000
# 6 0.0000 0.0000 0.0000 0.0000 0.0000 2.6864
#
#
#
# Elastic Compliance Matrix: (Units=1/GPa)
#
#
# Indices 1 2 3 4 5 6 
#
# 1 0.015172 -0.004224 -0.003843 0.000000 0.000000 0.000000
# 2 -0.004224 0.012873 -0.006753 0.000000 0.000000 0.000000
# 3 -0.003843 -0.006753 0.018139 0.000000 0.000000 0.000000
# 4 0.000000 0.000000 0.000000 0.038958 0.000000 0.000000
# 5 0.000000 0.000000 0.000000 0.000000 0.040934 0.000000
# 6 0.000000 0.000000 0.000000 0.000000 0.000000 0.372244
#
#
# Mechanical properties :
#
#
# Convention : Reuss Voigt Hill
#
# Bulk Modulus (GPa) = 60.44429 64.23283 62.33856
# Shear Modulus (GPa) = 9.37248 20.83603 15.10425
#
# Velocity S-wave (km/s) = 2.17615 3.24466 2.76256
# Velocity P-wave (km/s) = 6.07082 6.81851 6.45550
#
# Compressibility (1/GPa) = 0.01654416
#
# Stress axis : x y z
#
# Youngs Moduli (GPa) = 65.90919 77.67981 55.12858
#
# Poissons Ratio (x) = 0.32812 0.21186
# Poissons Ratio (y) = 0.27840 0.37231
# Poissons Ratio (z) = 0.25329 0.52461
#
# Static dielectric constant tensor:
#      x y z
#    x 3.619500 0.000000 0.000000 
#    y 0.000000 3.574090 0.000000 
#    z 0.000000 0.000000 3.581180 
# 
# 
# High freq. dielectric constant tensor:
#      x y z
#    x 1.775900 0.000000 0.000000 
#    y 0.000000 1.769120 0.000000 
#    z 0.000000 0.000000 1.771160 
# 
# From -- ./inp_files/6665.got.cif
#   From: 2010.03.12/outbox.cif.g09.slc.cpg/sg63_4_cif.got.tgz:6665.got - 2010.04.10 19:34:48.
