data_PCOD8257152
_publ_section_title
;
Structure prediction by ZEFSAII (Michael W. Deem and Ramdas Pophale) SiO2 
 PCOD8257152
Probable space group: C M C M
;
_chemical_formula_sum "Si O2"
_cell_formula_units_Z 96
_cell_length_a 19.326294
_cell_length_b 28.257617
_cell_length_c 9.399143
_cell_angle_alpha 90.000000
_cell_angle_beta 90.000000
_cell_angle_gamma 90.000000
_cell_volume 5133.013110
_symmetry_space_group_name_H-M "C M C M"
_symmetry_group_IT_number 63
_symmetry_cell_setting 'orthorhombic'
loop_
_space_group_symop_operation_xyz
x,y,z
-x,-y,1/2+z
x,-y,-z
-x,y,1/2-z
-x,-y,-z
x,y,1/2-z
-x,y,z
x,-y,1/2+z
1/2+x,1/2+y,z
1/2-x,1/2-y,1/2+z
1/2+x,1/2-y,-z
1/2-x,1/2+y,1/2-z
1/2-x,1/2-y,-z
1/2+x,1/2+y,1/2-z
1/2-x,1/2+y,z
1/2+x,1/2-y,1/2+z
loop_
_atom_site_type_symbol
_atom_site_label
_atom_site_fract_x
_atom_site_fract_y
_atom_site_fract_z
Si Si1 0.150319 0.226701 0.405578
Si Si2 0.581603 0.629569 0.085141
Si Si3 0.294633 0.893708 0.411995
Si Si4 0.196257 0.696956 0.094451
Si Si5 0.077386 0.545253 0.913474
Si Si6 0.340611 0.548986 0.917711
O O1 0.116917 0.237422 0.250000
O O2 0.116765 0.178587 0.467171
O O3 0.138719 0.271103 0.512028
O O4 0.232424 0.224526 0.386142
O O5 0.601737 0.619456 0.250000
O O6 0.500000 0.634312 0.066035
O O7 0.607881 0.587524 0.984829
O O8 0.289038 0.875900 0.250000
O O9 0.282118 0.850264 0.513955
O O10 0.370991 0.912345 0.447634
O O11 0.238216 0.934370 0.441254
O O12 0.165152 0.685012 0.250000
O O13 0.081539 0.530371 0.750000
O O14 0.000000 0.561446 0.956728
O O15 0.101848 0.500000 0.000000
O O16 0.357447 0.542623 0.750000
O O17 0.352186 0.500000 0.000000
#
# Coordination Sequence:
#
# PCOD8257152 Si02
#       6
#    16  16  16  16  16  16
#     4   9  18  34  54  79 107 136 172 215 263 318
#     4  10  21  39  61  82 108 144 185 229 278 330
#     4  10  20  34  53  80 110 143 179 222 271 320
#     4  10  19  31  54  82 107 137 173 217 264 312
#     4   9  18  33  52  74 102 138 178 217 261 315
#     4  11  23  37  56  81 111 144 184 232 280 328
#
# _framework density 18.702465
#
# number of rings (size 3 to 8) (size 9 to 14) (size 15 to 20)
#    0.000    2.167    1.667    1.500    0.000    3.333 
#    0.000    0.833    0.000    5.000    0.000    0.000 
#    0.000    0.000    0.000    0.000    0.000    0.000 
#
# Total GULP energy -595080.900010 kJ/mol
# GULP energy per Si atom -12397.518750 kJ/mol
# Density = 1.865990 g / cm^3
# Si number density = 18.702465 Si / 1000 Ang^3
#
#
#
# Elastic Constant Matrix: (Units=GPa)
#
#
# Indices 1 2 3 4 5 6 
#
# 1 59.2216 28.1926 34.7153 0.0000 0.0000 0.0000
# 2 28.1926 82.8649 53.6833 0.0000 0.0000 0.0000
# 3 34.7153 53.6833 99.7566 0.0000 0.0000 0.0000
# 4 0.0000 0.0000 0.0000 33.3070 0.0000 0.0000
# 5 0.0000 0.0000 0.0000 0.0000 19.0550 0.0000
# 6 0.0000 0.0000 0.0000 0.0000 0.0000 13.3367
#
#
#
# Elastic Compliance Matrix: (Units=1/GPa)
#
#
# Indices 1 2 3 4 5 6 
#
# 1 0.021995 -0.003876 -0.005569 0.000000 0.000000 0.000000
# 2 -0.003876 0.019210 -0.008989 0.000000 0.000000 0.000000
# 3 -0.005569 -0.008989 0.016800 0.000000 0.000000 0.000000
# 4 0.000000 0.000000 0.000000 0.030024 0.000000 0.000000
# 5 0.000000 0.000000 0.000000 0.000000 0.052480 0.000000
# 6 0.000000 0.000000 0.000000 0.000000 0.000000 0.074981
#
#
# Mechanical properties :
#
#
# Convention : Reuss Voigt Hill
#
# Bulk Modulus (GPa) = 47.30794 52.78060 50.04427
# Shear Modulus (GPa) = 19.27517 21.48987 20.38252
#
# Velocity S-wave (km/s) = 3.21381 3.39343 3.30484
# Velocity P-wave (km/s) = 6.25471 6.60577 6.43264
#
# Compressibility (1/GPa) = 0.02113810
#
# Stress axis : x y z
#
# Youngs Moduli (GPa) = 45.46479 52.05673 59.52530
#
# Poissons Ratio (x) = 0.20176 0.33147
# Poissons Ratio (y) = 0.17621 0.53507
# Poissons Ratio (z) = 0.25318 0.46793
#
# Static dielectric constant tensor:
#      x y z
#    x 3.376520 0.000000 0.000000 
#    y 0.000000 3.294030 0.000000 
#    z 0.000000 0.000000 3.766180 
# 
# 
# High freq. dielectric constant tensor:
#      x y z
#    x 1.706640 0.000000 0.000000 
#    y 0.000000 1.720940 0.000000 
#    z 0.000000 0.000000 1.734350 
# 
# From -- ./inp_files/8587.got.cif
#   From: 2010.03.12/outbox.cif.g09.slc.cpg/sg63_5_cif.got.tgz:8587.got - 2010.04.10 19:34:48.
