data_PCOD8257805
_publ_section_title
;
Structure prediction by ZEFSAII (Michael W. Deem and Ramdas Pophale) SiO2 
 PCOD8257805
Probable space group: C M C M
;
_chemical_formula_sum "Si O2"
_cell_formula_units_Z 96
_cell_length_a 23.434988
_cell_length_b 10.511045
_cell_length_c 21.103028
_cell_angle_alpha 90.000000
_cell_angle_beta 90.000000
_cell_angle_gamma 90.000000
_cell_volume 5198.228979
_symmetry_space_group_name_H-M "C M C M"
_symmetry_group_IT_number 63
_symmetry_cell_setting 'orthorhombic'
loop_
_space_group_symop_operation_xyz
x,y,z
-x,-y,1/2+z
x,-y,-z
-x,y,1/2-z
-x,-y,-z
x,y,1/2-z
-x,y,z
x,-y,1/2+z
1/2+x,1/2+y,z
1/2-x,1/2-y,1/2+z
1/2+x,1/2-y,-z
1/2-x,1/2+y,1/2-z
1/2-x,1/2-y,-z
1/2+x,1/2+y,1/2-z
1/2-x,1/2+y,z
1/2+x,1/2-y,1/2+z
loop_
_atom_site_type_symbol
_atom_site_label
_atom_site_fract_x
_atom_site_fract_y
_atom_site_fract_z
Si Si1 0.773888 0.403207 0.870973
Si Si2 0.336249 0.500891 0.428424
Si Si3 0.000000 0.631251 0.578811
Si Si4 0.883325 0.746094 0.583760
Si Si5 0.292655 0.166216 0.820720
Si Si6 0.000000 0.350231 0.929303
Si Si7 0.625187 0.230278 0.067001
O O1 0.728717 0.449063 0.924320
O O2 0.755290 0.271204 0.837728
O O3 0.771183 0.519565 0.820797
O O4 0.835871 0.382724 0.903866
O O5 0.356121 0.500000 0.500000
O O6 0.376590 0.606289 0.395330
O O7 0.348842 0.359834 0.402599
O O8 0.945787 0.705394 0.604753
O O9 0.000000 0.630208 0.503673
O O10 0.000000 0.487292 0.604730
O O11 0.840844 0.663499 0.625821
O O12 0.869997 0.722770 0.509296
O O13 0.315373 0.196124 0.750000
O O14 0.058902 0.278783 0.910321
#
# Coordination Sequence:
#
# PCOD8257805 Si02
#       7
#    16  16   8  16  16   8  16
#     4  11  21  35  57  77 111 143 175 229 275 334
#     4   9  19  31  49  83 109 139 176 215 275 325
#     4   9  16  33  48  79 102 146 182 213 277 322
#     4   9  20  33  55  77 112 141 178 227 267 332
#     4  11  23  37  52  77 106 144 186 225 272 321
#     4   9  18  29  51  77 116 142 173 218 270 337
#     4  10  19  34  54  85 112 143 179 219 282 327
#
# _framework density 18.467828000000001
#
# number of rings (size 3 to 8) (size 9 to 14) (size 15 to 20)
#    0.000    2.167    1.667    1.500    2.333    4.000 
#    0.000    3.750    0.000    0.000    0.000    1.750 
#    0.000    0.000    0.000    0.000    0.000    0.000 
#
# Total GULP energy -594654.322170 kJ/mol
# GULP energy per Si atom -12388.631712 kJ/mol
# Density = 1.842579 g / cm^3
# Si number density = 18.467828 Si / 1000 Ang^3
#
#
#
# Elastic Constant Matrix: (Units=GPa)
#
#
# Indices 1 2 3 4 5 6 
#
# 1 133.7778 59.1416 29.2134 0.0000 0.0000 0.0000
# 2 59.1416 126.0131 26.9113 0.0000 0.0000 0.0000
# 3 29.2134 26.9113 54.8842 0.0000 0.0000 0.0000
# 4 0.0000 0.0000 0.0000 13.2826 0.0000 0.0000
# 5 0.0000 0.0000 0.0000 0.0000 8.1701 0.0000
# 6 0.0000 0.0000 0.0000 0.0000 0.0000 25.0948
#
#
#
# Elastic Compliance Matrix: (Units=1/GPa)
#
#
# Indices 1 2 3 4 5 6 
#
# 1 0.009958 -0.003956 -0.003361 0.000000 0.000000 0.000000
# 2 -0.003956 0.010435 -0.003011 0.000000 0.000000 0.000000
# 3 -0.003361 -0.003011 0.021485 0.000000 0.000000 0.000000
# 4 0.000000 0.000000 0.000000 0.075287 0.000000 0.000000
# 5 0.000000 0.000000 0.000000 0.000000 0.122397 0.000000
# 6 0.000000 0.000000 0.000000 0.000000 0.000000 0.039849
#
#
# Mechanical properties :
#
#
# Convention : Reuss Voigt Hill
#
# Bulk Modulus (GPa) = 47.11797 60.57865 53.84831
# Shear Modulus (GPa) = 16.27917 22.60342 19.44130
#
# Velocity S-wave (km/s) = 2.97221 3.50227 3.24807
# Velocity P-wave (km/s) = 6.11127 7.01627 6.57935
#
# Compressibility (1/GPa) = 0.02122333
#
# Stress axis : x y z
#
# Youngs Moduli (GPa) = 100.42434 95.82854 46.54323
#
# Poissons Ratio (x) = 0.37908 0.15641
# Poissons Ratio (y) = 0.39726 0.14015
# Poissons Ratio (z) = 0.33749 0.28856
#
# Static dielectric constant tensor:
#      x y z
#    x 3.434030 0.000000 0.000000 
#    y 0.000000 3.792070 0.000000 
#    z 0.000000 0.000000 2.939620 
# 
# 
# High freq. dielectric constant tensor:
#      x y z
#    x 1.710560 0.000000 0.000000 
#    y 0.000000 1.738830 0.000000 
#    z 0.000000 0.000000 1.662970 
# 
# From -- ./inp_files/57543.got.cif
#   From: 2010.03.12/outbox.cif.g09.slc.cpg/sg63_29_cif.got.tgz:57543.got - 2010.04.10 19:34:48.
