data_PCOD8257905
_publ_section_title
;
Structure prediction by ZEFSAII (Michael W. Deem and Ramdas Pophale) SiO2 
 PCOD8257905
Probable space group: C M C M
;
_chemical_formula_sum "Si O2"
_cell_formula_units_Z 96
_cell_length_a 28.159253
_cell_length_b 19.973841
_cell_length_c 9.008515
_cell_angle_alpha 90.000000
_cell_angle_beta 90.000000
_cell_angle_gamma 90.000000
_cell_volume 5066.825227
_symmetry_space_group_name_H-M "C M C M"
_symmetry_group_IT_number 63
_symmetry_cell_setting 'orthorhombic'
loop_
_space_group_symop_operation_xyz
x,y,z
-x,-y,1/2+z
x,-y,-z
-x,y,1/2-z
-x,-y,-z
x,y,1/2-z
-x,y,z
x,-y,1/2+z
1/2+x,1/2+y,z
1/2-x,1/2-y,1/2+z
1/2+x,1/2-y,-z
1/2-x,1/2+y,1/2-z
1/2-x,1/2-y,-z
1/2+x,1/2+y,1/2-z
1/2-x,1/2+y,z
1/2+x,1/2-y,1/2+z
loop_
_atom_site_type_symbol
_atom_site_label
_atom_site_fract_x
_atom_site_fract_y
_atom_site_fract_z
Si Si1 0.783078 0.842251 0.420600
Si Si2 0.593762 0.814555 0.425852
Si Si3 0.444791 0.683572 0.577681
Si Si4 0.628444 0.570779 0.576143
Si Si5 0.690723 0.189234 0.420316
Si Si6 0.554903 0.937492 0.913838
O O1 0.769396 0.855600 0.250000
O O2 0.823031 0.893679 0.478265
O O3 0.736515 0.851086 0.521006
O O4 0.803743 0.768308 0.440086
O O5 0.592617 0.816224 0.250000
O O6 0.575982 0.742798 0.479610
O O7 0.646154 0.832816 0.482404
O O8 0.558973 0.870221 0.491044
O O9 0.436318 0.702060 0.750000
O O10 0.500000 0.671786 0.542428
O O11 0.416844 0.616223 0.534381
O O12 0.621910 0.500000 0.500000
O O13 0.631044 0.558968 0.750000
O O14 0.682394 0.169464 0.250000
O O15 0.578443 0.929557 0.750000
O O16 0.500000 0.953391 0.892291
O O17 0.579254 0.000000 0.000000
#
# Coordination Sequence:
#
# PCOD8257905 Si02
#       6
#    16  16  16  16  16  16
#     4   9  18  35  56  81 112 143 183 232 284 341
#     4  12  23  35  56  87 120 152 191 239 288 341
#     4  10  21  39  60  82 113 154 199 247 299 349
#     4  10  21  38  58  83 116 155 195 241 295 353
#     4  10  19  34  58  84 112 143 184 231 283 341
#     4  10  21  38  59  82 112 151 191 231 281 341
#
# _framework density 18.946776
#
# number of rings (size 3 to 8) (size 9 to 14) (size 15 to 20)
#    0.000    1.833    1.667    3.000    0.000    5.667 
#    0.000    0.833    0.000    2.000    0.000    0.000 
#    0.000    0.000    0.000    0.000    0.000    0.000 
#
# Total GULP energy -595305.900875 kJ/mol
# GULP energy per Si atom -12402.206268 kJ/mol
# Density = 1.890365 g / cm^3
# Si number density = 18.946776 Si / 1000 Ang^3
#
#
#
# Elastic Constant Matrix: (Units=GPa)
#
#
# Indices 1 2 3 4 5 6 
#
# 1 104.2062 51.3634 55.2440 0.0000 0.0000 0.0000
# 2 51.3634 95.4421 55.9570 0.0000 0.0000 0.0000
# 3 55.2440 55.9570 125.7364 0.0000 0.0000 0.0000
# 4 0.0000 0.0000 0.0000 34.3498 0.0000 0.0000
# 5 0.0000 0.0000 0.0000 0.0000 25.6458 0.0000
# 6 0.0000 0.0000 0.0000 0.0000 0.0000 26.6575
#
#
#
# Elastic Compliance Matrix: (Units=1/GPa)
#
#
# Indices 1 2 3 4 5 6 
#
# 1 0.014333 -0.005441 -0.003876 0.000000 0.000000 0.000000
# 2 -0.005441 0.016242 -0.004838 0.000000 0.000000 0.000000
# 3 -0.003876 -0.004838 0.011809 0.000000 0.000000 0.000000
# 4 0.000000 0.000000 0.000000 0.029112 0.000000 0.000000
# 5 0.000000 0.000000 0.000000 0.000000 0.038993 0.000000
# 6 0.000000 0.000000 0.000000 0.000000 0.000000 0.037513
#
#
# Mechanical properties :
#
#
# Convention : Reuss Voigt Hill
#
# Bulk Modulus (GPa) = 71.04926 72.27928 71.66427
# Shear Modulus (GPa) = 27.62387 28.18532 27.90459
#
# Velocity S-wave (km/s) = 3.82248 3.86113 3.84186
# Velocity P-wave (km/s) = 7.55398 7.62294 7.58854
#
# Compressibility (1/GPa) = 0.01407474
#
# Stress axis : x y z
#
# Youngs Moduli (GPa) = 69.76867 61.56876 84.68108
#
# Poissons Ratio (x) = 0.33500 0.32822
# Poissons Ratio (y) = 0.37962 0.40966
# Poissons Ratio (z) = 0.27042 0.29785
#
# Static dielectric constant tensor:
#      x y z
#    x 3.553510 0.000000 0.000000 
#    y 0.000000 3.346400 0.000000 
#    z 0.000000 0.000000 3.604950 
# 
# 
# High freq. dielectric constant tensor:
#      x y z
#    x 1.738450 0.000000 0.000000 
#    y 0.000000 1.723440 0.000000 
#    z 0.000000 0.000000 1.740030 
# 
# From -- ./inp_files/12352.got.cif
#   From: 2010.03.12/outbox.cif.g09.slc.cpg/sg63_7_cif.got.tgz:12352.got - 2010.04.10 19:34:48.
