data_PCOD8257818
_publ_section_title
;
Structure prediction by ZEFSAII (Michael W. Deem and Ramdas Pophale) SiO2 
 PCOD8257818
Probable space group: C M C M
;
_chemical_formula_sum "Si O2"
_cell_formula_units_Z 96
_cell_length_a 9.212570
_cell_length_b 24.822617
_cell_length_c 23.799190
_cell_angle_alpha 90.000000
_cell_angle_beta 90.000000
_cell_angle_gamma 90.000000
_cell_volume 5442.401070
_symmetry_space_group_name_H-M "C M C M"
_symmetry_group_IT_number 63
_symmetry_cell_setting 'orthorhombic'
loop_
_space_group_symop_operation_xyz
x,y,z
-x,-y,1/2+z
x,-y,-z
-x,y,1/2-z
-x,-y,-z
x,y,1/2-z
-x,y,z
x,-y,1/2+z
1/2+x,1/2+y,z
1/2-x,1/2-y,1/2+z
1/2+x,1/2-y,-z
1/2-x,1/2+y,1/2-z
1/2-x,1/2-y,-z
1/2+x,1/2+y,1/2-z
1/2-x,1/2+y,z
1/2+x,1/2-y,1/2+z
loop_
_atom_site_type_symbol
_atom_site_label
_atom_site_fract_x
_atom_site_fract_y
_atom_site_fract_z
Si Si1 0.171385 0.105984 0.250000
Si Si2 0.167439 0.971673 0.055902
Si Si3 0.331763 0.428646 0.870013
Si Si4 0.329870 0.835219 0.932628
Si Si5 0.670756 0.760615 0.129089
Si Si6 0.667252 0.137654 0.558487
Si Si7 0.671497 0.273497 0.750000
O O1 0.222847 0.074243 0.305547
O O2 0.238538 0.166216 0.250000
O O3 0.000000 0.110407 0.250000
O O4 0.244687 0.916217 0.069855
O O5 0.000000 0.958310 0.044977
O O6 0.190737 0.010556 0.109115
O O7 0.232589 0.000000 0.000000
O O8 0.500000 0.410908 0.875662
O O9 0.235818 0.389419 0.907364
O O10 0.500000 0.833290 0.919512
O O11 0.255023 0.783188 0.906965
O O12 0.296634 0.835448 0.998796
O O13 0.500000 0.748430 0.122881
O O14 0.710170 0.819727 0.106613
O O15 0.722803 0.757734 0.194018
O O16 0.500000 0.121523 0.561973
O O17 0.500000 0.277836 0.750000
#
# Coordination Sequence:
#
# PCOD8257818 Si02
#       7
#     8  16  16  16  16  16   8
#     4   9  16  30  55  80 100 132 174 216 259 302
#     4  10  20  34  55  79 102 134 175 218 258 303
#     4  10  19  34  55  79 104 134 175 216 256 309
#     4  11  21  32  50  80 110 137 167 212 268 310
#     4  10  20  36  55  77 104 138 179 216 256 312
#     4  10  22  36  52  76 109 144 173 210 261 314
#     4   9  16  30  57  80  96 132 180 218 251 302
#
# _framework density 17.639274
#
# number of rings (size 3 to 8) (size 9 to 14) (size 15 to 20)
#    0.000    2.000    3.333    1.000    0.000    2.333 
#    0.000    2.500    0.000    0.000    0.000    0.000 
#    0.000    0.000    0.000    0.000    0.000    0.000 
#
# Total GULP energy -595236.537755 kJ/mol
# GULP energy per Si atom -12400.761203 kJ/mol
# Density = 1.759913 g / cm^3
# Si number density = 17.639274 Si / 1000 Ang^3
#
#
#
# Elastic Constant Matrix: (Units=GPa)
#
#
# Indices 1 2 3 4 5 6 
#
# 1 53.2541 53.3639 40.8320 0.0000 0.0000 0.0000
# 2 53.3639 137.8009 79.3995 0.0000 0.0000 0.0000
# 3 40.8320 79.3995 147.1820 0.0000 0.0000 0.0000
# 4 0.0000 0.0000 0.0000 30.6094 0.0000 0.0000
# 5 0.0000 0.0000 0.0000 0.0000 15.5295 0.0000
# 6 0.0000 0.0000 0.0000 0.0000 0.0000 31.9969
#
#
#
# Elastic Compliance Matrix: (Units=1/GPa)
#
#
# Indices 1 2 3 4 5 6 
#
# 1 0.031659 -0.010447 -0.003148 0.000000 0.000000 0.000000
# 2 -0.010447 0.013977 -0.004642 0.000000 0.000000 0.000000
# 3 -0.003148 -0.004642 0.010172 0.000000 0.000000 0.000000
# 4 0.000000 0.000000 0.000000 0.032670 0.000000 0.000000
# 5 0.000000 0.000000 0.000000 0.000000 0.064393 0.000000
# 6 0.000000 0.000000 0.000000 0.000000 0.000000 0.031253
#
#
# Mechanical properties :
#
#
# Convention : Reuss Voigt Hill
#
# Bulk Modulus (GPa) = 51.71739 76.15866 63.93803
# Shear Modulus (GPa) = 22.02239 26.60328 24.31283
#
# Velocity S-wave (km/s) = 3.53723 3.88775 3.71662
# Velocity P-wave (km/s) = 6.78717 7.96380 7.39891
#
# Compressibility (1/GPa) = 0.01933585
#
# Stress axis : x y z
#
# Youngs Moduli (GPa) = 31.58622 71.54624 98.31236
#
# Poissons Ratio (x) = 0.74742 0.30944
# Poissons Ratio (y) = 0.32997 0.45636
# Poissons Ratio (z) = 0.09942 0.33211
#
# Static dielectric constant tensor:
#      x y z
#    x 3.115900 0.000000 0.000000 
#    y 0.000000 3.220260 0.000000 
#    z 0.000000 0.000000 3.622640 
# 
# 
# High freq. dielectric constant tensor:
#      x y z
#    x 1.661880 0.000000 0.000000 
#    y 0.000000 1.678390 0.000000 
#    z 0.000000 0.000000 1.689750 
# 
# From -- ./inp_files/60091.got.cif
#   From: 2010.03.12/outbox.cif.g09.slc.cpg/sg63_31_cif.got.tgz:60091.got - 2010.04.10 19:34:48.
