data_PCOD8257543
_publ_section_title
;
Structure prediction by ZEFSAII (Michael W. Deem and Ramdas Pophale) SiO2 
 PCOD8257543
Probable space group: C M C M
;
_chemical_formula_sum "Si O2"
_cell_formula_units_Z 72
_cell_length_a 14.231978
_cell_length_b 18.838455
_cell_length_c 14.792484
_cell_angle_alpha 90.000000
_cell_angle_beta 90.000000
_cell_angle_gamma 90.000000
_cell_volume 3965.990358
_symmetry_space_group_name_H-M "C M C M"
_symmetry_group_IT_number 63
_symmetry_cell_setting 'orthorhombic'
loop_
_space_group_symop_operation_xyz
x,y,z
-x,-y,1/2+z
x,-y,-z
-x,y,1/2-z
-x,-y,-z
x,y,1/2-z
-x,y,z
x,-y,1/2+z
1/2+x,1/2+y,z
1/2-x,1/2-y,1/2+z
1/2+x,1/2-y,-z
1/2-x,1/2+y,1/2-z
1/2-x,1/2-y,-z
1/2+x,1/2+y,1/2-z
1/2-x,1/2+y,z
1/2+x,1/2-y,1/2+z
loop_
_atom_site_type_symbol
_atom_site_label
_atom_site_fract_x
_atom_site_fract_y
_atom_site_fract_z
Si Si1 0.000000 0.642693 0.645043
Si Si2 0.201315 0.824994 0.002546
Si Si3 0.500000 0.567941 0.148141
Si Si4 0.000000 0.206335 0.052485
Si Si5 0.199631 0.417738 0.145396
Si Si6 0.703832 0.561669 0.143334
O O1 0.000000 0.713238 0.585757
O O2 0.908956 0.595904 0.620292
O O3 0.000000 0.664285 0.750000
O O4 0.231460 0.865948 0.092259
O O5 0.250000 0.750000 0.000000
O O6 0.090189 0.811142 0.008497
O O7 0.233441 0.868957 0.913348
O O8 0.500000 0.544258 0.250000
O O9 0.500000 0.653736 0.138769
O O10 0.598644 0.537862 0.108230
O O11 0.219541 0.402599 0.250000
O O12 0.223216 0.499202 0.121114
O O13 0.703084 0.581246 0.250000
#
# Coordination Sequence:
#
# PCOD8257543 Si02
#       6
#     8  16   8   8  16  16
#     4  10  19  34  57  80 106 143 194 237 265 310
#     4  11  21  35  56  81 114 145 184 230 279 331
#     4   8  15  29  53  80 104 135 175 228 276 319
#     4  10  19  33  52  81 111 139 185 228 275 325
#     4  10  21  37  56  81 110 146 187 230 276 329
#     4   9  19  35  56  82 112 144 183 228 280 329
#
# _framework density 18.154354999999999
#
# number of rings (size 3 to 8) (size 9 to 14) (size 15 to 20)
#    0.000    2.222    2.222    1.000    0.000    2.667 
#    0.000    8.333    0.000    0.000    0.000    0.000 
#    0.000    0.000    0.000    0.000    0.000    0.000 
#
# Total GULP energy -446194.899768 kJ/mol
# GULP energy per Si atom -12394.302771 kJ/mol
# Density = 1.811304 g / cm^3
# Si number density = 18.154355 Si / 1000 Ang^3
#
#
#
# Elastic Constant Matrix: (Units=GPa)
#
#
# Indices 1 2 3 4 5 6 
#
# 1 148.3262 79.8129 54.6237 0.0000 0.0000 0.0000
# 2 79.8129 130.0721 54.9000 0.0000 0.0000 0.0000
# 3 54.6237 54.9000 69.8030 0.0000 0.0000 0.0000
# 4 0.0000 0.0000 0.0000 31.4678 0.0000 0.0000
# 5 0.0000 0.0000 0.0000 0.0000 26.6043 0.0000
# 6 0.0000 0.0000 0.0000 0.0000 0.0000 36.6879
#
#
#
# Elastic Compliance Matrix: (Units=1/GPa)
#
#
# Indices 1 2 3 4 5 6 
#
# 1 0.011117 -0.004715 -0.004991 0.000000 0.000000 0.000000
# 2 -0.004715 0.013508 -0.006934 0.000000 0.000000 0.000000
# 3 -0.004991 -0.006934 0.023686 0.000000 0.000000 0.000000
# 4 0.000000 0.000000 0.000000 0.031779 0.000000 0.000000
# 5 0.000000 0.000000 0.000000 0.000000 0.037588 0.000000
# 6 0.000000 0.000000 0.000000 0.000000 0.000000 0.027257
#
#
# Mechanical properties :
#
#
# Convention : Reuss Voigt Hill
#
# Bulk Modulus (GPa) = 66.53506 80.76384 73.64945
# Shear Modulus (GPa) = 27.28882 29.54298 28.41590
#
# Velocity S-wave (km/s) = 3.88126 4.03838 3.96060
# Velocity P-wave (km/s) = 7.53756 8.14424 7.84676
#
# Compressibility (1/GPa) = 0.01502967
#
# Stress axis : x y z
#
# Youngs Moduli (GPa) = 89.95231 74.03080 42.21914
#
# Poissons Ratio (x) = 0.34903 0.21073
# Poissons Ratio (y) = 0.42410 0.29277
# Poissons Ratio (z) = 0.44899 0.51337
#
# Static dielectric constant tensor:
#      x y z
#    x 3.719970 0.000000 0.000000 
#    y 0.000000 3.356490 0.000000 
#    z 0.000000 0.000000 3.388590 
# 
# 
# High freq. dielectric constant tensor:
#      x y z
#    x 1.712540 0.000000 0.000000 
#    y 0.000000 1.699470 0.000000 
#    z 0.000000 0.000000 1.690860 
# 
# From -- ./inp_files/31492.got.cif
#   From: 2010.03.12/outbox.cif.g09.slc.cpg/sg63_16_cif.got.tgz:31492.got - 2010.04.10 19:34:48.
