data_PCOD8257725
_publ_section_title
;
Structure prediction by ZEFSAII (Michael W. Deem and Ramdas Pophale) SiO2 
 PCOD8257725
Probable space group: C M C M
;
_chemical_formula_sum "Si O2"
_cell_formula_units_Z 80
_cell_length_a 15.339441
_cell_length_b 28.848982
_cell_length_c 9.127882
_cell_angle_alpha 90.000000
_cell_angle_beta 90.000000
_cell_angle_gamma 90.000000
_cell_volume 4039.336586
_symmetry_space_group_name_H-M "C M C M"
_symmetry_group_IT_number 63
_symmetry_cell_setting 'orthorhombic'
loop_
_space_group_symop_operation_xyz
x,y,z
-x,-y,1/2+z
x,-y,-z
-x,y,1/2-z
-x,-y,-z
x,y,1/2-z
-x,y,z
x,-y,1/2+z
1/2+x,1/2+y,z
1/2-x,1/2-y,1/2+z
1/2+x,1/2-y,-z
1/2-x,1/2+y,1/2-z
1/2-x,1/2-y,-z
1/2+x,1/2+y,1/2-z
1/2-x,1/2+y,z
1/2+x,1/2-y,1/2+z
loop_
_atom_site_type_symbol
_atom_site_label
_atom_site_fract_x
_atom_site_fract_y
_atom_site_fract_z
Si Si1 0.754090 0.200948 0.076747
Si Si2 0.352598 0.045805 0.578635
Si Si3 0.402978 0.864464 0.916896
Si Si4 0.401500 0.645166 0.581184
Si Si5 0.650570 0.455311 0.418760
O O1 0.758871 0.207889 0.250000
O O2 0.667547 0.172985 0.029098
O O3 0.750000 0.250000 0.000000
O O4 0.840034 0.174545 0.023652
O O5 0.370872 0.041361 0.750000
O O6 0.401864 0.090406 0.517899
O O7 0.251278 0.051907 0.540499
O O8 0.389917 0.000000 0.500000
O O9 0.381908 0.879190 0.750000
O O10 0.500000 0.842453 0.928790
O O11 0.370009 0.650156 0.750000
O O12 0.500000 0.663510 0.562829
O O13 0.399145 0.591275 0.533594
O O14 0.610883 0.500000 0.500000
O O15 0.636863 0.465825 0.250000
#
# Coordination Sequence:
#
# PCOD8257725 Si02
#       5
#    16  16  16  16  16
#     4  11  24  42  65  89 117 151 193 245 303 359
#     4  10  19  33  56  85 119 157 197 239 286 342
#     4  10  22  40  61  86 116 152 195 241 292 349
#     4  10  21  39  62  88 121 159 198 242 294 349
#     4   9  18  32  53  83 118 156 196 236 283 340
#
# _framework density 19.805232
#
# number of rings (size 3 to 8) (size 9 to 14) (size 15 to 20)
#    0.000    2.000    2.000    1.200    0.000    4.800 
#    0.000    2.000    0.000    0.000    0.000    0.000 
#    0.000    0.000    0.000    0.000    0.000    0.000 
#
# Total GULP energy -496097.689689 kJ/mol
# GULP energy per Si atom -12402.442242 kJ/mol
# Density = 1.976015 g / cm^3
# Si number density = 19.805232 Si / 1000 Ang^3
#
#
#
# Elastic Constant Matrix: (Units=GPa)
#
#
# Indices 1 2 3 4 5 6 
#
# 1 103.6075 58.3502 43.6390 0.0000 0.0000 0.0000
# 2 58.3502 134.2313 59.4064 0.0000 0.0000 0.0000
# 3 43.6390 59.4064 81.5867 0.0000 0.0000 0.0000
# 4 0.0000 0.0000 0.0000 41.1361 0.0000 0.0000
# 5 0.0000 0.0000 0.0000 0.0000 24.1449 0.0000
# 6 0.0000 0.0000 0.0000 0.0000 0.0000 2.0403
#
#
#
# Elastic Compliance Matrix: (Units=1/GPa)
#
#
# Indices 1 2 3 4 5 6 
#
# 1 0.013793 -0.004029 -0.004444 0.000000 0.000000 0.000000
# 2 -0.004029 0.012169 -0.006706 0.000000 0.000000 0.000000
# 3 -0.004444 -0.006706 0.019516 0.000000 0.000000 0.000000
# 4 0.000000 0.000000 0.000000 0.024310 0.000000 0.000000
# 5 0.000000 0.000000 0.000000 0.000000 0.041417 0.000000
# 6 0.000000 0.000000 0.000000 0.000000 0.000000 0.490115
#
#
# Mechanical properties :
#
#
# Convention : Reuss Voigt Hill
#
# Bulk Modulus (GPa) = 66.13225 71.35741 68.74483
# Shear Modulus (GPa) = 7.85279 23.99962 15.92620
#
# Velocity S-wave (km/s) = 1.99339 3.48484 2.83881
# Velocity P-wave (km/s) = 6.22591 7.23187 6.74766
#
# Compressibility (1/GPa) = 0.01512122
#
# Stress axis : x y z
#
# Youngs Moduli (GPa) = 72.50312 82.17663 51.23905
#
# Poissons Ratio (x) = 0.33109 0.22769
# Poissons Ratio (y) = 0.29211 0.34359
# Poissons Ratio (z) = 0.32218 0.55105
#
# Static dielectric constant tensor:
#      x y z
#    x 3.684000 0.000000 0.000000 
#    y 0.000000 2.725910 0.000000 
#    z 0.000000 0.000000 3.534810 
# 
# 
# High freq. dielectric constant tensor:
#      x y z
#    x 1.773570 0.000000 0.000000 
#    y 0.000000 1.769010 0.000000 
#    z 0.000000 0.000000 1.769640 
# 
# From -- ./inp_files/6383.got.cif
#   From: 2010.03.12/outbox.cif.g09.slc.cpg/sg63_4_cif.got.tgz:6383.got - 2010.04.10 19:34:48.
