data_PCOD8257020
_publ_section_title
;
Structure prediction by ZEFSAII (Michael W. Deem and Ramdas Pophale) SiO2 
 PCOD8257020
Probable space group: C M C M
;
_chemical_formula_sum "Si O2"
_cell_formula_units_Z 96
_cell_length_a 30.616036
_cell_length_b 9.253498
_cell_length_c 18.088786
_cell_angle_alpha 90.000000
_cell_angle_beta 90.000000
_cell_angle_gamma 90.000000
_cell_volume 5124.651258
_symmetry_space_group_name_H-M "C M C M"
_symmetry_group_IT_number 63
_symmetry_cell_setting 'orthorhombic'
loop_
_space_group_symop_operation_xyz
x,y,z
-x,-y,1/2+z
x,-y,-z
-x,y,1/2-z
-x,-y,-z
x,y,1/2-z
-x,y,z
x,-y,1/2+z
1/2+x,1/2+y,z
1/2-x,1/2-y,1/2+z
1/2+x,1/2-y,-z
1/2-x,1/2+y,1/2-z
1/2-x,1/2-y,-z
1/2+x,1/2+y,1/2-z
1/2-x,1/2+y,z
1/2+x,1/2-y,1/2+z
loop_
_atom_site_type_symbol
_atom_site_label
_atom_site_fract_x
_atom_site_fract_y
_atom_site_fract_z
Si Si1 0.709672 0.319710 0.661707
Si Si2 0.206610 0.493045 0.662075
Si Si3 0.550615 0.000250 0.585418
Si Si4 0.549618 0.703550 0.335943
Si Si5 0.127198 0.996390 0.662553
Si Si6 0.878052 0.678718 0.162071
O O1 0.709401 0.317749 0.750000
O O2 0.752611 0.400896 0.631521
O O3 0.667349 0.403276 0.630230
O O4 0.709222 0.156052 0.631017
O O5 0.207899 0.494157 0.750000
O O6 0.162049 0.419494 0.634135
O O7 0.500000 0.963241 0.597685
O O8 0.562642 0.155566 0.618434
O O9 0.563528 0.000000 0.500000
O O10 0.577188 0.877440 0.627582
O O11 0.556533 0.741439 0.250000
O O12 0.500000 0.654407 0.352065
O O13 0.581283 0.574637 0.361670
O O14 0.131329 0.999734 0.750000
O O15 0.129571 0.159091 0.632103
O O16 0.882458 0.675477 0.250000
#
# Coordination Sequence:
#
# PCOD8257020 Si02
#       6
#    16  16  16  16  16  16
#     4   9  15  24  39  64 100 133 160 195 240 285
#     4   9  16  25  41  67  99 132 163 198 240 284
#     4  10  21  36  52  71  96 127 163 201 243 293
#     4   9  17  31  51  73  97 126 160 199 244 291
#     4   9  17  28  45  72 103 131 162 202 245 289
#     4  10  19  31  49  74 100 126 161 203 246 289
#
# _framework density 18.732980999999999
#
# number of rings (size 3 to 8) (size 9 to 14) (size 15 to 20)
#    0.000    2.667    0.000    2.500    0.000    8.333 
#    0.000    2.500    0.000    3.000    0.000   10.500 
#    0.000    0.000    0.000    0.000    0.000    0.000 
#
# Total GULP energy -595221.130536 kJ/mol
# GULP energy per Si atom -12400.440219 kJ/mol
# Density = 1.869034 g / cm^3
# Si number density = 18.732981 Si / 1000 Ang^3
#
#
#
# Elastic Constant Matrix: (Units=GPa)
#
#
# Indices 1 2 3 4 5 6 
#
# 1 130.1907 92.9277 26.6414 0.0000 0.0000 0.0000
# 2 92.9277 185.0314 27.3921 0.0000 0.0000 0.0000
# 3 26.6414 27.3921 24.2761 0.0000 0.0000 0.0000
# 4 0.0000 0.0000 0.0000 3.5279 0.0000 0.0000
# 5 0.0000 0.0000 0.0000 0.0000 7.7020 0.0000
# 6 0.0000 0.0000 0.0000 0.0000 0.0000 43.5453
#
#
#
# Elastic Compliance Matrix: (Units=1/GPa)
#
#
# Indices 1 2 3 4 5 6 
#
# 1 0.013278 -0.005416 -0.008461 0.000000 0.000000 0.000000
# 2 -0.005416 0.008698 -0.003870 0.000000 0.000000 0.000000
# 3 -0.008461 -0.003870 0.054845 0.000000 0.000000 0.000000
# 4 0.000000 0.000000 0.000000 0.283456 0.000000 0.000000
# 5 0.000000 0.000000 0.000000 0.000000 0.129837 0.000000
# 6 0.000000 0.000000 0.000000 0.000000 0.000000 0.022965
#
#
# Mechanical properties :
#
#
# Convention : Reuss Voigt Hill
#
# Bulk Modulus (GPa) = 24.19748 70.38008 47.28878
# Shear Modulus (GPa) = 8.89129 23.79083 16.34106
#
# Velocity S-wave (km/s) = 2.18097 3.56757 2.95670
# Velocity P-wave (km/s) = 4.39173 7.39065 6.07902
#
# Compressibility (1/GPa) = 0.04132662
#
# Stress axis : x y z
#
# Youngs Moduli (GPa) = 75.31028 114.97452 18.23334
#
# Poissons Ratio (x) = 0.62273 0.15427
# Poissons Ratio (y) = 0.40790 0.07056
# Poissons Ratio (z) = 0.63718 0.44495
#
# Static dielectric constant tensor:
#      x y z
#    x 3.604750 0.000000 0.000000 
#    y 0.000000 3.644170 0.000000 
#    z 0.000000 0.000000 2.849870 
# 
# 
# High freq. dielectric constant tensor:
#      x y z
#    x 1.743590 0.000000 0.000000 
#    y 0.000000 1.738230 0.000000 
#    z 0.000000 0.000000 1.659860 
# 
# From -- ./inp_files/58047.got.cif
#   From: 2010.03.12/outbox.cif.g09.slc.cpg/sg63_30_cif.got.tgz:58047.got - 2010.04.10 19:34:48.
