data_PCOD8257594
_publ_section_title
;
Structure prediction by ZEFSAII (Michael W. Deem and Ramdas Pophale) SiO2 
 PCOD8257594
Probable space group: C M C M
;
_chemical_formula_sum "Si O2"
_cell_formula_units_Z 96
_cell_length_a 11.331176
_cell_length_b 32.934882
_cell_length_c 13.769185
_cell_angle_alpha 90.000000
_cell_angle_beta 90.000000
_cell_angle_gamma 90.000000
_cell_volume 5138.535155
_symmetry_space_group_name_H-M "C M C M"
_symmetry_group_IT_number 63
_symmetry_cell_setting 'orthorhombic'
loop_
_space_group_symop_operation_xyz
x,y,z
-x,-y,1/2+z
x,-y,-z
-x,y,1/2-z
-x,-y,-z
x,y,1/2-z
-x,y,z
x,-y,1/2+z
1/2+x,1/2+y,z
1/2-x,1/2-y,1/2+z
1/2+x,1/2-y,-z
1/2-x,1/2+y,1/2-z
1/2-x,1/2-y,-z
1/2+x,1/2+y,1/2-z
1/2-x,1/2+y,z
1/2+x,1/2-y,1/2+z
loop_
_atom_site_type_symbol
_atom_site_label
_atom_site_fract_x
_atom_site_fract_y
_atom_site_fract_z
Si Si1 0.767205 0.689222 0.968765
Si Si2 0.364308 0.605658 0.515737
Si Si3 0.000000 0.666101 0.865519
Si Si4 0.254382 0.959404 0.135249
Si Si5 0.500000 0.926643 0.134513
Si Si6 0.860958 0.741510 0.362931
Si Si7 0.635976 0.459585 0.860484
O O1 0.718268 0.644431 0.982303
O O2 0.886534 0.689107 0.906629
O O3 0.671904 0.714861 0.907860
O O4 0.790758 0.707441 0.075878
O O5 0.500000 0.619269 0.520959
O O6 0.335976 0.575948 0.605070
O O7 0.334646 0.581383 0.417455
O O8 0.000000 0.619643 0.902364
O O9 0.000000 0.669159 0.750000
O O10 0.253288 0.960014 0.250000
O O11 0.384802 0.949748 0.093884
O O12 0.212475 0.003233 0.096161
O O13 0.500000 0.926944 0.250000
O O14 0.822568 0.738826 0.250000
O O15 0.000000 0.734692 0.373663
O O16 0.669666 0.450484 0.750000
O O17 0.500000 0.472260 0.872309
#
# Coordination Sequence:
#
# PCOD8257594 Si02
#       7
#    16  16   8  16   8  16  16
#     4  11  22  38  61  86 115 148 188 230 281 346
#     4  11  22  35  55  82 112 144 184 234 281 329
#     4  11  20  36  58  84 116 152 188 228 276 334
#     4  10  19  33  53  79 110 147 188 229 277 331
#     4   9  18  32  52  77 111 149 185 228 276 322
#     4  10  22  41  63  87 116 148 183 231 286 339
#     4   9  19  36  55  75 105 146 189 232 277 324
#
# _framework density 18.682366999999999
#
# number of rings (size 3 to 8) (size 9 to 14) (size 15 to 20)
#    0.000    1.833    2.500    2.000    0.000    3.667 
#    0.000    2.500    0.000    0.000    0.000    0.000 
#    0.000    0.000    0.000    0.000    0.000    0.000 
#
# Total GULP energy -595275.119601 kJ/mol
# GULP energy per Si atom -12401.564992 kJ/mol
# Density = 1.863984 g / cm^3
# Si number density = 18.682367 Si / 1000 Ang^3
#
#
#
# Elastic Constant Matrix: (Units=GPa)
#
#
# Indices 1 2 3 4 5 6 
#
# 1 60.7791 23.4484 35.5880 0.0000 0.0000 0.0000
# 2 23.4484 77.0439 30.0787 0.0000 0.0000 0.0000
# 3 35.5880 30.0787 89.0297 0.0000 0.0000 0.0000
# 4 0.0000 0.0000 0.0000 23.0196 0.0000 0.0000
# 5 0.0000 0.0000 0.0000 0.0000 25.1580 0.0000
# 6 0.0000 0.0000 0.0000 0.0000 0.0000 32.6434
#
#
#
# Elastic Compliance Matrix: (Units=1/GPa)
#
#
# Indices 1 2 3 4 5 6 
#
# 1 0.022421 -0.003830 -0.007668 0.000000 0.000000 0.000000
# 2 -0.003830 0.015606 -0.003742 0.000000 0.000000 0.000000
# 3 -0.007668 -0.003742 0.015562 0.000000 0.000000 0.000000
# 4 0.000000 0.000000 0.000000 0.043441 0.000000 0.000000
# 5 0.000000 0.000000 0.000000 0.000000 0.039749 0.000000
# 6 0.000000 0.000000 0.000000 0.000000 0.000000 0.030634
#
#
# Mechanical properties :
#
#
# Convention : Reuss Voigt Hill
#
# Bulk Modulus (GPa) = 43.27394 45.00923 44.14159
# Shear Modulus (GPa) = 24.31972 25.34673 24.83322
#
# Velocity S-wave (km/s) = 3.61189 3.68736 3.64982
# Velocity P-wave (km/s) = 6.37241 6.50177 6.43741
#
# Compressibility (1/GPa) = 0.02310859
#
# Stress axis : x y z
#
# Youngs Moduli (GPa) = 44.60182 64.07794 64.26109
#
# Poissons Ratio (x) = 0.24542 0.49277
# Poissons Ratio (y) = 0.17082 0.24043
# Poissons Ratio (z) = 0.34202 0.23975
#
# Static dielectric constant tensor:
#      x y z
#    x 3.601440 0.000000 0.000000 
#    y 0.000000 3.407380 0.000000 
#    z 0.000000 0.000000 3.451170 
# 
# 
# High freq. dielectric constant tensor:
#      x y z
#    x 1.730690 0.000000 0.000000 
#    y 0.000000 1.723840 0.000000 
#    z 0.000000 0.000000 1.724850 
# 
# From -- ./inp_files/30342.got.cif
#   From: 2010.03.12/outbox.cif.g09.slc.cpg/sg63_16_cif.got.tgz:30342.got - 2010.04.10 19:34:48.
