data_PCOD8257493
_publ_section_title
;
Structure prediction by ZEFSAII (Michael W. Deem and Ramdas Pophale) SiO2 
 PCOD8257493
Probable space group: C M C M
;
_chemical_formula_sum "Si O2"
_cell_formula_units_Z 96
_cell_length_a 12.484763
_cell_length_b 24.879427
_cell_length_c 17.567780
_cell_angle_alpha 90.000000
_cell_angle_beta 90.000000
_cell_angle_gamma 90.000000
_cell_volume 5456.794019
_symmetry_space_group_name_H-M "C M C M"
_symmetry_group_IT_number 63
_symmetry_cell_setting 'orthorhombic'
loop_
_space_group_symop_operation_xyz
x,y,z
-x,-y,1/2+z
x,-y,-z
-x,y,1/2-z
-x,-y,-z
x,y,1/2-z
-x,y,z
x,-y,1/2+z
1/2+x,1/2+y,z
1/2-x,1/2-y,1/2+z
1/2+x,1/2-y,-z
1/2-x,1/2+y,1/2-z
1/2-x,1/2-y,-z
1/2+x,1/2+y,1/2-z
1/2-x,1/2+y,z
1/2+x,1/2-y,1/2+z
loop_
_atom_site_type_symbol
_atom_site_label
_atom_site_fract_x
_atom_site_fract_y
_atom_site_fract_z
Si Si1 0.121244 0.377418 0.161056
Si Si2 0.802704 0.917590 0.048271
Si Si3 0.117691 0.201657 0.539638
Si Si4 0.376175 0.474363 0.594588
Si Si5 0.873174 0.070981 0.250000
Si Si6 0.176518 0.739127 0.887973
Si Si7 0.373200 0.308957 0.750000
O O1 0.160494 0.383771 0.250000
O O2 0.194767 0.408669 0.098824
O O3 0.116758 0.314588 0.138898
O O4 0.000000 0.399741 0.153784
O O5 0.859463 0.861472 0.030195
O O6 0.875090 0.960544 0.093828
O O7 0.793256 0.946647 0.965340
O O8 0.121346 0.234335 0.460988
O O9 0.199066 0.227007 0.598945
O O10 0.000000 0.208400 0.574528
O O11 0.500000 0.455491 0.580523
O O12 0.329005 0.458322 0.675829
O O13 0.830587 0.131009 0.250000
O O14 0.000000 0.069114 0.250000
O O15 0.176232 0.783093 0.823803
O O16 0.500000 0.303412 0.750000
#
# Coordination Sequence:
#
# PCOD8257493 Si02
#       7
#    16  16  16  16   8  16   8
#     4  10  20  35  53  77 107 139 180 232 272 308
#     4  10  20  32  55  78 105 142 176 213 271 330
#     4  10  19  33  50  76 107 138 173 211 256 317
#     4  10  19  35  53  77 110 142 174 220 271 318
#     4   9  20  32  51  77 101 135 179 218 263 311
#     4  10  20  31  52  76 102 137 175 213 264 310
#     4  11  18  30  50  73  97 127 172 222 256 301
#
# _framework density 17.592748
#
# number of rings (size 3 to 8) (size 9 to 14) (size 15 to 20)
#    0.000    2.000    0.833    4.500    1.167    1.333 
#    0.000    2.083    0.000    0.000    0.000    3.500 
#    0.000    0.000    0.000    0.000    0.000    0.000 
#
# Total GULP energy -594644.258736 kJ/mol
# GULP energy per Si atom -12388.422057 kJ/mol
# Density = 1.755271 g / cm^3
# Si number density = 17.592748 Si / 1000 Ang^3
#
#
#
# Elastic Constant Matrix: (Units=GPa)
#
#
# Indices 1 2 3 4 5 6 
#
# 1 88.4082 24.9238 38.5206 0.0000 0.0000 0.0000
# 2 24.9238 95.3990 48.8716 0.0000 0.0000 0.0000
# 3 38.5206 48.8716 120.9394 0.0000 0.0000 0.0000
# 4 0.0000 0.0000 0.0000 35.9064 0.0000 0.0000
# 5 0.0000 0.0000 0.0000 0.0000 22.4613 0.0000
# 6 0.0000 0.0000 0.0000 0.0000 0.0000 20.4063
#
#
#
# Elastic Compliance Matrix: (Units=1/GPa)
#
#
# Indices 1 2 3 4 5 6 
#
# 1 0.013337 -0.001650 -0.003581 0.000000 0.000000 0.000000
# 2 -0.001650 0.013423 -0.004899 0.000000 0.000000 0.000000
# 3 -0.003581 -0.004899 0.011389 0.000000 0.000000 0.000000
# 4 0.000000 0.000000 0.000000 0.027850 0.000000 0.000000
# 5 0.000000 0.000000 0.000000 0.000000 0.044521 0.000000
# 6 0.000000 0.000000 0.000000 0.000000 0.000000 0.049004
#
#
# Mechanical properties :
#
#
# Convention : Reuss Voigt Hill
#
# Bulk Modulus (GPa) = 55.90022 58.81985 57.36004
# Shear Modulus (GPa) = 26.91844 28.58351 27.75098
#
# Velocity S-wave (km/s) = 3.91588 4.03517 3.97597
# Velocity P-wave (km/s) = 7.23111 7.43080 7.33164
#
# Compressibility (1/GPa) = 0.01788902
#
# Stress axis : x y z
#
# Youngs Moduli (GPa) = 74.98144 74.49990 87.80516
#
# Poissons Ratio (x) = 0.12290 0.31445
# Poissons Ratio (y) = 0.12370 0.43013
# Poissons Ratio (z) = 0.26853 0.36495
#
# Static dielectric constant tensor:
#      x y z
#    x 3.080150 0.000000 0.000000 
#    y 0.000000 3.431220 0.000000 
#    z 0.000000 0.000000 3.425430 
# 
# 
# High freq. dielectric constant tensor:
#      x y z
#    x 1.651710 0.000000 0.000000 
#    y 0.000000 1.689040 0.000000 
#    z 0.000000 0.000000 1.688660 
# 
# From -- ./inp_files/42547.got.cif
#   From: 2010.03.12/outbox.cif.g09.slc.cpg/sg63_22_cif.got.tgz:42547.got - 2010.04.10 19:34:48.
