data_PCOD8257694
_publ_section_title
;
Structure prediction by ZEFSAII (Michael W. Deem and Ramdas Pophale) SiO2 
 PCOD8257694
Probable space group: C M C M
;
_chemical_formula_sum "Si O2"
_cell_formula_units_Z 80
_cell_length_a 28.611512
_cell_length_b 8.675127
_cell_length_c 16.734466
_cell_angle_alpha 90.000000
_cell_angle_beta 90.000000
_cell_angle_gamma 90.000000
_cell_volume 4153.636709
_symmetry_space_group_name_H-M "C M C M"
_symmetry_group_IT_number 63
_symmetry_cell_setting 'orthorhombic'
loop_
_space_group_symop_operation_xyz
x,y,z
-x,-y,1/2+z
x,-y,-z
-x,y,1/2-z
-x,-y,-z
x,y,1/2-z
-x,y,z
x,-y,1/2+z
1/2+x,1/2+y,z
1/2-x,1/2-y,1/2+z
1/2+x,1/2-y,-z
1/2-x,1/2+y,1/2-z
1/2-x,1/2-y,-z
1/2+x,1/2+y,1/2-z
1/2-x,1/2+y,z
1/2+x,1/2-y,1/2+z
loop_
_atom_site_type_symbol
_atom_site_label
_atom_site_fract_x
_atom_site_fract_y
_atom_site_fract_z
Si Si1 0.699210 0.318728 0.512455
Si Si2 0.145975 0.697698 0.659820
Si Si3 0.447019 0.657207 0.103800
Si Si4 0.868537 0.399669 0.577001
Si Si5 0.052077 0.187860 0.915539
O O1 0.699421 0.500000 0.500000
O O2 0.750000 0.250000 0.500000
O O3 0.679851 0.293021 0.601726
O O4 0.667455 0.234064 0.446910
O O5 0.161800 0.731960 0.750000
O O6 0.091227 0.741255 0.649559
O O7 0.152941 0.515638 0.642197
O O8 0.500000 0.706373 0.128337
O O9 0.438866 0.477511 0.125390
O O10 0.439557 0.676645 0.009953
O O11 0.883714 0.500000 0.500000
O O12 0.912969 0.316989 0.617841
O O13 0.000000 0.244340 0.896134
#
# Coordination Sequence:
#
# PCOD8257694 Si02
#       5
#    16  16  16  16  16
#     4  11  22  42  68  89 110 147 193 238 291 349
#     4  11  23  38  57  88 125 155 191 239 295 348
#     4   9  17  31  54  83 118 157 199 244 287 336
#     4  10  19  33  55  83 115 151 190 234 282 343
#     4   9  16  29  53  84 112 151 208 250 276 328
#
# _framework density 19.260228999999999
#
# number of rings (size 3 to 8) (size 9 to 14) (size 15 to 20)
#    0.000    2.000    4.000    4.200    0.000    1.600 
#    0.000    8.000    0.000    1.200    0.000    0.000 
#    0.000    0.000    0.000    0.000    0.000    0.000 
#
# Total GULP energy -495889.658976 kJ/mol
# GULP energy per Si atom -12397.241474 kJ/mol
# Density = 1.921639 g / cm^3
# Si number density = 19.260229 Si / 1000 Ang^3
#
#
#
# Elastic Constant Matrix: (Units=GPa)
#
#
# Indices 1 2 3 4 5 6 
#
# 1 124.7166 68.1044 38.4271 0.0000 0.0000 0.0000
# 2 68.1044 147.3878 36.1819 0.0000 0.0000 0.0000
# 3 38.4271 36.1819 87.2296 0.0000 0.0000 0.0000
# 4 0.0000 0.0000 0.0000 13.7216 0.0000 0.0000
# 5 0.0000 0.0000 0.0000 0.0000 12.0352 0.0000
# 6 0.0000 0.0000 0.0000 0.0000 0.0000 41.6387
#
#
#
# Elastic Compliance Matrix: (Units=1/GPa)
#
#
# Indices 1 2 3 4 5 6 
#
# 1 0.011464 -0.004517 -0.003176 0.000000 0.000000 0.000000
# 2 -0.004517 0.009334 -0.001882 0.000000 0.000000 0.000000
# 3 -0.003176 -0.001882 0.013644 0.000000 0.000000 0.000000
# 4 0.000000 0.000000 0.000000 0.072878 0.000000 0.000000
# 5 0.000000 0.000000 0.000000 0.000000 0.083089 0.000000
# 6 0.000000 0.000000 0.000000 0.000000 0.000000 0.024016
#
#
# Mechanical properties :
#
#
# Convention : Reuss Voigt Hill
#
# Bulk Modulus (GPa) = 65.39855 71.64008 68.51932
# Shear Modulus (GPa) = 20.94923 27.92049 24.43486
#
# Velocity S-wave (km/s) = 3.30160 3.81155 3.56570
# Velocity P-wave (km/s) = 6.96872 7.52643 7.25294
#
# Compressibility (1/GPa) = 0.01529086
#
# Stress axis : x y z
#
# Youngs Moduli (GPa) = 87.23229 107.13406 73.29361
#
# Poissons Ratio (x) = 0.48396 0.23280
# Poissons Ratio (y) = 0.39406 0.13791
# Poissons Ratio (z) = 0.27708 0.20159
#
# Static dielectric constant tensor:
#      x y z
#    x 3.867270 0.000000 0.000000 
#    y 0.000000 3.848440 0.000000 
#    z 0.000000 0.000000 3.151410 
# 
# 
# High freq. dielectric constant tensor:
#      x y z
#    x 1.750960 0.000000 0.000000 
#    y 0.000000 1.761090 0.000000 
#    z 0.000000 0.000000 1.700120 
# 
# From -- ./inp_files/49427.got.cif
#   From: 2010.03.12/outbox.cif.g09.slc.cpg/sg63_25_cif.got.tgz:49427.got - 2010.04.10 19:34:48.
