data_PCOD8257794
_publ_section_title
;
Structure prediction by ZEFSAII (Michael W. Deem and Ramdas Pophale) SiO2 
 PCOD8257794
Probable space group: C M C M
;
_chemical_formula_sum "Si O2"
_cell_formula_units_Z 88
_cell_length_a 12.538943
_cell_length_b 26.790104
_cell_length_c 15.361614
_cell_angle_alpha 90.000000
_cell_angle_beta 90.000000
_cell_angle_gamma 90.000000
_cell_volume 5160.267031
_symmetry_space_group_name_H-M "C M C M"
_symmetry_group_IT_number 63
_symmetry_cell_setting 'orthorhombic'
loop_
_space_group_symop_operation_xyz
x,y,z
-x,-y,1/2+z
x,-y,-z
-x,y,1/2-z
-x,-y,-z
x,y,1/2-z
-x,y,z
x,-y,1/2+z
1/2+x,1/2+y,z
1/2-x,1/2-y,1/2+z
1/2+x,1/2-y,-z
1/2-x,1/2+y,1/2-z
1/2-x,1/2-y,-z
1/2+x,1/2+y,1/2-z
1/2-x,1/2+y,z
1/2+x,1/2-y,1/2+z
loop_
_atom_site_type_symbol
_atom_site_label
_atom_site_fract_x
_atom_site_fract_y
_atom_site_fract_z
Si Si1 0.252686 0.997911 0.250000
Si Si2 0.126413 0.898310 0.250000
Si Si3 0.126342 0.271310 0.150558
Si Si4 0.875429 0.164652 0.416235
Si Si5 0.874421 0.466920 0.082861
Si Si6 0.750771 0.364761 0.415257
Si Si7 0.623297 0.598602 0.250000
O O1 0.195154 0.050286 0.250000
O O2 0.162239 0.955664 0.250000
O O3 0.327589 0.994537 0.166364
O O4 0.170472 0.870580 0.334913
O O5 0.000000 0.895403 0.250000
O O6 0.166790 0.271321 0.250000
O O7 0.164258 0.220599 0.103903
O O8 0.175556 0.316992 0.098370
O O9 0.000000 0.276201 0.148027
O O10 0.816300 0.141682 0.498003
O O11 0.847951 0.130887 0.333829
O O12 0.000000 0.164340 0.436850
O O13 0.826335 0.412139 0.073166
O O14 0.000000 0.461389 0.094365
O O15 0.843263 0.500000 0.000000
O O16 0.500000 0.582632 0.250000
#
# Coordination Sequence:
#
# PCOD8257794 Si02
#       7
#     8   8  16  16  16  16   8
#     4  10  20  34  54  76 100 136 172 210 258 310
#     4  10  21  34  48  73 107 134 168 211 255 305
#     4  10  19  34  54  79 106 134 174 220 261 306
#     4  10  20  34  54  78 106 137 173 215 262 313
#     4  10  21  36  53  77 106 135 173 218 259 304
#     4  11  20  34  54  78 103 141 176 210 261 311
#     4  10  19  34  54  77 103 136 174 215 261 311
#
# _framework density 17.053381000000002
#
# number of rings (size 3 to 8) (size 9 to 14) (size 15 to 20)
#    0.000    1.818    1.818    3.273    0.000    0.000 
#    0.000    0.000    0.000    8.727    0.000    2.545 
#    0.000    0.000    0.000    0.000    0.000    0.000 
#
# Total GULP energy -545740.996826 kJ/mol
# GULP energy per Si atom -12403.204473 kJ/mol
# Density = 1.701457 g / cm^3
# Si number density = 17.053381 Si / 1000 Ang^3
#
#
#
# Elastic Constant Matrix: (Units=GPa)
#
#
# Indices 1 2 3 4 5 6 
#
# 1 71.1387 62.4651 64.8704 0.0000 0.0000 0.0000
# 2 62.4651 138.4909 77.8925 0.0000 0.0000 0.0000
# 3 64.8704 77.8925 150.9680 0.0000 0.0000 0.0000
# 4 0.0000 0.0000 0.0000 42.5155 0.0000 0.0000
# 5 0.0000 0.0000 0.0000 0.0000 40.1068 0.0000
# 6 0.0000 0.0000 0.0000 0.0000 0.0000 26.9309
#
#
#
# Elastic Compliance Matrix: (Units=1/GPa)
#
#
# Indices 1 2 3 4 5 6 
#
# 1 0.028809 -0.008497 -0.007995 0.000000 0.000000 0.000000
# 2 -0.008497 0.012679 -0.002891 0.000000 0.000000 0.000000
# 3 -0.007995 -0.002891 0.011551 0.000000 0.000000 0.000000
# 4 0.000000 0.000000 0.000000 0.023521 0.000000 0.000000
# 5 0.000000 0.000000 0.000000 0.000000 0.024933 0.000000
# 6 0.000000 0.000000 0.000000 0.000000 0.000000 0.037132
#
#
# Mechanical properties :
#
#
# Convention : Reuss Voigt Hill
#
# Bulk Modulus (GPa) = 70.06189 85.67262 77.86726
# Shear Modulus (GPa) = 27.45028 32.26861 29.85945
#
# Velocity S-wave (km/s) = 4.01642 4.35468 4.18896
# Velocity P-wave (km/s) = 7.91719 8.69662 8.31604
#
# Compressibility (1/GPa) = 0.01427309
#
# Stress axis : x y z
#
# Youngs Moduli (GPa) = 34.71188 78.86993 86.57554
#
# Poissons Ratio (x) = 0.67018 0.69215
# Poissons Ratio (y) = 0.29496 0.25025
# Poissons Ratio (z) = 0.27751 0.22798
#
# Static dielectric constant tensor:
#      x y z
#    x 3.074390 0.000000 0.000000 
#    y 0.000000 3.276040 0.000000 
#    z 0.000000 0.000000 3.305910 
# 
# 
# High freq. dielectric constant tensor:
#      x y z
#    x 1.653570 0.000000 0.000000 
#    y 0.000000 1.671350 0.000000 
#    z 0.000000 0.000000 1.672030 
# 
# From -- ./inp_files/30151.got.cif
#   From: 2010.03.12/outbox.cif.g09.slc.cpg/sg63_16_cif.got.tgz:30151.got - 2010.04.10 19:34:48.
