data_PCOD8257887
_publ_section_title
;
Structure prediction by ZEFSAII (Michael W. Deem and Ramdas Pophale) SiO2 
 PCOD8257887
Probable space group: C M C M
;
_chemical_formula_sum "Si O2"
_cell_formula_units_Z 96
_cell_length_a 19.441210
_cell_length_b 28.914887
_cell_length_c 8.898934
_cell_angle_alpha 90.000000
_cell_angle_beta 90.000000
_cell_angle_gamma 90.000000
_cell_volume 5002.450232
_symmetry_space_group_name_H-M "C M C M"
_symmetry_group_IT_number 63
_symmetry_cell_setting 'orthorhombic'
loop_
_space_group_symop_operation_xyz
x,y,z
-x,-y,1/2+z
x,-y,-z
-x,y,1/2-z
-x,-y,-z
x,y,1/2-z
-x,y,z
x,-y,1/2+z
1/2+x,1/2+y,z
1/2-x,1/2-y,1/2+z
1/2+x,1/2-y,-z
1/2-x,1/2+y,1/2-z
1/2-x,1/2-y,-z
1/2+x,1/2+y,1/2-z
1/2-x,1/2+y,z
1/2+x,1/2-y,1/2+z
loop_
_atom_site_type_symbol
_atom_site_label
_atom_site_fract_x
_atom_site_fract_y
_atom_site_fract_z
Si Si1 0.076618 0.951144 0.921408
Si Si2 0.304396 0.304497 0.415715
Si Si3 0.700117 0.406678 0.071733
Si Si4 0.148672 0.722627 0.915842
Si Si5 0.670155 0.951517 0.928619
Si Si6 0.578899 0.135586 0.072764
O O1 0.104085 0.955128 0.750000
O O2 0.000000 0.929945 0.922389
O O3 0.123589 0.919215 0.023931
O O4 0.076744 0.000000 0.000000
O O5 0.336192 0.310937 0.250000
O O6 0.292149 0.354539 0.489947
O O7 0.229981 0.282105 0.404786
O O8 0.359842 0.272538 0.503752
O O9 0.711771 0.410901 0.250000
O O10 0.754064 0.439889 0.988907
O O11 0.115534 0.724488 0.750000
O O12 0.113163 0.681066 0.004089
O O13 0.671813 0.956647 0.750000
O O14 0.618128 0.910836 0.980700
O O15 0.645034 0.000000 0.000000
O O16 0.584361 0.140839 0.250000
O O17 0.500000 0.131707 0.019292
#
# Coordination Sequence:
#
# PCOD8257887 Si02
#       6
#    16  16  16  16  16  16
#     4  10  21  37  56  79 109 146 187 228 275 333
#     4   9  19  34  55  83 114 145 180 224 276 332
#     4  11  21  36  58  85 116 148 187 233 282 336
#     4  10  19  34  57  85 112 142 184 229 275 330
#     4  11  23  38  58  83 114 150 193 243 293 342
#     4  10  22  40  60  82 113 154 196 239 292 349
#
# _framework density 19.190597
#
# number of rings (size 3 to 8) (size 9 to 14) (size 15 to 20)
#    0.000    1.833    1.667    2.500    0.000    4.333 
#    0.000    0.833    0.000    1.000    0.000    0.000 
#    0.000    0.000    0.000    0.000    0.000    0.000 
#
# Total GULP energy -595042.575937 kJ/mol
# GULP energy per Si atom -12396.720332 kJ/mol
# Density = 1.914692 g / cm^3
# Si number density = 19.190597 Si / 1000 Ang^3
#
#
#
# Elastic Constant Matrix: (Units=GPa)
#
#
# Indices 1 2 3 4 5 6 
#
# 1 67.6487 28.8007 31.2030 0.0000 0.0000 0.0000
# 2 28.8007 98.4265 37.1176 0.0000 0.0000 0.0000
# 3 31.2030 37.1176 63.9251 0.0000 0.0000 0.0000
# 4 0.0000 0.0000 0.0000 29.3771 0.0000 0.0000
# 5 0.0000 0.0000 0.0000 0.0000 16.0696 0.0000
# 6 0.0000 0.0000 0.0000 0.0000 0.0000 21.7459
#
#
#
# Elastic Compliance Matrix: (Units=1/GPa)
#
#
# Indices 1 2 3 4 5 6 
#
# 1 0.019633 -0.002728 -0.007999 0.000000 0.000000 0.000000
# 2 -0.002728 0.013387 -0.006441 0.000000 0.000000 0.000000
# 3 -0.007999 -0.006441 0.023288 0.000000 0.000000 0.000000
# 4 0.000000 0.000000 0.000000 0.034040 0.000000 0.000000
# 5 0.000000 0.000000 0.000000 0.000000 0.062229 0.000000
# 6 0.000000 0.000000 0.000000 0.000000 0.000000 0.045986
#
#
# Mechanical properties :
#
#
# Convention : Reuss Voigt Hill
#
# Bulk Modulus (GPa) = 45.51518 47.13810 46.32664
# Shear Modulus (GPa) = 20.81373 22.29711 21.55542
#
# Velocity S-wave (km/s) = 3.29687 3.41233 3.35510
# Velocity P-wave (km/s) = 6.18558 6.33575 6.26112
#
# Compressibility (1/GPa) = 0.02197069
#
# Stress axis : x y z
#
# Youngs Moduli (GPa) = 50.93338 74.69724 42.94044
#
# Poissons Ratio (x) = 0.20380 0.34349
# Poissons Ratio (y) = 0.13897 0.27660
# Poissons Ratio (z) = 0.40743 0.48116
#
# Static dielectric constant tensor:
#      x y z
#    x 3.470610 0.000000 0.000000 
#    y 0.000000 3.538310 0.000000 
#    z 0.000000 0.000000 3.725510 
# 
# 
# High freq. dielectric constant tensor:
#      x y z
#    x 1.725630 0.000000 0.000000 
#    y 0.000000 1.754200 0.000000 
#    z 0.000000 0.000000 1.754440 
# 
# From -- ./inp_files/8580.got.cif
#   From: 2010.03.12/outbox.cif.g09.slc.cpg/sg63_5_cif.got.tgz:8580.got - 2010.04.10 19:34:48.
