data_PCOD8257071
_publ_section_title
;
Structure prediction by ZEFSAII (Michael W. Deem and Ramdas Pophale) SiO2 
 PCOD8257071
Probable space group: C M C M
;
_chemical_formula_sum "Si O2"
_cell_formula_units_Z 96
_cell_length_a 12.721429
_cell_length_b 16.890471
_cell_length_c 23.996164
_cell_angle_alpha 90.000000
_cell_angle_beta 90.000000
_cell_angle_gamma 90.000000
_cell_volume 5156.078018
_symmetry_space_group_name_H-M "C M C M"
_symmetry_group_IT_number 63
_symmetry_cell_setting 'orthorhombic'
loop_
_space_group_symop_operation_xyz
x,y,z
-x,-y,1/2+z
x,-y,-z
-x,y,1/2-z
-x,-y,-z
x,y,1/2-z
-x,y,z
x,-y,1/2+z
1/2+x,1/2+y,z
1/2-x,1/2-y,1/2+z
1/2+x,1/2-y,-z
1/2-x,1/2+y,1/2-z
1/2-x,1/2-y,-z
1/2+x,1/2+y,1/2-z
1/2-x,1/2+y,z
1/2+x,1/2-y,1/2+z
loop_
_atom_site_type_symbol
_atom_site_label
_atom_site_fract_x
_atom_site_fract_y
_atom_site_fract_z
Si Si1 0.828690 0.119165 0.686954
Si Si2 0.304368 0.674458 0.107076
Si Si3 0.379003 0.410968 0.498906
Si Si4 0.120171 0.053114 0.185655
Si Si5 0.118605 0.782501 0.412456
Si Si6 0.116240 0.693860 0.687592
O O1 0.868326 0.130750 0.750000
O O2 0.882127 0.188411 0.651293
O O3 0.701783 0.124137 0.682538
O O4 0.867609 0.035769 0.662824
O O5 0.368258 0.635583 0.056709
O O6 0.294654 0.606365 0.153646
O O7 0.191813 0.704465 0.084058
O O8 0.367816 0.744559 0.137339
O O9 0.326685 0.500000 0.500000
O O10 0.500000 0.423260 0.484234
O O11 0.332474 0.353176 0.450778
O O12 0.150904 0.055593 0.250000
O O13 0.000000 0.082086 0.175314
O O14 0.000000 0.759091 0.430896
O O15 0.126714 0.733511 0.750000
O O16 0.000000 0.656846 0.680862
#
# Coordination Sequence:
#
# PCOD8257071 Si02
#       6
#    16  16  16  16  16  16
#     4   9  18  32  51  74 100 132 166 201 245 292
#     4  11  20  32  51  73 100 131 163 201 247 294
#     4  10  20  34  54  77  98 123 158 202 250 294
#     4  10  19  31  50  76 102 127 162 209 251 287
#     4  10  21  35  50  72 102 132 164 203 244 292
#     4   9  17  30  49  74 102 130 162 201 243 290
#
# _framework density 18.618803
#
# number of rings (size 3 to 8) (size 9 to 14) (size 15 to 20)
#    0.000    2.167    0.000    4.000    0.000    4.333 
#    0.000    0.833    0.000    1.500    0.000    0.000 
#    0.000    0.000    0.000    0.000    0.000    0.000 
#
# Total GULP energy -594870.147587 kJ/mol
# GULP energy per Si atom -12393.128075 kJ/mol
# Density = 1.857643 g / cm^3
# Si number density = 18.618803 Si / 1000 Ang^3
#
#
#
# Elastic Constant Matrix: (Units=GPa)
#
#
# Indices 1 2 3 4 5 6 
#
# 1 67.3758 21.8778 18.1597 0.0000 0.0000 0.0000
# 2 21.8778 76.7475 32.7048 0.0000 0.0000 0.0000
# 3 18.1597 32.7048 72.6605 0.0000 0.0000 0.0000
# 4 0.0000 0.0000 0.0000 34.3830 0.0000 0.0000
# 5 0.0000 0.0000 0.0000 0.0000 21.8907 0.0000
# 6 0.0000 0.0000 0.0000 0.0000 0.0000 27.7998
#
#
#
# Elastic Compliance Matrix: (Units=1/GPa)
#
#
# Indices 1 2 3 4 5 6 
#
# 1 0.016720 -0.003694 -0.002516 0.000000 0.000000 0.000000
# 2 -0.003694 0.016938 -0.006701 0.000000 0.000000 0.000000
# 3 -0.002516 -0.006701 0.017407 0.000000 0.000000 0.000000
# 4 0.000000 0.000000 0.000000 0.029084 0.000000 0.000000
# 5 0.000000 0.000000 0.000000 0.000000 0.045682 0.000000
# 6 0.000000 0.000000 0.000000 0.000000 0.000000 0.035971
#
#
# Mechanical properties :
#
#
# Convention : Reuss Voigt Hill
#
# Bulk Modulus (GPa) = 39.61347 40.25205 39.93276
# Shear Modulus (GPa) = 25.50519 26.41748 25.96133
#
# Velocity S-wave (km/s) = 3.70518 3.77086 3.73817
# Velocity P-wave (km/s) = 6.29498 6.37379 6.33450
#
# Compressibility (1/GPa) = 0.02524394
#
# Stress axis : x y z
#
# Youngs Moduli (GPa) = 59.80956 59.03827 57.44661
#
# Poissons Ratio (x) = 0.21809 0.14454
# Poissons Ratio (y) = 0.22094 0.38493
# Poissons Ratio (z) = 0.15048 0.39560
#
# Static dielectric constant tensor:
#      x y z
#    x 3.350390 0.000000 0.000000 
#    y 0.000000 3.458370 0.000000 
#    z 0.000000 0.000000 3.548450 
# 
# 
# High freq. dielectric constant tensor:
#      x y z
#    x 1.696560 0.000000 0.000000 
#    y 0.000000 1.706230 0.000000 
#    z 0.000000 0.000000 1.736760 
# 
# From -- ./inp_files/61445.got.cif
#   From: 2010.03.12/outbox.cif.g09.slc.cpg/sg63_31_cif.got.tgz:61445.got - 2010.04.10 19:34:48.
