data_PCOD8257109
_publ_section_title
;
Structure prediction by ZEFSAII (Michael W. Deem and Ramdas Pophale) SiO2 
 PCOD8257109
Probable space group: C M C M
;
_chemical_formula_sum "Si O2"
_cell_formula_units_Z 128
_cell_length_a 10.386439
_cell_length_b 27.690499
_cell_length_c 24.221708
_cell_angle_alpha 90.000000
_cell_angle_beta 90.000000
_cell_angle_gamma 90.000000
_cell_volume 6966.300770
_symmetry_space_group_name_H-M "C M C M"
_symmetry_group_IT_number 63
_symmetry_cell_setting 'orthorhombic'
loop_
_space_group_symop_operation_xyz
x,y,z
-x,-y,1/2+z
x,-y,-z
-x,y,1/2-z
-x,-y,-z
x,y,1/2-z
-x,y,z
x,-y,1/2+z
1/2+x,1/2+y,z
1/2-x,1/2-y,1/2+z
1/2+x,1/2-y,-z
1/2-x,1/2+y,1/2-z
1/2-x,1/2-y,-z
1/2+x,1/2+y,1/2-z
1/2-x,1/2+y,z
1/2+x,1/2-y,1/2+z
loop_
_atom_site_type_symbol
_atom_site_label
_atom_site_fract_x
_atom_site_fract_y
_atom_site_fract_z
Si Si1 0.851008 0.387717 0.310236
Si Si2 0.855349 0.585643 0.371495
Si Si3 0.232874 0.366210 0.978544
Si Si4 0.853317 0.474314 0.117856
Si Si5 0.351974 0.282078 0.589241
Si Si6 0.851855 0.675610 0.908967
Si Si7 0.146456 0.851040 0.813309
Si Si8 0.357975 0.450816 0.467340
O O1 0.785481 0.379165 0.250000
O O2 0.837661 0.444495 0.325411
O O3 0.786997 0.354131 0.358078
O O4 0.000000 0.374120 0.306024
O O5 0.857335 0.609179 0.432389
O O6 0.816374 0.529680 0.373490
O O7 0.749039 0.608917 0.331744
O O8 0.000000 0.591797 0.347087
O O9 0.287714 0.316248 0.955832
O O10 0.156813 0.353939 0.034221
O O11 0.345203 0.404861 0.991838
O O12 0.756575 0.448435 0.076116
O O13 0.000000 0.469546 0.095044
O O14 0.500000 0.278656 0.572448
O O15 0.287069 0.228838 0.587024
O O16 0.332663 0.302873 0.650870
O O17 0.000000 0.682929 0.894401
O O18 0.171106 0.837086 0.750000
O O19 0.000000 0.870740 0.822017
O O20 0.342509 0.500000 0.500000
O O21 0.500000 0.448329 0.439643
#
# Coordination Sequence:
#
# PCOD8257109 Si02
#       8
#    16  16  16  16  16  16  16  16
#     4   9  18  32  51  76 104 134 174 224 272 315
#     4  10  21  33  52  81 110 143 179 221 270 322
#     4  11  19  33  51  75 110 143 177 220 265 329
#     4  10  20  35  53  78 108 142 177 219 268 317
#     4   9  19  33  50  75 104 137 178 224 271 319
#     4  10  19  31  51  77 105 136 176 226 276 319
#     4   9  19  36  56  77 106 143 181 224 272 322
#     4  11  22  34  52  80 109 145 182 217 261 320
#
# _framework density 18.374172000000002
#
# number of rings (size 3 to 8) (size 9 to 14) (size 15 to 20)
#    0.000    2.125    2.500    1.125    0.000    3.000 
#    0.000    3.750    0.000    1.125    0.000    0.000 
#    0.000    0.000    0.000    0.000    0.000    0.000 
#
# Total GULP energy -793185.525829 kJ/mol
# GULP energy per Si atom -12393.523841 kJ/mol
# Density = 1.833235 g / cm^3
# Si number density = 18.374172 Si / 1000 Ang^3
#
#
#
# Elastic Constant Matrix: (Units=GPa)
#
#
# Indices 1 2 3 4 5 6 
#
# 1 61.8772 21.6893 24.4649 0.0000 0.0000 0.0000
# 2 21.6893 137.5324 47.3849 0.0000 0.0000 0.0000
# 3 24.4649 47.3849 112.8192 0.0000 0.0000 0.0000
# 4 0.0000 0.0000 0.0000 18.6076 0.0000 0.0000
# 5 0.0000 0.0000 0.0000 0.0000 20.5240 0.0000
# 6 0.0000 0.0000 0.0000 0.0000 0.0000 20.4676
#
#
#
# Elastic Compliance Matrix: (Units=1/GPa)
#
#
# Indices 1 2 3 4 5 6 
#
# 1 0.018030 -0.001749 -0.003175 0.000000 0.000000 0.000000
# 2 -0.001749 0.008671 -0.003263 0.000000 0.000000 0.000000
# 3 -0.003175 -0.003263 0.010923 0.000000 0.000000 0.000000
# 4 0.000000 0.000000 0.000000 0.053742 0.000000 0.000000
# 5 0.000000 0.000000 0.000000 0.000000 0.048723 0.000000
# 6 0.000000 0.000000 0.000000 0.000000 0.000000 0.048858
#
#
# Mechanical properties :
#
#
# Convention : Reuss Voigt Hill
#
# Bulk Modulus (GPa) = 47.06049 55.47859 51.26954
# Shear Modulus (GPa) = 23.54020 26.49914 25.01967
#
# Velocity S-wave (km/s) = 3.58321 3.80174 3.69409
# Velocity P-wave (km/s) = 6.54118 7.03778 6.79402
#
# Compressibility (1/GPa) = 0.02124925
#
# Stress axis : x y z
#
# Youngs Moduli (GPa) = 55.46446 115.32754 91.55407
#
# Poissons Ratio (x) = 0.20176 0.29068
# Poissons Ratio (y) = 0.09703 0.29870
# Poissons Ratio (z) = 0.17610 0.37626
#
# Static dielectric constant tensor:
#      x y z
#    x 3.176750 0.000000 0.000000 
#    y 0.000000 3.626680 0.000000 
#    z 0.000000 0.000000 3.440430 
# 
# 
# High freq. dielectric constant tensor:
#      x y z
#    x 1.682320 0.000000 0.000000 
#    y 0.000000 1.725790 0.000000 
#    z 0.000000 0.000000 1.705660 
# 
# From -- ./inp_files/62189.got.cif
#   From: 2010.03.12/outbox.cif.g09.slc.cpg/sg63_32_cif.got.tgz:62189.got - 2010.04.10 19:34:48.
