data_PCOD8257367
_publ_section_title
;
Structure prediction by ZEFSAII (Michael W. Deem and Ramdas Pophale) SiO2 
 PCOD8257367
Probable space group: C M C M
;
_chemical_formula_sum "Si O2"
_cell_formula_units_Z 88
_cell_length_a 21.910927
_cell_length_b 22.646348
_cell_length_c 9.948721
_cell_angle_alpha 90.000000
_cell_angle_beta 90.000000
_cell_angle_gamma 90.000000
_cell_volume 4936.580012
_symmetry_space_group_name_H-M "C M C M"
_symmetry_group_IT_number 63
_symmetry_cell_setting 'orthorhombic'
loop_
_space_group_symop_operation_xyz
x,y,z
-x,-y,1/2+z
x,-y,-z
-x,y,1/2-z
-x,-y,-z
x,y,1/2-z
-x,y,z
x,-y,1/2+z
1/2+x,1/2+y,z
1/2-x,1/2-y,1/2+z
1/2+x,1/2-y,-z
1/2-x,1/2+y,1/2-z
1/2-x,1/2-y,-z
1/2+x,1/2+y,1/2-z
1/2-x,1/2+y,z
1/2+x,1/2-y,1/2+z
loop_
_atom_site_type_symbol
_atom_site_label
_atom_site_fract_x
_atom_site_fract_y
_atom_site_fract_z
Si Si1 0.866526 0.442495 0.906000
Si Si2 0.571719 0.456245 0.250000
Si Si3 0.571370 0.635718 0.969613
Si Si4 0.722145 0.163380 0.093630
Si Si5 0.820440 0.207968 0.598288
Si Si6 0.571870 0.414146 0.750000
Si Si7 0.500000 0.052807 0.400047
O O1 0.855944 0.460668 0.750000
O O2 0.818833 0.392279 0.950157
O O3 0.935148 0.413619 0.923038
O O4 0.857384 0.500000 0.000000
O O5 0.500000 0.464607 0.250000
O O6 0.591352 0.421161 0.383088
O O7 0.603103 0.520846 0.250000
O O8 0.500000 0.650107 0.953342
O O9 0.591794 0.622863 0.121144
O O10 0.608230 0.692405 0.917797
O O11 0.741062 0.158927 0.250000
O O12 0.684730 0.223122 0.063026
O O13 0.782300 0.165591 0.001489
O O14 0.797867 0.195911 0.750000
O O15 0.500000 0.423586 0.750000
O O16 0.500000 0.026564 0.250000
O O17 0.500000 0.000000 0.500000
#
# Coordination Sequence:
#
# PCOD8257367 Si02
#       7
#    16   8  16  16  16   8   8
#     4   9  17  32  54  80 108 135 166 208 258 309
#     4   9  16  30  50  71 102 134 171 209 256 308
#     4  10  19  32  52  78 105 134 170 218 264 301
#     4   9  20  37  56  75  99 138 177 210 252 306
#     4  10  20  36  55  75 100 137 179 212 254 305
#     4   9  18  30  48  73 102 142 171 201 254 316
#     4   8  14  26  48  76 104 134 160 194 249 309
#
# _framework density 17.826107
#
# number of rings (size 3 to 8) (size 9 to 14) (size 15 to 20)
#    0.000    2.727    0.909    0.545    1.273    2.909 
#    1.636    1.818    0.000    0.000    0.000    0.000 
#    0.000    0.000    0.000    0.000    0.000    0.000 
#
# Total GULP energy -545236.328002 kJ/mol
# GULP energy per Si atom -12391.734727 kJ/mol
# Density = 1.778553 g / cm^3
# Si number density = 17.826107 Si / 1000 Ang^3
#
#
#
# Elastic Constant Matrix: (Units=GPa)
#
#
# Indices 1 2 3 4 5 6 
#
# 1 84.4714 52.0180 35.8517 0.0000 0.0000 0.0000
# 2 52.0180 79.9575 34.2025 0.0000 0.0000 0.0000
# 3 35.8517 34.2025 91.2315 0.0000 0.0000 0.0000
# 4 0.0000 0.0000 0.0000 28.2718 0.0000 0.0000
# 5 0.0000 0.0000 0.0000 0.0000 23.6002 0.0000
# 6 0.0000 0.0000 0.0000 0.0000 0.0000 26.0550
#
#
#
# Elastic Compliance Matrix: (Units=1/GPa)
#
#
# Indices 1 2 3 4 5 6 
#
# 1 0.020740 -0.011918 -0.003682 0.000000 0.000000 0.000000
# 2 -0.011918 0.021744 -0.003468 0.000000 0.000000 0.000000
# 3 -0.003682 -0.003468 0.013708 0.000000 0.000000 0.000000
# 4 0.000000 0.000000 0.000000 0.035371 0.000000 0.000000
# 5 0.000000 0.000000 0.000000 0.000000 0.042372 0.000000
# 6 0.000000 0.000000 0.000000 0.000000 0.000000 0.038380
#
#
# Mechanical properties :
#
#
# Convention : Reuss Voigt Hill
#
# Bulk Modulus (GPa) = 55.38521 55.53387 55.45954
# Shear Modulus (GPa) = 23.09772 24.49129 23.79450
#
# Velocity S-wave (km/s) = 3.60352 3.71064 3.65747
# Velocity P-wave (km/s) = 6.96067 7.04125 7.00108
#
# Compressibility (1/GPa) = 0.01805536
#
# Stress axis : x y z
#
# Youngs Moduli (GPa) = 48.21525 45.99055 72.94766
#
# Poissons Ratio (x) = 0.54811 0.26863
# Poissons Ratio (y) = 0.57462 0.25300
# Poissons Ratio (z) = 0.17755 0.15950
#
# Static dielectric constant tensor:
#      x y z
#    x 3.406590 0.000000 0.000000 
#    y 0.000000 3.175950 0.000000 
#    z 0.000000 0.000000 3.484980 
# 
# 
# High freq. dielectric constant tensor:
#      x y z
#    x 1.677980 0.000000 0.000000 
#    y 0.000000 1.665260 0.000000 
#    z 0.000000 0.000000 1.704060 
# 
# From -- ./inp_files/8267.got.cif
#   From: 2010.03.12/outbox.cif.g09.slc.cpg/sg63_5_cif.got.tgz:8267.got - 2010.04.10 19:34:48.
