data_PCOD8257225
_publ_section_title
;
Structure prediction by ZEFSAII (Michael W. Deem and Ramdas Pophale) SiO2 
 PCOD8257225
Probable space group: C M C M
;
_chemical_formula_sum "Si O2"
_cell_formula_units_Z 112
_cell_length_a 14.851699
_cell_length_b 28.301934
_cell_length_c 13.679333
_cell_angle_alpha 90.000000
_cell_angle_beta 90.000000
_cell_angle_gamma 90.000000
_cell_volume 5749.858730
_symmetry_space_group_name_H-M "C M C M"
_symmetry_group_IT_number 63
_symmetry_cell_setting 'orthorhombic'
loop_
_space_group_symop_operation_xyz
x,y,z
-x,-y,1/2+z
x,-y,-z
-x,y,1/2-z
-x,-y,-z
x,y,1/2-z
-x,y,z
x,-y,1/2+z
1/2+x,1/2+y,z
1/2-x,1/2-y,1/2+z
1/2+x,1/2-y,-z
1/2-x,1/2+y,1/2-z
1/2-x,1/2-y,-z
1/2+x,1/2+y,1/2-z
1/2-x,1/2+y,z
1/2+x,1/2-y,1/2+z
loop_
_atom_site_type_symbol
_atom_site_label
_atom_site_fract_x
_atom_site_fract_y
_atom_site_fract_z
Si Si1 0.097899 0.931200 0.012658
Si Si2 0.835554 0.005983 0.143116
Si Si3 0.896021 0.253133 0.639144
Si Si4 0.395646 0.671919 0.488577
Si Si5 0.134906 0.521388 0.641581
Si Si6 0.598895 0.077242 0.046260
Si Si7 0.776204 0.656377 0.364368
O O1 0.116733 0.877737 0.045738
O O2 0.000000 0.933848 0.962268
O O3 0.168101 0.949015 0.929701
O O4 0.096246 0.965812 0.105605
O O5 0.864357 0.023918 0.250000
O O6 0.741606 0.979696 0.143423
O O7 0.877861 0.235767 0.750000
O O8 0.867153 0.211940 0.565015
O O9 0.837545 0.298547 0.613989
O O10 0.000000 0.266767 0.624886
O O11 0.500000 0.678826 0.452468
O O12 0.325387 0.669526 0.398524
O O13 0.097200 0.533100 0.750000
O O14 0.107007 0.563031 0.567887
O O15 0.099606 0.470218 0.610173
O O16 0.500000 0.100881 0.061672
O O17 0.678530 0.112665 0.077876
O O18 0.773106 0.643389 0.250000
#
# Coordination Sequence:
#
# PCOD8257225 Si02
#       7
#    16  16  16  16  16  16  16
#     4  10  20  32  47  71 103 137 178 225 266 310
#     4  10  19  32  50  71 100 139 179 219 264 315
#     4   9  19  37  61  87 111 136 172 222 277 330
#     4  10  21  37  57  81 111 145 180 221 270 325
#     4  10  20  34  53  77 108 145 183 226 275 329
#     4  11  22  35  55  81 110 146 185 227 276 328
#     4  11  22  37  58  83 112 144 182 227 271 322
#
# _framework density 19.478739999999998
#
# number of rings (size 3 to 8) (size 9 to 14) (size 15 to 20)
#    0.000    1.857    0.000    6.429    0.000    6.286 
#    0.000    3.571    0.000    0.857    0.000    2.000 
#    0.000    0.000    0.000    0.000    0.000    0.000 
#
# Total GULP energy -694038.382008 kJ/mol
# GULP energy per Si atom -12393.542536 kJ/mol
# Density = 1.943441 g / cm^3
# Si number density = 19.478740 Si / 1000 Ang^3
#
#
#
# Elastic Constant Matrix: (Units=GPa)
#
#
# Indices 1 2 3 4 5 6 
#
# 1 95.3435 40.3312 44.8715 0.0000 0.0000 0.0000
# 2 40.3312 104.8860 54.1357 0.0000 0.0000 0.0000
# 3 44.8715 54.1357 128.1840 0.0000 0.0000 0.0000
# 4 0.0000 0.0000 0.0000 22.4321 0.0000 0.0000
# 5 0.0000 0.0000 0.0000 0.0000 8.0257 0.0000
# 6 0.0000 0.0000 0.0000 0.0000 0.0000 28.3144
#
#
#
# Elastic Compliance Matrix: (Units=1/GPa)
#
#
# Indices 1 2 3 4 5 6 
#
# 1 0.013502 -0.003520 -0.003240 0.000000 0.000000 0.000000
# 2 -0.003520 0.013109 -0.004304 0.000000 0.000000 0.000000
# 3 -0.003240 -0.004304 0.010753 0.000000 0.000000 0.000000
# 4 0.000000 0.000000 0.000000 0.044579 0.000000 0.000000
# 5 0.000000 0.000000 0.000000 0.000000 0.124600 0.000000
# 6 0.000000 0.000000 0.000000 0.000000 0.000000 0.035318
#
#
# Mechanical properties :
#
#
# Convention : Reuss Voigt Hill
#
# Bulk Modulus (GPa) = 65.63122 67.45451 66.54287
# Shear Modulus (GPa) = 18.58270 24.35946 21.47108
#
# Velocity S-wave (km/s) = 3.09204 3.54017 3.32367
# Velocity P-wave (km/s) = 6.82016 7.17045 6.99750
#
# Compressibility (1/GPa) = 0.01523665
#
# Stress axis : x y z
#
# Youngs Moduli (GPa) = 74.06275 76.28265 92.99451
#
# Poissons Ratio (x) = 0.26848 0.30131
# Poissons Ratio (y) = 0.26067 0.40028
# Poissons Ratio (z) = 0.23997 0.32835
#
# Static dielectric constant tensor:
#      x y z
#    x 3.771680 0.000000 0.000000 
#    y 0.000000 3.455640 0.000000 
#    z 0.000000 0.000000 3.656960 
# 
# 
# High freq. dielectric constant tensor:
#      x y z
#    x 1.775460 0.000000 0.000000 
#    y 0.000000 1.744750 0.000000 
#    z 0.000000 0.000000 1.746620 
# 
# From -- ./inp_files/32568.got.cif
#   From: 2010.03.12/outbox.cif.g09.slc.cpg/sg63_17_cif.got.tgz:32568.got - 2010.04.10 19:34:48.
