data_PCOD8257435
_publ_section_title
;
Structure prediction by ZEFSAII (Michael W. Deem and Ramdas Pophale) SiO2 
 PCOD8257435
Probable space group: C M C M
;
_chemical_formula_sum "Si O2"
_cell_formula_units_Z 96
_cell_length_a 19.293425
_cell_length_b 15.091737
_cell_length_c 12.632871
_cell_angle_alpha 90.000000
_cell_angle_beta 90.000000
_cell_angle_gamma 90.000000
_cell_volume 3678.329420
_symmetry_space_group_name_H-M "C M C M"
_symmetry_group_IT_number 63
_symmetry_cell_setting 'orthorhombic'
loop_
_space_group_symop_operation_xyz
x,y,z
-x,-y,1/2+z
x,-y,-z
-x,y,1/2-z
-x,-y,-z
x,y,1/2-z
-x,y,z
x,-y,1/2+z
1/2+x,1/2+y,z
1/2-x,1/2-y,1/2+z
1/2+x,1/2-y,-z
1/2-x,1/2+y,1/2-z
1/2-x,1/2-y,-z
1/2+x,1/2+y,1/2-z
1/2-x,1/2+y,z
1/2+x,1/2-y,1/2+z
loop_
_atom_site_type_symbol
_atom_site_label
_atom_site_fract_x
_atom_site_fract_y
_atom_site_fract_z
Si Si1 0.575811 0.316281 0.951897
Si Si2 0.922366 0.319208 0.870582
Si Si3 0.699271 0.941166 0.875880
Si Si4 0.077599 0.010347 0.871163
Si Si5 0.783263 0.219927 0.128936
Si Si6 0.218537 0.895189 0.125136
O O1 0.500000 0.289044 0.907165
O O2 0.586092 0.274531 0.068941
O O3 0.580478 0.424538 0.949392
O O4 0.634031 0.270177 0.880061
O O5 0.902312 0.295309 0.750000
O O6 0.873443 0.398566 0.915163
O O7 0.000000 0.356582 0.880192
O O8 0.697384 0.947994 0.750000
O O9 0.761666 0.876482 0.914935
O O10 0.721256 0.037978 0.920884
O O11 0.089366 0.977158 0.750000
O O12 0.139681 0.077774 0.903433
O O13 0.000000 0.054983 0.880234
O O14 0.761484 0.224997 0.250000
O O15 0.737139 0.298659 0.074413
O O16 0.228366 0.893859 0.250000
#
# Coordination Sequence:
#
# PCOD8257435 Si02
#       6
#    16  16  16  16  16  16
#     4  10  19  32  55  85 114 148 192 240 297 353
#     4   9  19  36  57  79 105 147 198 242 288 348
#     4   9  17  33  55  76 106 150 194 237 286 344
#     4   9  16  29  52  82 117 154 191 236 291 346
#     4  10  19  32  53  84 120 151 186 236 289 348
#     4   9  17  31  51  79 116 156 192 230 285 349
#
# _framework density 26.098804999999999
#
# number of rings (size 3 to 8) (size 9 to 14) (size 15 to 20)
#    0.000    2.667    1.667    0.500    0.000    1.667 
#    0.000    2.500    0.000   10.000    0.000    3.500 
#    0.000    0.000    0.000    0.000    0.000    0.333 
#
# Total GULP energy -594927.852466 kJ/mol
# GULP energy per Si atom -12394.330260 kJ/mol
# Density = 2.603940 g / cm^3
# Si number density = 26.098805 Si / 1000 Ang^3
#
#
#
# Elastic Constant Matrix: (Units=GPa)
#
#
# Indices 1 2 3 4 5 6 
#
# 1 224.1049 103.7868 18.5637 0.0000 0.0000 0.0000
# 2 103.7868 175.6545 31.4290 0.0000 0.0000 0.0000
# 3 18.5637 31.4290 37.7190 0.0000 0.0000 0.0000
# 4 0.0000 0.0000 0.0000 30.0025 0.0000 0.0000
# 5 0.0000 0.0000 0.0000 0.0000 34.5043 0.0000
# 6 0.0000 0.0000 0.0000 0.0000 0.0000 45.4799
#
#
#
# Elastic Compliance Matrix: (Units=1/GPa)
#
#
# Indices 1 2 3 4 5 6 
#
# 1 0.006143 -0.003630 0.000001 0.000000 0.000000 0.000000
# 2 -0.003630 0.008835 -0.005575 0.000000 0.000000 0.000000
# 3 0.000001 -0.005575 0.031157 0.000000 0.000000 0.000000
# 4 0.000000 0.000000 0.000000 0.033331 0.000000 0.000000
# 5 0.000000 0.000000 0.000000 0.000000 0.028982 0.000000
# 6 0.000000 0.000000 0.000000 0.000000 0.000000 0.021988
#
#
# Mechanical properties :
#
#
# Convention : Reuss Voigt Hill
#
# Bulk Modulus (GPa) = 36.06586 82.78194 59.42390
# Shear Modulus (GPa) = 31.62824 40.91060 36.26942
#
# Velocity S-wave (km/s) = 3.48496 3.96350 3.73191
# Velocity P-wave (km/s) = 5.48108 7.26177 6.43333
#
# Compressibility (1/GPa) = 0.02772705
#
# Stress axis : x y z
#
# Youngs Moduli (GPa) = 162.78166 113.18128 32.09558
#
# Poissons Ratio (x) = 0.41085 -0.00004
# Poissons Ratio (y) = 0.59089 0.17895
# Poissons Ratio (z) = -0.00020 0.63104
#
# Static dielectric constant tensor:
#      x y z
#    x 4.996350 0.000000 0.000000 
#    y 0.000000 5.061340 0.000000 
#    z 0.000000 0.000000 4.949070 
# 
# 
# High freq. dielectric constant tensor:
#      x y z
#    x 2.055300 0.000000 0.000000 
#    y 0.000000 2.029250 0.000000 
#    z 0.000000 0.000000 2.086170 
# 
# From -- ./inp_files/35355.got.cif
#   From: 2010.03.12/outbox.cif.g09.slc.cpg/sg63_18_cif.got.tgz:35355.got - 2010.04.10 19:34:48.
