data_PCOD8257394
_publ_section_title
;
Structure prediction by ZEFSAII (Michael W. Deem and Ramdas Pophale) SiO2 
 PCOD8257394
Probable space group: C M C M
;
_chemical_formula_sum "Si O2"
_cell_formula_units_Z 88
_cell_length_a 26.562567
_cell_length_b 15.205896
_cell_length_c 11.448545
_cell_angle_alpha 90.000000
_cell_angle_beta 90.000000
_cell_angle_gamma 90.000000
_cell_volume 4624.154693
_symmetry_space_group_name_H-M "C M C M"
_symmetry_group_IT_number 63
_symmetry_cell_setting 'orthorhombic'
loop_
_space_group_symop_operation_xyz
x,y,z
-x,-y,1/2+z
x,-y,-z
-x,y,1/2-z
-x,-y,-z
x,y,1/2-z
-x,y,z
x,-y,1/2+z
1/2+x,1/2+y,z
1/2-x,1/2-y,1/2+z
1/2+x,1/2-y,-z
1/2-x,1/2+y,1/2-z
1/2-x,1/2-y,-z
1/2+x,1/2+y,1/2-z
1/2-x,1/2+y,z
1/2+x,1/2-y,1/2+z
loop_
_atom_site_type_symbol
_atom_site_label
_atom_site_fract_x
_atom_site_fract_y
_atom_site_fract_z
Si Si1 0.558451 0.337179 0.114527
Si Si2 0.687416 0.379551 0.885870
Si Si3 0.608976 0.500000 0.000000
Si Si4 0.117906 0.457124 0.382258
Si Si5 0.364444 0.215181 0.510057
Si Si6 0.704464 0.081784 0.381763
O O1 0.571965 0.331551 0.250000
O O2 0.500000 0.322078 0.090072
O O3 0.573644 0.433024 0.069085
O O4 0.587475 0.259853 0.048657
O O5 0.690619 0.363223 0.750000
O O6 0.644122 0.450552 0.907692
O O7 0.674179 0.286679 0.943107
O O8 0.740507 0.412929 0.943027
O O9 0.090263 0.500000 0.500000
O O10 0.097723 0.485072 0.250000
O O11 0.115325 0.351250 0.388978
O O12 0.177106 0.486265 0.393494
O O13 0.334966 0.156008 0.418026
O O14 0.717454 0.102541 0.250000
#
# Coordination Sequence:
#
# PCOD8257394 Si02
#       6
#    16  16   8  16  16  16
#     4  10  21  38  58  80 107 142 187 239 292 340
#     4  10  20  32  48  74 109 143 178 220 266 327
#     4  10  21  34  56  78 108 142 179 222 270 338
#     4   9  18  32  53  77 110 150 189 230 278 334
#     4  10  19  32  53  77 106 141 185 230 282 327
#     4   9  18  32  49  75 109 146 184 219 268 331
#
# _framework density 19.030505999999999
#
# number of rings (size 3 to 8) (size 9 to 14) (size 15 to 20)
#    0.000    2.364    0.000    2.455    3.818    0.727 
#    0.000    0.000    0.000   15.818    0.000    5.091 
#    0.000    0.000    0.000    0.000    0.000    0.000 
#
# Total GULP energy -545095.789651 kJ/mol
# GULP energy per Si atom -12388.540674 kJ/mol
# Density = 1.898719 g / cm^3
# Si number density = 19.030506 Si / 1000 Ang^3
#
#
#
# Elastic Constant Matrix: (Units=GPa)
#
#
# Indices 1 2 3 4 5 6 
#
# 1 76.1902 47.5167 34.6132 0.0000 0.0000 0.0000
# 2 47.5167 131.5122 41.1020 0.0000 0.0000 0.0000
# 3 34.6132 41.1020 89.0083 0.0000 0.0000 0.0000
# 4 0.0000 0.0000 0.0000 24.2448 0.0000 0.0000
# 5 0.0000 0.0000 0.0000 0.0000 22.3011 0.0000
# 6 0.0000 0.0000 0.0000 0.0000 0.0000 16.7769
#
#
#
# Elastic Compliance Matrix: (Units=1/GPa)
#
#
# Indices 1 2 3 4 5 6 
#
# 1 0.018555 -0.005199 -0.004815 0.000000 0.000000 0.000000
# 2 -0.005199 0.010343 -0.002754 0.000000 0.000000 0.000000
# 3 -0.004815 -0.002754 0.014379 0.000000 0.000000 0.000000
# 4 0.000000 0.000000 0.000000 0.041246 0.000000 0.000000
# 5 0.000000 0.000000 0.000000 0.000000 0.044841 0.000000
# 6 0.000000 0.000000 0.000000 0.000000 0.000000 0.059606
#
#
# Mechanical properties :
#
#
# Convention : Reuss Voigt Hill
#
# Bulk Modulus (GPa) = 56.36789 60.35274 58.36032
# Shear Modulus (GPa) = 22.68393 24.22981 23.45687
#
# Velocity S-wave (km/s) = 3.45625 3.57208 3.51464
# Velocity P-wave (km/s) = 6.75364 6.98538 6.87048
#
# Compressibility (1/GPa) = 0.01774060
#
# Stress axis : x y z
#
# Youngs Moduli (GPa) = 53.89387 96.68116 69.54534
#
# Poissons Ratio (x) = 0.50268 0.33484
# Poissons Ratio (y) = 0.28021 0.19155
# Poissons Ratio (z) = 0.25948 0.26630
#
# Static dielectric constant tensor:
#      x y z
#    x 3.303750 0.000000 0.000000 
#    y 0.000000 3.615680 0.000000 
#    z 0.000000 0.000000 3.719700 
# 
# 
# High freq. dielectric constant tensor:
#      x y z
#    x 1.714250 0.000000 0.000000 
#    y 0.000000 1.746760 0.000000 
#    z 0.000000 0.000000 1.749790 
# 
# From -- ./inp_files/24882.got.cif
#   From: 2010.03.12/outbox.cif.g09.slc.cpg/sg63_13_cif.got.tgz:24882.got - 2010.04.10 19:34:48.
