data_PCOD8257626
_publ_section_title
;
Structure prediction by ZEFSAII (Michael W. Deem and Ramdas Pophale) SiO2 
 PCOD8257626
Probable space group: C M C M
;
_chemical_formula_sum "Si O2"
_cell_formula_units_Z 80
_cell_length_a 17.990561
_cell_length_b 27.264489
_cell_length_c 8.861384
_cell_angle_alpha 90.000000
_cell_angle_beta 90.000000
_cell_angle_gamma 90.000000
_cell_volume 4346.539446
_symmetry_space_group_name_H-M "C M C M"
_symmetry_group_IT_number 63
_symmetry_cell_setting 'orthorhombic'
loop_
_space_group_symop_operation_xyz
x,y,z
-x,-y,1/2+z
x,-y,-z
-x,y,1/2-z
-x,-y,-z
x,y,1/2-z
-x,y,z
x,-y,1/2+z
1/2+x,1/2+y,z
1/2-x,1/2-y,1/2+z
1/2+x,1/2-y,-z
1/2-x,1/2+y,1/2-z
1/2-x,1/2-y,-z
1/2+x,1/2+y,1/2-z
1/2-x,1/2+y,z
1/2+x,1/2-y,1/2+z
loop_
_atom_site_type_symbol
_atom_site_label
_atom_site_fract_x
_atom_site_fract_y
_atom_site_fract_z
Si Si1 0.654183 0.805344 0.925505
Si Si2 0.584126 0.908546 0.575561
Si Si3 0.913725 0.789080 0.574929
Si Si4 0.277716 0.049274 0.926771
Si Si5 0.706568 0.349393 0.071554
O O1 0.673884 0.799056 0.750000
O O2 0.601257 0.851652 0.955171
O O3 0.609962 0.758519 0.982419
O O4 0.730629 0.811152 0.017575
O O5 0.596828 0.921485 0.750000
O O6 0.500000 0.919064 0.524646
O O7 0.637311 0.943207 0.478231
O O8 0.895219 0.781037 0.750000
O O9 0.870210 0.836273 0.510763
O O10 0.000000 0.799619 0.548125
O O11 0.276100 0.042902 0.750000
O O12 0.228187 0.095522 0.978850
O O13 0.244346 0.000000 0.000000
O O14 0.697493 0.344877 0.250000
#
# Coordination Sequence:
#
# PCOD8257626 Si02
#       5
#    16  16  16  16  16
#     4  10  19  33  54  78 107 143 179 212 249 297
#     4   9  18  32  50  74 105 140 176 212 250 294
#     4  11  23  36  52  77 108 140 173 211 256 304
#     4  10  21  36  55  77  99 129 169 213 261 309
#     4  10  21  37  56  78 104 135 173 214 256 304
#
# _framework density 18.405446000000001
#
# number of rings (size 3 to 8) (size 9 to 14) (size 15 to 20)
#    0.000    2.000    0.000    3.600    0.000    6.400 
#    0.000    0.000    0.000    0.600    0.000    0.000 
#    0.000    0.000    0.000    0.000    0.000    0.000 
#
# Total GULP energy -496171.336185 kJ/mol
# GULP energy per Si atom -12404.283405 kJ/mol
# Density = 1.836355 g / cm^3
# Si number density = 18.405446 Si / 1000 Ang^3
#
#
#
# Elastic Constant Matrix: (Units=GPa)
#
#
# Indices 1 2 3 4 5 6 
#
# 1 85.6667 41.3361 31.0624 0.0000 0.0000 0.0000
# 2 41.3361 103.1201 34.4555 0.0000 0.0000 0.0000
# 3 31.0624 34.4555 56.4031 0.0000 0.0000 0.0000
# 4 0.0000 0.0000 0.0000 31.6009 0.0000 0.0000
# 5 0.0000 0.0000 0.0000 0.0000 30.7965 0.0000
# 6 0.0000 0.0000 0.0000 0.0000 0.0000 14.7373
#
#
#
# Elastic Compliance Matrix: (Units=1/GPa)
#
#
# Indices 1 2 3 4 5 6 
#
# 1 0.016008 -0.004361 -0.006152 0.000000 0.000000 0.000000
# 2 -0.004361 0.013373 -0.005767 0.000000 0.000000 0.000000
# 3 -0.006152 -0.005767 0.024640 0.000000 0.000000 0.000000
# 4 0.000000 0.000000 0.000000 0.031645 0.000000 0.000000
# 5 0.000000 0.000000 0.000000 0.000000 0.032471 0.000000
# 6 0.000000 0.000000 0.000000 0.000000 0.000000 0.067855
#
#
# Mechanical properties :
#
#
# Convention : Reuss Voigt Hill
#
# Bulk Modulus (GPa) = 46.59691 50.98865 48.79278
# Shear Modulus (GPa) = 22.15262 24.64932 23.40097
#
# Velocity S-wave (km/s) = 3.47304 3.66353 3.56956
# Velocity P-wave (km/s) = 6.43852 6.75711 6.59974
#
# Compressibility (1/GPa) = 0.02146065
#
# Stress axis : x y z
#
# Youngs Moduli (GPa) = 62.46770 74.77909 40.58365
#
# Poissons Ratio (x) = 0.32615 0.24966
# Poissons Ratio (y) = 0.27245 0.23405
# Poissons Ratio (z) = 0.38429 0.43126
#
# Static dielectric constant tensor:
#      x y z
#    x 3.385370 0.000000 0.000000 
#    y 0.000000 3.439550 0.000000 
#    z 0.000000 0.000000 3.454610 
# 
# 
# High freq. dielectric constant tensor:
#      x y z
#    x 1.699310 0.000000 0.000000 
#    y 0.000000 1.711120 0.000000 
#    z 0.000000 0.000000 1.725700 
# 
# From -- ./inp_files/6352.got.cif
#   From: 2010.03.12/outbox.cif.g09.slc.cpg/sg63_4_cif.got.tgz:6352.got - 2010.04.10 19:34:48.
