data_PCOD8257390
_publ_section_title
;
Structure prediction by ZEFSAII (Michael W. Deem and Ramdas Pophale) SiO2 
 PCOD8257390
Probable space group: C M C M
;
_chemical_formula_sum "Si O2"
_cell_formula_units_Z 96
_cell_length_a 20.274911
_cell_length_b 8.674851
_cell_length_c 31.035431
_cell_angle_alpha 90.000000
_cell_angle_beta 90.000000
_cell_angle_gamma 90.000000
_cell_volume 5458.568460
_symmetry_space_group_name_H-M "C M C M"
_symmetry_group_IT_number 63
_symmetry_cell_setting 'orthorhombic'
loop_
_space_group_symop_operation_xyz
x,y,z
-x,-y,1/2+z
x,-y,-z
-x,y,1/2-z
-x,-y,-z
x,y,1/2-z
-x,y,z
x,-y,1/2+z
1/2+x,1/2+y,z
1/2-x,1/2-y,1/2+z
1/2+x,1/2-y,-z
1/2-x,1/2+y,1/2-z
1/2-x,1/2-y,-z
1/2+x,1/2+y,1/2-z
1/2-x,1/2+y,z
1/2+x,1/2-y,1/2+z
loop_
_atom_site_type_symbol
_atom_site_label
_atom_site_fract_x
_atom_site_fract_y
_atom_site_fract_z
Si Si1 0.221997 0.651769 0.671567
Si Si2 0.576636 0.380317 0.131428
Si Si3 0.180636 0.367279 0.878182
Si Si4 0.661741 0.548655 0.297541
Si Si5 0.427740 0.628322 0.535592
Si Si6 0.191852 0.657640 0.023364
O O1 0.177436 0.535636 0.643346
O O2 0.263561 0.759009 0.640608
O O3 0.270324 0.548948 0.701095
O O4 0.175381 0.767444 0.698536
O O5 0.500000 0.365099 0.144015
O O6 0.609281 0.209862 0.130488
O O7 0.611230 0.493775 0.165572
O O8 0.587714 0.445794 0.082843
O O9 0.205003 0.381612 0.927078
O O10 0.630822 0.521338 0.250000
O O11 0.427151 0.500000 0.500000
O O12 0.500000 0.707431 0.538075
O O13 0.375761 0.751290 0.519887
O O14 0.180245 0.500000 0.000000
O O15 0.250000 0.750000 0.000000
#
# Coordination Sequence:
#
# PCOD8257390 Si02
#       6
#    16  16  16  16  16  16
#     4   9  18  32  51  74 100 130 164 203 253 302
#     4   9  19  35  53  73  99 134 170 204 248 301
#     4   9  18  33  50  71 102 136 169 207 251 302
#     4  10  19  32  53  77 101 128 162 207 253 303
#     4   9  19  36  54  72  99 135 173 211 253 305
#     4  11  21  30  47  75 105 135 171 216 259 299
#
# _framework density 17.587029000000001
#
# number of rings (size 3 to 8) (size 9 to 14) (size 15 to 20)
#    0.000    2.500    0.000    2.000    0.000    7.333 
#    0.000    1.667    0.000    0.000    0.000    0.000 
#    0.000    0.000    0.000    0.000    0.000    0.000 
#
# Total GULP energy -594860.516110 kJ/mol
# GULP energy per Si atom -12392.927419 kJ/mol
# Density = 1.754700 g / cm^3
# Si number density = 17.587029 Si / 1000 Ang^3
#
#
#
# Elastic Constant Matrix: (Units=GPa)
#
#
# Indices 1 2 3 4 5 6 
#
# 1 102.7117 50.1343 57.4322 0.0000 0.0000 0.0000
# 2 50.1343 105.6670 57.7656 0.0000 0.0000 0.0000
# 3 57.4322 57.7656 125.6543 0.0000 0.0000 0.0000
# 4 0.0000 0.0000 0.0000 21.0494 0.0000 0.0000
# 5 0.0000 0.0000 0.0000 0.0000 18.5026 0.0000
# 6 0.0000 0.0000 0.0000 0.0000 0.0000 20.2916
#
#
#
# Elastic Compliance Matrix: (Units=1/GPa)
#
#
# Indices 1 2 3 4 5 6 
#
# 1 0.014421 -0.004326 -0.004603 0.000000 0.000000 0.000000
# 2 -0.004326 0.013938 -0.004430 0.000000 0.000000 0.000000
# 3 -0.004603 -0.004430 0.012099 0.000000 0.000000 0.000000
# 4 0.000000 0.000000 0.000000 0.047507 0.000000 0.000000
# 5 0.000000 0.000000 0.000000 0.000000 0.054046 0.000000
# 6 0.000000 0.000000 0.000000 0.000000 0.000000 0.049281
#
#
# Mechanical properties :
#
#
# Convention : Reuss Voigt Hill
#
# Bulk Modulus (GPa) = 72.78009 73.85523 73.31766
# Shear Modulus (GPa) = 22.46268 23.21545 22.83906
#
# Velocity S-wave (km/s) = 3.57771 3.63717 3.60756
# Velocity P-wave (km/s) = 7.65110 7.72813 7.68971
#
# Compressibility (1/GPa) = 0.01374002
#
# Stress axis : x y z
#
# Youngs Moduli (GPa) = 69.34246 71.74537 82.65303
#
# Poissons Ratio (x) = 0.31037 0.38042
# Poissons Ratio (y) = 0.29998 0.36618
# Poissons Ratio (z) = 0.31916 0.31786
#
# Static dielectric constant tensor:
#      x y z
#    x 3.212830 0.000000 0.000000 
#    y 0.000000 3.320030 0.000000 
#    z 0.000000 0.000000 3.397020 
# 
# 
# High freq. dielectric constant tensor:
#      x y z
#    x 1.667740 0.000000 0.000000 
#    y 0.000000 1.673620 0.000000 
#    z 0.000000 0.000000 1.693360 
# 
# From -- ./inp_files/70624.got.cif
#   From: 2010.03.12/outbox.cif.g09.slc.cpg/sg63_36_cif.got.tgz:70624.got - 2010.04.10 19:34:48.
