data_PCOD8257082
_publ_section_title
;
Structure prediction by ZEFSAII (Michael W. Deem and Ramdas Pophale) SiO2 
 PCOD8257082
Probable space group: C M C M
;
_chemical_formula_sum "Si O2"
_cell_formula_units_Z 104
_cell_length_a 26.194742
_cell_length_b 24.252162
_cell_length_c 9.287105
_cell_angle_alpha 90.000000
_cell_angle_beta 90.000000
_cell_angle_gamma 90.000000
_cell_volume 5899.903952
_symmetry_space_group_name_H-M "C M C M"
_symmetry_group_IT_number 63
_symmetry_cell_setting 'orthorhombic'
loop_
_space_group_symop_operation_xyz
x,y,z
-x,-y,1/2+z
x,-y,-z
-x,y,1/2-z
-x,-y,-z
x,y,1/2-z
-x,y,z
x,-y,1/2+z
1/2+x,1/2+y,z
1/2-x,1/2-y,1/2+z
1/2+x,1/2-y,-z
1/2-x,1/2+y,1/2-z
1/2-x,1/2-y,-z
1/2+x,1/2+y,1/2-z
1/2-x,1/2+y,z
1/2+x,1/2-y,1/2+z
loop_
_atom_site_type_symbol
_atom_site_label
_atom_site_fract_x
_atom_site_fract_y
_atom_site_fract_z
Si Si1 0.692908 0.810901 0.084295
Si Si2 0.115459 0.855698 0.081173
Si Si3 0.917113 0.647146 0.581719
Si Si4 0.794090 0.817163 0.916167
Si Si5 0.439543 0.448129 0.912567
Si Si6 0.055642 0.251195 0.591823
Si Si7 0.500000 0.941567 0.079640
O O1 0.707756 0.823614 0.250000
O O2 0.642943 0.847067 0.038110
O O3 0.685318 0.745262 0.064972
O O4 0.737694 0.827942 0.976890
O O5 0.117982 0.870435 0.250000
O O6 0.096876 0.794026 0.050940
O O7 0.170833 0.858927 0.007738
O O8 0.076436 0.894700 0.999895
O O9 0.922199 0.653373 0.750000
O O10 0.946203 0.698878 0.517727
O O11 0.947875 0.591703 0.533864
O O12 0.794634 0.834756 0.750000
O O13 0.417251 0.447751 0.750000
O O14 0.500000 0.450493 0.906603
O O15 0.417109 0.500000 0.000000
O O16 0.068307 0.275213 0.750000
O O17 0.000000 0.222623 0.590492
O O18 0.500000 0.952316 0.250000
O O19 0.500000 0.000000 0.000000
#
# Coordination Sequence:
#
# PCOD8257082 Si02
#       7
#    16  16  16  16  16  16   8
#     4   9  18  32  50  74 106 141 176 218 267 322
#     4  11  21  33  51  76 110 145 179 221 268 318
#     4  10  19  34  55  77 104 139 176 215 264 323
#     4  10  19  31  50  76 107 141 180 220 266 323
#     4  10  21  37  56  77 103 140 184 225 266 313
#     4  10  20  31  46  74 109 141 172 212 265 318
#     4  10  22  38  58  82 108 142 183 224 267 320
#
# _framework density 17.627406000000001
#
# number of rings (size 3 to 8) (size 9 to 14) (size 15 to 20)
#    0.000    2.000    2.308    1.846    0.000    4.000 
#    0.000    0.000    0.000    0.923    0.000    4.308 
#    0.000    0.000    0.000    0.000    0.000    0.000 
#
# Total GULP energy -644460.005990 kJ/mol
# GULP energy per Si atom -12393.461654 kJ/mol
# Density = 1.758728 g / cm^3
# Si number density = 17.627406 Si / 1000 Ang^3
#
#
#
# Elastic Constant Matrix: (Units=GPa)
#
#
# Indices 1 2 3 4 5 6 
#
# 1 86.3240 36.8634 47.3167 0.0000 0.0000 0.0000
# 2 36.8634 58.4527 43.9580 0.0000 0.0000 0.0000
# 3 47.3167 43.9580 97.1148 0.0000 0.0000 0.0000
# 4 0.0000 0.0000 0.0000 28.9529 0.0000 0.0000
# 5 0.0000 0.0000 0.0000 0.0000 20.7737 0.0000
# 6 0.0000 0.0000 0.0000 0.0000 0.0000 53.4729
#
#
#
# Elastic Compliance Matrix: (Units=1/GPa)
#
#
# Indices 1 2 3 4 5 6 
#
# 1 0.017519 -0.007018 -0.005359 0.000000 0.000000 0.000000
# 2 -0.007018 0.028748 -0.009593 0.000000 0.000000 0.000000
# 3 -0.005359 -0.009593 0.017250 0.000000 0.000000 0.000000
# 4 0.000000 0.000000 0.000000 0.034539 0.000000 0.000000
# 5 0.000000 0.000000 0.000000 0.000000 0.048138 0.000000
# 6 0.000000 0.000000 0.000000 0.000000 0.000000 0.018701
#
#
# Mechanical properties :
#
#
# Convention : Reuss Voigt Hill
#
# Bulk Modulus (GPa) = 51.08083 55.35196 53.21640
# Shear Modulus (GPa) = 23.21688 28.22347 25.72018
#
# Velocity S-wave (km/s) = 3.63311 4.00573 3.82396
# Velocity P-wave (km/s) = 6.82937 7.27075 7.05351
#
# Compressibility (1/GPa) = 0.01957682
#
# Stress axis : x y z
#
# Youngs Moduli (GPa) = 57.08229 34.78473 57.97024
#
# Poissons Ratio (x) = 0.24413 0.31065
# Poissons Ratio (y) = 0.40062 0.55612
# Poissons Ratio (z) = 0.30589 0.33369
#
# Static dielectric constant tensor:
#      x y z
#    x 3.388590 0.000000 0.000000 
#    y 0.000000 3.050310 0.000000 
#    z 0.000000 0.000000 3.390040 
# 
# 
# High freq. dielectric constant tensor:
#      x y z
#    x 1.683900 0.000000 0.000000 
#    y 0.000000 1.642900 0.000000 
#    z 0.000000 0.000000 1.694100 
# 
# From -- ./inp_files/12864.got.cif
#   From: 2010.03.12/outbox.cif.g09.slc.cpg/sg63_7_cif.got.tgz:12864.got - 2010.04.10 19:34:48.
