data_PCOD8257041
_publ_section_title
;
Structure prediction by ZEFSAII (Michael W. Deem and Ramdas Pophale) SiO2 
 PCOD8257041
Probable space group: C M C M
;
_chemical_formula_sum "Si O2"
_cell_formula_units_Z 104
_cell_length_a 26.458199
_cell_length_b 24.403099
_cell_length_c 9.087845
_cell_angle_alpha 90.000000
_cell_angle_beta 90.000000
_cell_angle_gamma 90.000000
_cell_volume 5867.676629
_symmetry_space_group_name_H-M "C M C M"
_symmetry_group_IT_number 63
_symmetry_cell_setting 'orthorhombic'
loop_
_space_group_symop_operation_xyz
x,y,z
-x,-y,1/2+z
x,-y,-z
-x,y,1/2-z
-x,-y,-z
x,y,1/2-z
-x,y,z
x,-y,1/2+z
1/2+x,1/2+y,z
1/2-x,1/2-y,1/2+z
1/2+x,1/2-y,-z
1/2-x,1/2+y,1/2-z
1/2-x,1/2-y,-z
1/2+x,1/2+y,1/2-z
1/2-x,1/2+y,z
1/2+x,1/2-y,1/2+z
loop_
_atom_site_type_symbol
_atom_site_label
_atom_site_fract_x
_atom_site_fract_y
_atom_site_fract_z
Si Si1 0.057234 0.053250 0.921012
Si Si2 0.110024 0.854463 0.914681
Si Si3 0.000000 0.559807 0.424389
Si Si4 0.056085 0.746371 0.913972
Si Si5 0.286736 0.308319 0.914380
Si Si6 0.688566 0.185222 0.922934
Si Si7 0.911481 0.644057 0.076536
O O1 0.060935 0.042920 0.750000
O O2 0.000000 0.064784 0.972508
O O3 0.091492 0.103690 0.964629
O O4 0.079333 0.000000 0.000000
O O5 0.089657 0.868269 0.750000
O O6 0.091935 0.794845 0.965751
O O7 0.170480 0.854680 0.916487
O O8 0.000000 0.500000 0.500000
O O9 0.051854 0.592788 0.469984
O O10 0.000000 0.551383 0.250000
O O11 0.072926 0.725530 0.750000
O O12 0.000000 0.770324 0.908262
O O13 0.057883 0.697975 0.031525
O O14 0.264710 0.300172 0.750000
O O15 0.311943 0.250188 0.965003
O O16 0.243216 0.333539 0.017736
O O17 0.684846 0.174861 0.750000
O O18 0.643333 0.149177 0.996264
O O19 0.901864 0.642596 0.250000
#
# Coordination Sequence:
#
# PCOD8257041 Si02
#       7
#    16  16   8  16  16  16  16
#     4  10  21  36  53  74 101 138 183 224 266 314
#     4  10  19  33  52  76 108 142 178 221 266 316
#     4  10  24  42  60  84 110 144 187 230 275 328
#     4  10  19  31  49  76 109 144 178 213 264 325
#     4   9  18  32  50  76 110 144 180 219 264 318
#     4  10  19  33  52  77 108 145 184 216 261 322
#     4  11  21  35  54  79 111 141 175 220 272 323
#
# _framework density 17.724222000000001
#
# number of rings (size 3 to 8) (size 9 to 14) (size 15 to 20)
#    0.000    2.000    2.308    1.846    0.000    4.615 
#    0.000    0.000    0.000    0.923    0.000    4.308 
#    0.000    0.000    0.000    0.000    0.000    0.000 
#
# Total GULP energy -644371.172569 kJ/mol
# GULP energy per Si atom -12391.753319 kJ/mol
# Density = 1.768388 g / cm^3
# Si number density = 17.724222 Si / 1000 Ang^3
#
#
#
# Elastic Constant Matrix: (Units=GPa)
#
#
# Indices 1 2 3 4 5 6 
#
# 1 110.8304 57.6676 50.9901 0.0000 0.0000 0.0000
# 2 57.6676 75.0231 42.1554 0.0000 0.0000 0.0000
# 3 50.9901 42.1554 78.0808 0.0000 0.0000 0.0000
# 4 0.0000 0.0000 0.0000 30.0790 0.0000 0.0000
# 5 0.0000 0.0000 0.0000 0.0000 25.5513 0.0000
# 6 0.0000 0.0000 0.0000 0.0000 0.0000 40.4997
#
#
#
# Elastic Compliance Matrix: (Units=1/GPa)
#
#
# Indices 1 2 3 4 5 6 
#
# 1 0.016625 -0.009587 -0.005681 0.000000 0.000000 0.000000
# 2 -0.009587 0.024662 -0.007054 0.000000 0.000000 0.000000
# 3 -0.005681 -0.007054 0.020326 0.000000 0.000000 0.000000
# 4 0.000000 0.000000 0.000000 0.033246 0.000000 0.000000
# 5 0.000000 0.000000 0.000000 0.000000 0.039137 0.000000
# 6 0.000000 0.000000 0.000000 0.000000 0.000000 0.024692
#
#
# Mechanical properties :
#
#
# Convention : Reuss Voigt Hill
#
# Bulk Modulus (GPa) = 58.93241 62.84006 60.88624
# Shear Modulus (GPa) = 23.92502 26.76741 25.34621
#
# Velocity S-wave (km/s) = 3.67801 3.89037 3.78568
# Velocity P-wave (km/s) = 7.16651 7.46400 7.31677
#
# Compressibility (1/GPa) = 0.01696859
#
# Stress axis : x y z
#
# Youngs Moduli (GPa) = 60.15202 40.54815 49.19900
#
# Poissons Ratio (x) = 0.38872 0.27949
# Poissons Ratio (y) = 0.57666 0.34707
# Poissons Ratio (z) = 0.34171 0.28604
#
# Static dielectric constant tensor:
#      x y z
#    x 3.491430 0.000000 0.000000 
#    y 0.000000 3.167260 0.000000 
#    z 0.000000 0.000000 3.283830 
# 
# 
# High freq. dielectric constant tensor:
#      x y z
#    x 1.694710 0.000000 0.000000 
#    y 0.000000 1.646570 0.000000 
#    z 0.000000 0.000000 1.688230 
# 
# From -- ./inp_files/12899.got.cif
#   From: 2010.03.12/outbox.cif.g09.slc.cpg/sg63_7_cif.got.tgz:12899.got - 2010.04.10 19:34:48.
