data_PCOD8257163
_publ_section_title
;
Structure prediction by ZEFSAII (Michael W. Deem and Ramdas Pophale) SiO2 
 PCOD8257163
Probable space group: C M C M
;
_chemical_formula_sum "Si O2"
_cell_formula_units_Z 88
_cell_length_a 30.796437
_cell_length_b 5.124418
_cell_length_c 34.211221
_cell_angle_alpha 90.000000
_cell_angle_beta 90.000000
_cell_angle_gamma 90.000000
_cell_volume 5399.003339
_symmetry_space_group_name_H-M "C M C M"
_symmetry_group_IT_number 63
_symmetry_cell_setting 'orthorhombic'
loop_
_space_group_symop_operation_xyz
x,y,z
-x,-y,1/2+z
x,-y,-z
-x,y,1/2-z
-x,-y,-z
x,y,1/2-z
-x,y,z
x,-y,1/2+z
1/2+x,1/2+y,z
1/2-x,1/2-y,1/2+z
1/2+x,1/2-y,-z
1/2-x,1/2+y,1/2-z
1/2-x,1/2-y,-z
1/2+x,1/2+y,1/2-z
1/2-x,1/2+y,z
1/2+x,1/2-y,1/2+z
loop_
_atom_site_type_symbol
_atom_site_label
_atom_site_fract_x
_atom_site_fract_y
_atom_site_fract_z
Si Si1 0.084439 0.389166 0.426366
Si Si2 0.871183 0.089820 0.543704
Si Si3 0.051525 0.555454 0.658802
Si Si4 0.000000 0.254446 0.472982
Si Si5 0.271117 0.447503 0.455151
Si Si6 0.948530 0.054196 0.706349
O O1 0.102005 0.645528 0.448525
O O2 0.075534 0.472383 0.382213
O O3 0.041781 0.264688 0.445578
O O4 0.118237 0.149582 0.427247
O O5 0.882891 0.000000 0.500000
O O6 0.820484 0.146102 0.549209
O O7 0.066967 0.317077 0.685588
O O8 0.000000 0.554755 0.651841
O O9 0.068045 0.813464 0.680620
O O10 0.000000 0.500000 0.500000
O O11 0.000000 0.000000 0.500000
O O12 0.258067 0.500000 0.500000
O O13 0.240796 0.224647 0.435132
O O14 0.928563 0.040747 0.750000
O O15 0.000000 0.045238 0.709388
#
# Coordination Sequence:
#
# PCOD8257163 Si02
#       6
#    16  16  16   8  16  16
#     4  12  22  35  47  66  92 127 165 204 244 271
#     4  11  22  34  50  68  92 120 162 208 242 283
#     4  10  19  32  46  64  90 121 156 194 236 277
#     4  12  24  36  48  60  83 126 175 214 238 258
#     4   9  17  31  50  70  88 110 143 191 247 298
#     4   9  17  29  48  68  86 109 148 196 237 280
#
# _framework density 16.299303999999999
#
# number of rings (size 3 to 8) (size 9 to 14) (size 15 to 20)
#    0.000    1.636    0.909    6.000    0.000    5.091 
#    0.000    0.000    0.000    0.000    0.000    0.000 
#    0.000    0.000    0.000    0.000    0.000  229.091 
#
# Total GULP energy -545515.025523 kJ/mol
# GULP energy per Si atom -12398.068762 kJ/mol
# Density = 1.626221 g / cm^3
# Si number density = 16.299304 Si / 1000 Ang^3
#
#
#
# Elastic Constant Matrix: (Units=GPa)
#
#
# Indices 1 2 3 4 5 6 
#
# 1 51.9695 36.9102 27.1402 0.0000 0.0000 0.0000
# 2 36.9102 139.9696 34.7241 0.0000 0.0000 0.0000
# 3 27.1402 34.7241 82.9953 0.0000 0.0000 0.0000
# 4 0.0000 0.0000 0.0000 23.1202 0.0000 0.0000
# 5 0.0000 0.0000 0.0000 0.0000 6.3642 0.0000
# 6 0.0000 0.0000 0.0000 0.0000 0.0000 19.0103
#
#
#
# Elastic Compliance Matrix: (Units=1/GPa)
#
#
# Indices 1 2 3 4 5 6 
#
# 1 0.026393 -0.005377 -0.006381 0.000000 0.000000 0.000000
# 2 -0.005377 0.009067 -0.002035 0.000000 0.000000 0.000000
# 3 -0.006381 -0.002035 0.014987 0.000000 0.000000 0.000000
# 4 0.000000 0.000000 0.000000 0.043252 0.000000 0.000000
# 5 0.000000 0.000000 0.000000 0.000000 0.157130 0.000000
# 6 0.000000 0.000000 0.000000 0.000000 0.000000 0.052603
#
#
# Mechanical properties :
#
#
# Convention : Reuss Voigt Hill
#
# Bulk Modulus (GPa) = 43.74291 52.49816 48.12053
# Shear Modulus (GPa) = 14.76494 21.44292 18.10393
#
# Velocity S-wave (km/s) = 3.01302 3.63102 3.33636
# Velocity P-wave (km/s) = 6.24499 7.06101 6.66550
#
# Compressibility (1/GPa) = 0.02286085
#
# Stress axis : x y z
#
# Youngs Moduli (GPa) = 37.88823 110.28722 66.72380
#
# Poissons Ratio (x) = 0.59300 0.42578
# Poissons Ratio (y) = 0.20372 0.13580
# Poissons Ratio (z) = 0.24177 0.22447
#
# Static dielectric constant tensor:
#      x y z
#    x 2.718450 0.000000 0.000000 
#    y 0.000000 3.406660 0.000000 
#    z 0.000000 0.000000 2.969520 
# 
# 
# High freq. dielectric constant tensor:
#      x y z
#    x 1.589830 0.000000 0.000000 
#    y 0.000000 1.657780 0.000000 
#    z 0.000000 0.000000 1.598140 
# 
# From -- ./inp_files/74470.got.cif
#   From: 2010.03.12/outbox.cif.g09.slc.cpg/sg63_38_cif.got.tgz:74470.got - 2010.04.10 19:34:48.
