data_PCOD8257464
_publ_section_title
;
Structure prediction by ZEFSAII (Michael W. Deem and Ramdas Pophale) SiO2 
 PCOD8257464
Probable space group: C M C M
;
_chemical_formula_sum "Si O2"
_cell_formula_units_Z 88
_cell_length_a 16.943694
_cell_length_b 28.628270
_cell_length_c 9.140793
_cell_angle_alpha 90.000000
_cell_angle_beta 90.000000
_cell_angle_gamma 90.000000
_cell_volume 4433.912090
_symmetry_space_group_name_H-M "C M C M"
_symmetry_group_IT_number 63
_symmetry_cell_setting 'orthorhombic'
loop_
_space_group_symop_operation_xyz
x,y,z
-x,-y,1/2+z
x,-y,-z
-x,y,1/2-z
-x,-y,-z
x,y,1/2-z
-x,y,z
x,-y,1/2+z
1/2+x,1/2+y,z
1/2-x,1/2-y,1/2+z
1/2+x,1/2-y,-z
1/2-x,1/2+y,1/2-z
1/2-x,1/2-y,-z
1/2+x,1/2+y,1/2-z
1/2-x,1/2+y,z
1/2+x,1/2-y,1/2+z
loop_
_atom_site_type_symbol
_atom_site_label
_atom_site_fract_x
_atom_site_fract_y
_atom_site_fract_z
Si Si1 0.309080 0.451552 0.923304
Si Si2 0.000000 0.546799 0.585286
Si Si3 0.164632 0.594030 0.919777
Si Si4 0.411130 0.636710 0.423210
Si Si5 0.085426 0.317551 0.419276
Si Si6 0.323172 0.272513 0.581517
O O1 0.304499 0.459288 0.750000
O O2 0.374670 0.413244 0.967116
O O3 0.332878 0.500000 0.000000
O O4 0.224624 0.434007 0.979076
O O5 0.000000 0.500000 0.500000
O O6 0.077342 0.575944 0.548146
O O7 0.000000 0.530588 0.750000
O O8 0.190794 0.588635 0.750000
O O9 0.156647 0.648304 0.974325
O O10 0.415063 0.642506 0.250000
O O11 0.500000 0.639902 0.488395
O O12 0.354732 0.678240 0.485138
O O13 0.076318 0.331026 0.250000
O O14 0.105242 0.263450 0.439167
O O15 0.000000 0.326066 0.495776
O O16 0.298774 0.278715 0.750000
O O17 0.250000 0.250000 0.500000
#
# Coordination Sequence:
#
# PCOD8257464 Si02
#       6
#    16   8  16  16  16  16
#     4  11  23  38  57  80 107 140 182 233 286 337
#     4  10  20  32  48  70 100 140 182 224 265 310
#     4  10  19  34  54  78 110 144 181 225 272 324
#     4   9  19  37  59  83 111 145 187 232 275 326
#     4   9  16  29  52  80 107 139 180 219 255 306
#     4  10  19  32  55  84 113 145 179 217 265 322
#
# _framework density 19.847034000000001
#
# number of rings (size 3 to 8) (size 9 to 14) (size 15 to 20)
#    0.000    2.182    0.909    2.727    0.000    4.727 
#    0.000    0.909    0.000    7.091    0.000    0.000 
#    0.000    0.000    0.000    0.000    0.000    0.000 
#
# Total GULP energy -545309.751567 kJ/mol
# GULP energy per Si atom -12393.403445 kJ/mol
# Density = 1.980186 g / cm^3
# Si number density = 19.847034 Si / 1000 Ang^3
#
#
#
# Elastic Constant Matrix: (Units=GPa)
#
#
# Indices 1 2 3 4 5 6 
#
# 1 129.5011 60.7220 37.4094 0.0000 0.0000 0.0000
# 2 60.7220 164.5595 43.6465 0.0000 0.0000 0.0000
# 3 37.4094 43.6465 50.6137 0.0000 0.0000 0.0000
# 4 0.0000 0.0000 0.0000 19.8905 0.0000 0.0000
# 5 0.0000 0.0000 0.0000 0.0000 21.3391 0.0000
# 6 0.0000 0.0000 0.0000 0.0000 0.0000 11.8723
#
#
#
# Elastic Compliance Matrix: (Units=1/GPa)
#
#
# Indices 1 2 3 4 5 6 
#
# 1 0.010475 -0.002349 -0.005716 0.000000 0.000000 0.000000
# 2 -0.002349 0.008406 -0.005512 0.000000 0.000000 0.000000
# 3 -0.005716 -0.005512 0.028736 0.000000 0.000000 0.000000
# 4 0.000000 0.000000 0.000000 0.050275 0.000000 0.000000
# 5 0.000000 0.000000 0.000000 0.000000 0.046862 0.000000
# 6 0.000000 0.000000 0.000000 0.000000 0.000000 0.084230
#
#
# Mechanical properties :
#
#
# Convention : Reuss Voigt Hill
#
# Bulk Modulus (GPa) = 48.87350 69.80332 59.33841
# Shear Modulus (GPa) = 19.01433 24.14681 21.58057
#
# Velocity S-wave (km/s) = 3.09859 3.49183 3.30107
# Velocity P-wave (km/s) = 6.12211 7.17664 6.67025
#
# Compressibility (1/GPa) = 0.02046099
#
# Stress axis : x y z
#
# Youngs Moduli (GPa) = 95.46857 118.96740 34.79929
#
# Poissons Ratio (x) = 0.27945 0.19893
# Poissons Ratio (y) = 0.22425 0.19183
# Poissons Ratio (z) = 0.54573 0.65580
#
# Static dielectric constant tensor:
#      x y z
#    x 7.729010 0.000000 0.000000 
#    y 0.000000 3.917340 0.000000 
#    z 0.000000 0.000000 3.249200 
# 
# 
# High freq. dielectric constant tensor:
#      x y z
#    x 1.778430 0.000000 0.000000 
#    y 0.000000 1.797440 0.000000 
#    z 0.000000 0.000000 1.724630 
# 
# From -- ./inp_files/6785.got.cif
#   From: 2010.03.12/outbox.cif.g09.slc.cpg/sg63_4_cif.got.tgz:6785.got - 2010.04.10 19:34:48.
