data_PCOD8257609
_publ_section_title
;
Structure prediction by ZEFSAII (Michael W. Deem and Ramdas Pophale) SiO2 
 PCOD8257609
Probable space group: C M C M
;
_chemical_formula_sum "Si O2"
_cell_formula_units_Z 80
_cell_length_a 8.808587
_cell_length_b 27.230525
_cell_length_c 18.154722
_cell_angle_alpha 90.000000
_cell_angle_beta 90.000000
_cell_angle_gamma 90.000000
_cell_volume 4354.636071
_symmetry_space_group_name_H-M "C M C M"
_symmetry_group_IT_number 63
_symmetry_cell_setting 'orthorhombic'
loop_
_space_group_symop_operation_xyz
x,y,z
-x,-y,1/2+z
x,-y,-z
-x,y,1/2-z
-x,-y,-z
x,y,1/2-z
-x,y,z
x,-y,1/2+z
1/2+x,1/2+y,z
1/2-x,1/2-y,1/2+z
1/2+x,1/2-y,-z
1/2-x,1/2+y,1/2-z
1/2-x,1/2-y,-z
1/2+x,1/2+y,1/2-z
1/2-x,1/2+y,z
1/2+x,1/2-y,1/2+z
loop_
_atom_site_type_symbol
_atom_site_label
_atom_site_fract_x
_atom_site_fract_y
_atom_site_fract_z
Si Si1 0.677294 0.709264 0.335515
Si Si2 0.822764 0.904858 0.167549
Si Si3 0.679566 0.849757 0.956271
Si Si4 0.177684 0.196562 0.592502
Si Si5 0.679282 0.949353 0.467598
O O1 0.712646 0.700554 0.250000
O O2 0.500000 0.717426 0.349921
O O3 0.737379 0.661488 0.379213
O O4 0.769269 0.755960 0.363913
O O5 0.761685 0.913116 0.250000
O O6 0.784211 0.849412 0.144517
O O7 0.739704 0.943601 0.115108
O O8 0.000000 0.915103 0.162235
O O9 0.500000 0.846613 0.945962
O O10 0.731512 0.809115 0.015980
O O11 0.733657 0.903816 0.981896
O O12 0.000000 0.200583 0.574390
O O13 0.500000 0.950979 0.464145
O O14 0.745693 0.000000 0.500000
#
# Coordination Sequence:
#
# PCOD8257609 Si02
#       5
#    16  16  16  16  16
#     4  11  23  36  50  72 104 139 174 210 247 292
#     4   9  18  32  51  78 107 132 163 205 252 301
#     4  10  20  35  55  76 100 132 170 210 252 301
#     4  10  19  33  54  77 104 136 169 206 249 299
#     4   9  19  36  56  77 100 129 168 211 254 301
#
# _framework density 18.371224999999999
#
# number of rings (size 3 to 8) (size 9 to 14) (size 15 to 20)
#    0.000    2.200    0.000    3.000    0.000    4.800 
#    0.000    1.000    0.000    6.000    0.000    0.000 
#    0.000    0.000    0.000    0.000    0.000    0.000 
#
# Total GULP energy -496121.973929 kJ/mol
# GULP energy per Si atom -12403.049348 kJ/mol
# Density = 1.832941 g / cm^3
# Si number density = 18.371225 Si / 1000 Ang^3
#
#
#
# Elastic Constant Matrix: (Units=GPa)
#
#
# Indices 1 2 3 4 5 6 
#
# 1 37.4158 21.2549 28.7690 0.0000 0.0000 0.0000
# 2 21.2549 94.1717 60.6469 0.0000 0.0000 0.0000
# 3 28.7690 60.6469 134.8784 0.0000 0.0000 0.0000
# 4 0.0000 0.0000 0.0000 23.3864 0.0000 0.0000
# 5 0.0000 0.0000 0.0000 0.0000 31.4154 0.0000
# 6 0.0000 0.0000 0.0000 0.0000 0.0000 23.9784
#
#
#
# Elastic Compliance Matrix: (Units=1/GPa)
#
#
# Indices 1 2 3 4 5 6 
#
# 1 0.033063 -0.004111 -0.005204 0.000000 0.000000 0.000000
# 2 -0.004111 0.015458 -0.006074 0.000000 0.000000 0.000000
# 3 -0.005204 -0.006074 0.011255 0.000000 0.000000 0.000000
# 4 0.000000 0.000000 0.000000 0.042760 0.000000 0.000000
# 5 0.000000 0.000000 0.000000 0.000000 0.031831 0.000000
# 6 0.000000 0.000000 0.000000 0.000000 0.000000 0.041704
#
#
# Mechanical properties :
#
#
# Convention : Reuss Voigt Hill
#
# Bulk Modulus (GPa) = 34.48379 54.20085 44.34232
# Shear Modulus (GPa) = 23.09296 26.14239 24.61767
#
# Velocity S-wave (km/s) = 3.54929 3.77637 3.66459
# Velocity P-wave (km/s) = 5.96724 6.97006 6.48805
#
# Compressibility (1/GPa) = 0.02899913
#
# Stress axis : x y z
#
# Youngs Moduli (GPa) = 30.24503 64.68978 88.84915
#
# Poissons Ratio (x) = 0.26596 0.46234
# Poissons Ratio (y) = 0.12435 0.53965
# Poissons Ratio (z) = 0.15738 0.39291
#
# Static dielectric constant tensor:
#      x y z
#    x 3.362330 0.000000 0.000000 
#    y 0.000000 3.442770 0.000000 
#    z 0.000000 0.000000 3.604170 
# 
# 
# High freq. dielectric constant tensor:
#      x y z
#    x 1.716300 0.000000 0.000000 
#    y 0.000000 1.699330 0.000000 
#    z 0.000000 0.000000 1.716250 
# 
# From -- ./inp_files/40421.got.cif
#   From: 2010.03.12/outbox.cif.g09.slc.cpg/sg63_21_cif.got.tgz:40421.got - 2010.04.10 19:34:48.
