data_PCOD8257370
_publ_section_title
;
Structure prediction by ZEFSAII (Michael W. Deem and Ramdas Pophale) SiO2 
 PCOD8257370
Probable space group: C M C M
;
_chemical_formula_sum "Si O2"
_cell_formula_units_Z 88
_cell_length_a 10.447181
_cell_length_b 36.280733
_cell_length_c 13.367772
_cell_angle_alpha 90.000000
_cell_angle_beta 90.000000
_cell_angle_gamma 90.000000
_cell_volume 5066.805128
_symmetry_space_group_name_H-M "C M C M"
_symmetry_group_IT_number 63
_symmetry_cell_setting 'orthorhombic'
loop_
_space_group_symop_operation_xyz
x,y,z
-x,-y,1/2+z
x,-y,-z
-x,y,1/2-z
-x,-y,-z
x,y,1/2-z
-x,y,z
x,-y,1/2+z
1/2+x,1/2+y,z
1/2-x,1/2-y,1/2+z
1/2+x,1/2-y,-z
1/2-x,1/2+y,1/2-z
1/2-x,1/2-y,-z
1/2+x,1/2+y,1/2-z
1/2-x,1/2+y,z
1/2+x,1/2-y,1/2+z
loop_
_atom_site_type_symbol
_atom_site_label
_atom_site_fract_x
_atom_site_fract_y
_atom_site_fract_z
Si Si1 0.646213 0.228547 0.367703
Si Si2 0.642599 0.551342 0.858552
Si Si3 0.259682 0.371208 0.135714
Si Si4 0.785325 0.500000 0.000000
Si Si5 0.852239 0.802163 0.487742
Si Si6 0.000000 0.408052 0.131974
Si Si7 0.500000 0.994265 0.135295
O O1 0.673547 0.228000 0.250000
O O2 0.500000 0.215006 0.390646
O O3 0.753012 0.202975 0.420505
O O4 0.664273 0.269941 0.406921
O O5 0.711668 0.541946 0.750000
O O6 0.500000 0.536321 0.851922
O O7 0.640968 0.595193 0.871133
O O8 0.703145 0.533259 0.956207
O O9 0.246355 0.356847 0.250000
O O10 0.124548 0.386410 0.092644
O O11 0.314587 0.339596 0.066428
O O12 0.875256 0.485606 0.909866
O O13 0.000000 0.803805 0.526413
O O14 0.000000 0.407461 0.250000
O O15 0.000000 0.451101 0.100411
O O16 0.500000 0.001576 0.250000
#
# Coordination Sequence:
#
# PCOD8257370 Si02
#       7
#    16  16  16   8  16   8   8
#     4   9  19  36  55  76 107 143 176 213 255 303
#     4  10  20  33  50  75 106 136 168 209 261 316
#     4  10  19  32  52  78 108 135 164 210 265 315
#     4  11  19  30  52  74  99 133 168 206 252 313
#     4  10  20  33  54  83 108 136 175 214 257 311
#     4   9  17  31  49  74 105 133 164 209 265 308
#     4  10  19  33  52  75 101 132 169 211 260 309
#
# _framework density 17.367946
#
# number of rings (size 3 to 8) (size 9 to 14) (size 15 to 20)
#    0.000    2.182    1.818    1.909    1.273    2.182 
#    0.000    0.000    0.000    2.182    0.000    0.000 
#    0.000    0.000    0.000    0.000    0.000    0.000 
#
# Total GULP energy -545191.812565 kJ/mol
# GULP energy per Si atom -12390.723013 kJ/mol
# Density = 1.732842 g / cm^3
# Si number density = 17.367946 Si / 1000 Ang^3
#
#
#
# Elastic Constant Matrix: (Units=GPa)
#
#
# Indices 1 2 3 4 5 6 
#
# 1 117.5931 38.9743 63.5478 0.0000 0.0000 0.0000
# 2 38.9743 73.5267 54.8885 0.0000 0.0000 0.0000
# 3 63.5478 54.8885 121.4752 0.0000 0.0000 0.0000
# 4 0.0000 0.0000 0.0000 29.1601 0.0000 0.0000
# 5 0.0000 0.0000 0.0000 0.0000 22.6291 0.0000
# 6 0.0000 0.0000 0.0000 0.0000 0.0000 31.9016
#
#
#
# Elastic Compliance Matrix: (Units=1/GPa)
#
#
# Indices 1 2 3 4 5 6 
#
# 1 0.012167 -0.002562 -0.005207 0.000000 0.000000 0.000000
# 2 -0.002562 0.021063 -0.008177 0.000000 0.000000 0.000000
# 3 -0.005207 -0.008177 0.014651 0.000000 0.000000 0.000000
# 4 0.000000 0.000000 0.000000 0.034293 0.000000 0.000000
# 5 0.000000 0.000000 0.000000 0.000000 0.044191 0.000000
# 6 0.000000 0.000000 0.000000 0.000000 0.000000 0.031346
#
#
# Mechanical properties :
#
#
# Convention : Reuss Voigt Hill
#
# Bulk Modulus (GPa) = 62.54602 69.71289 66.12946
# Shear Modulus (GPa) = 25.64976 27.08379 26.36678
#
# Velocity S-wave (km/s) = 3.84714 3.95322 3.90054
# Velocity P-wave (km/s) = 7.47158 7.81430 7.64486
#
# Compressibility (1/GPa) = 0.01598823
#
# Stress axis : x y z
#
# Youngs Moduli (GPa) = 82.18858 47.47730 68.25483
#
# Poissons Ratio (x) = 0.12164 0.35543
# Poissons Ratio (y) = 0.21057 0.55811
# Poissons Ratio (z) = 0.42799 0.38821
#
# Static dielectric constant tensor:
#      x y z
#    x 3.666740 0.000000 0.000000 
#    y 0.000000 3.013470 0.000000 
#    z 0.000000 0.000000 3.155810 
# 
# 
# High freq. dielectric constant tensor:
#      x y z
#    x 1.693040 0.000000 0.000000 
#    y 0.000000 1.644560 0.000000 
#    z 0.000000 0.000000 1.655110 
# 
# From -- ./inp_files/18029.got.cif
#   From: 2010.03.12/outbox.cif.g09.slc.cpg/sg63_10_cif.got.tgz:18029.got - 2010.04.10 19:34:48.
