data_PCOD8257406
_publ_section_title
;
Structure prediction by ZEFSAII (Michael W. Deem and Ramdas Pophale) SiO2 
 PCOD8257406
Probable space group: C M C M
;
_chemical_formula_sum "Si O2"
_cell_formula_units_Z 80
_cell_length_a 10.678673
_cell_length_b 28.739274
_cell_length_c 13.563898
_cell_angle_alpha 90.000000
_cell_angle_beta 90.000000
_cell_angle_gamma 90.000000
_cell_volume 4162.723800
_symmetry_space_group_name_H-M "C M C M"
_symmetry_group_IT_number 63
_symmetry_cell_setting 'orthorhombic'
loop_
_space_group_symop_operation_xyz
x,y,z
-x,-y,1/2+z
x,-y,-z
-x,y,1/2-z
-x,-y,-z
x,y,1/2-z
-x,y,z
x,-y,1/2+z
1/2+x,1/2+y,z
1/2-x,1/2-y,1/2+z
1/2+x,1/2-y,-z
1/2-x,1/2+y,1/2-z
1/2-x,1/2-y,-z
1/2+x,1/2+y,1/2-z
1/2-x,1/2+y,z
1/2+x,1/2-y,1/2+z
loop_
_atom_site_type_symbol
_atom_site_label
_atom_site_fract_x
_atom_site_fract_y
_atom_site_fract_z
Si Si1 0.636296 0.801649 0.067098
Si Si2 0.856219 0.053458 0.972280
Si Si3 0.357591 0.098973 0.865015
Si Si4 0.353029 0.621773 0.142637
Si Si5 0.782656 0.284198 0.638993
O O1 0.500000 0.798815 0.115930
O O2 0.687047 0.853917 0.080264
O O3 0.721276 0.766247 0.127760
O O4 0.619855 0.789516 0.950491
O O5 0.750767 0.061047 0.888243
O O6 0.000000 0.067139 0.940309
O O7 0.805785 0.084338 0.063573
O O8 0.854384 0.000000 0.000000
O O9 0.357288 0.108353 0.750000
O O10 0.500000 0.083927 0.898241
O O11 0.297742 0.607482 0.250000
O O12 0.500000 0.619614 0.145188
O O13 0.317187 0.674919 0.119161
O O14 0.841473 0.287654 0.750000
#
# Coordination Sequence:
#
# PCOD8257406 Si02
#       5
#    16  16  16  16  16
#     4  10  20  34  53  78 110 146 182 223 272 330
#     4  10  21  37  58  84 112 143 184 237 287 329
#     4  10  21  38  58  81 114 153 189 226 274 336
#     4   9  17  31  52  77 106 139 177 221 270 326
#     4  10  19  32  53  79 106 139 180 224 271 323
#
# _framework density 19.218185999999999
#
# number of rings (size 3 to 8) (size 9 to 14) (size 15 to 20)
#    0.000    2.200    2.000    1.200    0.000    4.000 
#    0.000    2.000    0.000    3.000    0.000    0.000 
#    0.000    0.000    0.000    0.000    0.000    0.000 
#
# Total GULP energy -495564.357647 kJ/mol
# GULP energy per Si atom -12389.108941 kJ/mol
# Density = 1.917444 g / cm^3
# Si number density = 19.218186 Si / 1000 Ang^3
#
#
#
# Elastic Constant Matrix: (Units=GPa)
#
#
# Indices 1 2 3 4 5 6 
#
# 1 77.6586 37.7688 28.9002 0.0000 0.0000 0.0000
# 2 37.7688 83.0222 21.5311 0.0000 0.0000 0.0000
# 3 28.9002 21.5311 72.7982 0.0000 0.0000 0.0000
# 4 0.0000 0.0000 0.0000 22.5503 0.0000 0.0000
# 5 0.0000 0.0000 0.0000 0.0000 20.1734 0.0000
# 6 0.0000 0.0000 0.0000 0.0000 0.0000 -16.7890
#
#
#
# Elastic Compliance Matrix: (Units=1/GPa)
#
#
# Indices 1 2 3 4 5 6 
#
# 1 0.018167 -0.006925 -0.005164 0.000000 0.000000 0.000000
# 2 -0.006925 0.015686 -0.001890 0.000000 0.000000 0.000000
# 3 -0.005164 -0.001890 0.016346 0.000000 0.000000 0.000000
# 4 0.000000 0.000000 0.000000 0.044345 0.000000 0.000000
# 5 0.000000 0.000000 0.000000 0.000000 0.049570 0.000000
# 6 0.000000 0.000000 0.000000 0.000000 0.000000 -0.059563
#
#
# Mechanical properties :
#
#
# Convention : Reuss Voigt Hill
#
# Bulk Modulus (GPa) = 44.96440 45.54213 45.25326
# Shear Modulus (GPa) = 41.69399 14.87221 28.28310
#
# Velocity S-wave (km/s) = 4.66285 2.78485 3.84042
# Velocity P-wave (km/s) = 7.24135 5.83861 6.57748
#
# Compressibility (1/GPa) = 0.02223982
#
# Stress axis : x y z
#
# Youngs Moduli (GPa) = 55.04620 63.75282 61.17876
#
# Poissons Ratio (x) = 0.44150 0.31591
# Poissons Ratio (y) = 0.38121 0.11563
# Poissons Ratio (z) = 0.28424 0.12049
#
# Static dielectric constant tensor:
#      x y z
#    x 3.381000 0.000000 0.000000 
#    y 0.000000 3.409670 0.000000 
#    z 0.000000 0.000000 3.826840 
# 
# 
# High freq. dielectric constant tensor:
#      x y z
#    x 1.729180 0.000000 0.000000 
#    y 0.000000 1.741970 0.000000 
#    z 0.000000 0.000000 1.751950 
# 
# From -- ./inp_files/17834.got.cif
#   From: 2010.03.12/outbox.cif.g09.slc.cpg/sg63_9_cif.got.tgz:17834.got - 2010.04.10 19:34:48.
