data_PCOD8257188
_publ_section_title
;
Structure prediction by ZEFSAII (Michael W. Deem and Ramdas Pophale) SiO2 
 PCOD8257188
Probable space group: C M C M
;
_chemical_formula_sum "Si O2"
_cell_formula_units_Z 96
_cell_length_a 24.230604
_cell_length_b 24.263361
_cell_length_c 8.872408
_cell_angle_alpha 90.000000
_cell_angle_beta 90.000000
_cell_angle_gamma 90.000000
_cell_volume 5216.229664
_symmetry_space_group_name_H-M "C M C M"
_symmetry_group_IT_number 63
_symmetry_cell_setting 'orthorhombic'
loop_
_space_group_symop_operation_xyz
x,y,z
-x,-y,1/2+z
x,-y,-z
-x,y,1/2-z
-x,-y,-z
x,y,1/2-z
-x,y,z
x,-y,1/2+z
1/2+x,1/2+y,z
1/2-x,1/2-y,1/2+z
1/2+x,1/2-y,-z
1/2-x,1/2+y,1/2-z
1/2-x,1/2-y,-z
1/2+x,1/2+y,1/2-z
1/2-x,1/2+y,z
1/2+x,1/2-y,1/2+z
loop_
_atom_site_type_symbol
_atom_site_label
_atom_site_fract_x
_atom_site_fract_y
_atom_site_fract_z
Si Si1 0.359129 0.941832 0.574156
Si Si2 0.655697 0.770479 0.930393
Si Si3 0.939924 0.651818 0.426158
Si Si4 0.275671 0.138738 0.925802
Si Si5 0.349485 0.647047 0.575102
Si Si6 0.563167 0.558377 0.927956
O O1 0.347145 0.948026 0.750000
O O2 0.414932 0.908205 0.541012
O O3 0.307235 0.911410 0.502086
O O4 0.368117 0.000000 0.500000
O O5 0.662986 0.772373 0.750000
O O6 0.600976 0.801658 0.988983
O O7 0.648976 0.708679 0.994195
O O8 0.708393 0.802122 0.001296
O O9 0.946328 0.661394 0.250000
O O10 0.000000 0.656410 0.504724
O O11 0.289636 0.141873 0.750000
O O12 0.211684 0.124194 0.953640
O O13 0.363171 0.652819 0.750000
O O14 0.395638 0.605653 0.505775
O O15 0.570766 0.552291 0.750000
O O16 0.500000 0.574404 0.969480
O O17 0.579532 0.500000 0.000000
#
# Coordination Sequence:
#
# PCOD8257188 Si02
#       6
#    16  16  16  16  16  16
#     4  10  20  34  51  71  97 128 165 205 245 289
#     4   9  17  31  50  72 100 129 160 199 241 285
#     4   8  15  28  47  71  97 125 157 195 239 285
#     4  10  19  32  49  70 101 133 162 198 240 286
#     4   9  18  31  50  76  99 125 163 201 237 286
#     4   9  18  34  53  72  97 127 159 198 244 290
#
# _framework density 18.404098999999999
#
# number of rings (size 3 to 8) (size 9 to 14) (size 15 to 20)
#    0.000    2.833    0.000    2.500    0.000    1.667 
#    0.000    8.333    0.000   12.000    0.000    0.000 
#    0.000    0.000    0.000    0.000    0.000    0.000 
#
# Total GULP energy -594963.393587 kJ/mol
# GULP energy per Si atom -12395.070700 kJ/mol
# Density = 1.836221 g / cm^3
# Si number density = 18.404099 Si / 1000 Ang^3
#
#
#
# Elastic Constant Matrix: (Units=GPa)
#
#
# Indices 1 2 3 4 5 6 
#
# 1 101.5722 37.0594 30.7997 0.0000 0.0000 0.0000
# 2 37.0594 77.5127 23.2447 0.0000 0.0000 0.0000
# 3 30.7997 23.2447 48.8953 0.0000 0.0000 0.0000
# 4 0.0000 0.0000 0.0000 27.2584 0.0000 0.0000
# 5 0.0000 0.0000 0.0000 0.0000 18.5045 0.0000
# 6 0.0000 0.0000 0.0000 0.0000 0.0000 27.0031
#
#
#
# Elastic Compliance Matrix: (Units=1/GPa)
#
#
# Indices 1 2 3 4 5 6 
#
# 1 0.013403 -0.004521 -0.006294 0.000000 0.000000 0.000000
# 2 -0.004521 0.016571 -0.005030 0.000000 0.000000 0.000000
# 3 -0.006294 -0.005030 0.026808 0.000000 0.000000 0.000000
# 4 0.000000 0.000000 0.000000 0.036686 0.000000 0.000000
# 5 0.000000 0.000000 0.000000 0.000000 0.054041 0.000000
# 6 0.000000 0.000000 0.000000 0.000000 0.000000 0.037033
#
#
# Mechanical properties :
#
#
# Convention : Reuss Voigt Hill
#
# Bulk Modulus (GPa) = 39.85229 45.57643 42.71436
# Shear Modulus (GPa) = 22.26235 23.67828 22.97031
#
# Velocity S-wave (km/s) = 3.48176 3.59078 3.53669
# Velocity P-wave (km/s) = 6.15342 6.48148 6.31958
#
# Compressibility (1/GPa) = 0.02509266
#
# Stress axis : x y z
#
# Youngs Moduli (GPa) = 74.60993 60.34651 37.30291
#
# Poissons Ratio (x) = 0.27281 0.23477
# Poissons Ratio (y) = 0.33729 0.18764
# Poissons Ratio (z) = 0.46956 0.30355
#
# Static dielectric constant tensor:
#      x y z
#    x 3.820510 0.000000 0.000000 
#    y 0.000000 3.539000 0.000000 
#    z 0.000000 0.000000 3.124090 
# 
# 
# High freq. dielectric constant tensor:
#      x y z
#    x 1.719770 0.000000 0.000000 
#    y 0.000000 1.718190 0.000000 
#    z 0.000000 0.000000 1.681890 
# 
# From -- ./inp_files/10487.got.cif
#   From: 2010.03.12/outbox.cif.g09.slc.cpg/sg63_6_cif.got.tgz:10487.got - 2010.04.10 19:34:48.
