data_PCOD8257344
_publ_section_title
;
Structure prediction by ZEFSAII (Michael W. Deem and Ramdas Pophale) SiO2 
 PCOD8257344
Probable space group: C M C M
;
_chemical_formula_sum "Si O2"
_cell_formula_units_Z 80
_cell_length_a 31.631459
_cell_length_b 14.955966
_cell_length_c 9.088791
_cell_angle_alpha 90.000000
_cell_angle_beta 90.000000
_cell_angle_gamma 90.000000
_cell_volume 4299.716388
_symmetry_space_group_name_H-M "C M C M"
_symmetry_group_IT_number 63
_symmetry_cell_setting 'orthorhombic'
loop_
_space_group_symop_operation_xyz
x,y,z
-x,-y,1/2+z
x,-y,-z
-x,y,1/2-z
-x,-y,-z
x,y,1/2-z
-x,y,z
x,-y,1/2+z
1/2+x,1/2+y,z
1/2-x,1/2-y,1/2+z
1/2+x,1/2-y,-z
1/2-x,1/2+y,1/2-z
1/2-x,1/2-y,-z
1/2+x,1/2+y,1/2-z
1/2-x,1/2+y,z
1/2+x,1/2-y,1/2+z
loop_
_atom_site_type_symbol
_atom_site_label
_atom_site_fract_x
_atom_site_fract_y
_atom_site_fract_z
Si Si1 0.047822 0.411273 0.078804
Si Si2 0.226241 0.127856 0.910861
Si Si3 0.617939 0.229857 0.576441
Si Si4 0.198659 0.670528 0.087664
Si Si5 0.633405 0.587956 0.574445
O O1 0.050052 0.431768 0.250000
O O2 0.076241 0.326266 0.038091
O O3 0.000000 0.389590 0.027474
O O4 0.065242 0.500000 0.000000
O O5 0.237074 0.088647 0.750000
O O6 0.219558 0.233240 0.896699
O O7 0.182840 0.085708 0.970877
O O8 0.265481 0.105318 0.018424
O O9 0.623837 0.246236 0.750000
O O10 0.657903 0.174014 0.517013
O O11 0.611976 0.324129 0.493904
O O12 0.185852 0.634906 0.250000
O O13 0.612501 0.500000 0.500000
O O14 0.626897 0.588833 0.750000
#
# Coordination Sequence:
#
# PCOD8257344 Si02
#       5
#    16  16  16  16  16
#     4   9  19  36  58  83 107 131 161 200 250 308
#     4   8  15  27  42  62  90 126 167 209 252 293
#     4  10  19  32  52  76 104 136 168 208 257 307
#     4   9  16  26  43  67  94 126 166 210 251 293
#     4  10  20  33  50  73 102 137 178 219 255 297
#
# _framework density 18.605877
#
# number of rings (size 3 to 8) (size 9 to 14) (size 15 to 20)
#    0.000    2.800    0.000    3.000    0.000    7.200 
#    0.000    1.000    0.000    0.600    0.000    0.000 
#    0.000    0.000    0.000    0.000    0.000    0.000 
#
# Total GULP energy -495815.786044 kJ/mol
# GULP energy per Si atom -12395.394651 kJ/mol
# Density = 1.856353 g / cm^3
# Si number density = 18.605877 Si / 1000 Ang^3
#
#
#
# Elastic Constant Matrix: (Units=GPa)
#
#
# Indices 1 2 3 4 5 6 
#
# 1 77.0315 50.8912 50.4321 0.0000 0.0000 0.0000
# 2 50.8912 98.0438 59.8895 0.0000 0.0000 0.0000
# 3 50.4321 59.8895 108.3561 0.0000 0.0000 0.0000
# 4 0.0000 0.0000 0.0000 26.5923 0.0000 0.0000
# 5 0.0000 0.0000 0.0000 0.0000 22.3676 0.0000
# 6 0.0000 0.0000 0.0000 0.0000 0.0000 13.4388
#
#
#
# Elastic Compliance Matrix: (Units=1/GPa)
#
#
# Indices 1 2 3 4 5 6 
#
# 1 0.022026 -0.007806 -0.005937 0.000000 0.000000 0.000000
# 2 -0.007806 0.018165 -0.006407 0.000000 0.000000 0.000000
# 3 -0.005937 -0.006407 0.015533 0.000000 0.000000 0.000000
# 4 0.000000 0.000000 0.000000 0.037605 0.000000 0.000000
# 5 0.000000 0.000000 0.000000 0.000000 0.044707 0.000000
# 6 0.000000 0.000000 0.000000 0.000000 0.000000 0.074411
#
#
# Mechanical properties :
#
#
# Convention : Reuss Voigt Hill
#
# Bulk Modulus (GPa) = 64.83337 67.31745 66.07541
# Shear Modulus (GPa) = 19.38822 20.62766 20.00794
#
# Velocity S-wave (km/s) = 3.23158 3.33327 3.28282
# Velocity P-wave (km/s) = 6.98895 7.14658 7.06820
#
# Compressibility (1/GPa) = 0.01542415
#
# Stress axis : x y z
#
# Youngs Moduli (GPa) = 45.40122 55.05079 64.37902
#
# Poissons Ratio (x) = 0.42975 0.38220
# Poissons Ratio (y) = 0.35442 0.41245
# Poissons Ratio (z) = 0.26954 0.35269
#
# Static dielectric constant tensor:
#      x y z
#    x 3.310300 0.000000 0.000000 
#    y 0.000000 3.243210 0.000000 
#    z 0.000000 0.000000 3.689660 
# 
# 
# High freq. dielectric constant tensor:
#      x y z
#    x 1.691170 0.000000 0.000000 
#    y 0.000000 1.705410 0.000000 
#    z 0.000000 0.000000 1.734910 
# 
# From -- ./inp_files/14047.got.cif
#   From: 2010.03.12/outbox.cif.g09.slc.cpg/sg63_8_cif.got.tgz:14047.got - 2010.04.10 19:34:48.
