data_PCOD8257511
_publ_section_title
;
Structure prediction by ZEFSAII (Michael W. Deem and Ramdas Pophale) SiO2 
 PCOD8257511
Probable space group: C M C M
;
_chemical_formula_sum "Si O2"
_cell_formula_units_Z 128
_cell_length_a 13.102204
_cell_length_b 23.441646
_cell_length_c 23.527035
_cell_angle_alpha 90.000000
_cell_angle_beta 90.000000
_cell_angle_gamma 90.000000
_cell_volume 7226.028313
_symmetry_space_group_name_H-M "C M C M"
_symmetry_group_IT_number 63
_symmetry_cell_setting 'orthorhombic'
loop_
_space_group_symop_operation_xyz
x,y,z
-x,-y,1/2+z
x,-y,-z
-x,y,1/2-z
-x,-y,-z
x,y,1/2-z
-x,y,z
x,-y,1/2+z
1/2+x,1/2+y,z
1/2-x,1/2-y,1/2+z
1/2+x,1/2-y,-z
1/2-x,1/2+y,1/2-z
1/2-x,1/2-y,-z
1/2+x,1/2+y,1/2-z
1/2-x,1/2+y,z
1/2+x,1/2-y,1/2+z
loop_
_atom_site_type_symbol
_atom_site_label
_atom_site_fract_x
_atom_site_fract_y
_atom_site_fract_z
Si Si1 0.617607 0.483626 0.684025
Si Si2 0.883263 0.096966 0.881770
Si Si3 0.788039 0.067872 0.503380
Si Si4 0.114941 0.782796 0.686310
Si Si5 0.752714 0.202865 0.624371
Si Si6 0.113864 0.308134 0.592538
Si Si7 0.705133 0.617281 0.380876
Si Si8 0.385585 0.148366 0.531534
O O1 0.635802 0.494625 0.750000
O O2 0.500000 0.466518 0.671370
O O3 0.649160 0.540057 0.650664
O O4 0.693212 0.434269 0.663112
O O5 0.811974 0.146345 0.856058
O O6 0.000000 0.112977 0.869676
O O7 0.868348 0.088590 0.949288
O O8 0.824410 0.096047 0.444097
O O9 0.675448 0.089327 0.521379
O O10 0.786119 0.000000 0.500000
O O11 0.134133 0.807164 0.750000
O O12 0.191168 0.729733 0.677051
O O13 0.131425 0.831593 0.638994
O O14 0.000000 0.760250 0.680102
O O15 0.836931 0.246774 0.602162
O O16 0.670497 0.188897 0.576093
O O17 0.178921 0.359305 0.621242
O O18 0.109673 0.315242 0.525395
O O19 0.000000 0.310180 0.618893
O O20 0.500000 0.132855 0.552452
#
# Coordination Sequence:
#
# PCOD8257511 Si02
#       8
#    16  16  16  16  16  16  16  16
#     4  10  20  34  53  75 100 133 173 218 264 310
#     4  10  21  34  51  78 111 143 175 215 261 317
#     4  10  19  33  51  77 111 142 179 213 264 321
#     4  10  21  36  55  79 103 132 175 223 270 314
#     4  10  19  33  53  74 104 137 174 212 257 311
#     4   9  18  32  51  76 106 138 170 208 255 309
#     4  10  19  33  55  78 105 136 170 219 266 314
#     4   9  18  31  49  75 106 138 174 214 257 307
#
# _framework density 17.713742
#
# number of rings (size 3 to 8) (size 9 to 14) (size 15 to 20)
#    0.000    2.250    1.250    1.875    0.000    4.000 
#    0.000    0.000    0.000   12.375    0.000    0.000 
#    0.000    0.000    0.000    0.000    0.000    0.000 
#
# Total GULP energy -793546.891743 kJ/mol
# GULP energy per Si atom -12399.170183 kJ/mol
# Density = 1.767342 g / cm^3
# Si number density = 17.713742 Si / 1000 Ang^3
#
#
#
# Elastic Constant Matrix: (Units=GPa)
#
#
# Indices 1 2 3 4 5 6 
#
# 1 101.1464 48.2216 31.7890 0.0000 0.0000 0.0000
# 2 48.2216 106.3341 35.0285 0.0000 0.0000 0.0000
# 3 31.7890 35.0285 74.2678 0.0000 0.0000 0.0000
# 4 0.0000 0.0000 0.0000 26.1110 0.0000 0.0000
# 5 0.0000 0.0000 0.0000 0.0000 22.1165 0.0000
# 6 0.0000 0.0000 0.0000 0.0000 0.0000 25.6949
#
#
#
# Elastic Compliance Matrix: (Units=1/GPa)
#
#
# Indices 1 2 3 4 5 6 
#
# 1 0.013290 -0.004917 -0.003369 0.000000 0.000000 0.000000
# 2 -0.004917 0.012953 -0.004005 0.000000 0.000000 0.000000
# 3 -0.003369 -0.004005 0.016796 0.000000 0.000000 0.000000
# 4 0.000000 0.000000 0.000000 0.038298 0.000000 0.000000
# 5 0.000000 0.000000 0.000000 0.000000 0.045215 0.000000
# 6 0.000000 0.000000 0.000000 0.000000 0.000000 0.038918
#
#
# Mechanical properties :
#
#
# Convention : Reuss Voigt Hill
#
# Bulk Modulus (GPa) = 54.18082 56.86963 55.52523
# Shear Modulus (GPa) = 25.48356 25.89842 25.69099
#
# Velocity S-wave (km/s) = 3.79705 3.82783 3.81247
# Velocity P-wave (km/s) = 7.06234 7.19103 7.12698
#
# Compressibility (1/GPa) = 0.01845671
#
# Stress axis : x y z
#
# Youngs Moduli (GPa) = 75.24621 77.20013 59.53830
#
# Poissons Ratio (x) = 0.37958 0.20061
# Poissons Ratio (y) = 0.36997 0.23845
# Poissons Ratio (z) = 0.25353 0.30918
#
# Static dielectric constant tensor:
#      x y z
#    x 3.405290 0.000000 0.000000 
#    y 0.000000 3.298990 0.000000 
#    z 0.000000 0.000000 3.249080 
# 
# 
# High freq. dielectric constant tensor:
#      x y z
#    x 1.682950 0.000000 0.000000 
#    y 0.000000 1.688180 0.000000 
#    z 0.000000 0.000000 1.676680 
# 
# From -- ./inp_files/62009.got.cif
#   From: 2010.03.12/outbox.cif.g09.slc.cpg/sg63_32_cif.got.tgz:62009.got - 2010.04.10 19:34:48.
