data_PCOD8257556
_publ_section_title
;
Structure prediction by ZEFSAII (Michael W. Deem and Ramdas Pophale) SiO2 
 PCOD8257556
Probable space group: C M C M
;
_chemical_formula_sum "Si O2"
_cell_formula_units_Z 96
_cell_length_a 8.962598
_cell_length_b 30.103871
_cell_length_c 19.370353
_cell_angle_alpha 90.000000
_cell_angle_beta 90.000000
_cell_angle_gamma 90.000000
_cell_volume 5226.293520
_symmetry_space_group_name_H-M "C M C M"
_symmetry_group_IT_number 63
_symmetry_cell_setting 'orthorhombic'
loop_
_space_group_symop_operation_xyz
x,y,z
-x,-y,1/2+z
x,-y,-z
-x,y,1/2-z
-x,-y,-z
x,y,1/2-z
-x,y,z
x,-y,1/2+z
1/2+x,1/2+y,z
1/2-x,1/2-y,1/2+z
1/2+x,1/2-y,-z
1/2-x,1/2+y,1/2-z
1/2-x,1/2-y,-z
1/2+x,1/2+y,1/2-z
1/2-x,1/2+y,z
1/2+x,1/2-y,1/2+z
loop_
_atom_site_type_symbol
_atom_site_label
_atom_site_fract_x
_atom_site_fract_y
_atom_site_fract_z
Si Si1 0.671268 0.962562 0.169419
Si Si2 0.676980 0.302213 0.172965
Si Si3 0.176741 0.628926 0.442588
Si Si4 0.823742 0.886648 0.412418
Si Si5 0.676819 0.937048 0.673859
Si Si6 0.824688 0.270191 0.933197
O O1 0.691951 0.952326 0.250000
O O2 0.500000 0.954366 0.147272
O O3 0.780146 0.931521 0.126246
O O4 0.720690 0.012913 0.152596
O O5 0.746304 0.301864 0.250000
O O6 0.500000 0.304851 0.177702
O O7 0.737913 0.344806 0.131325
O O8 0.727918 0.257370 0.133956
O O9 0.250419 0.613456 0.512997
O O10 0.240687 0.597487 0.381952
O O11 0.224148 0.678958 0.423220
O O12 0.000000 0.624288 0.450365
O O13 0.000000 0.884150 0.421119
O O14 0.742206 0.925706 0.750000
O O15 0.500000 0.933363 0.677458
O O16 0.000000 0.265614 0.943895
O O17 0.750000 0.250000 0.000000
#
# Coordination Sequence:
#
# PCOD8257556 Si02
#       6
#    16  16  16  16  16  16
#     4   9  18  34  55  76 102 136 172 214 263 311
#     4   9  18  32  50  74 102 133 169 209 254 301
#     4  10  20  33  54  80 103 133 174 218 261 311
#     4  11  21  33  51  75 108 144 174 211 255 309
#     4   8  16  33  55  78 103 132 170 218 267 310
#     4  10  19  33  53  75 102 135 169 209 256 308
#
# _framework density 18.368658
#
# number of rings (size 3 to 8) (size 9 to 14) (size 15 to 20)
#    0.000    2.500    1.667    2.000    0.000    2.333 
#    0.000    7.500    0.000    3.000    0.000    2.333 
#    0.000    0.000    0.000    0.000    0.000    0.000 
#
# Total GULP energy -595169.021253 kJ/mol
# GULP energy per Si atom -12399.354609 kJ/mol
# Density = 1.832685 g / cm^3
# Si number density = 18.368658 Si / 1000 Ang^3
#
#
#
# Elastic Constant Matrix: (Units=GPa)
#
#
# Indices 1 2 3 4 5 6 
#
# 1 18.6077 24.0361 19.3464 0.0000 0.0000 0.0000
# 2 24.0361 152.2507 87.7133 0.0000 0.0000 0.0000
# 3 19.3464 87.7133 140.4677 0.0000 0.0000 0.0000
# 4 0.0000 0.0000 0.0000 39.0178 0.0000 0.0000
# 5 0.0000 0.0000 0.0000 0.0000 18.1630 0.0000
# 6 0.0000 0.0000 0.0000 0.0000 0.0000 21.1567
#
#
#
# Elastic Compliance Matrix: (Units=1/GPa)
#
#
# Indices 1 2 3 4 5 6 
#
# 1 0.069076 -0.008472 -0.004224 0.000000 0.000000 0.000000
# 2 -0.008472 0.011298 -0.005888 0.000000 0.000000 0.000000
# 3 -0.004224 -0.005888 0.011377 0.000000 0.000000 0.000000
# 4 0.000000 0.000000 0.000000 0.025629 0.000000 0.000000
# 5 0.000000 0.000000 0.000000 0.000000 0.055057 0.000000
# 6 0.000000 0.000000 0.000000 0.000000 0.000000 0.047266
#
#
# Mechanical properties :
#
#
# Convention : Reuss Voigt Hill
#
# Bulk Modulus (GPa) = 18.32030 63.72419 41.02224
# Shear Modulus (GPa) = 18.17752 27.68284 22.93018
#
# Velocity S-wave (km/s) = 3.14919 3.88631 3.53701
# Velocity P-wave (km/s) = 4.81856 7.40979 6.24994
#
# Compressibility (1/GPa) = 0.05458426
#
# Stress axis : x y z
#
# Youngs Moduli (GPa) = 14.47685 88.51404 87.89372
#
# Poissons Ratio (x) = 0.74988 0.37122
# Poissons Ratio (y) = 0.12265 0.51751
# Poissons Ratio (z) = 0.06114 0.52116
#
# Static dielectric constant tensor:
#      x y z
#    x 3.006680 0.000000 0.000000 
#    y 0.000000 3.648220 0.000000 
#    z 0.000000 0.000000 3.656490 
# 
# 
# High freq. dielectric constant tensor:
#      x y z
#    x 1.672670 0.000000 0.000000 
#    y 0.000000 1.724430 0.000000 
#    z 0.000000 0.000000 1.719860 
# 
# From -- ./inp_files/51245.got.cif
#   From: 2010.03.12/outbox.cif.g09.slc.cpg/sg63_26_cif.got.tgz:51245.got - 2010.04.10 19:34:48.
