data_PCOD8257473
_publ_section_title
;
Structure prediction by ZEFSAII (Michael W. Deem and Ramdas Pophale) SiO2 
 PCOD8257473
Probable space group: C M C M
;
_chemical_formula_sum "Si O2"
_cell_formula_units_Z 64
_cell_length_a 10.166982
_cell_length_b 17.337000
_cell_length_c 18.917695
_cell_angle_alpha 90.000000
_cell_angle_beta 90.000000
_cell_angle_gamma 90.000000
_cell_volume 3334.526884
_symmetry_space_group_name_H-M "C M C M"
_symmetry_group_IT_number 63
_symmetry_cell_setting 'orthorhombic'
loop_
_space_group_symop_operation_xyz
x,y,z
-x,-y,1/2+z
x,-y,-z
-x,y,1/2-z
-x,-y,-z
x,y,1/2-z
-x,y,z
x,-y,1/2+z
1/2+x,1/2+y,z
1/2-x,1/2-y,1/2+z
1/2+x,1/2-y,-z
1/2-x,1/2+y,1/2-z
1/2-x,1/2-y,-z
1/2+x,1/2+y,1/2-z
1/2-x,1/2+y,z
1/2+x,1/2-y,1/2+z
loop_
_atom_site_type_symbol
_atom_site_label
_atom_site_fract_x
_atom_site_fract_y
_atom_site_fract_z
Si Si1 0.000000 0.118561 0.167170
Si Si2 0.744743 0.176022 0.403646
Si Si3 0.000000 0.965096 0.421772
Si Si4 0.000000 0.420952 0.906392
Si Si5 0.000000 0.591367 0.925766
Si Si6 0.776058 0.153920 0.567168
O O1 0.128416 0.167056 0.145391
O O2 0.000000 0.106932 0.250000
O O3 0.000000 0.034332 0.133037
O O4 0.630119 0.119715 0.375690
O O5 0.787742 0.154230 0.482708
O O6 0.685966 0.262659 0.401590
O O7 0.872626 0.912793 0.406157
O O8 0.000000 0.000000 0.500000
O O9 0.000000 0.510224 0.884309
O O10 0.000000 0.417391 0.990492
O O11 0.870293 0.637797 0.904030
#
# Coordination Sequence:
#
# PCOD8257473 Si02
#       6
#     8  16   8   8   8  16
#     4  12  25  40  58  84 123 164 197 240 308 374
#     4  10  19  35  55  85 115 148 193 243 295 349
#     4  12  21  36  60  90 121 155 198 249 294 347
#     4   9  17  28  50  74 107 140 179 231 281 334
#     4   9  17  26  45  80 113 137 171 230 294 333
#     4  10  19  32  58  87 114 145 193 249 293 336
#
# _framework density 19.193125999999999
#
# number of rings (size 3 to 8) (size 9 to 14) (size 15 to 20)
#    0.000    1.750    2.500    3.000    3.500    4.000 
#    0.000    1.875    0.000    0.000    0.000    0.000 
#    0.000    0.000    0.000    0.000    0.000    0.000 
#
# Total GULP energy -396825.565707 kJ/mol
# GULP energy per Si atom -12400.798928 kJ/mol
# Density = 1.914944 g / cm^3
# Si number density = 19.193126 Si / 1000 Ang^3
#
#
#
# Elastic Constant Matrix: (Units=GPa)
#
#
# Indices 1 2 3 4 5 6 
#
# 1 120.0227 28.8176 29.7664 0.0000 0.0000 0.0000
# 2 28.8176 98.9173 28.8257 0.0000 0.0000 0.0000
# 3 29.7664 28.8257 63.8488 0.0000 0.0000 0.0000
# 4 0.0000 0.0000 0.0000 13.3223 0.0000 0.0000
# 5 0.0000 0.0000 0.0000 0.0000 10.6858 0.0000
# 6 0.0000 0.0000 0.0000 0.0000 0.0000 44.1125
#
#
#
# Elastic Compliance Matrix: (Units=1/GPa)
#
#
# Indices 1 2 3 4 5 6 
#
# 1 0.009672 -0.001732 -0.003727 0.000000 0.000000 0.000000
# 2 -0.001732 0.011951 -0.004588 0.000000 0.000000 0.000000
# 3 -0.003727 -0.004588 0.019471 0.000000 0.000000 0.000000
# 4 0.000000 0.000000 0.000000 0.075062 0.000000 0.000000
# 5 0.000000 0.000000 0.000000 0.000000 0.093582 0.000000
# 6 0.000000 0.000000 0.000000 0.000000 0.000000 0.022669
#
#
# Mechanical properties :
#
#
# Convention : Reuss Voigt Hill
#
# Bulk Modulus (GPa) = 47.61949 50.84537 49.23243
# Shear Modulus (GPa) = 19.26769 26.64940 22.95855
#
# Velocity S-wave (km/s) = 3.17185 3.73028 3.46234
# Velocity P-wave (km/s) = 6.18698 6.71582 6.45682
#
# Compressibility (1/GPa) = 0.02099981
#
# Stress axis : x y z
#
# Youngs Moduli (GPa) = 103.39234 83.67519 51.35811
#
# Poissons Ratio (x) = 0.14489 0.19143
# Poissons Ratio (y) = 0.17903 0.23564
# Poissons Ratio (z) = 0.38538 0.38392
#
# Static dielectric constant tensor:
#      x y z
#    x 3.682360 0.000000 0.000000 
#    y 0.000000 3.754760 0.000000 
#    z 0.000000 0.000000 2.890680 
# 
# 
# High freq. dielectric constant tensor:
#      x y z
#    x 1.764380 0.000000 0.000000 
#    y 0.000000 1.768450 0.000000 
#    z 0.000000 0.000000 1.666930 
# 
# From -- ./inp_files/41582.got.cif
#   From: 2010.03.12/outbox.cif.g09.slc.cpg/sg63_21_cif.got.tgz:41582.got - 2010.04.10 19:34:48.
