data_PCOD8257497
_publ_section_title
;
Structure prediction by ZEFSAII (Michael W. Deem and Ramdas Pophale) SiO2 
 PCOD8257497
Probable space group: C M C M
;
_chemical_formula_sum "Si O2"
_cell_formula_units_Z 96
_cell_length_a 9.324006
_cell_length_b 25.155661
_cell_length_c 23.522943
_cell_angle_alpha 90.000000
_cell_angle_beta 90.000000
_cell_angle_gamma 90.000000
_cell_volume 5517.342367
_symmetry_space_group_name_H-M "C M C M"
_symmetry_group_IT_number 63
_symmetry_cell_setting 'orthorhombic'
loop_
_space_group_symop_operation_xyz
x,y,z
-x,-y,1/2+z
x,-y,-z
-x,y,1/2-z
-x,-y,-z
x,y,1/2-z
-x,y,z
x,-y,1/2+z
1/2+x,1/2+y,z
1/2-x,1/2-y,1/2+z
1/2+x,1/2-y,-z
1/2-x,1/2+y,1/2-z
1/2-x,1/2-y,-z
1/2+x,1/2+y,1/2-z
1/2-x,1/2+y,z
1/2+x,1/2-y,1/2+z
loop_
_atom_site_type_symbol
_atom_site_label
_atom_site_fract_x
_atom_site_fract_y
_atom_site_fract_z
Si Si1 0.328869 0.934739 0.750000
Si Si2 0.667488 0.404869 0.860835
Si Si3 0.166181 0.992524 0.065044
Si Si4 0.169753 0.443230 0.250000
Si Si5 0.332978 0.312804 0.554858
Si Si6 0.667638 0.904451 0.130670
Si Si7 0.665610 0.807487 0.443356
O O1 0.500000 0.929394 0.750000
O O2 0.264562 0.905998 0.804977
O O3 0.277127 0.995959 0.750000
O O4 0.500000 0.404483 0.843884
O O5 0.705207 0.454577 0.900555
O O6 0.712074 0.351469 0.894119
O O7 0.257076 0.943773 0.087484
O O8 0.000000 0.977998 0.071265
O O9 0.209985 0.000000 0.000000
O O10 0.229676 0.413075 0.194261
O O11 0.000000 0.441390 0.250000
O O12 0.500000 0.319196 0.541622
O O13 0.291202 0.252731 0.572832
O O14 0.252766 0.329095 0.497260
O O15 0.500000 0.917814 0.129224
O O16 0.699199 0.844078 0.111325
O O17 0.500000 0.810821 0.460590
#
# Coordination Sequence:
#
# PCOD8257497 Si02
#       7
#     8  16  16   8  16  16  16
#     4  11  21  35  54  73  99 137 175 209 254 301
#     4  10  20  34  52  74 103 135 170 209 250 301
#     4  10  20  32  48  73 102 131 163 202 250 300
#     4   9  18  33  50  69  97 133 165 203 250 293
#     4   9  18  34  54  76 104 136 168 206 254 304
#     4  10  19  33  51  73 101 130 166 207 249 297
#     4   9  18  32  53  79 103 132 170 209 252 302
#
# _framework density 17.399681999999999
#
# number of rings (size 3 to 8) (size 9 to 14) (size 15 to 20)
#    0.000    2.333    1.667    1.250    0.000    3.000 
#    0.000    1.250    0.000    4.000    0.000    0.000 
#    0.000    0.000    0.000    0.000    0.000    0.000 
#
# Total GULP energy -595265.271388 kJ/mol
# GULP energy per Si atom -12401.359821 kJ/mol
# Density = 1.736008 g / cm^3
# Si number density = 17.399682 Si / 1000 Ang^3
#
#
#
# Elastic Constant Matrix: (Units=GPa)
#
#
# Indices 1 2 3 4 5 6 
#
# 1 38.6725 31.0715 40.6600 0.0000 0.0000 0.0000
# 2 31.0715 95.4222 59.9017 0.0000 0.0000 0.0000
# 3 40.6600 59.9017 134.0721 0.0000 0.0000 0.0000
# 4 0.0000 0.0000 0.0000 30.4963 0.0000 0.0000
# 5 0.0000 0.0000 0.0000 0.0000 20.6215 0.0000
# 6 0.0000 0.0000 0.0000 0.0000 0.0000 23.6550
#
#
#
# Elastic Compliance Matrix: (Units=1/GPa)
#
#
# Indices 1 2 3 4 5 6 
#
# 1 0.041813 -0.007859 -0.009169 0.000000 0.000000 0.000000
# 2 -0.007859 0.016042 -0.004784 0.000000 0.000000 0.000000
# 3 -0.009169 -0.004784 0.012377 0.000000 0.000000 0.000000
# 4 0.000000 0.000000 0.000000 0.032791 0.000000 0.000000
# 5 0.000000 0.000000 0.000000 0.000000 0.048493 0.000000
# 6 0.000000 0.000000 0.000000 0.000000 0.000000 0.042274
#
#
# Mechanical properties :
#
#
# Convention : Reuss Voigt Hill
#
# Bulk Modulus (GPa) = 37.58381 59.04813 48.31597
# Shear Modulus (GPa) = 20.30179 24.05682 22.17930
#
# Velocity S-wave (km/s) = 3.41954 3.72237 3.57416
# Velocity P-wave (km/s) = 6.10231 7.24463 6.69787
#
# Compressibility (1/GPa) = 0.02660720
#
# Stress axis : x y z
#
# Youngs Moduli (GPa) = 23.91597 62.33651 80.79624
#
# Poissons Ratio (x) = 0.48991 0.74084
# Poissons Ratio (y) = 0.18796 0.38652
# Poissons Ratio (z) = 0.21929 0.29821
#
# Static dielectric constant tensor:
#      x y z
#    x 3.132140 0.000000 0.000000 
#    y 0.000000 3.383560 0.000000 
#    z 0.000000 0.000000 3.367260 
# 
# 
# High freq. dielectric constant tensor:
#      x y z
#    x 1.661370 0.000000 0.000000 
#    y 0.000000 1.673990 0.000000 
#    z 0.000000 0.000000 1.672990 
# 
# From -- ./inp_files/59987.got.cif
#   From: 2010.03.12/outbox.cif.g09.slc.cpg/sg63_30_cif.got.tgz:59987.got - 2010.04.10 19:34:48.
