data_PCOD8257084
_publ_section_title
;
Structure prediction by ZEFSAII (Michael W. Deem and Ramdas Pophale) SiO2 
 PCOD8257084
Probable space group: C M C M
;
_chemical_formula_sum "Si O2"
_cell_formula_units_Z 96
_cell_length_a 23.856054
_cell_length_b 23.991557
_cell_length_c 9.251266
_cell_angle_alpha 90.000000
_cell_angle_beta 90.000000
_cell_angle_gamma 90.000000
_cell_volume 5294.905471
_symmetry_space_group_name_H-M "C M C M"
_symmetry_group_IT_number 63
_symmetry_cell_setting 'orthorhombic'
loop_
_space_group_symop_operation_xyz
x,y,z
-x,-y,1/2+z
x,-y,-z
-x,y,1/2-z
-x,-y,-z
x,y,1/2-z
-x,y,z
x,-y,1/2+z
1/2+x,1/2+y,z
1/2-x,1/2-y,1/2+z
1/2+x,1/2-y,-z
1/2-x,1/2+y,1/2-z
1/2-x,1/2-y,-z
1/2+x,1/2+y,1/2-z
1/2-x,1/2+y,z
1/2+x,1/2-y,1/2+z
loop_
_atom_site_type_symbol
_atom_site_label
_atom_site_fract_x
_atom_site_fract_y
_atom_site_fract_z
Si Si1 0.435881 0.366722 0.081523
Si Si2 0.658276 0.446549 0.087589
Si Si3 0.064542 0.443304 0.079393
Si Si4 0.231052 0.839354 0.416967
Si Si5 0.855950 0.344939 0.417864
Si Si6 0.634649 0.719488 0.418900
O O1 0.424057 0.353405 0.250000
O O2 0.500000 0.379668 0.048802
O O3 0.400862 0.421032 0.033254
O O4 0.416461 0.313935 0.989330
O O5 0.652093 0.467132 0.250000
O O6 0.705746 0.400572 0.069524
O O7 0.676692 0.500000 0.000000
O O8 0.072577 0.451888 0.250000
O O9 0.103280 0.392775 0.017446
O O10 0.000000 0.428550 0.042852
O O11 0.083068 0.500000 0.000000
O O12 0.232118 0.818959 0.250000
O O13 0.293251 0.844518 0.484504
O O14 0.194275 0.795293 0.507728
O O15 0.849813 0.358090 0.250000
O O16 0.881663 0.283866 0.444910
O O17 0.639503 0.705281 0.250000
#
# Coordination Sequence:
#
# PCOD8257084 Si02
#       6
#    16  16  16  16  16  16
#     4   9  19  36  53  69  96 135 170 199 241 295
#     4   9  18  31  48  69  94 126 162 201 243 286
#     4   9  18  34  53  72  98 130 162 200 246 292
#     4   9  18  34  51  68  98 136 166 195 241 296
#     4   9  18  32  52  75  98 130 167 199 238 293
#     4  10  19  31  50  77 103 126 160 205 248 287
#
# _framework density 18.130635000000002
#
# number of rings (size 3 to 8) (size 9 to 14) (size 15 to 20)
#    0.000    2.833    0.000    2.000    0.000    4.667 
#    0.000    5.000    0.000    2.000    0.000    0.000 
#    0.000    0.000    0.000    0.000    0.000    0.000 
#
# Total GULP energy -595065.495537 kJ/mol
# GULP energy per Si atom -12397.197824 kJ/mol
# Density = 1.808937 g / cm^3
# Si number density = 18.130635 Si / 1000 Ang^3
#
#
#
# Elastic Constant Matrix: (Units=GPa)
#
#
# Indices 1 2 3 4 5 6 
#
# 1 54.1070 16.1346 12.1007 0.0000 0.0000 0.0000
# 2 16.1346 91.9342 30.8920 0.0000 0.0000 0.0000
# 3 12.1007 30.8920 47.6535 0.0000 0.0000 0.0000
# 4 0.0000 0.0000 0.0000 30.8125 0.0000 0.0000
# 5 0.0000 0.0000 0.0000 0.0000 18.6471 0.0000
# 6 0.0000 0.0000 0.0000 0.0000 0.0000 20.1592
#
#
#
# Elastic Compliance Matrix: (Units=1/GPa)
#
#
# Indices 1 2 3 4 5 6 
#
# 1 0.019969 -0.002302 -0.003578 0.000000 0.000000 0.000000
# 2 -0.002302 0.014172 -0.008603 0.000000 0.000000 0.000000
# 3 -0.003578 -0.008603 0.027470 0.000000 0.000000 0.000000
# 4 0.000000 0.000000 0.000000 0.032454 0.000000 0.000000
# 5 0.000000 0.000000 0.000000 0.000000 0.053628 0.000000
# 6 0.000000 0.000000 0.000000 0.000000 0.000000 0.049605
#
#
# Mechanical properties :
#
#
# Convention : Reuss Voigt Hill
#
# Bulk Modulus (GPa) = 30.63272 34.66103 32.64688
# Shear Modulus (GPa) = 21.08406 22.89490 21.98948
#
# Velocity S-wave (km/s) = 3.41383 3.55741 3.48636
# Velocity P-wave (km/s) = 5.69835 6.00270 5.85250
#
# Compressibility (1/GPa) = 0.03264483
#
# Stress axis : x y z
#
# Youngs Moduli (GPa) = 50.07852 70.56136 36.40304
#
# Poissons Ratio (x) = 0.16244 0.13026
# Poissons Ratio (y) = 0.11529 0.31316
# Poissons Ratio (z) = 0.17919 0.60701
#
# Static dielectric constant tensor:
#      x y z
#    x 3.473050 0.000000 0.000000 
#    y 0.000000 3.289920 0.000000 
#    z 0.000000 0.000000 3.206440 
# 
# 
# High freq. dielectric constant tensor:
#      x y z
#    x 1.705050 0.000000 0.000000 
#    y 0.000000 1.702870 0.000000 
#    z 0.000000 0.000000 1.681950 
# 
# From -- ./inp_files/10455.got.cif
#   From: 2010.03.12/outbox.cif.g09.slc.cpg/sg63_6_cif.got.tgz:10455.got - 2010.04.10 19:34:48.
