data_PCOD8257923
_publ_section_title
;
Structure prediction by ZEFSAII (Michael W. Deem and Ramdas Pophale) SiO2 
 PCOD8257923
Probable space group: C M C M
;
_chemical_formula_sum "Si O2"
_cell_formula_units_Z 72
_cell_length_a 18.009532
_cell_length_b 13.656564
_cell_length_c 14.671745
_cell_angle_alpha 90.000000
_cell_angle_beta 90.000000
_cell_angle_gamma 90.000000
_cell_volume 3608.491128
_symmetry_space_group_name_H-M "C M C M"
_symmetry_group_IT_number 63
_symmetry_cell_setting 'orthorhombic'
loop_
_space_group_symop_operation_xyz
x,y,z
-x,-y,1/2+z
x,-y,-z
-x,y,1/2-z
-x,-y,-z
x,y,1/2-z
-x,y,z
x,-y,1/2+z
1/2+x,1/2+y,z
1/2-x,1/2-y,1/2+z
1/2+x,1/2-y,-z
1/2-x,1/2+y,1/2-z
1/2-x,1/2-y,-z
1/2+x,1/2+y,1/2-z
1/2-x,1/2+y,z
1/2+x,1/2-y,1/2+z
loop_
_atom_site_type_symbol
_atom_site_label
_atom_site_fract_x
_atom_site_fract_y
_atom_site_fract_z
Si Si1 0.254222 0.824117 0.250000
Si Si2 0.000000 0.762438 0.644971
Si Si3 0.500000 0.510952 0.390508
Si Si4 0.157902 0.281112 0.077645
Si Si5 0.120140 0.975759 0.250000
Si Si6 0.242340 0.405013 0.555420
Si Si7 0.748873 0.102047 0.250000
O O1 0.303274 0.838964 0.339820
O O2 0.184713 0.895646 0.250000
O O3 0.224994 0.714070 0.250000
O O4 0.070444 0.720018 0.592048
O O5 0.000000 0.728674 0.750000
O O6 0.000000 0.878278 0.640822
O O7 0.500000 0.500000 0.500000
O O8 0.572315 0.462189 0.342767
O O9 0.188317 0.170052 0.065493
O O10 0.173692 0.346697 0.988592
O O11 0.161071 0.082449 0.250000
O O12 0.268800 0.500000 0.500000
O O13 0.216728 0.443319 0.656063
#
# Coordination Sequence:
#
# PCOD8257923 Si02
#       7
#     8   8   8  16   8  16   8
#     4  10  19  34  59  87 119 156 209 257 300 359
#     4  12  22  41  64  87 134 165 209 258 319 369
#     4  11  25  38  57  92 133 167 200 251 317 388
#     4  10  22  37  62  93 123 168 203 263 316 372
#     4  11  22  38  61  91 122 170 207 248 316 376
#     4  10  21  38  60  93 127 158 216 260 313 367
#     4  10  21  35  58  82 121 160 198 262 294 352
#
# _framework density 19.952939000000001
#
# number of rings (size 3 to 8) (size 9 to 14) (size 15 to 20)
#    0.000    1.556    2.222    4.000    0.000   10.667 
#    0.000    0.556    0.000    0.667    0.000    3.111 
#    0.000    0.000    0.000    0.000    0.000    0.000 
#
# Total GULP energy -446137.323121 kJ/mol
# GULP energy per Si atom -12392.703420 kJ/mol
# Density = 1.990753 g / cm^3
# Si number density = 19.952939 Si / 1000 Ang^3
#
#
#
# Elastic Constant Matrix: (Units=GPa)
#
#
# Indices 1 2 3 4 5 6 
#
# 1 159.9416 55.2877 70.6766 0.0000 0.0000 0.0000
# 2 55.2877 79.7887 48.8549 0.0000 0.0000 0.0000
# 3 70.6766 48.8549 197.2438 0.0000 0.0000 0.0000
# 4 0.0000 0.0000 0.0000 25.2831 0.0000 0.0000
# 5 0.0000 0.0000 0.0000 0.0000 32.5907 0.0000
# 6 0.0000 0.0000 0.0000 0.0000 0.0000 24.9024
#
#
#
# Elastic Compliance Matrix: (Units=1/GPa)
#
#
# Indices 1 2 3 4 5 6 
#
# 1 0.008808 -0.004917 -0.001938 0.000000 0.000000 0.000000
# 2 -0.004917 0.017518 -0.002577 0.000000 0.000000 0.000000
# 3 -0.001938 -0.002577 0.006403 0.000000 0.000000 0.000000
# 4 0.000000 0.000000 0.000000 0.039552 0.000000 0.000000
# 5 0.000000 0.000000 0.000000 0.000000 0.030684 0.000000
# 6 0.000000 0.000000 0.000000 0.000000 0.000000 0.040157
#
#
# Mechanical properties :
#
#
# Convention : Reuss Voigt Hill
#
# Bulk Modulus (GPa) = 72.12650 87.40139 79.76394
# Shear Modulus (GPa) = 30.01055 34.03223 32.02139
#
# Velocity S-wave (km/s) = 3.88244 4.13440 4.01040
# Velocity P-wave (km/s) = 7.50497 8.16639 7.84265
#
# Compressibility (1/GPa) = 0.01386453
#
# Stress axis : x y z
#
# Youngs Moduli (GPa) = 113.52755 57.08393 156.18139
#
# Poissons Ratio (x) = 0.28066 0.30275
# Poissons Ratio (y) = 0.55818 0.40252
# Poissons Ratio (z) = 0.22007 0.14712
#
# Static dielectric constant tensor:
#      x y z
#    x 3.502270 0.000000 0.000000 
#    y 0.000000 3.498500 0.000000 
#    z 0.000000 0.000000 4.300790 
# 
# 
# High freq. dielectric constant tensor:
#      x y z
#    x 1.746730 0.000000 0.000000 
#    y 0.000000 1.769030 0.000000 
#    z 0.000000 0.000000 1.804500 
# 
# From -- ./inp_files/33734.got.cif
#   From: 2010.03.12/outbox.cif.g09.slc.cpg/sg63_17_cif.got.tgz:33734.got - 2010.04.10 19:34:48.
