data_PCOD8257634
_publ_section_title
;
Structure prediction by ZEFSAII (Michael W. Deem and Ramdas Pophale) SiO2 
 PCOD8257634
Probable space group: C M C M
;
_chemical_formula_sum "Si O2"
_cell_formula_units_Z 80
_cell_length_a 8.973920
_cell_length_b 27.541711
_cell_length_c 16.011248
_cell_angle_alpha 90.000000
_cell_angle_beta 90.000000
_cell_angle_gamma 90.000000
_cell_volume 3957.293802
_symmetry_space_group_name_H-M "C M C M"
_symmetry_group_IT_number 63
_symmetry_cell_setting 'orthorhombic'
loop_
_space_group_symop_operation_xyz
x,y,z
-x,-y,1/2+z
x,-y,-z
-x,y,1/2-z
-x,-y,-z
x,y,1/2-z
-x,y,z
x,-y,1/2+z
1/2+x,1/2+y,z
1/2-x,1/2-y,1/2+z
1/2+x,1/2-y,-z
1/2-x,1/2+y,1/2-z
1/2-x,1/2-y,-z
1/2+x,1/2+y,1/2-z
1/2-x,1/2+y,z
1/2+x,1/2-y,1/2+z
loop_
_atom_site_type_symbol
_atom_site_label
_atom_site_fract_x
_atom_site_fract_y
_atom_site_fract_z
Si Si1 0.832751 0.481017 0.405293
Si Si2 0.178372 0.712169 0.933675
Si Si3 0.835202 0.071354 0.125273
Si Si4 0.323421 0.754736 0.250000
Si Si5 0.667151 0.610203 0.942437
Si Si6 0.176800 0.851608 0.750000
O O1 0.827698 0.500000 0.500000
O O2 0.759691 0.523903 0.351030
O O3 0.748749 0.430045 0.385257
O O4 0.000000 0.472556 0.374827
O O5 0.229750 0.720845 0.837093
O O6 0.235797 0.658470 0.954096
O O7 0.000000 0.715396 0.942937
O O8 0.250000 0.750000 0.000000
O O9 0.766822 0.118932 0.169288
O O10 0.000000 0.061483 0.160980
O O11 0.843118 0.082127 0.028640
O O12 0.500000 0.753650 0.250000
O O13 0.249854 0.701299 0.250000
O O14 0.500000 0.622464 0.909519
O O15 0.000000 0.844054 0.750000
#
# Coordination Sequence:
#
# PCOD8257634 Si02
#       6
#    16  16  16   8  16   8
#     4   9  17  30  49  74 104 135 171 218 270 325
#     4  11  22  38  60  85 113 148 191 236 284 336
#     4   9  17  30  51  77 104 136 174 215 263 323
#     4   9  20  38  58  81 112 149 188 231 280 337
#     4  10  19  33  54  79 107 141 182 225 271 325
#     4   9  16  30  52  75 100 133 174 217 262 317
#
# _framework density 20.215834999999998
#
# number of rings (size 3 to 8) (size 9 to 14) (size 15 to 20)
#    0.000    2.400    0.000    3.000    0.000    6.400 
#    0.000    3.500    0.000    2.400    0.000    0.000 
#    0.000    0.000    0.000    0.000    0.000    0.000 
#
# Total GULP energy -495571.862307 kJ/mol
# GULP energy per Si atom -12389.296558 kJ/mol
# Density = 2.016982 g / cm^3
# Si number density = 20.215835 Si / 1000 Ang^3
#
#
#
# Elastic Constant Matrix: (Units=GPa)
#
#
# Indices 1 2 3 4 5 6 
#
# 1 109.7023 57.2704 25.5094 0.0000 0.0000 0.0000
# 2 57.2704 144.3417 14.1168 0.0000 0.0000 0.0000
# 3 25.5094 14.1168 58.5021 0.0000 0.0000 0.0000
# 4 0.0000 0.0000 0.0000 10.2490 0.0000 0.0000
# 5 0.0000 0.0000 0.0000 0.0000 6.0610 0.0000
# 6 0.0000 0.0000 0.0000 0.0000 0.0000 36.9430
#
#
#
# Elastic Compliance Matrix: (Units=1/GPa)
#
#
# Indices 1 2 3 4 5 6 
#
# 1 0.012494 -0.004531 -0.004354 0.000000 0.000000 0.000000
# 2 -0.004531 0.008739 -0.000133 0.000000 0.000000 0.000000
# 3 -0.004354 -0.000133 0.019024 0.000000 0.000000 0.000000
# 4 0.000000 0.000000 0.000000 0.097571 0.000000 0.000000
# 5 0.000000 0.000000 0.000000 0.000000 0.164990 0.000000
# 6 0.000000 0.000000 0.000000 0.000000 0.000000 0.027069
#
#
# Mechanical properties :
#
#
# Convention : Reuss Voigt Hill
#
# Bulk Modulus (GPa) = 45.00521 56.25993 50.63257
# Shear Modulus (GPa) = 14.07142 25.02721 19.54932
#
# Velocity S-wave (km/s) = 2.64116 3.52234 3.11308
# Velocity P-wave (km/s) = 5.62242 6.66577 6.16621
#
# Compressibility (1/GPa) = 0.02221965
#
# Stress axis : x y z
#
# Youngs Moduli (GPa) = 80.04055 114.43131 52.56476
#
# Poissons Ratio (x) = 0.51852 0.22889
# Poissons Ratio (y) = 0.36268 0.00699
# Poissons Ratio (z) = 0.34853 0.01521
#
# Static dielectric constant tensor:
#      x y z
#    x 3.717870 0.000000 0.000000 
#    y 0.000000 3.843200 0.000000 
#    z 0.000000 0.000000 3.542630 
# 
# 
# High freq. dielectric constant tensor:
#      x y z
#    x 1.774320 0.000000 0.000000 
#    y 0.000000 1.803470 0.000000 
#    z 0.000000 0.000000 1.765570 
# 
# From -- ./inp_files/40598.got.cif
#   From: 2010.03.12/outbox.cif.g09.slc.cpg/sg63_21_cif.got.tgz:40598.got - 2010.04.10 19:34:48.
