data_PCOD8257936
_publ_section_title
;
Structure prediction by ZEFSAII (Michael W. Deem and Ramdas Pophale) SiO2 
 PCOD8257936
Probable space group: C M C M
;
_chemical_formula_sum "Si O2"
_cell_formula_units_Z 112
_cell_length_a 30.710568
_cell_length_b 12.163224
_cell_length_c 14.620282
_cell_angle_alpha 90.000000
_cell_angle_beta 90.000000
_cell_angle_gamma 90.000000
_cell_volume 5461.253088
_symmetry_space_group_name_H-M "C M C M"
_symmetry_group_IT_number 63
_symmetry_cell_setting 'orthorhombic'
loop_
_space_group_symop_operation_xyz
x,y,z
-x,-y,1/2+z
x,-y,-z
-x,y,1/2-z
-x,-y,-z
x,y,1/2-z
-x,y,z
x,-y,1/2+z
1/2+x,1/2+y,z
1/2-x,1/2-y,1/2+z
1/2+x,1/2-y,-z
1/2-x,1/2+y,1/2-z
1/2-x,1/2-y,-z
1/2+x,1/2+y,1/2-z
1/2-x,1/2+y,z
1/2+x,1/2-y,1/2+z
loop_
_atom_site_type_symbol
_atom_site_label
_atom_site_fract_x
_atom_site_fract_y
_atom_site_fract_z
Si Si1 0.376858 0.278900 0.648935
Si Si2 0.900482 0.015112 0.855374
Si Si3 0.688991 0.166951 0.151177
Si Si4 0.049587 0.227406 0.643537
Si Si5 0.387741 0.876922 0.521593
Si Si6 0.185661 0.102296 0.904018
Si Si7 0.713313 0.625501 0.105538
O O1 0.389744 0.233955 0.750000
O O2 0.407944 0.384854 0.624737
O O3 0.383945 0.184696 0.574774
O O4 0.325906 0.312049 0.655895
O O5 0.885252 0.026224 0.750000
O O6 0.940825 0.097237 0.875147
O O7 0.862231 0.053626 0.922914
O O8 0.679375 0.110878 0.250000
O O9 0.659325 0.113025 0.072113
O O10 0.678719 0.295975 0.163112
O O11 0.739915 0.170206 0.130316
O O12 0.057394 0.254583 0.750000
O O13 0.079259 0.311249 0.586423
O O14 0.000000 0.248384 0.614516
O O15 0.404574 0.000000 0.500000
O O16 0.214555 0.002953 0.863944
O O17 0.206251 0.143255 0.998163
#
# Coordination Sequence:
#
# PCOD8257936 Si02
#       7
#    16  16  16  16  16  16  16
#     4  10  21  39  62  90 126 168 209 252 312 375
#     4   9  17  35  64  96 123 153 198 254 322 380
#     4  12  24  38  58  83 119 162 213 267 311 360
#     4  10  21  42  73 103 127 155 200 255 315 382
#     4  12  27  42  62  86 126 171 213 261 307 365
#     4  10  19  34  61  82 118 158 200 254 310 373
#     4  10  21  35  57  87 118 162 211 258 315 370
#
# _framework density 20.508115
#
# number of rings (size 3 to 8) (size 9 to 14) (size 15 to 20)
#    0.000    1.571    2.857    1.714    2.000    3.714 
#    0.000    1.429    0.000    1.286    0.000    0.000 
#    0.000    0.000    0.000    0.000    0.000    0.000 
#
# Total GULP energy -693851.516515 kJ/mol
# GULP energy per Si atom -12390.205652 kJ/mol
# Density = 2.046144 g / cm^3
# Si number density = 20.508115 Si / 1000 Ang^3
#
#
#
# Elastic Constant Matrix: (Units=GPa)
#
#
# Indices 1 2 3 4 5 6 
#
# 1 74.1468 32.1001 37.3609 0.0000 0.0000 0.0000
# 2 32.1001 113.8265 50.2789 0.0000 0.0000 0.0000
# 3 37.3609 50.2789 118.7477 0.0000 0.0000 0.0000
# 4 0.0000 0.0000 0.0000 15.1908 0.0000 0.0000
# 5 0.0000 0.0000 0.0000 0.0000 13.4523 0.0000
# 6 0.0000 0.0000 0.0000 0.0000 0.0000 15.4484
#
#
#
# Elastic Compliance Matrix: (Units=1/GPa)
#
#
# Indices 1 2 3 4 5 6 
#
# 1 0.016799 -0.002956 -0.004034 0.000000 0.000000 0.000000
# 2 -0.002956 0.011326 -0.003866 0.000000 0.000000 0.000000
# 3 -0.004034 -0.003866 0.011327 0.000000 0.000000 0.000000
# 4 0.000000 0.000000 0.000000 0.065829 0.000000 0.000000
# 5 0.000000 0.000000 0.000000 0.000000 0.074337 0.000000
# 6 0.000000 0.000000 0.000000 0.000000 0.000000 0.064732
#
#
# Mechanical properties :
#
#
# Convention : Reuss Voigt Hill
#
# Bulk Modulus (GPa) = 56.36383 60.68898 58.52640
# Shear Modulus (GPa) = 18.38408 21.28372 19.83390
#
# Velocity S-wave (km/s) = 2.99729 3.22502 3.11324
# Velocity P-wave (km/s) = 6.28663 6.59731 6.44384
#
# Compressibility (1/GPa) = 0.01774188
#
# Stress axis : x y z
#
# Youngs Moduli (GPa) = 59.52765 88.28940 88.28311
#
# Poissons Ratio (x) = 0.26095 0.35613
# Poissons Ratio (y) = 0.17594 0.34128
# Poissons Ratio (z) = 0.24013 0.34131
#
# Static dielectric constant tensor:
#      x y z
#    x 3.498890 0.000000 0.000000 
#    y 0.000000 3.777110 0.000000 
#    z 0.000000 0.000000 3.775640 
# 
# 
# High freq. dielectric constant tensor:
#      x y z
#    x 1.768700 0.000000 0.000000 
#    y 0.000000 1.793230 0.000000 
#    z 0.000000 0.000000 1.814610 
# 
# From -- ./inp_files/38542.got.cif
#   From: 2010.03.12/outbox.cif.g09.slc.cpg/sg63_20_cif.got.tgz:38542.got - 2010.04.10 19:34:48.
