data_PCOD8257476
_publ_section_title
;
Structure prediction by ZEFSAII (Michael W. Deem and Ramdas Pophale) SiO2 
 PCOD8257476
Probable space group: C M C M
;
_chemical_formula_sum "Si O2"
_cell_formula_units_Z 96
_cell_length_a 14.792584
_cell_length_b 14.459923
_cell_length_c 22.340060
_cell_angle_alpha 90.000000
_cell_angle_beta 90.000000
_cell_angle_gamma 90.000000
_cell_volume 4778.530470
_symmetry_space_group_name_H-M "C M C M"
_symmetry_group_IT_number 63
_symmetry_cell_setting 'orthorhombic'
loop_
_space_group_symop_operation_xyz
x,y,z
-x,-y,1/2+z
x,-y,-z
-x,y,1/2-z
-x,-y,-z
x,y,1/2-z
-x,y,z
x,-y,1/2+z
1/2+x,1/2+y,z
1/2-x,1/2-y,1/2+z
1/2+x,1/2-y,-z
1/2-x,1/2+y,1/2-z
1/2-x,1/2-y,-z
1/2+x,1/2+y,1/2-z
1/2-x,1/2+y,z
1/2+x,1/2-y,1/2+z
loop_
_atom_site_type_symbol
_atom_site_label
_atom_site_fract_x
_atom_site_fract_y
_atom_site_fract_z
Si Si1 0.734766 0.242314 0.180270
Si Si2 0.596987 0.781358 0.112972
Si Si3 0.320262 0.331609 0.514690
Si Si4 0.892179 0.880711 0.113206
Si Si5 0.401292 0.024805 0.565585
Si Si6 0.735159 0.448481 0.884425
O O1 0.715224 0.246975 0.250000
O O2 0.826194 0.296901 0.163035
O O3 0.649742 0.291935 0.147849
O O4 0.756353 0.136947 0.161207
O O5 0.500000 0.768705 0.145682
O O6 0.612746 0.695217 0.068905
O O7 0.594686 0.865224 0.066820
O O8 0.250000 0.250000 0.500000
O O9 0.375162 0.364133 0.456986
O O10 0.271045 0.418367 0.545611
O O11 0.000000 0.887163 0.125871
O O12 0.843328 0.977001 0.133399
O O13 0.500000 0.980575 0.578855
O O14 0.333275 0.995693 0.618172
O O15 0.367317 0.000000 0.500000
#
# Coordination Sequence:
#
# PCOD8257476 Si02
#       6
#    16  16  16  16  16  16
#     4  11  26  46  65  86 124 175 224 274 323 377
#     4  10  20  37  63  93 123 159 206 259 315 378
#     4  11  19  37  64  98 137 173 203 254 326 402
#     4  12  25  42  68 101 135 171 214 271 333 393
#     4  10  19  32  58  96 130 158 195 249 315 391
#     4  11  22  40  65  94 131 169 215 261 326 392
#
# _framework density 20.089858
#
# number of rings (size 3 to 8) (size 9 to 14) (size 15 to 20)
#    0.000    1.167    5.000    3.000    0.000    6.000 
#    0.000    0.000    0.000    0.000    0.000    0.000 
#    0.000    0.000    0.000    0.000    0.000    0.000 
#
# Total GULP energy -594648.297796 kJ/mol
# GULP energy per Si atom -12388.506204 kJ/mol
# Density = 2.004413 g / cm^3
# Si number density = 20.089858 Si / 1000 Ang^3
#
#
#
# Elastic Constant Matrix: (Units=GPa)
#
#
# Indices 1 2 3 4 5 6 
#
# 1 150.7179 37.6101 30.7040 0.0000 0.0000 0.0000
# 2 37.6101 85.7152 21.4234 0.0000 0.0000 0.0000
# 3 30.7040 21.4234 98.3200 0.0000 0.0000 0.0000
# 4 0.0000 0.0000 0.0000 16.6658 0.0000 0.0000
# 5 0.0000 0.0000 0.0000 0.0000 12.3523 0.0000
# 6 0.0000 0.0000 0.0000 0.0000 0.0000 20.3934
#
#
#
# Elastic Compliance Matrix: (Units=1/GPa)
#
#
# Indices 1 2 3 4 5 6 
#
# 1 0.007732 -0.002950 -0.001772 0.000000 0.000000 0.000000
# 2 -0.002950 0.013464 -0.002013 0.000000 0.000000 0.000000
# 3 -0.001772 -0.002013 0.011163 0.000000 0.000000 0.000000
# 4 0.000000 0.000000 0.000000 0.060003 0.000000 0.000000
# 5 0.000000 0.000000 0.000000 0.000000 0.080957 0.000000
# 6 0.000000 0.000000 0.000000 0.000000 0.000000 0.049036
#
#
# Mechanical properties :
#
#
# Convention : Reuss Voigt Hill
#
# Bulk Modulus (GPa) = 52.93743 57.13645 55.03694
# Shear Modulus (GPa) = 20.65101 26.21667 23.43384
#
# Velocity S-wave (km/s) = 3.20962 3.61636 3.41904
# Velocity P-wave (km/s) = 6.33585 6.77787 6.56059
#
# Compressibility (1/GPa) = 0.01889022
#
# Stress axis : x y z
#
# Youngs Moduli (GPa) = 129.33337 74.27299 89.58402
#
# Poissons Ratio (x) = 0.21909 0.15873
# Poissons Ratio (y) = 0.38150 0.18029
# Poissons Ratio (z) = 0.22916 0.14948
#
# Static dielectric constant tensor:
#      x y z
#    x 4.012790 0.000000 0.000000 
#    y 0.000000 3.257290 0.000000 
#    z 0.000000 0.000000 3.611860 
# 
# 
# High freq. dielectric constant tensor:
#      x y z
#    x 1.794970 0.000000 0.000000 
#    y 0.000000 1.794400 0.000000 
#    z 0.000000 0.000000 1.744020 
# 
# From -- ./inp_files/54223.got.cif
#   From: 2010.03.12/outbox.cif.g09.slc.cpg/sg63_28_cif.got.tgz:54223.got - 2010.04.10 19:34:48.
