data_PCOD8257203
_publ_section_title
;
Structure prediction by ZEFSAII (Michael W. Deem and Ramdas Pophale) SiO2 
 PCOD8257203
Probable space group: C M C M
;
_chemical_formula_sum "Si O2"
_cell_formula_units_Z 80
_cell_length_a 12.698546
_cell_length_b 27.811839
_cell_length_c 13.474863
_cell_angle_alpha 90.000000
_cell_angle_beta 90.000000
_cell_angle_gamma 90.000000
_cell_volume 4758.916246
_symmetry_space_group_name_H-M "C M C M"
_symmetry_group_IT_number 63
_symmetry_cell_setting 'orthorhombic'
loop_
_space_group_symop_operation_xyz
x,y,z
-x,-y,1/2+z
x,-y,-z
-x,y,1/2-z
-x,-y,-z
x,y,1/2-z
-x,y,z
x,-y,1/2+z
1/2+x,1/2+y,z
1/2-x,1/2-y,1/2+z
1/2+x,1/2-y,-z
1/2-x,1/2+y,1/2-z
1/2-x,1/2-y,-z
1/2+x,1/2+y,1/2-z
1/2-x,1/2+y,z
1/2+x,1/2-y,1/2+z
loop_
_atom_site_type_symbol
_atom_site_label
_atom_site_fract_x
_atom_site_fract_y
_atom_site_fract_z
Si Si1 0.000000 0.710234 0.363931
Si Si2 0.000000 0.176686 0.637759
Si Si3 0.286448 0.632167 0.866289
Si Si4 0.785134 0.303798 0.526767
Si Si5 0.621503 0.446151 0.480095
Si Si6 0.118539 0.865355 0.864314
O O1 0.103390 0.691925 0.419123
O O2 0.000000 0.692188 0.250000
O O3 0.000000 0.767036 0.368677
O O4 0.894968 0.155384 0.589054
O O5 0.000000 0.157790 0.750000
O O6 0.264938 0.639305 0.750000
O O7 0.299953 0.576113 0.895428
O O8 0.200490 0.662560 0.928016
O O9 0.750000 0.250000 0.500000
O O10 0.697949 0.324181 0.601198
O O11 0.660661 0.500000 0.500000
O O12 0.500000 0.446087 0.442753
O O13 0.636679 0.415870 0.580263
O O14 0.139269 0.876762 0.750000
O O15 0.000000 0.845958 0.882459
#
# Coordination Sequence:
#
# PCOD8257203 Si02
#       6
#     8   8  16  16  16  16
#     4  11  22  36  53  74 101 141 185 218 248 299
#     4   9  16  28  47  70  98 135 172 202 242 299
#     4  10  19  32  49  72 103 139 174 209 255 307
#     4  11  22  32  53  73 103 135 179 217 257 296
#     4   9  17  28  46  74 104 135 170 207 253 313
#     4   9  19  34  50  71 103 137 168 208 261 310
#
# _framework density 16.810549999999999
#
# number of rings (size 3 to 8) (size 9 to 14) (size 15 to 20)
#    0.000    2.200    3.000    0.600    2.800    1.600 
#    0.000    2.500    0.000    0.000    0.000   11.200 
#    0.000   12.800    0.000    0.000    0.000    0.000 
#
# Total GULP energy -495840.941269 kJ/mol
# GULP energy per Si atom -12396.023532 kJ/mol
# Density = 1.677229 g / cm^3
# Si number density = 16.810550 Si / 1000 Ang^3
#
#
#
# Elastic Constant Matrix: (Units=GPa)
#
#
# Indices 1 2 3 4 5 6 
#
# 1 88.3374 43.6867 54.2833 0.0000 0.0000 0.0000
# 2 43.6867 110.1863 46.5036 0.0000 0.0000 0.0000
# 3 54.2833 46.5036 110.9625 0.0000 0.0000 0.0000
# 4 0.0000 0.0000 0.0000 20.0680 0.0000 0.0000
# 5 0.0000 0.0000 0.0000 0.0000 27.3902 0.0000
# 6 0.0000 0.0000 0.0000 0.0000 0.0000 2.4760
#
#
#
# Elastic Compliance Matrix: (Units=1/GPa)
#
#
# Indices 1 2 3 4 5 6 
#
# 1 0.017560 -0.004054 -0.006891 0.000000 0.000000 0.000000
# 2 -0.004054 0.011961 -0.003030 0.000000 0.000000 0.000000
# 3 -0.006891 -0.003030 0.013653 0.000000 0.000000 0.000000
# 4 0.000000 0.000000 0.000000 0.049831 0.000000 0.000000
# 5 0.000000 0.000000 0.000000 0.000000 0.036509 0.000000
# 6 0.000000 0.000000 0.000000 0.000000 0.000000 0.403874
#
#
# Mechanical properties :
#
#
# Convention : Reuss Voigt Hill
#
# Bulk Modulus (GPa) = 65.68386 66.49261 66.08824
# Shear Modulus (GPa) = 8.82748 20.98768 14.90758
#
# Velocity S-wave (km/s) = 2.29403 3.53722 2.98115
# Velocity P-wave (km/s) = 6.79519 7.50483 7.15881
#
# Compressibility (1/GPa) = 0.01522444
#
# Stress axis : x y z
#
# Youngs Moduli (GPa) = 56.94862 83.60171 73.24283
#
# Poissons Ratio (x) = 0.33889 0.50475
# Poissons Ratio (y) = 0.23084 0.22192
# Poissons Ratio (z) = 0.39246 0.25331
#
# Static dielectric constant tensor:
#      x y z
#    x 3.033600 0.000000 0.000000 
#    y 0.000000 3.131880 0.000000 
#    z 0.000000 0.000000 3.309210 
# 
# 
# High freq. dielectric constant tensor:
#      x y z
#    x 1.614580 0.000000 0.000000 
#    y 0.000000 1.639780 0.000000 
#    z 0.000000 0.000000 1.662270 
# 
# From -- ./inp_files/30053.got.cif
#   From: 2010.03.12/outbox.cif.g09.slc.cpg/sg63_16_cif.got.tgz:30053.got - 2010.04.10 19:34:48.
