data_PCOD8257321
_publ_section_title
;
Structure prediction by ZEFSAII (Michael W. Deem and Ramdas Pophale) SiO2 
 PCOD8257321
Probable space group: C M C M
;
_chemical_formula_sum "Si O2"
_cell_formula_units_Z 72
_cell_length_a 18.887939
_cell_length_b 22.752662
_cell_length_c 8.961674
_cell_angle_alpha 90.000000
_cell_angle_beta 90.000000
_cell_angle_gamma 90.000000
_cell_volume 3851.287395
_symmetry_space_group_name_H-M "C M C M"
_symmetry_group_IT_number 63
_symmetry_cell_setting 'orthorhombic'
loop_
_space_group_symop_operation_xyz
x,y,z
-x,-y,1/2+z
x,-y,-z
-x,y,1/2-z
-x,-y,-z
x,y,1/2-z
-x,y,z
x,-y,1/2+z
1/2+x,1/2+y,z
1/2-x,1/2-y,1/2+z
1/2+x,1/2-y,-z
1/2-x,1/2+y,1/2-z
1/2-x,1/2-y,-z
1/2+x,1/2+y,1/2-z
1/2-x,1/2+y,z
1/2+x,1/2-y,1/2+z
loop_
_atom_site_type_symbol
_atom_site_label
_atom_site_fract_x
_atom_site_fract_y
_atom_site_fract_z
Si Si1 0.000000 0.444347 0.408628
Si Si2 0.279717 0.937891 0.573340
Si Si3 0.116666 0.058473 0.077627
Si Si4 0.617428 0.852369 0.423032
Si Si5 0.500000 0.349010 0.925038
Si Si6 0.500000 0.774706 0.927446
O O1 0.000000 0.500000 0.500000
O O2 0.069500 0.408559 0.436476
O O3 0.000000 0.472960 0.250000
O O4 0.294760 0.941110 0.750000
O O5 0.197568 0.928950 0.534022
O O6 0.313038 0.877098 0.506752
O O7 0.306095 0.000000 0.500000
O O8 0.108077 0.045595 0.250000
O O9 0.069767 0.114263 0.031665
O O10 0.087516 0.000000 0.000000
O O11 0.632804 0.834309 0.250000
O O12 0.573551 0.800557 0.504413
O O13 0.500000 0.330950 0.750000
O O14 0.500000 0.293188 0.031764
O O15 0.500000 0.784733 0.750000
#
# Coordination Sequence:
#
# PCOD8257321 Si02
#       6
#     8  16  16  16   8   8
#     4   9  18  28  42  66  94 125 167 209 251 300
#     4  10  19  32  51  80 113 144 177 217 265 319
#     4   9  19  34  56  84 113 141 173 215 267 321
#     4  10  20  35  52  72 102 142 180 219 264 313
#     4  10  20  38  59  79 106 142 179 221 269 318
#     4  11  23  38  56  79 104 137 181 228 268 312
#
# _framework density 18.695046999999999
#
# number of rings (size 3 to 8) (size 9 to 14) (size 15 to 20)
#    0.000    2.222    0.000    4.000    0.000    6.222 
#    0.000    1.111    0.000    0.000    0.000    0.000 
#    0.000    0.000    0.000    0.000    0.000    0.000 
#
# Total GULP energy -446015.897923 kJ/mol
# GULP energy per Si atom -12389.330498 kJ/mol
# Density = 1.865250 g / cm^3
# Si number density = 18.695047 Si / 1000 Ang^3
#
#
#
# Elastic Constant Matrix: (Units=GPa)
#
#
# Indices 1 2 3 4 5 6 
#
# 1 83.7563 47.6446 40.5483 0.0000 0.0000 0.0000
# 2 47.6446 116.7471 62.2324 0.0000 0.0000 0.0000
# 3 40.5483 62.2324 102.2477 0.0000 0.0000 0.0000
# 4 0.0000 0.0000 0.0000 35.1288 0.0000 0.0000
# 5 0.0000 0.0000 0.0000 0.0000 21.1226 0.0000
# 6 0.0000 0.0000 0.0000 0.0000 0.0000 26.0693
#
#
#
# Elastic Compliance Matrix: (Units=1/GPa)
#
#
# Indices 1 2 3 4 5 6 
#
# 1 0.016396 -0.004774 -0.003596 0.000000 0.000000 0.000000
# 2 -0.004774 0.014069 -0.006670 0.000000 0.000000 0.000000
# 3 -0.003596 -0.006670 0.015266 0.000000 0.000000 0.000000
# 4 0.000000 0.000000 0.000000 0.028467 0.000000 0.000000
# 5 0.000000 0.000000 0.000000 0.000000 0.047343 0.000000
# 6 0.000000 0.000000 0.000000 0.000000 0.000000 0.038359
#
#
# Mechanical properties :
#
#
# Convention : Reuss Voigt Hill
#
# Bulk Modulus (GPa) = 63.89589 67.06686 65.48138
# Shear Modulus (GPa) = 25.61497 26.61918 26.11708
#
# Velocity S-wave (km/s) = 3.70557 3.77750 3.74171
# Velocity P-wave (km/s) = 7.24986 7.41472 7.33275
#
# Compressibility (1/GPa) = 0.01565046
#
# Stress axis : x y z
#
# Youngs Moduli (GPa) = 60.98906 71.07676 65.50514
#
# Poissons Ratio (x) = 0.33934 0.23559
# Poissons Ratio (y) = 0.29118 0.43691
# Poissons Ratio (z) = 0.21935 0.47407
#
# Static dielectric constant tensor:
#      x y z
#    x 3.803300 0.000000 0.000000 
#    y 0.000000 3.272660 0.000000 
#    z 0.000000 0.000000 3.536020 
# 
# 
# High freq. dielectric constant tensor:
#      x y z
#    x 1.728560 0.000000 0.000000 
#    y 0.000000 1.712360 0.000000 
#    z 0.000000 0.000000 1.733080 
# 
# From -- ./inp_files/6179.got.cif
#   From: 2010.03.12/outbox.cif.g09.slc.cpg/sg63_4_cif.got.tgz:6179.got - 2010.04.10 19:34:48.
