data_PCOD8257191
_publ_section_title
;
Structure prediction by ZEFSAII (Michael W. Deem and Ramdas Pophale) SiO2 
 PCOD8257191
Probable space group: C M C M
;
_chemical_formula_sum "Si O2"
_cell_formula_units_Z 80
_cell_length_a 22.905506
_cell_length_b 24.250004
_cell_length_c 9.029075
_cell_angle_alpha 90.000000
_cell_angle_beta 90.000000
_cell_angle_gamma 90.000000
_cell_volume 5015.277468
_symmetry_space_group_name_H-M "C M C M"
_symmetry_group_IT_number 63
_symmetry_cell_setting 'orthorhombic'
loop_
_space_group_symop_operation_xyz
x,y,z
-x,-y,1/2+z
x,-y,-z
-x,y,1/2-z
-x,-y,-z
x,y,1/2-z
-x,y,z
x,-y,1/2+z
1/2+x,1/2+y,z
1/2-x,1/2-y,1/2+z
1/2+x,1/2-y,-z
1/2-x,1/2+y,1/2-z
1/2-x,1/2-y,-z
1/2+x,1/2+y,1/2-z
1/2-x,1/2+y,z
1/2+x,1/2-y,1/2+z
loop_
_atom_site_type_symbol
_atom_site_label
_atom_site_fract_x
_atom_site_fract_y
_atom_site_fract_z
Si Si1 0.778795 0.672572 0.921135
Si Si2 0.433112 0.662468 0.419334
Si Si3 0.255988 0.446065 0.422403
Si Si4 0.840774 0.765925 0.078267
Si Si5 0.890129 0.055519 0.925353
O O1 0.795286 0.681768 0.750000
O O2 0.781062 0.608129 0.965743
O O3 0.713404 0.693658 0.951167
O O4 0.825182 0.704620 0.021970
O O5 0.413678 0.652143 0.250000
O O6 0.500000 0.681332 0.428337
O O7 0.395693 0.711986 0.487813
O O8 0.425822 0.606770 0.512241
O O9 0.228773 0.500000 0.500000
O O10 0.252953 0.457159 0.250000
O O11 0.322734 0.436737 0.471597
O O12 0.857456 0.763334 0.250000
O O13 0.898868 0.052448 0.750000
O O14 0.915123 0.000000 0.000000
#
# Coordination Sequence:
#
# PCOD8257191 Si02
#       5
#    16  16  16  16  16
#     4   9  17  31  48  69  96 122 151 190 234 284
#     4  11  23  36  49  66  90 123 162 202 243 283
#     4   9  17  29  45  68  96 123 153 189 230 276
#     4  10  19  32  49  70  92 119 157 195 237 283
#     4  10  19  33  49  67  90 121 161 202 241 279
#
# _framework density 15.951261000000001
#
# number of rings (size 3 to 8) (size 9 to 14) (size 15 to 20)
#    0.000    2.200    2.000    1.800    0.000    4.400 
#    0.000    0.000    0.000    0.000    0.000    0.000 
#    0.000    0.800    0.000    2.600    0.000    3.200 
#
# Total GULP energy -496070.591920 kJ/mol
# GULP energy per Si atom -12401.764798 kJ/mol
# Density = 1.591496 g / cm^3
# Si number density = 15.951261 Si / 1000 Ang^3
#
#
#
# Elastic Constant Matrix: (Units=GPa)
#
#
# Indices 1 2 3 4 5 6 
#
# 1 50.5204 41.0557 37.8819 0.0000 0.0000 0.0000
# 2 41.0557 115.2835 50.0120 0.0000 0.0000 0.0000
# 3 37.8819 50.0120 88.2808 0.0000 0.0000 0.0000
# 4 0.0000 0.0000 0.0000 33.1198 0.0000 0.0000
# 5 0.0000 0.0000 0.0000 0.0000 20.1723 0.0000
# 6 0.0000 0.0000 0.0000 0.0000 0.0000 19.8900
#
#
#
# Elastic Compliance Matrix: (Units=1/GPa)
#
#
# Indices 1 2 3 4 5 6 
#
# 1 0.033502 -0.007550 -0.010099 0.000000 0.000000 0.000000
# 2 -0.007550 0.013202 -0.004239 0.000000 0.000000 0.000000
# 3 -0.010099 -0.004239 0.018063 0.000000 0.000000 0.000000
# 4 0.000000 0.000000 0.000000 0.030193 0.000000 0.000000
# 5 0.000000 0.000000 0.000000 0.000000 0.049573 0.000000
# 6 0.000000 0.000000 0.000000 0.000000 0.000000 0.050276
#
#
# Mechanical properties :
#
#
# Convention : Reuss Voigt Hill
#
# Bulk Modulus (GPa) = 47.64082 56.88710 52.26396
# Shear Modulus (GPa) = 20.35976 22.97878 21.66927
#
# Velocity S-wave (km/s) = 3.57651 3.79959 3.68974
# Velocity P-wave (km/s) = 6.85468 7.41550 7.14060
#
# Compressibility (1/GPa) = 0.02099040
#
# Stress axis : x y z
#
# Youngs Moduli (GPa) = 29.84903 75.74523 55.36300
#
# Poissons Ratio (x) = 0.57187 0.55910
# Poissons Ratio (y) = 0.22536 0.23471
# Poissons Ratio (z) = 0.30144 0.32112
#
# Static dielectric constant tensor:
#      x y z
#    x 2.701170 0.000000 0.000000 
#    y 0.000000 3.157000 0.000000 
#    z 0.000000 0.000000 3.119700 
# 
# 
# High freq. dielectric constant tensor:
#      x y z
#    x 1.565160 0.000000 0.000000 
#    y 0.000000 1.613410 0.000000 
#    z 0.000000 0.000000 1.625890 
# 
# From -- ./inp_files/6373.got.cif
#   From: 2010.03.12/outbox.cif.g09.slc.cpg/sg63_4_cif.got.tgz:6373.got - 2010.04.10 19:34:48.
