data_PCOD8257263
_publ_section_title
;
Structure prediction by ZEFSAII (Michael W. Deem and Ramdas Pophale) SiO2 
 PCOD8257263
Probable space group: C M C M
;
_chemical_formula_sum "Si O2"
_cell_formula_units_Z 128
_cell_length_a 19.557676
_cell_length_b 20.421835
_cell_length_c 17.857919
_cell_angle_alpha 90.000000
_cell_angle_beta 90.000000
_cell_angle_gamma 90.000000
_cell_volume 7132.517713
_symmetry_space_group_name_H-M "C M C M"
_symmetry_group_IT_number 63
_symmetry_cell_setting 'orthorhombic'
loop_
_space_group_symop_operation_xyz
x,y,z
-x,-y,1/2+z
x,-y,-z
-x,y,1/2-z
-x,-y,-z
x,y,1/2-z
-x,y,z
x,-y,1/2+z
1/2+x,1/2+y,z
1/2-x,1/2-y,1/2+z
1/2+x,1/2-y,-z
1/2-x,1/2+y,1/2-z
1/2-x,1/2-y,-z
1/2+x,1/2+y,1/2-z
1/2-x,1/2+y,z
1/2+x,1/2-y,1/2+z
loop_
_atom_site_type_symbol
_atom_site_label
_atom_site_fract_x
_atom_site_fract_y
_atom_site_fract_z
Si Si1 0.596761 0.610420 0.668063
Si Si2 0.691568 0.074106 0.516336
Si Si3 0.178400 0.125008 0.074178
Si Si4 0.663737 0.755278 0.163525
Si Si5 0.256474 0.881274 0.168749
Si Si6 0.426074 0.311309 0.031380
Si Si7 0.575949 0.465121 0.837568
Si Si8 0.078561 0.320577 0.038669
O O1 0.564694 0.620602 0.750000
O O2 0.677043 0.611428 0.671989
O O3 0.568318 0.669135 0.617898
O O4 0.573506 0.540284 0.635541
O O5 0.749544 0.098675 0.457783
O O6 0.715580 0.073978 0.602382
O O7 0.624197 0.118787 0.511347
O O8 0.670272 0.000000 0.500000
O O9 0.188982 0.186727 0.128921
O O10 0.136663 0.069749 0.117966
O O11 0.133538 0.145177 0.003272
O O12 0.641360 0.744757 0.250000
O O13 0.727055 0.804742 0.154978
O O14 0.600633 0.787457 0.117833
O O15 0.287913 0.903047 0.250000
O O16 0.500000 0.324816 0.992157
O O17 0.410532 0.234252 0.025228
O O18 0.594487 0.460775 0.750000
O O19 0.500000 0.434532 0.852662
O O20 0.000000 0.343769 0.045825
#
# Coordination Sequence:
#
# PCOD8257263 Si02
#       8
#    16  16  16  16  16  16  16  16
#     4  10  19  32  51  71  99 140 184 218 254 309
#     4  11  22  36  57  82 109 145 187 229 279 337
#     4  11  21  32  53  78 111 143 179 220 272 324
#     4   9  19  34  56  85 111 138 176 221 280 335
#     4   9  18  34  55  78 107 138 176 228 274 320
#     4  10  20  33  51  75 103 136 174 217 269 320
#     4  10  21  35  49  71 107 147 183 220 263 316
#     4   9  21  38  57  82 110 140 180 232 285 332
#
# _framework density 17.945976000000002
#
# number of rings (size 3 to 8) (size 9 to 14) (size 15 to 20)
#    0.000    2.125    1.250    1.875    1.750    3.250 
#    0.000    1.875    0.000    0.750    0.000    0.000 
#    0.000    0.000    0.000    0.000    0.000    0.000 
#
# Total GULP energy -793203.882422 kJ/mol
# GULP energy per Si atom -12393.810663 kJ/mol
# Density = 1.790513 g / cm^3
# Si number density = 17.945976 Si / 1000 Ang^3
#
#
#
# Elastic Constant Matrix: (Units=GPa)
#
#
# Indices 1 2 3 4 5 6 
#
# 1 102.3196 50.1289 39.5088 0.0000 0.0000 0.0000
# 2 50.1289 114.4585 67.8331 0.0000 0.0000 0.0000
# 3 39.5088 67.8331 103.9619 0.0000 0.0000 0.0000
# 4 0.0000 0.0000 0.0000 28.9575 0.0000 0.0000
# 5 0.0000 0.0000 0.0000 0.0000 18.4001 0.0000
# 6 0.0000 0.0000 0.0000 0.0000 0.0000 33.4740
#
#
#
# Elastic Compliance Matrix: (Units=1/GPa)
#
#
# Indices 1 2 3 4 5 6 
#
# 1 0.012681 -0.004399 -0.001949 0.000000 0.000000 0.000000
# 2 -0.004399 0.015771 -0.008619 0.000000 0.000000 0.000000
# 3 -0.001949 -0.008619 0.015983 0.000000 0.000000 0.000000
# 4 0.000000 0.000000 0.000000 0.034533 0.000000 0.000000
# 5 0.000000 0.000000 0.000000 0.000000 0.054348 0.000000
# 6 0.000000 0.000000 0.000000 0.000000 0.000000 0.029874
#
#
# Mechanical properties :
#
#
# Convention : Reuss Voigt Hill
#
# Bulk Modulus (GPa) = 68.95492 70.63127 69.79309
# Shear Modulus (GPa) = 25.25800 27.05093 26.15447
#
# Velocity S-wave (km/s) = 3.75566 3.88668 3.82173
# Velocity P-wave (km/s) = 7.57058 7.71912 7.64521
#
# Compressibility (1/GPa) = 0.01450223
#
# Stress axis : x y z
#
# Youngs Moduli (GPa) = 78.85860 63.40725 62.56594
#
# Poissons Ratio (x) = 0.27891 0.12195
# Poissons Ratio (y) = 0.34687 0.53924
# Poissons Ratio (z) = 0.15370 0.54649
#
# Static dielectric constant tensor:
#      x y z
#    x 3.192610 0.000000 0.000000 
#    y 0.000000 3.286480 0.000000 
#    z 0.000000 0.000000 3.645820 
# 
# 
# High freq. dielectric constant tensor:
#      x y z
#    x 1.694140 0.000000 0.000000 
#    y 0.000000 1.685090 0.000000 
#    z 0.000000 0.000000 1.697750 
# 
# From -- ./inp_files/47509.got.cif
#   From: 2010.03.12/outbox.cif.g09.slc.cpg/sg63_24_cif.got.tgz:47509.got - 2010.04.10 19:34:48.
