data_PCOD8257907
_publ_section_title
;
Structure prediction by ZEFSAII (Michael W. Deem and Ramdas Pophale) SiO2 
 PCOD8257907
Probable space group: C M C M
;
_chemical_formula_sum "Si O2"
_cell_formula_units_Z 112
_cell_length_a 15.976464
_cell_length_b 23.125319
_cell_length_c 14.645727
_cell_angle_alpha 90.000000
_cell_angle_beta 90.000000
_cell_angle_gamma 90.000000
_cell_volume 5411.022402
_symmetry_space_group_name_H-M "C M C M"
_symmetry_group_IT_number 63
_symmetry_cell_setting 'orthorhombic'
loop_
_space_group_symop_operation_xyz
x,y,z
-x,-y,1/2+z
x,-y,-z
-x,y,1/2-z
-x,-y,-z
x,y,1/2-z
-x,y,z
x,-y,1/2+z
1/2+x,1/2+y,z
1/2-x,1/2-y,1/2+z
1/2+x,1/2-y,-z
1/2-x,1/2+y,1/2-z
1/2-x,1/2-y,-z
1/2+x,1/2+y,1/2-z
1/2-x,1/2+y,z
1/2+x,1/2-y,1/2+z
loop_
_atom_site_type_symbol
_atom_site_label
_atom_site_fract_x
_atom_site_fract_y
_atom_site_fract_z
Si Si1 0.902564 0.595897 0.466764
Si Si2 0.785720 0.206571 0.850548
Si Si3 0.375546 0.274704 0.649005
Si Si4 0.240891 0.533888 0.354418
Si Si5 0.092673 0.093764 0.142491
Si Si6 0.186632 0.407874 0.146680
Si Si7 0.409547 0.774042 0.534730
O O1 0.840041 0.555337 0.410293
O O2 0.889465 0.586435 0.575345
O O3 0.878748 0.661695 0.440512
O O4 0.000000 0.581531 0.444538
O O5 0.826409 0.199056 0.750000
O O6 0.722442 0.260440 0.848018
O O7 0.742779 0.147045 0.881461
O O8 0.853240 0.222880 0.925936
O O9 0.414949 0.263979 0.750000
O O10 0.390052 0.339980 0.617189
O O11 0.417190 0.232266 0.575098
O O12 0.230324 0.555469 0.250000
O O13 0.329303 0.556356 0.397071
O O14 0.244613 0.464601 0.359455
O O15 0.090918 0.084550 0.250000
O O16 0.000000 0.075888 0.103188
O O17 0.151146 0.399919 0.250000
O O18 0.500000 0.765489 0.579178
#
# Coordination Sequence:
#
# PCOD8257907 Si02
#       7
#    16  16  16  16  16  16  16
#     4  11  24  40  61  89 119 157 203 250 300 351
#     4  10  21  38  60  84 114 155 198 240 291 354
#     4  10  19  34  58  85 115 152 193 240 293 348
#     4  10  22  40  62  88 119 158 200 245 300 352
#     4   9  18  33  56  87 117 147 189 240 293 350
#     4  10  22  41  62  84 114 156 202 247 295 350
#     4  11  23  36  56  87 121 156 192 240 300 358
#
# _framework density 20.698492000000002
#
# number of rings (size 3 to 8) (size 9 to 14) (size 15 to 20)
#    0.000    1.857    1.429    2.143    2.000    4.571 
#    0.000    5.000    0.000    4.286    0.000    0.000 
#    0.000    0.000    0.000    0.000    0.000    0.000 
#
# Total GULP energy -694014.623360 kJ/mol
# GULP energy per Si atom -12393.118274 kJ/mol
# Density = 2.065138 g / cm^3
# Si number density = 20.698492 Si / 1000 Ang^3
#
#
#
# Elastic Constant Matrix: (Units=GPa)
#
#
# Indices 1 2 3 4 5 6 
#
# 1 129.6915 57.6817 45.3027 0.0000 0.0000 0.0000
# 2 57.6817 80.1481 23.2611 0.0000 0.0000 0.0000
# 3 45.3027 23.2611 77.6429 0.0000 0.0000 0.0000
# 4 0.0000 0.0000 0.0000 27.9211 0.0000 0.0000
# 5 0.0000 0.0000 0.0000 0.0000 9.4649 0.0000
# 6 0.0000 0.0000 0.0000 0.0000 0.0000 13.3618
#
#
#
# Elastic Compliance Matrix: (Units=1/GPa)
#
#
# Indices 1 2 3 4 5 6 
#
# 1 0.013043 -0.007862 -0.005255 0.000000 0.000000 0.000000
# 2 -0.007862 0.018404 -0.000927 0.000000 0.000000 0.000000
# 3 -0.005255 -0.000927 0.016223 0.000000 0.000000 0.000000
# 4 0.000000 0.000000 0.000000 0.035815 0.000000 0.000000
# 5 0.000000 0.000000 0.000000 0.000000 0.105653 0.000000
# 6 0.000000 0.000000 0.000000 0.000000 0.000000 0.074840
#
#
# Mechanical properties :
#
#
# Convention : Reuss Voigt Hill
#
# Bulk Modulus (GPa) = 51.06313 59.99706 55.53010
# Shear Modulus (GPa) = 16.74525 20.89869 18.82197
#
# Velocity S-wave (km/s) = 2.84739 3.18098 3.01880
# Velocity P-wave (km/s) = 5.96102 6.52232 6.24797
#
# Compressibility (1/GPa) = 0.01958360
#
# Stress axis : x y z
#
# Youngs Moduli (GPa) = 76.67128 54.33688 61.64043
#
# Poissons Ratio (x) = 0.42717 0.32391
# Poissons Ratio (y) = 0.60276 0.05711
# Poissons Ratio (z) = 0.40289 0.05035
#
# Static dielectric constant tensor:
#      x y z
#    x 3.743920 0.000000 0.000000 
#    y 0.000000 3.749600 0.000000 
#    z 0.000000 0.000000 3.727700 
# 
# 
# High freq. dielectric constant tensor:
#      x y z
#    x 1.797750 0.000000 0.000000 
#    y 0.000000 1.810800 0.000000 
#    z 0.000000 0.000000 1.799700 
# 
# From -- ./inp_files/32343.got.cif
#   From: 2010.03.12/outbox.cif.g09.slc.cpg/sg63_17_cif.got.tgz:32343.got - 2010.04.10 19:34:48.
