data_PCOD8257043
_publ_section_title
;
Structure prediction by ZEFSAII (Michael W. Deem and Ramdas Pophale) SiO2 
 PCOD8257043
Probable space group: C M C M
;
_chemical_formula_sum "Si O2"
_cell_formula_units_Z 128
_cell_length_a 22.580486
_cell_length_b 19.131376
_cell_length_c 16.979294
_cell_angle_alpha 90.000000
_cell_angle_beta 90.000000
_cell_angle_gamma 90.000000
_cell_volume 7334.983150
_symmetry_space_group_name_H-M "C M C M"
_symmetry_group_IT_number 63
_symmetry_cell_setting 'orthorhombic'
loop_
_space_group_symop_operation_xyz
x,y,z
-x,-y,1/2+z
x,-y,-z
-x,y,1/2-z
-x,-y,-z
x,y,1/2-z
-x,y,z
x,-y,1/2+z
1/2+x,1/2+y,z
1/2-x,1/2-y,1/2+z
1/2+x,1/2-y,-z
1/2-x,1/2+y,1/2-z
1/2-x,1/2-y,-z
1/2+x,1/2+y,1/2-z
1/2-x,1/2+y,z
1/2+x,1/2-y,1/2+z
loop_
_atom_site_type_symbol
_atom_site_label
_atom_site_fract_x
_atom_site_fract_y
_atom_site_fract_z
Si Si1 0.755352 0.481037 0.409738
Si Si2 0.346517 0.257747 0.838120
Si Si3 0.609960 0.006993 0.906974
Si Si4 0.722515 0.382823 0.842021
Si Si5 0.068936 0.637775 0.157467
Si Si6 0.321206 0.805260 0.930114
Si Si7 0.066970 0.351918 0.160264
Si Si8 0.753535 0.325429 0.087790
O O1 0.750975 0.500000 0.500000
O O2 0.822278 0.487389 0.378248
O O3 0.713404 0.536179 0.363982
O O4 0.730743 0.403261 0.392964
O O5 0.367249 0.272864 0.750000
O O6 0.329367 0.332347 0.879247
O O7 0.398395 0.213544 0.880475
O O8 0.287488 0.209144 0.838719
O O9 0.575604 0.077387 0.886994
O O10 0.578541 0.943687 0.861850
O O11 0.605912 0.000000 0.000000
O O12 0.720499 0.371853 0.750000
O O13 0.785754 0.355866 0.871477
O O14 0.083889 0.651649 0.250000
O O15 0.110491 0.684081 0.097805
O O16 0.000000 0.656817 0.140950
O O17 0.303544 0.723110 0.929546
O O18 0.302892 0.831406 0.017507
O O19 0.089356 0.363475 0.250000
O O20 0.000000 0.328559 0.157529
#
# Coordination Sequence:
#
# PCOD8257043 Si02
#       8
#    16  16  16  16  16  16  16  16
#     4  11  19  31  48  74 101 132 162 203 259 313
#     4   9  19  33  47  69  97 126 164 208 252 303
#     4  11  21  33  47  70 102 135 175 217 252 300
#     4  10  19  31  50  70  95 129 164 207 256 308
#     4  11  23  37  52  72 104 147 187 218 254 308
#     4  10  19  34  53  74 100 134 172 218 259 307
#     4  10  20  33  48  66  94 131 166 204 252 303
#     4  10  19  33  53  75 102 130 169 213 268 309
#
# _framework density 17.450620000000001
#
# number of rings (size 3 to 8) (size 9 to 14) (size 15 to 20)
#    0.000    1.750    3.750    1.875    0.000    3.500 
#    0.000    0.000    0.000    0.000    0.000    0.875 
#    0.000    3.000    0.000    0.000    0.000    0.000 
#
# Total GULP energy -792945.326920 kJ/mol
# GULP energy per Si atom -12389.770733 kJ/mol
# Density = 1.741090 g / cm^3
# Si number density = 17.450620 Si / 1000 Ang^3
#
#
#
# Elastic Constant Matrix: (Units=GPa)
#
#
# Indices 1 2 3 4 5 6 
#
# 1 76.4537 47.5864 21.7099 0.0000 0.0000 0.0000
# 2 47.5864 135.2456 17.1974 0.0000 0.0000 0.0000
# 3 21.7099 17.1974 39.8842 0.0000 0.0000 0.0000
# 4 0.0000 0.0000 0.0000 22.4622 0.0000 0.0000
# 5 0.0000 0.0000 0.0000 0.0000 17.3822 0.0000
# 6 0.0000 0.0000 0.0000 0.0000 0.0000 30.2986
#
#
#
# Elastic Compliance Matrix: (Units=1/GPa)
#
#
# Indices 1 2 3 4 5 6 
#
# 1 0.018795 -0.005620 -0.007807 0.000000 0.000000 0.000000
# 2 -0.005620 0.009504 -0.001039 0.000000 0.000000 0.000000
# 3 -0.007807 -0.001039 0.029770 0.000000 0.000000 0.000000
# 4 0.000000 0.000000 0.000000 0.044519 0.000000 0.000000
# 5 0.000000 0.000000 0.000000 0.000000 0.057530 0.000000
# 6 0.000000 0.000000 0.000000 0.000000 0.000000 0.033005
#
#
# Mechanical properties :
#
#
# Convention : Reuss Voigt Hill
#
# Bulk Modulus (GPa) = 34.32114 47.17456 40.74785
# Shear Modulus (GPa) = 21.57342 25.03458 23.30400
#
# Velocity S-wave (km/s) = 3.51986 3.79171 3.65831
# Velocity P-wave (km/s) = 6.01909 6.80157 6.42226
#
# Compressibility (1/GPa) = 0.02913656
#
# Stress axis : x y z
#
# Youngs Moduli (GPa) = 53.20583 105.22412 33.59084
#
# Poissons Ratio (x) = 0.59139 0.26225
# Poissons Ratio (y) = 0.29903 0.03488
# Poissons Ratio (z) = 0.41539 0.10928
#
# Static dielectric constant tensor:
#      x y z
#    x 0.000000 0.000000 0.000000 
#    y 0.000000 0.000000 0.000000 
#    z 0.000000 0.000000 0.000000 
# 
# 
# High freq. dielectric constant tensor:
#      x y z
#    x 1.635440 0.000000 0.000000 
#    y 0.000000 1.673830 0.000000 
#    z 0.000000 0.000000 1.674110 
# 
# From -- ./inp_files/48407.got.cif
#   From: 2010.03.12/outbox.cif.g09.slc.cpg/sg63_25_cif.got.tgz:48407.got - 2010.04.10 19:34:48.
