data_PCOD8257111
_publ_section_title
;
Structure prediction by ZEFSAII (Michael W. Deem and Ramdas Pophale) SiO2 
 PCOD8257111
Probable space group: C M C M
;
_chemical_formula_sum "Si O2"
_cell_formula_units_Z 112
_cell_length_a 13.506731
_cell_length_b 18.849871
_cell_length_c 25.006571
_cell_angle_alpha 90.000000
_cell_angle_beta 90.000000
_cell_angle_gamma 90.000000
_cell_volume 6366.676402
_symmetry_space_group_name_H-M "C M C M"
_symmetry_group_IT_number 63
_symmetry_cell_setting 'orthorhombic'
loop_
_space_group_symop_operation_xyz
x,y,z
-x,-y,1/2+z
x,-y,-z
-x,y,1/2-z
-x,-y,-z
x,y,1/2-z
-x,y,z
x,-y,1/2+z
1/2+x,1/2+y,z
1/2-x,1/2-y,1/2+z
1/2+x,1/2-y,-z
1/2-x,1/2+y,1/2-z
1/2-x,1/2-y,-z
1/2+x,1/2+y,1/2-z
1/2-x,1/2+y,z
1/2+x,1/2-y,1/2+z
loop_
_atom_site_type_symbol
_atom_site_label
_atom_site_fract_x
_atom_site_fract_y
_atom_site_fract_z
Si Si1 0.729667 0.045722 0.880604
Si Si2 0.110419 0.446581 0.950847
Si Si3 0.111485 0.774175 0.958846
Si Si4 0.386328 0.159814 0.688205
Si Si5 0.888261 0.187969 0.341099
Si Si6 0.263810 0.855801 0.476671
Si Si7 0.615794 0.463980 0.810920
O O1 0.673740 0.100943 0.843366
O O2 0.766444 0.082844 0.935341
O O3 0.655053 0.982774 0.897586
O O4 0.824979 0.016214 0.849824
O O5 0.000000 0.418474 0.936769
O O6 0.102664 0.500000 0.000000
O O7 0.181831 0.382988 0.969468
O O8 0.116371 0.819763 0.904955
O O9 0.162258 0.698505 0.947249
O O10 0.000000 0.760200 0.977411
O O11 0.163845 0.816309 0.006575
O O12 0.380265 0.139463 0.750000
O O13 0.500000 0.159382 0.667340
O O14 0.338209 0.238339 0.678733
O O15 0.840842 0.116365 0.316735
O O16 0.000000 0.191248 0.319511
O O17 0.631062 0.489120 0.750000
O O18 0.500000 0.466761 0.827395
#
# Coordination Sequence:
#
# PCOD8257111 Si02
#       7
#    16  16  16  16  16  16  16
#     4  11  20  33  51  76 105 135 174 217 259 306
#     4   9  18  31  49  72 103 139 171 204 252 317
#     4  10  19  32  51  75 105 134 169 217 262 304
#     4  10  19  31  51  78 102 126 164 217 272 312
#     4   9  17  32  53  74  98 129 166 210 260 306
#     4  10  20  32  49  75 104 139 174 206 254 318
#     4  10  21  36  53  74 103 141 180 216 259 312
#
# _framework density 17.591597
#
# number of rings (size 3 to 8) (size 9 to 14) (size 15 to 20)
#    0.000    2.143    1.429    2.571    0.000    3.429 
#    0.000    0.000    0.000    5.143    0.000    0.000 
#    0.000    4.571    0.000    0.000    0.000    0.000 
#
# Total GULP energy -694305.309236 kJ/mol
# GULP energy per Si atom -12398.309094 kJ/mol
# Density = 1.755156 g / cm^3
# Si number density = 17.591597 Si / 1000 Ang^3
#
#
#
# Elastic Constant Matrix: (Units=GPa)
#
#
# Indices 1 2 3 4 5 6 
#
# 1 84.1318 39.0851 44.8084 0.0000 0.0000 0.0000
# 2 39.0851 87.9735 42.0570 0.0000 0.0000 0.0000
# 3 44.8084 42.0570 77.3346 0.0000 0.0000 0.0000
# 4 0.0000 0.0000 0.0000 28.7733 0.0000 0.0000
# 5 0.0000 0.0000 0.0000 0.0000 23.3905 0.0000
# 6 0.0000 0.0000 0.0000 0.0000 0.0000 22.2311
#
#
#
# Elastic Compliance Matrix: (Units=1/GPa)
#
#
# Indices 1 2 3 4 5 6 
#
# 1 0.018234 -0.004122 -0.008323 0.000000 0.000000 0.000000
# 2 -0.004122 0.016292 -0.006472 0.000000 0.000000 0.000000
# 3 -0.008323 -0.006472 0.021273 0.000000 0.000000 0.000000
# 4 0.000000 0.000000 0.000000 0.034754 0.000000 0.000000
# 5 0.000000 0.000000 0.000000 0.000000 0.042752 0.000000
# 6 0.000000 0.000000 0.000000 0.000000 0.000000 0.044982
#
#
# Mechanical properties :
#
#
# Convention : Reuss Voigt Hill
#
# Bulk Modulus (GPa) = 55.66392 55.70453 55.68423
# Shear Modulus (GPa) = 22.51123 23.11162 22.81142
#
# Velocity S-wave (km/s) = 3.58111 3.62855 3.60491
# Velocity P-wave (km/s) = 6.98643 7.02064 7.00355
#
# Compressibility (1/GPa) = 0.01796496
#
# Stress axis : x y z
#
# Youngs Moduli (GPa) = 54.84252 61.37820 47.00767
#
# Poissons Ratio (x) = 0.25300 0.39126
# Poissons Ratio (y) = 0.22606 0.30424
# Poissons Ratio (z) = 0.45647 0.39724
#
# Static dielectric constant tensor:
#      x y z
#    x 3.105470 0.000000 0.000000 
#    y 0.000000 3.366730 0.000000 
#    z 0.000000 0.000000 3.172850 
# 
# 
# High freq. dielectric constant tensor:
#      x y z
#    x 1.654580 0.000000 0.000000 
#    y 0.000000 1.682200 0.000000 
#    z 0.000000 0.000000 1.678050 
# 
# From -- ./inp_files/61780.got.cif
#   From: 2010.03.12/outbox.cif.g09.slc.cpg/sg63_31_cif.got.tgz:61780.got - 2010.04.10 19:34:48.
