data_PCOD8257586
_publ_section_title
;
Structure prediction by ZEFSAII (Michael W. Deem and Ramdas Pophale) SiO2 
 PCOD8257586
Probable space group: C M C M
;
_chemical_formula_sum "Si O2"
_cell_formula_units_Z 96
_cell_length_a 8.853817
_cell_length_b 23.768863
_cell_length_c 25.180883
_cell_angle_alpha 90.000000
_cell_angle_beta 90.000000
_cell_angle_gamma 90.000000
_cell_volume 5299.195035
_symmetry_space_group_name_H-M "C M C M"
_symmetry_group_IT_number 63
_symmetry_cell_setting 'orthorhombic'
loop_
_space_group_symop_operation_xyz
x,y,z
-x,-y,1/2+z
x,-y,-z
-x,y,1/2-z
-x,-y,-z
x,y,1/2-z
-x,y,z
x,-y,1/2+z
1/2+x,1/2+y,z
1/2-x,1/2-y,1/2+z
1/2+x,1/2-y,-z
1/2-x,1/2+y,1/2-z
1/2-x,1/2-y,-z
1/2+x,1/2+y,1/2-z
1/2-x,1/2+y,z
1/2+x,1/2-y,1/2+z
loop_
_atom_site_type_symbol
_atom_site_label
_atom_site_fract_x
_atom_site_fract_y
_atom_site_fract_z
Si Si1 0.179078 0.114382 0.148638
Si Si2 0.323339 0.810662 0.937928
Si Si3 0.178826 0.503661 0.188348
Si Si4 0.180452 0.691301 0.750000
Si Si5 0.821696 0.617372 0.846140
Si Si6 0.323728 0.194103 0.940370
Si Si7 0.320429 0.682825 0.250000
O O1 0.239389 0.140952 0.094406
O O2 0.241310 0.051672 0.154280
O O3 0.240367 0.151055 0.197980
O O4 0.000000 0.112747 0.147001
O O5 0.500000 0.814458 0.926724
O O6 0.265614 0.749133 0.920935
O O7 0.283357 0.821831 0.999473
O O8 0.227058 0.506900 0.250000
O O9 0.240673 0.445361 0.163242
O O10 0.000000 0.509591 0.182315
O O11 0.243787 0.659361 0.698350
O O12 0.246284 0.754340 0.750000
O O13 0.000000 0.693244 0.750000
O O14 0.775225 0.641215 0.903892
O O15 0.000000 0.614937 0.839335
O O16 0.500000 0.208144 0.933519
O O17 0.500000 0.683507 0.250000
#
# Coordination Sequence:
#
# PCOD8257586 Si02
#       7
#    16  16  16   8  16  16   8
#     4  11  21  35  53  75 103 140 181 217 259 316
#     4  10  20  34  53  79 108 139 176 220 269 314
#     4  10  19  33  53  78 105 135 170 215 265 310
#     4   9  14  23  44  75 103 123 156 207 256 305
#     4   9  16  29  51  78 104 133 171 211 258 314
#     4   9  18  34  56  79 106 141 178 216 262 321
#     4   9  18  29  47  75 101 127 166 213 258 309
#
# _framework density 18.115959
#
# number of rings (size 3 to 8) (size 9 to 14) (size 15 to 20)
#    0.000    2.333    1.667    2.000    0.000    3.333 
#    0.000    1.667    0.000    5.000    0.000    0.000 
#    0.000    0.000    0.000    0.000    0.000    0.000 
#
# Total GULP energy -595243.498947 kJ/mol
# GULP energy per Si atom -12400.906228 kJ/mol
# Density = 1.807473 g / cm^3
# Si number density = 18.115959 Si / 1000 Ang^3
#
#
#
# Elastic Constant Matrix: (Units=GPa)
#
#
# Indices 1 2 3 4 5 6 
#
# 1 36.2554 32.2294 27.5394 0.0000 0.0000 0.0000
# 2 32.2294 166.1792 74.9370 0.0000 0.0000 0.0000
# 3 27.5394 74.9370 106.9693 0.0000 0.0000 0.0000
# 4 0.0000 0.0000 0.0000 34.3762 0.0000 0.0000
# 5 0.0000 0.0000 0.0000 0.0000 19.1719 0.0000
# 6 0.0000 0.0000 0.0000 0.0000 0.0000 27.2360
#
#
#
# Elastic Compliance Matrix: (Units=1/GPa)
#
#
# Indices 1 2 3 4 5 6 
#
# 1 0.036110 -0.004109 -0.006418 0.000000 0.000000 0.000000
# 2 -0.004109 0.009264 -0.005432 0.000000 0.000000 0.000000
# 3 -0.006418 -0.005432 0.014806 0.000000 0.000000 0.000000
# 4 0.000000 0.000000 0.000000 0.029090 0.000000 0.000000
# 5 0.000000 0.000000 0.000000 0.000000 0.052160 0.000000
# 6 0.000000 0.000000 0.000000 0.000000 0.000000 0.036716
#
#
# Mechanical properties :
#
#
# Convention : Reuss Voigt Hill
#
# Bulk Modulus (GPa) = 35.38317 64.31283 49.84800
# Shear Modulus (GPa) = 22.78062 27.80335 25.29199
#
# Velocity S-wave (km/s) = 3.54996 3.92183 3.74052
# Velocity P-wave (km/s) = 6.03132 7.48902 6.79935
#
# Compressibility (1/GPa) = 0.02826203
#
# Stress axis : x y z
#
# Youngs Moduli (GPa) = 27.69318 107.94404 67.53954
#
# Poissons Ratio (x) = 0.44356 0.43346
# Poissons Ratio (y) = 0.11380 0.36687
# Poissons Ratio (z) = 0.17773 0.58635
#
# Static dielectric constant tensor:
#      x y z
#    x 3.010460 0.000000 0.000000 
#    y 0.000000 3.482110 0.000000 
#    z 0.000000 0.000000 3.417190 
# 
# 
# High freq. dielectric constant tensor:
#      x y z
#    x 1.669610 0.000000 0.000000 
#    y 0.000000 1.706750 0.000000 
#    z 0.000000 0.000000 1.703770 
# 
# From -- ./inp_files/60046.got.cif
#   From: 2010.03.12/outbox.cif.g09.slc.cpg/sg63_31_cif.got.tgz:60046.got - 2010.04.10 19:34:48.
