data_PCOD8257159
_publ_section_title
;
Structure prediction by ZEFSAII (Michael W. Deem and Ramdas Pophale) SiO2 
 PCOD8257159
Probable space group: C M C M
;
_chemical_formula_sum "Si O2"
_cell_formula_units_Z 64
_cell_length_a 11.998001
_cell_length_b 15.165410
_cell_length_c 17.081200
_cell_angle_alpha 90.000000
_cell_angle_beta 90.000000
_cell_angle_gamma 90.000000
_cell_volume 3108.002988
_symmetry_space_group_name_H-M "C M C M"
_symmetry_group_IT_number 63
_symmetry_cell_setting 'orthorhombic'
loop_
_space_group_symop_operation_xyz
x,y,z
-x,-y,1/2+z
x,-y,-z
-x,y,1/2-z
-x,-y,-z
x,y,1/2-z
-x,y,z
x,-y,1/2+z
1/2+x,1/2+y,z
1/2-x,1/2-y,1/2+z
1/2+x,1/2-y,-z
1/2-x,1/2+y,1/2-z
1/2-x,1/2-y,-z
1/2+x,1/2+y,1/2-z
1/2-x,1/2+y,z
1/2+x,1/2-y,1/2+z
loop_
_atom_site_type_symbol
_atom_site_label
_atom_site_fract_x
_atom_site_fract_y
_atom_site_fract_z
Si Si1 0.000000 0.540259 0.913917
Si Si2 0.258890 0.990797 0.093245
Si Si3 0.500000 0.214689 0.664486
Si Si4 0.628707 0.682182 0.575883
Si Si5 0.691561 0.321493 0.602372
O O1 0.884799 0.513064 0.871573
O O2 0.000000 0.647276 0.909238
O O3 0.000000 0.500000 0.000000
O O4 0.188195 0.903612 0.114712
O O5 0.204638 0.077665 0.130713
O O6 0.266889 0.000000 0.000000
O O7 0.500000 0.167530 0.750000
O O8 0.609073 0.275020 0.661985
O O9 0.500000 0.684846 0.602715
O O10 0.635774 0.677998 0.482778
O O11 0.689618 0.771329 0.604144
#
# Coordination Sequence:
#
# PCOD8257159 Si02
#       5
#     8  16   8  16  16
#     4  10  20  38  60  90 120 152 214 263 306 360
#     4   9  19  31  54  87 119 150 192 252 304 352
#     4  12  24  42  61  84 126 171 205 248 313 391
#     4  10  19  31  55  88 122 146 192 259 306 343
#     4  10  21  34  54  88 120 158 196 242 307 368
#
# _framework density 20.591999000000001
#
# number of rings (size 3 to 8) (size 9 to 14) (size 15 to 20)
#    0.000    2.000    3.750    0.000    7.000    1.500 
#    0.000    1.250    0.000    0.750    0.000    0.000 
#    0.000    0.000    0.000    0.000    0.000    0.000 
#
# Total GULP energy -396576.381211 kJ/mol
# GULP energy per Si atom -12393.011913 kJ/mol
# Density = 2.054513 g / cm^3
# Si number density = 20.591999 Si / 1000 Ang^3
#
#
#
# Elastic Constant Matrix: (Units=GPa)
#
#
# Indices 1 2 3 4 5 6 
#
# 1 154.5124 41.2144 18.3390 0.0000 0.0000 0.0000
# 2 41.2144 144.0339 24.2190 0.0000 0.0000 0.0000
# 3 18.3390 24.2190 33.6689 0.0000 0.0000 0.0000
# 4 0.0000 0.0000 0.0000 10.9161 0.0000 0.0000
# 5 0.0000 0.0000 0.0000 0.0000 -5.3834 0.0000
# 6 0.0000 0.0000 0.0000 0.0000 0.0000 35.8731
#
#
#
# Elastic Compliance Matrix: (Units=1/GPa)
#
#
# Indices 1 2 3 4 5 6 
#
# 1 0.007230 -0.001600 -0.002787 0.000000 0.000000 0.000000
# 2 -0.001600 0.008252 -0.005065 0.000000 0.000000 0.000000
# 3 -0.002787 -0.005065 0.034862 0.000000 0.000000 0.000000
# 4 0.000000 0.000000 0.000000 0.091608 0.000000 0.000000
# 5 0.000000 0.000000 0.000000 0.000000 -0.185755 0.000000
# 6 0.000000 0.000000 0.000000 0.000000 0.000000 0.027876
#
#
# Mechanical properties :
#
#
# Convention : Reuss Voigt Hill
#
# Bulk Modulus (GPa) = 31.80568 55.52886 43.66727
# Shear Modulus (GPa) = 371.59029 24.84401 198.21715
#
# Velocity S-wave (km/s) = 13.44788 3.47722 9.82183
# Velocity P-wave (km/s) = 16.01894 6.56858 12.24240
#
# Compressibility (1/GPa) = 0.03144092
#
# Stress axis : x y z
#
# Youngs Moduli (GPa) = 138.32124 121.17898 28.68447
#
# Poissons Ratio (x) = 0.19390 0.07994
# Poissons Ratio (y) = 0.22133 0.14527
# Poissons Ratio (z) = 0.38548 0.61372
#
# Static dielectric constant tensor:
#      x y z
#    x 3.958780 0.000000 0.000000 
#    y 0.000000 4.006980 0.000000 
#    z 0.000000 0.000000 2.999810 
# 
# 
# High freq. dielectric constant tensor:
#      x y z
#    x 1.822360 0.000000 0.000000 
#    y 0.000000 1.818330 0.000000 
#    z 0.000000 0.000000 1.725470 
# 
# From -- ./inp_files/41525.got.cif
#   From: 2010.03.12/outbox.cif.g09.slc.cpg/sg63_21_cif.got.tgz:41525.got - 2010.04.10 19:34:48.
