data_PCOD8257567
_publ_section_title
;
Structure prediction by ZEFSAII (Michael W. Deem and Ramdas Pophale) SiO2 
 PCOD8257567
Probable space group: C M C M
;
_chemical_formula_sum "Si O2"
_cell_formula_units_Z 72
_cell_length_a 21.773971
_cell_length_b 19.629801
_cell_length_c 9.111790
_cell_angle_alpha 90.000000
_cell_angle_beta 90.000000
_cell_angle_gamma 90.000000
_cell_volume 3894.549598
_symmetry_space_group_name_H-M "C M C M"
_symmetry_group_IT_number 63
_symmetry_cell_setting 'orthorhombic'
loop_
_space_group_symop_operation_xyz
x,y,z
-x,-y,1/2+z
x,-y,-z
-x,y,1/2-z
-x,-y,-z
x,y,1/2-z
-x,y,z
x,-y,1/2+z
1/2+x,1/2+y,z
1/2-x,1/2-y,1/2+z
1/2+x,1/2-y,-z
1/2-x,1/2+y,1/2-z
1/2-x,1/2-y,-z
1/2+x,1/2+y,1/2-z
1/2-x,1/2+y,z
1/2+x,1/2-y,1/2+z
loop_
_atom_site_type_symbol
_atom_site_label
_atom_site_fract_x
_atom_site_fract_y
_atom_site_fract_z
Si Si1 0.645202 0.068191 0.921195
Si Si2 0.500000 0.428721 0.578864
Si Si3 0.930924 0.696563 0.924534
Si Si4 0.712560 0.569154 0.921945
Si Si5 0.117531 0.158834 0.423054
O O1 0.633653 0.058081 0.750000
O O2 0.606039 0.131248 0.984031
O O3 0.716240 0.082641 0.955613
O O4 0.622040 0.000000 0.000000
O O5 0.500000 0.500000 0.500000
O O6 0.500000 0.442873 0.750000
O O7 0.559541 0.386591 0.531597
O O8 0.933802 0.696244 0.750000
O O9 0.895715 0.764375 0.976181
O O10 0.000000 0.695280 0.988920
O O11 0.698990 0.562277 0.750000
O O12 0.689877 0.500000 0.000000
O O13 0.676635 0.633046 0.988822
O O14 0.130795 0.155163 0.250000
#
# Coordination Sequence:
#
# PCOD8257567 Si02
#       5
#    16   8  16  16  16
#     4   9  19  35  55  78 104 135 172 214 259 307
#     4  10  20  32  48  72  99 130 170 210 247 294
#     4   9  17  33  56  78 103 137 174 211 255 311
#     4  10  20  34  51  75 106 138 173 213 257 305
#     4  10  19  33  53  76 102 135 174 212 254 306
#
# _framework density 18.487376000000001
#
# number of rings (size 3 to 8) (size 9 to 14) (size 15 to 20)
#    0.000    2.444    1.111    1.333    0.000    4.889 
#    0.000    1.111    0.000    1.333    0.000    0.000 
#    0.000    0.000    0.000    0.000    0.000    0.000 
#
# Total GULP energy -446482.487549 kJ/mol
# GULP energy per Si atom -12402.291321 kJ/mol
# Density = 1.844530 g / cm^3
# Si number density = 18.487376 Si / 1000 Ang^3
#
#
#
# Elastic Constant Matrix: (Units=GPa)
#
#
# Indices 1 2 3 4 5 6 
#
# 1 93.5020 85.4850 37.2289 0.0000 0.0000 0.0000
# 2 85.4850 192.9921 48.7777 0.0000 0.0000 0.0000
# 3 37.2289 48.7777 43.2755 0.0000 0.0000 0.0000
# 4 0.0000 0.0000 0.0000 27.1077 0.0000 0.0000
# 5 0.0000 0.0000 0.0000 0.0000 19.2067 0.0000
# 6 0.0000 0.0000 0.0000 0.0000 0.0000 38.0219
#
#
#
# Elastic Compliance Matrix: (Units=1/GPa)
#
#
# Indices 1 2 3 4 5 6 
#
# 1 0.020943 -0.006604 -0.010572 0.000000 0.000000 0.000000
# 2 -0.006604 0.009328 -0.004833 0.000000 0.000000 0.000000
# 3 -0.010572 -0.004833 0.037650 0.000000 0.000000 0.000000
# 4 0.000000 0.000000 0.000000 0.036890 0.000000 0.000000
# 5 0.000000 0.000000 0.000000 0.000000 0.052065 0.000000
# 6 0.000000 0.000000 0.000000 0.000000 0.000000 0.026301
#
#
# Mechanical properties :
#
#
# Convention : Reuss Voigt Hill
#
# Bulk Modulus (GPa) = 41.83738 74.75033 58.29385
# Shear Modulus (GPa) = 21.26180 27.41913 24.34046
#
# Velocity S-wave (km/s) = 3.39495 3.85532 3.63243
# Velocity P-wave (km/s) = 6.16822 7.76781 7.01377
#
# Compressibility (1/GPa) = 0.02390207
#
# Stress axis : x y z
#
# Youngs Moduli (GPa) = 47.74975 107.19953 26.56015
#
# Poissons Ratio (x) = 0.70798 0.28080
# Poissons Ratio (y) = 0.31535 0.12836
# Poissons Ratio (z) = 0.50483 0.51809
#
# Static dielectric constant tensor:
#      x y z
#    x 3.477620 0.000000 0.000000 
#    y 0.000000 3.559770 0.000000 
#    z 0.000000 0.000000 3.122400 
# 
# 
# High freq. dielectric constant tensor:
#      x y z
#    x 1.721310 0.000000 0.000000 
#    y 0.000000 1.726560 0.000000 
#    z 0.000000 0.000000 1.688920 
# 
# From -- ./inp_files/7794.got.cif
#   From: 2010.03.12/outbox.cif.g09.slc.cpg/sg63_4_cif.got.tgz:7794.got - 2010.04.10 19:34:48.
