data_PCOD8257714
_publ_section_title
;
Structure prediction by ZEFSAII (Michael W. Deem and Ramdas Pophale) SiO2 
 PCOD8257714
Probable space group: C M C M
;
_chemical_formula_sum "Si O2"
_cell_formula_units_Z 80
_cell_length_a 18.157865
_cell_length_b 10.507769
_cell_length_c 20.160214
_cell_angle_alpha 90.000000
_cell_angle_beta 90.000000
_cell_angle_gamma 90.000000
_cell_volume 3846.541634
_symmetry_space_group_name_H-M "C M C M"
_symmetry_group_IT_number 63
_symmetry_cell_setting 'orthorhombic'
loop_
_space_group_symop_operation_xyz
x,y,z
-x,-y,1/2+z
x,-y,-z
-x,y,1/2-z
-x,-y,-z
x,y,1/2-z
-x,y,z
x,-y,1/2+z
1/2+x,1/2+y,z
1/2-x,1/2-y,1/2+z
1/2+x,1/2-y,-z
1/2-x,1/2+y,1/2-z
1/2-x,1/2-y,-z
1/2+x,1/2+y,1/2-z
1/2-x,1/2+y,z
1/2+x,1/2-y,1/2+z
loop_
_atom_site_type_symbol
_atom_site_label
_atom_site_fract_x
_atom_site_fract_y
_atom_site_fract_z
Si Si1 0.319121 0.718685 0.750000
Si Si2 0.419597 0.410257 0.629927
Si Si3 0.312971 0.582504 0.250000
Si Si4 0.630658 0.320923 0.113240
Si Si5 0.233330 0.377824 0.039548
Si Si6 0.583337 0.206954 0.521235
O O1 0.293077 0.568808 0.750000
O O2 0.256214 0.824630 0.750000
O O3 0.370177 0.745229 0.685465
O O4 0.500000 0.371590 0.658005
O O5 0.358838 0.379517 0.684804
O O6 0.422663 0.558638 0.612067
O O7 0.404852 0.337547 0.561042
O O8 0.716175 0.368624 0.104873
O O9 0.602095 0.225730 0.056507
O O10 0.261725 0.500000 0.000000
O O11 0.250000 0.250000 0.000000
O O12 0.144690 0.389673 0.052229
O O13 0.500000 0.152681 0.528998
#
# Coordination Sequence:
#
# PCOD8257714 Si02
#       6
#     8  16   8  16  16  16
#     4  10  22  34  54  78 108 142 180 226 274 322
#     4  10  19  33  56  83 111 143 181 227 277 326
#     4  10  21  38  54  82 113 142 182 228 275 326
#     4  10  19  34  53  80 109 141 183 229 272 321
#     4  10  20  34  55  79 107 142 180 223 271 322
#     4  10  20  33  52  79 111 144 179 222 277 334
#
# _framework density 20.797903000000002
#
# number of rings (size 3 to 8) (size 9 to 14) (size 15 to 20)
#    0.000    2.000    0.000    5.100    0.000    6.800 
#    0.000    1.500    0.000    0.000    0.000   12.600 
#    0.000    0.000    0.000    0.000    0.000    0.000 
#
# Total GULP energy -495610.672130 kJ/mol
# GULP energy per Si atom -12390.266803 kJ/mol
# Density = 2.075057 g / cm^3
# Si number density = 20.797903 Si / 1000 Ang^3
#
#
#
# Elastic Constant Matrix: (Units=GPa)
#
#
# Indices 1 2 3 4 5 6 
#
# 1 98.1490 4.9251 18.7633 0.0000 0.0000 0.0000
# 2 4.9251 61.2740 7.8020 0.0000 0.0000 0.0000
# 3 18.7633 7.8020 96.1024 0.0000 0.0000 0.0000
# 4 0.0000 0.0000 0.0000 15.3935 0.0000 0.0000
# 5 0.0000 0.0000 0.0000 0.0000 29.9996 0.0000
# 6 0.0000 0.0000 0.0000 0.0000 0.0000 28.4012
#
#
#
# Elastic Compliance Matrix: (Units=1/GPa)
#
#
# Indices 1 2 3 4 5 6 
#
# 1 0.010605 -0.000595 -0.002022 0.000000 0.000000 0.000000
# 2 -0.000595 0.016524 -0.001225 0.000000 0.000000 0.000000
# 3 -0.002022 -0.001225 0.010900 0.000000 0.000000 0.000000
# 4 0.000000 0.000000 0.000000 0.064963 0.000000 0.000000
# 5 0.000000 0.000000 0.000000 0.000000 0.033334 0.000000
# 6 0.000000 0.000000 0.000000 0.000000 0.000000 0.035210
#
#
# Mechanical properties :
#
#
# Convention : Reuss Voigt Hill
#
# Bulk Modulus (GPa) = 32.95558 35.38957 34.17258
# Shear Modulus (GPa) = 26.40826 29.69452 28.05139
#
# Velocity S-wave (km/s) = 3.56723 3.78268 3.67653
# Velocity P-wave (km/s) = 5.73122 6.01091 5.87273
#
# Compressibility (1/GPa) = 0.03034387
#
# Stress axis : x y z
#
# Youngs Moduli (GPa) = 94.29480 60.51814 91.74412
#
# Poissons Ratio (x) = 0.03600 0.18553
# Poissons Ratio (y) = 0.05610 0.11242
# Poissons Ratio (z) = 0.19069 0.07415
#
# Static dielectric constant tensor:
#      x y z
#    x 4.320290 0.000000 0.000000 
#    y 0.000000 3.491100 0.000000 
#    z 0.000000 0.000000 3.836500 
# 
# 
# High freq. dielectric constant tensor:
#      x y z
#    x 1.821090 0.000000 0.000000 
#    y 0.000000 1.784190 0.000000 
#    z 0.000000 0.000000 1.811400 
# 
# From -- ./inp_files/46835.got.cif
#   From: 2010.03.12/outbox.cif.g09.slc.cpg/sg63_24_cif.got.tgz:46835.got - 2010.04.10 19:34:48.
