data_PCOD8257299
_publ_section_title
;
Structure prediction by ZEFSAII (Michael W. Deem and Ramdas Pophale) SiO2 
 PCOD8257299
Probable space group: C M C M
;
_chemical_formula_sum "Si O2"
_cell_formula_units_Z 64
_cell_length_a 22.885806
_cell_length_b 18.682874
_cell_length_c 8.717198
_cell_angle_alpha 90.000000
_cell_angle_beta 90.000000
_cell_angle_gamma 90.000000
_cell_volume 3727.235274
_symmetry_space_group_name_H-M "C M C M"
_symmetry_group_IT_number 63
_symmetry_cell_setting 'orthorhombic'
loop_
_space_group_symop_operation_xyz
x,y,z
-x,-y,1/2+z
x,-y,-z
-x,y,1/2-z
-x,-y,-z
x,y,1/2-z
-x,y,z
x,-y,1/2+z
1/2+x,1/2+y,z
1/2-x,1/2-y,1/2+z
1/2+x,1/2-y,-z
1/2-x,1/2+y,1/2-z
1/2-x,1/2-y,-z
1/2+x,1/2+y,1/2-z
1/2-x,1/2+y,z
1/2+x,1/2-y,1/2+z
loop_
_atom_site_type_symbol
_atom_site_label
_atom_site_fract_x
_atom_site_fract_y
_atom_site_fract_z
Si Si1 0.828184 0.856132 0.929468
Si Si2 0.830165 0.711968 0.074185
Si Si3 0.277027 0.073974 0.931170
Si Si4 0.565038 0.302855 0.424182
O O1 0.822029 0.867156 0.750000
O O2 0.800760 0.779049 0.982071
O O3 0.789996 0.916258 0.014258
O O4 0.896417 0.861001 0.980461
O O5 0.807259 0.710934 0.250000
O O6 0.900670 0.726538 0.069491
O O7 0.817974 0.637137 0.993811
O O8 0.280546 0.071732 0.750000
O O9 0.301306 0.000000 0.000000
O O10 0.561261 0.330370 0.250000
O O11 0.500000 0.295065 0.495042
#
# Coordination Sequence:
#
# PCOD8257299 Si02
#       4
#    16  16  16  16
#     4  10  19  32  51  76 103 132 166 206 247 295
#     4   9  18  33  52  75 102 132 166 206 247 293
#     4  12  23  35  50  72 102 135 167 206 251 303
#     4   8  16  31  52  76 101 130 166 207 247 288
#
# _framework density 17.170905000000001
#
# number of rings (size 3 to 8) (size 9 to 14) (size 15 to 20)
#    1.500    0.750    0.000    5.250    0.000    0.500 
#    0.000    0.000    0.000    1.500    0.000    0.000 
#    0.000    0.000    0.000    0.000    0.000    0.000 
#
# Total GULP energy -396435.227574 kJ/mol
# GULP energy per Si atom -12388.600862 kJ/mol
# Density = 1.713182 g / cm^3
# Si number density = 17.170905 Si / 1000 Ang^3
#
#
#
# Elastic Constant Matrix: (Units=GPa)
#
#
# Indices 1 2 3 4 5 6 
#
# 1 44.3228 -17.4780 2.3513 0.0000 0.0000 0.0000
# 2 -17.4780 37.3903 9.3786 0.0000 0.0000 0.0000
# 3 2.3513 9.3786 114.9134 0.0000 0.0000 0.0000
# 4 0.0000 0.0000 0.0000 26.4307 0.0000 0.0000
# 5 0.0000 0.0000 0.0000 0.0000 22.3097 0.0000
# 6 0.0000 0.0000 0.0000 0.0000 0.0000 4.1970
#
#
#
# Elastic Compliance Matrix: (Units=1/GPa)
#
#
# Indices 1 2 3 4 5 6 
#
# 1 0.027972 0.013495 -0.001674 0.000000 0.000000 0.000000
# 2 0.013495 0.033815 -0.003036 0.000000 0.000000 0.000000
# 3 -0.001674 -0.003036 0.008984 0.000000 0.000000 0.000000
# 4 0.000000 0.000000 0.000000 0.037835 0.000000 0.000000
# 5 0.000000 0.000000 0.000000 0.000000 0.044824 0.000000
# 6 0.000000 0.000000 0.000000 0.000000 0.000000 0.238264
#
#
# Mechanical properties :
#
#
# Convention : Reuss Voigt Hill
#
# Bulk Modulus (GPa) = 11.31954 20.57002 15.94478
# Shear Modulus (GPa) = 12.38945 24.07914 18.23429
#
# Velocity S-wave (km/s) = 2.68906 3.74882 3.26226
# Velocity P-wave (km/s) = 4.03088 5.54471 4.84726
#
# Compressibility (1/GPa) = 0.08834283
#
# Stress axis : x y z
#
# Youngs Moduli (GPa) = 35.74970 29.57281 111.30618
#
# Poissons Ratio (x) = -0.39910 0.18630
# Poissons Ratio (y) = -0.48246 0.33792
# Poissons Ratio (z) = 0.05984 0.08978
#
# Static dielectric constant tensor:
#      x y z
#    x 3.233160 0.000000 0.000000 
#    y 0.000000 2.982120 0.000000 
#    z 0.000000 0.000000 3.223130 
# 
# 
# High freq. dielectric constant tensor:
#      x y z
#    x 1.649460 0.000000 0.000000 
#    y 0.000000 1.629380 0.000000 
#    z 0.000000 0.000000 1.676040 
# 
# From -- ./inp_files/9768.got.cif
#   From: 2010.03.12/outbox.cif.g09.slc.cpg/sg63_5_cif.got.tgz:9768.got - 2010.04.10 19:34:48.
