data_PCOD8257570
_publ_section_title
;
Structure prediction by ZEFSAII (Michael W. Deem and Ramdas Pophale) SiO2 
 PCOD8257570
Probable space group: C M C M
;
_chemical_formula_sum "Si O2"
_cell_formula_units_Z 88
_cell_length_a 21.915930
_cell_length_b 24.489394
_cell_length_c 9.062933
_cell_angle_alpha 90.000000
_cell_angle_beta 90.000000
_cell_angle_gamma 90.000000
_cell_volume 4864.147237
_symmetry_space_group_name_H-M "C M C M"
_symmetry_group_IT_number 63
_symmetry_cell_setting 'orthorhombic'
loop_
_space_group_symop_operation_xyz
x,y,z
-x,-y,1/2+z
x,-y,-z
-x,y,1/2-z
-x,-y,-z
x,y,1/2-z
-x,y,z
x,-y,1/2+z
1/2+x,1/2+y,z
1/2-x,1/2-y,1/2+z
1/2+x,1/2-y,-z
1/2-x,1/2+y,1/2-z
1/2-x,1/2-y,-z
1/2+x,1/2+y,1/2-z
1/2-x,1/2+y,z
1/2+x,1/2-y,1/2+z
loop_
_atom_site_type_symbol
_atom_site_label
_atom_site_fract_x
_atom_site_fract_y
_atom_site_fract_z
Si Si1 0.571662 0.149449 0.080195
Si Si2 0.070558 0.241932 0.081552
Si Si3 0.381747 0.374907 0.577332
Si Si4 0.714299 0.444619 0.422051
Si Si5 0.500000 0.558119 0.075900
Si Si6 0.855616 0.444608 0.077815
O O1 0.590734 0.143578 0.250000
O O2 0.500000 0.140901 0.056487
O O3 0.591533 0.209219 0.024519
O O4 0.605896 0.104987 0.984355
O O5 0.082202 0.260041 0.250000
O O6 0.109614 0.188785 0.040548
O O7 0.000000 0.226722 0.058079
O O8 0.370204 0.383952 0.750000
O O9 0.322928 0.393957 0.486857
O O10 0.440666 0.408596 0.524144
O O11 0.691940 0.500000 0.500000
O O12 0.701087 0.450917 0.250000
O O13 0.784904 0.433159 0.455909
O O14 0.500000 0.550002 0.250000
O O15 0.500000 0.500000 0.000000
O O16 0.868633 0.450873 0.250000
O O17 0.877555 0.500000 0.000000
#
# Coordination Sequence:
#
# PCOD8257570 Si02
#       6
#    16  16  16  16   8  16
#     4  10  21  36  56  84 113 138 170 215 263 316
#     4   9  17  33  55  77 105 143 181 219 265 316
#     4  10  19  33  53  76 105 141 182 223 267 316
#     4  10  21  36  54  77 105 139 180 222 266 317
#     4  10  20  32  46  72 106 138 177 224 267 312
#     4  10  21  38  59  81 107 140 176 215 262 318
#
# _framework density 18.091557999999999
#
# number of rings (size 3 to 8) (size 9 to 14) (size 15 to 20)
#    0.000    2.182    0.909    2.182    0.000    6.545 
#    0.000    0.909    0.000    0.000    0.000    0.000 
#    0.000    0.000    0.000    0.000    0.000    0.000 
#
# Total GULP energy -545787.785711 kJ/mol
# GULP energy per Si atom -12404.267857 kJ/mol
# Density = 1.805038 g / cm^3
# Si number density = 18.091558 Si / 1000 Ang^3
#
#
#
# Elastic Constant Matrix: (Units=GPa)
#
#
# Indices 1 2 3 4 5 6 
#
# 1 58.4250 57.7303 45.0827 0.0000 0.0000 0.0000
# 2 57.7303 129.4660 63.3294 0.0000 0.0000 0.0000
# 3 45.0827 63.3294 89.5150 0.0000 0.0000 0.0000
# 4 0.0000 0.0000 0.0000 37.5517 0.0000 0.0000
# 5 0.0000 0.0000 0.0000 0.0000 30.7020 0.0000
# 6 0.0000 0.0000 0.0000 0.0000 0.0000 28.4490
#
#
#
# Elastic Compliance Matrix: (Units=1/GPa)
#
#
# Indices 1 2 3 4 5 6 
#
# 1 0.035925 -0.010963 -0.010337 0.000000 0.000000 0.000000
# 2 -0.010963 0.015157 -0.005202 0.000000 0.000000 0.000000
# 3 -0.010337 -0.005202 0.020058 0.000000 0.000000 0.000000
# 4 0.000000 0.000000 0.000000 0.026630 0.000000 0.000000
# 5 0.000000 0.000000 0.000000 0.000000 0.032571 0.000000
# 6 0.000000 0.000000 0.000000 0.000000 0.000000 0.035151
#
#
# Mechanical properties :
#
#
# Convention : Reuss Voigt Hill
#
# Bulk Modulus (GPa) = 55.13934 67.74341 61.44137
# Shear Modulus (GPa) = 22.26775 26.75812 24.51293
#
# Velocity S-wave (km/s) = 3.51213 3.85000 3.68494
# Velocity P-wave (km/s) = 6.85499 7.56897 7.22081
#
# Compressibility (1/GPa) = 0.01813587
#
# Stress axis : x y z
#
# Youngs Moduli (GPa) = 27.83596 65.97589 49.85641
#
# Poissons Ratio (x) = 0.72328 0.51537
# Poissons Ratio (y) = 0.30516 0.25935
# Poissons Ratio (z) = 0.28774 0.34320
#
# Static dielectric constant tensor:
#      x y z
#    x 3.229830 0.000000 0.000000 
#    y 0.000000 3.400610 0.000000 
#    z 0.000000 0.000000 3.507770 
# 
# 
# High freq. dielectric constant tensor:
#      x y z
#    x 1.688280 0.000000 0.000000 
#    y 0.000000 1.707110 0.000000 
#    z 0.000000 0.000000 1.706320 
# 
# From -- ./inp_files/8187.got.cif
#   From: 2010.03.12/outbox.cif.g09.slc.cpg/sg63_5_cif.got.tgz:8187.got - 2010.04.10 19:34:48.
