data_PCOD8257100
_publ_section_title
;
Structure prediction by ZEFSAII (Michael W. Deem and Ramdas Pophale) SiO2 
 PCOD8257100
Probable space group: C M C M
;
_chemical_formula_sum "Si O2"
_cell_formula_units_Z 88
_cell_length_a 26.571849
_cell_length_b 19.135021
_cell_length_c 10.001680
_cell_angle_alpha 90.000000
_cell_angle_beta 90.000000
_cell_angle_gamma 90.000000
_cell_volume 5085.383087
_symmetry_space_group_name_H-M "C M C M"
_symmetry_group_IT_number 63
_symmetry_cell_setting 'orthorhombic'
loop_
_space_group_symop_operation_xyz
x,y,z
-x,-y,1/2+z
x,-y,-z
-x,y,1/2-z
-x,-y,-z
x,y,1/2-z
-x,y,z
x,-y,1/2+z
1/2+x,1/2+y,z
1/2-x,1/2-y,1/2+z
1/2+x,1/2-y,-z
1/2-x,1/2+y,1/2-z
1/2-x,1/2-y,-z
1/2+x,1/2+y,1/2-z
1/2-x,1/2+y,z
1/2+x,1/2-y,1/2+z
loop_
_atom_site_type_symbol
_atom_site_label
_atom_site_fract_x
_atom_site_fract_y
_atom_site_fract_z
Si Si1 0.697117 0.316873 0.405105
Si Si2 0.813934 0.690380 0.596390
Si Si3 0.500000 0.937915 0.399327
Si Si4 0.055038 0.920490 0.250000
Si Si5 0.443209 0.586612 0.250000
Si Si6 0.889757 0.432627 0.404605
Si Si7 0.618162 0.582407 0.996977
O O1 0.681804 0.306291 0.250000
O O2 0.756053 0.331597 0.418406
O O3 0.676339 0.251875 0.490889
O O4 0.672658 0.384800 0.473219
O O5 0.825125 0.714003 0.750000
O O6 0.849195 0.625740 0.554427
O O7 0.500000 0.969127 0.250000
O O8 0.446347 0.898141 0.421350
O O9 0.500000 0.000000 0.500000
O O10 0.082920 0.891976 0.378348
O O11 0.000000 0.887406 0.250000
O O12 0.052124 0.003758 0.250000
O O13 0.500000 0.618592 0.250000
O O14 0.410565 0.612352 0.374721
O O15 0.882607 0.500000 0.500000
O O16 0.881163 0.455563 0.250000
O O17 0.626105 0.500000 0.000000
#
# Coordination Sequence:
#
# PCOD8257100 Si02
#       7
#    16  16   8   8   8  16  16
#     4  10  20  36  53  71  98 134 174 211 253 305
#     4   9  20  36  54  72  97 136 172 207 253 303
#     4   8  14  26  48  76 102 130 157 190 243 298
#     4   9  16  30  50  71  98 134 165 205 254 302
#     4   9  18  30  48  75 102 130 169 203 248 306
#     4   9  17  31  53  79 105 130 162 203 247 298
#     4  10  19  31  51  76 101 130 167 214 258 292
#
# _framework density 17.304497000000001
#
# number of rings (size 3 to 8) (size 9 to 14) (size 15 to 20)
#    0.000    2.727    0.909    0.545    1.273    3.636 
#    0.000    0.000    4.000    0.000    0.000    0.000 
#    0.000    0.000    0.000    0.000    0.000    0.000 
#
# Total GULP energy -545154.490162 kJ/mol
# GULP energy per Si atom -12389.874776 kJ/mol
# Density = 1.726511 g / cm^3
# Si number density = 17.304497 Si / 1000 Ang^3
#
#
#
# Elastic Constant Matrix: (Units=GPa)
#
#
# Indices 1 2 3 4 5 6 
#
# 1 111.8945 62.1313 57.4285 0.0000 0.0000 0.0000
# 2 62.1313 67.1183 45.5199 0.0000 0.0000 0.0000
# 3 57.4285 45.5199 122.4498 0.0000 0.0000 0.0000
# 4 0.0000 0.0000 0.0000 28.6254 0.0000 0.0000
# 5 0.0000 0.0000 0.0000 0.0000 27.5597 0.0000
# 6 0.0000 0.0000 0.0000 0.0000 0.0000 14.4166
#
#
#
# Elastic Compliance Matrix: (Units=1/GPa)
#
#
# Indices 1 2 3 4 5 6 
#
# 1 0.019295 -0.015676 -0.003222 0.000000 0.000000 0.000000
# 2 -0.015676 0.032658 -0.004788 0.000000 0.000000 0.000000
# 3 -0.003222 -0.004788 0.011458 0.000000 0.000000 0.000000
# 4 0.000000 0.000000 0.000000 0.034934 0.000000 0.000000
# 5 0.000000 0.000000 0.000000 0.000000 0.036285 0.000000
# 6 0.000000 0.000000 0.000000 0.000000 0.000000 0.069364
#
#
# Mechanical properties :
#
#
# Convention : Reuss Voigt Hill
#
# Bulk Modulus (GPa) = 62.35195 70.18022 66.26609
# Shear Modulus (GPa) = 19.47702 23.21255 21.34479
#
# Velocity S-wave (km/s) = 3.35856 3.66651 3.51591
# Velocity P-wave (km/s) = 7.15195 7.65301 7.40671
#
# Compressibility (1/GPa) = 0.01603799
#
# Stress axis : x y z
#
# Youngs Moduli (GPa) = 51.82657 30.62023 87.27851
#
# Poissons Ratio (x) = 0.48002 0.28119
# Poissons Ratio (y) = 0.81246 0.41791
# Poissons Ratio (z) = 0.16697 0.14662
#
# Static dielectric constant tensor:
#      x y z
#    x 3.586150 0.000000 0.000000 
#    y 0.000000 2.818360 0.000000 
#    z 0.000000 0.000000 3.470440 
# 
# 
# High freq. dielectric constant tensor:
#      x y z
#    x 1.684180 0.000000 0.000000 
#    y 0.000000 1.620060 0.000000 
#    z 0.000000 0.000000 1.685340 
# 
# From -- ./inp_files/10281.got.cif
#   From: 2010.03.12/outbox.cif.g09.slc.cpg/sg63_6_cif.got.tgz:10281.got - 2010.04.10 19:34:48.
