data_PCOD8257177
_publ_section_title
;
Structure prediction by ZEFSAII (Michael W. Deem and Ramdas Pophale) SiO2 
 PCOD8257177
Probable space group: C M C M
;
_chemical_formula_sum "Si O2"
_cell_formula_units_Z 80
_cell_length_a 18.411851
_cell_length_b 31.294153
_cell_length_c 8.884421
_cell_angle_alpha 90.000000
_cell_angle_beta 90.000000
_cell_angle_gamma 90.000000
_cell_volume 5119.054852
_symmetry_space_group_name_H-M "C M C M"
_symmetry_group_IT_number 63
_symmetry_cell_setting 'orthorhombic'
loop_
_space_group_symop_operation_xyz
x,y,z
-x,-y,1/2+z
x,-y,-z
-x,y,1/2-z
-x,-y,-z
x,y,1/2-z
-x,y,z
x,-y,1/2+z
1/2+x,1/2+y,z
1/2-x,1/2-y,1/2+z
1/2+x,1/2-y,-z
1/2-x,1/2+y,1/2-z
1/2-x,1/2-y,-z
1/2+x,1/2+y,1/2-z
1/2-x,1/2+y,z
1/2+x,1/2-y,1/2+z
loop_
_atom_site_type_symbol
_atom_site_label
_atom_site_fract_x
_atom_site_fract_y
_atom_site_fract_z
Si Si1 0.297367 0.667892 0.426902
Si Si2 0.825058 0.713063 0.921448
Si Si3 0.684027 0.118667 0.580857
Si Si4 0.582376 0.956241 0.428538
Si Si5 0.415856 0.715193 0.573537
O O1 0.305312 0.667011 0.250000
O O2 0.250896 0.710006 0.482342
O O3 0.258373 0.624220 0.483502
O O4 0.376240 0.673559 0.502887
O O5 0.809345 0.728508 0.750000
O O6 0.857389 0.664468 0.919399
O O7 0.885696 0.741826 0.998297
O O8 0.706539 0.105683 0.750000
O O9 0.632185 0.082476 0.510196
O O10 0.586234 0.959578 0.250000
O O11 0.500000 0.947692 0.482721
O O12 0.612141 0.000000 0.500000
O O13 0.401296 0.716967 0.750000
O O14 0.500000 0.711107 0.534122
#
# Coordination Sequence:
#
# PCOD8257177 Si02
#       5
#    16  16  16  16  16
#     4  10  19  32  49  65  86 116 152 190 226 266
#     4   9  18  32  49  65  86 118 153 189 225 266
#     4   8  17  31  47  64  87 120 153 187 223 265
#     4   9  17  30  47  68  94 122 150 182 222 264
#     4  11  22  33  45  64  90 117 149 189 230 270
#
# _framework density 15.627884999999999
#
# number of rings (size 3 to 8) (size 9 to 14) (size 15 to 20)
#    1.200    1.400    0.000    3.000    0.000    3.200 
#    0.000    2.000    0.000    0.000    0.000    0.000 
#    0.000    0.800    0.000    2.600    0.000    3.200 
#
# Total GULP energy -495651.262946 kJ/mol
# GULP energy per Si atom -12391.281574 kJ/mol
# Density = 1.559232 g / cm^3
# Si number density = 15.627885 Si / 1000 Ang^3
#
#
#
# Elastic Constant Matrix: (Units=GPa)
#
#
# Indices 1 2 3 4 5 6 
#
# 1 104.0907 47.1151 57.5200 0.0000 0.0000 0.0000
# 2 47.1151 50.7899 27.6003 0.0000 0.0000 0.0000
# 3 57.5200 27.6003 93.3923 0.0000 0.0000 0.0000
# 4 0.0000 0.0000 0.0000 21.5785 0.0000 0.0000
# 5 0.0000 0.0000 0.0000 0.0000 21.9632 0.0000
# 6 0.0000 0.0000 0.0000 0.0000 0.0000 26.4706
#
#
#
# Elastic Compliance Matrix: (Units=1/GPa)
#
#
# Indices 1 2 3 4 5 6 
#
# 1 0.021101 -0.014906 -0.008591 0.000000 0.000000 0.000000
# 2 -0.014906 0.033986 -0.000863 0.000000 0.000000 0.000000
# 3 -0.008591 -0.000863 0.016254 0.000000 0.000000 0.000000
# 4 0.000000 0.000000 0.000000 0.046342 0.000000 0.000000
# 5 0.000000 0.000000 0.000000 0.000000 0.045531 0.000000
# 6 0.000000 0.000000 0.000000 0.000000 0.000000 0.037778
#
#
# Mechanical properties :
#
#
# Convention : Reuss Voigt Hill
#
# Bulk Modulus (GPa) = 44.20835 56.97154 50.58995
# Shear Modulus (GPa) = 19.43615 21.73829 20.58722
#
# Velocity S-wave (km/s) = 3.53042 3.73365 3.63345
# Velocity P-wave (km/s) = 6.70582 7.42435 7.07421
#
# Compressibility (1/GPa) = 0.02262016
#
# Stress axis : x y z
#
# Youngs Moduli (GPa) = 47.39015 29.42415 61.52391
#
# Poissons Ratio (x) = 0.43860 0.52856
# Poissons Ratio (y) = 0.70640 0.05311
# Poissons Ratio (z) = 0.40713 0.02540
#
# Static dielectric constant tensor:
#      x y z
#    x 2.896330 0.000000 0.000000 
#    y 0.000000 2.861020 0.000000 
#    z 0.000000 0.000000 2.965180 
# 
# 
# High freq. dielectric constant tensor:
#      x y z
#    x 1.578670 0.000000 0.000000 
#    y 0.000000 1.572060 0.000000 
#    z 0.000000 0.000000 1.609810 
# 
# From -- ./inp_files/6395.got.cif
#   From: 2010.03.12/outbox.cif.g09.slc.cpg/sg63_4_cif.got.tgz:6395.got - 2010.04.10 19:34:48.
