data_PCOD8257581
_publ_section_title
;
Structure prediction by ZEFSAII (Michael W. Deem and Ramdas Pophale) SiO2 
 PCOD8257581
Probable space group: C M C M
;
_chemical_formula_sum "Si O2"
_cell_formula_units_Z 80
_cell_length_a 15.202026
_cell_length_b 29.718982
_cell_length_c 9.049053
_cell_angle_alpha 90.000000
_cell_angle_beta 90.000000
_cell_angle_gamma 90.000000
_cell_volume 4088.260226
_symmetry_space_group_name_H-M "C M C M"
_symmetry_group_IT_number 63
_symmetry_cell_setting 'orthorhombic'
loop_
_space_group_symop_operation_xyz
x,y,z
-x,-y,1/2+z
x,-y,-z
-x,y,1/2-z
-x,-y,-z
x,y,1/2-z
-x,y,z
x,-y,1/2+z
1/2+x,1/2+y,z
1/2-x,1/2-y,1/2+z
1/2+x,1/2-y,-z
1/2-x,1/2+y,1/2-z
1/2-x,1/2-y,-z
1/2+x,1/2+y,1/2-z
1/2-x,1/2+y,z
1/2+x,1/2-y,1/2+z
loop_
_atom_site_type_symbol
_atom_site_label
_atom_site_fract_x
_atom_site_fract_y
_atom_site_fract_z
Si Si1 0.000000 0.802570 0.575502
Si Si2 0.500000 0.202140 0.574482
Si Si3 0.341579 0.634735 0.074022
Si Si4 0.341859 0.859968 0.073316
Si Si5 0.143963 0.458431 0.411187
Si Si6 0.148171 0.957070 0.415369
O O1 0.087331 0.828341 0.523835
O O2 0.000000 0.798660 0.750000
O O3 0.000000 0.752313 0.506919
O O4 0.500000 0.202509 0.750000
O O5 0.587516 0.176628 0.519948
O O6 0.333830 0.629962 0.250000
O O7 0.249391 0.651246 0.006888
O O8 0.374151 0.587449 0.007957
O O9 0.326129 0.860330 0.250000
O O10 0.377271 0.909189 0.021036
O O11 0.101693 0.500000 0.500000
O O12 0.101225 0.461449 0.250000
O O13 0.248163 0.463680 0.403095
O O14 0.107943 0.953476 0.250000
O O15 0.106520 0.000000 0.500000
#
# Coordination Sequence:
#
# PCOD8257581 Si02
#       6
#     8   8  16  16  16  16
#     4   9  20  36  54  77 102 134 177 221 270 322
#     4   9  18  36  58  75  99 136 176 221 271 324
#     4  10  19  33  53  77 107 139 173 216 262 313
#     4   9  18  33  54  78 102 134 177 218 261 315
#     4   8  14  24  41  68  99 129 162 198 238 291
#     4   9  16  28  48  76 107 139 175 211 253 306
#
# _framework density 19.568227
#
# number of rings (size 3 to 8) (size 9 to 14) (size 15 to 20)
#    0.000    3.000    0.000    2.400    0.000    5.600 
#    0.000    3.500    0.000    3.600    0.000    0.000 
#    0.000    0.000    0.000    0.000    0.000    0.000 
#
# Total GULP energy -495785.042974 kJ/mol
# GULP energy per Si atom -12394.626074 kJ/mol
# Density = 1.952369 g / cm^3
# Si number density = 19.568227 Si / 1000 Ang^3
#
#
#
# Elastic Constant Matrix: (Units=GPa)
#
#
# Indices 1 2 3 4 5 6 
#
# 1 98.8121 84.7524 38.7000 0.0000 0.0000 0.0000
# 2 84.7524 195.2229 54.6422 0.0000 0.0000 0.0000
# 3 38.7000 54.6422 79.1662 0.0000 0.0000 0.0000
# 4 0.0000 0.0000 0.0000 23.7812 0.0000 0.0000
# 5 0.0000 0.0000 0.0000 0.0000 6.9121 0.0000
# 6 0.0000 0.0000 0.0000 0.0000 0.0000 -57.1328
#
#
#
# Elastic Compliance Matrix: (Units=1/GPa)
#
#
# Indices 1 2 3 4 5 6 
#
# 1 0.017092 -0.006298 -0.004008 0.000000 0.000000 0.000000
# 2 -0.006298 0.008670 -0.002905 0.000000 0.000000 0.000000
# 3 -0.004008 -0.002905 0.016596 0.000000 0.000000 0.000000
# 4 0.000000 0.000000 0.000000 0.042050 0.000000 0.000000
# 5 0.000000 0.000000 0.000000 0.000000 0.144673 0.000000
# 6 0.000000 0.000000 0.000000 0.000000 0.000000 -0.017503
#
#
# Mechanical properties :
#
#
# Convention : Reuss Voigt Hill
#
# Bulk Modulus (GPa) = 62.75552 81.04337 71.89945
# Shear Modulus (GPa) = 20.54964 7.71923 14.13443
#
# Velocity S-wave (km/s) = 3.24412 1.98830 2.69051
# Velocity P-wave (km/s) = 6.79501 6.83936 6.81722
#
# Compressibility (1/GPa) = 0.01593485
#
# Stress axis : x y z
#
# Youngs Moduli (GPa) = 58.50601 115.34240 60.25468
#
# Poissons Ratio (x) = 0.72648 0.24151
# Poissons Ratio (y) = 0.36850 0.17505
# Poissons Ratio (z) = 0.23450 0.33509
#
# Static dielectric constant tensor:
#      x y z
#    x 3.289520 0.000000 0.000000 
#    y 0.000000 3.885990 0.000000 
#    z 0.000000 0.000000 3.522170 
# 
# 
# High freq. dielectric constant tensor:
#      x y z
#    x 1.743760 0.000000 0.000000 
#    y 0.000000 1.768480 0.000000 
#    z 0.000000 0.000000 1.740500 
# 
# From -- ./inp_files/6513.got.cif
#   From: 2010.03.12/outbox.cif.g09.slc.cpg/sg63_4_cif.got.tgz:6513.got - 2010.04.10 19:34:48.
