data_PCOD8257804
_publ_section_title
;
Structure prediction by ZEFSAII (Michael W. Deem and Ramdas Pophale) SiO2 
 PCOD8257804
Probable space group: C M C M
;
_chemical_formula_sum "Si O2"
_cell_formula_units_Z 112
_cell_length_a 24.768887
_cell_length_b 11.465127
_cell_length_c 20.647461
_cell_angle_alpha 90.000000
_cell_angle_beta 90.000000
_cell_angle_gamma 90.000000
_cell_volume 5863.433664
_symmetry_space_group_name_H-M "C M C M"
_symmetry_group_IT_number 63
_symmetry_cell_setting 'orthorhombic'
loop_
_space_group_symop_operation_xyz
x,y,z
-x,-y,1/2+z
x,-y,-z
-x,y,1/2-z
-x,-y,-z
x,y,1/2-z
-x,y,z
x,-y,1/2+z
1/2+x,1/2+y,z
1/2-x,1/2-y,1/2+z
1/2+x,1/2-y,-z
1/2-x,1/2+y,1/2-z
1/2-x,1/2-y,-z
1/2+x,1/2+y,1/2-z
1/2-x,1/2+y,z
1/2+x,1/2-y,1/2+z
loop_
_atom_site_type_symbol
_atom_site_label
_atom_site_fract_x
_atom_site_fract_y
_atom_site_fract_z
Si Si1 0.229368 0.174224 0.821191
Si Si2 0.364105 0.841370 0.824448
Si Si3 0.940114 0.879409 0.673871
Si Si4 0.939592 0.862962 0.326492
Si Si5 0.845336 0.482785 0.069542
Si Si6 0.277771 0.519776 0.427877
Si Si7 0.835724 0.756772 0.627617
O O1 0.216056 0.119187 0.750000
O O2 0.197555 0.296398 0.828728
O O3 0.293253 0.203167 0.820853
O O4 0.210951 0.085713 0.877536
O O5 0.378919 0.875274 0.750000
O O6 0.400129 0.736105 0.853476
O O7 0.374933 0.953562 0.870066
O O8 0.944232 0.890285 0.750000
O O9 0.893952 0.787160 0.656900
O O10 0.000000 0.841464 0.647625
O O11 0.924990 0.008166 0.645760
O O12 0.933071 0.865422 0.250000
O O13 0.000000 0.829337 0.347352
O O14 0.786042 0.540188 0.067161
O O15 0.845610 0.343877 0.075667
O O16 0.874379 0.500000 0.000000
O O17 0.301157 0.500000 0.500000
O O18 0.307949 0.634088 0.405055
#
# Coordination Sequence:
#
# PCOD8257804 Si02
#       7
#    16  16  16  16  16  16  16
#     4  10  21  33  53  84 115 146 185 233 284 331
#     4  10  19  34  54  81 114 144 181 233 280 329
#     4   9  18  34  57  86 115 142 180 231 286 339
#     4   8  15  30  55  83 109 140 179 226 278 330
#     4  10  23  37  54  78 114 154 191 227 274 341
#     4  10  22  36  56  81 111 151 192 232 275 341
#     4  11  21  36  55  80 111 152 185 230 282 340
#
# _framework density 19.101436
#
# number of rings (size 3 to 8) (size 9 to 14) (size 15 to 20)
#    0.000    2.286    1.429    2.143    2.000    6.857 
#    0.000    0.714    0.000    3.857    0.000    0.000 
#    0.000    0.000    0.000    0.000    0.000    0.000 
#
# Total GULP energy -693882.606027 kJ/mol
# GULP energy per Si atom -12390.760822 kJ/mol
# Density = 1.905796 g / cm^3
# Si number density = 19.101436 Si / 1000 Ang^3
#
#
#
# Elastic Constant Matrix: (Units=GPa)
#
#
# Indices 1 2 3 4 5 6 
#
# 1 85.0261 39.4055 11.9723 0.0000 0.0000 0.0000
# 2 39.4055 105.1870 49.6152 0.0000 0.0000 0.0000
# 3 11.9723 49.6152 111.0700 0.0000 0.0000 0.0000
# 4 0.0000 0.0000 0.0000 24.7736 0.0000 0.0000
# 5 0.0000 0.0000 0.0000 0.0000 6.7826 0.0000
# 6 0.0000 0.0000 0.0000 0.0000 0.0000 23.9769
#
#
#
# Elastic Compliance Matrix: (Units=1/GPa)
#
#
# Indices 1 2 3 4 5 6 
#
# 1 0.014334 -0.005880 0.001082 0.000000 0.000000 0.000000
# 2 -0.005880 0.014457 -0.005824 0.000000 0.000000 0.000000
# 3 0.001082 -0.005824 0.011488 0.000000 0.000000 0.000000
# 4 0.000000 0.000000 0.000000 0.040366 0.000000 0.000000
# 5 0.000000 0.000000 0.000000 0.000000 0.147435 0.000000
# 6 0.000000 0.000000 0.000000 0.000000 0.000000 0.041707
#
#
# Mechanical properties :
#
#
# Convention : Reuss Voigt Hill
#
# Bulk Modulus (GPa) = 52.53742 55.91879 54.22810
# Shear Modulus (GPa) = 16.81371 24.45931 20.63651
#
# Velocity S-wave (km/s) = 2.97009 3.58228 3.29046
# Velocity P-wave (km/s) = 6.27105 6.81532 6.54884
#
# Compressibility (1/GPa) = 0.01903405
#
# Stress axis : x y z
#
# Youngs Moduli (GPa) = 69.76483 69.17181 87.04457
#
# Poissons Ratio (x) = 0.40673 -0.09414
# Poissons Ratio (y) = 0.41021 0.50695
# Poissons Ratio (z) = -0.07545 0.40286
#
# Static dielectric constant tensor:
#      x y z
#    x 3.614850 0.000000 0.000000 
#    y 0.000000 3.675660 0.000000 
#    z 0.000000 0.000000 3.434010 
# 
# 
# High freq. dielectric constant tensor:
#      x y z
#    x 1.723900 0.000000 0.000000 
#    y 0.000000 1.740890 0.000000 
#    z 0.000000 0.000000 1.721130 
# 
# From -- ./inp_files/57602.got.cif
#   From: 2010.03.12/outbox.cif.g09.slc.cpg/sg63_29_cif.got.tgz:57602.got - 2010.04.10 19:34:48.
