data_PCOD8257322
_publ_section_title
;
Structure prediction by ZEFSAII (Michael W. Deem and Ramdas Pophale) SiO2 
 PCOD8257322
Probable space group: C M C M
;
_chemical_formula_sum "Si O2"
_cell_formula_units_Z 128
_cell_length_a 12.713048
_cell_length_b 21.559048
_cell_length_c 26.247242
_cell_angle_alpha 90.000000
_cell_angle_beta 90.000000
_cell_angle_gamma 90.000000
_cell_volume 7193.875901
_symmetry_space_group_name_H-M "C M C M"
_symmetry_group_IT_number 63
_symmetry_cell_setting 'orthorhombic'
loop_
_space_group_symop_operation_xyz
x,y,z
-x,-y,1/2+z
x,-y,-z
-x,y,1/2-z
-x,-y,-z
x,y,1/2-z
-x,y,z
x,-y,1/2+z
1/2+x,1/2+y,z
1/2-x,1/2-y,1/2+z
1/2+x,1/2-y,-z
1/2-x,1/2+y,1/2-z
1/2-x,1/2-y,-z
1/2+x,1/2+y,1/2-z
1/2-x,1/2+y,z
1/2+x,1/2-y,1/2+z
loop_
_atom_site_type_symbol
_atom_site_label
_atom_site_fract_x
_atom_site_fract_y
_atom_site_fract_z
Si Si1 0.294715 0.272775 0.690634
Si Si2 0.622259 0.649993 0.104828
Si Si3 0.757288 0.593060 0.894849
Si Si4 0.302022 0.473908 0.552085
Si Si5 0.800416 0.714213 0.454883
Si Si6 0.879328 0.594959 0.998785
Si Si7 0.879811 0.358916 0.194130
Si Si8 0.118784 0.208803 0.630709
O O1 0.291498 0.289265 0.750000
O O2 0.340256 0.335363 0.663156
O O3 0.368173 0.213242 0.677673
O O4 0.178836 0.251288 0.672248
O O5 0.500000 0.666454 0.098759
O O6 0.638810 0.581149 0.081628
O O7 0.694262 0.696948 0.074409
O O8 0.705044 0.526393 0.904645
O O9 0.832160 0.592107 0.845679
O O10 0.666974 0.641528 0.880410
O O11 0.824872 0.609899 0.944789
O O12 0.360567 0.500000 0.500000
O O13 0.185179 0.455052 0.532388
O O14 0.750000 0.750000 0.500000
O O15 0.875275 0.658192 0.470201
O O16 0.878449 0.756820 0.423060
O O17 0.000000 0.572814 0.992349
O O18 0.826507 0.367995 0.250000
O O19 0.000000 0.376338 0.197561
O O20 0.000000 0.200289 0.650030
#
# Coordination Sequence:
#
# PCOD8257322 Si02
#       8
#    16  16  16  16  16  16  16  16
#     4   9  19  36  56  80 109 131 165 221 273 324
#     4  10  21  35  55  78 102 138 180 217 267 325
#     4  10  19  33  49  72 102 137 178 218 256 303
#     4   9  21  37  49  71 109 142 185 226 262 309
#     4  10  19  35  46  75 109 134 168 220 270 314
#     4  10  19  32  52  73  98 138 181 220 266 317
#     4   9  17  30  51  78 104 129 159 207 274 329
#     4  10  20  33  52  77 106 139 173 210 262 322
#
# _framework density 17.792912000000001
#
# number of rings (size 3 to 8) (size 9 to 14) (size 15 to 20)
#    0.000    2.375    1.250    1.125    0.000    5.500 
#    0.000    0.625    0.000    0.000    0.000    1.750 
#    0.000    0.000    0.000    0.000    0.000    0.000 
#
# Total GULP energy -792870.286883 kJ/mol
# GULP energy per Si atom -12388.598233 kJ/mol
# Density = 1.775241 g / cm^3
# Si number density = 17.792912 Si / 1000 Ang^3
#
#
#
# Elastic Constant Matrix: (Units=GPa)
#
#
# Indices 1 2 3 4 5 6 
#
# 1 102.7458 15.9002 23.7796 0.0000 0.0000 0.0000
# 2 15.9002 67.3043 35.2152 0.0000 0.0000 0.0000
# 3 23.7796 35.2152 104.4043 0.0000 0.0000 0.0000
# 4 0.0000 0.0000 0.0000 33.2015 0.0000 0.0000
# 5 0.0000 0.0000 0.0000 0.0000 16.9251 0.0000
# 6 0.0000 0.0000 0.0000 0.0000 0.0000 8.9005
#
#
#
# Elastic Compliance Matrix: (Units=1/GPa)
#
#
# Indices 1 2 3 4 5 6 
#
# 1 0.010394 -0.001478 -0.001869 0.000000 0.000000 0.000000
# 2 -0.001478 0.018252 -0.005820 0.000000 0.000000 0.000000
# 3 -0.001869 -0.005820 0.011967 0.000000 0.000000 0.000000
# 4 0.000000 0.000000 0.000000 0.030119 0.000000 0.000000
# 5 0.000000 0.000000 0.000000 0.000000 0.059084 0.000000
# 6 0.000000 0.000000 0.000000 0.000000 0.000000 0.112354
#
#
# Mechanical properties :
#
#
# Convention : Reuss Voigt Hill
#
# Bulk Modulus (GPa) = 44.88320 47.13826 46.01073
# Shear Modulus (GPa) = 18.66169 25.10939 21.88554
#
# Velocity S-wave (km/s) = 3.24207 3.76067 3.51096
# Velocity P-wave (km/s) = 6.26856 6.73848 6.50776
#
# Compressibility (1/GPa) = 0.02228005
#
# Stress axis : x y z
#
# Youngs Moduli (GPa) = 96.20953 54.78846 83.56422
#
# Poissons Ratio (x) = 0.08096 0.15618
# Poissons Ratio (y) = 0.14216 0.48633
# Poissons Ratio (z) = 0.17981 0.31886
#
# Static dielectric constant tensor:
#      x y z
#    x 3.042680 0.000000 0.000000 
#    y 0.000000 3.159290 0.000000 
#    z 0.000000 0.000000 3.253530 
# 
# 
# High freq. dielectric constant tensor:
#      x y z
#    x 1.679920 0.000000 0.000000 
#    y 0.000000 1.678940 0.000000 
#    z 0.000000 0.000000 1.688660 
# 
# From -- ./inp_files/68797.got.cif
#   From: 2010.03.12/outbox.cif.g09.slc.cpg/sg63_35_cif.got.tgz:68797.got - 2010.04.10 19:34:48.
