data_PCOD8257445
_publ_section_title
;
Structure prediction by ZEFSAII (Michael W. Deem and Ramdas Pophale) SiO2 
 PCOD8257445
Probable space group: C M C M
;
_chemical_formula_sum "Si O2"
_cell_formula_units_Z 96
_cell_length_a 11.587552
_cell_length_b 25.019768
_cell_length_c 17.781636
_cell_angle_alpha 90.000000
_cell_angle_beta 90.000000
_cell_angle_gamma 90.000000
_cell_volume 5155.213905
_symmetry_space_group_name_H-M "C M C M"
_symmetry_group_IT_number 63
_symmetry_cell_setting 'orthorhombic'
loop_
_space_group_symop_operation_xyz
x,y,z
-x,-y,1/2+z
x,-y,-z
-x,y,1/2-z
-x,-y,-z
x,y,1/2-z
-x,y,z
x,-y,1/2+z
1/2+x,1/2+y,z
1/2-x,1/2-y,1/2+z
1/2+x,1/2-y,-z
1/2-x,1/2+y,1/2-z
1/2-x,1/2-y,-z
1/2+x,1/2+y,1/2-z
1/2-x,1/2+y,z
1/2+x,1/2-y,1/2+z
loop_
_atom_site_type_symbol
_atom_site_label
_atom_site_fract_x
_atom_site_fract_y
_atom_site_fract_z
Si Si1 0.206610 0.807168 0.583332
Si Si2 0.634676 0.406098 0.662596
Si Si3 0.752169 0.887933 0.338247
Si Si4 0.500000 0.865045 0.161830
Si Si5 0.500000 0.251575 0.838470
Si Si6 0.634961 0.486484 0.082094
Si Si7 0.364466 0.710001 0.915679
O O1 0.219875 0.867340 0.615150
O O2 0.113215 0.781101 0.636500
O O3 0.322475 0.771686 0.591061
O O4 0.162892 0.811555 0.498427
O O5 0.660951 0.398830 0.750000
O O6 0.500000 0.393682 0.644190
O O7 0.665956 0.466413 0.639813
O O8 0.772400 0.897988 0.250000
O O9 0.617258 0.895213 0.361026
O O10 0.817219 0.931133 0.387385
O O11 0.798252 0.828469 0.357161
O O12 0.500000 0.855074 0.250000
O O13 0.500000 0.806817 0.123111
O O14 0.500000 0.249416 0.750000
O O15 0.500000 0.477604 0.074525
O O16 0.687279 0.500000 0.000000
O O17 0.500000 0.708565 0.898673
#
# Coordination Sequence:
#
# PCOD8257445 Si02
#       7
#    16  16  16   8   8  16  16
#     4  11  21  35  56  82 116 149 187 231 278 335
#     4  10  19  32  54  81 106 140 188 233 270 318
#     4  11  22  38  60  84 113 149 191 238 285 337
#     4   9  20  36  57  85 111 143 192 243 283 324
#     4  11  18  34  60  85 109 147 197 237 274 320
#     4  10  21  37  57  82 114 147 181 227 286 342
#     4  11  23  36  54  83 118 153 183 227 288 341
#
# _framework density 18.621924
#
# number of rings (size 3 to 8) (size 9 to 14) (size 15 to 20)
#    0.000    1.500    3.333    2.500    0.000    4.000 
#    0.000    0.417    1.833    0.000    0.000    0.000 
#    0.000    0.000    0.000    0.000    0.000    0.000 
#
# Total GULP energy -595150.402507 kJ/mol
# GULP energy per Si atom -12398.966719 kJ/mol
# Density = 1.857954 g / cm^3
# Si number density = 18.621924 Si / 1000 Ang^3
#
#
#
# Elastic Constant Matrix: (Units=GPa)
#
#
# Indices 1 2 3 4 5 6 
#
# 1 80.7662 25.2719 25.5781 0.0000 0.0000 0.0000
# 2 25.2719 76.5071 16.8794 0.0000 0.0000 0.0000
# 3 25.5781 16.8794 70.9856 0.0000 0.0000 0.0000
# 4 0.0000 0.0000 0.0000 -8.0108 0.0000 0.0000
# 5 0.0000 0.0000 0.0000 0.0000 26.6311 0.0000
# 6 0.0000 0.0000 0.0000 0.0000 0.0000 0.9721
#
#
#
# Elastic Compliance Matrix: (Units=1/GPa)
#
#
# Indices 1 2 3 4 5 6 
#
# 1 0.015044 -0.003982 -0.004474 0.000000 0.000000 0.000000
# 2 -0.003982 0.014849 -0.002096 0.000000 0.000000 0.000000
# 3 -0.004474 -0.002096 0.016198 0.000000 0.000000 0.000000
# 4 0.000000 0.000000 0.000000 -0.124832 0.000000 0.000000
# 5 0.000000 0.000000 0.000000 0.000000 0.037550 0.000000
# 6 0.000000 0.000000 0.000000 0.000000 0.000000 1.028745
#
#
# Mechanical properties :
#
#
# Convention : Reuss Voigt Hill
#
# Bulk Modulus (GPa) = 40.02176 40.41307 40.21742
# Shear Modulus (GPa) = 4.91648 14.62045 9.76847
#
# Velocity S-wave (km/s) = 1.62662 2.80504 2.29283
# Velocity P-wave (km/s) = 5.00662 5.67803 5.35286
#
# Compressibility (1/GPa) = 0.02498641
#
# Stress axis : x y z
#
# Youngs Moduli (GPa) = 66.46999 67.34668 61.73683
#
# Poissons Ratio (x) = 0.26820 0.27621
# Poissons Ratio (y) = 0.26471 0.12939
# Poissons Ratio (z) = 0.29738 0.14114
#
# Static dielectric constant tensor:
#      x y z
#    x 4.065400 0.000000 0.000000 
#    y 0.000000 3.541090 0.000000 
#    z 0.000000 0.000000 3.570730 
# 
# 
# High freq. dielectric constant tensor:
#      x y z
#    x 1.697180 0.000000 0.000000 
#    y 0.000000 1.728870 0.000000 
#    z 0.000000 0.000000 1.729220 
# 
# From -- ./inp_files/42540.got.cif
#   From: 2010.03.12/outbox.cif.g09.slc.cpg/sg63_22_cif.got.tgz:42540.got - 2010.04.10 19:34:48.
