data_PCOD8257688
_publ_section_title
;
Structure prediction by ZEFSAII (Michael W. Deem and Ramdas Pophale) SiO2 
 PCOD8257688
Probable space group: C M C M
;
_chemical_formula_sum "Si O2"
_cell_formula_units_Z 104
_cell_length_a 16.694275
_cell_length_b 16.557542
_cell_length_c 19.688541
_cell_angle_alpha 90.000000
_cell_angle_beta 90.000000
_cell_angle_gamma 90.000000
_cell_volume 5442.230889
_symmetry_space_group_name_H-M "C M C M"
_symmetry_group_IT_number 63
_symmetry_cell_setting 'orthorhombic'
loop_
_space_group_symop_operation_xyz
x,y,z
-x,-y,1/2+z
x,-y,-z
-x,y,1/2-z
-x,-y,-z
x,y,1/2-z
-x,y,z
x,-y,1/2+z
1/2+x,1/2+y,z
1/2-x,1/2-y,1/2+z
1/2+x,1/2-y,-z
1/2-x,1/2+y,1/2-z
1/2-x,1/2-y,-z
1/2+x,1/2+y,1/2-z
1/2-x,1/2+y,z
1/2+x,1/2-y,1/2+z
loop_
_atom_site_type_symbol
_atom_site_label
_atom_site_fract_x
_atom_site_fract_y
_atom_site_fract_z
Si Si1 0.804813 0.143469 0.448647
Si Si2 0.594068 0.687160 0.172601
Si Si3 0.595261 0.006121 0.621647
Si Si4 0.318340 0.149415 0.675253
Si Si5 0.798656 0.500000 0.000000
Si Si6 0.313374 0.285659 0.413798
Si Si7 0.905985 0.668758 0.174448
O O1 0.864648 0.130455 0.384733
O O2 0.759176 0.061189 0.461959
O O3 0.739204 0.208840 0.431070
O O4 0.849700 0.172794 0.518248
O O5 0.618189 0.661335 0.250000
O O6 0.500000 0.680075 0.162701
O O7 0.620971 0.778260 0.156630
O O8 0.500000 0.014605 0.614375
O O9 0.629598 0.067339 0.677748
O O10 0.639869 0.038447 0.554160
O O11 0.621694 0.914304 0.638205
O O12 0.282415 0.162973 0.750000
O O13 0.242143 0.148197 0.624513
O O14 0.383171 0.249939 0.366337
O O15 0.867443 0.671877 0.250000
O O16 0.000000 0.667139 0.180981
#
# Coordination Sequence:
#
# PCOD8257688 Si02
#       7
#    16  16  16  16   8  16  16
#     4  10  21  35  58  79 109 145 186 236 277 337
#     4   9  19  36  58  84 110 140 183 237 291 338
#     4  11  22  35  54  82 117 154 189 227 283 343
#     4  10  19  33  55  82 113 148 185 234 285 333
#     4  12  21  40  51  80 116 150 190 230 285 336
#     4  10  19  36  54  81 110 148 194 230 276 332
#     4  10  21  36  55  82 119 158 192 229 275 336
#
# _framework density 19.10981
#
# number of rings (size 3 to 8) (size 9 to 14) (size 15 to 20)
#    0.000    1.846    3.077    1.615    0.000    2.769 
#    0.000    0.385    0.000    0.000    0.000    2.154 
#    0.000    0.000    0.000    0.000    0.000    0.000 
#
# Total GULP energy -644451.089339 kJ/mol
# GULP energy per Si atom -12393.290180 kJ/mol
# Density = 1.906632 g / cm^3
# Si number density = 19.109810 Si / 1000 Ang^3
#
#
#
# Elastic Constant Matrix: (Units=GPa)
#
#
# Indices 1 2 3 4 5 6 
#
# 1 62.9476 34.7378 54.6810 0.0000 0.0000 0.0000
# 2 34.7378 58.2130 28.4839 0.0000 0.0000 0.0000
# 3 54.6810 28.4839 133.0776 0.0000 0.0000 0.0000
# 4 0.0000 0.0000 0.0000 24.5506 0.0000 0.0000
# 5 0.0000 0.0000 0.0000 0.0000 33.3963 0.0000
# 6 0.0000 0.0000 0.0000 0.0000 0.0000 29.7546
#
#
#
# Elastic Compliance Matrix: (Units=1/GPa)
#
#
# Indices 1 2 3 4 5 6 
#
# 1 0.033004 -0.014587 -0.010439 0.000000 0.000000 0.000000
# 2 -0.014587 0.025635 0.000507 0.000000 0.000000 0.000000
# 3 -0.010439 0.000507 0.011695 0.000000 0.000000 0.000000
# 4 0.000000 0.000000 0.000000 0.040732 0.000000 0.000000
# 5 0.000000 0.000000 0.000000 0.000000 0.029943 0.000000
# 6 0.000000 0.000000 0.000000 0.000000 0.000000 0.033608
#
#
# Mechanical properties :
#
#
# Convention : Reuss Voigt Hill
#
# Bulk Modulus (GPa) = 46.95719 54.44928 50.70324
# Shear Modulus (GPa) = 21.66798 26.62933 24.14865
#
# Velocity S-wave (km/s) = 3.37095 3.73700 3.55868
# Velocity P-wave (km/s) = 6.30688 6.86840 6.59362
#
# Compressibility (1/GPa) = 0.02129599
#
# Stress axis : x y z
#
# Youngs Moduli (GPa) = 30.29918 39.00942 85.50434
#
# Poissons Ratio (x) = 0.56903 0.89259
# Poissons Ratio (y) = 0.44197 -0.04333
# Poissons Ratio (z) = 0.31630 -0.01977
#
# Static dielectric constant tensor:
#      x y z
#    x 3.266650 0.000000 0.000000 
#    y 0.000000 3.369800 0.000000 
#    z 0.000000 0.000000 4.107810 
# 
# 
# High freq. dielectric constant tensor:
#      x y z
#    x 1.721320 0.000000 0.000000 
#    y 0.000000 1.718930 0.000000 
#    z 0.000000 0.000000 1.765040 
# 
# From -- ./inp_files/54524.got.cif
#   From: 2010.03.12/outbox.cif.g09.slc.cpg/sg63_28_cif.got.tgz:54524.got - 2010.04.10 19:34:48.
