data_PCOD8257723
_publ_section_title
;
Structure prediction by ZEFSAII (Michael W. Deem and Ramdas Pophale) SiO2 
 PCOD8257723
Probable space group: C M C M
;
_chemical_formula_sum "Si O2"
_cell_formula_units_Z 112
_cell_length_a 14.133256
_cell_length_b 28.064583
_cell_length_c 14.001003
_cell_angle_alpha 90.000000
_cell_angle_beta 90.000000
_cell_angle_gamma 90.000000
_cell_volume 5553.412939
_symmetry_space_group_name_H-M "C M C M"
_symmetry_group_IT_number 63
_symmetry_cell_setting 'orthorhombic'
loop_
_space_group_symop_operation_xyz
x,y,z
-x,-y,1/2+z
x,-y,-z
-x,y,1/2-z
-x,-y,-z
x,y,1/2-z
-x,y,z
x,-y,1/2+z
1/2+x,1/2+y,z
1/2-x,1/2-y,1/2+z
1/2+x,1/2-y,-z
1/2-x,1/2+y,1/2-z
1/2-x,1/2-y,-z
1/2+x,1/2+y,1/2-z
1/2-x,1/2+y,z
1/2+x,1/2-y,1/2+z
loop_
_atom_site_type_symbol
_atom_site_label
_atom_site_fract_x
_atom_site_fract_y
_atom_site_fract_z
Si Si1 0.705619 0.699115 0.359568
Si Si2 0.107478 0.705595 0.640900
Si Si3 0.893228 0.394295 0.047409
Si Si4 0.608290 0.526150 0.359836
Si Si5 0.606143 0.851198 0.643559
Si Si6 0.389130 0.617833 0.019318
Si Si7 0.215887 0.069186 0.862281
O O1 0.672525 0.690371 0.250000
O O2 0.679635 0.752786 0.390282
O O3 0.818543 0.691496 0.369965
O O4 0.649525 0.663931 0.428220
O O5 0.124614 0.690308 0.750000
O O6 0.129314 0.659820 0.577387
O O7 0.000000 0.723648 0.625851
O O8 0.824398 0.430872 0.101197
O O9 0.000000 0.409327 0.074421
O O10 0.876279 0.394004 0.932504
O O11 0.622949 0.539618 0.250000
O O12 0.500000 0.511719 0.381186
O O13 0.639830 0.571815 0.419151
O O14 0.671975 0.481570 0.390201
O O15 0.616205 0.873353 0.750000
O O16 0.500000 0.830063 0.627803
O O17 0.500000 0.623266 0.005511
O O18 0.340906 0.611507 0.915600
O O19 0.209880 0.079216 0.750000
#
# Coordination Sequence:
#
# PCOD8257723 Si02
#       7
#    16  16  16  16  16  16  16
#     4  10  19  33  56  85 113 142 182 233 279 321
#     4   9  18  32  52  81 113 144 181 227 274 319
#     4  10  20  37  60  81 105 146 193 230 271 324
#     4   9  19  36  59  85 113 145 180 221 273 334
#     4   9  18  34  55  79 108 142 182 228 278 330
#     4  11  21  35  56  83 113 147 184 223 274 335
#     4  11  22  36  54  79 109 145 188 230 270 318
#
# _framework density 20.167777999999998
#
# number of rings (size 3 to 8) (size 9 to 14) (size 15 to 20)
#    0.000    2.143    1.429    2.143    0.000    4.857 
#    0.000    0.000    0.000    3.429    0.000    6.000 
#    0.000    0.000    0.000    0.000    0.000    0.000 
#
# Total GULP energy -694386.877033 kJ/mol
# GULP energy per Si atom -12399.765661 kJ/mol
# Density = 2.012188 g / cm^3
# Si number density = 20.167778 Si / 1000 Ang^3
#
#
#
# Elastic Constant Matrix: (Units=GPa)
#
#
# Indices 1 2 3 4 5 6 
#
# 1 102.5640 28.0754 26.1196 0.0000 0.0000 0.0000
# 2 28.0754 52.0382 23.6966 0.0000 0.0000 0.0000
# 3 26.1196 23.6966 83.6731 0.0000 0.0000 0.0000
# 4 0.0000 0.0000 0.0000 19.0033 0.0000 0.0000
# 5 0.0000 0.0000 0.0000 0.0000 30.2857 0.0000
# 6 0.0000 0.0000 0.0000 0.0000 0.0000 19.4773
#
#
#
# Elastic Compliance Matrix: (Units=1/GPa)
#
#
# Indices 1 2 3 4 5 6 
#
# 1 0.011768 -0.005369 -0.002153 0.000000 0.000000 0.000000
# 2 -0.005369 0.024511 -0.005266 0.000000 0.000000 0.000000
# 3 -0.002153 -0.005266 0.014115 0.000000 0.000000 0.000000
# 4 0.000000 0.000000 0.000000 0.052622 0.000000 0.000000
# 5 0.000000 0.000000 0.000000 0.000000 0.033019 0.000000
# 6 0.000000 0.000000 0.000000 0.000000 0.000000 0.051342
#
#
# Mechanical properties :
#
#
# Convention : Reuss Voigt Hill
#
# Bulk Modulus (GPa) = 40.29210 43.78427 42.03819
# Shear Modulus (GPa) = 22.60151 24.44551 23.52351
#
# Velocity S-wave (km/s) = 3.35128 3.48531 3.41895
# Velocity P-wave (km/s) = 5.91579 6.16065 6.03946
#
# Compressibility (1/GPa) = 0.02481876
#
# Stress axis : x y z
#
# Youngs Moduli (GPa) = 84.97697 40.79814 70.84824
#
# Poissons Ratio (x) = 0.21903 0.15254
# Poissons Ratio (y) = 0.45620 0.37307
# Poissons Ratio (z) = 0.18297 0.21483
#
# Static dielectric constant tensor:
#      x y z
#    x 3.849160 0.000000 0.000000 
#    y 0.000000 3.286450 0.000000 
#    z 0.000000 0.000000 3.933770 
# 
# 
# High freq. dielectric constant tensor:
#      x y z
#    x 1.796740 0.000000 0.000000 
#    y 0.000000 1.747150 0.000000 
#    z 0.000000 0.000000 1.805020 
# 
# From -- ./inp_files/32301.got.cif
#   From: 2010.03.12/outbox.cif.g09.slc.cpg/sg63_17_cif.got.tgz:32301.got - 2010.04.10 19:34:48.
