data_PCOD8257179
_publ_section_title
;
Structure prediction by ZEFSAII (Michael W. Deem and Ramdas Pophale) SiO2 
 PCOD8257179
Probable space group: C M C M
;
_chemical_formula_sum "Si O2"
_cell_formula_units_Z 96
_cell_length_a 8.672983
_cell_length_b 27.678224
_cell_length_c 23.687680
_cell_angle_alpha 90.000000
_cell_angle_beta 90.000000
_cell_angle_gamma 90.000000
_cell_volume 5686.293109
_symmetry_space_group_name_H-M "C M C M"
_symmetry_group_IT_number 63
_symmetry_cell_setting 'orthorhombic'
loop_
_space_group_symop_operation_xyz
x,y,z
-x,-y,1/2+z
x,-y,-z
-x,y,1/2-z
-x,-y,-z
x,y,1/2-z
-x,y,z
x,-y,1/2+z
1/2+x,1/2+y,z
1/2-x,1/2-y,1/2+z
1/2+x,1/2-y,-z
1/2-x,1/2+y,1/2-z
1/2-x,1/2-y,-z
1/2+x,1/2+y,1/2-z
1/2-x,1/2+y,z
1/2+x,1/2-y,1/2+z
loop_
_atom_site_type_symbol
_atom_site_label
_atom_site_fract_x
_atom_site_fract_y
_atom_site_fract_z
Si Si1 0.181181 0.020152 0.418245
Si Si2 0.821363 0.828508 0.813336
Si Si3 0.819415 0.229495 0.418908
Si Si4 0.182565 0.568737 0.525241
Si Si5 0.679735 0.069792 0.185358
Si Si6 0.181829 0.676754 0.979180
O O1 0.231606 0.965009 0.429502
O O2 0.000000 0.025689 0.427829
O O3 0.269651 0.055171 0.461579
O O4 0.225231 0.033768 0.354456
O O5 0.785616 0.810562 0.750000
O O6 0.776145 0.784408 0.854735
O O7 0.720975 0.875035 0.829112
O O8 0.000000 0.843047 0.820445
O O9 0.758973 0.283648 0.433262
O O10 0.745155 0.189761 0.459408
O O11 0.000000 0.227254 0.429382
O O12 0.237605 0.623382 0.538340
O O13 0.000000 0.562136 0.531571
O O14 0.725324 0.058035 0.250000
O O15 0.500000 0.061837 0.174544
O O16 0.000000 0.676952 0.983674
#
# Coordination Sequence:
#
# PCOD8257179 Si02
#       6
#    16  16  16  16  16  16
#     4  11  21  32  48  70  95 121 153 192 234 280
#     4   9  17  29  46  68  93 120 149 183 224 268
#     4   9  17  29  45  66  92 120 150 185 224 267
#     4  10  19  32  49  68  94 125 157 193 232 276
#     4  10  20  33  49  69  94 123 154 188 228 275
#     4   9  18  30  45  66  91 120 152 186 224 267
#
# _framework density 16.882702999999999
#
# number of rings (size 3 to 8) (size 9 to 14) (size 15 to 20)
#    0.000    2.333    0.000    4.500    0.000    5.667 
#    0.000    0.000    0.000    1.000    0.000    4.667 
#    0.000    0.000    0.000    0.000    0.000    0.000 
#
# Total GULP energy -595151.706137 kJ/mol
# GULP energy per Si atom -12398.993878 kJ/mol
# Density = 1.684428 g / cm^3
# Si number density = 16.882703 Si / 1000 Ang^3
#
#
#
# Elastic Constant Matrix: (Units=GPa)
#
#
# Indices 1 2 3 4 5 6 
#
# 1 33.4994 24.9252 17.0788 0.0000 0.0000 0.0000
# 2 24.9252 123.0011 66.7866 0.0000 0.0000 0.0000
# 3 17.0788 66.7866 103.7541 0.0000 0.0000 0.0000
# 4 0.0000 0.0000 0.0000 25.9975 0.0000 0.0000
# 5 0.0000 0.0000 0.0000 0.0000 23.8214 0.0000
# 6 0.0000 0.0000 0.0000 0.0000 0.0000 21.6584
#
#
#
# Elastic Compliance Matrix: (Units=1/GPa)
#
#
# Indices 1 2 3 4 5 6 
#
# 1 0.035383 -0.006161 -0.001859 0.000000 0.000000 0.000000
# 2 -0.006161 0.013571 -0.007722 0.000000 0.000000 0.000000
# 3 -0.001859 -0.007722 0.014915 0.000000 0.000000 0.000000
# 4 0.000000 0.000000 0.000000 0.038465 0.000000 0.000000
# 5 0.000000 0.000000 0.000000 0.000000 0.041979 0.000000
# 6 0.000000 0.000000 0.000000 0.000000 0.000000 0.046171
#
#
# Mechanical properties :
#
#
# Convention : Reuss Voigt Hill
#
# Bulk Modulus (GPa) = 30.87719 53.09288 41.98503
# Shear Modulus (GPa) = 21.48119 24.39306 22.93713
#
# Velocity S-wave (km/s) = 3.57091 3.80525 3.68994
# Velocity P-wave (km/s) = 5.94397 7.12902 6.56330
#
# Compressibility (1/GPa) = 0.03238637
#
# Stress axis : x y z
#
# Youngs Moduli (GPa) = 28.26227 73.68593 67.04884
#
# Poissons Ratio (x) = 0.45397 0.12461
# Poissons Ratio (y) = 0.17412 0.51772
# Poissons Ratio (z) = 0.05253 0.56897
#
# Static dielectric constant tensor:
#      x y z
#    x 3.173110 0.000000 0.000000 
#    y 0.000000 3.342570 0.000000 
#    z 0.000000 0.000000 3.072650 
# 
# 
# High freq. dielectric constant tensor:
#      x y z
#    x 1.655860 0.000000 0.000000 
#    y 0.000000 1.642710 0.000000 
#    z 0.000000 0.000000 1.639300 
# 
# From -- ./inp_files/60192.got.cif
#   From: 2010.03.12/outbox.cif.g09.slc.cpg/sg63_31_cif.got.tgz:60192.got - 2010.04.10 19:34:48.
