data_PCOD8257877
_publ_section_title
;
Structure prediction by ZEFSAII (Michael W. Deem and Ramdas Pophale) SiO2 
 PCOD8257877
Probable space group: C M C M
;
_chemical_formula_sum "Si O2"
_cell_formula_units_Z 112
_cell_length_a 16.089812
_cell_length_b 14.510430
_cell_length_c 24.049545
_cell_angle_alpha 90.000000
_cell_angle_beta 90.000000
_cell_angle_gamma 90.000000
_cell_volume 5614.849453
_symmetry_space_group_name_H-M "C M C M"
_symmetry_group_IT_number 63
_symmetry_cell_setting 'orthorhombic'
loop_
_space_group_symop_operation_xyz
x,y,z
-x,-y,1/2+z
x,-y,-z
-x,y,1/2-z
-x,-y,-z
x,y,1/2-z
-x,y,z
x,-y,1/2+z
1/2+x,1/2+y,z
1/2-x,1/2-y,1/2+z
1/2+x,1/2-y,-z
1/2-x,1/2+y,1/2-z
1/2-x,1/2-y,-z
1/2+x,1/2+y,1/2-z
1/2-x,1/2+y,z
1/2+x,1/2-y,1/2+z
loop_
_atom_site_type_symbol
_atom_site_label
_atom_site_fract_x
_atom_site_fract_y
_atom_site_fract_z
Si Si1 0.901594 0.339154 0.086727
Si Si2 0.176006 0.859050 0.896552
Si Si3 0.190347 0.669440 0.481440
Si Si4 0.096640 0.972907 0.439851
Si Si5 0.189240 0.658968 0.314264
Si Si6 0.402965 0.969675 0.312859
Si Si7 0.596281 0.720368 0.897606
O O1 0.875626 0.232267 0.088645
O O2 0.875447 0.391014 0.143417
O O3 0.000000 0.347310 0.076318
O O4 0.849719 0.383912 0.034677
O O5 0.251426 0.887777 0.939037
O O6 0.216043 0.848339 0.835719
O O7 0.112693 0.944477 0.896575
O O8 0.250000 0.750000 0.500000
O O9 0.110935 0.709237 0.448145
O O10 0.135423 0.878444 0.415879
O O11 0.000000 0.954221 0.447269
O O12 0.135188 0.000000 0.500000
O O13 0.191223 0.682061 0.250000
O O14 0.142175 0.564281 0.327796
O O15 0.144629 0.745495 0.343223
O O16 0.380607 0.936741 0.250000
O O17 0.500000 0.990119 0.318276
O O18 0.500000 0.713688 0.882671
#
# Coordination Sequence:
#
# PCOD8257877 Si02
#       7
#    16  16  16  16  16  16  16
#     4  10  19  34  57  81 109 144 179 222 273 324
#     4  10  21  34  52  81 114 144 179 223 273 331
#     4   9  18  32  50  77 111 143 174 215 267 320
#     4  10  20  35  57  83 113 151 188 222 270 335
#     4  10  22  39  58  79 107 144 184 233 286 330
#     4   9  19  36  57  79 102 137 185 228 272 328
#     4  10  20  35  57  83 110 145 190 232 270 323
#
# _framework density 19.947106999999999
#
# number of rings (size 3 to 8) (size 9 to 14) (size 15 to 20)
#    0.000    2.286    0.000    3.000    0.000    7.143 
#    0.000    4.286    0.000    9.857    0.000    0.000 
#    0.000    0.000    0.000    0.000    0.000    0.000 
#
# Total GULP energy -694087.038441 kJ/mol
# GULP energy per Si atom -12394.411401 kJ/mol
# Density = 1.990171 g / cm^3
# Si number density = 19.947107 Si / 1000 Ang^3
#
#
#
# Elastic Constant Matrix: (Units=GPa)
#
#
# Indices 1 2 3 4 5 6 
#
# 1 43.8339 14.3454 34.4253 0.0000 0.0000 0.0000
# 2 14.3454 74.6175 44.6467 0.0000 0.0000 0.0000
# 3 34.4253 44.6467 132.6383 0.0000 0.0000 0.0000
# 4 0.0000 0.0000 0.0000 36.4821 0.0000 0.0000
# 5 0.0000 0.0000 0.0000 0.0000 27.5877 0.0000
# 6 0.0000 0.0000 0.0000 0.0000 0.0000 14.2639
#
#
#
# Elastic Compliance Matrix: (Units=1/GPa)
#
#
# Indices 1 2 3 4 5 6 
#
# 1 0.028759 -0.001331 -0.007016 0.000000 0.000000 0.000000
# 2 -0.001331 0.016843 -0.005324 0.000000 0.000000 0.000000
# 3 -0.007016 -0.005324 0.011152 0.000000 0.000000 0.000000
# 4 0.000000 0.000000 0.000000 0.027411 0.000000 0.000000
# 5 0.000000 0.000000 0.000000 0.000000 0.036248 0.000000
# 6 0.000000 0.000000 0.000000 0.000000 0.000000 0.070107
#
#
# Mechanical properties :
#
#
# Convention : Reuss Voigt Hill
#
# Bulk Modulus (GPa) = 33.99936 48.65828 41.32882
# Shear Modulus (GPa) = 21.96190 26.17824 24.07007
#
# Velocity S-wave (km/s) = 3.32174 3.62661 3.47752
# Velocity P-wave (km/s) = 5.63859 6.47943 6.07358
#
# Compressibility (1/GPa) = 0.02941232
#
# Stress axis : x y z
#
# Youngs Moduli (GPa) = 34.77149 59.37135 89.66675
#
# Poissons Ratio (x) = 0.07902 0.62912
# Poissons Ratio (y) = 0.04628 0.47739
# Poissons Ratio (z) = 0.24396 0.31610
#
# Static dielectric constant tensor:
#      x y z
#    x 3.604930 0.000000 0.000000 
#    y 0.000000 3.490990 0.000000 
#    z 0.000000 0.000000 3.837890 
# 
# 
# High freq. dielectric constant tensor:
#      x y z
#    x 1.778440 0.000000 0.000000 
#    y 0.000000 1.764360 0.000000 
#    z 0.000000 0.000000 1.773860 
# 
# From -- ./inp_files/62980.got.cif
#   From: 2010.03.12/outbox.cif.g09.slc.cpg/sg63_32_cif.got.tgz:62980.got - 2010.04.10 19:34:48.
