data_PCOD8257166
_publ_section_title
;
Structure prediction by ZEFSAII (Michael W. Deem and Ramdas Pophale) SiO2 
 PCOD8257166
Probable space group: C M C M
;
_chemical_formula_sum "Si O2"
_cell_formula_units_Z 96
_cell_length_a 17.683637
_cell_length_b 29.154251
_cell_length_c 9.585139
_cell_angle_alpha 90.000000
_cell_angle_beta 90.000000
_cell_angle_gamma 90.000000
_cell_volume 4941.649004
_symmetry_space_group_name_H-M "C M C M"
_symmetry_group_IT_number 63
_symmetry_cell_setting 'orthorhombic'
loop_
_space_group_symop_operation_xyz
x,y,z
-x,-y,1/2+z
x,-y,-z
-x,y,1/2-z
-x,-y,-z
x,y,1/2-z
-x,y,z
x,-y,1/2+z
1/2+x,1/2+y,z
1/2-x,1/2-y,1/2+z
1/2+x,1/2-y,-z
1/2-x,1/2+y,1/2-z
1/2-x,1/2-y,-z
1/2+x,1/2+y,1/2-z
1/2-x,1/2+y,z
1/2+x,1/2-y,1/2+z
loop_
_atom_site_type_symbol
_atom_site_label
_atom_site_fract_x
_atom_site_fract_y
_atom_site_fract_z
Si Si1 0.915667 0.777024 0.587666
Si Si2 0.682884 0.460188 0.903296
Si Si3 0.413998 0.110142 0.595751
Si Si4 0.681706 0.194658 0.592851
Si Si5 0.691768 0.643563 0.412854
Si Si6 0.356704 0.961998 0.902336
O O1 0.921848 0.765035 0.750000
O O2 0.851519 0.742058 0.526425
O O3 0.886545 0.828944 0.565582
O O4 0.000000 0.772447 0.519876
O O5 0.643558 0.461157 0.750000
O O6 0.677547 0.408540 0.967874
O O7 0.769596 0.474250 0.883515
O O8 0.644737 0.500000 0.000000
O O9 0.400496 0.088274 0.750000
O O10 0.500000 0.105082 0.549047
O O11 0.392424 0.163096 0.599755
O O12 0.362304 0.086465 0.479499
O O13 0.714938 0.201802 0.750000
O O14 0.744230 0.170891 0.496904
O O15 0.716273 0.641581 0.250000
O O16 0.396030 0.960402 0.750000
O O17 0.397526 0.000000 0.000000
#
# Coordination Sequence:
#
# PCOD8257166 Si02
#       6
#    16  16  16  16  16  16
#     4   9  18  33  54  79 107 139 173 210 252 302
#     4   9  18  31  49  74 101 130 165 209 256 303
#     4  10  20  32  46  66  95 131 170 210 251 298
#     4  10  19  32  52  77 103 135 174 211 249 296
#     4  10  19  33  54  80 107 134 171 215 256 301
#     4  10  19  32  48  66  92 126 166 212 258 307
#
# _framework density 19.426712999999999
#
# number of rings (size 3 to 8) (size 9 to 14) (size 15 to 20)
#    0.000    2.333    1.667    1.500    0.000    4.000 
#    0.000    0.000    0.000    3.500    0.000    0.000 
#    0.000    0.000    0.000    0.000    0.000    0.000 
#
# Total GULP energy -594758.997533 kJ/mol
# GULP energy per Si atom -12390.812449 kJ/mol
# Density = 1.938250 g / cm^3
# Si number density = 19.426713 Si / 1000 Ang^3
#
#
#
# Elastic Constant Matrix: (Units=GPa)
#
#
# Indices 1 2 3 4 5 6 
#
# 1 44.6628 30.6714 16.2053 0.0000 0.0000 0.0000
# 2 30.6714 143.0635 46.0440 0.0000 0.0000 0.0000
# 3 16.2053 46.0440 79.0446 0.0000 0.0000 0.0000
# 4 0.0000 0.0000 0.0000 26.2915 0.0000 0.0000
# 5 0.0000 0.0000 0.0000 0.0000 9.5783 0.0000
# 6 0.0000 0.0000 0.0000 0.0000 0.0000 15.1989
#
#
#
# Elastic Compliance Matrix: (Units=1/GPa)
#
#
# Indices 1 2 3 4 5 6 
#
# 1 0.026693 -0.004876 -0.002632 0.000000 0.000000 0.000000
# 2 -0.004876 0.009493 -0.004530 0.000000 0.000000 0.000000
# 3 -0.002632 -0.004530 0.015830 0.000000 0.000000 0.000000
# 4 0.000000 0.000000 0.000000 0.038035 0.000000 0.000000
# 5 0.000000 0.000000 0.000000 0.000000 0.104403 0.000000
# 6 0.000000 0.000000 0.000000 0.000000 0.000000 0.065794
#
#
# Mechanical properties :
#
#
# Convention : Reuss Voigt Hill
#
# Bulk Modulus (GPa) = 35.79148 50.29026 43.04087
# Shear Modulus (GPa) = 17.02774 21.80374 19.41574
#
# Velocity S-wave (km/s) = 2.96381 3.35380 3.16481
# Velocity P-wave (km/s) = 5.49327 6.39849 5.96308
#
# Compressibility (1/GPa) = 0.02793961
#
# Stress axis : x y z
#
# Youngs Moduli (GPa) = 37.46249 105.33833 63.17233
#
# Poissons Ratio (x) = 0.51358 0.16630
# Poissons Ratio (y) = 0.18265 0.28619
# Poissons Ratio (z) = 0.09862 0.47721
#
# Static dielectric constant tensor:
#      x y z
#    x 3.163410 0.000000 0.000000 
#    y 0.000000 3.700480 0.000000 
#    z 0.000000 0.000000 3.652390 
# 
# 
# High freq. dielectric constant tensor:
#      x y z
#    x 1.714480 0.000000 0.000000 
#    y 0.000000 1.769480 0.000000 
#    z 0.000000 0.000000 1.736560 
# 
# From -- ./inp_files/8615.got.cif
#   From: 2010.03.12/outbox.cif.g09.slc.cpg/sg63_5_cif.got.tgz:8615.got - 2010.04.10 19:34:48.
