data_PCOD8257456
_publ_section_title
;
Structure prediction by ZEFSAII (Michael W. Deem and Ramdas Pophale) SiO2 
 PCOD8257456
Probable space group: C M C M
;
_chemical_formula_sum "Si O2"
_cell_formula_units_Z 96
_cell_length_a 9.155464
_cell_length_b 24.305915
_cell_length_c 21.627287
_cell_angle_alpha 90.000000
_cell_angle_beta 90.000000
_cell_angle_gamma 90.000000
_cell_volume 4812.761912
_symmetry_space_group_name_H-M "C M C M"
_symmetry_group_IT_number 63
_symmetry_cell_setting 'orthorhombic'
loop_
_space_group_symop_operation_xyz
x,y,z
-x,-y,1/2+z
x,-y,-z
-x,y,1/2-z
-x,-y,-z
x,y,1/2-z
-x,y,z
x,-y,1/2+z
1/2+x,1/2+y,z
1/2-x,1/2-y,1/2+z
1/2+x,1/2-y,-z
1/2-x,1/2+y,1/2-z
1/2-x,1/2-y,-z
1/2+x,1/2+y,1/2-z
1/2-x,1/2+y,z
1/2+x,1/2-y,1/2+z
loop_
_atom_site_type_symbol
_atom_site_label
_atom_site_fract_x
_atom_site_fract_y
_atom_site_fract_z
Si Si1 0.330555 0.379086 0.590724
Si Si2 0.670004 0.679642 0.843470
Si Si3 0.328617 0.557208 0.680945
Si Si4 0.333970 0.696701 0.979616
Si Si5 0.837221 0.787004 0.682173
Si Si6 0.173842 0.490710 0.927801
O O1 0.500000 0.393618 0.605741
O O2 0.310959 0.355920 0.522356
O O3 0.267203 0.332570 0.637116
O O4 0.230549 0.432235 0.596126
O O5 0.500000 0.691864 0.836326
O O6 0.710709 0.621709 0.812845
O O7 0.750626 0.730348 0.811936
O O8 0.722441 0.676412 0.913960
O O9 0.291706 0.532107 0.750000
O O10 0.500000 0.549093 0.666085
O O11 0.239616 0.533060 0.622622
O O12 0.500000 0.715697 0.977796
O O13 0.250000 0.750000 0.000000
O O14 0.841994 0.813823 0.750000
O O15 0.000000 0.773752 0.657401
O O16 0.000000 0.493603 0.923534
O O17 0.223813 0.500000 0.000000
#
# Coordination Sequence:
#
# PCOD8257456 Si02
#       6
#    16  16  16  16  16  16
#     4  10  21  38  59  84 115 153 196 240 292 354
#     4  10  20  35  58  87 118 153 194 240 291 351
#     4  10  22  41  65  91 120 160 209 257 307 367
#     4  10  19  32  54  84 116 150 189 233 285 345
#     4  10  21  36  55  82 116 153 191 232 284 346
#     4  11  25  43  63  90 122 157 201 257 314 366
#
# _framework density 19.946967000000001
#
# number of rings (size 3 to 8) (size 9 to 14) (size 15 to 20)
#    0.000    1.833    1.667    2.000    0.000    6.667 
#    0.000    1.667    0.000    0.000    0.000    0.000 
#    0.000    0.000    0.000    0.000    0.000    0.000 
#
# Total GULP energy -594914.900049 kJ/mol
# GULP energy per Si atom -12394.060418 kJ/mol
# Density = 1.990157 g / cm^3
# Si number density = 19.946967 Si / 1000 Ang^3
#
#
#
# Elastic Constant Matrix: (Units=GPa)
#
#
# Indices 1 2 3 4 5 6 
#
# 1 61.7209 42.8102 38.9723 0.0000 0.0000 0.0000
# 2 42.8102 107.5794 41.1554 0.0000 0.0000 0.0000
# 3 38.9723 41.1554 140.5168 0.0000 0.0000 0.0000
# 4 0.0000 0.0000 0.0000 23.7137 0.0000 0.0000
# 5 0.0000 0.0000 0.0000 0.0000 24.9705 0.0000
# 6 0.0000 0.0000 0.0000 0.0000 0.0000 35.3033
#
#
#
# Elastic Compliance Matrix: (Units=1/GPa)
#
#
# Indices 1 2 3 4 5 6 
#
# 1 0.024635 -0.008097 -0.004461 0.000000 0.000000 0.000000
# 2 -0.008097 0.013129 -0.001600 0.000000 0.000000 0.000000
# 3 -0.004461 -0.001600 0.008822 0.000000 0.000000 0.000000
# 4 0.000000 0.000000 0.000000 0.042170 0.000000 0.000000
# 5 0.000000 0.000000 0.000000 0.000000 0.040047 0.000000
# 6 0.000000 0.000000 0.000000 0.000000 0.000000 0.028326
#
#
# Mechanical properties :
#
#
# Convention : Reuss Voigt Hill
#
# Bulk Modulus (GPa) = 54.72961 61.74365 58.23663
# Shear Modulus (GPa) = 26.10491 29.25611 27.68051
#
# Velocity S-wave (km/s) = 3.62154 3.83390 3.72923
# Velocity P-wave (km/s) = 6.70705 7.11474 6.91390
#
# Compressibility (1/GPa) = 0.01827164
#
# Stress axis : x y z
#
# Youngs Moduli (GPa) = 40.59327 76.16472 113.34737
#
# Poissons Ratio (x) = 0.61667 0.50565
# Poissons Ratio (y) = 0.32866 0.18134
# Poissons Ratio (z) = 0.18109 0.12185
#
# Static dielectric constant tensor:
#      x y z
#    x 3.498190 0.000000 0.000000 
#    y 0.000000 3.510490 0.000000 
#    z 0.000000 0.000000 3.994340 
# 
# 
# High freq. dielectric constant tensor:
#      x y z
#    x 1.760470 0.000000 0.000000 
#    y 0.000000 1.772460 0.000000 
#    z 0.000000 0.000000 1.801900 
# 
# From -- ./inp_files/59911.got.cif
#   From: 2010.03.12/outbox.cif.g09.slc.cpg/sg63_30_cif.got.tgz:59911.got - 2010.04.10 19:34:48.
