data_PCOD8257300
_publ_section_title
;
Structure prediction by ZEFSAII (Michael W. Deem and Ramdas Pophale) SiO2 
 PCOD8257300
Probable space group: C M C M
;
_chemical_formula_sum "Si O2"
_cell_formula_units_Z 112
_cell_length_a 13.982892
_cell_length_b 33.574482
_cell_length_c 13.763767
_cell_angle_alpha 90.000000
_cell_angle_beta 90.000000
_cell_angle_gamma 90.000000
_cell_volume 6461.653063
_symmetry_space_group_name_H-M "C M C M"
_symmetry_group_IT_number 63
_symmetry_cell_setting 'orthorhombic'
loop_
_space_group_symop_operation_xyz
x,y,z
-x,-y,1/2+z
x,-y,-z
-x,y,1/2-z
-x,-y,-z
x,y,1/2-z
-x,y,z
x,-y,1/2+z
1/2+x,1/2+y,z
1/2-x,1/2-y,1/2+z
1/2+x,1/2-y,-z
1/2-x,1/2+y,1/2-z
1/2-x,1/2-y,-z
1/2+x,1/2+y,1/2-z
1/2-x,1/2+y,z
1/2+x,1/2-y,1/2+z
loop_
_atom_site_type_symbol
_atom_site_label
_atom_site_fract_x
_atom_site_fract_y
_atom_site_fract_z
Si Si1 0.298204 0.061050 0.361973
Si Si2 0.110429 0.824321 0.993883
Si Si3 0.390380 0.020253 0.863115
Si Si4 0.112533 0.399603 0.467255
Si Si5 0.889536 0.751076 0.639478
Si Si6 0.722950 0.828917 0.136036
Si Si7 0.393671 0.600493 0.360420
O O1 0.328406 0.066608 0.250000
O O2 0.354293 0.095505 0.421020
O O3 0.183918 0.065638 0.377113
O O4 0.328210 0.017285 0.399454
O O5 0.143220 0.786381 0.931150
O O6 0.130665 0.863081 0.930015
O O7 0.000000 0.821112 0.024068
O O8 0.170559 0.826849 0.092732
O O9 0.376904 0.027579 0.750000
O O10 0.500000 0.010832 0.890279
O O11 0.353737 0.060093 0.914211
O O12 0.162914 0.362812 0.416717
O O13 0.000000 0.392670 0.459992
O O14 0.871511 0.765022 0.750000
O O15 0.828237 0.712547 0.614092
O O16 0.000000 0.740076 0.623374
O O17 0.729481 0.838326 0.250000
O O18 0.387998 0.616450 0.250000
O O19 0.500000 0.583321 0.382185
#
# Coordination Sequence:
#
# PCOD8257300 Si02
#       7
#    16  16  16  16  16  16  16
#     4  10  19  32  51  76 104 131 167 217 266 308
#     4  10  19  34  55  76 101 133 173 214 256 304
#     4   9  18  32  51  75 101 134 175 213 251 304
#     4  11  21  34  52  74 104 141 176 210 254 310
#     4   9  18  33  55  81 105 130 165 211 257 303
#     4  11  22  35  51  76 107 139 175 214 255 300
#     4   9  17  31  53  78 101 128 167 213 258 304
#
# _framework density 17.333024999999999
#
# number of rings (size 3 to 8) (size 9 to 14) (size 15 to 20)
#    0.000    2.143    1.429    2.571    0.000    5.429 
#    0.000    0.000    0.000    2.571    0.000    4.000 
#    0.000    0.000    0.000    0.000    0.000    0.000 
#
# Total GULP energy -694420.507745 kJ/mol
# GULP energy per Si atom -12400.366210 kJ/mol
# Density = 1.729357 g / cm^3
# Si number density = 17.333025 Si / 1000 Ang^3
#
#
#
# Elastic Constant Matrix: (Units=GPa)
#
#
# Indices 1 2 3 4 5 6 
#
# 1 89.0432 52.2915 38.4508 0.0000 0.0000 0.0000
# 2 52.2915 83.1831 32.0743 0.0000 0.0000 0.0000
# 3 38.4508 32.0743 63.0615 0.0000 0.0000 0.0000
# 4 0.0000 0.0000 0.0000 26.5140 0.0000 0.0000
# 5 0.0000 0.0000 0.0000 0.0000 27.4127 0.0000
# 6 0.0000 0.0000 0.0000 0.0000 0.0000 23.3154
#
#
#
# Elastic Compliance Matrix: (Units=1/GPa)
#
#
# Indices 1 2 3 4 5 6 
#
# 1 0.020172 -0.009875 -0.007277 0.000000 0.000000 0.000000
# 2 -0.009875 0.019789 -0.004044 0.000000 0.000000 0.000000
# 3 -0.007277 -0.004044 0.022351 0.000000 0.000000 0.000000
# 4 0.000000 0.000000 0.000000 0.037716 0.000000 0.000000
# 5 0.000000 0.000000 0.000000 0.000000 0.036479 0.000000
# 6 0.000000 0.000000 0.000000 0.000000 0.000000 0.042890
#
#
# Mechanical properties :
#
#
# Convention : Reuss Voigt Hill
#
# Bulk Modulus (GPa) = 50.19944 53.43568 51.81756
# Shear Modulus (GPa) = 21.88865 22.94648 22.41756
#
# Velocity S-wave (km/s) = 3.55749 3.64243 3.60021
# Velocity P-wave (km/s) = 6.77487 6.97033 6.87330
#
# Compressibility (1/GPa) = 0.01992054
#
# Stress axis : x y z
#
# Youngs Moduli (GPa) = 49.57376 50.53437 44.74000
#
# Poissons Ratio (x) = 0.49902 0.32557
# Poissons Ratio (y) = 0.48953 0.18092
# Poissons Ratio (z) = 0.36075 0.20435
#
# Static dielectric constant tensor:
#      x y z
#    x 3.253970 0.000000 0.000000 
#    y 0.000000 3.219050 0.000000 
#    z 0.000000 0.000000 3.293360 
# 
# 
# High freq. dielectric constant tensor:
#      x y z
#    x 1.665890 0.000000 0.000000 
#    y 0.000000 1.664310 0.000000 
#    z 0.000000 0.000000 1.675030 
# 
# From -- ./inp_files/32518.got.cif
#   From: 2010.03.12/outbox.cif.g09.slc.cpg/sg63_17_cif.got.tgz:32518.got - 2010.04.10 19:34:48.
