data_PCOD8257708
_publ_section_title
;
Structure prediction by ZEFSAII (Michael W. Deem and Ramdas Pophale) SiO2 
 PCOD8257708
Probable space group: C M C M
;
_chemical_formula_sum "Si O2"
_cell_formula_units_Z 96
_cell_length_a 9.012874
_cell_length_b 19.696134
_cell_length_c 28.663246
_cell_angle_alpha 90.000000
_cell_angle_beta 90.000000
_cell_angle_gamma 90.000000
_cell_volume 5088.264290
_symmetry_space_group_name_H-M "C M C M"
_symmetry_group_IT_number 63
_symmetry_cell_setting 'orthorhombic'
loop_
_space_group_symop_operation_xyz
x,y,z
-x,-y,1/2+z
x,-y,-z
-x,y,1/2-z
-x,-y,-z
x,y,1/2-z
-x,y,z
x,-y,1/2+z
1/2+x,1/2+y,z
1/2-x,1/2-y,1/2+z
1/2+x,1/2-y,-z
1/2-x,1/2+y,1/2-z
1/2-x,1/2-y,-z
1/2+x,1/2+y,1/2-z
1/2-x,1/2+y,z
1/2+x,1/2-y,1/2+z
loop_
_atom_site_type_symbol
_atom_site_label
_atom_site_fract_x
_atom_site_fract_y
_atom_site_fract_z
Si Si1 0.831534 0.387694 0.365246
Si Si2 0.327069 0.508493 0.697168
Si Si3 0.324575 0.651143 0.547282
Si Si4 0.173435 0.431794 0.972942
Si Si5 0.173156 0.096416 0.380321
Si Si6 0.667381 0.747023 0.396454
O O1 0.758246 0.425934 0.322083
O O2 0.742116 0.401308 0.413698
O O3 0.826875 0.305674 0.356141
O O4 0.000000 0.413380 0.372051
O O5 0.275455 0.495094 0.750000
O O6 0.500000 0.525359 0.694352
O O7 0.287222 0.441112 0.667888
O O8 0.500000 0.646440 0.546811
O O9 0.260345 0.630744 0.496955
O O10 0.228601 0.772082 0.439541
O O11 0.231070 0.439214 0.920369
O O12 0.000000 0.415876 0.973528
O O13 0.213552 0.500000 0.000000
O O14 0.220987 0.175421 0.375438
O O15 0.000000 0.088892 0.392264
O O16 0.500000 0.740362 0.416039
#
# Coordination Sequence:
#
# PCOD8257708 Si02
#       6
#    16  16  16  16  16  16
#     4   9  18  35  57  81 111 144 181 227 276 329
#     4  10  21  37  59  86 113 143 183 232 283 336
#     4  10  19  33  56  82 110 147 187 227 273 329
#     4  11  23  36  52  80 117 154 190 233 278 329
#     4  10  21  38  58  81 112 151 191 234 282 333
#     4   8  18  36  56  80 113 148 184 230 278 329
#
# _framework density 18.866945000000001
#
# number of rings (size 3 to 8) (size 9 to 14) (size 15 to 20)
#    1.000    1.333    0.000    3.000    0.000    6.333 
#    0.000    0.833    0.000    3.000    0.000    0.000 
#    0.000    0.000    0.000    0.000    0.000    0.000 
#
# Total GULP energy -594929.410753 kJ/mol
# GULP energy per Si atom -12394.362724 kJ/mol
# Density = 1.882400 g / cm^3
# Si number density = 18.866945 Si / 1000 Ang^3
#
#
#
# Elastic Constant Matrix: (Units=GPa)
#
#
# Indices 1 2 3 4 5 6 
#
# 1 89.8796 35.1952 41.9175 0.0000 0.0000 0.0000
# 2 35.1952 87.7222 32.8148 0.0000 0.0000 0.0000
# 3 41.9175 32.8148 100.4307 0.0000 0.0000 0.0000
# 4 0.0000 0.0000 0.0000 14.9069 0.0000 0.0000
# 5 0.0000 0.0000 0.0000 0.0000 23.0950 0.0000
# 6 0.0000 0.0000 0.0000 0.0000 0.0000 23.1493
#
#
#
# Elastic Compliance Matrix: (Units=1/GPa)
#
#
# Indices 1 2 3 4 5 6 
#
# 1 0.015064 -0.004206 -0.004913 0.000000 0.000000 0.000000
# 2 -0.004206 0.014161 -0.002872 0.000000 0.000000 0.000000
# 3 -0.004913 -0.002872 0.012946 0.000000 0.000000 0.000000
# 4 0.000000 0.000000 0.000000 0.067083 0.000000 0.000000
# 5 0.000000 0.000000 0.000000 0.000000 0.043299 0.000000
# 6 0.000000 0.000000 0.000000 0.000000 0.000000 0.043198
#
#
# Mechanical properties :
#
#
# Convention : Reuss Voigt Hill
#
# Bulk Modulus (GPa) = 54.97524 55.32084 55.14804
# Shear Modulus (GPa) = 22.14374 23.43722 22.79048
#
# Velocity S-wave (km/s) = 3.42962 3.52836 3.47934
# Velocity P-wave (km/s) = 6.69960 6.78118 6.74051
#
# Compressibility (1/GPa) = 0.01819001
#
# Stress axis : x y z
#
# Youngs Moduli (GPa) = 66.38145 70.61472 77.24363
#
# Poissons Ratio (x) = 0.29701 0.37952
# Poissons Ratio (y) = 0.27921 0.22181
# Poissons Ratio (z) = 0.32615 0.20277
#
# Static dielectric constant tensor:
#      x y z
#    x 3.377260 0.000000 0.000000 
#    y 0.000000 3.496740 0.000000 
#    z 0.000000 0.000000 3.240430 
# 
# 
# High freq. dielectric constant tensor:
#      x y z
#    x 1.734410 0.000000 0.000000 
#    y 0.000000 1.734680 0.000000 
#    z 0.000000 0.000000 1.702010 
# 
# From -- ./inp_files/59963.got.cif
#   From: 2010.03.12/outbox.cif.g09.slc.cpg/sg63_30_cif.got.tgz:59963.got - 2010.04.10 19:34:48.
