data_PCOD8257825
_publ_section_title
;
Structure prediction by ZEFSAII (Michael W. Deem and Ramdas Pophale) SiO2 
 PCOD8257825
Probable space group: C M C M
;
_chemical_formula_sum "Si O2"
_cell_formula_units_Z 96
_cell_length_a 8.695349
_cell_length_b 23.687871
_cell_length_c 25.887785
_cell_angle_alpha 90.000000
_cell_angle_beta 90.000000
_cell_angle_gamma 90.000000
_cell_volume 5332.218534
_symmetry_space_group_name_H-M "C M C M"
_symmetry_group_IT_number 63
_symmetry_cell_setting 'orthorhombic'
loop_
_space_group_symop_operation_xyz
x,y,z
-x,-y,1/2+z
x,-y,-z
-x,y,1/2-z
-x,-y,-z
x,y,1/2-z
-x,y,z
x,-y,1/2+z
1/2+x,1/2+y,z
1/2-x,1/2-y,1/2+z
1/2+x,1/2-y,-z
1/2-x,1/2+y,1/2-z
1/2-x,1/2-y,-z
1/2+x,1/2+y,1/2-z
1/2-x,1/2+y,z
1/2+x,1/2-y,1/2+z
loop_
_atom_site_type_symbol
_atom_site_label
_atom_site_fract_x
_atom_site_fract_y
_atom_site_fract_z
Si Si1 0.319129 0.479903 0.056649
Si Si2 0.816553 0.241626 0.622530
Si Si3 0.826424 0.322547 0.535918
Si Si4 0.675186 0.079194 0.385952
Si Si5 0.183156 0.640964 0.927643
Si Si6 0.821757 0.166156 0.189623
O O1 0.500000 0.470270 0.055236
O O2 0.275894 0.524423 0.101153
O O3 0.238893 0.422775 0.075061
O O4 0.259777 0.500000 0.000000
O O5 0.748975 0.275056 0.572126
O O6 0.751795 0.177738 0.619895
O O7 0.753863 0.274412 0.672547
O O8 0.000000 0.242272 0.624999
O O9 0.817584 0.382694 0.563347
O O10 0.747979 0.330157 0.480037
O O11 0.000000 0.303429 0.526933
O O12 0.500000 0.061767 0.373342
O O13 0.743015 0.112366 0.337112
O O14 0.000000 0.641403 0.926004
O O15 0.794570 0.159281 0.250000
O O16 0.000000 0.167113 0.174591
#
# Coordination Sequence:
#
# PCOD8257825 Si02
#       6
#    16  16  16  16  16  16
#     4  11  22  34  50  76 110 150 189 224 263 315
#     4  10  20  34  51  77 108 139 179 222 269 321
#     4   8  16  29  47  72 103 140 176 215 257 306
#     4  10  19  34  55  80 108 141 183 226 269 316
#     4  11  20  32  50  73 107 149 186 219 262 313
#     4  10  21  38  60  84 108 136 174 223 277 328
#
# _framework density 18.003764
#
# number of rings (size 3 to 8) (size 9 to 14) (size 15 to 20)
#    0.000    2.000    1.667    4.000    0.000    2.000 
#    0.000    1.667    0.000    1.000    0.000    0.000 
#    0.000    0.000    0.000    0.000    0.000    0.000 
#
# Total GULP energy -595064.385923 kJ/mol
# GULP energy per Si atom -12397.174707 kJ/mol
# Density = 1.796279 g / cm^3
# Si number density = 18.003764 Si / 1000 Ang^3
#
#
#
# Elastic Constant Matrix: (Units=GPa)
#
#
# Indices 1 2 3 4 5 6 
#
# 1 82.8970 29.8187 33.4063 0.0000 0.0000 0.0000
# 2 29.8187 89.2493 34.5191 0.0000 0.0000 0.0000
# 3 33.4063 34.5191 68.9687 0.0000 0.0000 0.0000
# 4 0.0000 0.0000 0.0000 14.6967 0.0000 0.0000
# 5 0.0000 0.0000 0.0000 0.0000 23.2697 0.0000
# 6 0.0000 0.0000 0.0000 0.0000 0.0000 33.0851
#
#
#
# Elastic Compliance Matrix: (Units=1/GPa)
#
#
# Indices 1 2 3 4 5 6 
#
# 1 0.015544 -0.002829 -0.006113 0.000000 0.000000 0.000000
# 2 -0.002829 0.014409 -0.005842 0.000000 0.000000 0.000000
# 3 -0.006113 -0.005842 0.020384 0.000000 0.000000 0.000000
# 4 0.000000 0.000000 0.000000 0.068042 0.000000 0.000000
# 5 0.000000 0.000000 0.000000 0.000000 0.042974 0.000000
# 6 0.000000 0.000000 0.000000 0.000000 0.000000 0.030225
#
#
# Mechanical properties :
#
#
# Convention : Reuss Voigt Hill
#
# Bulk Modulus (GPa) = 48.14648 48.51145 48.32897
# Shear Modulus (GPa) = 21.92307 23.76835 22.84571
#
# Velocity S-wave (km/s) = 3.49333 3.63738 3.56608
# Velocity P-wave (km/s) = 6.56290 6.68165 6.62254
#
# Compressibility (1/GPa) = 0.02076995
#
# Stress axis : x y z
#
# Youngs Moduli (GPa) = 64.33214 69.40057 49.05788
#
# Poissons Ratio (x) = 0.19634 0.29990
# Poissons Ratio (y) = 0.18200 0.28657
# Poissons Ratio (z) = 0.39328 0.40540
#
# Static dielectric constant tensor:
#      x y z
#    x 3.289760 0.000000 0.000000 
#    y 0.000000 3.353330 0.000000 
#    z 0.000000 0.000000 3.117460 
# 
# 
# High freq. dielectric constant tensor:
#      x y z
#    x 1.700260 0.000000 0.000000 
#    y 0.000000 1.699460 0.000000 
#    z 0.000000 0.000000 1.664020 
# 
# From -- ./inp_files/59854.got.cif
#   From: 2010.03.12/outbox.cif.g09.slc.cpg/sg63_30_cif.got.tgz:59854.got - 2010.04.10 19:34:48.
