data_PCOD8257874
_publ_section_title
;
Structure prediction by ZEFSAII (Michael W. Deem and Ramdas Pophale) SiO2 
 PCOD8257874
Probable space group: C M C M
;
_chemical_formula_sum "Si O2"
_cell_formula_units_Z 80
_cell_length_a 13.583275
_cell_length_b 13.613597
_cell_length_c 23.432405
_cell_angle_alpha 90.000000
_cell_angle_beta 90.000000
_cell_angle_gamma 90.000000
_cell_volume 4333.055467
_symmetry_space_group_name_H-M "C M C M"
_symmetry_group_IT_number 63
_symmetry_cell_setting 'orthorhombic'
loop_
_space_group_symop_operation_xyz
x,y,z
-x,-y,1/2+z
x,-y,-z
-x,y,1/2-z
-x,-y,-z
x,y,1/2-z
-x,y,z
x,-y,1/2+z
1/2+x,1/2+y,z
1/2-x,1/2-y,1/2+z
1/2+x,1/2-y,-z
1/2-x,1/2+y,1/2-z
1/2-x,1/2-y,-z
1/2+x,1/2+y,1/2-z
1/2-x,1/2+y,z
1/2+x,1/2-y,1/2+z
loop_
_atom_site_type_symbol
_atom_site_label
_atom_site_fract_x
_atom_site_fract_y
_atom_site_fract_z
Si Si1 0.113786 0.111622 0.506893
Si Si2 0.795988 0.970276 0.816715
Si Si3 0.889632 0.347819 0.684856
Si Si4 0.203773 0.173948 0.620884
Si Si5 0.611542 0.299099 0.883991
O O1 0.181235 0.162823 0.554170
O O2 0.132118 0.167852 0.448298
O O3 0.000000 0.115212 0.526020
O O4 0.149165 0.000000 0.500000
O O5 0.816765 0.982023 0.750000
O O6 0.684243 0.936541 0.829905
O O7 0.871185 0.890078 0.841523
O O8 0.815500 0.073003 0.846778
O O9 0.873732 0.313830 0.750000
O O10 0.870760 0.254396 0.645349
O O11 0.000000 0.386756 0.674105
O O12 0.316144 0.208956 0.630543
O O13 0.500000 0.261986 0.875933
#
# Coordination Sequence:
#
# PCOD8257874 Si02
#       5
#    16  16  16  16  16
#     4  10  19  34  57  81 106 138 179 222 271 321
#     4  10  21  36  54  78 108 141 176 216 262 314
#     4   9  19  35  53  76 106 138 175 218 264 315
#     4  11  20  34  58  81 106 139 180 222 267 316
#     4  10  22  38  55  80 111 142 177 220 267 319
#
# _framework density 18.462721999999999
#
# number of rings (size 3 to 8) (size 9 to 14) (size 15 to 20)
#    0.000    2.000    2.000    1.800    0.000    2.800 
#    0.000    0.000    0.000    0.600    0.000    0.000 
#    0.000    0.000    0.000    0.000    0.000    0.000 
#
# Total GULP energy -496138.267880 kJ/mol
# GULP energy per Si atom -12403.456697 kJ/mol
# Density = 1.842070 g / cm^3
# Si number density = 18.462722 Si / 1000 Ang^3
#
#
#
# Elastic Constant Matrix: (Units=GPa)
#
#
# Indices 1 2 3 4 5 6 
#
# 1 67.3208 -6.1852 10.9497 0.0000 0.0000 0.0000
# 2 -6.1852 31.5197 -0.7076 0.0000 0.0000 0.0000
# 3 10.9497 -0.7076 67.4466 0.0000 0.0000 0.0000
# 4 0.0000 0.0000 0.0000 22.3682 0.0000 0.0000
# 5 0.0000 0.0000 0.0000 0.0000 21.5786 0.0000
# 6 0.0000 0.0000 0.0000 0.0000 0.0000 9.6937
#
#
#
# Elastic Compliance Matrix: (Units=1/GPa)
#
#
# Indices 1 2 3 4 5 6 
#
# 1 0.015534 0.002992 -0.002491 0.000000 0.000000 0.000000
# 2 0.002992 0.032310 -0.000147 0.000000 0.000000 0.000000
# 3 -0.002491 -0.000147 0.015229 0.000000 0.000000 0.000000
# 4 0.000000 0.000000 0.000000 0.044706 0.000000 0.000000
# 5 0.000000 0.000000 0.000000 0.000000 0.046342 0.000000
# 6 0.000000 0.000000 0.000000 0.000000 0.000000 0.103160
#
#
# Mechanical properties :
#
#
# Convention : Reuss Voigt Hill
#
# Bulk Modulus (GPa) = 15.67796 19.37788 17.52792
# Shear Modulus (GPa) = 17.99639 21.54344 19.76991
#
# Velocity S-wave (km/s) = 3.12547 3.41964 3.27586
# Velocity P-wave (km/s) = 4.64057 5.10983 4.88084
#
# Compressibility (1/GPa) = 0.06378379
#
# Stress axis : x y z
#
# Youngs Moduli (GPa) = 64.37380 30.95005 65.66274
#
# Poissons Ratio (x) = -0.09262 0.16354
# Poissons Ratio (y) = -0.19263 0.00964
# Poissons Ratio (z) = 0.16033 0.00454
#
# Static dielectric constant tensor:
#      x y z
#    x 3.387260 0.000000 0.000000 
#    y 0.000000 3.227010 0.000000 
#    z 0.000000 0.000000 3.446890 
# 
# 
# High freq. dielectric constant tensor:
#      x y z
#    x 1.715950 0.000000 0.000000 
#    y 0.000000 1.706840 0.000000 
#    z 0.000000 0.000000 1.725720 
# 
# From -- ./inp_files/53984.got.cif
#   From: 2010.03.12/outbox.cif.g09.slc.cpg/sg63_27_cif.got.tgz:53984.got - 2010.04.10 19:34:48.
