data_PCOD8257959
_publ_section_title
;
Structure prediction by ZEFSAII (Michael W. Deem and Ramdas Pophale) SiO2 
 PCOD8257959
Probable space group: C M C M
;
_chemical_formula_sum "Si O2"
_cell_formula_units_Z 96
_cell_length_a 23.409268
_cell_length_b 13.226139
_cell_length_c 17.815903
_cell_angle_alpha 90.000000
_cell_angle_beta 90.000000
_cell_angle_gamma 90.000000
_cell_volume 5516.057133
_symmetry_space_group_name_H-M "C M C M"
_symmetry_group_IT_number 63
_symmetry_cell_setting 'orthorhombic'
loop_
_space_group_symop_operation_xyz
x,y,z
-x,-y,1/2+z
x,-y,-z
-x,y,1/2-z
-x,-y,-z
x,y,1/2-z
-x,y,z
x,-y,1/2+z
1/2+x,1/2+y,z
1/2-x,1/2-y,1/2+z
1/2+x,1/2-y,-z
1/2-x,1/2+y,1/2-z
1/2-x,1/2-y,-z
1/2+x,1/2+y,1/2-z
1/2-x,1/2+y,z
1/2+x,1/2-y,1/2+z
loop_
_atom_site_type_symbol
_atom_site_label
_atom_site_fract_x
_atom_site_fract_y
_atom_site_fract_z
Si Si1 0.713884 0.879229 0.423412
Si Si2 0.436990 0.398401 0.166291
Si Si3 0.329824 0.519061 0.586462
Si Si4 0.717549 0.321557 0.837127
Si Si5 0.675820 0.097419 0.092802
Si Si6 0.436465 0.159588 0.334338
O O1 0.780669 0.896523 0.403965
O O2 0.694985 0.778041 0.380587
O O3 0.700403 0.868471 0.511847
O O4 0.680165 0.977255 0.393851
O O5 0.422673 0.436849 0.250000
O O6 0.500000 0.437258 0.142193
O O7 0.390735 0.440394 0.110083
O O8 0.436114 0.278935 0.164475
O O9 0.334318 0.500000 0.500000
O O10 0.316593 0.417449 0.631792
O O11 0.704174 0.305940 0.750000
O O12 0.785332 0.341027 0.847991
O O13 0.609349 0.121348 0.104825
O O14 0.421419 0.121218 0.250000
O O15 0.500000 0.120358 0.357024
#
# Coordination Sequence:
#
# PCOD8257959 Si02
#       6
#    16  16  16  16  16  16
#     4  10  21  36  51  78 109 143 178 220 264 316
#     4   9  19  35  54  78 107 137 175 223 270 316
#     4  11  21  35  54  78 108 144 178 222 266 321
#     4  11  22  33  53  82 110 141 179 219 267 327
#     4  10  19  35  55  75 105 146 174 217 269 319
#     4   9  18  32  54  82 105 131 175 227 269 311
#
# _framework density 17.403735999999999
#
# number of rings (size 3 to 8) (size 9 to 14) (size 15 to 20)
#    0.000    2.000    3.333    3.500    2.333    5.667 
#    0.000    1.667    0.000    1.000    0.000    2.333 
#    0.000    0.000    0.000    0.000    0.000    0.000 
#
# Total GULP energy -594993.126884 kJ/mol
# GULP energy per Si atom -12395.690143 kJ/mol
# Density = 1.736412 g / cm^3
# Si number density = 17.403736 Si / 1000 Ang^3
#
#
#
# Elastic Constant Matrix: (Units=GPa)
#
#
# Indices 1 2 3 4 5 6 
#
# 1 76.1812 17.9440 11.2081 0.0000 0.0000 0.0000
# 2 17.9440 54.4240 31.3123 0.0000 0.0000 0.0000
# 3 11.2081 31.3123 62.6286 0.0000 0.0000 0.0000
# 4 0.0000 0.0000 0.0000 26.6696 0.0000 0.0000
# 5 0.0000 0.0000 0.0000 0.0000 33.0205 0.0000
# 6 0.0000 0.0000 0.0000 0.0000 0.0000 22.0300
#
#
#
# Elastic Compliance Matrix: (Units=1/GPa)
#
#
# Indices 1 2 3 4 5 6 
#
# 1 0.014235 -0.004531 -0.000282 0.000000 0.000000 0.000000
# 2 -0.004531 0.027236 -0.012806 0.000000 0.000000 0.000000
# 3 -0.000282 -0.012806 0.022420 0.000000 0.000000 0.000000
# 4 0.000000 0.000000 0.000000 0.037496 0.000000 0.000000
# 5 0.000000 0.000000 0.000000 0.000000 0.030284 0.000000
# 6 0.000000 0.000000 0.000000 0.000000 0.000000 0.045393
#
#
# Mechanical properties :
#
#
# Convention : Reuss Voigt Hill
#
# Bulk Modulus (GPa) = 34.90071 34.90692 34.90382
# Shear Modulus (GPa) = 22.53726 25.19531 23.86629
#
# Velocity S-wave (km/s) = 3.60247 3.80899 3.70717
# Velocity P-wave (km/s) = 6.11562 6.28054 6.19863
#
# Compressibility (1/GPa) = 0.02865272
#
# Stress axis : x y z
#
# Youngs Moduli (GPa) = 70.24742 36.71591 44.60231
#
# Poissons Ratio (x) = 0.16637 0.01258
# Poissons Ratio (y) = 0.31830 0.57119
# Poissons Ratio (z) = 0.01982 0.47019
#
# Static dielectric constant tensor:
#      x y z
#    x 3.531050 0.000000 0.000000 
#    y 0.000000 3.125900 0.000000 
#    z 0.000000 0.000000 3.245300 
# 
# 
# High freq. dielectric constant tensor:
#      x y z
#    x 1.664170 0.000000 0.000000 
#    y 0.000000 1.665970 0.000000 
#    z 0.000000 0.000000 1.670040 
# 
# From -- ./inp_files/48011.got.cif
#   From: 2010.03.12/outbox.cif.g09.slc.cpg/sg63_25_cif.got.tgz:48011.got - 2010.04.10 19:34:48.
