data_PCOD8257749
_publ_section_title
;
Structure prediction by ZEFSAII (Michael W. Deem and Ramdas Pophale) SiO2 
 PCOD8257749
Probable space group: C M C M
;
_chemical_formula_sum "Si O2"
_cell_formula_units_Z 96
_cell_length_a 8.817840
_cell_length_b 24.735298
_cell_length_c 23.613094
_cell_angle_alpha 90.000000
_cell_angle_beta 90.000000
_cell_angle_gamma 90.000000
_cell_volume 5150.296800
_symmetry_space_group_name_H-M "C M C M"
_symmetry_group_IT_number 63
_symmetry_cell_setting 'orthorhombic'
loop_
_space_group_symop_operation_xyz
x,y,z
-x,-y,1/2+z
x,-y,-z
-x,y,1/2-z
-x,-y,-z
x,y,1/2-z
-x,y,z
x,-y,1/2+z
1/2+x,1/2+y,z
1/2-x,1/2-y,1/2+z
1/2+x,1/2-y,-z
1/2-x,1/2+y,1/2-z
1/2-x,1/2-y,-z
1/2+x,1/2+y,1/2-z
1/2-x,1/2+y,z
1/2+x,1/2-y,1/2+z
loop_
_atom_site_type_symbol
_atom_site_label
_atom_site_fract_x
_atom_site_fract_y
_atom_site_fract_z
Si Si1 0.826195 0.409063 0.931248
Si Si2 0.820066 0.141462 0.250000
Si Si3 0.173706 0.612912 0.558867
Si Si4 0.178102 0.773560 0.056777
Si Si5 0.321339 0.687339 0.131446
Si Si6 0.677782 0.985595 0.136559
Si Si7 0.320927 0.519414 0.250000
O O1 0.718290 0.361143 0.910827
O O2 0.771555 0.464351 0.902503
O O3 0.000000 0.395179 0.915283
O O4 0.807306 0.415802 0.998291
O O5 0.762426 0.173034 0.194479
O O6 0.753419 0.080496 0.250000
O O7 0.000000 0.137832 0.250000
O O8 0.282452 0.664002 0.564810
O O9 0.223895 0.569763 0.605815
O O10 0.000000 0.631628 0.567566
O O11 0.238855 0.741704 0.111534
O O12 0.000000 0.765699 0.051950
O O13 0.250000 0.750000 0.000000
O O14 0.500000 0.697098 0.130227
O O15 0.500000 0.987876 0.148382
O O16 0.765216 0.987052 0.195468
O O17 0.500000 0.521118 0.250000
#
# Coordination Sequence:
#
# PCOD8257749 Si02
#       7
#    16   8  16  16  16  16   8
#     4  10  19  33  57  88 120 151 187 237 290 344
#     4   9  20  37  58  85 118 151 190 238 291 341
#     4  10  21  38  59  85 120 157 193 235 290 349
#     4  12  24  39  59  86 117 152 195 241 291 346
#     4  11  21  37  60  87 118 154 194 238 288 343
#     4  10  21  37  58  87 119 155 196 239 289 351
#     4  11  21  37  58  83 116 155 196 244 289 341
#
# _framework density 18.639703000000001
#
# number of rings (size 3 to 8) (size 9 to 14) (size 15 to 20)
#    0.000    1.500    3.333    2.750    0.000    2.667 
#    0.000    2.500    0.000    5.000    0.000    0.000 
#    0.000    0.000    0.000    0.000    0.000    0.000 
#
# Total GULP energy -595426.191010 kJ/mol
# GULP energy per Si atom -12404.712313 kJ/mol
# Density = 1.859728 g / cm^3
# Si number density = 18.639703 Si / 1000 Ang^3
#
#
#
# Elastic Constant Matrix: (Units=GPa)
#
#
# Indices 1 2 3 4 5 6 
#
# 1 77.1350 41.3114 42.6049 0.0000 0.0000 0.0000
# 2 41.3114 114.5243 61.9912 0.0000 0.0000 0.0000
# 3 42.6049 61.9912 142.9435 0.0000 0.0000 0.0000
# 4 0.0000 0.0000 0.0000 23.5574 0.0000 0.0000
# 5 0.0000 0.0000 0.0000 0.0000 23.0103 0.0000
# 6 0.0000 0.0000 0.0000 0.0000 0.0000 31.3439
#
#
#
# Elastic Compliance Matrix: (Units=1/GPa)
#
#
# Indices 1 2 3 4 5 6 
#
# 1 0.017098 -0.004455 -0.003164 0.000000 0.000000 0.000000
# 2 -0.004455 0.012571 -0.004124 0.000000 0.000000 0.000000
# 3 -0.003164 -0.004124 0.009727 0.000000 0.000000 0.000000
# 4 0.000000 0.000000 0.000000 0.042449 0.000000 0.000000
# 5 0.000000 0.000000 0.000000 0.000000 0.043459 0.000000
# 6 0.000000 0.000000 0.000000 0.000000 0.000000 0.031904
#
#
# Mechanical properties :
#
#
# Convention : Reuss Voigt Hill
#
# Bulk Modulus (GPa) = 62.85233 69.60199 66.22716
# Shear Modulus (GPa) = 26.88203 28.16201 27.52202
#
# Velocity S-wave (km/s) = 3.80174 3.89120 3.84673
# Velocity P-wave (km/s) = 7.28449 7.59015 7.43889
#
# Compressibility (1/GPa) = 0.01591031
#
# Stress axis : x y z
#
# Youngs Moduli (GPa) = 58.48684 79.54812 102.80330
#
# Poissons Ratio (x) = 0.35438 0.32528
# Poissons Ratio (y) = 0.26055 0.42396
# Poissons Ratio (z) = 0.18506 0.32805
#
# Static dielectric constant tensor:
#      x y z
#    x 3.316780 0.000000 0.000000 
#    y 0.000000 3.475410 0.000000 
#    z 0.000000 0.000000 3.552880 
# 
# 
# High freq. dielectric constant tensor:
#      x y z
#    x 1.715570 0.000000 0.000000 
#    y 0.000000 1.721830 0.000000 
#    z 0.000000 0.000000 1.727150 
# 
# From -- ./inp_files/60058.got.cif
#   From: 2010.03.12/outbox.cif.g09.slc.cpg/sg63_31_cif.got.tgz:60058.got - 2010.04.10 19:34:48.
