data_PCOD8257950
_publ_section_title
;
Structure prediction by ZEFSAII (Michael W. Deem and Ramdas Pophale) SiO2 
 PCOD8257950
Probable space group: C M C M
;
_chemical_formula_sum "Si O2"
_cell_formula_units_Z 72
_cell_length_a 23.088229
_cell_length_b 5.281376
_cell_length_c 31.950347
_cell_angle_alpha 90.000000
_cell_angle_beta 90.000000
_cell_angle_gamma 90.000000
_cell_volume 3895.949224
_symmetry_space_group_name_H-M "C M C M"
_symmetry_group_IT_number 63
_symmetry_cell_setting 'orthorhombic'
loop_
_space_group_symop_operation_xyz
x,y,z
-x,-y,1/2+z
x,-y,-z
-x,y,1/2-z
-x,-y,-z
x,y,1/2-z
-x,y,z
x,-y,1/2+z
1/2+x,1/2+y,z
1/2-x,1/2-y,1/2+z
1/2+x,1/2-y,-z
1/2-x,1/2+y,1/2-z
1/2-x,1/2-y,-z
1/2+x,1/2+y,1/2-z
1/2-x,1/2+y,z
1/2+x,1/2-y,1/2+z
loop_
_atom_site_type_symbol
_atom_site_label
_atom_site_fract_x
_atom_site_fract_y
_atom_site_fract_z
Si Si1 0.370051 0.504106 0.174464
Si Si2 0.068307 0.509130 0.201579
Si Si3 0.680801 0.499544 0.916939
Si Si4 0.214822 0.026793 0.250000
Si Si5 0.308001 0.999549 0.548420
O O1 0.404464 0.765860 0.179063
O O2 0.336260 0.499523 0.131088
O O3 0.321731 0.473465 0.209110
O O4 0.413154 0.265693 0.178086
O O5 0.088397 0.516556 0.250000
O O6 0.000000 0.483604 0.198273
O O7 0.655005 0.749819 0.939755
O O8 0.750212 0.499175 0.923170
O O9 0.654957 0.248989 0.939645
O O10 0.265762 0.819429 0.250000
O O11 0.290101 0.000000 0.500000
#
# Coordination Sequence:
#
# PCOD8257950 Si02
#       5
#    16  16  16   8  16
#     4  12  23  39  54  85 114 145 204 227 280 338
#     4  11  22  41  62  79 103 146 197 258 296 316
#     4  10  20  30  52  75 110 142 177 227 267 315
#     4  12  26  36  53  74 121 166 188 220 256 338
#     4  10  19  35  52  77 111 151 188 220 265 323
#
# _framework density 18.480734000000002
#
# number of rings (size 3 to 8) (size 9 to 14) (size 15 to 20)
#    0.000    1.111    2.222    6.667    6.222    1.778 
#    0.000    0.000    0.000    0.000    0.000    0.000 
#    0.000  103.111    0.000    0.000    0.000    0.000 
#
# Total GULP energy -446263.097462 kJ/mol
# GULP energy per Si atom -12396.197152 kJ/mol
# Density = 1.843867 g / cm^3
# Si number density = 18.480734 Si / 1000 Ang^3
#
#
#
# Elastic Constant Matrix: (Units=GPa)
#
#
# Indices 1 2 3 4 5 6 
#
# 1 47.4808 20.0520 42.6797 0.0000 0.0000 0.0000
# 2 20.0520 182.0954 55.6734 0.0000 0.0000 0.0000
# 3 42.6797 55.6734 156.4681 0.0000 0.0000 0.0000
# 4 0.0000 0.0000 0.0000 30.6027 0.0000 0.0000
# 5 0.0000 0.0000 0.0000 0.0000 41.8827 0.0000
# 6 0.0000 0.0000 0.0000 0.0000 0.0000 23.7646
#
#
#
# Elastic Compliance Matrix: (Units=1/GPa)
#
#
# Indices 1 2 3 4 5 6 
#
# 1 0.028017 -0.000840 -0.007343 0.000000 0.000000 0.000000
# 2 -0.000840 0.006187 -0.001972 0.000000 0.000000 0.000000
# 3 -0.007343 -0.001972 0.009096 0.000000 0.000000 0.000000
# 4 0.000000 0.000000 0.000000 0.032677 0.000000 0.000000
# 5 0.000000 0.000000 0.000000 0.000000 0.023876 0.000000
# 6 0.000000 0.000000 0.000000 0.000000 0.000000 0.042079
#
#
# Mechanical properties :
#
#
# Convention : Reuss Voigt Hill
#
# Bulk Modulus (GPa) = 43.50003 69.20604 56.35303
# Shear Modulus (GPa) = 29.42805 37.09261 33.26033
#
# Velocity S-wave (km/s) = 3.99477 4.48492 4.24692
# Velocity P-wave (km/s) = 6.69826 8.02174 7.38969
#
# Compressibility (1/GPa) = 0.02298849
#
# Stress axis : x y z
#
# Youngs Moduli (GPa) = 35.69316 161.62539 109.94027
#
# Poissons Ratio (x) = 0.13577 0.80731
# Poissons Ratio (y) = 0.02998 0.21684
# Poissons Ratio (z) = 0.26210 0.31878
#
# Static dielectric constant tensor:
#      x y z
#    x 2.976830 0.000000 0.000000 
#    y 0.000000 4.925180 0.000000 
#    z 0.000000 0.000000 3.080280 
# 
# 
# High freq. dielectric constant tensor:
#      x y z
#    x 1.660500 0.000000 0.000000 
#    y 0.000000 1.761960 0.000000 
#    z 0.000000 0.000000 1.716080 
# 
# From -- ./inp_files/70585.got.cif
#   From: 2010.03.12/outbox.cif.g09.slc.cpg/sg63_36_cif.got.tgz:70585.got - 2010.04.10 19:34:48.
