data_PCOD8257644
_publ_section_title
;
Structure prediction by ZEFSAII (Michael W. Deem and Ramdas Pophale) SiO2 
 PCOD8257644
Probable space group: C M C M
;
_chemical_formula_sum "Si O2"
_cell_formula_units_Z 96
_cell_length_a 13.507413
_cell_length_b 19.004593
_cell_length_c 20.243997
_cell_angle_alpha 90.000000
_cell_angle_beta 90.000000
_cell_angle_gamma 90.000000
_cell_volume 5196.692465
_symmetry_space_group_name_H-M "C M C M"
_symmetry_group_IT_number 63
_symmetry_cell_setting 'orthorhombic'
loop_
_space_group_symop_operation_xyz
x,y,z
-x,-y,1/2+z
x,-y,-z
-x,y,1/2-z
-x,-y,-z
x,y,1/2-z
-x,y,z
x,-y,1/2+z
1/2+x,1/2+y,z
1/2-x,1/2-y,1/2+z
1/2+x,1/2-y,-z
1/2-x,1/2+y,1/2-z
1/2-x,1/2-y,-z
1/2+x,1/2+y,1/2-z
1/2-x,1/2+y,z
1/2+x,1/2-y,1/2+z
loop_
_atom_site_type_symbol
_atom_site_label
_atom_site_fract_x
_atom_site_fract_y
_atom_site_fract_z
Si Si1 0.612169 0.283149 0.034520
Si Si2 0.111346 0.401791 0.325068
Si Si3 0.889080 0.865200 0.672624
Si Si4 0.887096 0.058175 0.951660
Si Si5 0.809973 0.731714 0.599731
Si Si6 0.208614 0.009070 0.674723
O O1 0.500000 0.268586 0.059654
O O2 0.626005 0.365332 0.015366
O O3 0.690886 0.263310 0.091385
O O4 0.634297 0.237009 0.970155
O O5 0.111978 0.373728 0.250000
O O6 0.160128 0.342703 0.370309
O O7 0.174025 0.474439 0.330107
O O8 0.000000 0.418416 0.348809
O O9 0.897133 0.857351 0.750000
O O10 0.843073 0.793749 0.646903
O O11 0.000000 0.877610 0.643121
O O12 0.816554 0.929379 0.653372
O O13 0.843161 0.060451 0.877734
O O14 0.000000 0.036675 0.942500
O O15 0.835951 0.000000 0.000000
O O16 0.170501 0.023944 0.750000
#
# Coordination Sequence:
#
# PCOD8257644 Si02
#       6
#    16  16  16  16  16  16
#     4  10  21  34  51  80 112 147 185 223 274 333
#     4  10  20  35  57  82 108 144 189 234 280 334
#     4  10  20  34  56  84 108 135 179 234 284 328
#     4  10  19  33  54  80 112 146 183 227 278 337
#     4  11  20  35  57  79 111 146 182 230 276 327
#     4  10  20  35  54  81 112 143 182 231 286 337
#
# _framework density 18.473288
#
# number of rings (size 3 to 8) (size 9 to 14) (size 15 to 20)
#    0.000    1.833    1.667    3.500    0.000    3.667 
#    0.000    0.833    0.000    3.500    0.000    0.000 
#    0.000    0.000    0.000    0.000    0.000    0.000 
#
# Total GULP energy -595040.461305 kJ/mol
# GULP energy per Si atom -12396.676277 kJ/mol
# Density = 1.843124 g / cm^3
# Si number density = 18.473288 Si / 1000 Ang^3
#
#
#
# Elastic Constant Matrix: (Units=GPa)
#
#
# Indices 1 2 3 4 5 6 
#
# 1 139.7317 56.9603 31.7347 0.0000 0.0000 0.0000
# 2 56.9603 87.8649 16.9240 0.0000 0.0000 0.0000
# 3 31.7347 16.9240 43.3217 0.0000 0.0000 0.0000
# 4 0.0000 0.0000 0.0000 27.5988 0.0000 0.0000
# 5 0.0000 0.0000 0.0000 0.0000 23.4433 0.0000
# 6 0.0000 0.0000 0.0000 0.0000 0.0000 29.8216
#
#
#
# Elastic Compliance Matrix: (Units=1/GPa)
#
#
# Indices 1 2 3 4 5 6 
#
# 1 0.010864 -0.005958 -0.005631 0.000000 0.000000 0.000000
# 2 -0.005958 0.015575 -0.001720 0.000000 0.000000 0.000000
# 3 -0.005631 -0.001720 0.027880 0.000000 0.000000 0.000000
# 4 0.000000 0.000000 0.000000 0.036234 0.000000 0.000000
# 5 0.000000 0.000000 0.000000 0.000000 0.042656 0.000000
# 6 0.000000 0.000000 0.000000 0.000000 0.000000 0.033533
#
#
# Mechanical properties :
#
#
# Convention : Reuss Voigt Hill
#
# Bulk Modulus (GPa) = 36.09964 53.57292 44.83628
# Shear Modulus (GPa) = 24.68002 27.19268 25.93635
#
# Velocity S-wave (km/s) = 3.65908 3.84083 3.75105
# Velocity P-wave (km/s) = 6.11848 6.98086 6.56385
#
# Compressibility (1/GPa) = 0.02770111
#
# Stress axis : x y z
#
# Youngs Moduli (GPa) = 92.04468 64.20531 35.86837
#
# Poissons Ratio (x) = 0.38256 0.20197
# Poissons Ratio (y) = 0.54844 0.06169
# Poissons Ratio (z) = 0.51828 0.11042
#
# Static dielectric constant tensor:
#      x y z
#    x 3.607810 0.000000 0.000000 
#    y 0.000000 3.389740 0.000000 
#    z 0.000000 0.000000 3.440360 
# 
# 
# High freq. dielectric constant tensor:
#      x y z
#    x 1.713630 0.000000 0.000000 
#    y 0.000000 1.707860 0.000000 
#    z 0.000000 0.000000 1.716570 
# 
# From -- ./inp_files/52860.got.cif
#   From: 2010.03.12/outbox.cif.g09.slc.cpg/sg63_27_cif.got.tgz:52860.got - 2010.04.10 19:34:48.
