data_PCOD8257572
_publ_section_title
;
Structure prediction by ZEFSAII (Michael W. Deem and Ramdas Pophale) SiO2 
 PCOD8257572
Probable space group: C M C M
;
_chemical_formula_sum "Si O2"
_cell_formula_units_Z 96
_cell_length_a 12.222345
_cell_length_b 22.341595
_cell_length_c 20.181080
_cell_angle_alpha 90.000000
_cell_angle_beta 90.000000
_cell_angle_gamma 90.000000
_cell_volume 5510.780554
_symmetry_space_group_name_H-M "C M C M"
_symmetry_group_IT_number 63
_symmetry_cell_setting 'orthorhombic'
loop_
_space_group_symop_operation_xyz
x,y,z
-x,-y,1/2+z
x,-y,-z
-x,y,1/2-z
-x,-y,-z
x,y,1/2-z
-x,y,z
x,-y,1/2+z
1/2+x,1/2+y,z
1/2-x,1/2-y,1/2+z
1/2+x,1/2-y,-z
1/2-x,1/2+y,1/2-z
1/2-x,1/2-y,-z
1/2+x,1/2+y,1/2-z
1/2-x,1/2+y,z
1/2+x,1/2-y,1/2+z
loop_
_atom_site_type_symbol
_atom_site_label
_atom_site_fract_x
_atom_site_fract_y
_atom_site_fract_z
Si Si1 0.231915 0.737342 0.896211
Si Si2 0.124265 0.147067 0.674684
Si Si3 0.372913 0.656703 0.175495
Si Si4 0.286552 0.423184 0.940033
Si Si5 0.129699 0.326657 0.983995
Si Si6 0.124756 0.951136 0.428163
O O1 0.299421 0.702835 0.840573
O O2 0.146873 0.778808 0.857239
O O3 0.317889 0.776564 0.937224
O O4 0.165528 0.690198 0.941392
O O5 0.138661 0.127626 0.750000
O O6 0.159853 0.090051 0.632237
O O7 0.000000 0.165442 0.657864
O O8 0.321715 0.652780 0.250000
O O9 0.500000 0.645281 0.180641
O O10 0.324147 0.605744 0.128534
O O11 0.171482 0.392974 0.962298
O O12 0.286485 0.494824 0.928280
O O13 0.367857 0.413127 0.003065
O O14 0.000000 0.325718 0.977036
O O15 0.000000 0.975097 0.420567
#
# Coordination Sequence:
#
# PCOD8257572 Si02
#       6
#    16  16  16  16  16  16
#     4  10  19  34  51  74 107 139 167 209 262 306
#     4  10  20  33  52  78 106 136 169 208 256 310
#     4  10  20  32  50  77 105 135 168 205 254 309
#     4  10  19  34  53  74 102 133 170 213 259 297
#     4  10  20  33  53  79 103 133 177 218 256 304
#     4  10  19  33  53  77 103 135 171 210 260 306
#
# _framework density 17.420400000000001
#
# number of rings (size 3 to 8) (size 9 to 14) (size 15 to 20)
#    0.000    2.000    1.667    3.500    0.000    0.667 
#    0.000    3.333    0.000    4.500    0.000    0.000 
#    0.000    0.000    0.000    0.000    0.000    0.000 
#
# Total GULP energy -594902.571214 kJ/mol
# GULP energy per Si atom -12393.803567 kJ/mol
# Density = 1.738075 g / cm^3
# Si number density = 17.420400 Si / 1000 Ang^3
#
#
#
# Elastic Constant Matrix: (Units=GPa)
#
#
# Indices 1 2 3 4 5 6 
#
# 1 68.6312 22.4106 17.4379 0.0000 0.0000 0.0000
# 2 22.4106 59.7067 31.4938 0.0000 0.0000 0.0000
# 3 17.4379 31.4938 116.6866 0.0000 0.0000 0.0000
# 4 0.0000 0.0000 0.0000 20.2610 0.0000 0.0000
# 5 0.0000 0.0000 0.0000 0.0000 23.2222 0.0000
# 6 0.0000 0.0000 0.0000 0.0000 0.0000 22.1299
#
#
#
# Elastic Compliance Matrix: (Units=1/GPa)
#
#
# Indices 1 2 3 4 5 6 
#
# 1 0.016693 -0.005772 -0.000937 0.000000 0.000000 0.000000
# 2 -0.005772 0.021524 -0.004947 0.000000 0.000000 0.000000
# 3 -0.000937 -0.004947 0.010045 0.000000 0.000000 0.000000
# 4 0.000000 0.000000 0.000000 0.049356 0.000000 0.000000
# 5 0.000000 0.000000 0.000000 0.000000 0.043062 0.000000
# 6 0.000000 0.000000 0.000000 0.000000 0.000000 0.045188
#
#
# Mechanical properties :
#
#
# Convention : Reuss Voigt Hill
#
# Bulk Modulus (GPa) = 40.07704 43.07878 41.57791
# Shear Modulus (GPa) = 22.98887 24.70144 23.84515
#
# Velocity S-wave (km/s) = 3.63664 3.76967 3.70375
# Velocity P-wave (km/s) = 6.37882 6.61285 6.49689
#
# Compressibility (1/GPa) = 0.02495195
#
# Stress axis : x y z
#
# Youngs Moduli (GPa) = 59.90424 46.45933 99.55050
#
# Poissons Ratio (x) = 0.26814 0.09327
# Poissons Ratio (y) = 0.34574 0.49247
# Poissons Ratio (z) = 0.05613 0.22983
#
# Static dielectric constant tensor:
#      x y z
#    x 3.032670 0.000000 0.000000 
#    y 0.000000 3.215440 0.000000 
#    z 0.000000 0.000000 3.522060 
# 
# 
# High freq. dielectric constant tensor:
#      x y z
#    x 1.647040 0.000000 0.000000 
#    y 0.000000 1.669770 0.000000 
#    z 0.000000 0.000000 1.686420 
# 
# From -- ./inp_files/52897.got.cif
#   From: 2010.03.12/outbox.cif.g09.slc.cpg/sg63_27_cif.got.tgz:52897.got - 2010.04.10 19:34:48.
