data_PCOD8257743
_publ_section_title
;
Structure prediction by ZEFSAII (Michael W. Deem and Ramdas Pophale) SiO2 
 PCOD8257743
Probable space group: C M C M
;
_chemical_formula_sum "Si O2"
_cell_formula_units_Z 80
_cell_length_a 17.715994
_cell_length_b 15.432563
_cell_length_c 15.338361
_cell_angle_alpha 90.000000
_cell_angle_beta 90.000000
_cell_angle_gamma 90.000000
_cell_volume 4193.556881
_symmetry_space_group_name_H-M "C M C M"
_symmetry_group_IT_number 63
_symmetry_cell_setting 'orthorhombic'
loop_
_space_group_symop_operation_xyz
x,y,z
-x,-y,1/2+z
x,-y,-z
-x,y,1/2-z
-x,-y,-z
x,y,1/2-z
-x,y,z
x,-y,1/2+z
1/2+x,1/2+y,z
1/2-x,1/2-y,1/2+z
1/2+x,1/2-y,-z
1/2-x,1/2+y,1/2-z
1/2-x,1/2-y,-z
1/2+x,1/2+y,1/2-z
1/2-x,1/2+y,z
1/2+x,1/2-y,1/2+z
loop_
_atom_site_type_symbol
_atom_site_label
_atom_site_fract_x
_atom_site_fract_y
_atom_site_fract_z
Si Si1 0.820674 0.739891 0.846316
Si Si2 0.913470 0.708370 0.485636
Si Si3 0.266625 0.573335 0.609929
Si Si4 0.417233 0.358763 0.347174
Si Si5 0.276975 0.890553 0.921488
O O1 0.855118 0.758358 0.750000
O O2 0.779222 0.647620 0.840611
O O3 0.757682 0.812220 0.866626
O O4 0.886215 0.739767 0.918843
O O5 0.902297 0.784663 0.417175
O O6 0.863179 0.628640 0.450371
O O7 0.000000 0.677599 0.492066
O O8 0.352976 0.568071 0.643789
O O9 0.272202 0.596611 0.508175
O O10 0.226305 0.481364 0.630767
O O11 0.413770 0.317903 0.250000
O O12 0.500000 0.401153 0.362950
#
# Coordination Sequence:
#
# PCOD8257743 Si02
#       5
#    16  16  16  16  16
#     4  11  21  36  57  84 120 158 198 238 289 352
#     4  10  20  38  60  86 120 152 194 243 288 343
#     4  10  19  36  57  83 116 149 197 248 287 344
#     4  10  19  33  57  86 115 148 186 239 301 346
#     4  10  20  36  58  86 112 152 200 238 291 344
#
# _framework density 19.076884
#
# number of rings (size 3 to 8) (size 9 to 14) (size 15 to 20)
#    0.000    1.800    4.000    1.800    0.000    2.000 
#    0.000   11.000    0.000    0.000    0.000    0.000 
#    0.000    0.000    0.000    0.000    0.000    0.000 
#
# Total GULP energy -495809.120323 kJ/mol
# GULP energy per Si atom -12395.228008 kJ/mol
# Density = 1.903346 g / cm^3
# Si number density = 19.076884 Si / 1000 Ang^3
#
#
#
# Elastic Constant Matrix: (Units=GPa)
#
#
# Indices 1 2 3 4 5 6 
#
# 1 149.1452 54.8526 54.0088 0.0000 0.0000 0.0000
# 2 54.8526 113.1533 43.1664 0.0000 0.0000 0.0000
# 3 54.0088 43.1664 116.4427 0.0000 0.0000 0.0000
# 4 0.0000 0.0000 0.0000 9.2931 0.0000 0.0000
# 5 0.0000 0.0000 0.0000 0.0000 22.3677 0.0000
# 6 0.0000 0.0000 0.0000 0.0000 0.0000 22.9868
#
#
#
# Elastic Compliance Matrix: (Units=1/GPa)
#
#
# Indices 1 2 3 4 5 6 
#
# 1 0.008960 -0.003212 -0.002965 0.000000 0.000000 0.000000
# 2 -0.003212 0.011445 -0.002753 0.000000 0.000000 0.000000
# 3 -0.002965 -0.002753 0.010984 0.000000 0.000000 0.000000
# 4 0.000000 0.000000 0.000000 0.107607 0.000000 0.000000
# 5 0.000000 0.000000 0.000000 0.000000 0.044707 0.000000
# 6 0.000000 0.000000 0.000000 0.000000 0.000000 0.043503
#
#
# Mechanical properties :
#
#
# Convention : Reuss Voigt Hill
#
# Bulk Modulus (GPa) = 73.91920 75.86631 74.89275
# Shear Modulus (GPa) = 20.03399 26.04375 23.03887
#
# Velocity S-wave (km/s) = 3.24415 3.69887 3.47895
# Velocity P-wave (km/s) = 7.27082 7.62215 7.44856
#
# Compressibility (1/GPa) = 0.01352828
#
# Stress axis : x y z
#
# Youngs Moduli (GPa) = 111.60696 87.37476 91.04460
#
# Poissons Ratio (x) = 0.28068 0.26995
# Poissons Ratio (y) = 0.35852 0.25063
# Poissons Ratio (z) = 0.33091 0.24052
#
# Static dielectric constant tensor:
#      x y z
#    x 3.524750 0.000000 0.000000 
#    y 0.000000 3.492340 0.000000 
#    z 0.000000 0.000000 3.613070 
# 
# 
# High freq. dielectric constant tensor:
#      x y z
#    x 1.732860 0.000000 0.000000 
#    y 0.000000 1.720140 0.000000 
#    z 0.000000 0.000000 1.750270 
# 
# From -- ./inp_files/33847.got.cif
#   From: 2010.03.12/outbox.cif.g09.slc.cpg/sg63_17_cif.got.tgz:33847.got - 2010.04.10 19:34:48.
