data_PCOD8257654
_publ_section_title
;
Structure prediction by ZEFSAII (Michael W. Deem and Ramdas Pophale) SiO2 
 PCOD8257654
Probable space group: C M C M
;
_chemical_formula_sum "Si O2"
_cell_formula_units_Z 96
_cell_length_a 8.462968
_cell_length_b 23.262589
_cell_length_c 23.575874
_cell_angle_alpha 90.000000
_cell_angle_beta 90.000000
_cell_angle_gamma 90.000000
_cell_volume 4641.395194
_symmetry_space_group_name_H-M "C M C M"
_symmetry_group_IT_number 63
_symmetry_cell_setting 'orthorhombic'
loop_
_space_group_symop_operation_xyz
x,y,z
-x,-y,1/2+z
x,-y,-z
-x,y,1/2-z
-x,-y,-z
x,y,1/2-z
-x,y,z
x,-y,1/2+z
1/2+x,1/2+y,z
1/2-x,1/2-y,1/2+z
1/2+x,1/2-y,-z
1/2-x,1/2+y,1/2-z
1/2-x,1/2-y,-z
1/2+x,1/2+y,1/2-z
1/2-x,1/2+y,z
1/2+x,1/2-y,1/2+z
loop_
_atom_site_type_symbol
_atom_site_label
_atom_site_fract_x
_atom_site_fract_y
_atom_site_fract_z
Si Si1 0.313763 0.645029 0.909150
Si Si2 0.820384 0.832566 0.814198
Si Si3 0.816452 0.117572 0.468860
Si Si4 0.816311 0.558497 0.136751
Si Si5 0.317381 0.227300 0.414431
Si Si6 0.687384 0.441852 0.184514
O O1 0.500000 0.653140 0.905400
O O2 0.241346 0.708923 0.915952
O O3 0.255127 0.613727 0.851671
O O4 0.269656 0.607615 0.965179
O O5 0.796291 0.814124 0.750000
O O6 0.782196 0.899792 0.822235
O O7 0.699083 0.794648 0.850064
O O8 0.000000 0.821888 0.834243
O O9 0.720371 0.073385 0.429236
O O10 0.780346 0.184464 0.454835
O O11 0.000000 0.105494 0.458503
O O12 0.769612 0.494538 0.153215
O O13 0.000000 0.568012 0.147680
O O14 0.500000 0.226074 0.432737
O O15 0.742877 0.435396 0.250000
O O16 0.500000 0.449744 0.181026
#
# Coordination Sequence:
#
# PCOD8257654 Si02
#       6
#    16  16  16  16  16  16
#     4   9  20  36  56  82 109 143 183 220 260 315
#     4  10  20  34  53  78 107 142 184 225 269 322
#     4  10  19  35  58  82 110 142 179 220 266 319
#     4  11  22  36  55  81 110 137 175 226 277 323
#     4  10  19  33  54  82 113 142 178 222 271 319
#     4  10  21  39  60  79 104 142 184 221 262 317
#
# _framework density 20.683436
#
# number of rings (size 3 to 8) (size 9 to 14) (size 15 to 20)
#    0.000    2.000    0.000    6.000    0.000    5.000 
#    0.000   10.833    0.000    0.000    0.000    0.000 
#    0.000    0.000    0.000    0.000    0.000    0.000 
#
# Total GULP energy -595063.227571 kJ/mol
# GULP energy per Si atom -12397.150574 kJ/mol
# Density = 2.063636 g / cm^3
# Si number density = 20.683436 Si / 1000 Ang^3
#
#
#
# Elastic Constant Matrix: (Units=GPa)
#
#
# Indices 1 2 3 4 5 6 
#
# 1 43.1260 6.2953 16.5791 0.0000 0.0000 0.0000
# 2 6.2953 74.0151 54.1896 0.0000 0.0000 0.0000
# 3 16.5791 54.1896 134.7529 0.0000 0.0000 0.0000
# 4 0.0000 0.0000 0.0000 12.4790 0.0000 0.0000
# 5 0.0000 0.0000 0.0000 0.0000 17.9526 0.0000
# 6 0.0000 0.0000 0.0000 0.0000 0.0000 26.1643
#
#
#
# Elastic Compliance Matrix: (Units=1/GPa)
#
#
# Indices 1 2 3 4 5 6 
#
# 1 0.024341 0.000173 -0.003064 0.000000 0.000000 0.000000
# 2 0.000173 0.019150 -0.007722 0.000000 0.000000 0.000000
# 3 -0.003064 -0.007722 0.010903 0.000000 0.000000 0.000000
# 4 0.000000 0.000000 0.000000 0.080135 0.000000 0.000000
# 5 0.000000 0.000000 0.000000 0.000000 0.055702 0.000000
# 6 0.000000 0.000000 0.000000 0.000000 0.000000 0.038220
#
#
# Mechanical properties :
#
#
# Convention : Reuss Voigt Hill
#
# Bulk Modulus (GPa) = 30.15025 45.11355 37.63190
# Shear Modulus (GPa) = 19.17668 22.97451 21.07560
#
# Velocity S-wave (km/s) = 3.04822 3.33644 3.19558
# Velocity P-wave (km/s) = 5.19591 6.05815 5.64352
#
# Compressibility (1/GPa) = 0.03316722
#
# Stress axis : x y z
#
# Youngs Moduli (GPa) = 41.08356 52.21995 91.71424
#
# Poissons Ratio (x) = -0.00905 0.28105
# Poissons Ratio (y) = -0.00712 0.70824
# Poissons Ratio (z) = 0.12590 0.40325
#
# Static dielectric constant tensor:
#      x y z
#    x 3.520370 0.000000 0.000000 
#    y 0.000000 3.732310 0.000000 
#    z 0.000000 0.000000 3.933880 
# 
# 
# High freq. dielectric constant tensor:
#      x y z
#    x 1.792750 0.000000 0.000000 
#    y 0.000000 1.798320 0.000000 
#    z 0.000000 0.000000 1.819360 
# 
# From -- ./inp_files/59965.got.cif
#   From: 2010.03.12/outbox.cif.g09.slc.cpg/sg63_30_cif.got.tgz:59965.got - 2010.04.10 19:34:48.
