data_PCOD8257787
_publ_section_title
;
Structure prediction by ZEFSAII (Michael W. Deem and Ramdas Pophale) SiO2 
 PCOD8257787
Probable space group: C M C M
;
_chemical_formula_sum "Si O2"
_cell_formula_units_Z 112
_cell_length_a 14.603169
_cell_length_b 23.514753
_cell_length_c 14.936365
_cell_angle_alpha 90.000000
_cell_angle_beta 90.000000
_cell_angle_gamma 90.000000
_cell_volume 5128.997064
_symmetry_space_group_name_H-M "C M C M"
_symmetry_group_IT_number 63
_symmetry_cell_setting 'orthorhombic'
loop_
_space_group_symop_operation_xyz
x,y,z
-x,-y,1/2+z
x,-y,-z
-x,y,1/2-z
-x,-y,-z
x,y,1/2-z
-x,y,z
x,-y,1/2+z
1/2+x,1/2+y,z
1/2-x,1/2-y,1/2+z
1/2+x,1/2-y,-z
1/2-x,1/2+y,1/2-z
1/2-x,1/2-y,-z
1/2+x,1/2+y,1/2-z
1/2-x,1/2+y,z
1/2+x,1/2-y,1/2+z
loop_
_atom_site_type_symbol
_atom_site_label
_atom_site_fract_x
_atom_site_fract_y
_atom_site_fract_z
Si Si1 0.603206 0.240643 0.350647
Si Si2 0.720515 0.834617 0.977836
Si Si3 0.896898 0.357695 0.147449
Si Si4 0.396543 0.643025 0.571037
Si Si5 0.899716 0.983561 0.398524
Si Si6 0.601618 0.011748 0.598505
Si Si7 0.742991 0.066785 0.155271
O O1 0.625479 0.220570 0.250000
O O2 0.500000 0.219840 0.378038
O O3 0.680499 0.216137 0.417426
O O4 0.605134 0.309393 0.351609
O O5 0.708197 0.893401 0.924823
O O6 0.671217 0.830316 0.074635
O O7 0.830286 0.832222 0.992787
O O8 0.863739 0.345695 0.250000
O O9 0.898729 0.423756 0.127695
O O10 0.000000 0.333166 0.134808
O O11 0.500000 0.635376 0.532147
O O12 0.361063 0.581778 0.608725
O O13 0.000000 0.985714 0.351843
O O14 0.910187 0.000000 0.500000
O O15 0.835864 0.031068 0.355844
O O16 0.500000 0.985796 0.600745
O O17 0.644457 0.000000 0.500000
O O18 0.663189 0.978934 0.669118
O O19 0.752234 0.100477 0.250000
#
# Coordination Sequence:
#
# PCOD8257787 Si02
#       7
#    16  16  16  16  16  16  16
#     4  10  23  43  65  93 127 165 215 268 314 374
#     4  12  22  39  63  90 126 169 205 257 323 388
#     4  10  21  36  56  84 118 158 209 266 321 381
#     4  10  22  40  66  92 120 165 218 268 318 371
#     4  10  20  39  64  90 124 166 210 263 324 380
#     4  10  19  34  53  76 115 164 209 255 309 372
#     4  12  24  35  55  90 127 165 209 253 312 388
#
# _framework density 21.836628000000001
#
# number of rings (size 3 to 8) (size 9 to 14) (size 15 to 20)
#    0.000    1.429    2.857    3.000    0.000    2.857 
#    0.000    1.429    0.000    1.286    0.000    2.000 
#    0.000    0.000    0.000    0.000    0.000    0.000 
#
# Total GULP energy -693787.256920 kJ/mol
# GULP energy per Si atom -12389.058159 kJ/mol
# Density = 2.178693 g / cm^3
# Si number density = 21.836628 Si / 1000 Ang^3
#
#
#
# Elastic Constant Matrix: (Units=GPa)
#
#
# Indices 1 2 3 4 5 6 
#
# 1 65.9579 14.7369 32.3213 0.0000 0.0000 0.0000
# 2 14.7369 80.4203 21.2861 0.0000 0.0000 0.0000
# 3 32.3213 21.2861 127.7742 0.0000 0.0000 0.0000
# 4 0.0000 0.0000 0.0000 21.1355 0.0000 0.0000
# 5 0.0000 0.0000 0.0000 0.0000********** 0.0000
# 6 0.0000 0.0000 0.0000 0.0000 0.0000 -3.5440
#
#
#
# Elastic Compliance Matrix: (Units=1/GPa)
#
#
# Indices 1 2 3 4 5 6 
#
# 1 0.017654 -0.002148 -0.004108 0.000000 0.000000 0.000000
# 2 -0.002148 0.013270 -0.001667 0.000000 0.000000 0.000000
# 3 -0.004108 -0.001667 0.009143 0.000000 0.000000 0.000000
# 4 0.000000 0.000000 0.000000 0.047314 0.000000 0.000000
# 5 0.000000 0.000000 0.000000 0.000000 -0.000019 0.000000
# 6 0.000000 0.000000 0.000000 0.000000 0.000000 -0.282171
#
#
# Mechanical properties :
#
#
# Convention : Reuss Voigt Hill
#
# Bulk Modulus (GPa) = 41.28677 45.64901 43.46789
# Shear Modulus (GPa) = -29.25872 -10747.08869 -5388.17370
#
# Velocity S-wave (km/s) = -3.66442 -70.23014 -49.72776
# Velocity P-wave (km/s) = 1.02184 80.96551 57.24670
#
# Compressibility (1/GPa) = 0.02422083
#
# Stress axis : x y z
#
# Youngs Moduli (GPa) = 56.64421 75.36048 109.37101
#
# Poissons Ratio (x) = 0.16186 0.44929
# Poissons Ratio (y) = 0.12166 0.18236
# Poissons Ratio (z) = 0.23269 0.12565
#
# Static dielectric constant tensor:
#      x y z
#    x 4.318710 0.000000 0.000000 
#    y 0.000000 3.753510 0.000000 
#    z 0.000000 0.000000 3.915240 
# 
# 
# High freq. dielectric constant tensor:
#      x y z
#    x 1.868190 0.000000 0.000000 
#    y 0.000000 1.840300 0.000000 
#    z 0.000000 0.000000 1.848880 
# 
# From -- ./inp_files/32332.got.cif
#   From: 2010.03.12/outbox.cif.g09.slc.cpg/sg63_17_cif.got.tgz:32332.got - 2010.04.10 19:34:48.
