data_PCOD8257272
_publ_section_title
;
Structure prediction by ZEFSAII (Michael W. Deem and Ramdas Pophale) SiO2 
 PCOD8257272
Probable space group: C M C M
;
_chemical_formula_sum "Si O2"
_cell_formula_units_Z 80
_cell_length_a 13.115666
_cell_length_b 18.412240
_cell_length_c 19.047457
_cell_angle_alpha 90.000000
_cell_angle_beta 90.000000
_cell_angle_gamma 90.000000
_cell_volume 4599.747346
_symmetry_space_group_name_H-M "C M C M"
_symmetry_group_IT_number 63
_symmetry_cell_setting 'orthorhombic'
loop_
_space_group_symop_operation_xyz
x,y,z
-x,-y,1/2+z
x,-y,-z
-x,y,1/2-z
-x,-y,-z
x,y,1/2-z
-x,y,z
x,-y,1/2+z
1/2+x,1/2+y,z
1/2-x,1/2-y,1/2+z
1/2+x,1/2-y,-z
1/2-x,1/2+y,1/2-z
1/2-x,1/2-y,-z
1/2+x,1/2+y,1/2-z
1/2-x,1/2+y,z
1/2+x,1/2-y,1/2+z
loop_
_atom_site_type_symbol
_atom_site_label
_atom_site_fract_x
_atom_site_fract_y
_atom_site_fract_z
Si Si1 0.618446 0.558988 0.832156
Si Si2 0.694772 0.308445 0.415704
Si Si3 0.315290 0.400203 0.668626
Si Si4 0.886868 0.677028 0.329785
Si Si5 0.115003 0.217467 0.065072
O O1 0.638133 0.569798 0.750000
O O2 0.500000 0.568695 0.851063
O O3 0.685468 0.617206 0.873479
O O4 0.656763 0.480390 0.857447
O O5 0.628636 0.245541 0.379771
O O6 0.813844 0.286329 0.416711
O O7 0.653212 0.320744 0.493895
O O8 0.344587 0.390796 0.750000
O O9 0.194911 0.386276 0.654753
O O10 0.381664 0.342231 0.626243
O O11 0.874862 0.705154 0.250000
O O12 0.000000 0.644899 0.342854
O O13 0.000000 0.246374 0.057548
#
# Coordination Sequence:
#
# PCOD8257272 Si02
#       5
#    16  16  16  16  16
#     4  10  19  32  51  73  98 126 156 197 243 279
#     4  10  20  32  49  74  98 121 158 201 236 279
#     4   9  19  33  48  70  98 127 161 195 233 286
#     4   9  16  29  50  71  93 125 162 199 237 278
#     4  10  20  34  51  70  96 129 159 192 236 283
#
# _framework density 17.39226
#
# number of rings (size 3 to 8) (size 9 to 14) (size 15 to 20)
#    0.000    2.400    0.000    3.000    0.000    4.400 
#    0.000    3.000    0.000    1.200    0.000    8.400 
#    0.000    0.000    0.000    0.000    0.000    0.000 
#
# Total GULP energy -496064.887756 kJ/mol
# GULP energy per Si atom -12401.622194 kJ/mol
# Density = 1.735267 g / cm^3
# Si number density = 17.392260 Si / 1000 Ang^3
#
#
#
# Elastic Constant Matrix: (Units=GPa)
#
#
# Indices 1 2 3 4 5 6 
#
# 1 122.4738 49.1034 34.7318 0.0000 0.0000 0.0000
# 2 49.1034 99.5197 47.1723 0.0000 0.0000 0.0000
# 3 34.7318 47.1723 67.6279 0.0000 0.0000 0.0000
# 4 0.0000 0.0000 0.0000 11.5843 0.0000 0.0000
# 5 0.0000 0.0000 0.0000 0.0000 19.7757 0.0000
# 6 0.0000 0.0000 0.0000 0.0000 0.0000 19.3591
#
#
#
# Elastic Compliance Matrix: (Units=1/GPa)
#
#
# Indices 1 2 3 4 5 6 
#
# 1 0.010488 -0.003917 -0.002654 0.000000 0.000000 0.000000
# 2 -0.003917 0.016474 -0.009480 0.000000 0.000000 0.000000
# 3 -0.002654 -0.009480 0.022762 0.000000 0.000000 0.000000
# 4 0.000000 0.000000 0.000000 0.086323 0.000000 0.000000
# 5 0.000000 0.000000 0.000000 0.000000 0.050567 0.000000
# 6 0.000000 0.000000 0.000000 0.000000 0.000000 0.051655
#
#
# Mechanical properties :
#
#
# Convention : Reuss Voigt Hill
#
# Bulk Modulus (GPa) = 56.74379 61.29296 59.01837
# Shear Modulus (GPa) = 18.09981 20.71810 19.40895
#
# Velocity S-wave (km/s) = 3.22946 3.45516 3.34421
# Velocity P-wave (km/s) = 6.82661 7.15790 6.99422
#
# Compressibility (1/GPa) = 0.01762308
#
# Stress axis : x y z
#
# Youngs Moduli (GPa) = 95.34640 60.70128 43.93222
#
# Poissons Ratio (x) = 0.23775 0.11661
# Poissons Ratio (y) = 0.37344 0.41646
# Poissons Ratio (z) = 0.25309 0.57543
#
# Static dielectric constant tensor:
#      x y z
#    x 3.332850 0.000000 0.000000 
#    y 0.000000 3.056720 0.000000 
#    z 0.000000 0.000000 3.333250 
# 
# 
# High freq. dielectric constant tensor:
#      x y z
#    x 1.676940 0.000000 0.000000 
#    y 0.000000 1.648990 0.000000 
#    z 0.000000 0.000000 1.680080 
# 
# From -- ./inp_files/43926.got.cif
#   From: 2010.03.12/outbox.cif.g09.slc.cpg/sg63_22_cif.got.tgz:43926.got - 2010.04.10 19:34:48.
