data_PCOD8257149
_publ_section_title
;
Structure prediction by ZEFSAII (Michael W. Deem and Ramdas Pophale) SiO2 
 PCOD8257149
Probable space group: C M C M
;
_chemical_formula_sum "Si O2"
_cell_formula_units_Z 88
_cell_length_a 16.235965
_cell_length_b 20.131419
_cell_length_c 12.846894
_cell_angle_alpha 90.000000
_cell_angle_beta 90.000000
_cell_angle_gamma 90.000000
_cell_volume 4199.046028
_symmetry_space_group_name_H-M "C M C M"
_symmetry_group_IT_number 63
_symmetry_cell_setting 'orthorhombic'
loop_
_space_group_symop_operation_xyz
x,y,z
-x,-y,1/2+z
x,-y,-z
-x,y,1/2-z
-x,-y,-z
x,y,1/2-z
-x,y,z
x,-y,1/2+z
1/2+x,1/2+y,z
1/2-x,1/2-y,1/2+z
1/2+x,1/2-y,-z
1/2-x,1/2+y,1/2-z
1/2-x,1/2-y,-z
1/2+x,1/2+y,1/2-z
1/2-x,1/2+y,z
1/2+x,1/2-y,1/2+z
loop_
_atom_site_type_symbol
_atom_site_label
_atom_site_fract_x
_atom_site_fract_y
_atom_site_fract_z
Si Si1 0.253185 0.573529 0.468184
Si Si2 0.713599 0.105562 0.250000
Si Si3 0.595174 0.245523 0.862504
Si Si4 0.412188 0.009001 0.750000
Si Si5 0.091708 0.604933 0.942953
Si Si6 0.821143 0.798908 0.042641
Si Si7 0.601744 0.236754 0.250000
O O1 0.285321 0.500000 0.500000
O O2 0.273389 0.600456 0.351527
O O3 0.152986 0.576220 0.469831
O O4 0.290500 0.624921 0.553187
O O5 0.648220 0.166068 0.250000
O O6 0.664837 0.037457 0.250000
O O7 0.638550 0.261280 0.750000
O O8 0.500000 0.238518 0.841312
O O9 0.628226 0.175403 0.905757
O O10 0.612296 0.301066 0.948913
O O11 0.500000 0.970518 0.750000
O O12 0.408006 0.055687 0.651523
O O13 0.000000 0.612117 0.992208
O O14 0.865709 0.775817 0.148335
O O15 0.750000 0.750000 0.000000
O O16 0.500000 0.231051 0.250000
#
# Coordination Sequence:
#
# PCOD8257149 Si02
#       7
#    16   8  16   8  16  16   8
#     4  12  26  41  61  95 134 180 224 276 335 408
#     4  12  23  39  62  95 135 176 217 273 322 393
#     4  10  20  36  63  92 125 165 218 276 331 400
#     4  10  19  31  53  84 126 175 213 246 300 386
#     4  10  19  34  55  87 128 176 219 256 313 398
#     4  12  25  41  67  97 133 174 221 282 343 394
#     4  12  27  48  73 101 135 179 236 289 342 409
#
# _framework density 20.957141
#
# number of rings (size 3 to 8) (size 9 to 14) (size 15 to 20)
#    0.000    0.909    6.364    0.818    2.545    4.727 
#    0.000    0.000    0.000    2.182    0.000    0.000 
#    0.000    0.000    0.000    0.000    0.000    0.000 
#
# Total GULP energy -545133.612871 kJ/mol
# GULP energy per Si atom -12389.400293 kJ/mol
# Density = 2.090944 g / cm^3
# Si number density = 20.957141 Si / 1000 Ang^3
#
#
#
# Elastic Constant Matrix: (Units=GPa)
#
#
# Indices 1 2 3 4 5 6 
#
# 1 37.9033 33.3260 28.7435 0.0000 0.0000 0.0000
# 2 33.3260 124.3799 31.6387 0.0000 0.0000 0.0000
# 3 28.7435 31.6387 125.2879 0.0000 0.0000 0.0000
# 4 0.0000 0.0000 0.0000 18.3010 0.0000 0.0000
# 5 0.0000 0.0000 0.0000 0.0000 33.8615 0.0000
# 6 0.0000 0.0000 0.0000 0.0000 0.0000 22.6754
#
#
#
# Elastic Compliance Matrix: (Units=1/GPa)
#
#
# Indices 1 2 3 4 5 6 
#
# 1 0.039261 -0.008793 -0.006787 0.000000 0.000000 0.000000
# 2 -0.008793 0.010561 -0.000650 0.000000 0.000000 0.000000
# 3 -0.006787 -0.000650 0.009703 0.000000 0.000000 0.000000
# 4 0.000000 0.000000 0.000000 0.054642 0.000000 0.000000
# 5 0.000000 0.000000 0.000000 0.000000 0.029532 0.000000
# 6 0.000000 0.000000 0.000000 0.000000 0.000000 0.044101
#
#
# Mechanical properties :
#
#
# Convention : Reuss Voigt Hill
#
# Bulk Modulus (GPa) = 36.94717 52.77637 44.86177
# Shear Modulus (GPa) = 21.80741 27.89177 24.84959
#
# Velocity S-wave (km/s) = 3.22929 3.65210 3.44718
# Velocity P-wave (km/s) = 5.61895 6.55908 6.10713
#
# Compressibility (1/GPa) = 0.02706568
#
# Stress axis : x y z
#
# Youngs Moduli (GPa) = 25.47075 94.68675 103.06436
#
# Poissons Ratio (x) = 0.83259 0.69946
# Poissons Ratio (y) = 0.22397 0.06696
# Poissons Ratio (z) = 0.17286 0.06152
#
# Static dielectric constant tensor:
#      x y z
#    x 3.946700 0.000000 0.000000 
#    y 0.000000 3.849820 0.000000 
#    z 0.000000 0.000000 4.401560 
# 
# 
# High freq. dielectric constant tensor:
#      x y z
#    x 1.792670 0.000000 0.000000 
#    y 0.000000 1.813120 0.000000 
#    z 0.000000 0.000000 1.838490 
# 
# From -- ./inp_files/21170.got.cif
#   From: 2010.03.12/outbox.cif.g09.slc.cpg/sg63_11_cif.got.tgz:21170.got - 2010.04.10 19:34:48.
