data_PCOD8257588
_publ_section_title
;
Structure prediction by ZEFSAII (Michael W. Deem and Ramdas Pophale) SiO2 
 PCOD8257588
Probable space group: C M C M
;
_chemical_formula_sum "Si O2"
_cell_formula_units_Z 96
_cell_length_a 12.517496
_cell_length_b 17.453750
_cell_length_c 23.822598
_cell_angle_alpha 90.000000
_cell_angle_beta 90.000000
_cell_angle_gamma 90.000000
_cell_volume 5204.695599
_symmetry_space_group_name_H-M "C M C M"
_symmetry_group_IT_number 63
_symmetry_cell_setting 'orthorhombic'
loop_
_space_group_symop_operation_xyz
x,y,z
-x,-y,1/2+z
x,-y,-z
-x,y,1/2-z
-x,-y,-z
x,y,1/2-z
-x,y,z
x,-y,1/2+z
1/2+x,1/2+y,z
1/2-x,1/2-y,1/2+z
1/2+x,1/2-y,-z
1/2-x,1/2+y,1/2-z
1/2-x,1/2-y,-z
1/2+x,1/2+y,1/2-z
1/2-x,1/2+y,z
1/2+x,1/2-y,1/2+z
loop_
_atom_site_type_symbol
_atom_site_label
_atom_site_fract_x
_atom_site_fract_y
_atom_site_fract_z
Si Si1 0.746601 0.265659 0.855524
Si Si2 0.878436 0.334425 0.546759
Si Si3 0.871846 0.203012 0.750000
Si Si4 0.232253 0.513626 0.437620
Si Si5 0.874493 0.357243 0.080235
Si Si6 0.373967 0.419953 0.848300
Si Si7 0.626183 0.528792 0.750000
O O1 0.810157 0.279751 0.913231
O O2 0.826821 0.242706 0.805907
O O3 0.662534 0.199084 0.870229
O O4 0.681608 0.339434 0.834722
O O5 0.861815 0.423293 0.563274
O O6 0.847558 0.322256 0.481325
O O7 0.000000 0.312023 0.557256
O O8 0.830540 0.115286 0.750000
O O9 0.000000 0.210188 0.750000
O O10 0.273401 0.500000 0.500000
O O11 0.186776 0.436940 0.409698
O O12 0.337383 0.546232 0.407565
O O13 0.000000 0.372313 0.085677
O O14 0.500000 0.407175 0.847845
O O15 0.333178 0.482322 0.803760
O O16 0.500000 0.531758 0.750000
#
# Coordination Sequence:
#
# PCOD8257588 Si02
#       7
#    16  16   8  16  16  16   8
#     4  11  21  34  53  79 108 137 174 217 268 322
#     4   9  18  33  53  76 105 141 177 216 264 318
#     4  11  23  38  57  79 103 133 173 221 262 305
#     4   9  18  32  52  77 105 140 180 217 257 310
#     4  10  19  33  53  78 108 139 175 220 266 312
#     4  10  20  35  54  76 105 140 175 212 259 314
#     4   9  19  36  54  69  91 129 172 209 251 303
#
# _framework density 18.444883000000001
#
# number of rings (size 3 to 8) (size 9 to 14) (size 15 to 20)
#    0.000    2.167    0.000    3.500    0.000    2.333 
#    0.000    2.083    0.000    1.000    0.000    0.000 
#    0.000    0.000    0.000    0.000    0.000    0.000 
#
# Total GULP energy -595169.152282 kJ/mol
# GULP energy per Si atom -12399.357339 kJ/mol
# Density = 1.840290 g / cm^3
# Si number density = 18.444883 Si / 1000 Ang^3
#
#
#
# Elastic Constant Matrix: (Units=GPa)
#
#
# Indices 1 2 3 4 5 6 
#
# 1 86.5105 44.5821 42.0663 0.0000 0.0000 0.0000
# 2 44.5821 120.8476 47.9538 0.0000 0.0000 0.0000
# 3 42.0663 47.9538 83.7236 0.0000 0.0000 0.0000
# 4 0.0000 0.0000 0.0000 30.4802 0.0000 0.0000
# 5 0.0000 0.0000 0.0000 0.0000 26.8060 0.0000
# 6 0.0000 0.0000 0.0000 0.0000 0.0000 25.8068
#
#
#
# Elastic Compliance Matrix: (Units=1/GPa)
#
#
# Indices 1 2 3 4 5 6 
#
# 1 0.016426 -0.003604 -0.006189 0.000000 0.000000 0.000000
# 2 -0.003604 0.011499 -0.004776 0.000000 0.000000 0.000000
# 3 -0.006189 -0.004776 0.017789 0.000000 0.000000 0.000000
# 4 0.000000 0.000000 0.000000 0.032808 0.000000 0.000000
# 5 0.000000 0.000000 0.000000 0.000000 0.037305 0.000000
# 6 0.000000 0.000000 0.000000 0.000000 0.000000 0.038750
#
#
# Mechanical properties :
#
#
# Convention : Reuss Voigt Hill
#
# Bulk Modulus (GPa) = 60.32329 62.25400 61.28865
# Shear Modulus (GPa) = 26.42148 27.05056 26.73602
#
# Velocity S-wave (km/s) = 3.78889 3.83373 3.81137
# Velocity P-wave (km/s) = 7.20531 7.30898 7.25733
#
# Compressibility (1/GPa) = 0.01657734
#
# Stress axis : x y z
#
# Youngs Moduli (GPa) = 60.87944 86.96062 56.21453
#
# Poissons Ratio (x) = 0.31340 0.34791
# Poissons Ratio (y) = 0.21940 0.26846
# Poissons Ratio (z) = 0.37678 0.41530
#
# Static dielectric constant tensor:
#      x y z
#    x 3.168620 0.000000 0.000000 
#    y 0.000000 3.506610 0.000000 
#    z 0.000000 0.000000 3.437210 
# 
# 
# High freq. dielectric constant tensor:
#      x y z
#    x 1.706580 0.000000 0.000000 
#    y 0.000000 1.725200 0.000000 
#    z 0.000000 0.000000 1.714070 
# 
# From -- ./inp_files/61502.got.cif
#   From: 2010.03.12/outbox.cif.g09.slc.cpg/sg63_31_cif.got.tgz:61502.got - 2010.04.10 19:34:48.
