data_PCOD8257258
_publ_section_title
;
Structure prediction by ZEFSAII (Michael W. Deem and Ramdas Pophale) SiO2 
 PCOD8257258
Probable space group: C M C M
;
_chemical_formula_sum "Si O2"
_cell_formula_units_Z 64
_cell_length_a 23.758446
_cell_length_b 13.181422
_cell_length_c 9.706923
_cell_angle_alpha 90.000000
_cell_angle_beta 90.000000
_cell_angle_gamma 90.000000
_cell_volume 3039.918074
_symmetry_space_group_name_H-M "C M C M"
_symmetry_group_IT_number 63
_symmetry_cell_setting 'orthorhombic'
loop_
_space_group_symop_operation_xyz
x,y,z
-x,-y,1/2+z
x,-y,-z
-x,y,1/2-z
-x,-y,-z
x,y,1/2-z
-x,y,z
x,-y,1/2+z
1/2+x,1/2+y,z
1/2-x,1/2-y,1/2+z
1/2+x,1/2-y,-z
1/2-x,1/2+y,1/2-z
1/2-x,1/2-y,-z
1/2+x,1/2+y,1/2-z
1/2-x,1/2+y,z
1/2+x,1/2-y,1/2+z
loop_
_atom_site_type_symbol
_atom_site_label
_atom_site_fract_x
_atom_site_fract_y
_atom_site_fract_z
Si Si1 0.434185 0.150824 0.250000
Si Si2 0.233041 0.405474 0.412098
Si Si3 0.677888 0.691226 0.096300
Si Si4 0.565242 0.236469 0.536086
Si Si5 0.435781 0.931701 0.250000
O O1 0.500000 0.131115 0.250000
O O2 0.417612 0.218005 0.379519
O O3 0.403099 0.040052 0.250000
O O4 0.208043 0.500000 0.500000
O O5 0.240626 0.432435 0.250000
O O6 0.293511 0.379072 0.481326
O O7 0.192189 0.309543 0.431132
O O8 0.698158 0.659246 0.250000
O O9 0.609587 0.679109 0.088707
O O10 0.500000 0.271177 0.558861
O O11 0.578417 0.131847 0.614559
O O12 0.500000 0.961051 0.250000
#
# Coordination Sequence:
#
# PCOD8257258 Si02
#       5
#     8  16  16  16   8
#     4   9  18  28  42  67 105 149 191 227 263 320
#     4  10  22  40  62  85 111 147 188 239 289 332
#     4  10  21  38  58  85 116 149 191 233 278 336
#     4  10  19  32  50  77 112 151 186 224 277 333
#     4   9  16  28  44  65 101 147 189 221 261 322
#
# _framework density 21.0532
#
# number of rings (size 3 to 8) (size 9 to 14) (size 15 to 20)
#    0.000    2.250    1.250    1.500    1.750    6.000 
#    0.000    0.000    0.000    0.750    0.000    0.000 
#    0.000    0.000    0.000    0.000    0.000    0.000 
#
# Total GULP energy -396490.567751 kJ/mol
# GULP energy per Si atom -12390.330242 kJ/mol
# Density = 2.100528 g / cm^3
# Si number density = 21.053200 Si / 1000 Ang^3
#
#
#
# Elastic Constant Matrix: (Units=GPa)
#
#
# Indices 1 2 3 4 5 6 
#
# 1 80.3170 0.0822 13.3536 0.0000 0.0000 0.0000
# 2 0.0822 31.0258 21.8229 0.0000 0.0000 0.0000
# 3 13.3536 21.8229 153.8719 0.0000 0.0000 0.0000
# 4 0.0000 0.0000 0.0000 36.0973 0.0000 0.0000
# 5 0.0000 0.0000 0.0000 0.0000 21.0733 0.0000
# 6 0.0000 0.0000 0.0000 0.0000 0.0000 14.7632
#
#
#
# Elastic Compliance Matrix: (Units=1/GPa)
#
#
# Indices 1 2 3 4 5 6 
#
# 1 0.012652 0.000821 -0.001214 0.000000 0.000000 0.000000
# 2 0.000821 0.035856 -0.005157 0.000000 0.000000 0.000000
# 3 -0.001214 -0.005157 0.007336 0.000000 0.000000 0.000000
# 4 0.000000 0.000000 0.000000 0.027703 0.000000 0.000000
# 5 0.000000 0.000000 0.000000 0.000000 0.047453 0.000000
# 6 0.000000 0.000000 0.000000 0.000000 0.000000 0.067736
#
#
# Mechanical properties :
#
#
# Convention : Reuss Voigt Hill
#
# Bulk Modulus (GPa) = 22.34989 37.30355 29.82672
# Shear Modulus (GPa) = 22.24691 29.71717 25.98204
#
# Velocity S-wave (km/s) = 3.25422 3.76111 3.51681
# Velocity P-wave (km/s) = 4.97583 6.05131 5.53973
#
# Compressibility (1/GPa) = 0.04474296
#
# Stress axis : x y z
#
# Youngs Moduli (GPa) = 79.04060 27.88931 136.32118
#
# Poissons Ratio (x) = -0.02289 0.16554
# Poissons Ratio (y) = -0.06486 0.70294
# Poissons Ratio (z) = 0.09598 0.14381
#
# Static dielectric constant tensor:
#      x y z
#    x 3.743610 0.000000 0.000000 
#    y 0.000000 3.405990 0.000000 
#    z 0.000000 0.000000 3.643640 
# 
# 
# High freq. dielectric constant tensor:
#      x y z
#    x 1.815960 0.000000 0.000000 
#    y 0.000000 1.772310 0.000000 
#    z 0.000000 0.000000 1.844100 
# 
# From -- ./inp_files/9670.got.cif
#   From: 2010.03.12/outbox.cif.g09.slc.cpg/sg63_5_cif.got.tgz:9670.got - 2010.04.10 19:34:48.
