data_PCOD8257259
_publ_section_title
;
Structure prediction by ZEFSAII (Michael W. Deem and Ramdas Pophale) SiO2 
 PCOD8257259
Probable space group: C M C M
;
_chemical_formula_sum "Si O2"
_cell_formula_units_Z 96
_cell_length_a 24.907041
_cell_length_b 9.182438
_cell_length_c 23.163635
_cell_angle_alpha 90.000000
_cell_angle_beta 90.000000
_cell_angle_gamma 90.000000
_cell_volume 5297.693803
_symmetry_space_group_name_H-M "C M C M"
_symmetry_group_IT_number 63
_symmetry_cell_setting 'orthorhombic'
loop_
_space_group_symop_operation_xyz
x,y,z
-x,-y,1/2+z
x,-y,-z
-x,y,1/2-z
-x,-y,-z
x,y,1/2-z
-x,y,z
x,-y,1/2+z
1/2+x,1/2+y,z
1/2-x,1/2-y,1/2+z
1/2+x,1/2-y,-z
1/2-x,1/2+y,1/2-z
1/2-x,1/2-y,-z
1/2+x,1/2+y,1/2-z
1/2-x,1/2+y,z
1/2+x,1/2-y,1/2+z
loop_
_atom_site_type_symbol
_atom_site_label
_atom_site_fract_x
_atom_site_fract_y
_atom_site_fract_z
Si Si1 0.063161 0.439818 0.683550
Si Si2 0.310145 0.783479 0.480394
Si Si3 0.285985 0.012751 0.875776
Si Si4 0.364033 0.205790 0.685397
Si Si5 0.362228 0.777484 0.598589
Si Si6 0.664892 0.454337 0.606902
O O1 0.078484 0.391518 0.750000
O O2 0.085830 0.601129 0.671404
O O3 0.085353 0.335592 0.632458
O O4 0.000000 0.444507 0.676044
O O5 0.250000 0.750000 0.500000
O O6 0.306217 0.919271 0.436804
O O7 0.352838 0.820686 0.531132
O O8 0.330333 0.632609 0.452624
O O9 0.308422 0.119762 0.826575
O O10 0.311099 0.850717 0.869021
O O11 0.223051 0.996665 0.868226
O O12 0.364160 0.259863 0.750000
O O13 0.369051 0.353719 0.649701
O O14 0.366648 0.604166 0.600692
#
# Coordination Sequence:
#
# PCOD8257259 Si02
#       6
#    16  16  16  16  16  16
#     4   9  20  42  65  79  98 137 190 243 291 338
#     4  11  19  31  51  76 117 157 191 216 250 326
#     4  10  19  32  50  77 113 155 191 214 257 328
#     4   9  20  36  53  75 106 143 186 228 281 336
#     4  11  20  30  55  86 112 140 188 235 271 321
#     4  11  20  31  49  81 117 151 180 221 271 327
#
# _framework density 18.121092999999998
#
# number of rings (size 3 to 8) (size 9 to 14) (size 15 to 20)
#    0.000    1.833    3.333    2.000    0.000    1.333 
#    0.000    4.167    0.000   22.000    0.000    0.000 
#    0.000    0.000    0.000    0.000    0.000    0.000 
#
# Total GULP energy -594709.991462 kJ/mol
# GULP energy per Si atom -12389.791489 kJ/mol
# Density = 1.807985 g / cm^3
# Si number density = 18.121093 Si / 1000 Ang^3
#
#
#
# Elastic Constant Matrix: (Units=GPa)
#
#
# Indices 1 2 3 4 5 6 
#
# 1 86.4554 28.2637 48.3846 0.0000 0.0000 0.0000
# 2 28.2637 119.5542 51.2708 0.0000 0.0000 0.0000
# 3 48.3846 51.2708 90.9384 0.0000 0.0000 0.0000
# 4 0.0000 0.0000 0.0000 22.2532 0.0000 0.0000
# 5 0.0000 0.0000 0.0000 0.0000 27.3636 0.0000
# 6 0.0000 0.0000 0.0000 0.0000 0.0000 13.7720
#
#
#
# Elastic Compliance Matrix: (Units=1/GPa)
#
#
# Indices 1 2 3 4 5 6 
#
# 1 0.016474 -0.000179 -0.008664 0.000000 0.000000 0.000000
# 2 -0.000179 0.011034 -0.006126 0.000000 0.000000 0.000000
# 3 -0.008664 -0.006126 0.019060 0.000000 0.000000 0.000000
# 4 0.000000 0.000000 0.000000 0.044937 0.000000 0.000000
# 5 0.000000 0.000000 0.000000 0.000000 0.036545 0.000000
# 6 0.000000 0.000000 0.000000 0.000000 0.000000 0.072611
#
#
# Mechanical properties :
#
#
# Convention : Reuss Voigt Hill
#
# Bulk Modulus (GPa) = 60.13184 61.42069 60.77626
# Shear Modulus (GPa) = 21.17371 23.94636 22.56003
#
# Velocity S-wave (km/s) = 3.42198 3.63914 3.53223
# Velocity P-wave (km/s) = 6.99061 7.18512 7.08853
#
# Compressibility (1/GPa) = 0.01663013
#
# Stress axis : x y z
#
# Youngs Moduli (GPa) = 60.70128 90.63197 52.46613
#
# Poissons Ratio (x) = 0.01622 0.45458
# Poissons Ratio (y) = 0.01086 0.32138
# Poissons Ratio (z) = 0.52593 0.55517
#
# Static dielectric constant tensor:
#      x y z
#    x 3.020020 0.000000 0.000000 
#    y 0.000000 3.566670 0.000000 
#    z 0.000000 0.000000 3.640980 
# 
# 
# High freq. dielectric constant tensor:
#      x y z
#    x 1.656570 0.000000 0.000000 
#    y 0.000000 1.716410 0.000000 
#    z 0.000000 0.000000 1.703220 
# 
# From -- ./inp_files/64991.got.cif
#   From: 2010.03.12/outbox.cif.g09.slc.cpg/sg63_33_cif.got.tgz:64991.got - 2010.04.10 19:34:48.
