data_PCOD8257521
_publ_section_title
;
Structure prediction by ZEFSAII (Michael W. Deem and Ramdas Pophale) SiO2 
 PCOD8257521
Probable space group: C M C M
;
_chemical_formula_sum "Si O2"
_cell_formula_units_Z 88
_cell_length_a 20.042538
_cell_length_b 27.144526
_cell_length_c 8.937227
_cell_angle_alpha 90.000000
_cell_angle_beta 90.000000
_cell_angle_gamma 90.000000
_cell_volume 4862.255396
_symmetry_space_group_name_H-M "C M C M"
_symmetry_group_IT_number 63
_symmetry_cell_setting 'orthorhombic'
loop_
_space_group_symop_operation_xyz
x,y,z
-x,-y,1/2+z
x,-y,-z
-x,y,1/2-z
-x,-y,-z
x,y,1/2-z
-x,y,z
x,-y,1/2+z
1/2+x,1/2+y,z
1/2-x,1/2-y,1/2+z
1/2+x,1/2-y,-z
1/2-x,1/2+y,1/2-z
1/2-x,1/2-y,-z
1/2+x,1/2+y,1/2-z
1/2-x,1/2+y,z
1/2+x,1/2-y,1/2+z
loop_
_atom_site_type_symbol
_atom_site_label
_atom_site_fract_x
_atom_site_fract_y
_atom_site_fract_z
Si Si1 0.265174 0.634560 0.426781
Si Si2 0.365139 0.829783 0.072761
Si Si3 0.500000 0.448850 0.078617
Si Si4 0.855376 0.946319 0.426931
Si Si5 0.368414 0.282978 0.924063
Si Si6 0.000000 0.214211 0.916539
Si Si7 0.500000 0.168689 0.419344
O O1 0.258426 0.628071 0.250000
O O2 0.192663 0.637752 0.499979
O O3 0.300850 0.587394 0.495178
O O4 0.305308 0.684096 0.469241
O O5 0.365183 0.836525 0.250000
O O6 0.353790 0.772898 0.025227
O O7 0.434741 0.850124 0.006981
O O8 0.500000 0.462878 0.250000
O O9 0.570552 0.422074 0.040175
O O10 0.500000 0.500000 0.000000
O O11 0.841219 0.949741 0.250000
O O12 0.850104 0.000000 0.500000
O O13 0.384107 0.285093 0.750000
O O14 0.433574 0.305378 0.003776
O O15 0.000000 0.192314 0.750000
O O16 0.000000 0.272745 0.918912
O O17 0.500000 0.148029 0.250000
#
# Coordination Sequence:
#
# PCOD8257521 Si02
#       7
#    16  16   8  16  16   8   8
#     4  11  22  34  49  73 102 134 169 208 255 304
#     4  10  19  33  52  74 100 133 170 209 250 297
#     4   8  16  31  52  73  95 125 164 207 250 293
#     4  10  20  36  55  76 101 131 168 211 255 301
#     4   9  19  33  48  68 100 137 172 209 251 297
#     4   9  17  28  46  69  95 131 174 213 250 290
#     4   9  17  31  50  72  98 130 166 206 248 297
#
# _framework density 18.098597999999999
#
# number of rings (size 3 to 8) (size 9 to 14) (size 15 to 20)
#    0.000    2.364    0.000    2.727    0.000    5.818 
#    0.000    1.818    0.000    0.000    0.000    0.636 
#    0.000    0.000    0.000    0.000    0.000    0.000 
#
# Total GULP energy -545444.687008 kJ/mol
# GULP energy per Si atom -12396.470159 kJ/mol
# Density = 1.805740 g / cm^3
# Si number density = 18.098598 Si / 1000 Ang^3
#
#
#
# Elastic Constant Matrix: (Units=GPa)
#
#
# Indices 1 2 3 4 5 6 
#
# 1 174.5448 53.1001 71.6999 0.0000 0.0000 0.0000
# 2 53.1001 56.4403 34.0194 0.0000 0.0000 0.0000
# 3 71.6999 34.0194 91.7585 0.0000 0.0000 0.0000
# 4 0.0000 0.0000 0.0000 22.3637 0.0000 0.0000
# 5 0.0000 0.0000 0.0000 0.0000 31.6903 0.0000
# 6 0.0000 0.0000 0.0000 0.0000 0.0000 16.4048
#
#
#
# Elastic Compliance Matrix: (Units=1/GPa)
#
#
# Indices 1 2 3 4 5 6 
#
# 1 0.009759 -0.005904 -0.005436 0.000000 0.000000 0.000000
# 2 -0.005904 0.026389 -0.005170 0.000000 0.000000 0.000000
# 3 -0.005436 -0.005170 0.017063 0.000000 0.000000 0.000000
# 4 0.000000 0.000000 0.000000 0.044715 0.000000 0.000000
# 5 0.000000 0.000000 0.000000 0.000000 0.031555 0.000000
# 6 0.000000 0.000000 0.000000 0.000000 0.000000 0.060958
#
#
# Mechanical properties :
#
#
# Convention : Reuss Voigt Hill
#
# Bulk Modulus (GPa) = 49.53182 71.15359 60.34270
# Shear Modulus (GPa) = 21.72121 25.02005 23.37063
#
# Velocity S-wave (km/s) = 3.46809 3.72214 3.59736
# Velocity P-wave (km/s) = 6.59273 7.60738 7.11815
#
# Compressibility (1/GPa) = 0.02018904
#
# Stress axis : x y z
#
# Youngs Moduli (GPa) = 102.47465 37.89461 58.60669
#
# Poissons Ratio (x) = 0.22374 0.31860
# Poissons Ratio (y) = 0.60504 0.30300
# Poissons Ratio (z) = 0.55708 0.19592
#
# Static dielectric constant tensor:
#      x y z
#    x 3.583700 0.000000 0.000000 
#    y 0.000000 2.924950 0.000000 
#    z 0.000000 0.000000 3.407210 
# 
# 
# High freq. dielectric constant tensor:
#      x y z
#    x 1.710770 0.000000 0.000000 
#    y 0.000000 1.654220 0.000000 
#    z 0.000000 0.000000 1.715000 
# 
# From -- ./inp_files/6954.got.cif
#   From: 2010.03.12/outbox.cif.g09.slc.cpg/sg63_4_cif.got.tgz:6954.got - 2010.04.10 19:34:48.
