data_PCOD8257341
_publ_section_title
;
Structure prediction by ZEFSAII (Michael W. Deem and Ramdas Pophale) SiO2 
 PCOD8257341
Probable space group: C M C M
;
_chemical_formula_sum "Si O2"
_cell_formula_units_Z 112
_cell_length_a 13.525300
_cell_length_b 17.339208
_cell_length_c 27.707907
_cell_angle_alpha 90.000000
_cell_angle_beta 90.000000
_cell_angle_gamma 90.000000
_cell_volume 6498.002656
_symmetry_space_group_name_H-M "C M C M"
_symmetry_group_IT_number 63
_symmetry_cell_setting 'orthorhombic'
loop_
_space_group_symop_operation_xyz
x,y,z
-x,-y,1/2+z
x,-y,-z
-x,y,1/2-z
-x,-y,-z
x,y,1/2-z
-x,y,z
x,-y,1/2+z
1/2+x,1/2+y,z
1/2-x,1/2-y,1/2+z
1/2+x,1/2-y,-z
1/2-x,1/2+y,1/2-z
1/2-x,1/2-y,-z
1/2+x,1/2+y,1/2-z
1/2-x,1/2+y,z
1/2+x,1/2-y,1/2+z
loop_
_atom_site_type_symbol
_atom_site_label
_atom_site_fract_x
_atom_site_fract_y
_atom_site_fract_z
Si Si1 0.745022 0.945805 0.128258
Si Si2 0.111145 0.693082 0.017482
Si Si3 0.759520 0.295197 0.428790
Si Si4 0.383404 0.546597 0.193760
Si Si5 0.612481 0.862844 0.198143
Si Si6 0.113254 0.793638 0.643780
Si Si7 0.111268 0.471399 0.946795
O O1 0.779906 0.864926 0.104567
O O2 0.657307 0.927385 0.164385
O O3 0.833922 0.983281 0.158689
O O4 0.698229 0.002410 0.088754
O O5 0.164993 0.764315 0.042843
O O6 0.113140 0.621025 0.053569
O O7 0.000000 0.719453 0.006234
O O8 0.161463 0.670350 0.966636
O O9 0.812900 0.224760 0.400435
O O10 0.348448 0.540460 0.250000
O O11 0.500000 0.532917 0.190950
O O12 0.353929 0.629917 0.172385
O O13 0.665457 0.867392 0.250000
O O14 0.500000 0.886529 0.202554
O O15 0.624106 0.775897 0.180730
O O16 0.000000 0.801091 0.624915
O O17 0.000000 0.500561 0.932280
O O18 0.137696 0.500000 0.000000
#
# Coordination Sequence:
#
# PCOD8257341 Si02
#       7
#    16  16  16  16  16  16  16
#     4  11  20  32  51  74 102 131 167 207 246 297
#     4  10  20  34  50  69 100 134 168 204 245 294
#     4  10  20  32  50  75  98 129 166 208 249 290
#     4  10  21  36  53  73 100 136 172 205 245 295
#     4   9  17  29  48  75 101 123 155 206 262 304
#     4   9  17  31  52  73  96 125 163 206 251 298
#     4  10  19  32  52  76 102 134 167 203 250 304
#
# _framework density 17.236066000000001
#
# number of rings (size 3 to 8) (size 9 to 14) (size 15 to 20)
#    0.000    2.143    1.429    2.571    0.000    3.429 
#    0.000    0.000    0.000    0.429    0.000    0.000 
#    0.000    4.571    0.000    0.000    0.000    0.000 
#
# Total GULP energy -694183.813642 kJ/mol
# GULP energy per Si atom -12396.139529 kJ/mol
# Density = 1.719684 g / cm^3
# Si number density = 17.236066 Si / 1000 Ang^3
#
#
#
# Elastic Constant Matrix: (Units=GPa)
#
#
# Indices 1 2 3 4 5 6 
#
# 1 67.8902 41.1228 37.4888 0.0000 0.0000 0.0000
# 2 41.1228 75.3532 38.1443 0.0000 0.0000 0.0000
# 3 37.4888 38.1443 89.0944 0.0000 0.0000 0.0000
# 4 0.0000 0.0000 0.0000 17.5905 0.0000 0.0000
# 5 0.0000 0.0000 0.0000 0.0000 28.5481 0.0000
# 6 0.0000 0.0000 0.0000 0.0000 0.0000 22.1506
#
#
#
# Elastic Compliance Matrix: (Units=1/GPa)
#
#
# Indices 1 2 3 4 5 6 
#
# 1 0.024117 -0.010245 -0.005762 0.000000 0.000000 0.000000
# 2 -0.010245 0.021295 -0.004806 0.000000 0.000000 0.000000
# 3 -0.005762 -0.004806 0.015706 0.000000 0.000000 0.000000
# 4 0.000000 0.000000 0.000000 0.056849 0.000000 0.000000
# 5 0.000000 0.000000 0.000000 0.000000 0.035029 0.000000
# 6 0.000000 0.000000 0.000000 0.000000 0.000000 0.045145
#
#
# Mechanical properties :
#
#
# Convention : Reuss Voigt Hill
#
# Bulk Modulus (GPa) = 51.30221 51.76105 51.53163
# Shear Modulus (GPa) = 20.30350 21.36331 20.83341
#
# Velocity S-wave (km/s) = 3.43587 3.52441 3.48042
# Velocity P-wave (km/s) = 6.75051 6.83065 6.79070
#
# Compressibility (1/GPa) = 0.01949234
#
# Stress axis : x y z
#
# Youngs Moduli (GPa) = 41.46502 46.96009 63.66946
#
# Poissons Ratio (x) = 0.48109 0.36684
# Poissons Ratio (y) = 0.42480 0.30601
# Poissons Ratio (z) = 0.23891 0.22570
#
# Static dielectric constant tensor:
#      x y z
#    x 3.116180 0.000000 0.000000 
#    y 0.000000 3.150400 0.000000 
#    z 0.000000 0.000000 3.367940 
# 
# 
# High freq. dielectric constant tensor:
#      x y z
#    x 1.649390 0.000000 0.000000 
#    y 0.000000 1.663960 0.000000 
#    z 0.000000 0.000000 1.672900 
# 
# From -- ./inp_files/69358.got.cif
#   From: 2010.03.12/outbox.cif.g09.slc.cpg/sg63_35_cif.got.tgz:69358.got - 2010.04.10 19:34:48.
