data_PCOD8257224
_publ_section_title
;
Structure prediction by ZEFSAII (Michael W. Deem and Ramdas Pophale) SiO2 
 PCOD8257224
Probable space group: C M C M
;
_chemical_formula_sum "Si O2"
_cell_formula_units_Z 104
_cell_length_a 26.846763
_cell_length_b 24.163156
_cell_length_c 8.766898
_cell_angle_alpha 90.000000
_cell_angle_beta 90.000000
_cell_angle_gamma 90.000000
_cell_volume 5687.108847
_symmetry_space_group_name_H-M "C M C M"
_symmetry_group_IT_number 63
_symmetry_cell_setting 'orthorhombic'
loop_
_space_group_symop_operation_xyz
x,y,z
-x,-y,1/2+z
x,-y,-z
-x,y,1/2-z
-x,-y,-z
x,y,1/2-z
-x,y,z
x,-y,1/2+z
1/2+x,1/2+y,z
1/2-x,1/2-y,1/2+z
1/2+x,1/2-y,-z
1/2-x,1/2+y,1/2-z
1/2-x,1/2-y,-z
1/2+x,1/2+y,1/2-z
1/2-x,1/2+y,z
1/2+x,1/2-y,1/2+z
loop_
_atom_site_type_symbol
_atom_site_label
_atom_site_fract_x
_atom_site_fract_y
_atom_site_fract_z
Si Si1 0.292321 0.135354 0.430142
Si Si2 0.855911 0.270325 0.070321
Si Si3 0.000000 0.941075 0.572724
Si Si4 0.628895 0.059719 0.568846
Si Si5 0.555375 0.844515 0.428972
Si Si6 0.106861 0.939874 0.930245
Si Si7 0.180338 0.848679 0.568887
O O1 0.293934 0.126007 0.250000
O O2 0.319320 0.191624 0.474208
O O3 0.317964 0.082453 0.509869
O O4 0.236083 0.142238 0.491821
O O5 0.844955 0.278481 0.250000
O O6 0.912939 0.288838 0.033333
O O7 0.844970 0.208414 0.013283
O O8 0.052495 0.912593 0.526580
O O9 0.000000 0.951394 0.750000
O O10 0.000000 0.000000 0.500000
O O11 0.630848 0.055891 0.750000
O O12 0.585403 0.101501 0.511512
O O13 0.617259 0.000000 0.500000
O O14 0.548988 0.850537 0.250000
O O15 0.500000 0.841125 0.504519
O O16 0.112962 0.945448 0.750000
O O17 0.147663 0.898582 0.999274
O O18 0.114908 0.000000 0.000000
O O19 0.179665 0.849054 0.750000
#
# Coordination Sequence:
#
# PCOD8257224 Si02
#       7
#    16  16   8  16  16  16  16
#     4  10  19  32  50  70  97 132 165 201 243 287
#     4   9  17  32  51  71  97 128 161 201 245 289
#     4   8  14  26  46  64  84 116 150 182 221 272
#     4  10  20  34  52  74 102 132 167 206 246 294
#     4   8  15  29  49  73 100 129 160 198 245 294
#     4   9  17  31  47  67  94 122 155 193 236 283
#     4   9  18  31  48  72  99 125 159 204 245 287
#
# _framework density 18.286971999999999
#
# number of rings (size 3 to 8) (size 9 to 14) (size 15 to 20)
#    0.000    2.923    0.000    2.308    0.000    0.923 
#    1.385    4.615    0.000   11.077    0.000    0.000 
#    0.000    0.000    0.000    0.000    0.000    0.000 
#
# Total GULP energy -644336.131061 kJ/mol
# GULP energy per Si atom -12391.079443 kJ/mol
# Density = 1.824535 g / cm^3
# Si number density = 18.286972 Si / 1000 Ang^3
#
#
#
# Elastic Constant Matrix: (Units=GPa)
#
#
# Indices 1 2 3 4 5 6 
#
# 1 177.2247 78.5143 24.3265 0.0000 0.0000 0.0000
# 2 78.5143 102.0222 16.7900 0.0000 0.0000 0.0000
# 3 24.3265 16.7900 30.6447 0.0000 0.0000 0.0000
# 4 0.0000 0.0000 0.0000 23.4241 0.0000 0.0000
# 5 0.0000 0.0000 0.0000 0.0000 19.1882 0.0000
# 6 0.0000 0.0000 0.0000 0.0000 0.0000 19.9258
#
#
#
# Elastic Compliance Matrix: (Units=1/GPa)
#
#
# Indices 1 2 3 4 5 6 
#
# 1 0.008918 -0.006263 -0.003648 0.000000 0.000000 0.000000
# 2 -0.006263 0.015171 -0.003341 0.000000 0.000000 0.000000
# 3 -0.003648 -0.003341 0.037358 0.000000 0.000000 0.000000
# 4 0.000000 0.000000 0.000000 0.042691 0.000000 0.000000
# 5 0.000000 0.000000 0.000000 0.000000 0.052115 0.000000
# 6 0.000000 0.000000 0.000000 0.000000 0.000000 0.050186
#
#
# Mechanical properties :
#
#
# Convention : Reuss Voigt Hill
#
# Bulk Modulus (GPa) = 28.61668 61.01702 44.81685
# Shear Modulus (GPa) = 20.44233 25.19167 22.81700
#
# Velocity S-wave (km/s) = 3.34707 3.71560 3.53614
# Velocity P-wave (km/s) = 5.53352 7.20044 6.42130
#
# Compressibility (1/GPa) = 0.03494466
#
# Stress axis : x y z
#
# Youngs Moduli (GPa) = 112.13623 65.91469 26.76783
#
# Poissons Ratio (x) = 0.41279 0.09765
# Poissons Ratio (y) = 0.70226 0.08943
# Poissons Ratio (z) = 0.40906 0.22021
#
# Static dielectric constant tensor:
#      x y z
#    x 2.777570 0.000000 0.000000 
#    y 0.000000 3.389360 0.000000 
#    z 0.000000 0.000000 3.066650 
# 
# 
# High freq. dielectric constant tensor:
#      x y z
#    x 1.722540 0.000000 0.000000 
#    y 0.000000 1.699390 0.000000 
#    z 0.000000 0.000000 1.679330 
# 
# From -- ./inp_files/12850.got.cif
#   From: 2010.03.12/outbox.cif.g09.slc.cpg/sg63_7_cif.got.tgz:12850.got - 2010.04.10 19:34:48.
