data_PCOD8257328
_publ_section_title
;
Structure prediction by ZEFSAII (Michael W. Deem and Ramdas Pophale) SiO2 
 PCOD8257328
Probable space group: C M C M
;
_chemical_formula_sum "Si O2"
_cell_formula_units_Z 64
_cell_length_a 29.668544
_cell_length_b 15.035045
_cell_length_c 8.858098
_cell_angle_alpha 90.000000
_cell_angle_beta 90.000000
_cell_angle_gamma 90.000000
_cell_volume 3951.313121
_symmetry_space_group_name_H-M "C M C M"
_symmetry_group_IT_number 63
_symmetry_cell_setting 'orthorhombic'
loop_
_space_group_symop_operation_xyz
x,y,z
-x,-y,1/2+z
x,-y,-z
-x,y,1/2-z
-x,-y,-z
x,y,1/2-z
-x,y,z
x,-y,1/2+z
1/2+x,1/2+y,z
1/2-x,1/2-y,1/2+z
1/2+x,1/2-y,-z
1/2-x,1/2+y,1/2-z
1/2-x,1/2-y,-z
1/2+x,1/2+y,1/2-z
1/2-x,1/2+y,z
1/2+x,1/2-y,1/2+z
loop_
_atom_site_type_symbol
_atom_site_label
_atom_site_fract_x
_atom_site_fract_y
_atom_site_fract_z
Si Si1 0.114532 0.735971 0.571175
Si Si2 0.446970 0.091424 0.424182
Si Si3 0.363312 0.405995 0.079529
Si Si4 0.297330 0.259850 0.079674
O O1 0.114501 0.735123 0.750000
O O2 0.076000 0.672510 0.509596
O O3 0.104428 0.836336 0.510041
O O4 0.163815 0.704271 0.509254
O O5 0.432358 0.090590 0.250000
O O6 0.500000 0.104141 0.443614
O O7 0.430721 0.000000 0.500000
O O8 0.381363 0.416907 0.250000
O O9 0.312642 0.363975 0.079570
O O10 0.362766 0.500000 0.000000
O O11 0.293726 0.223006 0.250000
O O12 0.250000 0.250000 0.000000
#
# Coordination Sequence:
#
# PCOD8257328 Si02
#       4
#    16  16  16  16
#     4  10  19  32  52  75 104 138 173 213 257 308
#     4  10  20  35  55  79 107 138 175 218 265 318
#     4   9  18  31  50  74 100 132 171 210 252 305
#     4   9  18  31  49  72 101 133 172 215 257 306
#
# _framework density 16.197147999999999
#
# number of rings (size 3 to 8) (size 9 to 14) (size 15 to 20)
#    1.500    1.000    0.000    3.750    0.000    1.500 
#    0.000    1.250    0.000    3.750    0.000    0.000 
#    0.000    0.000    0.000    0.000    0.000    0.000 
#
# Total GULP energy -396481.478506 kJ/mol
# GULP energy per Si atom -12390.046203 kJ/mol
# Density = 1.616028 g / cm^3
# Si number density = 16.197148 Si / 1000 Ang^3
#
#
#
# Elastic Constant Matrix: (Units=GPa)
#
#
# Indices 1 2 3 4 5 6 
#
# 1 41.6510 36.0225 43.8120 0.0000 0.0000 0.0000
# 2 36.0225 106.3853 64.6572 0.0000 0.0000 0.0000
# 3 43.8120 64.6572 181.5663 0.0000 0.0000 0.0000
# 4 0.0000 0.0000 0.0000 33.8098 0.0000 0.0000
# 5 0.0000 0.0000 0.0000 0.0000 29.3063 0.0000
# 6 0.0000 0.0000 0.0000 0.0000 0.0000 22.7450
#
#
#
# Elastic Compliance Matrix: (Units=1/GPa)
#
#
# Indices 1 2 3 4 5 6 
#
# 1 0.038348 -0.009394 -0.005908 0.000000 0.000000 0.000000
# 2 -0.009394 0.014297 -0.002825 0.000000 0.000000 0.000000
# 3 -0.005908 -0.002825 0.007939 0.000000 0.000000 0.000000
# 4 0.000000 0.000000 0.000000 0.029577 0.000000 0.000000
# 5 0.000000 0.000000 0.000000 0.000000 0.034122 0.000000
# 6 0.000000 0.000000 0.000000 0.000000 0.000000 0.043966
#
#
# Mechanical properties :
#
#
# Convention : Reuss Voigt Hill
#
# Bulk Modulus (GPa) = 41.09963 68.73178 54.91570
# Shear Modulus (GPa) = 23.51674 29.51295 26.51484
#
# Velocity S-wave (km/s) = 3.81452 4.27325 4.05038
# Velocity P-wave (km/s) = 6.69556 8.17766 7.47344
#
# Compressibility (1/GPa) = 0.02433112
#
# Stress axis : x y z
#
# Youngs Moduli (GPa) = 26.07667 69.94286 125.95841
#
# Poissons Ratio (x) = 0.65706 0.74418
# Poissons Ratio (y) = 0.24497 0.35578
# Poissons Ratio (z) = 0.15407 0.19756
#
# Static dielectric constant tensor:
#      x y z
#    x 2.800810 0.000000 0.000000 
#    y 0.000000 2.898670 0.000000 
#    z 0.000000 0.000000 3.344780 
# 
# 
# High freq. dielectric constant tensor:
#      x y z
#    x 1.596100 0.000000 0.000000 
#    y 0.000000 1.606530 0.000000 
#    z 0.000000 0.000000 1.649060 
# 
# From -- ./inp_files/9612.got.cif
#   From: 2010.03.12/outbox.cif.g09.slc.cpg/sg63_5_cif.got.tgz:9612.got - 2010.04.10 19:34:48.
