data_PCOD8257970
_publ_section_title
;
Structure prediction by ZEFSAII (Michael W. Deem and Ramdas Pophale) SiO2 
 PCOD8257970
Probable space group: C M C M
;
_chemical_formula_sum "Si O2"
_cell_formula_units_Z 92
_cell_length_a 11.253656
_cell_length_b 20.571457
_cell_length_c 22.081716
_cell_angle_alpha 90.000000
_cell_angle_beta 90.000000
_cell_angle_gamma 90.000000
_cell_volume 5112.007800
_symmetry_space_group_name_H-M "C M C M"
_symmetry_group_IT_number 63
_symmetry_cell_setting 'orthorhombic'
loop_
_space_group_symop_operation_xyz
x,y,z
-x,-y,1/2+z
x,-y,-z
-x,y,1/2-z
-x,-y,-z
x,y,1/2-z
-x,y,z
x,-y,1/2+z
1/2+x,1/2+y,z
1/2-x,1/2-y,1/2+z
1/2+x,1/2-y,-z
1/2-x,1/2+y,1/2-z
1/2-x,1/2-y,-z
1/2+x,1/2+y,1/2-z
1/2-x,1/2+y,z
1/2+x,1/2-y,1/2+z
loop_
_atom_site_type_symbol
_atom_site_label
_atom_site_fract_x
_atom_site_fract_y
_atom_site_fract_z
Si Si1 0.629606 0.279450 0.426971
Si Si2 0.000000 0.765099 0.750000
Si Si3 0.714033 0.401440 0.136919
Si Si4 0.295159 0.333980 0.552600
Si Si5 0.866641 0.426531 0.480411
Si Si6 0.500000 0.485500 0.319637
Si Si7 0.000000 0.868108 0.642366
Si Si8 0.631709 0.138192 0.750000
O O1 0.500000 0.247819 0.418153
O O2 0.643918 0.335735 0.377746
O O3 0.634317 0.308542 0.494457
O O4 0.730020 0.226156 0.415076
O O5 0.000000 0.809479 0.809725
O O6 0.116492 0.717467 0.750000
O O7 0.796124 0.422250 0.081668
O O8 0.618574 0.457947 0.149019
O O9 0.798923 0.388202 0.192696
O O10 0.197247 0.386472 0.533325
O O11 0.383893 0.365134 0.600619
O O12 0.872091 0.500000 0.500000
O O13 0.000000 0.398518 0.471429
O O14 0.500000 0.463738 0.250000
O O15 0.500000 0.563272 0.323761
O O16 0.500000 0.106300 0.750000
#
# Coordination Sequence:
#
# PCOD8257970 Si02
#       8
#    16   4  16  16  16   8   8   8
#     4  10  19  35  55  87 117 152 192 248 296 358
#     4  10  24  38  58  88 114 154 200 250 302 352
#     4  11  21  38  60  86 118 154 202 246 308 352
#     4  10  21  34  58  84 122 158 195 243 302 360
#     4  10  21  37  57  87 120 158 200 247 300 366
#     4  12  24  39  61  84 120 161 200 256 296 359
#     4  12  22  41  58  88 122 164 201 244 304 369
#     4  10  22  38  60  86 112 152 201 250 295 352
#
# _framework density 17.996842999999998
#
# number of rings (size 3 to 8) (size 9 to 14) (size 15 to 20)
#    0.261    1.217    3.043    3.130    0.000    0.000 
#    1.565    2.609    0.000    0.000    0.000    0.000 
#    0.000    0.000    0.000    0.000    0.000    0.000 
#
# Total GULP energy -570417.264703 kJ/mol
# GULP energy per Si atom -12400.375320 kJ/mol
# Density = 1.795588 g / cm^3
# Si number density = 17.996843 Si / 1000 Ang^3
#
#
#
# Elastic Constant Matrix: (Units=GPa)
#
#
# Indices 1 2 3 4 5 6 
#
# 1 132.1591 36.6959 44.7949 0.0000 0.0000 0.0000
# 2 36.6959 80.4777 20.4284 0.0000 0.0000 0.0000
# 3 44.7949 20.4284 81.7326 0.0000 0.0000 0.0000
# 4 0.0000 0.0000 0.0000 29.5676 0.0000 0.0000
# 5 0.0000 0.0000 0.0000 0.0000 6.2995 0.0000
# 6 0.0000 0.0000 0.0000 0.0000 0.0000 49.7421
#
#
#
# Elastic Compliance Matrix: (Units=1/GPa)
#
#
# Indices 1 2 3 4 5 6 
#
# 1 0.010103 -0.003418 -0.004683 0.000000 0.000000 0.000000
# 2 -0.003418 0.014424 -0.001732 0.000000 0.000000 0.000000
# 3 -0.004683 -0.001732 0.015234 0.000000 0.000000 0.000000
# 4 0.000000 0.000000 0.000000 0.033821 0.000000 0.000000
# 5 0.000000 0.000000 0.000000 0.000000 0.158742 0.000000
# 6 0.000000 0.000000 0.000000 0.000000 0.000000 0.020104
#
#
# Mechanical properties :
#
#
# Convention : Reuss Voigt Hill
#
# Bulk Modulus (GPa) = 49.76125 55.35642 52.55884
# Shear Modulus (GPa) = 17.93452 29.95185 23.94319
#
# Velocity S-wave (km/s) = 3.16022 4.08399 3.65144
# Velocity P-wave (km/s) = 6.40516 7.28453 6.85895
#
# Compressibility (1/GPa) = 0.02009596
#
# Stress axis : x y z
#
# Youngs Moduli (GPa) = 98.98136 69.32910 65.64111
#
# Poissons Ratio (x) = 0.23697 0.30738
# Poissons Ratio (y) = 0.33832 0.11368
# Poissons Ratio (z) = 0.46351 0.12007
#
# Static dielectric constant tensor:
#      x y z
#    x 3.502930 0.000000 0.000000 
#    y 0.000000 3.283520 0.000000 
#    z 0.000000 0.000000 3.113170 
# 
# 
# High freq. dielectric constant tensor:
#      x y z
#    x 1.711850 0.000000 0.000000 
#    y 0.000000 1.697050 0.000000 
#    z 0.000000 0.000000 1.692040 
# 
# From -- ./inp_files/52611.got.cif
#   From: 2010.03.12/outbox.cif.g09.slc.cpg/sg63_27_cif.got.tgz:52611.got - 2010.04.10 19:34:48.
