data_PCOD8257021
_publ_section_title
;
Structure prediction by ZEFSAII (Michael W. Deem and Ramdas Pophale) SiO2 
 PCOD8257021
Probable space group: C M C M
;
_chemical_formula_sum "Si O2"
_cell_formula_units_Z 112
_cell_length_a 14.340471
_cell_length_b 27.631725
_cell_length_c 16.094338
_cell_angle_alpha 90.000000
_cell_angle_beta 90.000000
_cell_angle_gamma 90.000000
_cell_volume 6377.412833
_symmetry_space_group_name_H-M "C M C M"
_symmetry_group_IT_number 63
_symmetry_cell_setting 'orthorhombic'
loop_
_space_group_symop_operation_xyz
x,y,z
-x,-y,1/2+z
x,-y,-z
-x,y,1/2-z
-x,-y,-z
x,y,1/2-z
-x,y,z
x,-y,1/2+z
1/2+x,1/2+y,z
1/2-x,1/2-y,1/2+z
1/2+x,1/2-y,-z
1/2-x,1/2+y,1/2-z
1/2-x,1/2-y,-z
1/2+x,1/2+y,1/2-z
1/2-x,1/2+y,z
1/2+x,1/2-y,1/2+z
loop_
_atom_site_type_symbol
_atom_site_label
_atom_site_fract_x
_atom_site_fract_y
_atom_site_fract_z
Si Si1 0.102540 0.163377 0.540368
Si Si2 0.718938 0.974165 0.086391
Si Si3 0.389879 0.112303 0.990291
Si Si4 0.104819 0.255765 0.843499
Si Si5 0.274235 0.802616 0.965570
Si Si6 0.392679 0.059003 0.157360
Si Si7 0.894988 0.072247 0.845097
O O1 0.112795 0.208107 0.602074
O O2 0.176886 0.167392 0.464799
O O3 0.123514 0.116862 0.594688
O O4 0.000000 0.161584 0.499823
O O5 0.818478 0.967312 0.130873
O O6 0.661409 0.008833 0.146670
O O7 0.660250 0.924775 0.072869
O O8 0.738828 0.000000 0.000000
O O9 0.500000 0.112895 0.971353
O O10 0.347014 0.166318 0.977510
O O11 0.366430 0.097613 0.085944
O O12 0.131085 0.242050 0.750000
O O13 0.178031 0.296149 0.875523
O O14 0.000000 0.277416 0.849371
O O15 0.250000 0.750000 0.000000
O O16 0.371863 0.080209 0.250000
O O17 0.500000 0.045092 0.147256
O O18 0.881784 0.089054 0.750000
O O19 0.000000 0.051509 0.858017
#
# Coordination Sequence:
#
# PCOD8257021 Si02
#       7
#    16  16  16  16  16  16  16
#     4   9  17  31  49  70  95 126 166 207 251 297
#     4  10  19  32  50  73 104 138 168 203 253 313
#     4  10  19  32  50  74 103 136 171 210 254 304
#     4   9  17  29  47  73 101 125 156 205 257 301
#     4  10  19  31  49  74 100 133 171 208 254 304
#     4   9  18  32  51  76 104 133 167 207 252 303
#     4  10  19  31  50  74  97 125 164 210 254 294
#
# _framework density 17.561979999999998
#
# number of rings (size 3 to 8) (size 9 to 14) (size 15 to 20)
#    0.000    2.429    1.429    1.714    0.000    4.857 
#    0.000    1.429    0.000    0.429    0.000    0.000 
#    0.000    0.000    0.000    0.000    0.000    0.000 
#
# Total GULP energy -693923.954709 kJ/mol
# GULP energy per Si atom -12391.499191 kJ/mol
# Density = 1.752201 g / cm^3
# Si number density = 17.561980 Si / 1000 Ang^3
#
#
#
# Elastic Constant Matrix: (Units=GPa)
#
#
# Indices 1 2 3 4 5 6 
#
# 1 115.1219 36.5513 32.3342 0.0000 0.0000 0.0000
# 2 36.5513 67.3555 6.0197 0.0000 0.0000 0.0000
# 3 32.3342 6.0197 46.6884 0.0000 0.0000 0.0000
# 4 0.0000 0.0000 0.0000 -88.9142 0.0000 0.0000
# 5 0.0000 0.0000 0.0000 0.0000 26.2279 0.0000
# 6 0.0000 0.0000 0.0000 0.0000 0.0000 30.9936
#
#
#
# Elastic Compliance Matrix: (Units=1/GPa)
#
#
# Indices 1 2 3 4 5 6 
#
# 1 0.012991 -0.006318 -0.008182 0.000000 0.000000 0.000000
# 2 -0.006318 0.018093 0.002043 0.000000 0.000000 0.000000
# 3 -0.008182 0.002043 0.026822 0.000000 0.000000 0.000000
# 4 0.000000 0.000000 0.000000 -0.011247 0.000000 0.000000
# 5 0.000000 0.000000 0.000000 0.000000 0.038127 0.000000
# 6 0.000000 0.000000 0.000000 0.000000 0.000000 0.032265
#
#
# Mechanical properties :
#
#
# Convention : Reuss Voigt Hill
#
# Bulk Modulus (GPa) = 30.31189 42.10845 36.21017
# Shear Modulus (GPa) = 32.68793 3.94548 18.31671
#
# Velocity S-wave (km/s) = 4.31895 1.50049 3.23302
# Velocity P-wave (km/s) = 6.49373 5.19914 5.88216
#
# Compressibility (1/GPa) = 0.03299035
#
# Stress axis : x y z
#
# Youngs Moduli (GPa) = 76.97884 55.27093 37.28326
#
# Poissons Ratio (x) = 0.34922 0.30505
# Poissons Ratio (y) = 0.48637 -0.07617
# Poissons Ratio (z) = 0.62984 -0.11292
#
# Static dielectric constant tensor:
#      x y z
#    x 3.653560 0.000000 0.000000 
#    y 0.000000 3.247230 0.000000 
#    z 0.000000 0.000000 3.208920 
# 
# 
# High freq. dielectric constant tensor:
#      x y z
#    x 1.689940 0.000000 0.000000 
#    y 0.000000 1.673860 0.000000 
#    z 0.000000 0.000000 1.652100 
# 
# From -- ./inp_files/32802.got.cif
#   From: 2010.03.12/outbox.cif.g09.slc.cpg/sg63_17_cif.got.tgz:32802.got - 2010.04.10 19:34:48.
