data_PCOD8257081
_publ_section_title
;
Structure prediction by ZEFSAII (Michael W. Deem and Ramdas Pophale) SiO2 
 PCOD8257081
Probable space group: C M C M
;
_chemical_formula_sum "Si O2"
_cell_formula_units_Z 80
_cell_length_a 9.236542
_cell_length_b 23.190036
_cell_length_c 20.321197
_cell_angle_alpha 90.000000
_cell_angle_beta 90.000000
_cell_angle_gamma 90.000000
_cell_volume 4352.713859
_symmetry_space_group_name_H-M "C M C M"
_symmetry_group_IT_number 63
_symmetry_cell_setting 'orthorhombic'
loop_
_space_group_symop_operation_xyz
x,y,z
-x,-y,1/2+z
x,-y,-z
-x,y,1/2-z
-x,-y,-z
x,y,1/2-z
-x,y,z
x,-y,1/2+z
1/2+x,1/2+y,z
1/2-x,1/2-y,1/2+z
1/2+x,1/2-y,-z
1/2-x,1/2+y,1/2-z
1/2-x,1/2-y,-z
1/2+x,1/2+y,1/2-z
1/2-x,1/2+y,z
1/2+x,1/2-y,1/2+z
loop_
_atom_site_type_symbol
_atom_site_label
_atom_site_fract_x
_atom_site_fract_y
_atom_site_fract_z
Si Si1 0.834036 0.377376 0.632072
Si Si2 0.327810 0.118676 0.622193
Si Si3 0.172445 0.684576 0.750000
Si Si4 0.327745 0.997231 0.574584
Si Si5 0.164377 0.691895 0.998851
Si Si6 0.327522 0.682650 0.250000
O O1 0.773937 0.440820 0.613715
O O2 0.822284 0.338800 0.567985
O O3 0.731829 0.349759 0.686406
O O4 0.000000 0.380067 0.657526
O O5 0.500000 0.119321 0.624034
O O6 0.265110 0.150620 0.686618
O O7 0.274149 0.052517 0.616646
O O8 0.269564 0.151380 0.557786
O O9 0.226644 0.750797 0.750000
O O10 0.000000 0.683490 0.750000
O O11 0.500000 0.994921 0.569241
O O12 0.264937 0.000000 0.500000
O O13 0.000000 0.706920 0.981265
O O14 0.250000 0.750000 0.000000
O O15 0.500000 0.679593 0.250000
#
# Coordination Sequence:
#
# PCOD8257081 Si02
#       6
#    16  16   8  16  16   8
#     4  10  20  34  55  81 106 137 179 225 271 316
#     4   9  16  28  48  74 104 135 170 215 264 308
#     4   9  18  30  45  69 101 139 178 213 252 308
#     4   9  15  28  51  79 108 133 165 219 276 310
#     4  10  19  31  50  76 106 140 179 221 262 310
#     4  11  23  38  53  73 109 147 176 215 268 324
#
# _framework density 18.379337
#
# number of rings (size 3 to 8) (size 9 to 14) (size 15 to 20)
#    0.000    2.400    2.000    1.500    0.000    3.200 
#    0.000    3.000    0.000    1.800    0.000    5.600 
#    0.000    0.000    0.000    0.000    0.000    0.000 
#
# Total GULP energy -495893.850543 kJ/mol
# GULP energy per Si atom -12397.346264 kJ/mol
# Density = 1.833751 g / cm^3
# Si number density = 18.379337 Si / 1000 Ang^3
#
#
#
# Elastic Constant Matrix: (Units=GPa)
#
#
# Indices 1 2 3 4 5 6 
#
# 1 33.0731 36.9580 29.6507 0.0000 0.0000 0.0000
# 2 36.9580 185.8317 67.1462 0.0000 0.0000 0.0000
# 3 29.6507 67.1462 121.1967 0.0000 0.0000 0.0000
# 4 0.0000 0.0000 0.0000 42.3755 0.0000 0.0000
# 5 0.0000 0.0000 0.0000 0.0000 8.5006 0.0000
# 6 0.0000 0.0000 0.0000 0.0000 0.0000 23.8365
#
#
#
# Elastic Compliance Matrix: (Units=1/GPa)
#
#
# Indices 1 2 3 4 5 6 
#
# 1 0.043510 -0.006010 -0.007315 0.000000 0.000000 0.000000
# 2 -0.006010 0.007558 -0.002717 0.000000 0.000000 0.000000
# 3 -0.007315 -0.002717 0.011546 0.000000 0.000000 0.000000
# 4 0.000000 0.000000 0.000000 0.023599 0.000000 0.000000
# 5 0.000000 0.000000 0.000000 0.000000 0.117639 0.000000
# 6 0.000000 0.000000 0.000000 0.000000 0.000000 0.041952
#
#
# Mechanical properties :
#
#
# Convention : Reuss Voigt Hill
#
# Bulk Modulus (GPa) = 32.75463 67.51236 50.13350
# Shear Modulus (GPa) = 17.35714 28.69896 23.02805
#
# Velocity S-wave (km/s) = 3.07642 3.95584 3.54352
# Velocity P-wave (km/s) = 5.52080 7.59457 6.63915
#
# Compressibility (1/GPa) = 0.03053004
#
# Stress axis : x y z
#
# Youngs Moduli (GPa) = 22.98312 132.30538 86.61021
#
# Poissons Ratio (x) = 0.79518 0.63355
# Poissons Ratio (y) = 0.13813 0.23533
# Poissons Ratio (z) = 0.16812 0.35949
#
# Static dielectric constant tensor:
#      x y z
#    x 2.836860 0.000000 0.000000 
#    y 0.000000 3.481200 0.000000 
#    z 0.000000 0.000000 3.564360 
# 
# 
# High freq. dielectric constant tensor:
#      x y z
#    x 1.648080 0.000000 0.000000 
#    y 0.000000 1.733820 0.000000 
#    z 0.000000 0.000000 1.723100 
# 
# From -- ./inp_files/50960.got.cif
#   From: 2010.03.12/outbox.cif.g09.slc.cpg/sg63_26_cif.got.tgz:50960.got - 2010.04.10 19:34:48.
