data_PCOD8257413
_publ_section_title
;
Structure prediction by ZEFSAII (Michael W. Deem and Ramdas Pophale) SiO2 
 PCOD8257413
Probable space group: C M C M
;
_chemical_formula_sum "Si O2"
_cell_formula_units_Z 104
_cell_length_a 31.645420
_cell_length_b 19.658397
_cell_length_c 9.037408
_cell_angle_alpha 90.000000
_cell_angle_beta 90.000000
_cell_angle_gamma 90.000000
_cell_volume 5622.155517
_symmetry_space_group_name_H-M "C M C M"
_symmetry_group_IT_number 63
_symmetry_cell_setting 'orthorhombic'
loop_
_space_group_symop_operation_xyz
x,y,z
-x,-y,1/2+z
x,-y,-z
-x,y,1/2-z
-x,-y,-z
x,y,1/2-z
-x,y,z
x,-y,1/2+z
1/2+x,1/2+y,z
1/2-x,1/2-y,1/2+z
1/2+x,1/2-y,-z
1/2-x,1/2+y,1/2-z
1/2-x,1/2-y,-z
1/2+x,1/2+y,1/2-z
1/2-x,1/2+y,z
1/2+x,1/2-y,1/2+z
loop_
_atom_site_type_symbol
_atom_site_label
_atom_site_fract_x
_atom_site_fract_y
_atom_site_fract_z
Si Si1 0.808220 0.715229 0.918238
Si Si2 0.500000 0.426101 0.572961
Si Si3 0.342131 0.430804 0.924048
Si Si4 0.403592 0.810513 0.077824
Si Si5 0.548855 0.931424 0.922971
Si Si6 0.079850 0.840523 0.924636
Si Si7 0.221581 0.845831 0.080674
O O1 0.806591 0.744614 0.750000
O O2 0.853505 0.682152 0.949170
O O3 0.772267 0.657722 0.940358
O O4 0.800007 0.775738 0.031417
O O5 0.500000 0.500000 0.500000
O O6 0.500000 0.434485 0.750000
O O7 0.459518 0.383934 0.513901
O O8 0.340268 0.441755 0.750000
O O9 0.376258 0.374599 0.973650
O O10 0.356465 0.500000 0.000000
O O11 0.296230 0.407699 0.982791
O O12 0.414922 0.820558 0.250000
O O13 0.420345 0.737310 0.019008
O O14 0.425675 0.867433 0.981732
O O15 0.556675 0.939238 0.750000
O O16 0.500000 0.919462 0.962131
O O17 0.565621 0.000000 0.000000
O O18 0.077024 0.839607 0.750000
O O19 0.209330 0.859256 0.250000
#
# Coordination Sequence:
#
# PCOD8257413 Si02
#       7
#    16   8  16  16  16  16  16
#     4   9  18  34  55  79 110 143 179 223 273 328
#     4  10  20  36  54  76 105 146 189 228 273 328
#     4  11  21  36  54  77 110 148 190 236 280 327
#     4  10  19  35  59  86 113 146 183 227 276 329
#     4  10  22  40  60  85 115 146 181 223 273 333
#     4   9  19  34  55  79 108 144 186 226 272 328
#     4  10  19  32  53  80 107 142 184 226 275 329
#
# _framework density 18.498242000000001
#
# number of rings (size 3 to 8) (size 9 to 14) (size 15 to 20)
#    0.000    2.154    1.538    1.846    1.077    2.154 
#    0.000    2.308    0.000    0.000    0.000    0.000 
#    0.000    0.000    0.000    0.000    0.000    0.000 
#
# Total GULP energy -644837.055765 kJ/mol
# GULP energy per Si atom -12400.712611 kJ/mol
# Density = 1.845614 g / cm^3
# Si number density = 18.498242 Si / 1000 Ang^3
#
#
#
# Elastic Constant Matrix: (Units=GPa)
#
#
# Indices 1 2 3 4 5 6 
#
# 1 109.0854 64.8531 43.8186 0.0000 0.0000 0.0000
# 2 64.8531 138.3441 49.2640 0.0000 0.0000 0.0000
# 3 43.8186 49.2640 74.2992 0.0000 0.0000 0.0000
# 4 0.0000 0.0000 0.0000 36.7125 0.0000 0.0000
# 5 0.0000 0.0000 0.0000 0.0000 25.1394 0.0000
# 6 0.0000 0.0000 0.0000 0.0000 0.0000 24.5414
#
#
#
# Elastic Compliance Matrix: (Units=1/GPa)
#
#
# Indices 1 2 3 4 5 6 
#
# 1 0.014062 -0.004763 -0.005135 0.000000 0.000000 0.000000
# 2 -0.004763 0.011076 -0.004535 0.000000 0.000000 0.000000
# 3 -0.005135 -0.004535 0.019494 0.000000 0.000000 0.000000
# 4 0.000000 0.000000 0.000000 0.027239 0.000000 0.000000
# 5 0.000000 0.000000 0.000000 0.000000 0.039778 0.000000
# 6 0.000000 0.000000 0.000000 0.000000 0.000000 0.040747
#
#
# Mechanical properties :
#
#
# Convention : Reuss Voigt Hill
#
# Bulk Modulus (GPa) = 63.42655 70.84447 67.13551
# Shear Modulus (GPa) = 26.80722 28.19820 27.50271
#
# Velocity S-wave (km/s) = 3.81094 3.90856 3.86005
# Velocity P-wave (km/s) = 7.32984 7.66487 7.49923
#
# Compressibility (1/GPa) = 0.01576627
#
# Stress axis : x y z
#
# Youngs Moduli (GPa) = 71.11599 90.28395 51.29778
#
# Poissons Ratio (x) = 0.43006 0.26339
# Poissons Ratio (y) = 0.33875 0.23263
# Poissons Ratio (z) = 0.36515 0.40942
#
# Static dielectric constant tensor:
#      x y z
#    x 3.633490 0.000000 0.000000 
#    y 0.000000 3.387630 0.000000 
#    z 0.000000 0.000000 3.294860 
# 
# 
# High freq. dielectric constant tensor:
#      x y z
#    x 1.722970 0.000000 0.000000 
#    y 0.000000 1.710730 0.000000 
#    z 0.000000 0.000000 1.707400 
# 
# From -- ./inp_files/14449.got.cif
#   From: 2010.03.12/outbox.cif.g09.slc.cpg/sg63_8_cif.got.tgz:14449.got - 2010.04.10 19:34:48.
