data_PCOD8257960
_publ_section_title
;
Structure prediction by ZEFSAII (Michael W. Deem and Ramdas Pophale) SiO2 
 PCOD8257960
Probable space group: C M C M
;
_chemical_formula_sum "Si O2"
_cell_formula_units_Z 112
_cell_length_a 13.761323
_cell_length_b 32.276009
_cell_length_c 13.832655
_cell_angle_alpha 90.000000
_cell_angle_beta 90.000000
_cell_angle_gamma 90.000000
_cell_volume 6143.920137
_symmetry_space_group_name_H-M "C M C M"
_symmetry_group_IT_number 63
_symmetry_cell_setting 'orthorhombic'
loop_
_space_group_symop_operation_xyz
x,y,z
-x,-y,1/2+z
x,-y,-z
-x,y,1/2-z
-x,-y,-z
x,y,1/2-z
-x,y,z
x,-y,1/2+z
1/2+x,1/2+y,z
1/2-x,1/2-y,1/2+z
1/2+x,1/2-y,-z
1/2-x,1/2+y,1/2-z
1/2-x,1/2-y,-z
1/2+x,1/2+y,1/2-z
1/2-x,1/2+y,z
1/2+x,1/2-y,1/2+z
loop_
_atom_site_type_symbol
_atom_site_label
_atom_site_fract_x
_atom_site_fract_y
_atom_site_fract_z
Si Si1 0.113806 0.440859 0.044871
Si Si2 0.884380 0.809500 0.642572
Si Si3 0.106268 0.036348 0.423527
Si Si4 0.689785 0.021414 0.142550
Si Si5 0.711336 0.136726 0.863616
Si Si6 0.892603 0.718892 0.635498
Si Si7 0.388913 0.374732 0.014308
O O1 0.171477 0.474554 0.107974
O O2 0.144521 0.395558 0.078780
O O3 0.000000 0.447528 0.060834
O O4 0.139587 0.446582 0.931543
O O5 0.841749 0.818672 0.750000
O O6 0.850939 0.764031 0.603985
O O7 0.847672 0.844875 0.570031
O O8 0.000000 0.809955 0.648579
O O9 0.194069 0.029165 0.349470
O O10 0.123799 0.078581 0.480645
O O11 0.000000 0.037613 0.370896
O O12 0.107956 0.000000 0.500000
O O13 0.646454 0.027926 0.250000
O O14 0.697127 0.129668 0.750000
O O15 0.678509 0.182342 0.898152
O O16 0.824384 0.131679 0.890182
O O17 0.901735 0.719219 0.750000
O O18 0.000000 0.711285 0.590738
O O19 0.500000 0.364104 0.041259
#
# Coordination Sequence:
#
# PCOD8257960 Si02
#       7
#    16  16  16  16  16  16  16
#     4  11  23  39  56  79 107 137 179 221 264 321
#     4   8  15  30  52  77 106 136 169 214 266 317
#     4  10  19  35  55  75 108 143 176 217 257 305
#     4  11  21  36  57  80 107 138 175 218 268 316
#     4  11  21  34  53  77 105 139 180 222 268 316
#     4   8  15  29  50  77 105 133 169 217 267 313
#     4  10  20  34  52  76 105 139 179 219 264 319
#
# _framework density 18.229403000000001
#
# number of rings (size 3 to 8) (size 9 to 14) (size 15 to 20)
#    0.000    2.143    2.857    2.571    0.000    4.286 
#    0.000    1.429    0.000    4.286    0.000    0.000 
#    0.000    3.429    0.000    0.000    0.000    0.000 
#
# Total GULP energy -694167.566503 kJ/mol
# GULP energy per Si atom -12395.849402 kJ/mol
# Density = 1.818791 g / cm^3
# Si number density = 18.229403 Si / 1000 Ang^3
#
#
#
# Elastic Constant Matrix: (Units=GPa)
#
#
# Indices 1 2 3 4 5 6 
#
# 1 92.4195 30.8192 19.9123 0.0000 0.0000 0.0000
# 2 30.8192 137.0496 41.0051 0.0000 0.0000 0.0000
# 3 19.9123 41.0051 85.3255 0.0000 0.0000 0.0000
# 4 0.0000 0.0000 0.0000 19.2465 0.0000 0.0000
# 5 0.0000 0.0000 0.0000 0.0000 12.9463 0.0000
# 6 0.0000 0.0000 0.0000 0.0000 0.0000 44.8961
#
#
#
# Elastic Compliance Matrix: (Units=1/GPa)
#
#
# Indices 1 2 3 4 5 6 
#
# 1 0.011915 -0.002158 -0.001744 0.000000 0.000000 0.000000
# 2 -0.002158 0.008913 -0.003780 0.000000 0.000000 0.000000
# 3 -0.001744 -0.003780 0.013943 0.000000 0.000000 0.000000
# 4 0.000000 0.000000 0.000000 0.051957 0.000000 0.000000
# 5 0.000000 0.000000 0.000000 0.000000 0.077242 0.000000
# 6 0.000000 0.000000 0.000000 0.000000 0.000000 0.022274
#
#
# Mechanical properties :
#
#
# Convention : Reuss Voigt Hill
#
# Bulk Modulus (GPa) = 51.52240 55.36308 53.44274
# Shear Modulus (GPa) = 24.02962 30.28833 27.15898
#
# Velocity S-wave (km/s) = 3.63461 4.08058 3.86404
# Velocity P-wave (km/s) = 6.77780 7.25518 7.02055
#
# Compressibility (1/GPa) = 0.01940903
#
# Stress axis : x y z
#
# Youngs Moduli (GPa) = 83.92437 112.19912 71.71976
#
# Poissons Ratio (x) = 0.24210 0.12506
# Poissons Ratio (y) = 0.18109 0.27108
# Poissons Ratio (z) = 0.14634 0.42407
#
# Static dielectric constant tensor:
#      x y z
#    x 3.476040 0.000000 0.000000 
#    y 0.000000 3.653190 0.000000 
#    z 0.000000 0.000000 3.154400 
# 
# 
# High freq. dielectric constant tensor:
#      x y z
#    x 1.697490 0.000000 0.000000 
#    y 0.000000 1.717710 0.000000 
#    z 0.000000 0.000000 1.678360 
# 
# From -- ./inp_files/32794.got.cif
#   From: 2010.03.12/outbox.cif.g09.slc.cpg/sg63_17_cif.got.tgz:32794.got - 2010.04.10 19:34:48.
