data_PCOD8257742
_publ_section_title
;
Structure prediction by ZEFSAII (Michael W. Deem and Ramdas Pophale) SiO2 
 PCOD8257742
Probable space group: C M C M
;
_chemical_formula_sum "Si O2"
_cell_formula_units_Z 96
_cell_length_a 28.115652
_cell_length_b 19.877932
_cell_length_c 9.018098
_cell_angle_alpha 90.000000
_cell_angle_beta 90.000000
_cell_angle_gamma 90.000000
_cell_volume 5040.043796
_symmetry_space_group_name_H-M "C M C M"
_symmetry_group_IT_number 63
_symmetry_cell_setting 'orthorhombic'
loop_
_space_group_symop_operation_xyz
x,y,z
-x,-y,1/2+z
x,-y,-z
-x,y,1/2-z
-x,-y,-z
x,y,1/2-z
-x,y,z
x,-y,1/2+z
1/2+x,1/2+y,z
1/2-x,1/2-y,1/2+z
1/2+x,1/2-y,-z
1/2-x,1/2+y,1/2-z
1/2-x,1/2-y,-z
1/2+x,1/2+y,1/2-z
1/2-x,1/2+y,z
1/2+x,1/2-y,1/2+z
loop_
_atom_site_type_symbol
_atom_site_label
_atom_site_fract_x
_atom_site_fract_y
_atom_site_fract_z
Si Si1 0.784861 0.841194 0.419871
Si Si2 0.595815 0.816575 0.425035
Si Si3 0.444379 0.672752 0.423489
Si Si4 0.624673 0.572250 0.574116
Si Si5 0.692644 0.186264 0.420309
Si Si6 0.554991 0.937455 0.913128
O O1 0.770961 0.854823 0.250000
O O2 0.826891 0.890063 0.473284
O O3 0.738628 0.854078 0.520624
O O4 0.802094 0.765519 0.442910
O O5 0.594527 0.823620 0.250000
O O6 0.579746 0.742349 0.474983
O O7 0.647673 0.836170 0.484339
O O8 0.559330 0.869020 0.494816
O O9 0.435744 0.659910 0.250000
O O10 0.500000 0.675060 0.461738
O O11 0.420867 0.612718 0.515536
O O12 0.625119 0.500000 0.500000
O O13 0.620515 0.565504 0.750000
O O14 0.684775 0.166820 0.250000
O O15 0.578834 0.930514 0.750000
O O16 0.500000 0.953487 0.892442
O O17 0.579384 0.000000 0.000000
#
# Coordination Sequence:
#
# PCOD8257742 Si02
#       6
#    16  16  16  16  16  16
#     4   9  19  36  56  82 113 145 185 231 283 343
#     4  11  21  35  58  87 120 154 191 239 291 344
#     4  10  22  39  59  85 116 152 198 248 296 347
#     4  11  23  40  61  85 116 154 196 243 296 355
#     4  10  19  33  57  86 115 144 185 233 282 339
#     4  10  21  37  57  81 112 151 193 235 283 342
#
# _framework density 19.047453999999998
#
# number of rings (size 3 to 8) (size 9 to 14) (size 15 to 20)
#    0.000    1.833    1.667    2.500    0.000    5.000 
#    0.000    0.833    0.000    2.000    0.000    0.000 
#    0.000    0.000    0.000    0.000    0.000    0.000 
#
# Total GULP energy -595332.592158 kJ/mol
# GULP energy per Si atom -12402.762337 kJ/mol
# Density = 1.900410 g / cm^3
# Si number density = 19.047454 Si / 1000 Ang^3
#
#
#
# Elastic Constant Matrix: (Units=GPa)
#
#
# Indices 1 2 3 4 5 6 
#
# 1 101.2741 40.4894 48.5467 0.0000 0.0000 0.0000
# 2 40.4894 92.8254 51.9622 0.0000 0.0000 0.0000
# 3 48.5467 51.9622 101.9468 0.0000 0.0000 0.0000
# 4 0.0000 0.0000 0.0000 31.7783 0.0000 0.0000
# 5 0.0000 0.0000 0.0000 0.0000 34.3825 0.0000
# 6 0.0000 0.0000 0.0000 0.0000 0.0000 27.5884
#
#
#
# Elastic Compliance Matrix: (Units=1/GPa)
#
#
# Indices 1 2 3 4 5 6 
#
# 1 0.013437 -0.003189 -0.004773 0.000000 0.000000 0.000000
# 2 -0.003189 0.015831 -0.006550 0.000000 0.000000 0.000000
# 3 -0.004773 -0.006550 0.015421 0.000000 0.000000 0.000000
# 4 0.000000 0.000000 0.000000 0.031468 0.000000 0.000000
# 5 0.000000 0.000000 0.000000 0.000000 0.029085 0.000000
# 6 0.000000 0.000000 0.000000 0.000000 0.000000 0.036247
#
#
# Mechanical properties :
#
#
# Convention : Reuss Voigt Hill
#
# Bulk Modulus (GPa) = 63.84328 64.22698 64.03513
# Shear Modulus (GPa) = 28.45193 29.08637 28.76915
#
# Velocity S-wave (km/s) = 3.86909 3.91199 3.89059
# Velocity P-wave (km/s) = 7.31782 7.36190 7.33989
#
# Compressibility (1/GPa) = 0.01566336
#
# Stress axis : x y z
#
# Youngs Moduli (GPa) = 74.41942 63.16833 64.84801
#
# Poissons Ratio (x) = 0.20146 0.30954
# Poissons Ratio (y) = 0.23734 0.42477
# Poissons Ratio (z) = 0.35522 0.41377
#
# Static dielectric constant tensor:
#      x y z
#    x 3.446480 0.000000 0.000000 
#    y 0.000000 3.399900 0.000000 
#    z 0.000000 0.000000 3.631420 
# 
# 
# High freq. dielectric constant tensor:
#      x y z
#    x 1.739460 0.000000 0.000000 
#    y 0.000000 1.728540 0.000000 
#    z 0.000000 0.000000 1.751280 
# 
# From -- ./inp_files/12354.got.cif
#   From: 2010.03.12/outbox.cif.g09.slc.cpg/sg63_7_cif.got.tgz:12354.got - 2010.04.10 19:34:48.
