data_PCOD8257240
_publ_section_title
;
Structure prediction by ZEFSAII (Michael W. Deem and Ramdas Pophale) SiO2 
 PCOD8257240
Probable space group: C M C M
;
_chemical_formula_sum "Si O2"
_cell_formula_units_Z 80
_cell_length_a 26.304439
_cell_length_b 9.294269
_cell_length_c 17.631569
_cell_angle_alpha 90.000000
_cell_angle_beta 90.000000
_cell_angle_gamma 90.000000
_cell_volume 4310.575368
_symmetry_space_group_name_H-M "C M C M"
_symmetry_group_IT_number 63
_symmetry_cell_setting 'orthorhombic'
loop_
_space_group_symop_operation_xyz
x,y,z
-x,-y,1/2+z
x,-y,-z
-x,y,1/2-z
-x,-y,-z
x,y,1/2-z
-x,y,z
x,-y,1/2+z
1/2+x,1/2+y,z
1/2-x,1/2-y,1/2+z
1/2+x,1/2-y,-z
1/2-x,1/2+y,1/2-z
1/2-x,1/2-y,-z
1/2+x,1/2+y,1/2-z
1/2-x,1/2+y,z
1/2+x,1/2-y,1/2+z
loop_
_atom_site_type_symbol
_atom_site_label
_atom_site_fract_x
_atom_site_fract_y
_atom_site_fract_z
Si Si1 0.297628 0.488637 0.659904
Si Si2 0.109896 0.492366 0.590165
Si Si3 0.700858 0.835583 0.340187
Si Si4 0.500000 0.011481 0.411762
Si Si5 0.500000 0.304248 0.335295
Si Si6 0.610657 0.319063 0.162124
O O1 0.296557 0.485532 0.750000
O O2 0.295334 0.326749 0.628048
O O3 0.249197 0.576192 0.628563
O O4 0.349193 0.564917 0.630669
O O5 0.115932 0.500000 0.500000
O O6 0.149693 0.595233 0.629542
O O7 0.053897 0.551818 0.618063
O O8 0.117609 0.328076 0.616002
O O9 0.699530 0.837539 0.250000
O O10 0.500000 0.000000 0.500000
O O11 0.500000 0.179561 0.395806
O O12 0.500000 0.239074 0.250000
O O13 0.446440 0.388893 0.347329
O O14 0.622166 0.283623 0.250000
#
# Coordination Sequence:
#
# PCOD8257240 Si02
#       6
#    16  16  16   8   8  16
#     4   9  18  32  52  73  96 127 162 196 238 288
#     4  10  19  32  50  73  98 127 160 198 239 282
#     4  10  19  33  51  72  96 126 161 197 236 283
#     4   8  16  30  47  66  94 128 160 190 231 284
#     4   8  14  24  45  72  93 116 155 198 235 276
#     4   9  16  30  50  71  94 125 161 197 235 283
#
# _framework density 18.559007999999999
#
# number of rings (size 3 to 8) (size 9 to 14) (size 15 to 20)
#    0.000    2.800    0.000    1.800    0.000    4.000 
#    0.000    6.000    0.000    2.400    0.000    8.400 
#    0.000    0.000    0.000    0.000    0.000    0.000 
#
# Total GULP energy -495536.659703 kJ/mol
# GULP energy per Si atom -12388.416493 kJ/mol
# Density = 1.851677 g / cm^3
# Si number density = 18.559008 Si / 1000 Ang^3
#
#
#
# Elastic Constant Matrix: (Units=GPa)
#
#
# Indices 1 2 3 4 5 6 
#
# 1 206.6527 94.2859 19.4184 0.0000 0.0000 0.0000
# 2 94.2859 126.6361 13.8519 0.0000 0.0000 0.0000
# 3 19.4184 13.8519 14.3546 0.0000 0.0000 0.0000
# 4 0.0000 0.0000 0.0000 5.8009 0.0000 0.0000
# 5 0.0000 0.0000 0.0000 0.0000 19.4490 0.0000
# 6 0.0000 0.0000 0.0000 0.0000 0.0000 33.8691
#
#
#
# Elastic Compliance Matrix: (Units=1/GPa)
#
#
# Indices 1 2 3 4 5 6 
#
# 1 0.007693 -0.005131 -0.005455 0.000000 0.000000 0.000000
# 2 -0.005131 0.012251 -0.004881 0.000000 0.000000 0.000000
# 3 -0.005455 -0.004881 0.081754 0.000000 0.000000 0.000000
# 4 0.000000 0.000000 0.000000 0.172388 0.000000 0.000000
# 5 0.000000 0.000000 0.000000 0.000000 0.051417 0.000000
# 6 0.000000 0.000000 0.000000 0.000000 0.000000 0.029525
#
#
# Mechanical properties :
#
#
# Convention : Reuss Voigt Hill
#
# Bulk Modulus (GPa) = 14.13160 66.97286 40.55223
# Shear Modulus (GPa) = 12.20855 26.49626 19.35241
#
# Velocity S-wave (km/s) = 2.56759 3.78256 3.23267
# Velocity P-wave (km/s) = 4.05228 7.43248 5.98593
#
# Compressibility (1/GPa) = 0.07076339
#
# Stress axis : x y z
#
# Youngs Moduli (GPa) = 129.99595 81.62879 12.23183
#
# Poissons Ratio (x) = 0.41881 0.06673
# Poissons Ratio (y) = 0.66697 0.05970
# Poissons Ratio (z) = 0.70915 0.39842
#
# Static dielectric constant tensor:
#      x y z
#    x 4.107040 0.000000 0.000000 
#    y 0.000000 3.290940 0.000000 
#    z 0.000000 0.000000 3.120210 
# 
# 
# High freq. dielectric constant tensor:
#      x y z
#    x 1.752550 0.000000 0.000000 
#    y 0.000000 1.691240 0.000000 
#    z 0.000000 0.000000 1.688540 
# 
# From -- ./inp_files/48827.got.cif
#   From: 2010.03.12/outbox.cif.g09.slc.cpg/sg63_25_cif.got.tgz:48827.got - 2010.04.10 19:34:48.
