data_PCOD8257814
_publ_section_title
;
Structure prediction by ZEFSAII (Michael W. Deem and Ramdas Pophale) SiO2 
 PCOD8257814
Probable space group: C M C M
;
_chemical_formula_sum "Si O2"
_cell_formula_units_Z 96
_cell_length_a 11.029287
_cell_length_b 19.403344
_cell_length_c 24.296597
_cell_angle_alpha 90.000000
_cell_angle_beta 90.000000
_cell_angle_gamma 90.000000
_cell_volume 5199.594449
_symmetry_space_group_name_H-M "C M C M"
_symmetry_group_IT_number 63
_symmetry_cell_setting 'orthorhombic'
loop_
_space_group_symop_operation_xyz
x,y,z
-x,-y,1/2+z
x,-y,-z
-x,y,1/2-z
-x,-y,-z
x,y,1/2-z
-x,y,z
x,-y,1/2+z
1/2+x,1/2+y,z
1/2-x,1/2-y,1/2+z
1/2+x,1/2-y,-z
1/2-x,1/2+y,1/2-z
1/2-x,1/2-y,-z
1/2+x,1/2+y,1/2-z
1/2-x,1/2+y,z
1/2+x,1/2-y,1/2+z
loop_
_atom_site_type_symbol
_atom_site_label
_atom_site_fract_x
_atom_site_fract_y
_atom_site_fract_z
Si Si1 0.500000 0.176996 0.314918
Si Si2 0.862874 0.321008 0.386551
Si Si3 0.638198 0.198516 0.006000
Si Si4 0.228255 0.565246 0.686392
Si Si5 0.773644 0.680695 0.120811
Si Si6 0.861206 0.066362 0.312558
Si Si7 0.500000 0.020841 0.314782
O O1 0.500000 0.186954 0.250000
O O2 0.620818 0.211323 0.339888
O O3 0.500000 0.098293 0.337044
O O4 0.858479 0.347289 0.450189
O O5 0.769095 0.365913 0.350377
O O6 0.825954 0.240719 0.384456
O O7 0.000000 0.327450 0.363002
O O8 0.500000 0.230774 0.010326
O O9 0.667952 0.157542 0.062157
O O10 0.750000 0.250000 0.000000
O O11 0.216060 0.587798 0.750000
O O12 0.344291 0.515783 0.676576
O O13 0.116801 0.519685 0.664543
O O14 0.716011 0.612322 0.146287
O O15 0.817376 0.082430 0.250000
O O16 0.000000 0.085420 0.320798
O O17 0.500000 0.025713 0.250000
#
# Coordination Sequence:
#
# PCOD8257814 Si02
#       7
#     8  16  16  16  16  16   8
#     4  11  20  32  53  81 109 140 183 227 275 333
#     4  10  21  36  56  82 110 141 185 232 278 329
#     4   9  19  36  56  80 111 151 194 236 283 337
#     4  10  19  34  55  78 108 144 178 220 276 337
#     4  11  20  35  57  80 110 144 185 231 282 329
#     4  10  21  37  57  81 111 147 186 227 278 341
#     4   9  16  30  53  75  99 138 175 209 258 329
#
# _framework density 18.462978
#
# number of rings (size 3 to 8) (size 9 to 14) (size 15 to 20)
#    0.000    2.000    3.333    1.000    0.000    2.000 
#    1.500    0.833    0.000    4.000    0.000    0.000 
#    0.000    0.000    0.000    0.000    0.000    0.000 
#
# Total GULP energy -594724.490142 kJ/mol
# GULP energy per Si atom -12390.093545 kJ/mol
# Density = 1.842096 g / cm^3
# Si number density = 18.462978 Si / 1000 Ang^3
#
#
#
# Elastic Constant Matrix: (Units=GPa)
#
#
# Indices 1 2 3 4 5 6 
#
# 1 85.7689 23.4558 43.1953 0.0000 0.0000 0.0000
# 2 23.4558 63.9857 45.9006 0.0000 0.0000 0.0000
# 3 43.1953 45.9006 127.2472 0.0000 0.0000 0.0000
# 4 0.0000 0.0000 0.0000 18.2503 0.0000 0.0000
# 5 0.0000 0.0000 0.0000 0.0000 26.5059 0.0000
# 6 0.0000 0.0000 0.0000 0.0000 0.0000 16.3797
#
#
#
# Elastic Compliance Matrix: (Units=1/GPa)
#
#
# Indices 1 2 3 4 5 6 
#
# 1 0.014327 -0.002379 -0.004005 0.000000 0.000000 0.000000
# 2 -0.002379 0.021479 -0.006941 0.000000 0.000000 0.000000
# 3 -0.004005 -0.006941 0.011722 0.000000 0.000000 0.000000
# 4 0.000000 0.000000 0.000000 0.054794 0.000000 0.000000
# 5 0.000000 0.000000 0.000000 0.000000 0.037727 0.000000
# 6 0.000000 0.000000 0.000000 0.000000 0.000000 0.061051
#
#
# Mechanical properties :
#
#
# Convention : Reuss Voigt Hill
#
# Bulk Modulus (GPa) = 47.89491 55.78946 51.84218
# Shear Modulus (GPa) = 21.30294 23.19052 22.24673
#
# Velocity S-wave (km/s) = 3.40048 3.54793 3.47499
# Velocity P-wave (km/s) = 6.43545 6.86049 6.65136
#
# Compressibility (1/GPa) = 0.02087905
#
# Stress axis : x y z
#
# Youngs Moduli (GPa) = 69.79843 46.55641 85.30976
#
# Poissons Ratio (x) = 0.11074 0.34170
# Poissons Ratio (y) = 0.16603 0.59210
# Poissons Ratio (z) = 0.27957 0.32313
#
# Static dielectric constant tensor:
#      x y z
#    x 3.604510 0.000000 0.000000 
#    y 0.000000 3.105530 0.000000 
#    z 0.000000 0.000000 3.657530 
# 
# 
# High freq. dielectric constant tensor:
#      x y z
#    x 1.729690 0.000000 0.000000 
#    y 0.000000 1.678100 0.000000 
#    z 0.000000 0.000000 1.717530 
# 
# From -- ./inp_files/61538.got.cif
#   From: 2010.03.12/outbox.cif.g09.slc.cpg/sg63_31_cif.got.tgz:61538.got - 2010.04.10 19:34:48.
