data_PCOD8257921
_publ_section_title
;
Structure prediction by ZEFSAII (Michael W. Deem and Ramdas Pophale) SiO2 
 PCOD8257921
Probable space group: C M C M
;
_chemical_formula_sum "Si O2"
_cell_formula_units_Z 112
_cell_length_a 14.238435
_cell_length_b 14.059452
_cell_length_c 25.245685
_cell_angle_alpha 90.000000
_cell_angle_beta 90.000000
_cell_angle_gamma 90.000000
_cell_volume 5053.797188
_symmetry_space_group_name_H-M "C M C M"
_symmetry_group_IT_number 63
_symmetry_cell_setting 'orthorhombic'
loop_
_space_group_symop_operation_xyz
x,y,z
-x,-y,1/2+z
x,-y,-z
-x,y,1/2-z
-x,-y,-z
x,y,1/2-z
-x,y,z
x,-y,1/2+z
1/2+x,1/2+y,z
1/2-x,1/2-y,1/2+z
1/2+x,1/2-y,-z
1/2-x,1/2+y,1/2-z
1/2-x,1/2-y,-z
1/2+x,1/2+y,1/2-z
1/2-x,1/2+y,z
1/2+x,1/2-y,1/2+z
loop_
_atom_site_type_symbol
_atom_site_label
_atom_site_fract_x
_atom_site_fract_y
_atom_site_fract_z
Si Si1 0.390237 0.429255 0.350890
Si Si2 0.761658 0.096379 0.189331
Si Si3 0.899712 0.898606 0.474064
Si Si4 0.601833 0.879339 0.402541
Si Si5 0.795150 0.614687 0.495381
Si Si6 0.397066 0.094924 0.106954
Si Si7 0.228447 0.685431 0.690502
O O1 0.500000 0.431776 0.334085
O O2 0.340732 0.529197 0.336142
O O3 0.375869 0.413779 0.412670
O O4 0.337473 0.341811 0.321277
O O5 0.745878 0.066407 0.250000
O O6 0.661283 0.091654 0.160843
O O7 0.795666 0.204288 0.183968
O O8 0.812029 0.844144 0.501521
O O9 0.000000 0.843141 0.480507
O O10 0.912996 0.000000 0.500000
O O11 0.500000 0.830037 0.394101
O O12 0.649486 0.837900 0.455476
O O13 0.663596 0.871293 0.349946
O O14 0.586642 0.989706 0.414184
O O15 0.788641 0.500000 0.500000
O O16 0.841586 0.649962 0.440246
O O17 0.500000 0.142901 0.116603
O O18 0.204240 0.652195 0.750000
#
# Coordination Sequence:
#
# PCOD8257921 Si02
#       7
#    16  16  16  16  16  16  16
#     4  11  22  41  67  92 123 168 214 257 312 382
#     4  11  24  41  61  88 124 161 207 265 317 366
#     4   9  16  28  56  92 123 159 203 248 304 369
#     4  10  19  34  59  87 116 155 197 243 302 366
#     4   9  15  30  55  85 122 153 195 244 296 361
#     4  10  20  35  60  90 120 159 202 245 302 371
#     4  11  24  41  60  88 123 159 206 266 315 365
#
# _framework density 22.161553999999999
#
# number of rings (size 3 to 8) (size 9 to 14) (size 15 to 20)
#    0.000    1.857    2.857    2.571    0.000    4.571 
#    0.000    5.000    0.000    0.000    0.000    0.000 
#    0.000    0.000    0.000    0.000    0.000    0.000 
#
# Total GULP energy -694037.639425 kJ/mol
# GULP energy per Si atom -12393.529275 kJ/mol
# Density = 2.211111 g / cm^3
# Si number density = 22.161554 Si / 1000 Ang^3
#
#
#
# Elastic Constant Matrix: (Units=GPa)
#
#
# Indices 1 2 3 4 5 6 
#
# 1 215.5303 11.7675 76.1737 0.0000 0.0000 0.0000
# 2 11.7675 34.3899 1.5474 0.0000 0.0000 0.0000
# 3 76.1737 1.5474 107.1167 0.0000 0.0000 0.0000
# 4 0.0000 0.0000 0.0000 -25.3581 0.0000 0.0000
# 5 0.0000 0.0000 0.0000 0.0000 27.2085 0.0000
# 6 0.0000 0.0000 0.0000 0.0000 0.0000 12.1488
#
#
#
# Elastic Compliance Matrix: (Units=1/GPa)
#
#
# Indices 1 2 3 4 5 6 
#
# 1 0.006327 -0.001964 -0.004471 0.000000 0.000000 0.000000
# 2 -0.001964 0.029707 0.000967 0.000000 0.000000 0.000000
# 3 -0.004471 0.000967 0.012501 0.000000 0.000000 0.000000
# 4 0.000000 0.000000 0.000000 -0.039435 0.000000 0.000000
# 5 0.000000 0.000000 0.000000 0.000000 0.036753 0.000000
# 6 0.000000 0.000000 0.000000 0.000000 0.000000 0.082313
#
#
# Mechanical properties :
#
#
# Convention : Reuss Voigt Hill
#
# Bulk Modulus (GPa) = 26.59568 59.55712 43.07640
# Shear Modulus (GPa) = 32.97413 20.63639 26.80526
#
# Velocity S-wave (km/s) = 3.86151 3.05483 3.48162
# Velocity P-wave (km/s) = 5.64877 6.27496 5.97008
#
# Compressibility (1/GPa) = 0.03760009
#
# Stress axis : x y z
#
# Youngs Moduli (GPa) = 158.05023 33.66233 79.99301
#
# Poissons Ratio (x) = 0.06611 0.35765
# Poissons Ratio (y) = 0.31038 -0.07738
# Poissons Ratio (z) = 0.70664 -0.03256
#
# Static dielectric constant tensor:
#      x y z
#    x 4.565980 0.000000 0.000000 
#    y 0.000000 3.575890 0.000000 
#    z 0.000000 0.000000 4.217570 
# 
# 
# High freq. dielectric constant tensor:
#      x y z
#    x 1.884740 0.000000 0.000000 
#    y 0.000000 1.845270 0.000000 
#    z 0.000000 0.000000 1.877330 
# 
# From -- ./inp_files/62969.got.cif
#   From: 2010.03.12/outbox.cif.g09.slc.cpg/sg63_32_cif.got.tgz:62969.got - 2010.04.10 19:34:48.
