data_PCOD8257374
_publ_section_title
;
Structure prediction by ZEFSAII (Michael W. Deem and Ramdas Pophale) SiO2 
 PCOD8257374
Probable space group: C M C M
;
_chemical_formula_sum "Si O2"
_cell_formula_units_Z 72
_cell_length_a 16.252404
_cell_length_b 27.027254
_cell_length_c 8.765780
_cell_angle_alpha 90.000000
_cell_angle_beta 90.000000
_cell_angle_gamma 90.000000
_cell_volume 3850.437685
_symmetry_space_group_name_H-M "C M C M"
_symmetry_group_IT_number 63
_symmetry_cell_setting 'orthorhombic'
loop_
_space_group_symop_operation_xyz
x,y,z
-x,-y,1/2+z
x,-y,-z
-x,y,1/2-z
-x,-y,-z
x,y,1/2-z
-x,y,z
x,-y,1/2+z
1/2+x,1/2+y,z
1/2-x,1/2-y,1/2+z
1/2+x,1/2-y,-z
1/2-x,1/2+y,1/2-z
1/2-x,1/2-y,-z
1/2+x,1/2+y,1/2-z
1/2-x,1/2+y,z
1/2+x,1/2-y,1/2+z
loop_
_atom_site_type_symbol
_atom_site_label
_atom_site_fract_x
_atom_site_fract_y
_atom_site_fract_z
Si Si1 0.839071 0.397916 0.930747
Si Si2 0.759731 0.197008 0.427548
Si Si3 0.189185 0.049204 0.574981
Si Si4 0.500000 0.055241 0.568831
Si Si5 0.406791 0.353857 0.423977
O O1 0.853161 0.400378 0.750000
O O2 0.808942 0.342896 0.983760
O O3 0.769332 0.436560 0.978033
O O4 0.922085 0.412743 0.016013
O O5 0.750918 0.203470 0.250000
O O6 0.750000 0.250000 0.500000
O O7 0.850851 0.178760 0.466524
O O8 0.215640 0.041251 0.750000
O O9 0.116805 0.088890 0.560671
O O10 0.152320 0.000000 0.500000
O O11 0.500000 0.050044 0.750000
O O12 0.500000 0.000000 0.500000
O O13 0.394559 0.335899 0.250000
O O14 0.500000 0.346918 0.478246
#
# Coordination Sequence:
#
# PCOD8257374 Si02
#       5
#    16  16  16   8  16
#     4  10  21  38  57  80 110 145 187 231 276 331
#     4  10  21  38  61  84 109 143 182 228 280 332
#     4  10  19  32  52  78 109 146 185 223 268 321
#     4  12  24  38  58  84 116 152 188 234 285 338
#     4   9  19  36  56  79 109 144 181 223 269 319
#
# _framework density 18.699173999999999
#
# number of rings (size 3 to 8) (size 9 to 14) (size 15 to 20)
#    0.000    2.000    0.000    3.667    0.000    4.444 
#    2.000    0.000    0.000    0.000    0.000    0.000 
#    0.000    0.000    0.000    0.000    0.000    0.000 
#
# Total GULP energy -446406.343564 kJ/mol
# GULP energy per Si atom -12400.176210 kJ/mol
# Density = 1.865661 g / cm^3
# Si number density = 18.699174 Si / 1000 Ang^3
#
#
#
# Elastic Constant Matrix: (Units=GPa)
#
#
# Indices 1 2 3 4 5 6 
#
# 1 121.6039 56.3993 42.7015 0.0000 0.0000 0.0000
# 2 56.3993 140.9977 54.4163 0.0000 0.0000 0.0000
# 3 42.7015 54.4163 86.2247 0.0000 0.0000 0.0000
# 4 0.0000 0.0000 0.0000 36.4016 0.0000 0.0000
# 5 0.0000 0.0000 0.0000 0.0000 30.5645 0.0000
# 6 0.0000 0.0000 0.0000 0.0000 0.0000 14.2510
#
#
#
# Elastic Compliance Matrix: (Units=1/GPa)
#
#
# Indices 1 2 3 4 5 6 
#
# 1 0.010831 -0.002991 -0.003477 0.000000 0.000000 0.000000
# 2 -0.002991 0.010202 -0.004957 0.000000 0.000000 0.000000
# 3 -0.003477 -0.004957 0.016448 0.000000 0.000000 0.000000
# 4 0.000000 0.000000 0.000000 0.027471 0.000000 0.000000
# 5 0.000000 0.000000 0.000000 0.000000 0.032718 0.000000
# 6 0.000000 0.000000 0.000000 0.000000 0.000000 0.070171
#
#
# Mechanical properties :
#
#
# Convention : Reuss Voigt Hill
#
# Bulk Modulus (GPa) = 68.34421 72.87336 70.60879
# Shear Modulus (GPa) = 25.56668 29.26403 27.41536
#
# Velocity S-wave (km/s) = 3.70166 3.96029 3.83316
# Velocity P-wave (km/s) = 7.40935 7.74389 7.57847
#
# Compressibility (1/GPa) = 0.01463182
#
# Stress axis : x y z
#
# Youngs Moduli (GPa) = 92.32460 98.02179 60.79844
#
# Poissons Ratio (x) = 0.29317 0.21137
# Poissons Ratio (y) = 0.27613 0.30139
# Poissons Ratio (z) = 0.32097 0.48591
#
# Static dielectric constant tensor:
#      x y z
#    x 3.273200 0.000000 0.000000 
#    y 0.000000 3.553230 0.000000 
#    z 0.000000 0.000000 3.562770 
# 
# 
# High freq. dielectric constant tensor:
#      x y z
#    x 1.721250 0.000000 0.000000 
#    y 0.000000 1.728770 0.000000 
#    z 0.000000 0.000000 1.736350 
# 
# From -- ./inp_files/4610.got.cif
#   From: 2010.03.12/outbox.cif.g09.slc.cpg/sg63_3_cif.got.tgz:4610.got - 2010.04.10 19:34:48.
