data_PCOD8257611
_publ_section_title
;
Structure prediction by ZEFSAII (Michael W. Deem and Ramdas Pophale) SiO2 
 PCOD8257611
Probable space group: C M C M
;
_chemical_formula_sum "Si O2"
_cell_formula_units_Z 96
_cell_length_a 24.642008
_cell_length_b 14.260906
_cell_length_c 13.939502
_cell_angle_alpha 90.000000
_cell_angle_beta 90.000000
_cell_angle_gamma 90.000000
_cell_volume 4898.582989
_symmetry_space_group_name_H-M "C M C M"
_symmetry_group_IT_number 63
_symmetry_cell_setting 'orthorhombic'
loop_
_space_group_symop_operation_xyz
x,y,z
-x,-y,1/2+z
x,-y,-z
-x,y,1/2-z
-x,-y,-z
x,y,1/2-z
-x,y,z
x,-y,1/2+z
1/2+x,1/2+y,z
1/2-x,1/2-y,1/2+z
1/2+x,1/2-y,-z
1/2-x,1/2+y,1/2-z
1/2-x,1/2-y,-z
1/2+x,1/2+y,1/2-z
1/2-x,1/2+y,z
1/2+x,1/2-y,1/2+z
loop_
_atom_site_type_symbol
_atom_site_label
_atom_site_fract_x
_atom_site_fract_y
_atom_site_fract_z
Si Si1 0.754996 0.605944 0.522676
Si Si2 0.650229 0.583355 0.862864
Si Si3 0.647872 0.183408 0.857474
Si Si4 0.437287 0.734063 0.637975
Si Si5 0.181700 0.117716 0.143590
Si Si6 0.436853 0.893762 0.487567
O O1 0.771156 0.500000 0.500000
O O2 0.706673 0.623077 0.598070
O O3 0.807353 0.656856 0.563539
O O4 0.733893 0.646118 0.420822
O O5 0.650740 0.590274 0.750000
O O6 0.599589 0.646531 0.899665
O O7 0.648229 0.473214 0.896122
O O8 0.662097 0.146133 0.750000
O O9 0.640743 0.295474 0.855411
O O10 0.590556 0.143576 0.890725
O O11 0.426525 0.756022 0.750000
O O12 0.500000 0.705922 0.620707
O O13 0.421994 0.828359 0.579150
O O14 0.204292 0.095977 0.250000
O O15 0.500000 0.892282 0.466751
O O16 0.415973 0.000000 0.500000
#
# Coordination Sequence:
#
# PCOD8257611 Si02
#       6
#    16  16  16  16  16  16
#     4  10  19  33  54  77 107 144 182 222 264 312
#     4   9  17  32  54  81 112 144 178 218 268 316
#     4  11  22  36  54  78 107 140 181 222 265 321
#     4   9  18  34  58  85 110 140 182 226 263 308
#     4   9  19  33  51  78 113 148 177 213 264 320
#     4  10  22  40  58  77 104 137 175 222 275 324
#
# _framework density 19.597503
#
# number of rings (size 3 to 8) (size 9 to 14) (size 15 to 20)
#    0.000    2.333    0.000    2.500    0.000    1.667 
#    0.000    5.000    0.000    9.500    0.000    0.000 
#    0.000    0.000    0.000    0.000    0.000    0.000 
#
# Total GULP energy -594834.942167 kJ/mol
# GULP energy per Si atom -12392.394628 kJ/mol
# Density = 1.955290 g / cm^3
# Si number density = 19.597503 Si / 1000 Ang^3
#
#
#
# Elastic Constant Matrix: (Units=GPa)
#
#
# Indices 1 2 3 4 5 6 
#
# 1 68.8032 48.0262 35.6133 0.0000 0.0000 0.0000
# 2 48.0262 103.0211 57.6806 0.0000 0.0000 0.0000
# 3 35.6133 57.6806 71.9575 0.0000 0.0000 0.0000
# 4 0.0000 0.0000 0.0000 28.5066 0.0000 0.0000
# 5 0.0000 0.0000 0.0000 0.0000 30.0016 0.0000
# 6 0.0000 0.0000 0.0000 0.0000 0.0000 19.3901
#
#
#
# Elastic Compliance Matrix: (Units=1/GPa)
#
#
# Indices 1 2 3 4 5 6 
#
# 1 0.022474 -0.007709 -0.004943 0.000000 0.000000 0.000000
# 2 -0.007709 0.020255 -0.012421 0.000000 0.000000 0.000000
# 3 -0.004943 -0.012421 0.026300 0.000000 0.000000 0.000000
# 4 0.000000 0.000000 0.000000 0.035080 0.000000 0.000000
# 5 0.000000 0.000000 0.000000 0.000000 0.033332 0.000000
# 6 0.000000 0.000000 0.000000 0.000000 0.000000 0.051573
#
#
# Mechanical properties :
#
#
# Convention : Reuss Voigt Hill
#
# Bulk Modulus (GPa) = 52.95889 58.49134 55.72512
# Shear Modulus (GPa) = 20.37049 22.41046 21.39047
#
# Velocity S-wave (km/s) = 3.22754 3.38529 3.30735
# Velocity P-wave (km/s) = 6.40088 6.72245 6.56364
#
# Compressibility (1/GPa) = 0.01888257
#
# Stress axis : x y z
#
# Youngs Moduli (GPa) = 44.49555 49.37085 38.02296
#
# Poissons Ratio (x) = 0.38061 0.18796
# Poissons Ratio (y) = 0.34303 0.47227
# Poissons Ratio (z) = 0.21995 0.61322
#
# Static dielectric constant tensor:
#      x y z
#    x 3.407750 0.000000 0.000000 
#    y 0.000000 3.886140 0.000000 
#    z 0.000000 0.000000 3.756570 
# 
# 
# High freq. dielectric constant tensor:
#      x y z
#    x 1.739300 0.000000 0.000000 
#    y 0.000000 1.772800 0.000000 
#    z 0.000000 0.000000 1.773070 
# 
# From -- ./inp_files/35348.got.cif
#   From: 2010.03.12/outbox.cif.g09.slc.cpg/sg63_18_cif.got.tgz:35348.got - 2010.04.10 19:34:48.
