data_PCOD8257227
_publ_section_title
;
Structure prediction by ZEFSAII (Michael W. Deem and Ramdas Pophale) SiO2 
 PCOD8257227
Probable space group: C M C M
;
_chemical_formula_sum "Si O2"
_cell_formula_units_Z 96
_cell_length_a 8.632589
_cell_length_b 27.312316
_cell_length_c 23.514647
_cell_angle_alpha 90.000000
_cell_angle_beta 90.000000
_cell_angle_gamma 90.000000
_cell_volume 5544.189380
_symmetry_space_group_name_H-M "C M C M"
_symmetry_group_IT_number 63
_symmetry_cell_setting 'orthorhombic'
loop_
_space_group_symop_operation_xyz
x,y,z
-x,-y,1/2+z
x,-y,-z
-x,y,1/2-z
-x,-y,-z
x,y,1/2-z
-x,y,z
x,-y,1/2+z
1/2+x,1/2+y,z
1/2-x,1/2-y,1/2+z
1/2+x,1/2-y,-z
1/2-x,1/2+y,1/2-z
1/2-x,1/2-y,-z
1/2+x,1/2+y,1/2-z
1/2-x,1/2+y,z
1/2+x,1/2-y,1/2+z
loop_
_atom_site_type_symbol
_atom_site_label
_atom_site_fract_x
_atom_site_fract_y
_atom_site_fract_z
Si Si1 0.819356 0.513679 0.582243
Si Si2 0.679495 0.318839 0.184651
Si Si3 0.179571 0.674630 0.023931
Si Si4 0.321125 0.921654 0.314323
Si Si5 0.320272 0.762654 0.084316
Si Si6 0.680200 0.571283 0.018747
O O1 0.775266 0.533678 0.644599
O O2 0.777822 0.555208 0.536249
O O3 0.723171 0.464145 0.571463
O O4 0.000000 0.501452 0.577434
O O5 0.722133 0.307762 0.250000
O O6 0.500000 0.310144 0.171915
O O7 0.719441 0.374712 0.169525
O O8 0.778840 0.281965 0.146638
O O9 0.222083 0.713941 0.072222
O O10 0.279867 0.626505 0.035225
O O11 0.000000 0.661132 0.028587
O O12 0.222388 0.695900 0.961929
O O13 0.288138 0.939045 0.250000
O O14 0.500000 0.906723 0.322997
O O15 0.500000 0.748999 0.080772
O O16 0.500000 0.566185 0.004859
#
# Coordination Sequence:
#
# PCOD8257227 Si02
#       6
#    16  16  16  16  16  16
#     4  10  19  32  50  71  97 128 161 197 241 289
#     4  10  20  32  48  72 101 132 163 196 237 284
#     4  10  20  34  51  72  99 128 159 197 242 291
#     4   9  18  32  50  72  97 126 160 198 239 283
#     4  10  20  33  51  74  98 127 161 198 241 286
#     4  11  21  32  48  71  99 128 161 199 238 284
#
# _framework density 17.315425999999999
#
# number of rings (size 3 to 8) (size 9 to 14) (size 15 to 20)
#    0.000    2.000    0.000    5.500    0.000    8.333 
#    0.000    0.000    0.000    1.000    0.000    2.333 
#    0.000    0.000    0.000    0.000    0.000    0.000 
#
# Total GULP energy -595396.976692 kJ/mol
# GULP energy per Si atom -12404.103681 kJ/mol
# Density = 1.727602 g / cm^3
# Si number density = 17.315426 Si / 1000 Ang^3
#
#
#
# Elastic Constant Matrix: (Units=GPa)
#
#
# Indices 1 2 3 4 5 6 
#
# 1 53.0519 25.9330 20.6538 0.0000 0.0000 0.0000
# 2 25.9330 98.6076 46.4521 0.0000 0.0000 0.0000
# 3 20.6538 46.4521 89.6059 0.0000 0.0000 0.0000
# 4 0.0000 0.0000 0.0000 26.1585 0.0000 0.0000
# 5 0.0000 0.0000 0.0000 0.0000 20.5167 0.0000
# 6 0.0000 0.0000 0.0000 0.0000 0.0000 31.4832
#
#
#
# Elastic Compliance Matrix: (Units=1/GPa)
#
#
# Indices 1 2 3 4 5 6 
#
# 1 0.022133 -0.004522 -0.002757 0.000000 0.000000 0.000000
# 2 -0.004522 0.014342 -0.006393 0.000000 0.000000 0.000000
# 3 -0.002757 -0.006393 0.015110 0.000000 0.000000 0.000000
# 4 0.000000 0.000000 0.000000 0.038228 0.000000 0.000000
# 5 0.000000 0.000000 0.000000 0.000000 0.048741 0.000000
# 6 0.000000 0.000000 0.000000 0.000000 0.000000 0.031763
#
#
# Mechanical properties :
#
#
# Convention : Reuss Voigt Hill
#
# Bulk Modulus (GPa) = 41.25276 47.48258 44.36767
# Shear Modulus (GPa) = 24.30237 25.51345 24.90791
#
# Velocity S-wave (km/s) = 3.75041 3.84272 3.79685
# Velocity P-wave (km/s) = 6.52917 6.86807 6.70076
#
# Compressibility (1/GPa) = 0.02424080
#
# Stress axis : x y z
#
# Youngs Moduli (GPa) = 45.18054 69.72591 66.18341
#
# Poissons Ratio (x) = 0.31530 0.18250
# Poissons Ratio (y) = 0.20430 0.42308
# Poissons Ratio (z) = 0.12458 0.44573
#
# Static dielectric constant tensor:
#      x y z
#    x 3.269650 0.000000 0.000000 
#    y 0.000000 3.103690 0.000000 
#    z 0.000000 0.000000 3.204470 
# 
# 
# High freq. dielectric constant tensor:
#      x y z
#    x 1.681760 0.000000 0.000000 
#    y 0.000000 1.657210 0.000000 
#    z 0.000000 0.000000 1.655640 
# 
# From -- ./inp_files/60232.got.cif
#   From: 2010.03.12/outbox.cif.g09.slc.cpg/sg63_31_cif.got.tgz:60232.got - 2010.04.10 19:34:48.
