data_PCOD8257861
_publ_section_title
;
Structure prediction by ZEFSAII (Michael W. Deem and Ramdas Pophale) SiO2 
 PCOD8257861
Probable space group: C M C M
;
_chemical_formula_sum "Si O2"
_cell_formula_units_Z 80
_cell_length_a 19.043191
_cell_length_b 9.094252
_cell_length_c 23.281459
_cell_angle_alpha 90.000000
_cell_angle_beta 90.000000
_cell_angle_gamma 90.000000
_cell_volume 4031.966367
_symmetry_space_group_name_H-M "C M C M"
_symmetry_group_IT_number 63
_symmetry_cell_setting 'orthorhombic'
loop_
_space_group_symop_operation_xyz
x,y,z
-x,-y,1/2+z
x,-y,-z
-x,y,1/2-z
-x,-y,-z
x,y,1/2-z
-x,y,z
x,-y,1/2+z
1/2+x,1/2+y,z
1/2-x,1/2-y,1/2+z
1/2+x,1/2-y,-z
1/2-x,1/2+y,1/2-z
1/2-x,1/2-y,-z
1/2+x,1/2+y,1/2-z
1/2-x,1/2+y,z
1/2+x,1/2-y,1/2+z
loop_
_atom_site_type_symbol
_atom_site_label
_atom_site_fract_x
_atom_site_fract_y
_atom_site_fract_z
Si Si1 0.582163 0.298329 0.133229
Si Si2 0.208210 0.265590 0.060066
Si Si3 0.347113 0.639543 0.750000
Si Si4 0.922986 0.069719 0.439284
Si Si5 0.191758 0.563623 0.376019
Si Si6 0.230325 0.571600 0.250000
O O1 0.500000 0.276265 0.124015
O O2 0.601103 0.332039 0.198172
O O3 0.610580 0.440658 0.099375
O O4 0.618603 0.147932 0.111972
O O5 0.129184 0.206231 0.055375
O O6 0.200877 0.434464 0.078128
O O7 0.246641 0.180589 0.111611
O O8 0.250000 0.250000 0.000000
O O9 0.312465 0.476671 0.750000
O O10 0.280443 0.752016 0.750000
O O11 0.000000 0.121633 0.415476
O O12 0.935720 0.000000 0.500000
O O13 0.195475 0.509715 0.309337
#
# Coordination Sequence:
#
# PCOD8257861 Si02
#       6
#    16  16   8  16  16   8
#     4  10  21  37  57  82 113 151 192 232 281 338
#     4  12  23  37  58  86 115 147 188 234 285 338
#     4  10  19  34  56  82 113 148 186 234 283 334
#     4  10  21  38  58  80 111 148 186 230 280 336
#     4  11  22  36  58  83 114 149 187 238 282 333
#     4  10  20  34  54  82 110 142 186 230 278 328
#
# _framework density 19.841434
#
# number of rings (size 3 to 8) (size 9 to 14) (size 15 to 20)
#    0.000    1.400    0.000    8.100    0.000    0.800 
#    0.000    0.000    0.000    6.000    0.000    1.400 
#    0.000    0.000    0.000    0.000    0.000    0.000 
#
# Total GULP energy -495836.117845 kJ/mol
# GULP energy per Si atom -12395.902946 kJ/mol
# Density = 1.979627 g / cm^3
# Si number density = 19.841434 Si / 1000 Ang^3
#
#
#
# Elastic Constant Matrix: (Units=GPa)
#
#
# Indices 1 2 3 4 5 6 
#
# 1 98.1533 48.2333 22.9229 0.0000 0.0000 0.0000
# 2 48.2333 97.2247 44.4071 0.0000 0.0000 0.0000
# 3 22.9229 44.4071 110.2397 0.0000 0.0000 0.0000
# 4 0.0000 0.0000 0.0000 32.8325 0.0000 0.0000
# 5 0.0000 0.0000 0.0000 0.0000 29.1755 0.0000
# 6 0.0000 0.0000 0.0000 0.0000 0.0000 106.7545
#
#
#
# Elastic Compliance Matrix: (Units=1/GPa)
#
#
# Indices 1 2 3 4 5 6 
#
# 1 0.013474 -0.006623 -0.000134 0.000000 0.000000 0.000000
# 2 -0.006623 0.015860 -0.005012 0.000000 0.000000 0.000000
# 3 -0.000134 -0.005012 0.011118 0.000000 0.000000 0.000000
# 4 0.000000 0.000000 0.000000 0.030458 0.000000 0.000000
# 5 0.000000 0.000000 0.000000 0.000000 0.034275 0.000000
# 6 0.000000 0.000000 0.000000 0.000000 0.000000 0.009367
#
#
# Mechanical properties :
#
#
# Convention : Reuss Voigt Hill
#
# Bulk Modulus (GPa) = 59.12027 59.63825 59.37926
# Shear Modulus (GPa) = 34.78780 46.42282 40.60531
#
# Velocity S-wave (km/s) = 4.19177 4.84228 4.52872
# Velocity P-wave (km/s) = 7.29993 7.83494 7.57216
#
# Compressibility (1/GPa) = 0.01691467
#
# Stress axis : x y z
#
# Youngs Moduli (GPa) = 74.21594 63.04993 89.94614
#
# Poissons Ratio (x) = 0.41761 0.01202
# Poissons Ratio (y) = 0.49157 0.45078
# Poissons Ratio (z) = 0.00992 0.31599
#
# Static dielectric constant tensor:
#      x y z
#    x 3.753750 0.000000 0.000000 
#    y 0.000000 3.081360 0.000000 
#    z 0.000000 0.000000 3.747820 
# 
# 
# High freq. dielectric constant tensor:
#      x y z
#    x 1.770260 0.000000 0.000000 
#    y 0.000000 1.763760 0.000000 
#    z 0.000000 0.000000 1.789680 
# 
# From -- ./inp_files/64309.got.cif
#   From: 2010.03.12/outbox.cif.g09.slc.cpg/sg63_33_cif.got.tgz:64309.got - 2010.04.10 19:34:48.
