data_PCOD8257574
_publ_section_title
;
Structure prediction by ZEFSAII (Michael W. Deem and Ramdas Pophale) SiO2 
 PCOD8257574
Probable space group: C M C M
;
_chemical_formula_sum "Si O2"
_cell_formula_units_Z 96
_cell_length_a 25.146121
_cell_length_b 23.754800
_cell_length_c 8.954038
_cell_angle_alpha 90.000000
_cell_angle_beta 90.000000
_cell_angle_gamma 90.000000
_cell_volume 5348.614686
_symmetry_space_group_name_H-M "C M C M"
_symmetry_group_IT_number 63
_symmetry_cell_setting 'orthorhombic'
loop_
_space_group_symop_operation_xyz
x,y,z
-x,-y,1/2+z
x,-y,-z
-x,y,1/2-z
-x,-y,-z
x,y,1/2-z
-x,y,z
x,-y,1/2+z
1/2+x,1/2+y,z
1/2-x,1/2-y,1/2+z
1/2+x,1/2-y,-z
1/2-x,1/2+y,1/2-z
1/2-x,1/2-y,-z
1/2+x,1/2+y,1/2-z
1/2-x,1/2+y,z
1/2+x,1/2-y,1/2+z
loop_
_atom_site_type_symbol
_atom_site_label
_atom_site_fract_x
_atom_site_fract_y
_atom_site_fract_z
Si Si1 0.311420 0.441737 0.573405
Si Si2 0.691082 0.056303 0.077082
Si Si3 0.907108 0.629269 0.424702
Si Si4 0.000000 0.060019 0.574942
Si Si5 0.000000 0.560822 0.927125
Si Si6 0.897781 0.868854 0.426636
Si Si7 0.059433 0.751195 0.426372
O O1 0.331151 0.500000 0.500000
O O2 0.318307 0.446649 0.750000
O O3 0.250728 0.428849 0.524297
O O4 0.345881 0.390476 0.511467
O O5 0.690981 0.042342 0.250000
O O6 0.652426 0.108263 0.039103
O O7 0.669242 0.000000 0.000000
O O8 0.921582 0.621852 0.250000
O O9 0.909790 0.694504 0.473173
O O10 0.947939 0.593899 0.521936
O O11 0.948220 0.094214 0.524086
O O12 0.000000 0.050899 0.750000
O O13 0.000000 0.000000 0.500000
O O14 0.000000 0.554523 0.750000
O O15 0.000000 0.500000 0.000000
O O16 0.888110 0.871930 0.250000
O O17 0.907705 0.805120 0.483484
O O18 0.053945 0.755978 0.250000
O O19 0.000000 0.750565 0.495998
#
# Coordination Sequence:
#
# PCOD8257574 Si02
#       7
#    16  16  16   8   8  16  16
#     4  10  20  35  53  76 106 138 173 216 266 315
#     4   9  19  34  54  78 104 136 174 217 263 313
#     4  10  19  35  58  80 103 137 180 219 260 311
#     4  10  20  31  46  70 100 127 161 210 257 302
#     4  12  24  35  50  78 112 141 171 216 269 320
#     4  10  19  33  53  77 103 135 176 216 256 309
#     4   9  16  31  56  79 101 136 179 216 251 305
#
# _framework density 17.948573
#
# number of rings (size 3 to 8) (size 9 to 14) (size 15 to 20)
#    0.000    2.167    1.667    2.250    0.000    4.667 
#    0.000    1.667    0.000    0.000    0.000    0.000 
#    0.000    0.000    0.000    0.000    0.000    0.000 
#
# Total GULP energy -595244.718739 kJ/mol
# GULP energy per Si atom -12400.931640 kJ/mol
# Density = 1.790772 g / cm^3
# Si number density = 17.948573 Si / 1000 Ang^3
#
#
#
# Elastic Constant Matrix: (Units=GPa)
#
#
# Indices 1 2 3 4 5 6 
#
# 1 114.3813 82.8842 37.8572 0.0000 0.0000 0.0000
# 2 82.8842 179.6253 46.2810 0.0000 0.0000 0.0000
# 3 37.8572 46.2810 51.8502 0.0000 0.0000 0.0000
# 4 0.0000 0.0000 0.0000 22.8687 0.0000 0.0000
# 5 0.0000 0.0000 0.0000 0.0000 22.4236 0.0000
# 6 0.0000 0.0000 0.0000 0.0000 0.0000 29.5760
#
#
#
# Elastic Compliance Matrix: (Units=1/GPa)
#
#
# Indices 1 2 3 4 5 6 
#
# 1 0.014427 -0.005121 -0.005963 0.000000 0.000000 0.000000
# 2 -0.005121 0.009047 -0.004337 0.000000 0.000000 0.000000
# 3 -0.005963 -0.004337 0.027511 0.000000 0.000000 0.000000
# 4 0.000000 0.000000 0.000000 0.043728 0.000000 0.000000
# 5 0.000000 0.000000 0.000000 0.000000 0.044596 0.000000
# 6 0.000000 0.000000 0.000000 0.000000 0.000000 0.033811
#
#
# Mechanical properties :
#
#
# Convention : Reuss Voigt Hill
#
# Bulk Modulus (GPa) = 49.64114 75.54462 62.59288
# Shear Modulus (GPa) = 23.73318 26.89594 25.31456
#
# Velocity S-wave (km/s) = 3.64027 3.87525 3.75960
# Velocity P-wave (km/s) = 6.73693 7.88697 7.33452
#
# Compressibility (1/GPa) = 0.02014458
#
# Stress axis : x y z
#
# Youngs Moduli (GPa) = 69.31571 110.52974 36.34908
#
# Poissons Ratio (x) = 0.56598 0.21674
# Poissons Ratio (y) = 0.35494 0.15764
# Poissons Ratio (z) = 0.41331 0.47936
#
# Static dielectric constant tensor:
#      x y z
#    x 3.411310 0.000000 0.000000 
#    y 0.000000 3.523440 0.000000 
#    z 0.000000 0.000000 3.122910 
# 
# 
# High freq. dielectric constant tensor:
#      x y z
#    x 1.696930 0.000000 0.000000 
#    y 0.000000 1.698700 0.000000 
#    z 0.000000 0.000000 1.674440 
# 
# From -- ./inp_files/12800.got.cif
#   From: 2010.03.12/outbox.cif.g09.slc.cpg/sg63_7_cif.got.tgz:12800.got - 2010.04.10 19:34:48.
