data_PCOD8257866
_publ_section_title
;
Structure prediction by ZEFSAII (Michael W. Deem and Ramdas Pophale) SiO2 
 PCOD8257866
Probable space group: C M C M
;
_chemical_formula_sum "Si O2"
_cell_formula_units_Z 88
_cell_length_a 14.532214
_cell_length_b 14.725660
_cell_length_c 22.045710
_cell_angle_alpha 90.000000
_cell_angle_beta 90.000000
_cell_angle_gamma 90.000000
_cell_volume 4717.703510
_symmetry_space_group_name_H-M "C M C M"
_symmetry_group_IT_number 63
_symmetry_cell_setting 'orthorhombic'
loop_
_space_group_symop_operation_xyz
x,y,z
-x,-y,1/2+z
x,-y,-z
-x,y,1/2-z
-x,-y,-z
x,y,1/2-z
-x,y,z
x,-y,1/2+z
1/2+x,1/2+y,z
1/2-x,1/2-y,1/2+z
1/2+x,1/2-y,-z
1/2-x,1/2+y,1/2-z
1/2-x,1/2-y,-z
1/2+x,1/2+y,1/2-z
1/2-x,1/2+y,z
1/2+x,1/2-y,1/2+z
loop_
_atom_site_type_symbol
_atom_site_label
_atom_site_fract_x
_atom_site_fract_y
_atom_site_fract_z
Si Si1 0.896856 0.095335 0.026059
Si Si2 0.253213 0.883313 0.624579
Si Si3 0.742076 0.915016 0.347554
Si Si4 0.667138 0.650448 0.250000
Si Si5 0.395651 0.153078 0.750000
Si Si6 0.106552 0.047454 0.750000
Si Si7 0.309668 0.723649 0.556913
O O1 0.838554 0.126259 0.084011
O O2 0.000000 0.082901 0.049837
O O3 0.896689 0.169866 0.971198
O O4 0.858413 0.000000 0.000000
O O5 0.234016 0.847919 0.692061
O O6 0.331103 0.815866 0.595374
O O7 0.286058 0.986966 0.625575
O O8 0.655445 0.884560 0.308646
O O9 0.837983 0.918552 0.309439
O O10 0.751614 0.844800 0.401654
O O11 0.602656 0.737931 0.250000
O O12 0.603291 0.561610 0.250000
O O13 0.500000 0.117354 0.750000
O O14 0.000000 0.082968 0.750000
O O15 0.250000 0.750000 0.500000
#
# Coordination Sequence:
#
# PCOD8257866 Si02
#       7
#    16  16  16   8   8   8  16
#     4  10  20  34  55  85 116 146 180 228 285 343
#     4  10  20  36  59  80 112 149 186 231 282 342
#     4  10  20  37  55  80 113 147 187 228 282 337
#     4  10  19  34  56  86 109 140 189 240 286 338
#     4  11  22  37  56  80 111 150 194 239 277 325
#     4   9  20  33  54  84 113 142 176 225 289 349
#     4  10  20  35  55  79 108 146 186 221 272 332
#
# _framework density 18.653144000000001
#
# number of rings (size 3 to 8) (size 9 to 14) (size 15 to 20)
#    0.000    2.000    3.636    0.818    0.000    4.364 
#    0.000    0.909    0.000    1.091    0.000    5.091 
#    0.000    0.000    0.000    0.000    0.000    0.000 
#
# Total GULP energy -545302.372565 kJ/mol
# GULP energy per Si atom -12393.235740 kJ/mol
# Density = 1.861069 g / cm^3
# Si number density = 18.653144 Si / 1000 Ang^3
#
#
#
# Elastic Constant Matrix: (Units=GPa)
#
#
# Indices 1 2 3 4 5 6 
#
# 1 77.6397 30.3887 29.6231 0.0000 0.0000 0.0000
# 2 30.3887 122.8559 54.1698 0.0000 0.0000 0.0000
# 3 29.6231 54.1698 119.0978 0.0000 0.0000 0.0000
# 4 0.0000 0.0000 0.0000 22.8179 0.0000 0.0000
# 5 0.0000 0.0000 0.0000 0.0000 16.5337 0.0000
# 6 0.0000 0.0000 0.0000 0.0000 0.0000 16.1029
#
#
#
# Elastic Compliance Matrix: (Units=1/GPa)
#
#
# Indices 1 2 3 4 5 6 
#
# 1 0.014846 -0.002557 -0.002530 0.000000 0.000000 0.000000
# 2 -0.002557 0.010622 -0.004195 0.000000 0.000000 0.000000
# 3 -0.002530 -0.004195 0.010934 0.000000 0.000000 0.000000
# 4 0.000000 0.000000 0.000000 0.043825 0.000000 0.000000
# 5 0.000000 0.000000 0.000000 0.000000 0.060482 0.000000
# 6 0.000000 0.000000 0.000000 0.000000 0.000000 0.062101
#
#
# Mechanical properties :
#
#
# Convention : Reuss Voigt Hill
#
# Bulk Modulus (GPa) = 56.05964 60.88406 58.47185
# Shear Modulus (GPa) = 21.99549 24.78503 23.39026
#
# Velocity S-wave (km/s) = 3.43765 3.64913 3.54497
# Velocity P-wave (km/s) = 6.77315 7.10393 6.94051
#
# Compressibility (1/GPa) = 0.01783814
#
# Stress axis : x y z
#
# Youngs Moduli (GPa) = 67.35849 94.14598 91.45949
#
# Poissons Ratio (x) = 0.24071 0.23137
# Poissons Ratio (y) = 0.17222 0.38369
# Poissons Ratio (z) = 0.17040 0.39496
#
# Static dielectric constant tensor:
#      x y z
#    x 2.991960 0.000000 0.000000 
#    y 0.000000 3.903200 0.000000 
#    z 0.000000 0.000000 3.729900 
# 
# 
# High freq. dielectric constant tensor:
#      x y z
#    x 1.671000 0.000000 0.000000 
#    y 0.000000 1.741500 0.000000 
#    z 0.000000 0.000000 1.743200 
# 
# From -- ./inp_files/62867.got.cif
#   From: 2010.03.12/outbox.cif.g09.slc.cpg/sg63_32_cif.got.tgz:62867.got - 2010.04.10 19:34:48.
