data_PCOD8257162
_publ_section_title
;
Structure prediction by ZEFSAII (Michael W. Deem and Ramdas Pophale) SiO2 
 PCOD8257162
Probable space group: C M C M
;
_chemical_formula_sum "Si O2"
_cell_formula_units_Z 128
_cell_length_a 19.717950
_cell_length_b 21.462565
_cell_length_c 18.138813
_cell_angle_alpha 90.000000
_cell_angle_beta 90.000000
_cell_angle_gamma 90.000000
_cell_volume 7676.305458
_symmetry_space_group_name_H-M "C M C M"
_symmetry_group_IT_number 63
_symmetry_cell_setting 'orthorhombic'
loop_
_space_group_symop_operation_xyz
x,y,z
-x,-y,1/2+z
x,-y,-z
-x,y,1/2-z
-x,-y,-z
x,y,1/2-z
-x,y,z
x,-y,1/2+z
1/2+x,1/2+y,z
1/2-x,1/2-y,1/2+z
1/2+x,1/2-y,-z
1/2-x,1/2+y,1/2-z
1/2-x,1/2-y,-z
1/2+x,1/2+y,1/2-z
1/2-x,1/2+y,z
1/2+x,1/2-y,1/2+z
loop_
_atom_site_type_symbol
_atom_site_label
_atom_site_fract_x
_atom_site_fract_y
_atom_site_fract_z
Si Si1 0.426098 0.799484 0.664100
Si Si2 0.074912 0.122281 0.335717
Si Si3 0.686546 0.450991 0.596866
Si Si4 0.176137 0.229519 0.336354
Si Si5 0.825472 0.089653 0.933084
Si Si6 0.203940 0.354299 0.610542
Si Si7 0.579656 0.661361 0.833081
Si Si8 0.279753 0.809276 0.042395
O O1 0.436026 0.792083 0.750000
O O2 0.500000 0.818356 0.630089
O O3 0.369807 0.852197 0.648081
O O4 0.402987 0.730846 0.635435
O O5 0.063226 0.125714 0.250000
O O6 0.121455 0.062069 0.351768
O O7 0.115758 0.183731 0.361109
O O8 0.000000 0.119027 0.373870
O O9 0.662373 0.420275 0.519758
O O10 0.702480 0.524016 0.597510
O O11 0.756241 0.418960 0.625193
O O12 0.171817 0.248255 0.250000
O O13 0.249576 0.199850 0.353934
O O14 0.169496 0.289008 0.391247
O O15 0.892845 0.109044 0.889250
O O16 0.774630 0.146363 0.918030
O O17 0.186129 0.348600 0.523420
O O18 0.609504 0.651920 0.750000
O O19 0.500000 0.651997 0.830622
O O20 0.250000 0.750000 0.000000
#
# Coordination Sequence:
#
# PCOD8257162 Si02
#       8
#    16  16  16  16  16  16  16  16
#     4   9  17  29  47  72  97 118 141 174 224 280
#     4   9  18  32  47  64  90 123 158 192 219 252
#     4   9  20  33  45  63  87 122 160 188 221 263
#     4   9  16  27  45  66  86 114 151 189 230 267
#     4  10  19  32  46  63  90 120 151 189 228 264
#     4   9  16  29  45  63  89 116 145 184 223 266
#     4   9  18  30  43  63  92 122 148 178 224 279
#     4   9  17  28  45  67  87 110 144 187 230 269
#
# _framework density 16.674688
#
# number of rings (size 3 to 8) (size 9 to 14) (size 15 to 20)
#    0.000    2.875    0.000    3.375    0.000    3.500 
#    0.000    4.375    0.000    0.000    0.000    7.875 
#    0.000    2.000    0.000    0.000    0.000    0.000 
#
# Total GULP energy -792852.916976 kJ/mol
# GULP energy per Si atom -12388.326828 kJ/mol
# Density = 1.663674 g / cm^3
# Si number density = 16.674688 Si / 1000 Ang^3
#
#
#
# Elastic Constant Matrix: (Units=GPa)
#
#
# Indices 1 2 3 4 5 6 
#
# 1 97.3787 49.9405 20.8491 0.0000 0.0000 0.0000
# 2 49.9405 86.4465 24.2736 0.0000 0.0000 0.0000
# 3 20.8491 24.2736 39.7238 0.0000 0.0000 0.0000
# 4 0.0000 0.0000 0.0000 22.5508 0.0000 0.0000
# 5 0.0000 0.0000 0.0000 0.0000 20.5446 0.0000
# 6 0.0000 0.0000 0.0000 0.0000 0.0000 10.4856
#
#
#
# Elastic Compliance Matrix: (Units=1/GPa)
#
#
# Indices 1 2 3 4 5 6 
#
# 1 0.014900 -0.007740 -0.003091 0.000000 0.000000 0.000000
# 2 -0.007740 0.017985 -0.006927 0.000000 0.000000 0.000000
# 3 -0.003091 -0.006927 0.031029 0.000000 0.000000 0.000000
# 4 0.000000 0.000000 0.000000 0.044344 0.000000 0.000000
# 5 0.000000 0.000000 0.000000 0.000000 0.048675 0.000000
# 6 0.000000 0.000000 0.000000 0.000000 0.000000 0.095369
#
#
# Mechanical properties :
#
#
# Convention : Reuss Voigt Hill
#
# Bulk Modulus (GPa) = 35.21423 45.96393 40.58908
# Shear Modulus (GPa) = 16.81891 19.28190 18.05040
#
# Velocity S-wave (km/s) = 3.17937 3.40421 3.29371
# Velocity P-wave (km/s) = 5.88575 6.56327 6.23372
#
# Compressibility (1/GPa) = 0.02839761
#
# Stress axis : x y z
#
# Youngs Moduli (GPa) = 67.11186 55.60343 32.22796
#
# Poissons Ratio (x) = 0.43038 0.09961
# Poissons Ratio (y) = 0.51946 0.22325
# Poissons Ratio (z) = 0.20743 0.38517
#
# Static dielectric constant tensor:
#      x y z
#    x 3.223970 0.000000 0.000000 
#    y 0.000000 3.073620 0.000000 
#    z 0.000000 0.000000 3.314190 
# 
# 
# High freq. dielectric constant tensor:
#      x y z
#    x 1.621620 0.000000 0.000000 
#    y 0.000000 1.616850 0.000000 
#    z 0.000000 0.000000 1.642610 
# 
# From -- ./inp_files/47531.got.cif
#   From: 2010.03.12/outbox.cif.g09.slc.cpg/sg63_24_cif.got.tgz:47531.got - 2010.04.10 19:34:48.
