data_PCOD8257789
_publ_section_title
;
Structure prediction by ZEFSAII (Michael W. Deem and Ramdas Pophale) SiO2 
 PCOD8257789
Probable space group: C M C M
;
_chemical_formula_sum "Si O2"
_cell_formula_units_Z 112
_cell_length_a 19.020400
_cell_length_b 12.012521
_cell_length_c 28.346962
_cell_angle_alpha 90.000000
_cell_angle_beta 90.000000
_cell_angle_gamma 90.000000
_cell_volume 6476.797627
_symmetry_space_group_name_H-M "C M C M"
_symmetry_group_IT_number 63
_symmetry_cell_setting 'orthorhombic'
loop_
_space_group_symop_operation_xyz
x,y,z
-x,-y,1/2+z
x,-y,-z
-x,y,1/2-z
-x,-y,-z
x,y,1/2-z
-x,y,z
x,-y,1/2+z
1/2+x,1/2+y,z
1/2-x,1/2-y,1/2+z
1/2+x,1/2-y,-z
1/2-x,1/2+y,1/2-z
1/2-x,1/2-y,-z
1/2+x,1/2+y,1/2-z
1/2-x,1/2+y,z
1/2+x,1/2-y,1/2+z
loop_
_atom_site_type_symbol
_atom_site_label
_atom_site_fract_x
_atom_site_fract_y
_atom_site_fract_z
Si Si1 0.191806 0.312337 0.558514
Si Si2 0.918665 0.459443 0.803864
Si Si3 0.165462 0.902482 0.383630
Si Si4 0.324878 0.035883 0.614520
Si Si5 0.080981 0.947869 0.951035
Si Si6 0.420084 0.702588 0.696024
Si Si7 0.844885 0.729679 0.544862
O O1 0.158807 0.203284 0.582176
O O2 0.169002 0.419210 0.587890
O O3 0.160258 0.326328 0.506403
O O4 0.275738 0.302559 0.556061
O O5 0.905463 0.497189 0.750000
O O6 0.869712 0.533362 0.837515
O O7 0.897732 0.330691 0.810017
O O8 0.000000 0.477828 0.817480
O O9 0.130291 0.876539 0.333729
O O10 0.244958 0.936479 0.372780
O O11 0.125573 0.004392 0.407806
O O12 0.357542 0.132115 0.582139
O O13 0.090023 0.814579 0.952626
O O14 0.000000 0.978407 0.943107
O O15 0.109116 0.000000 0.000000
O O16 0.412304 0.665407 0.750000
O O17 0.500000 0.686641 0.678748
#
# Coordination Sequence:
#
# PCOD8257789 Si02
#       7
#    16  16  16  16  16  16  16
#     4  10  19  34  53  77 110 144 181 228 265 317
#     4   9  19  37  59  80 107 142 179 226 284 337
#     4  11  20  33  57  80 109 142 181 225 278 316
#     4  11  21  33  58  84 109 142 184 227 276 327
#     4  11  22  36  53  77 112 150 187 220 263 330
#     4   9  18  34  56  79 103 137 179 225 276 323
#     4  10  21  34  53  77 111 150 183 218 269 321
#
# _framework density 17.292496
#
# number of rings (size 3 to 8) (size 9 to 14) (size 15 to 20)
#    0.000    1.857    4.286    1.714    0.000    1.143 
#    0.000    0.714    0.000    2.571    0.000    2.000 
#    0.000    0.000    0.000    0.000    0.000    0.000 
#
# Total GULP energy -694597.629661 kJ/mol
# GULP energy per Si atom -12403.529101 kJ/mol
# Density = 1.725314 g / cm^3
# Si number density = 17.292496 Si / 1000 Ang^3
#
#
#
# Elastic Constant Matrix: (Units=GPa)
#
#
# Indices 1 2 3 4 5 6 
#
# 1 68.2366 34.9274 52.6611 0.0000 0.0000 0.0000
# 2 34.9274 81.0808 45.2510 0.0000 0.0000 0.0000
# 3 52.6611 45.2510 114.3761 0.0000 0.0000 0.0000
# 4 0.0000 0.0000 0.0000 27.5424 0.0000 0.0000
# 5 0.0000 0.0000 0.0000 0.0000 29.6853 0.0000
# 6 0.0000 0.0000 0.0000 0.0000 0.0000 23.3961
#
#
#
# Elastic Compliance Matrix: (Units=1/GPa)
#
#
# Indices 1 2 3 4 5 6 
#
# 1 0.024482 -0.005461 -0.009111 0.000000 0.000000 0.000000
# 2 -0.005461 0.017046 -0.004230 0.000000 0.000000 0.000000
# 3 -0.009111 -0.004230 0.014612 0.000000 0.000000 0.000000
# 4 0.000000 0.000000 0.000000 0.036308 0.000000 0.000000
# 5 0.000000 0.000000 0.000000 0.000000 0.033687 0.000000
# 6 0.000000 0.000000 0.000000 0.000000 0.000000 0.042742
#
#
# Mechanical properties :
#
#
# Convention : Reuss Voigt Hill
#
# Bulk Modulus (GPa) = 53.95055 58.81918 56.38487
# Shear Modulus (GPa) = 23.51179 24.84835 24.18007
#
# Velocity S-wave (km/s) = 3.69135 3.79482 3.74344
# Velocity P-wave (km/s) = 7.03097 7.29993 7.16671
#
# Compressibility (1/GPa) = 0.01853549
#
# Stress axis : x y z
#
# Youngs Moduli (GPa) = 40.84667 58.66320 68.43889
#
# Poissons Ratio (x) = 0.32036 0.62357
# Poissons Ratio (y) = 0.22307 0.28948
# Poissons Ratio (z) = 0.37217 0.24813
#
# Static dielectric constant tensor:
#      x y z
#    x 3.083610 0.000000 0.000000 
#    y 0.000000 3.083590 0.000000 
#    z 0.000000 0.000000 3.183980 
# 
# 
# High freq. dielectric constant tensor:
#      x y z
#    x 1.659730 0.000000 0.000000 
#    y 0.000000 1.660230 0.000000 
#    z 0.000000 0.000000 1.668580 
# 
# From -- ./inp_files/64615.got.cif
#   From: 2010.03.12/outbox.cif.g09.slc.cpg/sg63_33_cif.got.tgz:64615.got - 2010.04.10 19:34:48.
