data_PCOD8257139
_publ_section_title
;
Structure prediction by ZEFSAII (Michael W. Deem and Ramdas Pophale) SiO2 
 PCOD8257139
Probable space group: C M C M
;
_chemical_formula_sum "Si O2"
_cell_formula_units_Z 80
_cell_length_a 17.269078
_cell_length_b 26.320531
_cell_length_c 9.738280
_cell_angle_alpha 90.000000
_cell_angle_beta 90.000000
_cell_angle_gamma 90.000000
_cell_volume 4426.353096
_symmetry_space_group_name_H-M "C M C M"
_symmetry_group_IT_number 63
_symmetry_cell_setting 'orthorhombic'
loop_
_space_group_symop_operation_xyz
x,y,z
-x,-y,1/2+z
x,-y,-z
-x,y,1/2-z
-x,-y,-z
x,y,1/2-z
-x,y,z
x,-y,1/2+z
1/2+x,1/2+y,z
1/2-x,1/2-y,1/2+z
1/2+x,1/2-y,-z
1/2-x,1/2+y,1/2-z
1/2-x,1/2-y,-z
1/2+x,1/2+y,1/2-z
1/2-x,1/2+y,z
1/2+x,1/2-y,1/2+z
loop_
_atom_site_type_symbol
_atom_site_label
_atom_site_fract_x
_atom_site_fract_y
_atom_site_fract_z
Si Si1 0.083668 0.852593 0.408117
Si Si2 0.823423 0.601269 0.519106
Si Si3 0.409348 0.956805 0.250000
Si Si4 0.831261 0.047080 0.589642
Si Si5 0.906826 0.573778 0.250000
Si Si6 0.763815 0.200558 0.588475
O O1 0.078548 0.837690 0.250000
O O2 0.100280 0.912310 0.422398
O O3 0.154232 0.820317 0.470487
O O4 0.000000 0.840683 0.478779
O O5 0.883068 0.573903 0.618469
O O6 0.745716 0.568179 0.517647
O O7 0.867648 0.602983 0.375911
O O8 0.803226 0.658715 0.565088
O O9 0.500000 0.959134 0.250000
O O10 0.379584 0.014995 0.250000
O O11 0.814385 0.033842 0.750000
O O12 0.860151 0.000000 0.500000
O O13 0.000000 0.580068 0.250000
O O14 0.767014 0.213582 0.750000
O O15 0.750000 0.250000 0.500000
#
# Coordination Sequence:
#
# PCOD8257139 Si02
#       6
#    16  16   8  16   8  16
#     4   8  16  34  56  79 109 143 179 219 270 330
#     4  11  21  37  55  82 113 149 192 241 284 343
#     4  11  20  36  57  78 117 161 190 231 294 350
#     4  10  19  31  52  81 109 146 186 222 270 331
#     4  11  24  36  55  86 117 155 200 239 286 348
#     4  10  21  39  64  86 109 147 192 237 290 339
#
# _framework density 18.073568999999999
#
# number of rings (size 3 to 8) (size 9 to 14) (size 15 to 20)
#    0.000    2.000    2.000    3.600    2.800    2.000 
#    0.000    2.000    0.000    1.200    0.000    0.000 
#    0.000    0.000    0.000    0.000    0.000    0.000 
#
# Total GULP energy -495776.363968 kJ/mol
# GULP energy per Si atom -12394.409099 kJ/mol
# Density = 1.803243 g / cm^3
# Si number density = 18.073569 Si / 1000 Ang^3
#
#
#
# Elastic Constant Matrix: (Units=GPa)
#
#
# Indices 1 2 3 4 5 6 
#
# 1 93.1107 40.5035 37.9242 0.0000 0.0000 0.0000
# 2 40.5035 112.0260 36.1753 0.0000 0.0000 0.0000
# 3 37.9242 36.1753 93.5266 0.0000 0.0000 0.0000
# 4 0.0000 0.0000 0.0000 33.9648 0.0000 0.0000
# 5 0.0000 0.0000 0.0000 0.0000 49.6158 0.0000
# 6 0.0000 0.0000 0.0000 0.0000 0.0000 16.7130
#
#
#
# Elastic Compliance Matrix: (Units=1/GPa)
#
#
# Indices 1 2 3 4 5 6 
#
# 1 0.014099 -0.003716 -0.004280 0.000000 0.000000 0.000000
# 2 -0.003716 0.011180 -0.002818 0.000000 0.000000 0.000000
# 3 -0.004280 -0.002818 0.013517 0.000000 0.000000 0.000000
# 4 0.000000 0.000000 0.000000 0.029442 0.000000 0.000000
# 5 0.000000 0.000000 0.000000 0.000000 0.020155 0.000000
# 6 0.000000 0.000000 0.000000 0.000000 0.000000 0.059834
#
#
# Mechanical properties :
#
#
# Convention : Reuss Voigt Hill
#
# Bulk Modulus (GPa) = 58.24037 58.65214 58.44625
# Shear Modulus (GPa) = 28.47750 32.32943 30.40347
#
# Velocity S-wave (km/s) = 3.97374 4.23397 4.10592
# Velocity P-wave (km/s) = 7.30398 7.51161 7.40853
#
# Compressibility (1/GPa) = 0.01717022
#
# Stress axis : x y z
#
# Youngs Moduli (GPa) = 70.92465 89.44754 73.97835
#
# Poissons Ratio (x) = 0.33235 0.31663
# Poissons Ratio (y) = 0.26353 0.20844
# Poissons Ratio (z) = 0.30356 0.25203
#
# Static dielectric constant tensor:
#      x y z
#    x 3.597070 0.000000 0.000000 
#    y 0.000000 3.289110 0.000000 
#    z 0.000000 0.000000 0.051350 
# 
# 
# High freq. dielectric constant tensor:
#      x y z
#    x 1.707350 0.000000 0.000000 
#    y 0.000000 1.689660 0.000000 
#    z 0.000000 0.000000 1.686810 
# 
# From -- ./inp_files/6525.got.cif
#   From: 2010.03.12/outbox.cif.g09.slc.cpg/sg63_4_cif.got.tgz:6525.got - 2010.04.10 19:34:48.
