data_PCOD8257293
_publ_section_title
;
Structure prediction by ZEFSAII (Michael W. Deem and Ramdas Pophale) SiO2 
 PCOD8257293
Probable space group: C M C M
;
_chemical_formula_sum "Si O2"
_cell_formula_units_Z 80
_cell_length_a 19.726099
_cell_length_b 24.942369
_cell_length_c 9.017635
_cell_angle_alpha 90.000000
_cell_angle_beta 90.000000
_cell_angle_gamma 90.000000
_cell_volume 4436.817458
_symmetry_space_group_name_H-M "C M C M"
_symmetry_group_IT_number 63
_symmetry_cell_setting 'orthorhombic'
loop_
_space_group_symop_operation_xyz
x,y,z
-x,-y,1/2+z
x,-y,-z
-x,y,1/2-z
-x,-y,-z
x,y,1/2-z
-x,y,z
x,-y,1/2+z
1/2+x,1/2+y,z
1/2-x,1/2-y,1/2+z
1/2+x,1/2-y,-z
1/2-x,1/2+y,1/2-z
1/2-x,1/2-y,-z
1/2+x,1/2+y,1/2-z
1/2-x,1/2+y,z
1/2+x,1/2-y,1/2+z
loop_
_atom_site_type_symbol
_atom_site_label
_atom_site_fract_x
_atom_site_fract_y
_atom_site_fract_z
Si Si1 0.000000 0.226659 0.581922
Si Si2 0.405607 0.550582 0.585407
Si Si3 0.253892 0.946771 0.082539
Si Si4 0.253285 0.335328 0.575379
Si Si5 0.000000 0.122852 0.420693
Si Si6 0.849001 0.757214 0.080496
O O1 0.000000 0.185383 0.447925
O O2 0.928829 0.258160 0.558628
O O3 0.000000 0.202193 0.750000
O O4 0.436518 0.500000 0.500000
O O5 0.435976 0.551529 0.750000
O O6 0.325922 0.547989 0.589745
O O7 0.431296 0.602127 0.497177
O O8 0.283908 0.944309 0.250000
O O9 0.269172 0.891931 0.995359
O O10 0.283685 0.000000 0.000000
O O11 0.262875 0.343979 0.750000
O O12 0.192002 0.295554 0.533671
O O13 0.323163 0.309265 0.512252
O O14 0.000000 0.107925 0.250000
O O15 0.833711 0.772489 0.250000
#
# Coordination Sequence:
#
# PCOD8257293 Si02
#       6
#     8  16  16  16   8  16
#     4  10  20  35  51  68  93 125 163 200 236 282
#     4  10  20  33  46  61  85 119 158 196 233 274
#     4  10  20  33  50  71  95 124 158 197 241 288
#     4  10  19  32  51  75 102 130 162 201 246 293
#     4  12  23  31  42  62  89 121 157 196 237 278
#     4   9  19  34  52  73  98 131 167 203 243 288
#
# _framework density 18.030942
#
# number of rings (size 3 to 8) (size 9 to 14) (size 15 to 20)
#    0.000    2.000    0.000    4.200    0.000    8.800 
#    0.000    0.000    0.000    0.000    0.000    0.700 
#    0.000    0.000    0.000    0.000    0.000    0.000 
#
# Total GULP energy -495680.894722 kJ/mol
# GULP energy per Si atom -12392.022368 kJ/mol
# Density = 1.798990 g / cm^3
# Si number density = 18.030942 Si / 1000 Ang^3
#
#
#
# Elastic Constant Matrix: (Units=GPa)
#
#
# Indices 1 2 3 4 5 6 
#
# 1 72.6606 26.7942 21.8115 0.0000 0.0000 0.0000
# 2 26.7942 113.1559 54.6228 0.0000 0.0000 0.0000
# 3 21.8115 54.6228 134.3924 0.0000 0.0000 0.0000
# 4 0.0000 0.0000 0.0000 33.3993 0.0000 0.0000
# 5 0.0000 0.0000 0.0000 0.0000 29.8020 0.0000
# 6 0.0000 0.0000 0.0000 0.0000 0.0000 22.4383
#
#
#
# Elastic Compliance Matrix: (Units=1/GPa)
#
#
# Indices 1 2 3 4 5 6 
#
# 1 0.015247 -0.003006 -0.001253 0.000000 0.000000 0.000000
# 2 -0.003006 0.011587 -0.004222 0.000000 0.000000 0.000000
# 3 -0.001253 -0.004222 0.009360 0.000000 0.000000 0.000000
# 4 0.000000 0.000000 0.000000 0.029941 0.000000 0.000000
# 5 0.000000 0.000000 0.000000 0.000000 0.033555 0.000000
# 6 0.000000 0.000000 0.000000 0.000000 0.000000 0.044567
#
#
# Mechanical properties :
#
#
# Convention : Reuss Voigt Hill
#
# Bulk Modulus (GPa) = 51.99175 58.51842 55.25509
# Shear Modulus (GPa) = 29.82801 31.59330 30.71066
#
# Velocity S-wave (km/s) = 4.07168 4.19044 4.13149
# Velocity P-wave (km/s) = 7.14158 7.47916 7.31232
#
# Compressibility (1/GPa) = 0.01923382
#
# Stress axis : x y z
#
# Youngs Moduli (GPa) = 65.58649 86.30431 106.83640
#
# Poissons Ratio (x) = 0.25939 0.13386
# Poissons Ratio (y) = 0.19712 0.45102
# Poissons Ratio (z) = 0.08218 0.36434
#
# Static dielectric constant tensor:
#      x y z
#    x 3.170370 0.000000 0.000000 
#    y 0.000000 3.352270 0.000000 
#    z 0.000000 0.000000 3.653300 
# 
# 
# High freq. dielectric constant tensor:
#      x y z
#    x 1.666100 0.000000 0.000000 
#    y 0.000000 1.685810 0.000000 
#    z 0.000000 0.000000 1.712850 
# 
# From -- ./inp_files/8073.got.cif
#   From: 2010.03.12/outbox.cif.g09.slc.cpg/sg63_5_cif.got.tgz:8073.got - 2010.04.10 19:34:48.
