data_PCOD8257334
_publ_section_title
;
Structure prediction by ZEFSAII (Michael W. Deem and Ramdas Pophale) SiO2 
 PCOD8257334
Probable space group: C M C M
;
_chemical_formula_sum "Si O2"
_cell_formula_units_Z 80
_cell_length_a 13.447974
_cell_length_b 18.242688
_cell_length_c 18.496476
_cell_angle_alpha 90.000000
_cell_angle_beta 90.000000
_cell_angle_gamma 90.000000
_cell_volume 4537.688554
_symmetry_space_group_name_H-M "C M C M"
_symmetry_group_IT_number 63
_symmetry_cell_setting 'orthorhombic'
loop_
_space_group_symop_operation_xyz
x,y,z
-x,-y,1/2+z
x,-y,-z
-x,y,1/2-z
-x,-y,-z
x,y,1/2-z
-x,y,z
x,-y,1/2+z
1/2+x,1/2+y,z
1/2-x,1/2-y,1/2+z
1/2+x,1/2-y,-z
1/2-x,1/2+y,1/2-z
1/2-x,1/2-y,-z
1/2+x,1/2+y,1/2-z
1/2-x,1/2+y,z
1/2+x,1/2-y,1/2+z
loop_
_atom_site_type_symbol
_atom_site_label
_atom_site_fract_x
_atom_site_fract_y
_atom_site_fract_z
Si Si1 0.722373 0.222852 0.166058
Si Si2 0.114499 0.156319 0.426326
Si Si3 0.783549 0.994119 0.916622
Si Si4 0.112313 0.574731 0.334448
Si Si5 0.616030 0.645404 0.906308
O O1 0.751973 0.222720 0.250000
O O2 0.822474 0.215223 0.118972
O O3 0.647973 0.156670 0.146864
O O4 0.668177 0.297936 0.146981
O O5 0.135694 0.168512 0.511000
O O6 0.000000 0.169511 0.407485
O O7 0.143097 0.074075 0.402604
O O8 0.839337 0.065972 0.888718
O O9 0.680690 0.985027 0.873729
O O10 0.754932 0.000000 0.000000
O O11 0.119011 0.559068 0.250000
O O12 0.000000 0.566124 0.362970
O O13 0.500000 0.642914 0.888725
#
# Coordination Sequence:
#
# PCOD8257334 Si02
#       5
#    16  16  16  16  16
#     4  10  20  33  50  73 100 129 165 206 244 288
#     4   9  18  34  54  74  99 132 165 198 243 298
#     4   9  18  32  51  76 101 125 160 204 247 291
#     4   9  18  33  50  67  93 131 168 200 239 289
#     4  10  19  32  52  76 101 128 161 205 251 291
#
# _framework density 17.630120999999999
#
# number of rings (size 3 to 8) (size 9 to 14) (size 15 to 20)
#    0.000    2.600    0.000    1.800    0.000    5.200 
#    0.000    1.000    0.000    3.600    0.000    0.000 
#    0.000    0.000    0.000    0.000    0.000    0.000 
#
# Total GULP energy -496126.567576 kJ/mol
# GULP energy per Si atom -12403.164189 kJ/mol
# Density = 1.758999 g / cm^3
# Si number density = 17.630121 Si / 1000 Ang^3
#
#
#
# Elastic Constant Matrix: (Units=GPa)
#
#
# Indices 1 2 3 4 5 6 
#
# 1 117.5296 36.0809 34.5653 0.0000 0.0000 0.0000
# 2 36.0809 81.0535 23.8411 0.0000 0.0000 0.0000
# 3 34.5653 23.8411 39.2486 0.0000 0.0000 0.0000
# 4 0.0000 0.0000 0.0000 26.4692 0.0000 0.0000
# 5 0.0000 0.0000 0.0000 0.0000 28.2754 0.0000
# 6 0.0000 0.0000 0.0000 0.0000 0.0000 25.0576
#
#
#
# Elastic Compliance Matrix: (Units=1/GPa)
#
#
# Indices 1 2 3 4 5 6 
#
# 1 0.011952 -0.002708 -0.008880 0.000000 0.000000 0.000000
# 2 -0.002708 0.015635 -0.007112 0.000000 0.000000 0.000000
# 3 -0.008880 -0.007112 0.037620 0.000000 0.000000 0.000000
# 4 0.000000 0.000000 0.000000 0.037780 0.000000 0.000000
# 5 0.000000 0.000000 0.000000 0.000000 0.035366 0.000000
# 6 0.000000 0.000000 0.000000 0.000000 0.000000 0.039908
#
#
# Mechanical properties :
#
#
# Convention : Reuss Voigt Hill
#
# Bulk Modulus (GPa) = 35.96536 47.42294 41.69415
# Shear Modulus (GPa) = 22.22905 25.51673 23.87289
#
# Velocity S-wave (km/s) = 3.55471 3.80852 3.68380
# Velocity P-wave (km/s) = 6.10673 6.80419 6.46487
#
# Compressibility (1/GPa) = 0.02780453
#
# Stress axis : x y z
#
# Youngs Moduli (GPa) = 83.67068 63.95865 26.58174
#
# Poissons Ratio (x) = 0.17321 0.23606
# Poissons Ratio (y) = 0.22659 0.18906
# Poissons Ratio (z) = 0.74304 0.45490
#
# Static dielectric constant tensor:
#      x y z
#    x 3.358950 0.000000 0.000000 
#    y 0.000000 3.182410 0.000000 
#    z 0.000000 0.000000 3.195980 
# 
# 
# High freq. dielectric constant tensor:
#      x y z
#    x 1.686600 0.000000 0.000000 
#    y 0.000000 1.673540 0.000000 
#    z 0.000000 0.000000 1.676590 
# 
# From -- ./inp_files/43945.got.cif
#   From: 2010.03.12/outbox.cif.g09.slc.cpg/sg63_22_cif.got.tgz:43945.got - 2010.04.10 19:34:48.
