data_PCOD8257853
_publ_section_title
;
Structure prediction by ZEFSAII (Michael W. Deem and Ramdas Pophale) SiO2 
 PCOD8257853
Probable space group: C M C M
;
_chemical_formula_sum "Si O2"
_cell_formula_units_Z 80
_cell_length_a 9.071214
_cell_length_b 24.848919
_cell_length_c 18.775282
_cell_angle_alpha 90.000000
_cell_angle_beta 90.000000
_cell_angle_gamma 90.000000
_cell_volume 4232.133723
_symmetry_space_group_name_H-M "C M C M"
_symmetry_group_IT_number 63
_symmetry_cell_setting 'orthorhombic'
loop_
_space_group_symop_operation_xyz
x,y,z
-x,-y,1/2+z
x,-y,-z
-x,y,1/2-z
-x,-y,-z
x,y,1/2-z
-x,y,z
x,-y,1/2+z
1/2+x,1/2+y,z
1/2-x,1/2-y,1/2+z
1/2+x,1/2-y,-z
1/2-x,1/2+y,1/2-z
1/2-x,1/2-y,-z
1/2+x,1/2+y,1/2-z
1/2-x,1/2+y,z
1/2+x,1/2-y,1/2+z
loop_
_atom_site_type_symbol
_atom_site_label
_atom_site_fract_x
_atom_site_fract_y
_atom_site_fract_z
Si Si1 0.673154 0.778260 0.434733
Si Si2 0.169784 0.510939 0.832145
Si Si3 0.825222 0.083884 0.090239
Si Si4 0.171875 0.400016 0.445168
Si Si5 0.325809 0.310964 0.828819
O O1 0.500000 0.774622 0.447817
O O2 0.750000 0.750000 0.500000
O O3 0.726310 0.839693 0.427474
O O4 0.718775 0.746114 0.363395
O O5 0.203142 0.523784 0.750000
O O6 0.273531 0.462891 0.857314
O O7 0.208216 0.564523 0.876180
O O8 0.000000 0.494092 0.843874
O O9 0.766401 0.140249 0.122498
O O10 0.000000 0.082376 0.083804
O O11 0.757871 0.075508 0.012195
O O12 0.000000 0.401130 0.464192
O O13 0.254708 0.313992 0.750000
O O14 0.500000 0.316504 0.822729
#
# Coordination Sequence:
#
# PCOD8257853 Si02
#       5
#    16  16  16  16  16
#     4  10  19  34  56  80 108 142 179 223 270 321
#     4  10  22  39  56  78 111 147 183 227 278 328
#     4  11  21  35  57  83 111 145 185 229 274 327
#     4  10  21  36  57  82 109 144 186 229 274 331
#     4   9  18  32  52  80 110 139 176 223 272 320
#
# _framework density 18.902995000000001
#
# number of rings (size 3 to 8) (size 9 to 14) (size 15 to 20)
#    0.000    2.000    2.000    1.800    0.000    5.200 
#    0.000    4.000    0.000    1.800    0.000    2.800 
#    0.000    0.000    0.000    0.000    0.000    0.000 
#
# Total GULP energy -496088.541190 kJ/mol
# GULP energy per Si atom -12402.213530 kJ/mol
# Density = 1.885997 g / cm^3
# Si number density = 18.902995 Si / 1000 Ang^3
#
#
#
# Elastic Constant Matrix: (Units=GPa)
#
#
# Indices 1 2 3 4 5 6 
#
# 1 37.0176 28.2662 36.6276 0.0000 0.0000 0.0000
# 2 28.2662 111.4818 59.3833 0.0000 0.0000 0.0000
# 3 36.6276 59.3833 154.1815 0.0000 0.0000 0.0000
# 4 0.0000 0.0000 0.0000 35.3332 0.0000 0.0000
# 5 0.0000 0.0000 0.0000 0.0000 21.9648 0.0000
# 6 0.0000 0.0000 0.0000 0.0000 0.0000 25.5769
#
#
#
# Elastic Compliance Matrix: (Units=1/GPa)
#
#
# Indices 1 2 3 4 5 6 
#
# 1 0.038382 -0.006133 -0.006756 0.000000 0.000000 0.000000
# 2 -0.006133 0.012265 -0.003267 0.000000 0.000000 0.000000
# 3 -0.006756 -0.003267 0.009349 0.000000 0.000000 0.000000
# 4 0.000000 0.000000 0.000000 0.028302 0.000000 0.000000
# 5 0.000000 0.000000 0.000000 0.000000 0.045527 0.000000
# 6 0.000000 0.000000 0.000000 0.000000 0.000000 0.039098
#
#
# Mechanical properties :
#
#
# Convention : Reuss Voigt Hill
#
# Bulk Modulus (GPa) = 36.12135 61.24835 48.68485
# Shear Modulus (GPa) = 23.31392 28.46856 25.89124
#
# Velocity S-wave (km/s) = 3.51571 3.88498 3.70495
# Velocity P-wave (km/s) = 5.96914 7.25230 6.64178
#
# Compressibility (1/GPa) = 0.02768446
#
# Stress axis : x y z
#
# Youngs Moduli (GPa) = 26.05380 81.53027 106.96191
#
# Poissons Ratio (x) = 0.50003 0.72263
# Poissons Ratio (y) = 0.15979 0.34945
# Poissons Ratio (z) = 0.17602 0.26636
#
# Static dielectric constant tensor:
#      x y z
#    x 3.258900 0.000000 0.000000 
#    y 0.000000 3.719110 0.000000 
#    z 0.000000 0.000000 3.076370 
# 
# 
# High freq. dielectric constant tensor:
#      x y z
#    x 1.708770 0.000000 0.000000 
#    y 0.000000 1.746320 0.000000 
#    z 0.000000 0.000000 1.742870 
# 
# From -- ./inp_files/40443.got.cif
#   From: 2010.03.12/outbox.cif.g09.slc.cpg/sg63_21_cif.got.tgz:40443.got - 2010.04.10 19:34:48.
