data_PCOD8257527
_publ_section_title
;
Structure prediction by ZEFSAII (Michael W. Deem and Ramdas Pophale) SiO2 
 PCOD8257527
Probable space group: C M C M
;
_chemical_formula_sum "Si O2"
_cell_formula_units_Z 104
_cell_length_a 17.892676
_cell_length_b 34.159516
_cell_length_c 9.151684
_cell_angle_alpha 90.000000
_cell_angle_beta 90.000000
_cell_angle_gamma 90.000000
_cell_volume 5593.556411
_symmetry_space_group_name_H-M "C M C M"
_symmetry_group_IT_number 63
_symmetry_cell_setting 'orthorhombic'
loop_
_space_group_symop_operation_xyz
x,y,z
-x,-y,1/2+z
x,-y,-z
-x,y,1/2-z
-x,-y,-z
x,y,1/2-z
-x,y,z
x,-y,1/2+z
1/2+x,1/2+y,z
1/2-x,1/2-y,1/2+z
1/2+x,1/2-y,-z
1/2-x,1/2+y,1/2-z
1/2-x,1/2-y,-z
1/2+x,1/2+y,1/2-z
1/2-x,1/2+y,z
1/2+x,1/2-y,1/2+z
loop_
_atom_site_type_symbol
_atom_site_label
_atom_site_fract_x
_atom_site_fract_y
_atom_site_fract_z
Si Si1 0.000000 0.458776 0.576493
Si Si2 0.349682 0.082879 0.076867
Si Si3 0.170270 0.670412 0.423330
Si Si4 0.700045 0.540884 0.076367
Si Si5 0.584122 0.606608 0.076268
Si Si6 0.087262 0.736892 0.582645
Si Si7 0.837645 0.815487 0.923618
O O1 0.000000 0.500000 0.500000
O O2 0.073086 0.435742 0.521655
O O3 0.000000 0.464301 0.750000
O O4 0.346135 0.084386 0.250000
O O5 0.345119 0.126908 0.015865
O O6 0.279686 0.057438 0.020017
O O7 0.162785 0.671925 0.250000
O O8 0.109239 0.699043 0.490769
O O9 0.252274 0.683133 0.476326
O O10 0.699859 0.535257 0.250000
O O11 0.635374 0.570594 0.024479
O O12 0.683426 0.500000 0.000000
O O13 0.584203 0.608612 0.250000
O O14 0.500000 0.600766 0.016090
O O15 0.617697 0.647131 0.012685
O O16 0.111348 0.730196 0.750000
O O17 0.127115 0.775353 0.516162
O O18 0.000000 0.744065 0.568107
O O19 0.843054 0.816756 0.750000
#
# Coordination Sequence:
#
# PCOD8257527 Si02
#       7
#     8  16  16  16  16  16  16
#     4  10  20  34  52  74 100 132 170 212 256 302
#     4   9  18  33  53  75  99 130 169 211 251 297
#     4  10  19  33  55  78  99 131 175 214 250 298
#     4  10  19  33  52  75 102 130 164 207 253 302
#     4   9  16  28  50  77 101 131 173 213 246 293
#     4  10  21  34  49  75 109 138 164 205 258 304
#     4   9  16  31  53  75 100 133 173 212 249 294
#
# _framework density 18.592822999999999
#
# number of rings (size 3 to 8) (size 9 to 14) (size 15 to 20)
#    0.000    2.462    1.538    1.385    1.077    2.462 
#    0.000    1.538    0.000    0.923    0.000    0.000 
#    0.000    0.000    0.000    0.000    0.000    0.000 
#
# Total GULP energy -644821.375788 kJ/mol
# GULP energy per Si atom -12400.411073 kJ/mol
# Density = 1.855051 g / cm^3
# Si number density = 18.592823 Si / 1000 Ang^3
#
#
#
# Elastic Constant Matrix: (Units=GPa)
#
#
# Indices 1 2 3 4 5 6 
#
# 1 111.8389 50.8983 19.9005 0.0000 0.0000 0.0000
# 2 50.8983 151.4919 26.2610 0.0000 0.0000 0.0000
# 3 19.9005 26.2610 18.8584 0.0000 0.0000 0.0000
# 4 0.0000 0.0000 0.0000 27.4420 0.0000 0.0000
# 5 0.0000 0.0000 0.0000 0.0000 15.2980 0.0000
# 6 0.0000 0.0000 0.0000 0.0000 0.0000 36.7234
#
#
#
# Elastic Compliance Matrix: (Units=1/GPa)
#
#
# Indices 1 2 3 4 5 6 
#
# 1 0.011606 -0.002342 -0.008987 0.000000 0.000000 0.000000
# 2 -0.002342 0.009174 -0.010304 0.000000 0.000000 0.000000
# 3 -0.008987 -0.010304 0.076859 0.000000 0.000000 0.000000
# 4 0.000000 0.000000 0.000000 0.036440 0.000000 0.000000
# 5 0.000000 0.000000 0.000000 0.000000 0.065368 0.000000
# 6 0.000000 0.000000 0.000000 0.000000 0.000000 0.027231
#
#
# Mechanical properties :
#
#
# Convention : Reuss Voigt Hill
#
# Bulk Modulus (GPa) = 18.39104 52.92319 35.65712
# Shear Modulus (GPa) = 17.35701 28.23464 22.79582
#
# Velocity S-wave (km/s) = 3.05869 3.90112 3.50531
# Velocity P-wave (km/s) = 4.73150 6.98697 5.96678
#
# Compressibility (1/GPa) = 0.05437429
#
# Stress axis : x y z
#
# Youngs Moduli (GPa) = 86.16077 109.00432 13.01081
#
# Poissons Ratio (x) = 0.25524 0.11693
# Poissons Ratio (y) = 0.20175 0.13406
# Poissons Ratio (z) = 0.77431 1.12319
#
# Static dielectric constant tensor:
#      x y z
#    x 3.713780 0.000000 0.000000 
#    y 0.000000 3.586970 0.000000 
#    z 0.000000 0.000000 2.849250 
# 
# 
# High freq. dielectric constant tensor:
#      x y z
#    x 1.737640 0.000000 0.000000 
#    y 0.000000 1.738270 0.000000 
#    z 0.000000 0.000000 1.660390 
# 
# From -- ./inp_files/21608.got.cif
#   From: 2010.03.12/outbox.cif.g09.slc.cpg/sg63_11_cif.got.tgz:21608.got - 2010.04.10 19:34:48.
