data_PCOD8257065
_publ_section_title
;
Structure prediction by ZEFSAII (Michael W. Deem and Ramdas Pophale) SiO2 
 PCOD8257065
Probable space group: C M C M
;
_chemical_formula_sum "Si O2"
_cell_formula_units_Z 112
_cell_length_a 14.443506
_cell_length_b 14.713749
_cell_length_c 30.075377
_cell_angle_alpha 90.000000
_cell_angle_beta 90.000000
_cell_angle_gamma 90.000000
_cell_volume 6391.562637
_symmetry_space_group_name_H-M "C M C M"
_symmetry_group_IT_number 63
_symmetry_cell_setting 'orthorhombic'
loop_
_space_group_symop_operation_xyz
x,y,z
-x,-y,1/2+z
x,-y,-z
-x,y,1/2-z
-x,-y,-z
x,y,1/2-z
-x,y,z
x,-y,1/2+z
1/2+x,1/2+y,z
1/2-x,1/2-y,1/2+z
1/2+x,1/2-y,-z
1/2-x,1/2+y,1/2-z
1/2-x,1/2-y,-z
1/2+x,1/2+y,1/2-z
1/2-x,1/2+y,z
1/2+x,1/2-y,1/2+z
loop_
_atom_site_type_symbol
_atom_site_label
_atom_site_fract_x
_atom_site_fract_y
_atom_site_fract_z
Si Si1 0.890516 0.101086 0.501608
Si Si2 0.229243 0.289664 0.351865
Si Si3 0.401123 0.453730 0.647785
Si Si4 0.896705 0.209354 0.082449
Si Si5 0.264706 0.898585 0.801742
Si Si6 0.606507 0.939171 0.302537
Si Si7 0.895653 0.131544 0.900575
O O1 0.852244 0.163486 0.461500
O O2 0.865596 0.149075 0.548369
O O3 0.000000 0.092089 0.495015
O O4 0.846233 0.000000 0.500000
O O5 0.173702 0.284735 0.398908
O O6 0.254338 0.195414 0.327771
O O7 0.170467 0.358578 0.321627
O O8 0.330904 0.323535 0.364026
O O9 0.500000 0.470248 0.671848
O O10 0.401851 0.357067 0.624331
O O11 0.323587 0.461051 0.685736
O O12 0.388535 0.523826 0.607333
O O13 0.000000 0.248674 0.072533
O O14 0.265441 0.875845 0.750000
O O15 0.353883 0.960319 0.815306
O O16 0.609727 0.926872 0.250000
O O17 0.500000 0.931757 0.319832
O O18 0.000000 0.167829 0.892752
#
# Coordination Sequence:
#
# PCOD8257065 Si02
#       7
#    16  16  16  16  16  16  16
#     4   9  15  27  49  74 102 135 170 211 261 312
#     4  11  21  34  54  77 108 138 178 221 267 310
#     4   9  16  30  51  76 101 126 163 208 258 309
#     4   9  17  29  49  77 103 130 169 216 261 304
#     4  10  21  36  54  76 103 136 174 217 263 316
#     4  10  21  38  58  78 102 137 178 218 266 324
#     4  10  19  31  50  75 104 137 170 208 258 314
#
# _framework density 17.523101
#
# number of rings (size 3 to 8) (size 9 to 14) (size 15 to 20)
#    0.000    2.286    2.857    0.857    0.000    2.000 
#    0.000    0.000    0.000    1.286    0.000    0.000 
#    0.000    8.857    0.000    0.000    0.000    0.000 
#
# Total GULP energy -693796.486519 kJ/mol
# GULP energy per Si atom -12389.222974 kJ/mol
# Density = 1.748322 g / cm^3
# Si number density = 17.523101 Si / 1000 Ang^3
#
#
#
# Elastic Constant Matrix: (Units=GPa)
#
#
# Indices 1 2 3 4 5 6 
#
# 1 104.0801 41.5039 45.2629 0.0000 0.0000 0.0000
# 2 41.5039 65.5381 29.7589 0.0000 0.0000 0.0000
# 3 45.2629 29.7589 58.8333 0.0000 0.0000 0.0000
# 4 0.0000 0.0000 0.0000 19.7121 0.0000 0.0000
# 5 0.0000 0.0000 0.0000 0.0000 24.6586 0.0000
# 6 0.0000 0.0000 0.0000 0.0000 0.0000 14.6738
#
#
#
# Elastic Compliance Matrix: (Units=1/GPa)
#
#
# Indices 1 2 3 4 5 6 
#
# 1 0.016026 -0.005907 -0.009342 0.000000 0.000000 0.000000
# 2 -0.005907 0.021985 -0.006576 0.000000 0.000000 0.000000
# 3 -0.009342 -0.006576 0.027510 0.000000 0.000000 0.000000
# 4 0.000000 0.000000 0.000000 0.050730 0.000000 0.000000
# 5 0.000000 0.000000 0.000000 0.000000 0.040554 0.000000
# 6 0.000000 0.000000 0.000000 0.000000 0.000000 0.068149
#
#
# Mechanical properties :
#
#
# Convention : Reuss Voigt Hill
#
# Bulk Modulus (GPa) = 45.72006 51.27810 48.49908
# Shear Modulus (GPa) = 18.12289 19.27061 18.69675
#
# Velocity S-wave (km/s) = 3.21943 3.31981 3.27001
# Velocity P-wave (km/s) = 6.32199 6.63487 6.48032
#
# Compressibility (1/GPa) = 0.02187224
#
# Stress axis : x y z
#
# Youngs Moduli (GPa) = 62.39814 45.48529 36.35023
#
# Poissons Ratio (x) = 0.26870 0.33957
# Poissons Ratio (y) = 0.36860 0.23903
# Poissons Ratio (z) = 0.58289 0.29910
#
# Static dielectric constant tensor:
#      x y z
#    x 3.447640 0.000000 0.000000 
#    y 0.000000 3.113850 0.000000 
#    z 0.000000 0.000000 3.192330 
# 
# 
# High freq. dielectric constant tensor:
#      x y z
#    x 1.669380 0.000000 0.000000 
#    y 0.000000 1.659790 0.000000 
#    z 0.000000 0.000000 1.673480 
# 
# From -- ./inp_files/69417.got.cif
#   From: 2010.03.12/outbox.cif.g09.slc.cpg/sg63_35_cif.got.tgz:69417.got - 2010.04.10 19:34:48.
