data_PCOD8257733
_publ_section_title
;
Structure prediction by ZEFSAII (Michael W. Deem and Ramdas Pophale) SiO2 
 PCOD8257733
Probable space group: C M C M
;
_chemical_formula_sum "Si O2"
_cell_formula_units_Z 88
_cell_length_a 21.590745
_cell_length_b 22.132030
_cell_length_c 9.816751
_cell_angle_alpha 90.000000
_cell_angle_beta 90.000000
_cell_angle_gamma 90.000000
_cell_volume 4690.905173
_symmetry_space_group_name_H-M "C M C M"
_symmetry_group_IT_number 63
_symmetry_cell_setting 'orthorhombic'
loop_
_space_group_symop_operation_xyz
x,y,z
-x,-y,1/2+z
x,-y,-z
-x,y,1/2-z
-x,-y,-z
x,y,1/2-z
-x,y,z
x,-y,1/2+z
1/2+x,1/2+y,z
1/2-x,1/2-y,1/2+z
1/2+x,1/2-y,-z
1/2-x,1/2+y,1/2-z
1/2-x,1/2-y,-z
1/2+x,1/2+y,1/2-z
1/2-x,1/2+y,z
1/2+x,1/2-y,1/2+z
loop_
_atom_site_type_symbol
_atom_site_label
_atom_site_fract_x
_atom_site_fract_y
_atom_site_fract_z
Si Si1 0.749594 0.545859 0.250000
Si Si2 0.263163 0.094202 0.750000
Si Si3 0.430850 0.342563 0.092868
Si Si4 0.810227 0.115721 0.023625
Si Si5 0.152932 0.347486 0.750000
Si Si6 0.135717 0.683749 0.750000
Si Si7 0.224218 0.791822 0.750000
Si Si8 0.071867 0.704872 0.471181
O O1 0.770510 0.477494 0.250000
O O2 0.708254 0.557661 0.385306
O O3 0.809725 0.589380 0.250000
O O4 0.228255 0.117952 0.615944
O O5 0.334294 0.117222 0.750000
O O6 0.427506 0.360917 0.250000
O O7 0.500000 0.354066 0.034684
O O8 0.413038 0.272411 0.077644
O O9 0.383437 0.385010 0.009971
O O10 0.797287 0.175208 0.112162
O O11 0.201132 0.291125 0.750000
O O12 0.110395 0.343266 0.616953
O O13 0.196943 0.725348 0.750000
O O14 0.090792 0.696174 0.625719
O O15 0.000000 0.689888 0.451739
#
# Coordination Sequence:
#
# PCOD8257733 Si02
#       8
#     8   8  16  16   8   8   8  16
#     4  10  24  43  56  84 111 148 202 241 286 337
#     4  12  24  37  63  80 110 158 190 241 292 328
#     4  10  19  33  56  88 121 152 188 223 274 351
#     4  10  20  38  58  83 115 150 185 239 284 343
#     4  10  21  38  60  79 114 154 193 237 272 343
#     4  12  23  34  56  87 123 151 179 242 285 346
#     4  10  22  34  53  92 124 139 186 227 301 346
#     4  11  22  36  56  86 122 154 184 224 282 348
#
# _framework density 18.759705
#
# number of rings (size 3 to 8) (size 9 to 14) (size 15 to 20)
#    0.000    1.636    3.636    3.273    2.545    1.455 
#    0.000    1.818    0.000    6.545    0.000    0.000 
#    0.000    0.000    0.000    0.000    0.000    0.000 
#
# Total GULP energy -545575.838264 kJ/mol
# GULP energy per Si atom -12399.450870 kJ/mol
# Density = 1.871701 g / cm^3
# Si number density = 18.759705 Si / 1000 Ang^3
#
#
#
# Elastic Constant Matrix: (Units=GPa)
#
#
# Indices 1 2 3 4 5 6 
#
# 1 119.5691 35.1906 39.6021 0.0000 0.0000 0.0000
# 2 35.1906 76.8081 18.7180 0.0000 0.0000 0.0000
# 3 39.6021 18.7180 127.1180 0.0000 0.0000 0.0000
# 4 0.0000 0.0000 0.0000 672.5214 0.0000 0.0000
# 5 0.0000 0.0000 0.0000 0.0000 32.8443 0.0000
# 6 0.0000 0.0000 0.0000 0.0000 0.0000 15.1662
#
#
#
# Elastic Compliance Matrix: (Units=1/GPa)
#
#
# Indices 1 2 3 4 5 6 
#
# 1 0.010461 -0.004148 -0.002648 0.000000 0.000000 0.000000
# 2 -0.004148 0.015148 -0.000938 0.000000 0.000000 0.000000
# 3 -0.002648 -0.000938 0.008830 0.000000 0.000000 0.000000
# 4 0.000000 0.000000 0.000000 0.001487 0.000000 0.000000
# 5 0.000000 0.000000 0.000000 0.000000 0.030447 0.000000
# 6 0.000000 0.000000 0.000000 0.000000 0.000000 0.065936
#
#
# Mechanical properties :
#
#
# Convention : Reuss Voigt Hill
#
# Bulk Modulus (GPa) = 52.71241 56.72406 54.71823
# Shear Modulus (GPa) = 32.44610 159.43869 95.94239
#
# Velocity S-wave (km/s) = 4.16331 9.22900 7.15918
# Velocity P-wave (km/s) = 7.16035 11.99453 9.87774
#
# Compressibility (1/GPa) = 0.01897086
#
# Stress axis : x y z
#
# Youngs Moduli (GPa) = 95.59157 66.01358 113.25094
#
# Poissons Ratio (x) = 0.27379 0.29993
# Poissons Ratio (y) = 0.39647 0.10628
# Poissons Ratio (z) = 0.25316 0.06195
#
# Static dielectric constant tensor:
#      x y z
#    x 3.541960 0.000000 0.000000 
#    y 0.000000 3.078730 0.000000 
#    z 0.000000 0.000000 3.654140 
# 
# 
# High freq. dielectric constant tensor:
#      x y z
#    x 1.734140 0.000000 0.000000 
#    y 0.000000 1.690580 0.000000 
#    z 0.000000 0.000000 1.748990 
# 
# From -- ./inp_files/8341.got.cif
#   From: 2010.03.12/outbox.cif.g09.slc.cpg/sg63_5_cif.got.tgz:8341.got - 2010.04.10 19:34:48.
