data_PCOD8257859
_publ_section_title
;
Structure prediction by ZEFSAII (Michael W. Deem and Ramdas Pophale) SiO2 
 PCOD8257859
Probable space group: C M C M
;
_chemical_formula_sum "Si O2"
_cell_formula_units_Z 96
_cell_length_a 29.259201
_cell_length_b 9.783544
_cell_length_c 18.383816
_cell_angle_alpha 90.000000
_cell_angle_beta 90.000000
_cell_angle_gamma 90.000000
_cell_volume 5262.526909
_symmetry_space_group_name_H-M "C M C M"
_symmetry_group_IT_number 63
_symmetry_cell_setting 'orthorhombic'
loop_
_space_group_symop_operation_xyz
x,y,z
-x,-y,1/2+z
x,-y,-z
-x,y,1/2-z
-x,-y,-z
x,y,1/2-z
-x,y,z
x,-y,1/2+z
1/2+x,1/2+y,z
1/2-x,1/2-y,1/2+z
1/2+x,1/2-y,-z
1/2-x,1/2+y,1/2-z
1/2-x,1/2-y,-z
1/2+x,1/2+y,1/2-z
1/2-x,1/2+y,z
1/2+x,1/2-y,1/2+z
loop_
_atom_site_type_symbol
_atom_site_label
_atom_site_fract_x
_atom_site_fract_y
_atom_site_fract_z
Si Si1 0.778627 0.770315 0.336667
Si Si2 0.052015 0.395149 0.600626
Si Si3 0.119380 0.202384 0.668046
Si Si4 0.615792 0.555206 0.422074
Si Si5 0.722322 0.457129 0.582354
Si Si6 0.447521 0.802501 0.439178
O O1 0.769184 0.749365 0.250000
O O2 0.831290 0.747075 0.360219
O O3 0.750267 0.671220 0.388534
O O4 0.765957 0.923731 0.360368
O O5 0.084095 0.326134 0.660184
O O6 0.059526 0.557470 0.605051
O O7 0.065320 0.333119 0.522493
O O8 0.000000 0.359172 0.619240
O O9 0.125504 0.159065 0.750000
O O10 0.100806 0.065285 0.631269
O O11 0.601770 0.500000 0.500000
O O12 0.669390 0.587809 0.415816
O O13 0.586427 0.690669 0.405001
O O14 0.736446 0.500000 0.500000
O O15 0.500000 0.752494 0.432632
#
# Coordination Sequence:
#
# PCOD8257859 Si02
#       6
#    16  16  16  16  16  16
#     4  10  21  38  56  77 109 147 181 219 270 333
#     4   9  18  34  54  79 108 140 178 221 264 314
#     4  10  21  36  53  78 110 143 178 220 271 324
#     4  10  19  34  56  82 110 140 176 223 271 318
#     4  10  21  36  55  81 111 139 182 229 274 313
#     4   9  18  33  55  81 107 137 179 222 263 313
#
# _framework density 18.242187000000001
#
# number of rings (size 3 to 8) (size 9 to 14) (size 15 to 20)
#    0.000    2.333    1.667    2.000    0.000    3.333 
#    3.000    0.833    0.000    1.000    0.000    0.000 
#    0.000    0.000    0.000    0.000    0.000    0.000 
#
# Total GULP energy -595106.520959 kJ/mol
# GULP energy per Si atom -12398.052520 kJ/mol
# Density = 1.820067 g / cm^3
# Si number density = 18.242187 Si / 1000 Ang^3
#
#
#
# Elastic Constant Matrix: (Units=GPa)
#
#
# Indices 1 2 3 4 5 6 
#
# 1 85.7202 70.8201 31.2871 0.0000 0.0000 0.0000
# 2 70.8201 108.9999 32.4862 0.0000 0.0000 0.0000
# 3 31.2871 32.4862 53.9657 0.0000 0.0000 0.0000
# 4 0.0000 0.0000 0.0000 30.9590 0.0000 0.0000
# 5 0.0000 0.0000 0.0000 0.0000 22.3266 0.0000
# 6 0.0000 0.0000 0.0000 0.0000 0.0000 40.2027
#
#
#
# Elastic Compliance Matrix: (Units=1/GPa)
#
#
# Indices 1 2 3 4 5 6 
#
# 1 0.026762 -0.015554 -0.006152 0.000000 0.000000 0.000000
# 2 -0.015554 0.020221 -0.003155 0.000000 0.000000 0.000000
# 3 -0.006152 -0.003155 0.023996 0.000000 0.000000 0.000000
# 4 0.000000 0.000000 0.000000 0.032301 0.000000 0.000000
# 5 0.000000 0.000000 0.000000 0.000000 0.044790 0.000000
# 6 0.000000 0.000000 0.000000 0.000000 0.000000 0.024874
#
#
# Mechanical properties :
#
#
# Convention : Reuss Voigt Hill
#
# Bulk Modulus (GPa) = 47.04448 57.54138 52.29293
# Shear Modulus (GPa) = 21.76271 26.30382 24.03327
#
# Velocity S-wave (km/s) = 3.45771 3.80138 3.63361
# Velocity P-wave (km/s) = 6.46420 7.13294 6.80679
#
# Compressibility (1/GPa) = 0.02125648
#
# Stress axis : x y z
#
# Youngs Moduli (GPa) = 37.36633 49.45448 41.67365
#
# Poissons Ratio (x) = 0.76924 0.25638
# Poissons Ratio (y) = 0.58121 0.13146
# Poissons Ratio (z) = 0.22988 0.15601
#
# Static dielectric constant tensor:
#      x y z
#    x 3.352140 0.000000 0.000000 
#    y 0.000000 3.322730 0.000000 
#    z 0.000000 0.000000 3.208510 
# 
# 
# High freq. dielectric constant tensor:
#      x y z
#    x 1.705620 0.000000 0.000000 
#    y 0.000000 1.709720 0.000000 
#    z 0.000000 0.000000 1.695320 
# 
# From -- ./inp_files/58115.got.cif
#   From: 2010.03.12/outbox.cif.g09.slc.cpg/sg63_30_cif.got.tgz:58115.got - 2010.04.10 19:34:48.
