data_PCOD8257279
_publ_section_title
;
Structure prediction by ZEFSAII (Michael W. Deem and Ramdas Pophale) SiO2 
 PCOD8257279
Probable space group: C M C M
;
_chemical_formula_sum "Si O2"
_cell_formula_units_Z 96
_cell_length_a 18.700661
_cell_length_b 29.605293
_cell_length_c 9.710010
_cell_angle_alpha 90.000000
_cell_angle_beta 90.000000
_cell_angle_gamma 90.000000
_cell_volume 5375.835839
_symmetry_space_group_name_H-M "C M C M"
_symmetry_group_IT_number 63
_symmetry_cell_setting 'orthorhombic'
loop_
_space_group_symop_operation_xyz
x,y,z
-x,-y,1/2+z
x,-y,-z
-x,y,1/2-z
-x,-y,-z
x,y,1/2-z
-x,y,z
x,-y,1/2+z
1/2+x,1/2+y,z
1/2-x,1/2-y,1/2+z
1/2+x,1/2-y,-z
1/2-x,1/2+y,1/2-z
1/2-x,1/2-y,-z
1/2+x,1/2+y,1/2-z
1/2-x,1/2+y,z
1/2+x,1/2-y,1/2+z
loop_
_atom_site_type_symbol
_atom_site_label
_atom_site_fract_x
_atom_site_fract_y
_atom_site_fract_z
Si Si1 0.690227 0.725183 0.409162
Si Si2 0.582663 0.457071 0.590329
Si Si3 0.419486 0.963393 0.402555
Si Si4 0.307489 0.621142 0.089633
Si Si5 0.175330 0.377287 0.094037
Si Si6 0.079375 0.297458 0.410365
O O1 0.713962 0.730037 0.250000
O O2 0.750000 0.750000 0.500000
O O3 0.676644 0.673172 0.450028
O O4 0.613202 0.748223 0.434905
O O5 0.608517 0.500000 0.500000
O O6 0.594243 0.469835 0.750000
O O7 0.500000 0.445951 0.558898
O O8 0.626834 0.411927 0.550892
O O9 0.417437 0.983856 0.250000
O O10 0.500000 0.954872 0.454163
O O11 0.380874 0.000000 0.500000
O O12 0.382323 0.915945 0.408142
O O13 0.288551 0.616519 0.250000
O O14 0.240067 0.606148 0.000107
O O15 0.202592 0.367532 0.250000
O O16 0.135477 0.333787 0.027706
O O17 0.071379 0.308830 0.250000
O O18 0.000000 0.299448 0.478782
#
# Coordination Sequence:
#
# PCOD8257279 Si02
#       6
#    16  16  16  16  16  16
#     4  10  19  33  53  76 104 138 172 212 261 311
#     4   9  19  37  58  79 106 139 176 220 269 319
#     4   9  18  32  49  69  95 128 167 210 252 294
#     4  10  21  34  52  79 108 136 168 212 263 312
#     4  10  19  32  51  74 100 133 170 210 252 301
#     4   9  17  30  51  77 100 128 171 214 250 296
#
# _framework density 17.857688
#
# number of rings (size 3 to 8) (size 9 to 14) (size 15 to 20)
#    0.000    2.500    1.667    0.500    0.000    4.667 
#    0.000    6.667    0.000    3.000    0.000    2.333 
#    0.000    0.000    0.000    0.000    0.000    0.000 
#
# Total GULP energy -595000.163149 kJ/mol
# GULP energy per Si atom -12395.836732 kJ/mol
# Density = 1.781704 g / cm^3
# Si number density = 17.857688 Si / 1000 Ang^3
#
#
#
# Elastic Constant Matrix: (Units=GPa)
#
#
# Indices 1 2 3 4 5 6 
#
# 1 99.7514 50.9637 41.9786 0.0000 0.0000 0.0000
# 2 50.9637 122.5748 48.7165 0.0000 0.0000 0.0000
# 3 41.9786 48.7165 56.0445 0.0000 0.0000 0.0000
# 4 0.0000 0.0000 0.0000 25.6840 0.0000 0.0000
# 5 0.0000 0.0000 0.0000 0.0000 -102.6737 0.0000
# 6 0.0000 0.0000 0.0000 0.0000 0.0000 24.8816
#
#
#
# Elastic Compliance Matrix: (Units=1/GPa)
#
#
# Indices 1 2 3 4 5 6 
#
# 1 0.015221 -0.002746 -0.009014 0.000000 0.000000 0.000000
# 2 -0.002746 0.012960 -0.009208 0.000000 0.000000 0.000000
# 3 -0.009014 -0.009208 0.032599 0.000000 0.000000 0.000000
# 4 0.000000 0.000000 0.000000 0.038935 0.000000 0.000000
# 5 0.000000 0.000000 0.000000 0.000000 -0.009740 0.000000
# 6 0.000000 0.000000 0.000000 0.000000 0.000000 0.040190
#
#
# Mechanical properties :
#
#
# Convention : Reuss Voigt Hill
#
# Bulk Modulus (GPa) = 53.06987 62.40982 57.73984
# Shear Modulus (GPa) = 28.02938 -1.30751 13.36094
#
# Velocity S-wave (km/s) = 3.96611 -0.85660 2.73827
# Velocity P-wave (km/s) = 7.12433 5.83489 6.51161
#
# Compressibility (1/GPa) = 0.01884308
#
# Stress axis : x y z
#
# Youngs Moduli (GPa) = 65.69715 77.16128 30.67564
#
# Poissons Ratio (x) = 0.21189 0.27651
# Poissons Ratio (y) = 0.18041 0.28247
# Poissons Ratio (z) = 0.59220 0.71053
#
# Static dielectric constant tensor:
#      x y z
#    x 3.310980 0.000000 0.000000 
#    y 0.000000 3.429450 0.000000 
#    z 0.000000 0.000000 3.356520 
# 
# 
# High freq. dielectric constant tensor:
#      x y z
#    x 1.685730 0.000000 0.000000 
#    y 0.000000 1.700400 0.000000 
#    z 0.000000 0.000000 1.669790 
# 
# From -- ./inp_files/21303.got.cif
#   From: 2010.03.12/outbox.cif.g09.slc.cpg/sg63_11_cif.got.tgz:21303.got - 2010.04.10 19:34:48.
