data_PCOD8257461
_publ_section_title
;
Structure prediction by ZEFSAII (Michael W. Deem and Ramdas Pophale) SiO2 
 PCOD8257461
Probable space group: C M C M
;
_chemical_formula_sum "Si O2"
_cell_formula_units_Z 96
_cell_length_a 9.298539
_cell_length_b 24.572087
_cell_length_c 23.492858
_cell_angle_alpha 90.000000
_cell_angle_beta 90.000000
_cell_angle_gamma 90.000000
_cell_volume 5367.754132
_symmetry_space_group_name_H-M "C M C M"
_symmetry_group_IT_number 63
_symmetry_cell_setting 'orthorhombic'
loop_
_space_group_symop_operation_xyz
x,y,z
-x,-y,1/2+z
x,-y,-z
-x,y,1/2-z
-x,-y,-z
x,y,1/2-z
-x,y,z
x,-y,1/2+z
1/2+x,1/2+y,z
1/2-x,1/2-y,1/2+z
1/2+x,1/2-y,-z
1/2-x,1/2+y,1/2-z
1/2-x,1/2-y,-z
1/2+x,1/2+y,1/2-z
1/2-x,1/2+y,z
1/2+x,1/2-y,1/2+z
loop_
_atom_site_type_symbol
_atom_site_label
_atom_site_fract_x
_atom_site_fract_y
_atom_site_fract_z
Si Si1 0.336700 0.109051 0.250000
Si Si2 0.169927 0.976414 0.061102
Si Si3 0.166452 0.436035 0.871276
Si Si4 0.333782 0.828606 0.936210
Si Si5 0.666759 0.761705 0.129345
Si Si6 0.664526 0.133929 0.561384
Si Si7 0.669588 0.279768 0.750000
O O1 0.500000 0.131134 0.250000
O O2 0.307498 0.071478 0.304380
O O3 0.233969 0.160412 0.250000
O O4 0.227825 0.915766 0.068371
O O5 0.000000 0.975920 0.068776
O O6 0.238892 0.012970 0.110156
O O7 0.216511 0.000000 0.000000
O O8 0.221568 0.382613 0.904287
O O9 0.000000 0.447633 0.885889
O O10 0.500000 0.819018 0.921977
O O11 0.248962 0.776739 0.914273
O O12 0.304298 0.834396 0.002958
O O13 0.500000 0.746819 0.123396
O O14 0.694433 0.824416 0.112941
O O15 0.721374 0.752929 0.194018
O O16 0.500000 0.112583 0.562213
O O17 0.500000 0.286550 0.750000
#
# Coordination Sequence:
#
# PCOD8257461 Si02
#       7
#     8  16  16  16  16  16   8
#     4  10  20  36  57  82 109 141 182 224 270 325
#     4  11  23  37  56  82 110 142 182 228 276 325
#     4  10  20  35  57  83 110 141 181 224 270 325
#     4  10  19  32  55  83 110 141 177 223 275 324
#     4  10  21  35  53  79 111 145 182 222 269 324
#     4  10  21  37  55  78 110 149 185 221 271 329
#     4  10  20  34  53  78 109 145 180 220 268 317
#
# _framework density 17.884574000000001
#
# number of rings (size 3 to 8) (size 9 to 14) (size 15 to 20)
#    0.000    1.833    3.333    1.000    0.000    3.333 
#    0.000    0.833    0.000    3.000    0.000    0.000 
#    0.000    0.000    0.000    0.000    0.000    0.000 
#
# Total GULP energy -595402.460092 kJ/mol
# GULP energy per Si atom -12404.217919 kJ/mol
# Density = 1.784387 g / cm^3
# Si number density = 17.884574 Si / 1000 Ang^3
#
#
#
# Elastic Constant Matrix: (Units=GPa)
#
#
# Indices 1 2 3 4 5 6 
#
# 1 53.3409 47.3419 33.9603 0.0000 0.0000 0.0000
# 2 47.3419 103.6136 46.8771 0.0000 0.0000 0.0000
# 3 33.9603 46.8771 105.8714 0.0000 0.0000 0.0000
# 4 0.0000 0.0000 0.0000 26.2038 0.0000 0.0000
# 5 0.0000 0.0000 0.0000 0.0000 23.5487 0.0000
# 6 0.0000 0.0000 0.0000 0.0000 0.0000 33.6269
#
#
#
# Elastic Compliance Matrix: (Units=1/GPa)
#
#
# Indices 1 2 3 4 5 6 
#
# 1 0.033498 -0.013061 -0.004962 0.000000 0.000000 0.000000
# 2 -0.013061 0.017161 -0.003409 0.000000 0.000000 0.000000
# 3 -0.004962 -0.003409 0.012547 0.000000 0.000000 0.000000
# 4 0.000000 0.000000 0.000000 0.038162 0.000000 0.000000
# 5 0.000000 0.000000 0.000000 0.000000 0.042465 0.000000
# 6 0.000000 0.000000 0.000000 0.000000 0.000000 0.029738
#
#
# Mechanical properties :
#
#
# Convention : Reuss Voigt Hill
#
# Bulk Modulus (GPa) = 49.15914 57.68717 53.42315
# Shear Modulus (GPa) = 22.39978 25.65232 24.02605
#
# Velocity S-wave (km/s) = 3.54286 3.79136 3.66921
# Velocity P-wave (km/s) = 6.65450 7.17573 6.92002
#
# Compressibility (1/GPa) = 0.02034210
#
# Stress axis : x y z
#
# Youngs Moduli (GPa) = 29.85216 58.27147 79.70269
#
# Poissons Ratio (x) = 0.76106 0.39551
# Poissons Ratio (y) = 0.38989 0.27171
# Poissons Ratio (z) = 0.14814 0.19865
#
# Static dielectric constant tensor:
#      x y z
#    x 3.253900 0.000000 0.000000 
#    y 0.000000 3.158270 0.000000 
#    z 0.000000 0.000000 3.519890 
# 
# 
# High freq. dielectric constant tensor:
#      x y z
#    x 1.688270 0.000000 0.000000 
#    y 0.000000 1.685840 0.000000 
#    z 0.000000 0.000000 1.697740 
# 
# From -- ./inp_files/60089.got.cif
#   From: 2010.03.12/outbox.cif.g09.slc.cpg/sg63_31_cif.got.tgz:60089.got - 2010.04.10 19:34:48.
