data_PCOD8257691
_publ_section_title
;
Structure prediction by ZEFSAII (Michael W. Deem and Ramdas Pophale) SiO2 
 PCOD8257691
Probable space group: C M C M
;
_chemical_formula_sum "Si O2"
_cell_formula_units_Z 80
_cell_length_a 24.123003
_cell_length_b 10.375479
_cell_length_c 17.812612
_cell_angle_alpha 90.000000
_cell_angle_beta 90.000000
_cell_angle_gamma 90.000000
_cell_volume 4458.277885
_symmetry_space_group_name_H-M "C M C M"
_symmetry_group_IT_number 63
_symmetry_cell_setting 'orthorhombic'
loop_
_space_group_symop_operation_xyz
x,y,z
-x,-y,1/2+z
x,-y,-z
-x,y,1/2-z
-x,-y,-z
x,y,1/2-z
-x,y,z
x,-y,1/2+z
1/2+x,1/2+y,z
1/2-x,1/2-y,1/2+z
1/2+x,1/2-y,-z
1/2-x,1/2+y,1/2-z
1/2-x,1/2-y,-z
1/2+x,1/2+y,1/2-z
1/2-x,1/2+y,z
1/2+x,1/2-y,1/2+z
loop_
_atom_site_type_symbol
_atom_site_label
_atom_site_fract_x
_atom_site_fract_y
_atom_site_fract_z
Si Si1 0.723430 0.015273 0.665155
Si Si2 0.500000 0.350650 0.987656
Si Si3 0.603489 0.197455 0.463845
Si Si4 0.896269 0.440810 0.384218
Si Si5 0.000000 0.288414 0.332956
Si Si6 0.222430 0.749167 0.419300
O O1 0.743748 0.994287 0.750000
O O2 0.737227 0.887306 0.618390
O O3 0.657976 0.045299 0.666750
O O4 0.756892 0.134024 0.631017
O O5 0.500000 0.317710 0.898818
O O6 0.500000 0.500000 0.000000
O O7 0.446271 0.297126 0.029448
O O8 0.621649 0.146312 0.545284
O O9 0.656256 0.266593 0.426727
O O10 0.582512 0.079635 0.412479
O O11 0.945801 0.377361 0.337990
O O12 0.000000 0.222833 0.250000
O O13 0.250000 0.750000 0.500000
#
# Coordination Sequence:
#
# PCOD8257691 Si02
#       6
#    16   8  16  16   8  16
#     4  11  22  36  55  84 117 145 181 236 289 331
#     4  10  21  35  55  79 113 146 185 230 265 324
#     4   9  18  34  56  82 103 142 189 227 268 318
#     4   9  17  33  57  81 108 136 180 230 273 326
#     4  10  19  33  55  83 108 138 175 224 284 329
#     4  11  21  37  58  80 110 150 194 228 273 340
#
# _framework density 17.944147999999998
#
# number of rings (size 3 to 8) (size 9 to 14) (size 15 to 20)
#    0.000    2.000    2.000    2.400    0.000    4.000 
#    0.000    0.000    0.000    7.200    0.000    0.000 
#    0.000    0.000    0.000    0.000    0.000    0.000 
#
# Total GULP energy -496025.018335 kJ/mol
# GULP energy per Si atom -12400.625458 kJ/mol
# Density = 1.790331 g / cm^3
# Si number density = 17.944148 Si / 1000 Ang^3
#
#
#
# Elastic Constant Matrix: (Units=GPa)
#
#
# Indices 1 2 3 4 5 6 
#
# 1 94.5199 70.7802 46.3533 0.0000 0.0000 0.0000
# 2 70.7802 138.1231 53.9825 0.0000 0.0000 0.0000
# 3 46.3533 53.9825 107.9902 0.0000 0.0000 0.0000
# 4 0.0000 0.0000 0.0000 23.9090 0.0000 0.0000
# 5 0.0000 0.0000 0.0000 0.0000 19.8123 0.0000
# 6 0.0000 0.0000 0.0000 0.0000 0.0000 30.3465
#
#
#
# Elastic Compliance Matrix: (Units=1/GPa)
#
#
# Indices 1 2 3 4 5 6 
#
# 1 0.018440 -0.007899 -0.003966 0.000000 0.000000 0.000000
# 2 -0.007899 0.012382 -0.002799 0.000000 0.000000 0.000000
# 3 -0.003966 -0.002799 0.012362 0.000000 0.000000 0.000000
# 4 0.000000 0.000000 0.000000 0.041825 0.000000 0.000000
# 5 0.000000 0.000000 0.000000 0.000000 0.050474 0.000000
# 6 0.000000 0.000000 0.000000 0.000000 0.000000 0.032953
#
#
# Mechanical properties :
#
#
# Convention : Reuss Voigt Hill
#
# Bulk Modulus (GPa) = 72.17835 75.87390 74.02613
# Shear Modulus (GPa) = 24.70564 26.11470 25.41017
#
# Velocity S-wave (km/s) = 3.71456 3.81902 3.76715
# Velocity P-wave (km/s) = 7.66215 7.86268 7.76306
#
# Compressibility (1/GPa) = 0.01385457
#
# Stress axis : x y z
#
# Youngs Moduli (GPa) = 54.22887 80.76413 80.89511
#
# Poissons Ratio (x) = 0.63799 0.32087
# Poissons Ratio (y) = 0.42838 0.22640
# Poissons Ratio (z) = 0.21510 0.22603
#
# Static dielectric constant tensor:
#      x y z
#    x 3.404670 0.000000 0.000000 
#    y 0.000000 3.239380 0.000000 
#    z 0.000000 0.000000 3.573770 
# 
# 
# High freq. dielectric constant tensor:
#      x y z
#    x 1.701120 0.000000 0.000000 
#    y 0.000000 1.684730 0.000000 
#    z 0.000000 0.000000 1.693210 
# 
# From -- ./inp_files/57267.got.cif
#   From: 2010.03.12/outbox.cif.g09.slc.cpg/sg63_29_cif.got.tgz:57267.got - 2010.04.10 19:34:48.
