data_PCOD8257992
_publ_section_title
;
Structure prediction by ZEFSAII (Michael W. Deem and Ramdas Pophale) SiO2 
 PCOD8257992
Probable space group: C M C M
;
_chemical_formula_sum "Si O2"
_cell_formula_units_Z 80
_cell_length_a 29.212417
_cell_length_b 7.869028
_cell_length_c 16.503948
_cell_angle_alpha 90.000000
_cell_angle_beta 90.000000
_cell_angle_gamma 90.000000
_cell_volume 3793.817441
_symmetry_space_group_name_H-M "C M C M"
_symmetry_group_IT_number 63
_symmetry_cell_setting 'orthorhombic'
loop_
_space_group_symop_operation_xyz
x,y,z
-x,-y,1/2+z
x,-y,-z
-x,y,1/2-z
-x,-y,-z
x,y,1/2-z
-x,y,z
x,-y,1/2+z
1/2+x,1/2+y,z
1/2-x,1/2-y,1/2+z
1/2+x,1/2-y,-z
1/2-x,1/2+y,1/2-z
1/2-x,1/2-y,-z
1/2+x,1/2+y,1/2-z
1/2-x,1/2+y,z
1/2+x,1/2-y,1/2+z
loop_
_atom_site_type_symbol
_atom_site_label
_atom_site_fract_x
_atom_site_fract_y
_atom_site_fract_z
Si Si1 0.051402 0.898230 0.346599
Si Si2 0.797490 0.937042 0.909318
Si Si3 0.707308 0.793558 0.657470
Si Si4 0.386961 0.709791 0.345597
Si Si5 0.889688 0.412881 0.654545
O O1 0.050341 0.894039 0.250000
O O2 0.076392 0.729897 0.382416
O O3 0.000000 0.902914 0.381586
O O4 0.077640 0.067267 0.376882
O O5 0.749540 0.840680 0.899684
O O6 0.838368 0.808056 0.889586
O O7 0.800963 0.092283 0.846584
O O8 0.802645 0.000000 0.000000
O O9 0.717774 0.846221 0.750000
O O10 0.662120 0.886869 0.623022
O O11 0.378950 0.694779 0.250000
O O12 0.406606 0.897199 0.368088
O O13 0.888856 0.384049 0.750000
#
# Coordination Sequence:
#
# PCOD8257992 Si02
#       5
#    16  16  16  16  16
#     4   9  17  31  54  85 117 147 188 249 306 347
#     4  12  24  37  55  85 122 154 197 247 297 349
#     4  11  21  37  58  81 114 158 200 241 288 355
#     4  10  19  35  57  82 115 156 197 238 292 361
#     4   9  18  32  54  83 112 146 192 239 288 347
#
# _framework density 21.086939999999998
#
# number of rings (size 3 to 8) (size 9 to 14) (size 15 to 20)
#    0.000    1.800    2.000    3.600    0.000    2.400 
#    0.000    4.000    0.000    0.600    0.000    1.400 
#    0.000    0.000    0.000    0.000    0.000    0.000 
#
# Total GULP energy -496046.201398 kJ/mol
# GULP energy per Si atom -12401.155035 kJ/mol
# Density = 2.103895 g / cm^3
# Si number density = 21.086940 Si / 1000 Ang^3
#
#
#
# Elastic Constant Matrix: (Units=GPa)
#
#
# Indices 1 2 3 4 5 6 
#
# 1 169.0824 81.1192 15.3683 0.0000 0.0000 0.0000
# 2 81.1192 163.8329 7.6174 0.0000 0.0000 0.0000
# 3 15.3683 7.6174 27.8446 0.0000 0.0000 0.0000
# 4 0.0000 0.0000 0.0000 6.6032 0.0000 0.0000
# 5 0.0000 0.0000 0.0000 0.0000 3.2037 0.0000
# 6 0.0000 0.0000 0.0000 0.0000 0.0000 30.5811
#
#
#
# Elastic Compliance Matrix: (Units=1/GPa)
#
#
# Indices 1 2 3 4 5 6 
#
# 1 0.008063 -0.003834 -0.003401 0.000000 0.000000 0.000000
# 2 -0.003834 0.008006 -0.000074 0.000000 0.000000 0.000000
# 3 -0.003401 -0.000074 0.037811 0.000000 0.000000 0.000000
# 4 0.000000 0.000000 0.000000 0.151442 0.000000 0.000000
# 5 0.000000 0.000000 0.000000 0.000000 0.312143 0.000000
# 6 0.000000 0.000000 0.000000 0.000000 0.000000 0.032700
#
#
# Mechanical properties :
#
#
# Convention : Reuss Voigt Hill
#
# Bulk Modulus (GPa) = 25.47058 63.21886 44.34472
# Shear Modulus (GPa) = 8.65246 25.18792 16.92019
#
# Velocity S-wave (km/s) = 2.02784 3.45987 2.83574
# Velocity P-wave (km/s) = 4.19380 6.78278 5.63889
#
# Compressibility (1/GPa) = 0.03926098
#
# Stress axis : x y z
#
# Youngs Moduli (GPa) = 124.02559 124.91283 26.44730
#
# Poissons Ratio (x) = 0.47892 0.08995
# Poissons Ratio (y) = 0.47552 0.00196
# Poissons Ratio (z) = 0.42184 0.00924
#
# Static dielectric constant tensor:
#      x y z
#    x 3.921790 0.000000 0.000000 
#    y 0.000000 4.037860 0.000000 
#    z 0.000000 0.000000 3.203490 
# 
# 
# High freq. dielectric constant tensor:
#      x y z
#    x 1.822920 0.000000 0.000000 
#    y 0.000000 1.841340 0.000000 
#    z 0.000000 0.000000 1.777690 
# 
# From -- ./inp_files/48741.got.cif
#   From: 2010.03.12/outbox.cif.g09.slc.cpg/sg63_25_cif.got.tgz:48741.got - 2010.04.10 19:34:48.
