data_PCOD8257405
_publ_section_title
;
Structure prediction by ZEFSAII (Michael W. Deem and Ramdas Pophale) SiO2 
 PCOD8257405
Probable space group: C M C M
;
_chemical_formula_sum "Si O2"
_cell_formula_units_Z 80
_cell_length_a 9.132548
_cell_length_b 15.045145
_cell_length_c 29.645544
_cell_angle_alpha 90.000000
_cell_angle_beta 90.000000
_cell_angle_gamma 90.000000
_cell_volume 4073.312832
_symmetry_space_group_name_H-M "C M C M"
_symmetry_group_IT_number 63
_symmetry_cell_setting 'orthorhombic'
loop_
_space_group_symop_operation_xyz
x,y,z
-x,-y,1/2+z
x,-y,-z
-x,y,1/2-z
-x,-y,-z
x,y,1/2-z
-x,y,z
x,-y,1/2+z
1/2+x,1/2+y,z
1/2-x,1/2-y,1/2+z
1/2+x,1/2-y,-z
1/2-x,1/2+y,1/2-z
1/2-x,1/2-y,-z
1/2+x,1/2+y,1/2-z
1/2-x,1/2+y,z
1/2+x,1/2-y,1/2+z
loop_
_atom_site_type_symbol
_atom_site_label
_atom_site_fract_x
_atom_site_fract_y
_atom_site_fract_z
Si Si1 0.673107 0.518591 0.800286
Si Si2 0.161520 0.137118 0.463371
Si Si3 0.173357 0.176720 0.636019
Si Si4 0.837178 0.652799 0.953007
Si Si5 0.825809 0.138364 0.363760
O O1 0.741117 0.516019 0.750000
O O2 0.500000 0.510645 0.798078
O O3 0.717318 0.610858 0.823573
O O4 0.732480 0.434990 0.828802
O O5 0.155233 0.243144 0.462197
O O6 0.268914 0.103915 0.503042
O O7 0.216767 0.104553 0.414171
O O8 0.000000 0.099021 0.473618
O O9 0.235691 0.134168 0.590084
O O10 0.245000 0.270503 0.648310
O O11 0.000000 0.187759 0.630469
O O12 0.000000 0.614654 0.944624
O O13 0.000000 0.155018 0.361329
#
# Coordination Sequence:
#
# PCOD8257405 Si02
#       5
#    16  16  16  16  16
#     4   9  19  36  56  77 102 134 173 215 259 309
#     4   8  14  25  44  71 100 131 170 210 247 293
#     4  10  19  32  53  79 106 136 170 211 257 303
#     4   9  16  27  46  72 103 138 172 205 246 300
#     4   9  18  34  55  77 103 137 174 211 253 304
#
# _framework density 19.640032999999999
#
# number of rings (size 3 to 8) (size 9 to 14) (size 15 to 20)
#    0.000    3.000    0.000    2.400    0.000    5.600 
#    0.000    3.000    0.000   10.200    0.000    0.000 
#    0.000    0.000    0.000    0.000    0.000    0.000 
#
# Total GULP energy -495856.419447 kJ/mol
# GULP energy per Si atom -12396.410486 kJ/mol
# Density = 1.959533 g / cm^3
# Si number density = 19.640033 Si / 1000 Ang^3
#
#
#
# Elastic Constant Matrix: (Units=GPa)
#
#
# Indices 1 2 3 4 5 6 
#
# 1 72.7282 26.5566 35.0802 0.0000 0.0000 0.0000
# 2 26.5566 59.2780 38.8958 0.0000 0.0000 0.0000
# 3 35.0802 38.8958 129.5972 0.0000 0.0000 0.0000
# 4 0.0000 0.0000 0.0000 8.9413 0.0000 0.0000
# 5 0.0000 0.0000 0.0000 0.0000 21.3874 0.0000
# 6 0.0000 0.0000 0.0000 0.0000 0.0000 17.9584
#
#
#
# Elastic Compliance Matrix: (Units=1/GPa)
#
#
# Indices 1 2 3 4 5 6 
#
# 1 0.017290 -0.005822 -0.002933 0.000000 0.000000 0.000000
# 2 -0.005822 0.022967 -0.005317 0.000000 0.000000 0.000000
# 3 -0.002933 -0.005317 0.010106 0.000000 0.000000 0.000000
# 4 0.000000 0.000000 0.000000 0.111841 0.000000 0.000000
# 5 0.000000 0.000000 0.000000 0.000000 0.046757 0.000000
# 6 0.000000 0.000000 0.000000 0.000000 0.000000 0.055684
#
#
# Mechanical properties :
#
#
# Convention : Reuss Voigt Hill
#
# Bulk Modulus (GPa) = 45.00554 51.40761 48.20658
# Shear Modulus (GPa) = 16.65586 20.39545 18.52566
#
# Velocity S-wave (km/s) = 2.91530 3.22602 3.07459
# Velocity P-wave (km/s) = 5.85636 6.33309 6.09938
#
# Compressibility (1/GPa) = 0.02221949
#
# Stress axis : x y z
#
# Youngs Moduli (GPa) = 57.83590 43.54145 98.95132
#
# Poissons Ratio (x) = 0.25348 0.29023
# Poissons Ratio (y) = 0.33669 0.52614
# Poissons Ratio (z) = 0.16963 0.23152
#
# Static dielectric constant tensor:
#      x y z
#    x 3.511050 0.000000 0.000000 
#    y 0.000000 3.278650 0.000000 
#    z 0.000000 0.000000 3.944230 
# 
# 
# High freq. dielectric constant tensor:
#      x y z
#    x 1.745500 0.000000 0.000000 
#    y 0.000000 1.744040 0.000000 
#    z 0.000000 0.000000 1.769950 
# 
# From -- ./inp_files/71601.got.cif
#   From: 2010.03.12/outbox.cif.g09.slc.cpg/sg63_36_cif.got.tgz:71601.got - 2010.04.10 19:34:48.
