data_PCOD8257105
_publ_section_title
;
Structure prediction by ZEFSAII (Michael W. Deem and Ramdas Pophale) SiO2 
 PCOD8257105
Probable space group: C M C M
;
_chemical_formula_sum "Si O2"
_cell_formula_units_Z 96
_cell_length_a 9.346890
_cell_length_b 23.126012
_cell_length_c 25.890664
_cell_angle_alpha 90.000000
_cell_angle_beta 90.000000
_cell_angle_gamma 90.000000
_cell_volume 5596.429884
_symmetry_space_group_name_H-M "C M C M"
_symmetry_group_IT_number 63
_symmetry_cell_setting 'orthorhombic'
loop_
_space_group_symop_operation_xyz
x,y,z
-x,-y,1/2+z
x,-y,-z
-x,y,1/2-z
-x,-y,-z
x,y,1/2-z
-x,y,z
x,-y,1/2+z
1/2+x,1/2+y,z
1/2-x,1/2-y,1/2+z
1/2+x,1/2-y,-z
1/2-x,1/2+y,1/2-z
1/2-x,1/2-y,-z
1/2+x,1/2+y,1/2-z
1/2-x,1/2+y,z
1/2+x,1/2-y,1/2+z
loop_
_atom_site_type_symbol
_atom_site_label
_atom_site_fract_x
_atom_site_fract_y
_atom_site_fract_z
Si Si1 0.836288 0.909179 0.889029
Si Si2 0.162443 0.236479 0.881413
Si Si3 0.159793 0.667887 0.461091
Si Si4 0.336302 0.475065 0.054888
Si Si5 0.663866 0.138932 0.923839
Si Si6 0.331753 0.159536 0.190931
O O1 0.775323 0.876472 0.938996
O O2 0.748931 0.892994 0.837496
O O3 0.000000 0.890184 0.881430
O O4 0.823818 0.977205 0.900122
O O5 0.180562 0.269149 0.936095
O O6 0.261527 0.179615 0.880955
O O7 0.210379 0.279585 0.835486
O O8 0.000000 0.215861 0.872951
O O9 0.179348 0.672425 0.522103
O O10 0.000000 0.644971 0.447146
O O11 0.500000 0.453846 0.048463
O O12 0.238467 0.422864 0.073408
O O13 0.281081 0.500000 0.000000
O O14 0.500000 0.129407 0.907801
O O15 0.281806 0.161362 0.250000
O O16 0.500000 0.148305 0.185365
#
# Coordination Sequence:
#
# PCOD8257105 Si02
#       6
#    16  16  16  16  16  16
#     4  10  19  31  51  77 102 131 171 214 250 291
#     4   9  18  32  49  70  99 132 165 202 249 307
#     4   9  18  31  46  68 100 137 171 203 244 295
#     4  10  20  34  49  69 102 143 177 205 245 298
#     4  11  21  30  46  72 102 137 174 209 245 289
#     4   9  19  37  59  79 100 128 162 206 263 315
#
# _framework density 17.153793
#
# number of rings (size 3 to 8) (size 9 to 14) (size 15 to 20)
#    0.000    2.333    1.667    2.500    0.000    5.333 
#    0.000    0.000    0.000    1.000    0.000    2.333 
#    0.000    0.000    0.000    0.000    0.000    0.000 
#
# Total GULP energy -595186.969843 kJ/mol
# GULP energy per Si atom -12399.728538 kJ/mol
# Density = 1.711475 g / cm^3
# Si number density = 17.153793 Si / 1000 Ang^3
#
#
#
# Elastic Constant Matrix: (Units=GPa)
#
#
# Indices 1 2 3 4 5 6 
#
# 1 96.4339 60.6933 37.9050 0.0000 0.0000 0.0000
# 2 60.6933 93.3443 38.5374 0.0000 0.0000 0.0000
# 3 37.9050 38.5374 79.6724 0.0000 0.0000 0.0000
# 4 0.0000 0.0000 0.0000 15.1338 0.0000 0.0000
# 5 0.0000 0.0000 0.0000 0.0000 20.0674 0.0000
# 6 0.0000 0.0000 0.0000 0.0000 0.0000 33.4358
#
#
#
# Elastic Compliance Matrix: (Units=1/GPa)
#
#
# Indices 1 2 3 4 5 6 
#
# 1 0.018388 -0.010427 -0.003705 0.000000 0.000000 0.000000
# 2 -0.010427 0.019298 -0.004374 0.000000 0.000000 0.000000
# 3 -0.003705 -0.004374 0.016430 0.000000 0.000000 0.000000
# 4 0.000000 0.000000 0.000000 0.066077 0.000000 0.000000
# 5 0.000000 0.000000 0.000000 0.000000 0.049832 0.000000
# 6 0.000000 0.000000 0.000000 0.000000 0.000000 0.029908
#
#
# Mechanical properties :
#
#
# Convention : Reuss Voigt Hill
#
# Bulk Modulus (GPa) = 58.46222 60.41359 59.43790
# Shear Modulus (GPa) = 20.60602 22.54839 21.57721
#
# Velocity S-wave (km/s) = 3.46967 3.62952 3.55049
# Velocity P-wave (km/s) = 7.08567 7.27047 7.17866
#
# Compressibility (1/GPa) = 0.01710506
#
# Stress axis : x y z
#
# Youngs Moduli (GPa) = 54.38185 51.81792 60.86487
#
# Poissons Ratio (x) = 0.54029 0.22551
# Poissons Ratio (y) = 0.56702 0.26622
# Poissons Ratio (z) = 0.20149 0.22665
#
# Static dielectric constant tensor:
#      x y z
#    x 3.272400 0.000000 0.000000 
#    y 0.000000 3.008470 0.000000 
#    z 0.000000 0.000000 3.034070 
# 
# 
# High freq. dielectric constant tensor:
#      x y z
#    x 1.670070 0.000000 0.000000 
#    y 0.000000 1.652020 0.000000 
#    z 0.000000 0.000000 1.630320 
# 
# From -- ./inp_files/66969.got.cif
#   From: 2010.03.12/outbox.cif.g09.slc.cpg/sg63_34_cif.got.tgz:66969.got - 2010.04.10 19:34:48.
