data_PCOD8257537
_publ_section_title
;
Structure prediction by ZEFSAII (Michael W. Deem and Ramdas Pophale) SiO2 
 PCOD8257537
Probable space group: C M C M
;
_chemical_formula_sum "Si O2"
_cell_formula_units_Z 112
_cell_length_a 13.492679
_cell_length_b 14.002270
_cell_length_c 31.004483
_cell_angle_alpha 90.000000
_cell_angle_beta 90.000000
_cell_angle_gamma 90.000000
_cell_volume 5857.619131
_symmetry_space_group_name_H-M "C M C M"
_symmetry_group_IT_number 63
_symmetry_cell_setting 'orthorhombic'
loop_
_space_group_symop_operation_xyz
x,y,z
-x,-y,1/2+z
x,-y,-z
-x,y,1/2-z
-x,-y,-z
x,y,1/2-z
-x,y,z
x,-y,1/2+z
1/2+x,1/2+y,z
1/2-x,1/2-y,1/2+z
1/2+x,1/2-y,-z
1/2-x,1/2+y,1/2-z
1/2-x,1/2-y,-z
1/2+x,1/2+y,1/2-z
1/2-x,1/2+y,z
1/2+x,1/2-y,1/2+z
loop_
_atom_site_type_symbol
_atom_site_label
_atom_site_fract_x
_atom_site_fract_y
_atom_site_fract_z
Si Si1 0.888760 0.816619 0.562643
Si Si2 0.618477 0.641480 0.750000
Si Si3 0.889007 0.029683 0.581062
Si Si4 0.210316 0.100283 0.838927
Si Si5 0.382014 0.034158 0.335469
Si Si6 0.701401 0.205507 0.111527
Si Si7 0.882886 0.792812 0.469005
Si Si8 0.616104 0.856787 0.750000
O O1 0.887130 0.930276 0.556170
O O2 0.819315 0.791402 0.602932
O O3 0.844675 0.772084 0.517923
O O4 0.000000 0.780071 0.573177
O O5 0.500000 0.635904 0.750000
O O6 0.660527 0.588084 0.792188
O O7 0.661156 0.749992 0.750000
O O8 0.000000 0.063724 0.591169
O O9 0.835988 0.024568 0.627541
O O10 0.838057 0.107910 0.549810
O O11 0.184702 0.207350 0.855413
O O12 0.326723 0.069088 0.837207
O O13 0.500000 0.017550 0.339920
O O14 0.341824 0.106110 0.371718
O O15 0.349774 0.083746 0.291130
O O16 0.646224 0.212210 0.065311
O O17 0.000000 0.801292 0.474303
O O18 0.500000 0.842830 0.750000
#
# Coordination Sequence:
#
# PCOD8257537 Si02
#       8
#    16   8  16  16  16  16  16   8
#     4  10  19  33  52  76 111 148 185 232 287 339
#     4  11  21  36  61  90 116 140 179 237 286 329
#     4   9  17  31  52  79 108 139 181 231 284 338
#     4  11  22  36  57  87 114 146 185 231 283 337
#     4  11  22  39  60  83 115 152 191 232 279 339
#     4  11  21  35  56  82 112 150 194 236 280 341
#     4   9  18  31  52  80 106 140 188 241 285 328
#     4   9  19  36  60  84 106 140 182 227 277 327
#
# _framework density 19.120396
#
# number of rings (size 3 to 8) (size 9 to 14) (size 15 to 20)
#    0.000    1.857    2.857    2.143    0.000    3.429 
#    0.000    0.000    0.000    0.000    0.000    5.000 
#    0.000    0.000    0.000    0.000    0.000    0.000 
#
# Total GULP energy -694007.809279 kJ/mol
# GULP energy per Si atom -12392.996594 kJ/mol
# Density = 1.907688 g / cm^3
# Si number density = 19.120396 Si / 1000 Ang^3
#
#
#
# Elastic Constant Matrix: (Units=GPa)
#
#
# Indices 1 2 3 4 5 6 
#
# 1 74.4695 10.1708 34.4300 0.0000 0.0000 0.0000
# 2 10.1708 36.7384 -0.1409 0.0000 0.0000 0.0000
# 3 34.4300 -0.1409 90.9816 0.0000 0.0000 0.0000
# 4 0.0000 0.0000 0.0000 16.6697 0.0000 0.0000
# 5 0.0000 0.0000 0.0000 0.0000 31.3636 0.0000
# 6 0.0000 0.0000 0.0000 0.0000 0.0000 23.3415
#
#
#
# Elastic Compliance Matrix: (Units=1/GPa)
#
#
# Indices 1 2 3 4 5 6 
#
# 1 0.017066 -0.004750 -0.006466 0.000000 0.000000 0.000000
# 2 -0.004750 0.028541 0.001842 0.000000 0.000000 0.000000
# 3 -0.006466 0.001842 0.013441 0.000000 0.000000 0.000000
# 4 0.000000 0.000000 0.000000 0.059989 0.000000 0.000000
# 5 0.000000 0.000000 0.000000 0.000000 0.031884 0.000000
# 6 0.000000 0.000000 0.000000 0.000000 0.000000 0.042842
#
#
# Mechanical properties :
#
#
# Convention : Reuss Voigt Hill
#
# Bulk Modulus (GPa) = 24.81315 32.34550 28.57932
# Shear Modulus (GPa) = 22.12928 24.79027 23.45978
#
# Velocity S-wave (km/s) = 3.40570 3.60465 3.50659
# Velocity P-wave (km/s) = 5.33578 5.85475 5.60128
#
# Compressibility (1/GPa) = 0.04030122
#
# Stress axis : x y z
#
# Youngs Moduli (GPa) = 58.59488 35.03682 74.39981
#
# Poissons Ratio (x) = 0.16641 0.48105
# Poissons Ratio (y) = 0.27830 -0.13701
# Poissons Ratio (z) = 0.37886 -0.06452
#
# Static dielectric constant tensor:
#      x y z
#    x 3.448110 0.000000 0.000000 
#    y 0.000000 3.284730 0.000000 
#    z 0.000000 0.000000 3.711460 
# 
# 
# High freq. dielectric constant tensor:
#      x y z
#    x 1.736170 0.000000 0.000000 
#    y 0.000000 1.720780 0.000000 
#    z 0.000000 0.000000 1.753760 
# 
# From -- ./inp_files/69461.got.cif
#   From: 2010.03.12/outbox.cif.g09.slc.cpg/sg63_35_cif.got.tgz:69461.got - 2010.04.10 19:34:48.
