data_PCOD8257378
_publ_section_title
;
Structure prediction by ZEFSAII (Michael W. Deem and Ramdas Pophale) SiO2 
 PCOD8257378
Probable space group: C M C M
;
_chemical_formula_sum "Si O2"
_cell_formula_units_Z 64
_cell_length_a 9.355168
_cell_length_b 37.277620
_cell_length_c 9.725085
_cell_angle_alpha 90.000000
_cell_angle_beta 90.000000
_cell_angle_gamma 90.000000
_cell_volume 3391.510561
_symmetry_space_group_name_H-M "C M C M"
_symmetry_group_IT_number 63
_symmetry_cell_setting 'orthorhombic'
loop_
_space_group_symop_operation_xyz
x,y,z
-x,-y,1/2+z
x,-y,-z
-x,y,1/2-z
-x,-y,-z
x,y,1/2-z
-x,y,z
x,-y,1/2+z
1/2+x,1/2+y,z
1/2-x,1/2-y,1/2+z
1/2+x,1/2-y,-z
1/2-x,1/2+y,1/2-z
1/2-x,1/2-y,-z
1/2+x,1/2+y,1/2-z
1/2-x,1/2+y,z
1/2+x,1/2-y,1/2+z
loop_
_atom_site_type_symbol
_atom_site_label
_atom_site_fract_x
_atom_site_fract_y
_atom_site_fract_z
Si Si1 0.169789 0.552522 0.250000
Si Si2 0.836956 0.154447 0.903936
Si Si3 0.331130 0.972759 0.250000
Si Si4 0.168876 0.416072 0.468887
Si Si5 0.168187 0.779242 0.589359
O O1 0.237991 0.512504 0.250000
O O2 0.222450 0.575678 0.378403
O O3 0.000000 0.548582 0.250000
O O4 0.817370 0.170962 0.750000
O O5 0.739547 0.119752 0.914204
O O6 0.000000 0.142675 0.927551
O O7 0.791133 0.182786 0.020590
O O8 0.500000 0.977097 0.250000
O O9 0.280910 0.950618 0.117298
O O10 0.000000 0.410456 0.457232
O O11 0.216138 0.779048 0.750000
O O12 0.250000 0.750000 0.500000
O O13 0.000000 0.771638 0.576793
#
# Coordination Sequence:
#
# PCOD8257378 Si02
#       5
#     8  16   8  16  16
#     4   9  18  30  49  77 108 137 174 229 282 321
#     4  10  21  37  56  78 110 148 181 218 269 323
#     4   9  16  30  51  75 104 139 178 225 276 323
#     4  10  19  32  52  79 106 138 183 226 269 322
#     4  10  22  40  62  88 115 146 184 224 271 327
#
# _framework density 18.870649
#
# number of rings (size 3 to 8) (size 9 to 14) (size 15 to 20)
#    0.000    2.250    1.250    1.500    1.750    5.500 
#    0.000    0.000    0.000    4.500    0.000    0.000 
#    0.000    0.000    0.000    0.000    0.000    0.000 
#
# Total GULP energy -396707.407955 kJ/mol
# GULP energy per Si atom -12397.106499 kJ/mol
# Density = 1.882770 g / cm^3
# Si number density = 18.870649 Si / 1000 Ang^3
#
#
#
# Elastic Constant Matrix: (Units=GPa)
#
#
# Indices 1 2 3 4 5 6 
#
# 1 33.3188 32.8061 26.1857 0.0000 0.0000 0.0000
# 2 32.8061 96.9112 46.5341 0.0000 0.0000 0.0000
# 3 26.1857 46.5341 153.8420 0.0000 0.0000 0.0000
# 4 0.0000 0.0000 0.0000 41.1907 0.0000 0.0000
# 5 0.0000 0.0000 0.0000 0.0000 21.3926 0.0000
# 6 0.0000 0.0000 0.0000 0.0000 0.0000 21.7627
#
#
#
# Elastic Compliance Matrix: (Units=1/GPa)
#
#
# Indices 1 2 3 4 5 6 
#
# 1 0.046760 -0.014048 -0.003710 0.000000 0.000000 0.000000
# 2 -0.014048 0.016292 -0.002537 0.000000 0.000000 0.000000
# 3 -0.003710 -0.002537 0.007899 0.000000 0.000000 0.000000
# 4 0.000000 0.000000 0.000000 0.024277 0.000000 0.000000
# 5 0.000000 0.000000 0.000000 0.000000 0.046745 0.000000
# 6 0.000000 0.000000 0.000000 0.000000 0.000000 0.045950
#
#
# Mechanical properties :
#
#
# Convention : Reuss Voigt Hill
#
# Bulk Modulus (GPa) = 32.93564 55.01375 43.97469
# Shear Modulus (GPa) = 20.95253 28.77229 24.86241
#
# Velocity S-wave (km/s) = 3.33577 3.90899 3.63370
# Velocity P-wave (km/s) = 5.68575 7.04202 6.39991
#
# Compressibility (1/GPa) = 0.03036225
#
# Stress axis : x y z
#
# Youngs Moduli (GPa) = 21.38562 61.37854 126.59746
#
# Poissons Ratio (x) = 0.86223 0.46968
# Poissons Ratio (y) = 0.30042 0.32118
# Poissons Ratio (z) = 0.07934 0.15572
#
# Static dielectric constant tensor:
#      x y z
#    x 3.104630 0.000000 0.000000 
#    y 0.000000 3.444140 0.000000 
#    z 0.000000 0.000000 3.868490 
# 
# 
# High freq. dielectric constant tensor:
#      x y z
#    x 1.693500 0.000000 0.000000 
#    y 0.000000 1.736890 0.000000 
#    z 0.000000 0.000000 1.756300 
# 
# From -- ./inp_files/3132.got.cif
#   From: 2010.03.12/outbox.cif.g09.slc.cpg/sg63_2_cif.got.tgz:3132.got - 2010.04.10 19:34:48.
