data_PCOD8257562
_publ_section_title
;
Structure prediction by ZEFSAII (Michael W. Deem and Ramdas Pophale) SiO2 
 PCOD8257562
Probable space group: C M C M
;
_chemical_formula_sum "Si O2"
_cell_formula_units_Z 80
_cell_length_a 26.093998
_cell_length_b 19.346622
_cell_length_c 9.022923
_cell_angle_alpha 90.000000
_cell_angle_beta 90.000000
_cell_angle_gamma 90.000000
_cell_volume 4555.048676
_symmetry_space_group_name_H-M "C M C M"
_symmetry_group_IT_number 63
_symmetry_cell_setting 'orthorhombic'
loop_
_space_group_symop_operation_xyz
x,y,z
-x,-y,1/2+z
x,-y,-z
-x,y,1/2-z
-x,-y,-z
x,y,1/2-z
-x,y,z
x,-y,1/2+z
1/2+x,1/2+y,z
1/2-x,1/2-y,1/2+z
1/2+x,1/2-y,-z
1/2-x,1/2+y,1/2-z
1/2-x,1/2-y,-z
1/2+x,1/2+y,1/2-z
1/2-x,1/2+y,z
1/2+x,1/2-y,1/2+z
loop_
_atom_site_type_symbol
_atom_site_label
_atom_site_fract_x
_atom_site_fract_y
_atom_site_fract_z
Si Si1 0.200711 0.328522 0.422963
Si Si2 0.000000 0.428137 0.421409
Si Si3 0.389571 0.926251 0.075821
Si Si4 0.388562 0.425172 0.075138
Si Si5 0.304807 0.331279 0.577022
Si Si6 0.000000 0.928937 0.080445
O O1 0.212233 0.339885 0.250000
O O2 0.153063 0.373313 0.481632
O O3 0.249715 0.354109 0.514789
O O4 0.186768 0.249375 0.456070
O O5 0.000000 0.500000 0.500000
O O6 0.054271 0.391608 0.462890
O O7 0.000000 0.444995 0.250000
O O8 0.383774 0.937949 0.250000
O O9 0.381766 0.000000 0.000000
O O10 0.378462 0.433185 0.250000
O O11 0.445633 0.391827 0.042679
O O12 0.382406 0.500000 0.000000
O O13 0.348622 0.372319 0.007154
O O14 0.307329 0.348745 0.750000
O O15 0.000000 0.949164 0.250000
O O16 0.000000 0.000000 0.000000
#
# Coordination Sequence:
#
# PCOD8257562 Si02
#       6
#    16   8  16  16  16   8
#     4   9  19  35  51  68  95 131 167 202 242 289
#     4   8  14  26  45  68  94 122 150 186 233 280
#     4   9  17  30  49  72  96 122 155 194 235 280
#     4  10  19  33  53  76 101 128 161 201 243 290
#     4  10  20  34  51  71  96 129 166 202 245 293
#     4   8  16  30  49  72  98 128 158 192 239 290
#
# _framework density 17.562930000000001
#
# number of rings (size 3 to 8) (size 9 to 14) (size 15 to 20)
#    0.000    2.800    0.000    1.200    0.000    3.200 
#    0.000    3.000    0.000    2.400    0.000    4.200 
#    0.000    0.000    0.000    0.000    0.000    0.000 
#
# Total GULP energy -495536.540354 kJ/mol
# GULP energy per Si atom -12388.413509 kJ/mol
# Density = 1.752296 g / cm^3
# Si number density = 17.562930 Si / 1000 Ang^3
#
#
#
# Elastic Constant Matrix: (Units=GPa)
#
#
# Indices 1 2 3 4 5 6 
#
# 1 206.0893 81.8444 69.5450 0.0000 0.0000 0.0000
# 2 81.8444 64.6252 35.6293 0.0000 0.0000 0.0000
# 3 69.5450 35.6293 68.4413 0.0000 0.0000 0.0000
# 4 0.0000 0.0000 0.0000 25.7817 0.0000 0.0000
# 5 0.0000 0.0000 0.0000 0.0000 15.0604 0.0000
# 6 0.0000 0.0000 0.0000 0.0000 0.0000 -3.5233
#
#
#
# Elastic Compliance Matrix: (Units=1/GPa)
#
#
# Indices 1 2 3 4 5 6 
#
# 1 0.011085 -0.010980 -0.005548 0.000000 0.000000 0.000000
# 2 -0.010980 0.032578 -0.005803 0.000000 0.000000 0.000000
# 3 -0.005548 -0.005803 0.023269 0.000000 0.000000 0.000000
# 4 0.000000 0.000000 0.000000 0.038787 0.000000 0.000000
# 5 0.000000 0.000000 0.000000 0.000000 0.066400 0.000000
# 6 0.000000 0.000000 0.000000 0.000000 0.000000 -0.283824
#
#
# Mechanical properties :
#
#
# Convention : Reuss Voigt Hill
#
# Bulk Modulus (GPa) = 44.90035 79.24367 62.07201
# Shear Modulus (GPa) = -83.86289 17.60622 -33.12834
#
# Velocity S-wave (km/s) = -6.91763 3.16961 -4.34783
# Velocity P-wave (km/s) = 6.17931 7.65591 3.19602
#
# Compressibility (1/GPa) = 0.02227154
#
# Stress axis : x y z
#
# Youngs Moduli (GPa) = 90.21489 30.69532 42.97553
#
# Poissons Ratio (x) = 0.33702 0.23841
# Poissons Ratio (y) = 0.99052 0.24939
# Poissons Ratio (z) = 0.50048 0.17812
#
# Static dielectric constant tensor:
#      x y z
#    x 4.130230 0.000000 0.000000 
#    y 0.000000 2.946740 0.000000 
#    z 0.000000 0.000000 3.223470 
# 
# 
# High freq. dielectric constant tensor:
#      x y z
#    x 1.705250 0.000000 0.000000 
#    y 0.000000 1.641860 0.000000 
#    z 0.000000 0.000000 1.685160 
# 
# From -- ./inp_files/10075.got.cif
#   From: 2010.03.12/outbox.cif.g09.slc.cpg/sg63_6_cif.got.tgz:10075.got - 2010.04.10 19:34:48.
