data_PCOD8257786
_publ_section_title
;
Structure prediction by ZEFSAII (Michael W. Deem and Ramdas Pophale) SiO2 
 PCOD8257786
Probable space group: C M C M
;
_chemical_formula_sum "Si O2"
_cell_formula_units_Z 80
_cell_length_a 26.104474
_cell_length_b 9.265440
_cell_length_c 17.307705
_cell_angle_alpha 90.000000
_cell_angle_beta 90.000000
_cell_angle_gamma 90.000000
_cell_volume 4186.204874
_symmetry_space_group_name_H-M "C M C M"
_symmetry_group_IT_number 63
_symmetry_cell_setting 'orthorhombic'
loop_
_space_group_symop_operation_xyz
x,y,z
-x,-y,1/2+z
x,-y,-z
-x,y,1/2-z
-x,-y,-z
x,y,1/2-z
-x,y,z
x,-y,1/2+z
1/2+x,1/2+y,z
1/2-x,1/2-y,1/2+z
1/2+x,1/2-y,-z
1/2-x,1/2+y,1/2-z
1/2-x,1/2-y,-z
1/2+x,1/2+y,1/2-z
1/2-x,1/2+y,z
1/2+x,1/2-y,1/2+z
loop_
_atom_site_type_symbol
_atom_site_label
_atom_site_fract_x
_atom_site_fract_y
_atom_site_fract_z
Si Si1 0.295749 0.514180 0.841451
Si Si2 0.105533 0.511975 0.591041
Si Si3 0.696872 0.814415 0.341858
Si Si4 0.500000 0.978336 0.335465
Si Si5 0.500000 0.319923 0.334367
Si Si6 0.609588 0.300830 0.157255
O O1 0.296830 0.525178 0.750000
O O2 0.294608 0.349694 0.869116
O O3 0.245209 0.594041 0.872476
O O4 0.346393 0.593434 0.874221
O O5 0.104795 0.500000 0.500000
O O6 0.146252 0.630216 0.617041
O O7 0.050463 0.571186 0.618693
O O8 0.121204 0.359492 0.627974
O O9 0.690379 0.826493 0.250000
O O10 0.500000 0.907099 0.250000
O O11 0.500000 0.148660 0.326514
O O12 0.500000 0.393345 0.250000
O O13 0.445802 0.360147 0.375558
O O14 0.607428 0.293979 0.250000
#
# Coordination Sequence:
#
# PCOD8257786 Si02
#       6
#    16  16  16   8   8  16
#     4   9  18  32  55  79 101 134 182 229 267 308
#     4  11  21  33  51  79 110 141 172 211 261 316
#     4  10  19  34  53  76 103 136 177 223 268 312
#     4   9  17  33  56  79 102 136 176 216 254 301
#     4   7  12  23  46  73  95 120 159 204 252 303
#     4   9  16  31  52  74  99 135 178 220 261 310
#
# _framework density 19.110386999999999
#
# number of rings (size 3 to 8) (size 9 to 14) (size 15 to 20)
#    0.000    2.600    0.000    4.500    0.000    3.200 
#    0.000    6.000    0.000    3.600    0.000    5.600 
#    0.000    0.000    0.000    0.000    0.000    0.000 
#
# Total GULP energy -495790.712974 kJ/mol
# GULP energy per Si atom -12394.767824 kJ/mol
# Density = 1.906689 g / cm^3
# Si number density = 19.110387 Si / 1000 Ang^3
#
#
#
# Elastic Constant Matrix: (Units=GPa)
#
#
# Indices 1 2 3 4 5 6 
#
# 1 191.7859 79.6797 33.4913 0.0000 0.0000 0.0000
# 2 79.6797 108.5533 24.0833 0.0000 0.0000 0.0000
# 3 33.4913 24.0833 54.3833 0.0000 0.0000 0.0000
# 4 0.0000 0.0000 0.0000 8.0915 0.0000 0.0000
# 5 0.0000 0.0000 0.0000 0.0000 11.3665 0.0000
# 6 0.0000 0.0000 0.0000 0.0000 0.0000 31.0880
#
#
#
# Elastic Compliance Matrix: (Units=1/GPa)
#
#
# Indices 1 2 3 4 5 6 
#
# 1 0.007800 -0.005167 -0.002515 0.000000 0.000000 0.000000
# 2 -0.005167 0.013639 -0.002858 0.000000 0.000000 0.000000
# 3 -0.002515 -0.002858 0.021203 0.000000 0.000000 0.000000
# 4 0.000000 0.000000 0.000000 0.123586 0.000000 0.000000
# 5 0.000000 0.000000 0.000000 0.000000 0.087978 0.000000
# 6 0.000000 0.000000 0.000000 0.000000 0.000000 0.032167
#
#
# Mechanical properties :
#
#
# Convention : Reuss Voigt Hill
#
# Bulk Modulus (GPa) = 46.38011 69.91456 58.14734
# Shear Modulus (GPa) = 15.89113 24.60709 20.24911
#
# Velocity S-wave (km/s) = 2.88678 3.59225 3.25866
# Velocity P-wave (km/s) = 5.95261 7.33960 6.68219
#
# Compressibility (1/GPa) = 0.02156097
#
# Stress axis : x y z
#
# Youngs Moduli (GPa) = 128.20050 73.31890 47.16424
#
# Poissons Ratio (x) = 0.37887 0.11863
# Poissons Ratio (y) = 0.66247 0.13478
# Poissons Ratio (z) = 0.32247 0.20952
#
# Static dielectric constant tensor:
#      x y z
#    x 4.061640 0.000000 0.000000 
#    y 0.000000 3.324870 0.000000 
#    z 0.000000 0.000000 3.089690 
# 
# 
# High freq. dielectric constant tensor:
#      x y z
#    x 1.770880 0.000000 0.000000 
#    y 0.000000 1.719840 0.000000 
#    z 0.000000 0.000000 1.699410 
# 
# From -- ./inp_files/48826.got.cif
#   From: 2010.03.12/outbox.cif.g09.slc.cpg/sg63_25_cif.got.tgz:48826.got - 2010.04.10 19:34:48.
