data_PCOD8257400
_publ_section_title
;
Structure prediction by ZEFSAII (Michael W. Deem and Ramdas Pophale) SiO2 
 PCOD8257400
Probable space group: C M C M
;
_chemical_formula_sum "Si O2"
_cell_formula_units_Z 80
_cell_length_a 9.676903
_cell_length_b 28.465851
_cell_length_c 14.922628
_cell_angle_alpha 90.000000
_cell_angle_beta 90.000000
_cell_angle_gamma 90.000000
_cell_volume 4110.606194
_symmetry_space_group_name_H-M "C M C M"
_symmetry_group_IT_number 63
_symmetry_cell_setting 'orthorhombic'
loop_
_space_group_symop_operation_xyz
x,y,z
-x,-y,1/2+z
x,-y,-z
-x,y,1/2-z
-x,-y,-z
x,y,1/2-z
-x,y,z
x,-y,1/2+z
1/2+x,1/2+y,z
1/2-x,1/2-y,1/2+z
1/2+x,1/2-y,-z
1/2-x,1/2+y,1/2-z
1/2-x,1/2-y,-z
1/2+x,1/2+y,1/2-z
1/2-x,1/2+y,z
1/2+x,1/2-y,1/2+z
loop_
_atom_site_type_symbol
_atom_site_label
_atom_site_fract_x
_atom_site_fract_y
_atom_site_fract_z
Si Si1 0.159710 0.203937 0.506947
Si Si2 0.343118 0.475951 0.096151
Si Si3 0.663009 0.627668 0.851401
Si Si4 0.349373 0.052334 0.350201
Si Si5 0.155822 0.132833 0.353657
O O1 0.250000 0.250000 0.500000
O O2 0.217769 0.170409 0.586798
O O3 0.177375 0.179444 0.410858
O O4 0.000000 0.217127 0.524711
O O5 0.500000 0.481591 0.132674
O O6 0.298261 0.421447 0.099927
O O7 0.233200 0.503458 0.156368
O O8 0.327792 0.500000 0.000000
O O9 0.725180 0.630365 0.750000
O O10 0.500000 0.631766 0.845966
O O11 0.376439 0.069141 0.250000
O O12 0.500000 0.047332 0.398764
O O13 0.255454 0.092777 0.395096
O O14 0.185496 0.145104 0.250000
O O15 0.000000 0.113396 0.366111
#
# Coordination Sequence:
#
# PCOD8257400 Si02
#       5
#    16  16  16  16  16
#     4  10  21  37  56  78 102 130 171 221 271 324
#     4  10  19  32  53  78 104 140 184 221 254 303
#     4   9  18  33  53  77 106 141 179 217 259 314
#     4  10  20  32  48  75 109 139 168 207 258 313
#     4   9  18  34  55  76 101 136 177 220 264 314
#
# _framework density 19.461849999999998
#
# number of rings (size 3 to 8) (size 9 to 14) (size 15 to 20)
#    0.000    2.400    0.000    2.400    0.000    7.200 
#    0.000    1.000    0.000    1.200    0.000    0.000 
#    0.000    0.000    0.000    0.000    0.000    0.000 
#
# Total GULP energy -495684.546457 kJ/mol
# GULP energy per Si atom -12392.113661 kJ/mol
# Density = 1.941755 g / cm^3
# Si number density = 19.461850 Si / 1000 Ang^3
#
#
#
# Elastic Constant Matrix: (Units=GPa)
#
#
# Indices 1 2 3 4 5 6 
#
# 1 108.1491 77.3187 30.8930 0.0000 0.0000 0.0000
# 2 77.3187 167.1585 59.3753 0.0000 0.0000 0.0000
# 3 30.8930 59.3753 100.0043 0.0000 0.0000 0.0000
# 4 0.0000 0.0000 0.0000 28.4924 0.0000 0.0000
# 5 0.0000 0.0000 0.0000 0.0000 14.6030 0.0000
# 6 0.0000 0.0000 0.0000 0.0000 0.0000 32.6310
#
#
#
# Elastic Compliance Matrix: (Units=1/GPa)
#
#
# Indices 1 2 3 4 5 6 
#
# 1 0.013843 -0.006190 -0.000602 0.000000 0.000000 0.000000
# 2 -0.006190 0.010349 -0.004232 0.000000 0.000000 0.000000
# 3 -0.000602 -0.004232 0.012698 0.000000 0.000000 0.000000
# 4 0.000000 0.000000 0.000000 0.035097 0.000000 0.000000
# 5 0.000000 0.000000 0.000000 0.000000 0.068479 0.000000
# 6 0.000000 0.000000 0.000000 0.000000 0.000000 0.030646
#
#
# Mechanical properties :
#
#
# Convention : Reuss Voigt Hill
#
# Bulk Modulus (GPa) = 67.36919 78.94287 73.15603
# Shear Modulus (GPa) = 25.23896 28.99362 27.11629
#
# Velocity S-wave (km/s) = 3.60508 3.86394 3.73675
# Velocity P-wave (km/s) = 7.21249 7.78188 7.50259
#
# Compressibility (1/GPa) = 0.01484358
#
# Stress axis : x y z
#
# Youngs Moduli (GPa) = 72.23661 96.63151 78.75156
#
# Poissons Ratio (x) = 0.59811 0.04737
# Poissons Ratio (y) = 0.44711 0.33329
# Poissons Ratio (z) = 0.04345 0.40896
#
# Static dielectric constant tensor:
#      x y z
#    x 3.634900 0.000000 0.000000 
#    y 0.000000 3.430720 0.000000 
#    z 0.000000 0.000000 3.792620 
# 
# 
# High freq. dielectric constant tensor:
#      x y z
#    x 1.734590 0.000000 0.000000 
#    y 0.000000 1.748670 0.000000 
#    z 0.000000 0.000000 1.758790 
# 
# From -- ./inp_files/40501.got.cif
#   From: 2010.03.12/outbox.cif.g09.slc.cpg/sg63_21_cif.got.tgz:40501.got - 2010.04.10 19:34:48.
