data_PCOD8257064
_publ_section_title
;
Structure prediction by ZEFSAII (Michael W. Deem and Ramdas Pophale) SiO2 
 PCOD8257064
Probable space group: C M C M
;
_chemical_formula_sum "Si O2"
_cell_formula_units_Z 80
_cell_length_a 15.006169
_cell_length_b 28.033673
_cell_length_c 10.075365
_cell_angle_alpha 90.000000
_cell_angle_beta 90.000000
_cell_angle_gamma 90.000000
_cell_volume 4238.484747
_symmetry_space_group_name_H-M "C M C M"
_symmetry_group_IT_number 63
_symmetry_cell_setting 'orthorhombic'
loop_
_space_group_symop_operation_xyz
x,y,z
-x,-y,1/2+z
x,-y,-z
-x,y,1/2-z
-x,-y,-z
x,y,1/2-z
-x,y,z
x,-y,1/2+z
1/2+x,1/2+y,z
1/2-x,1/2-y,1/2+z
1/2+x,1/2-y,-z
1/2-x,1/2+y,1/2-z
1/2-x,1/2-y,-z
1/2+x,1/2+y,1/2-z
1/2-x,1/2+y,z
1/2+x,1/2-y,1/2+z
loop_
_atom_site_type_symbol
_atom_site_label
_atom_site_fract_x
_atom_site_fract_y
_atom_site_fract_z
Si Si1 0.274496 0.957055 0.596499
Si Si2 0.102204 0.098392 0.400202
Si Si3 0.823861 0.729949 0.402530
Si Si4 0.600620 0.672551 0.608318
Si Si5 0.400235 0.130056 0.406875
O O1 0.294423 0.970627 0.750000
O O2 0.169236 0.945751 0.578452
O O3 0.335231 0.912656 0.550182
O O4 0.300553 0.000000 0.500000
O O5 0.108819 0.117174 0.250000
O O6 0.141936 0.141928 0.488189
O O7 0.000000 0.082811 0.433159
O O8 0.789627 0.724152 0.250000
O O9 0.750000 0.750000 0.500000
O O10 0.899344 0.770607 0.412225
O O11 0.861748 0.680367 0.460255
O O12 0.647868 0.659746 0.750000
O O13 0.500000 0.655376 0.615763
O O14 0.405582 0.133782 0.250000
O O15 0.500000 0.121549 0.464683
#
# Coordination Sequence:
#
# PCOD8257064 Si02
#       5
#    16  16  16  16  16
#     4  10  21  36  54  75  98 128 170 218 265 309
#     4   9  18  33  52  75 105 138 168 200 246 309
#     4  10  19  31  50  75 103 134 167 203 244 293
#     4   9  17  29  47  73 102 130 161 197 237 284
#     4   9  18  34  55  76 100 135 177 214 250 300
#
# _framework density 18.874669999999998
#
# number of rings (size 3 to 8) (size 9 to 14) (size 15 to 20)
#    0.000    2.600    0.000    1.800    0.000    6.400 
#    0.000    1.000    0.000    3.000    0.000    0.000 
#    0.000    0.000    0.000    0.000    0.000    0.000 
#
# Total GULP energy -495585.343315 kJ/mol
# GULP energy per Si atom -12389.633583 kJ/mol
# Density = 1.883171 g / cm^3
# Si number density = 18.874670 Si / 1000 Ang^3
#
#
#
# Elastic Constant Matrix: (Units=GPa)
#
#
# Indices 1 2 3 4 5 6 
#
# 1 99.0831 43.9278 32.6394 0.0000 0.0000 0.0000
# 2 43.9278 115.0210 53.0960 0.0000 0.0000 0.0000
# 3 32.6394 53.0960 74.2095 0.0000 0.0000 0.0000
# 4 0.0000 0.0000 0.0000 35.0948 0.0000 0.0000
# 5 0.0000 0.0000 0.0000 0.0000 19.0214 0.0000
# 6 0.0000 0.0000 0.0000 0.0000 0.0000 24.1154
#
#
#
# Elastic Compliance Matrix: (Units=1/GPa)
#
#
# Indices 1 2 3 4 5 6 
#
# 1 0.012621 -0.003371 -0.003139 0.000000 0.000000 0.000000
# 2 -0.003371 0.013882 -0.008450 0.000000 0.000000 0.000000
# 3 -0.003139 -0.008450 0.020902 0.000000 0.000000 0.000000
# 4 0.000000 0.000000 0.000000 0.028494 0.000000 0.000000
# 5 0.000000 0.000000 0.000000 0.000000 0.052572 0.000000
# 6 0.000000 0.000000 0.000000 0.000000 0.000000 0.041467
#
#
# Mechanical properties :
#
#
# Convention : Reuss Voigt Hill
#
# Bulk Modulus (GPa) = 57.19192 60.84889 59.02040
# Shear Modulus (GPa) = 24.30873 26.22302 25.26587
#
# Velocity S-wave (km/s) = 3.59263 3.73141 3.66267
# Velocity P-wave (km/s) = 6.89753 7.13252 7.01601
#
# Compressibility (1/GPa) = 0.01748499
#
# Stress axis : x y z
#
# Youngs Moduli (GPa) = 79.23206 72.03520 47.84274
#
# Poissons Ratio (x) = 0.24283 0.15019
# Poissons Ratio (y) = 0.26709 0.40426
# Poissons Ratio (z) = 0.24872 0.60868
#
# Static dielectric constant tensor:
#      x y z
#    x 3.598250 0.000000 0.000000 
#    y 0.000000 3.481780 0.000000 
#    z 0.000000 0.000000 3.557050 
# 
# 
# High freq. dielectric constant tensor:
#      x y z
#    x 1.727490 0.000000 0.000000 
#    y 0.000000 1.724280 0.000000 
#    z 0.000000 0.000000 1.716010 
# 
# From -- ./inp_files/6356.got.cif
#   From: 2010.03.12/outbox.cif.g09.slc.cpg/sg63_4_cif.got.tgz:6356.got - 2010.04.10 19:34:48.
