data_PCOD8257014
_publ_section_title
;
Structure prediction by ZEFSAII (Michael W. Deem and Ramdas Pophale) SiO2 
 PCOD8257014
Probable space group: C M C M
;
_chemical_formula_sum "Si O2"
_cell_formula_units_Z 80
_cell_length_a 8.942643
_cell_length_b 20.689103
_cell_length_c 27.369064
_cell_angle_alpha 90.000000
_cell_angle_beta 90.000000
_cell_angle_gamma 90.000000
_cell_volume 5063.694550
_symmetry_space_group_name_H-M "C M C M"
_symmetry_group_IT_number 63
_symmetry_cell_setting 'orthorhombic'
loop_
_space_group_symop_operation_xyz
x,y,z
-x,-y,1/2+z
x,-y,-z
-x,y,1/2-z
-x,-y,-z
x,y,1/2-z
-x,y,z
x,-y,1/2+z
1/2+x,1/2+y,z
1/2-x,1/2-y,1/2+z
1/2+x,1/2-y,-z
1/2-x,1/2+y,1/2-z
1/2-x,1/2-y,-z
1/2+x,1/2+y,1/2-z
1/2-x,1/2+y,z
1/2+x,1/2-y,1/2+z
loop_
_atom_site_type_symbol
_atom_site_label
_atom_site_fract_x
_atom_site_fract_y
_atom_site_fract_z
Si Si1 0.668945 0.264961 0.049968
Si Si2 0.327252 0.931811 0.806665
Si Si3 0.176561 0.677298 0.635252
Si Si4 0.826568 0.936483 0.193000
Si Si5 0.831046 0.697609 0.144235
O O1 0.500000 0.287489 0.038950
O O2 0.754086 0.321816 0.080154
O O3 0.670376 0.200774 0.084688
O O4 0.750000 0.250000 0.000000
O O5 0.305479 0.915218 0.750000
O O6 0.500000 0.946987 0.818814
O O7 0.266447 0.870578 0.837442
O O8 0.227638 0.992463 0.822586
O O9 0.230874 0.614399 0.663091
O O10 0.232440 0.741934 0.664244
O O11 0.000000 0.676906 0.631786
O O12 0.795238 0.925081 0.250000
O O13 0.000000 0.928869 0.179951
O O14 0.000000 0.706188 0.164399
#
# Coordination Sequence:
#
# PCOD8257014 Si02
#       5
#    16  16  16  16  16
#     4   9  17  31  50  73  98 125 158 197 246 292
#     4   9  17  31  50  70  95 129 163 193 234 287
#     4  10  19  31  49  73  97 126 163 202 240 281
#     4  10  20  33  48  68  98 133 164 197 238 282
#     4   8  17  31  47  71  99 126 157 198 241 285
#
# _framework density 15.798741
#
# number of rings (size 3 to 8) (size 9 to 14) (size 15 to 20)
#    1.200    1.600    0.000    2.400    0.000    2.800 
#    0.000    2.000    0.000    1.200    0.000    8.400 
#    0.000    0.000    0.000    0.000    0.000    0.000 
#
# Total GULP energy -495649.182856 kJ/mol
# GULP energy per Si atom -12391.229571 kJ/mol
# Density = 1.576278 g / cm^3
# Si number density = 15.798741 Si / 1000 Ang^3
#
#
#
# Elastic Constant Matrix: (Units=GPa)
#
#
# Indices 1 2 3 4 5 6 
#
# 1 112.9366 52.0722 39.2535 0.0000 0.0000 0.0000
# 2 52.0722 102.5821 49.3958 0.0000 0.0000 0.0000
# 3 39.2535 49.3958 60.7108 0.0000 0.0000 0.0000
# 4 0.0000 0.0000 0.0000 1.8896 0.0000 0.0000
# 5 0.0000 0.0000 0.0000 0.0000 26.5481 0.0000
# 6 0.0000 0.0000 0.0000 0.0000 0.0000 28.3504
#
#
#
# Elastic Compliance Matrix: (Units=1/GPa)
#
#
# Indices 1 2 3 4 5 6 
#
# 1 0.012337 -0.003981 -0.004737 0.000000 0.000000 0.000000
# 2 -0.003981 0.017312 -0.011512 0.000000 0.000000 0.000000
# 3 -0.004737 -0.011512 0.028901 0.000000 0.000000 0.000000
# 4 0.000000 0.000000 0.000000 0.529216 0.000000 0.000000
# 5 0.000000 0.000000 0.000000 0.000000 0.037667 0.000000
# 6 0.000000 0.000000 0.000000 0.000000 0.000000 0.035273
#
#
# Mechanical properties :
#
#
# Convention : Reuss Voigt Hill
#
# Bulk Modulus (GPa) = 55.28084 61.96362 58.62223
# Shear Modulus (GPa) = 7.07018 20.39148 13.73083
#
# Velocity S-wave (km/s) = 2.11775 3.59653 2.95126
# Velocity P-wave (km/s) = 6.40675 7.52014 6.98566
#
# Compressibility (1/GPa) = 0.01808945
#
# Stress axis : x y z
#
# Youngs Moduli (GPa) = 81.05907 57.76228 34.60128
#
# Poissons Ratio (x) = 0.22996 0.16392
# Poissons Ratio (y) = 0.32271 0.39832
# Poissons Ratio (z) = 0.38400 0.66494
#
# Static dielectric constant tensor:
#      x y z
#    x 3.064690 0.000000 0.000000 
#    y 0.000000 2.918960 0.000000 
#    z 0.000000 0.000000 2.711540 
# 
# 
# High freq. dielectric constant tensor:
#      x y z
#    x 1.617330 0.000000 0.000000 
#    y 0.000000 1.592750 0.000000 
#    z 0.000000 0.000000 1.583980 
# 
# From -- ./inp_files/71597.got.cif
#   From: 2010.03.12/outbox.cif.g09.slc.cpg/sg63_36_cif.got.tgz:71597.got - 2010.04.10 19:34:48.
