data_PCOD8257233
_publ_section_title
;
Structure prediction by ZEFSAII (Michael W. Deem and Ramdas Pophale) SiO2 
 PCOD8257233
Probable space group: C M C M
;
_chemical_formula_sum "Si O2"
_cell_formula_units_Z 80
_cell_length_a 29.655163
_cell_length_b 16.525644
_cell_length_c 9.145623
_cell_angle_alpha 90.000000
_cell_angle_beta 90.000000
_cell_angle_gamma 90.000000
_cell_volume 4482.001559
_symmetry_space_group_name_H-M "C M C M"
_symmetry_group_IT_number 63
_symmetry_cell_setting 'orthorhombic'
loop_
_space_group_symop_operation_xyz
x,y,z
-x,-y,1/2+z
x,-y,-z
-x,y,1/2-z
-x,-y,-z
x,y,1/2-z
-x,y,z
x,-y,1/2+z
1/2+x,1/2+y,z
1/2-x,1/2-y,1/2+z
1/2+x,1/2-y,-z
1/2-x,1/2+y,1/2-z
1/2-x,1/2-y,-z
1/2+x,1/2+y,1/2-z
1/2-x,1/2+y,z
1/2+x,1/2-y,1/2+z
loop_
_atom_site_type_symbol
_atom_site_label
_atom_site_fract_x
_atom_site_fract_y
_atom_site_fract_z
Si Si1 0.414073 0.142369 0.585068
Si Si2 0.192355 0.078805 0.920616
Si Si3 0.779866 0.618019 0.409538
Si Si4 0.353022 0.000000 0.000000
Si Si5 0.847615 0.247952 0.919118
Si Si6 0.500000 0.086493 0.075388
O O1 0.430220 0.161190 0.750000
O O2 0.385957 0.218514 0.525470
O O3 0.456120 0.134750 0.476442
O O4 0.384785 0.060110 0.592234
O O5 0.194185 0.061575 0.750000
O O6 0.160450 0.154308 0.958670
O O7 0.243759 0.093607 0.969702
O O8 0.171978 0.000000 0.000000
O O9 0.756382 0.620394 0.250000
O O10 0.821175 0.554459 0.397664
O O11 0.800535 0.705586 0.448810
O O12 0.862140 0.259100 0.750000
O O13 0.500000 0.076923 0.250000
O O14 0.500000 0.000000 0.000000
#
# Coordination Sequence:
#
# PCOD8257233 Si02
#       6
#    16  16  16   8  16   8
#     4  11  22  36  57  82 111 145 184 223 268 323
#     4  11  22  35  52  74 103 139 182 233 280 325
#     4  10  19  32  50  72 102 139 183 228 272 322
#     4  10  20  31  50  76 112 146 184 225 266 316
#     4   9  21  38  53  74 105 140 180 227 279 326
#     4  12  24  38  58  84 117 148 181 220 264 318
#
# _framework density 17.849167999999999
#
# number of rings (size 3 to 8) (size 9 to 14) (size 15 to 20)
#    0.000    1.600    2.000    3.300    0.000    6.400 
#    0.000    0.000    0.000    0.000    0.000    0.700 
#    0.000    0.000    0.000    0.000    0.000    0.000 
#
# Total GULP energy -495992.604612 kJ/mol
# GULP energy per Si atom -12399.815115 kJ/mol
# Density = 1.780854 g / cm^3
# Si number density = 17.849168 Si / 1000 Ang^3
#
#
#
# Elastic Constant Matrix: (Units=GPa)
#
#
# Indices 1 2 3 4 5 6 
#
# 1 74.7007 40.2139 47.4043 0.0000 0.0000 0.0000
# 2 40.2139 126.8917 57.7364 0.0000 0.0000 0.0000
# 3 47.4043 57.7364 128.1159 0.0000 0.0000 0.0000
# 4 0.0000 0.0000 0.0000 25.1177 0.0000 0.0000
# 5 0.0000 0.0000 0.0000 0.0000 21.5175 0.0000
# 6 0.0000 0.0000 0.0000 0.0000 0.0000 16.7797
#
#
#
# Elastic Compliance Matrix: (Units=1/GPa)
#
#
# Indices 1 2 3 4 5 6 
#
# 1 0.018644 -0.003484 -0.005328 0.000000 0.000000 0.000000
# 2 -0.003484 0.010565 -0.003472 0.000000 0.000000 0.000000
# 3 -0.005328 -0.003472 0.011342 0.000000 0.000000 0.000000
# 4 0.000000 0.000000 0.000000 0.039813 0.000000 0.000000
# 5 0.000000 0.000000 0.000000 0.000000 0.046474 0.000000
# 6 0.000000 0.000000 0.000000 0.000000 0.000000 0.059596
#
#
# Mechanical properties :
#
#
# Convention : Reuss Voigt Hill
#
# Bulk Modulus (GPa) = 62.57261 68.93527 65.75394
# Shear Modulus (GPa) = 23.11313 24.97323 24.04318
#
# Velocity S-wave (km/s) = 3.60239 3.74455 3.67416
# Velocity P-wave (km/s) = 7.24123 7.57630 7.41066
#
# Compressibility (1/GPa) = 0.01598143
#
# Stress axis : x y z
#
# Youngs Moduli (GPa) = 53.63782 94.65555 88.17136
#
# Poissons Ratio (x) = 0.32979 0.46979
# Poissons Ratio (y) = 0.18688 0.30612
# Poissons Ratio (z) = 0.28579 0.32863
#
# Static dielectric constant tensor:
#      x y z
#    x 3.121760 0.000000 0.000000 
#    y 0.000000 3.429070 0.000000 
#    z 0.000000 0.000000 3.247420 
# 
# 
# High freq. dielectric constant tensor:
#      x y z
#    x 1.659380 0.000000 0.000000 
#    y 0.000000 1.684450 0.000000 
#    z 0.000000 0.000000 1.699510 
# 
# From -- ./inp_files/14087.got.cif
#   From: 2010.03.12/outbox.cif.g09.slc.cpg/sg63_8_cif.got.tgz:14087.got - 2010.04.10 19:34:48.
