data_PCOD8257885
_publ_section_title
;
Structure prediction by ZEFSAII (Michael W. Deem and Ramdas Pophale) SiO2 
 PCOD8257885
Probable space group: C M C M
;
_chemical_formula_sum "Si O2"
_cell_formula_units_Z 112
_cell_length_a 14.940613
_cell_length_b 26.074080
_cell_length_c 14.065658
_cell_angle_alpha 90.000000
_cell_angle_beta 90.000000
_cell_angle_gamma 90.000000
_cell_volume 5479.456251
_symmetry_space_group_name_H-M "C M C M"
_symmetry_group_IT_number 63
_symmetry_cell_setting 'orthorhombic'
loop_
_space_group_symop_operation_xyz
x,y,z
-x,-y,1/2+z
x,-y,-z
-x,y,1/2-z
-x,-y,-z
x,y,1/2-z
-x,y,z
x,-y,1/2+z
1/2+x,1/2+y,z
1/2-x,1/2-y,1/2+z
1/2+x,1/2-y,-z
1/2-x,1/2+y,1/2-z
1/2-x,1/2-y,-z
1/2+x,1/2+y,1/2-z
1/2-x,1/2+y,z
1/2+x,1/2-y,1/2+z
loop_
_atom_site_type_symbol
_atom_site_label
_atom_site_fract_x
_atom_site_fract_y
_atom_site_fract_z
Si Si1 0.835322 0.043354 0.855262
Si Si2 0.904290 0.113172 0.490530
Si Si3 0.268100 0.568686 0.359792
Si Si4 0.224492 0.731933 0.638559
Si Si5 0.896272 0.771840 0.477517
Si Si6 0.667644 0.883319 0.145034
Si Si7 0.401403 0.941762 0.975034
O O1 0.878933 0.043599 0.750000
O O2 0.745030 0.075174 0.856079
O O3 0.810527 0.985958 0.886270
O O4 0.901906 0.068388 0.930408
O O5 0.826556 0.111040 0.413077
O O6 0.899177 0.167733 0.541722
O O7 0.000000 0.107205 0.438257
O O8 0.269901 0.580936 0.250000
O O9 0.167178 0.576036 0.394829
O O10 0.218867 0.746140 0.750000
O O11 0.143218 0.760062 0.582801
O O12 0.323180 0.749502 0.599336
O O13 0.209756 0.671551 0.620072
O O14 0.000000 0.750210 0.466693
O O15 0.621902 0.881959 0.250000
O O16 0.598654 0.903173 0.065631
O O17 0.500000 0.938954 0.930113
O O18 0.377068 0.000000 0.000000
#
# Coordination Sequence:
#
# PCOD8257885 Si02
#       7
#    16  16  16  16  16  16  16
#     4  10  19  34  57  84 114 147 185 233 285 334
#     4  11  22  38  60  84 115 154 192 231 283 340
#     4  11  22  37  55  77 115 158 197 238 277 328
#     4  10  21  39  64  88 114 150 190 235 290 347
#     4  10  22  39  60  89 120 149 189 239 287 342
#     4  10  19  36  60  85 113 145 185 235 289 340
#     4  11  21  34  54  80 111 147 187 232 287 342
#
# _framework density 20.439985
#
# number of rings (size 3 to 8) (size 9 to 14) (size 15 to 20)
#    0.000    1.571    4.286    0.429    0.000    4.000 
#    0.000    7.143    0.000    0.000    0.000    4.000 
#    0.000    0.000    0.000    0.000    0.000    0.000 
#
# Total GULP energy -694057.189958 kJ/mol
# GULP energy per Si atom -12393.878392 kJ/mol
# Density = 2.039346 g / cm^3
# Si number density = 20.439985 Si / 1000 Ang^3
#
#
#
# Elastic Constant Matrix: (Units=GPa)
#
#
# Indices 1 2 3 4 5 6 
#
# 1 125.5656 2.9580 38.3412 0.0000 0.0000 0.0000
# 2 2.9580 26.0021 9.9011 0.0000 0.0000 0.0000
# 3 38.3412 9.9011 103.3366 0.0000 0.0000 0.0000
# 4 0.0000 0.0000 0.0000 29.1434 0.0000 0.0000
# 5 0.0000 0.0000 0.0000 0.0000 3.8766 0.0000
# 6 0.0000 0.0000 0.0000 0.0000 0.0000 19.1806
#
#
#
# Elastic Compliance Matrix: (Units=1/GPa)
#
#
# Indices 1 2 3 4 5 6 
#
# 1 0.008983 0.000257 -0.003358 0.000000 0.000000 0.000000
# 2 0.000257 0.039922 -0.003920 0.000000 0.000000 0.000000
# 3 -0.003358 -0.003920 0.011299 0.000000 0.000000 0.000000
# 4 0.000000 0.000000 0.000000 0.034313 0.000000 0.000000
# 5 0.000000 0.000000 0.000000 0.000000 0.257955 0.000000
# 6 0.000000 0.000000 0.000000 0.000000 0.000000 0.052136
#
#
# Mechanical properties :
#
#
# Convention : Reuss Voigt Hill
#
# Bulk Modulus (GPa) = 21.66327 39.70054 30.68190
# Shear Modulus (GPa) = 11.51975 24.02041 17.77008
#
# Velocity S-wave (km/s) = 2.37658 3.43179 2.95172
# Velocity P-wave (km/s) = 4.26055 5.93027 5.16335
#
# Compressibility (1/GPa) = 0.04616108
#
# Stress axis : x y z
#
# Youngs Moduli (GPa) = 111.31939 25.04881 88.50712
#
# Poissons Ratio (x) = -0.00643 0.29717
# Poissons Ratio (y) = -0.02857 0.34698
# Poissons Ratio (z) = 0.37377 0.09820
#
# Static dielectric constant tensor:
#      x y z
#    x 3.712770 0.000000 0.000000 
#    y 0.000000 3.713790 0.000000 
#    z 0.000000 0.000000 3.897170 
# 
# 
# High freq. dielectric constant tensor:
#      x y z
#    x 1.796480 0.000000 0.000000 
#    y 0.000000 1.789490 0.000000 
#    z 0.000000 0.000000 1.791690 
# 
# From -- ./inp_files/32261.got.cif
#   From: 2010.03.12/outbox.cif.g09.slc.cpg/sg63_17_cif.got.tgz:32261.got - 2010.04.10 19:34:48.
