data_PCOD8257927
_publ_section_title
;
Structure prediction by ZEFSAII (Michael W. Deem and Ramdas Pophale) SiO2 
 PCOD8257927
Probable space group: C M C M
;
_chemical_formula_sum "Si O2"
_cell_formula_units_Z 80
_cell_length_a 8.687645
_cell_length_b 15.466065
_cell_length_c 28.397612
_cell_angle_alpha 90.000000
_cell_angle_beta 90.000000
_cell_angle_gamma 90.000000
_cell_volume 3815.607716
_symmetry_space_group_name_H-M "C M C M"
_symmetry_group_IT_number 63
_symmetry_cell_setting 'orthorhombic'
loop_
_space_group_symop_operation_xyz
x,y,z
-x,-y,1/2+z
x,-y,-z
-x,y,1/2-z
-x,-y,-z
x,y,1/2-z
-x,y,z
x,-y,1/2+z
1/2+x,1/2+y,z
1/2-x,1/2-y,1/2+z
1/2+x,1/2-y,-z
1/2-x,1/2+y,1/2-z
1/2-x,1/2-y,-z
1/2+x,1/2+y,1/2-z
1/2-x,1/2+y,z
1/2+x,1/2-y,1/2+z
loop_
_atom_site_type_symbol
_atom_site_label
_atom_site_fract_x
_atom_site_fract_y
_atom_site_fract_z
Si Si1 0.822865 0.583503 0.851856
Si Si2 0.823618 0.331208 0.051840
Si Si3 0.678213 0.592650 0.142824
Si Si4 0.678091 0.747455 0.695514
Si Si5 0.676595 0.849969 0.552734
O O1 0.794696 0.599498 0.907358
O O2 0.723530 0.500641 0.836177
O O3 0.775562 0.666050 0.821657
O O4 0.000000 0.563043 0.841469
O O5 0.710216 0.251361 0.060252
O O6 0.000000 0.296977 0.053001
O O7 0.788730 0.375973 0.001471
O O8 0.500000 0.610311 0.151819
O O9 0.775220 0.666823 0.167916
O O10 0.716987 0.593520 0.087130
O O11 0.713560 0.763370 0.750000
O O12 0.500000 0.727951 0.685976
O O13 0.500000 0.868309 0.565932
#
# Coordination Sequence:
#
# PCOD8257927 Si02
#       5
#    16  16  16  16  16
#     4  11  23  41  66  95 128 165 208 255 310 372
#     4   9  19  35  58  90 125 166 209 254 307 369
#     4  12  25  41  63  93 129 168 213 257 307 367
#     4  11  25  46  70  95 123 157 202 259 322 380
#     4  10  19  34  59  89 126 167 210 257 307 362
#
# _framework density 20.966517
#
# number of rings (size 3 to 8) (size 9 to 14) (size 15 to 20)
#    0.000    1.400    2.000    3.600    0.000    4.800 
#    0.000    4.000    0.000    0.000    0.000    0.000 
#    0.000    0.000    0.000    0.000    0.000    0.000 
#
# Total GULP energy -496178.142950 kJ/mol
# GULP energy per Si atom -12404.453574 kJ/mol
# Density = 2.091880 g / cm^3
# Si number density = 20.966517 Si / 1000 Ang^3
#
#
#
# Elastic Constant Matrix: (Units=GPa)
#
#
# Indices 1 2 3 4 5 6 
#
# 1 60.9058 12.7324 36.7545 0.0000 0.0000 0.0000
# 2 12.7324 92.3437 24.0024 0.0000 0.0000 0.0000
# 3 36.7545 24.0024 79.2973 0.0000 0.0000 0.0000
# 4 0.0000 0.0000 0.0000 4.1390 0.0000 0.0000
# 5 0.0000 0.0000 0.0000 0.0000 26.8883 0.0000
# 6 0.0000 0.0000 0.0000 0.0000 0.0000 35.6385
#
#
#
# Elastic Compliance Matrix: (Units=1/GPa)
#
#
# Indices 1 2 3 4 5 6 
#
# 1 0.022810 -0.000431 -0.010442 0.000000 0.000000 0.000000
# 2 -0.000431 0.011762 -0.003360 0.000000 0.000000 0.000000
# 3 -0.010442 -0.003360 0.018468 0.000000 0.000000 0.000000
# 4 0.000000 0.000000 0.000000 0.241605 0.000000 0.000000
# 5 0.000000 0.000000 0.000000 0.000000 0.037191 0.000000
# 6 0.000000 0.000000 0.000000 0.000000 0.000000 0.028060
#
#
# Mechanical properties :
#
#
# Convention : Reuss Voigt Hill
#
# Bulk Modulus (GPa) = 40.69498 42.16949 41.43224
# Shear Modulus (GPa) = 12.60863 23.93699 18.27281
#
# Velocity S-wave (km/s) = 2.45494 3.38254 2.95536
# Velocity P-wave (km/s) = 5.24283 5.95079 5.60799
#
# Compressibility (1/GPa) = 0.02457305
#
# Stress axis : x y z
#
# Youngs Moduli (GPa) = 43.83960 85.01963 54.14781
#
# Poissons Ratio (x) = 0.03664 0.56543
# Poissons Ratio (y) = 0.01889 0.18196
# Poissons Ratio (z) = 0.45778 0.28571
#
# Static dielectric constant tensor:
#      x y z
#    x 3.841920 0.000000 0.000000 
#    y 0.000000 3.567110 0.000000 
#    z 0.000000 0.000000 3.989880 
# 
# 
# High freq. dielectric constant tensor:
#      x y z
#    x 1.825640 0.000000 0.000000 
#    y 0.000000 1.811960 0.000000 
#    z 0.000000 0.000000 1.823940 
# 
# From -- ./inp_files/71609.got.cif
#   From: 2010.03.12/outbox.cif.g09.slc.cpg/sg63_36_cif.got.tgz:71609.got - 2010.04.10 19:34:48.
