data_PCOD8257388
_publ_section_title
;
Structure prediction by ZEFSAII (Michael W. Deem and Ramdas Pophale) SiO2 
 PCOD8257388
Probable space group: C M C M
;
_chemical_formula_sum "Si O2"
_cell_formula_units_Z 96
_cell_length_a 27.545607
_cell_length_b 9.028699
_cell_length_c 20.560492
_cell_angle_alpha 90.000000
_cell_angle_beta 90.000000
_cell_angle_gamma 90.000000
_cell_volume 5113.414805
_symmetry_space_group_name_H-M "C M C M"
_symmetry_group_IT_number 63
_symmetry_cell_setting 'orthorhombic'
loop_
_space_group_symop_operation_xyz
x,y,z
-x,-y,1/2+z
x,-y,-z
-x,y,1/2-z
-x,-y,-z
x,y,1/2-z
-x,y,z
x,-y,1/2+z
1/2+x,1/2+y,z
1/2-x,1/2-y,1/2+z
1/2+x,1/2-y,-z
1/2-x,1/2+y,1/2-z
1/2-x,1/2-y,-z
1/2+x,1/2+y,1/2-z
1/2-x,1/2+y,z
1/2+x,1/2-y,1/2+z
loop_
_atom_site_type_symbol
_atom_site_label
_atom_site_fract_x
_atom_site_fract_y
_atom_site_fract_z
Si Si1 0.181668 0.501470 0.570949
Si Si2 0.092850 0.133737 0.672942
Si Si3 0.248552 0.750983 0.613519
Si Si4 0.000000 0.367407 0.173104
Si Si5 0.000000 0.035258 0.327820
Si Si6 0.808034 0.989058 0.324182
Si Si7 0.401427 0.026734 0.172560
O O1 0.155731 0.500000 0.500000
O O2 0.220960 0.635186 0.566687
O O3 0.208582 0.343578 0.579457
O O4 0.143844 0.532661 0.629800
O O5 0.093664 0.120782 0.750000
O O6 0.140706 0.056835 0.643686
O O7 0.090539 0.304019 0.652985
O O8 0.046674 0.048945 0.643802
O O9 0.271578 0.650044 0.670543
O O10 0.209328 0.863785 0.640936
O O11 0.000000 0.201686 0.145171
O O12 0.049339 0.446107 0.149658
O O13 0.000000 0.368892 0.250000
O O14 0.000000 0.032910 0.250000
O O15 0.814711 0.031312 0.250000
O O16 0.390368 0.004734 0.250000
#
# Coordination Sequence:
#
# PCOD8257388 Si02
#       7
#    16  16  16   8   8  16  16
#     4  11  23  40  59  82 113 154 196 236 284 339
#     4   9  17  30  49  75 110 144 177 221 275 332
#     4  10  22  36  54  77 111 152 194 231 278 340
#     4   9  19  33  54  85 117 145 179 229 285 337
#     4   9  17  29  49  77 110 144 177 219 278 340
#     4  10  19  32  52  83 115 144 182 232 285 333
#     4  10  20  36  58  85 114 146 186 233 284 339
#
# _framework density 18.774145999999998
#
# number of rings (size 3 to 8) (size 9 to 14) (size 15 to 20)
#    0.000    2.167    1.667    1.500    2.333    5.333 
#    0.000    0.417    0.000    0.000    0.000    1.167 
#    0.000    0.000    0.000    0.000    0.000    0.000 
#
# Total GULP energy -594939.468762 kJ/mol
# GULP energy per Si atom -12394.572266 kJ/mol
# Density = 1.873142 g / cm^3
# Si number density = 18.774146 Si / 1000 Ang^3
#
#
#
# Elastic Constant Matrix: (Units=GPa)
#
#
# Indices 1 2 3 4 5 6 
#
# 1 121.7857 40.2922 26.3012 0.0000 0.0000 0.0000
# 2 40.2922 95.9311 14.3520 0.0000 0.0000 0.0000
# 3 26.3012 14.3520 61.6819 0.0000 0.0000 0.0000
# 4 0.0000 0.0000 0.0000 6.2476 0.0000 0.0000
# 5 0.0000 0.0000 0.0000 0.0000 11.6797 0.0000
# 6 0.0000 0.0000 0.0000 0.0000 0.0000 36.6198
#
#
#
# Elastic Compliance Matrix: (Units=1/GPa)
#
#
# Indices 1 2 3 4 5 6 
#
# 1 0.010208 -0.003768 -0.003476 0.000000 0.000000 0.000000
# 2 -0.003768 0.012191 -0.001230 0.000000 0.000000 0.000000
# 3 -0.003476 -0.001230 0.017981 0.000000 0.000000 0.000000
# 4 0.000000 0.000000 0.000000 0.160061 0.000000 0.000000
# 5 0.000000 0.000000 0.000000 0.000000 0.085618 0.000000
# 6 0.000000 0.000000 0.000000 0.000000 0.000000 0.027308
#
#
# Mechanical properties :
#
#
# Convention : Reuss Voigt Hill
#
# Bulk Modulus (GPa) = 42.67657 49.03216 45.85437
# Shear Modulus (GPa) = 14.78745 24.13966 19.46356
#
# Velocity S-wave (km/s) = 2.80955 3.58969 3.22331
# Velocity P-wave (km/s) = 5.77111 6.58443 6.19114
#
# Compressibility (1/GPa) = 0.02343206
#
# Stress axis : x y z
#
# Youngs Moduli (GPa) = 97.95895 82.03054 55.61531
#
# Poissons Ratio (x) = 0.30905 0.19333
# Poissons Ratio (y) = 0.36907 0.06841
# Poissons Ratio (z) = 0.34053 0.10090
#
# Static dielectric constant tensor:
#      x y z
#    x 3.689520 0.000000 0.000000 
#    y 0.000000 3.616430 0.000000 
#    z 0.000000 0.000000 2.935310 
# 
# 
# High freq. dielectric constant tensor:
#      x y z
#    x 1.736740 0.000000 0.000000 
#    y 0.000000 1.746410 0.000000 
#    z 0.000000 0.000000 1.671790 
# 
# From -- ./inp_files/65402.got.cif
#   From: 2010.03.12/outbox.cif.g09.slc.cpg/sg63_33_cif.got.tgz:65402.got - 2010.04.10 19:34:48.
