data_PCOD8257331
_publ_section_title
;
Structure prediction by ZEFSAII (Michael W. Deem and Ramdas Pophale) SiO2 
 PCOD8257331
Probable space group: C M C M
;
_chemical_formula_sum "Si O2"
_cell_formula_units_Z 88
_cell_length_a 11.369940
_cell_length_b 26.721848
_cell_length_c 15.710432
_cell_angle_alpha 90.000000
_cell_angle_beta 90.000000
_cell_angle_gamma 90.000000
_cell_volume 4773.234703
_symmetry_space_group_name_H-M "C M C M"
_symmetry_group_IT_number 63
_symmetry_cell_setting 'orthorhombic'
loop_
_space_group_symop_operation_xyz
x,y,z
-x,-y,1/2+z
x,-y,-z
-x,y,1/2-z
-x,-y,-z
x,y,1/2-z
-x,y,z
x,-y,1/2+z
1/2+x,1/2+y,z
1/2-x,1/2-y,1/2+z
1/2+x,1/2-y,-z
1/2-x,1/2+y,1/2-z
1/2-x,1/2-y,-z
1/2+x,1/2+y,1/2-z
1/2-x,1/2+y,z
1/2+x,1/2-y,1/2+z
loop_
_atom_site_type_symbol
_atom_site_label
_atom_site_fract_x
_atom_site_fract_y
_atom_site_fract_z
Si Si1 0.225182 0.138252 0.915875
Si Si2 0.865293 0.598968 0.250000
Si Si3 0.369390 0.259370 0.448129
Si Si4 0.633115 0.116354 0.750000
Si Si5 0.277195 0.008594 0.750000
Si Si6 0.364614 0.471672 0.416747
Si Si7 0.368115 0.847638 0.911888
O O1 0.140806 0.186549 0.903325
O O2 0.307988 0.138180 0.834118
O O3 0.148646 0.088097 0.922638
O O4 0.299533 0.142727 0.001395
O O5 0.859330 0.539539 0.250000
O O6 0.805571 0.622166 0.165144
O O7 0.000000 0.616762 0.250000
O O8 0.500000 0.258928 0.495499
O O9 0.250000 0.250000 0.500000
O O10 0.370416 0.211300 0.385620
O O11 0.500000 0.134587 0.750000
O O12 0.638372 0.056346 0.750000
O O13 0.198065 0.007016 0.833778
O O14 0.312273 0.500000 0.500000
O O15 0.500000 0.485597 0.407208
O O16 0.500000 0.868161 0.926843
#
# Coordination Sequence:
#
# PCOD8257331 Si02
#       7
#    16   8  16   8   8  16  16
#     4  10  19  33  52  74 102 136 173 215 258 310
#     4  10  19  32  52  75  99 129 164 206 256 310
#     4   9  18  33  54  80 108 140 176 217 264 315
#     4  10  21  34  50  73 101 135 173 214 265 315
#     4  10  20  34  50  70  98 128 164 210 255 309
#     4  10  20  33  50  72  98 131 170 211 256 307
#     4   9  18  32  51  75 102 131 166 208 257 310
#
# _framework density 18.436136000000001
#
# number of rings (size 3 to 8) (size 9 to 14) (size 15 to 20)
#    0.000    2.364    0.000    2.727    0.000    1.455 
#    0.000    2.273    0.000    9.818    0.000    0.000 
#    0.000    0.000    0.000    0.000    0.000    0.000 
#
# Total GULP energy -545077.756344 kJ/mol
# GULP energy per Si atom -12388.130826 kJ/mol
# Density = 1.839417 g / cm^3
# Si number density = 18.436136 Si / 1000 Ang^3
#
#
#
# Elastic Constant Matrix: (Units=GPa)
#
#
# Indices 1 2 3 4 5 6 
#
# 1 89.2250 21.1097 30.7936 0.0000 0.0000 0.0000
# 2 21.1097 105.3307 40.2642 0.0000 0.0000 0.0000
# 3 30.7936 40.2642 130.7774 0.0000 0.0000 0.0000
# 4 0.0000 0.0000 0.0000 24.2471 0.0000 0.0000
# 5 0.0000 0.0000 0.0000 0.0000 12.4298 0.0000
# 6 0.0000 0.0000 0.0000 0.0000 0.0000 24.9638
#
#
#
# Elastic Compliance Matrix: (Units=1/GPa)
#
#
# Indices 1 2 3 4 5 6 
#
# 1 0.012419 -0.001554 -0.002446 0.000000 0.000000 0.000000
# 2 -0.001554 0.010955 -0.003007 0.000000 0.000000 0.000000
# 3 -0.002446 -0.003007 0.009148 0.000000 0.000000 0.000000
# 4 0.000000 0.000000 0.000000 0.041242 0.000000 0.000000
# 5 0.000000 0.000000 0.000000 0.000000 0.080452 0.000000
# 6 0.000000 0.000000 0.000000 0.000000 0.000000 0.040058
#
#
# Mechanical properties :
#
#
# Convention : Reuss Voigt Hill
#
# Bulk Modulus (GPa) = 54.02817 56.62981 55.32899
# Shear Modulus (GPa) = 23.31465 27.87251 25.59358
#
# Velocity S-wave (km/s) = 3.56000 3.89246 3.72994
# Velocity P-wave (km/s) = 6.80201 7.14038 6.97325
#
# Compressibility (1/GPa) = 0.01850886
#
# Stress axis : x y z
#
# Youngs Moduli (GPa) = 80.51904 91.28438 109.31029
#
# Poissons Ratio (x) = 0.14186 0.26736
# Poissons Ratio (y) = 0.12513 0.32868
# Poissons Ratio (z) = 0.19694 0.27448
#
# Static dielectric constant tensor:
#      x y z
#    x 3.351910 0.000000 0.000000 
#    y 0.000000 3.814840 0.000000 
#    z 0.000000 0.000000 3.375610 
# 
# 
# High freq. dielectric constant tensor:
#      x y z
#    x 1.709840 0.000000 0.000000 
#    y 0.000000 1.732260 0.000000 
#    z 0.000000 0.000000 1.701160 
# 
# From -- ./inp_files/30159.got.cif
#   From: 2010.03.12/outbox.cif.g09.slc.cpg/sg63_16_cif.got.tgz:30159.got - 2010.04.10 19:34:48.
