data_PCOD8257005
_publ_section_title
;
Structure prediction by ZEFSAII (Michael W. Deem and Ramdas Pophale) SiO2 
 PCOD8257005
Probable space group: C M C M
;
_chemical_formula_sum "Si O2"
_cell_formula_units_Z 96
_cell_length_a 9.085397
_cell_length_b 30.906035
_cell_length_c 18.924371
_cell_angle_alpha 90.000000
_cell_angle_beta 90.000000
_cell_angle_gamma 90.000000
_cell_volume 5313.842217
_symmetry_space_group_name_H-M "C M C M"
_symmetry_group_IT_number 63
_symmetry_cell_setting 'orthorhombic'
loop_
_space_group_symop_operation_xyz
x,y,z
-x,-y,1/2+z
x,-y,-z
-x,y,1/2-z
-x,-y,-z
x,y,1/2-z
-x,y,z
x,-y,1/2+z
1/2+x,1/2+y,z
1/2-x,1/2-y,1/2+z
1/2+x,1/2-y,-z
1/2-x,1/2+y,1/2-z
1/2-x,1/2-y,-z
1/2+x,1/2+y,1/2-z
1/2-x,1/2+y,z
1/2+x,1/2-y,1/2+z
loop_
_atom_site_type_symbol
_atom_site_label
_atom_site_fract_x
_atom_site_fract_y
_atom_site_fract_z
Si Si1 0.172236 0.622255 0.084375
Si Si2 0.328977 0.877348 0.079705
Si Si3 0.665711 0.292064 0.416225
Si Si4 0.669791 0.546954 0.332841
Si Si5 0.330156 0.959836 0.168302
Si Si6 0.333874 0.291639 0.584506
O O1 0.237594 0.582604 0.126897
O O2 0.247667 0.666237 0.111765
O O3 0.000000 0.625968 0.099497
O O4 0.206075 0.614391 0.002176
O O5 0.500000 0.867626 0.091915
O O6 0.241103 0.836230 0.109827
O O7 0.276281 0.919182 0.122654
O O8 0.500000 0.290339 0.386890
O O9 0.667440 0.290290 0.500382
O O10 0.754364 0.251110 0.385183
O O11 0.691436 0.554634 0.250000
O O12 0.500000 0.549811 0.355350
O O13 0.731488 0.500249 0.355047
O O14 0.306224 0.948158 0.250000
O O15 0.500000 0.971136 0.152412
O O16 0.500000 0.293114 0.613799
#
# Coordination Sequence:
#
# PCOD8257005 Si02
#       6
#    16  16  16  16  16  16
#     4  10  19  31  49  73 100 127 158 198 242 287
#     4   9  18  31  48  73 101 127 158 199 244 285
#     4   9  16  26  43  68  97 129 162 195 236 286
#     4  10  21  36  52  70  94 125 161 199 240 288
#     4   9  18  34  54  72  93 126 165 199 235 284
#     4   9  16  27  44  67  97 129 160 196 238 284
#
# _framework density 18.066023000000001
#
# number of rings (size 3 to 8) (size 9 to 14) (size 15 to 20)
#    0.000    2.667    0.000    2.000    0.000    7.000 
#    0.000    3.333    0.000    1.000    0.000    2.333 
#    0.000    0.000    0.000    0.000    0.000    0.000 
#
# Total GULP energy -595281.314128 kJ/mol
# GULP energy per Si atom -12401.694044 kJ/mol
# Density = 1.802490 g / cm^3
# Si number density = 18.066023 Si / 1000 Ang^3
#
#
#
# Elastic Constant Matrix: (Units=GPa)
#
#
# Indices 1 2 3 4 5 6 
#
# 1 129.5308 91.4088 33.9447 0.0000 0.0000 0.0000
# 2 91.4088 176.5670 49.9352 0.0000 0.0000 0.0000
# 3 33.9447 49.9352 30.4916 0.0000 0.0000 0.0000
# 4 0.0000 0.0000 0.0000 -7.9683 0.0000 0.0000
# 5 0.0000 0.0000 0.0000 0.0000 18.4294 0.0000
# 6 0.0000 0.0000 0.0000 0.0000 0.0000 42.0363
#
#
#
# Elastic Compliance Matrix: (Units=1/GPa)
#
#
# Indices 1 2 3 4 5 6 
#
# 1 0.012787 -0.004832 -0.006322 0.000000 0.000000 0.000000
# 2 -0.004832 0.012375 -0.014888 0.000000 0.000000 0.000000
# 3 -0.006322 -0.014888 0.064216 0.000000 0.000000 0.000000
# 4 0.000000 0.000000 0.000000 -0.125497 0.000000 0.000000
# 5 0.000000 0.000000 0.000000 0.000000 0.054261 0.000000
# 6 0.000000 0.000000 0.000000 0.000000 0.000000 0.023789
#
#
# Mechanical properties :
#
#
# Convention : Reuss Voigt Hill
#
# Bulk Modulus (GPa) = 26.81372 76.35185 51.58279
# Shear Modulus (GPa) = 46.97246 21.25285 34.11266
#
# Velocity S-wave (km/s) = 5.10459 3.43359 4.35008
# Velocity P-wave (km/s) = 7.04392 7.62062 7.33794
#
# Compressibility (1/GPa) = 0.03729434
#
# Stress axis : x y z
#
# Youngs Moduli (GPa) = 78.20708 80.80485 15.57252
#
# Poissons Ratio (x) = 0.39043 0.09845
# Poissons Ratio (y) = 0.37787 0.23185
# Poissons Ratio (z) = 0.49441 1.20303
#
# Static dielectric constant tensor:
#      x y z
#    x 3.488500 0.000000 0.000000 
#    y 0.000000 3.511060 0.000000 
#    z 0.000000 0.000000 2.946440 
# 
# 
# High freq. dielectric constant tensor:
#      x y z
#    x 1.711310 0.000000 0.000000 
#    y 0.000000 1.714880 0.000000 
#    z 0.000000 0.000000 1.652310 
# 
# From -- ./inp_files/59957.got.cif
#   From: 2010.03.12/outbox.cif.g09.slc.cpg/sg63_30_cif.got.tgz:59957.got - 2010.04.10 19:34:48.
