data_PCOD8257524
_publ_section_title
;
Structure prediction by ZEFSAII (Michael W. Deem and Ramdas Pophale) SiO2 
 PCOD8257524
Probable space group: C M C M
;
_chemical_formula_sum "Si O2"
_cell_formula_units_Z 112
_cell_length_a 12.128903
_cell_length_b 17.522590
_cell_length_c 28.613658
_cell_angle_alpha 90.000000
_cell_angle_beta 90.000000
_cell_angle_gamma 90.000000
_cell_volume 6081.254852
_symmetry_space_group_name_H-M "C M C M"
_symmetry_group_IT_number 63
_symmetry_cell_setting 'orthorhombic'
loop_
_space_group_symop_operation_xyz
x,y,z
-x,-y,1/2+z
x,-y,-z
-x,y,1/2-z
-x,-y,-z
x,y,1/2-z
-x,y,z
x,-y,1/2+z
1/2+x,1/2+y,z
1/2-x,1/2-y,1/2+z
1/2+x,1/2-y,-z
1/2-x,1/2+y,1/2-z
1/2-x,1/2-y,-z
1/2+x,1/2+y,1/2-z
1/2-x,1/2+y,z
1/2+x,1/2-y,1/2+z
loop_
_atom_site_type_symbol
_atom_site_label
_atom_site_fract_x
_atom_site_fract_y
_atom_site_fract_z
Si Si1 0.255569 0.383862 0.803288
Si Si2 0.739296 0.167803 0.445320
Si Si3 0.131328 0.319649 0.458150
Si Si4 0.376843 0.033703 0.696880
Si Si5 0.730289 0.608648 0.623087
Si Si6 0.626397 0.552055 0.111412
Si Si7 0.126155 0.266277 0.858435
O O1 0.299808 0.377933 0.750000
O O2 0.159586 0.446202 0.808208
O O3 0.354445 0.409331 0.837620
O O4 0.204907 0.302760 0.818826
O O5 0.833087 0.231786 0.452490
O O6 0.673820 0.148645 0.492403
O O7 0.799166 0.091605 0.427979
O O8 0.648352 0.193758 0.407957
O O9 0.187361 0.371401 0.418818
O O10 0.000000 0.326057 0.454355
O O11 0.369706 0.061291 0.750000
O O12 0.500000 0.038577 0.677170
O O13 0.302237 0.091440 0.668390
O O14 0.654622 0.537064 0.610110
O O15 0.649457 0.676909 0.636710
O O16 0.500000 0.563260 0.098003
O O17 0.000000 0.278251 0.843841
#
# Coordination Sequence:
#
# PCOD8257524 Si02
#       7
#    16  16  16  16  16  16  16
#     4   9  19  34  54  79 100 127 174 217 250 302
#     4   9  20  35  54  78 100 134 181 218 254 309
#     4  10  19  35  56  77 105 136 172 220 267 305
#     4   9  17  32  52  72  99 134 168 206 252 299
#     4  10  21  33  50  79 108 136 173 210 253 313
#     4  10  20  37  56  75 106 140 171 210 258 310
#     4  10  19  33  52  74 104 136 168 212 262 305
#
# _framework density 18.417252000000001
#
# number of rings (size 3 to 8) (size 9 to 14) (size 15 to 20)
#    0.000    2.429    0.000    2.143    0.000    2.286 
#    0.000    6.429    0.000    2.571    0.000    0.000 
#    0.000    0.000    0.000    0.000    0.000    0.000 
#
# Total GULP energy -694497.456382 kJ/mol
# GULP energy per Si atom -12401.740293 kJ/mol
# Density = 1.837533 g / cm^3
# Si number density = 18.417252 Si / 1000 Ang^3
#
#
#
# Elastic Constant Matrix: (Units=GPa)
#
#
# Indices 1 2 3 4 5 6 
#
# 1 81.1797 27.5295 12.2163 0.0000 0.0000 0.0000
# 2 27.5295 98.3837 24.8258 0.0000 0.0000 0.0000
# 3 12.2163 24.8258 80.3345 0.0000 0.0000 0.0000
# 4 0.0000 0.0000 0.0000 27.1658 0.0000 0.0000
# 5 0.0000 0.0000 0.0000 0.0000 21.0527 0.0000
# 6 0.0000 0.0000 0.0000 0.0000 0.0000 12.2812
#
#
#
# Elastic Compliance Matrix: (Units=1/GPa)
#
#
# Indices 1 2 3 4 5 6 
#
# 1 0.013680 -0.003582 -0.000973 0.000000 0.000000 0.000000
# 2 -0.003582 0.011962 -0.003152 0.000000 0.000000 0.000000
# 3 -0.000973 -0.003152 0.013570 0.000000 0.000000 0.000000
# 4 0.000000 0.000000 0.000000 0.036811 0.000000 0.000000
# 5 0.000000 0.000000 0.000000 0.000000 0.047500 0.000000
# 6 0.000000 0.000000 0.000000 0.000000 0.000000 0.081425
#
#
# Mechanical properties :
#
#
# Convention : Reuss Voigt Hill
#
# Bulk Modulus (GPa) = 42.02221 43.22679 42.62450
# Shear Modulus (GPa) = 21.90155 25.12170 23.51162
#
# Velocity S-wave (km/s) = 3.45220 3.69729 3.57684
# Velocity P-wave (km/s) = 6.22547 6.46129 6.34448
#
# Compressibility (1/GPa) = 0.02379694
#
# Stress axis : x y z
#
# Youngs Moduli (GPa) = 73.10150 83.59819 73.69210
#
# Poissons Ratio (x) = 0.29947 0.07172
# Poissons Ratio (y) = 0.26187 0.23227
# Poissons Ratio (z) = 0.07114 0.26349
#
# Static dielectric constant tensor:
#      x y z
#    x 3.220650 0.000000 0.000000 
#    y 0.000000 3.320770 0.000000 
#    z 0.000000 0.000000 3.534120 
# 
# 
# High freq. dielectric constant tensor:
#      x y z
#    x 1.710590 0.000000 0.000000 
#    y 0.000000 1.712690 0.000000 
#    z 0.000000 0.000000 1.718680 
# 
# From -- ./inp_files/72859.got.cif
#   From: 2010.03.12/outbox.cif.g09.slc.cpg/sg63_37_cif.got.tgz:72859.got - 2010.04.10 19:34:48.
