data_PCOD8257553
_publ_section_title
;
Structure prediction by ZEFSAII (Michael W. Deem and Ramdas Pophale) SiO2 
 PCOD8257553
Probable space group: C M C M
;
_chemical_formula_sum "Si O2"
_cell_formula_units_Z 104
_cell_length_a 20.100865
_cell_length_b 32.453725
_cell_length_c 8.943601
_cell_angle_alpha 90.000000
_cell_angle_beta 90.000000
_cell_angle_gamma 90.000000
_cell_volume 5834.339733
_symmetry_space_group_name_H-M "C M C M"
_symmetry_group_IT_number 63
_symmetry_cell_setting 'orthorhombic'
loop_
_space_group_symop_operation_xyz
x,y,z
-x,-y,1/2+z
x,-y,-z
-x,y,1/2-z
-x,-y,-z
x,y,1/2-z
-x,y,z
x,-y,1/2+z
1/2+x,1/2+y,z
1/2-x,1/2-y,1/2+z
1/2+x,1/2-y,-z
1/2-x,1/2+y,1/2-z
1/2-x,1/2-y,-z
1/2+x,1/2+y,1/2-z
1/2-x,1/2+y,z
1/2+x,1/2-y,1/2+z
loop_
_atom_site_type_symbol
_atom_site_label
_atom_site_fract_x
_atom_site_fract_y
_atom_site_fract_z
Si Si1 0.076979 0.323184 0.578631
Si Si2 0.074279 0.770057 0.072017
Si Si3 0.769377 0.543143 0.076857
Si Si4 0.677363 0.336228 0.074927
Si Si5 0.187248 0.626405 0.572984
Si Si6 0.500000 0.542637 0.423607
Si Si7 0.133591 0.084692 0.421341
O O1 0.100491 0.328051 0.750000
O O2 0.089126 0.276610 0.521698
O O3 0.117696 0.353913 0.473874
O O4 0.000000 0.335117 0.562840
O O5 0.073276 0.772427 0.250000
O O6 0.133930 0.798565 0.004141
O O7 0.000000 0.783370 0.014108
O O8 0.790210 0.540891 0.250000
O O9 0.690587 0.550401 0.057497
O O10 0.789341 0.500000 0.000000
O O11 0.807555 0.581516 0.002075
O O12 0.677731 0.329581 0.250000
O O13 0.753771 0.342030 0.017920
O O14 0.640825 0.377969 0.034142
O O15 0.190821 0.620107 0.750000
O O16 0.500000 0.500000 0.500000
O O17 0.500000 0.534712 0.250000
O O18 0.564645 0.566573 0.475543
O O19 0.132688 0.100483 0.250000
#
# Coordination Sequence:
#
# PCOD8257553 Si02
#       7
#    16  16  16  16  16   8  16
#     4   9  18  34  55  76  99 131 169 206 247 300
#     4   8  15  29  49  72  99 133 174 215 251 290
#     4  10  19  33  53  74  98 130 167 205 248 298
#     4   9  18  31  48  72  99 130 172 213 248 292
#     4  10  20  33  50  76 107 133 163 206 252 300
#     4  10  20  32  44  62  90 124 166 212 258 302
#     4   9  19  32  45  65  96 131 164 207 258 300
#
# _framework density 17.825496000000001
#
# number of rings (size 3 to 8) (size 9 to 14) (size 15 to 20)
#    0.000    2.769    0.000    2.308    1.077    2.769 
#    0.000    0.769    0.000    1.385    0.000    0.000 
#    0.000    0.000    0.000    0.000    0.000    0.000 
#
# Total GULP energy -644472.624959 kJ/mol
# GULP energy per Si atom -12393.704326 kJ/mol
# Density = 1.778492 g / cm^3
# Si number density = 17.825496 Si / 1000 Ang^3
#
#
#
# Elastic Constant Matrix: (Units=GPa)
#
#
# Indices 1 2 3 4 5 6 
#
# 1 90.4167 62.1450 29.6656 0.0000 0.0000 0.0000
# 2 62.1450 104.7157 33.8993 0.0000 0.0000 0.0000
# 3 29.6656 33.8993 39.0968 0.0000 0.0000 0.0000
# 4 0.0000 0.0000 0.0000 26.4188 0.0000 0.0000
# 5 0.0000 0.0000 0.0000 0.0000 21.8183 0.0000
# 6 0.0000 0.0000 0.0000 0.0000 0.0000 -36.2245
#
#
#
# Elastic Compliance Matrix: (Units=1/GPa)
#
#
# Indices 1 2 3 4 5 6 
#
# 1 0.019883 -0.009615 -0.006750 0.000000 0.000000 0.000000
# 2 -0.009615 0.017925 -0.008247 0.000000 0.000000 0.000000
# 3 -0.006750 -0.008247 0.037850 0.000000 0.000000 0.000000
# 4 0.000000 0.000000 0.000000 0.037852 0.000000 0.000000
# 5 0.000000 0.000000 0.000000 0.000000 0.045833 0.000000
# 6 0.000000 0.000000 0.000000 0.000000 0.000000 -0.027606
#
#
# Mechanical properties :
#
#
# Convention : Reuss Voigt Hill
#
# Bulk Modulus (GPa) = 37.82913 53.96102 45.89508
# Shear Modulus (GPa) = 26.34730 9.63717 17.99223
#
# Velocity S-wave (km/s) = 3.84874 2.32769 3.18048
# Velocity P-wave (km/s) = 6.40456 6.12876 6.26818
#
# Compressibility (1/GPa) = 0.02643466
#
# Stress axis : x y z
#
# Youngs Moduli (GPa) = 50.29446 55.78685 26.42000
#
# Poissons Ratio (x) = 0.53637 0.17834
# Poissons Ratio (y) = 0.48356 0.21789
# Poissons Ratio (z) = 0.33950 0.46008
#
# Static dielectric constant tensor:
#      x y z
#    x 3.443840 0.000000 0.000000 
#    y 0.000000 3.257820 0.000000 
#    z 0.000000 0.000000 3.075610 
# 
# 
# High freq. dielectric constant tensor:
#      x y z
#    x 1.684430 0.000000 0.000000 
#    y 0.000000 1.685020 0.000000 
#    z 0.000000 0.000000 1.673300 
# 
# From -- ./inp_files/9130.got.cif
#   From: 2010.03.12/outbox.cif.g09.slc.cpg/sg63_5_cif.got.tgz:9130.got - 2010.04.10 19:34:48.
