data_PCOD8257962
_publ_section_title
;
Structure prediction by ZEFSAII (Michael W. Deem and Ramdas Pophale) SiO2 
 PCOD8257962
Probable space group: C M C M
;
_chemical_formula_sum "Si O2"
_cell_formula_units_Z 56
_cell_length_a 12.460322
_cell_length_b 26.361274
_cell_length_c 9.079839
_cell_angle_alpha 90.000000
_cell_angle_beta 90.000000
_cell_angle_gamma 90.000000
_cell_volume 2982.454375
_symmetry_space_group_name_H-M "C M C M"
_symmetry_group_IT_number 63
_symmetry_cell_setting 'orthorhombic'
loop_
_space_group_symop_operation_xyz
x,y,z
-x,-y,1/2+z
x,-y,-z
-x,y,1/2-z
-x,-y,-z
x,y,1/2-z
-x,y,z
x,-y,1/2+z
1/2+x,1/2+y,z
1/2-x,1/2-y,1/2+z
1/2+x,1/2-y,-z
1/2-x,1/2+y,1/2-z
1/2-x,1/2-y,-z
1/2+x,1/2+y,1/2-z
1/2-x,1/2+y,z
1/2+x,1/2-y,1/2+z
loop_
_atom_site_type_symbol
_atom_site_label
_atom_site_fract_x
_atom_site_fract_y
_atom_site_fract_z
Si Si1 0.881509 0.167249 0.920538
Si Si2 0.123564 0.735744 0.587328
Si Si3 0.167653 0.623288 0.921839
Si Si4 0.500000 0.054245 0.074522
O O1 0.892687 0.178536 0.750000
O O2 0.797326 0.121097 0.948095
O O3 0.000000 0.153190 0.985048
O O4 0.826693 0.219110 0.986158
O O5 0.176147 0.737514 0.750000
O O6 0.130397 0.678831 0.524788
O O7 0.000000 0.751416 0.594958
O O8 0.138287 0.613961 0.750000
O O9 0.107986 0.582508 0.022307
O O10 0.500000 0.049340 0.250000
O O11 0.500000 0.000000 0.000000
#
# Coordination Sequence:
#
# PCOD8257962 Si02
#       4
#    16  16  16   8
#     4   9  18  30  48  78 114 150 185 218 255 310
#     4   9  16  27  45  71 108 150 186 221 263 310
#     4  10  19  35  55  75 109 147 179 222 274 320
#     4  12  26  42  62  84 104 130 176 232 283 336
#
# _framework density 18.776482000000001
#
# number of rings (size 3 to 8) (size 9 to 14) (size 15 to 20)
#    0.000    2.286    1.429    2.143    0.000    2.286 
#    0.000    0.000    0.000    0.857    0.000    0.000 
#    0.000    0.000    0.000    0.000    0.000    0.000 
#
# Total GULP energy -346944.528012 kJ/mol
# GULP energy per Si atom -12390.876000 kJ/mol
# Density = 1.873375 g / cm^3
# Si number density = 18.776482 Si / 1000 Ang^3
#
#
#
# Elastic Constant Matrix: (Units=GPa)
#
#
# Indices 1 2 3 4 5 6 
#
# 1 106.9773 59.1528 40.8948 0.0000 0.0000 0.0000
# 2 59.1528 107.1013 57.6025 0.0000 0.0000 0.0000
# 3 40.8948 57.6025 83.8928 0.0000 0.0000 0.0000
# 4 0.0000 0.0000 0.0000 29.5355 0.0000 0.0000
# 5 0.0000 0.0000 0.0000 0.0000 22.7534 0.0000
# 6 0.0000 0.0000 0.0000 0.0000 0.0000 22.7179
#
#
#
# Elastic Compliance Matrix: (Units=1/GPa)
#
#
# Indices 1 2 3 4 5 6 
#
# 1 0.013746 -0.006323 -0.002359 0.000000 0.000000 0.000000
# 2 -0.006323 0.017713 -0.009079 0.000000 0.000000 0.000000
# 3 -0.002359 -0.009079 0.019304 0.000000 0.000000 0.000000
# 4 0.000000 0.000000 0.000000 0.033858 0.000000 0.000000
# 5 0.000000 0.000000 0.000000 0.000000 0.043949 0.000000
# 6 0.000000 0.000000 0.000000 0.000000 0.000000 0.044018
#
#
# Mechanical properties :
#
#
# Convention : Reuss Voigt Hill
#
# Bulk Modulus (GPa) = 65.62036 68.14129 66.88083
# Shear Modulus (GPa) = 23.45316 24.35611 23.90463
#
# Velocity S-wave (km/s) = 3.53805 3.60552 3.57195
# Velocity P-wave (km/s) = 7.19128 7.32820 7.26006
#
# Compressibility (1/GPa) = 0.01523917
#
# Stress axis : x y z
#
# Youngs Moduli (GPa) = 72.74850 56.45713 51.80258
#
# Poissons Ratio (x) = 0.35699 0.12220
# Poissons Ratio (y) = 0.46001 0.47034
# Poissons Ratio (z) = 0.17161 0.51260
#
# Static dielectric constant tensor:
#      x y z
#    x 4.146180 0.000000 0.000000 
#    y 0.000000 3.078520 0.000000 
#    z 0.000000 0.000000 3.460040 
# 
# 
# High freq. dielectric constant tensor:
#      x y z
#    x 1.761130 0.000000 0.000000 
#    y 0.000000 1.679660 0.000000 
#    z 0.000000 0.000000 1.715800 
# 
# From -- ./inp_files/3998.got.cif
#   From: 2010.03.12/outbox.cif.g09.slc.cpg/sg63_2_cif.got.tgz:3998.got - 2010.04.10 19:34:48.
