data_PCOD8257238
_publ_section_title
;
Structure prediction by ZEFSAII (Michael W. Deem and Ramdas Pophale) SiO2 
 PCOD8257238
Probable space group: C M C M
;
_chemical_formula_sum "Si O2"
_cell_formula_units_Z 96
_cell_length_a 8.911682
_cell_length_b 27.902975
_cell_length_c 20.119469
_cell_angle_alpha 90.000000
_cell_angle_beta 90.000000
_cell_angle_gamma 90.000000
_cell_volume 5002.956254
_symmetry_space_group_name_H-M "C M C M"
_symmetry_group_IT_number 63
_symmetry_cell_setting 'orthorhombic'
loop_
_space_group_symop_operation_xyz
x,y,z
-x,-y,1/2+z
x,-y,-z
-x,y,1/2-z
-x,-y,-z
x,y,1/2-z
-x,y,z
x,-y,1/2+z
1/2+x,1/2+y,z
1/2-x,1/2-y,1/2+z
1/2+x,1/2-y,-z
1/2-x,1/2+y,1/2-z
1/2-x,1/2-y,-z
1/2+x,1/2+y,1/2-z
1/2-x,1/2+y,z
1/2+x,1/2-y,1/2+z
loop_
_atom_site_type_symbol
_atom_site_label
_atom_site_fract_x
_atom_site_fract_y
_atom_site_fract_z
Si Si1 0.666387 0.065345 0.886430
Si Si2 0.833342 0.339303 0.327164
Si Si3 0.168098 0.977896 0.573358
Si Si4 0.823834 0.744033 0.327067
Si Si5 0.832655 0.609784 0.029877
Si Si6 0.821086 0.208345 0.454627
O O1 0.500000 0.054514 0.858866
O O2 0.739124 0.109536 0.845753
O O3 0.762816 0.017326 0.876603
O O4 0.657796 0.080762 0.962292
O O5 0.856404 0.335686 0.250000
O O6 0.720855 0.297682 0.349938
O O7 0.000000 0.333561 0.361245
O O8 0.256977 0.927700 0.581040
O O9 0.000000 0.967125 0.596209
O O10 0.172862 0.000000 0.500000
O O11 0.778925 0.733333 0.250000
O O12 0.734071 0.709925 0.377636
O O13 0.000000 0.737295 0.337467
O O14 0.732621 0.656959 0.018364
O O15 0.000000 0.623731 0.054858
O O16 0.750000 0.250000 0.500000
O O17 0.000000 0.212272 0.458020
#
# Coordination Sequence:
#
# PCOD8257238 Si02
#       6
#    16  16  16  16  16  16
#     4   9  17  29  47  71  99 131 164 202 251 305
#     4   9  17  30  49  73 101 133 169 208 252 304
#     4   9  17  29  46  69  96 127 162 200 247 306
#     4  10  21  37  56  78 106 141 180 219 263 318
#     4  10  19  32  50  73 102 133 167 209 258 309
#     4  12  24  37  55  80 110 141 177 222 270 316
#
# _framework density 19.188655000000001
#
# number of rings (size 3 to 8) (size 9 to 14) (size 15 to 20)
#    0.000    2.167    0.000    4.000    0.000    5.667 
#    0.000    0.000    0.000    1.000    0.000    2.333 
#    0.000    0.000    0.000    0.000    0.000    0.000 
#
# Total GULP energy -594949.166173 kJ/mol
# GULP energy per Si atom -12394.774295 kJ/mol
# Density = 1.914498 g / cm^3
# Si number density = 19.188655 Si / 1000 Ang^3
#
#
#
# Elastic Constant Matrix: (Units=GPa)
#
#
# Indices 1 2 3 4 5 6 
#
# 1 127.6346 41.3379 23.3957 0.0000 0.0000 0.0000
# 2 41.3379 91.4531 6.1003 0.0000 0.0000 0.0000
# 3 23.3957 6.1003 26.1446 0.0000 0.0000 0.0000
# 4 0.0000 0.0000 0.0000 27.7416 0.0000 0.0000
# 5 0.0000 0.0000 0.0000 0.0000 21.0943 0.0000
# 6 0.0000 0.0000 0.0000 0.0000 0.0000 26.7547
#
#
#
# Elastic Compliance Matrix: (Units=1/GPa)
#
#
# Indices 1 2 3 4 5 6 
#
# 1 0.010822 -0.004313 -0.008678 0.000000 0.000000 0.000000
# 2 -0.004313 0.012826 0.000867 0.000000 0.000000 0.000000
# 3 -0.008678 0.000867 0.045812 0.000000 0.000000 0.000000
# 4 0.000000 0.000000 0.000000 0.036047 0.000000 0.000000
# 5 0.000000 0.000000 0.000000 0.000000 0.047406 0.000000
# 6 0.000000 0.000000 0.000000 0.000000 0.000000 0.037377
#
#
# Mechanical properties :
#
#
# Convention : Reuss Voigt Hill
#
# Bulk Modulus (GPa) = 22.11789 42.98888 32.55338
# Shear Modulus (GPa) = 21.77599 26.74466 24.26032
#
# Velocity S-wave (km/s) = 3.37239 3.73738 3.55957
# Velocity P-wave (km/s) = 5.16871 6.40905 5.82201
#
# Compressibility (1/GPa) = 0.04521227
#
# Stress axis : x y z
#
# Youngs Moduli (GPa) = 92.40009 77.96485 21.82815
#
# Poissons Ratio (x) = 0.33626 0.18943
# Poissons Ratio (y) = 0.39852 -0.01892
# Poissons Ratio (z) = 0.80187 -0.06758
#
# Static dielectric constant tensor:
#      x y z
#    x 3.781430 0.000000 0.000000 
#    y 0.000000 3.798130 0.000000 
#    z 0.000000 0.000000 3.289700 
# 
# 
# High freq. dielectric constant tensor:
#      x y z
#    x 1.752300 0.000000 0.000000 
#    y 0.000000 1.746750 0.000000 
#    z 0.000000 0.000000 1.706130 
# 
# From -- ./inp_files/51301.got.cif
#   From: 2010.03.12/outbox.cif.g09.slc.cpg/sg63_26_cif.got.tgz:51301.got - 2010.04.10 19:34:48.
