data_PCOD8257973
_publ_section_title
;
Structure prediction by ZEFSAII (Michael W. Deem and Ramdas Pophale) SiO2 
 PCOD8257973
Probable space group: C M C M
;
_chemical_formula_sum "Si O2"
_cell_formula_units_Z 80
_cell_length_a 9.319594
_cell_length_b 25.073907
_cell_length_c 19.579801
_cell_angle_alpha 90.000000
_cell_angle_beta 90.000000
_cell_angle_gamma 90.000000
_cell_volume 4575.381137
_symmetry_space_group_name_H-M "C M C M"
_symmetry_group_IT_number 63
_symmetry_cell_setting 'orthorhombic'
loop_
_space_group_symop_operation_xyz
x,y,z
-x,-y,1/2+z
x,-y,-z
-x,y,1/2-z
-x,-y,-z
x,y,1/2-z
-x,y,z
x,-y,1/2+z
1/2+x,1/2+y,z
1/2-x,1/2-y,1/2+z
1/2+x,1/2-y,-z
1/2-x,1/2+y,1/2-z
1/2-x,1/2-y,-z
1/2+x,1/2+y,1/2-z
1/2-x,1/2+y,z
1/2+x,1/2-y,1/2+z
loop_
_atom_site_type_symbol
_atom_site_label
_atom_site_fract_x
_atom_site_fract_y
_atom_site_fract_z
Si Si1 0.833538 0.016819 0.575160
Si Si2 0.163385 0.150857 0.396902
Si Si3 0.665872 0.765196 0.432486
Si Si4 0.164579 0.862722 0.445279
Si Si5 0.165356 0.561501 0.329430
O O1 0.806818 0.079516 0.586805
O O2 0.000000 0.001650 0.584341
O O3 0.781473 0.000000 0.500000
O O4 0.742408 0.986030 0.630971
O O5 0.181371 0.214387 0.381863
O O6 0.205160 0.136353 0.474696
O O7 0.266424 0.118827 0.346586
O O8 0.000000 0.133037 0.383080
O O9 0.500000 0.775943 0.449495
O O10 0.750000 0.750000 0.500000
O O11 0.737703 0.819670 0.404085
O O12 0.000000 0.845177 0.436800
O O13 0.184931 0.549878 0.250000
O O14 0.000000 0.562981 0.351073
#
# Coordination Sequence:
#
# PCOD8257973 Si02
#       5
#    16  16  16  16  16
#     4  10  19  35  56  77 104 137 176 220 262 314
#     4   9  17  32  51  72 101 136 171 209 253 308
#     4   9  17  28  45  72 104 133 163 202 250 303
#     4   9  17  30  50  77 105 131 165 212 259 305
#     4  11  24  37  50  75 108 139 175 220 267 314
#
# _framework density 17.484881999999999
#
# number of rings (size 3 to 8) (size 9 to 14) (size 15 to 20)
#    0.000    2.400    2.000    2.400    0.000    6.800 
#    0.000    0.000    0.000    1.200    0.000    0.000 
#    0.000    0.000    0.000    0.000    0.000    0.000 
#
# Total GULP energy -495882.457678 kJ/mol
# GULP energy per Si atom -12397.061442 kJ/mol
# Density = 1.744509 g / cm^3
# Si number density = 17.484882 Si / 1000 Ang^3
#
#
#
# Elastic Constant Matrix: (Units=GPa)
#
#
# Indices 1 2 3 4 5 6 
#
# 1 113.9865 73.7377 46.4624 0.0000 0.0000 0.0000
# 2 73.7377 129.8698 39.9606 0.0000 0.0000 0.0000
# 3 46.4624 39.9606 53.5163 0.0000 0.0000 0.0000
# 4 0.0000 0.0000 0.0000 16.5686 0.0000 0.0000
# 5 0.0000 0.0000 0.0000 0.0000 23.0033 0.0000
# 6 0.0000 0.0000 0.0000 0.0000 0.0000 37.5752
#
#
#
# Elastic Compliance Matrix: (Units=1/GPa)
#
#
# Indices 1 2 3 4 5 6 
#
# 1 0.017121 -0.006683 -0.009874 0.000000 0.000000 0.000000
# 2 -0.006683 0.012605 -0.003611 0.000000 0.000000 0.000000
# 3 -0.009874 -0.003611 0.029955 0.000000 0.000000 0.000000
# 4 0.000000 0.000000 0.000000 0.060355 0.000000 0.000000
# 5 0.000000 0.000000 0.000000 0.000000 0.043472 0.000000
# 6 0.000000 0.000000 0.000000 0.000000 0.000000 0.026613
#
#
# Mechanical properties :
#
#
# Convention : Reuss Voigt Hill
#
# Bulk Modulus (GPa) = 51.69061 68.63267 60.16164
# Shear Modulus (GPa) = 21.10556 24.57689 22.84122
#
# Velocity S-wave (km/s) = 3.47807 3.75321 3.61826
# Velocity P-wave (km/s) = 6.76435 7.62364 7.20682
#
# Compressibility (1/GPa) = 0.01934587
#
# Stress axis : x y z
#
# Youngs Moduli (GPa) = 58.40854 79.33218 33.38386
#
# Poissons Ratio (x) = 0.53014 0.32964
# Poissons Ratio (y) = 0.39032 0.12053
# Poissons Ratio (z) = 0.57674 0.28643
#
# Static dielectric constant tensor:
#      x y z
#    x 3.423870 0.000000 0.000000 
#    y 0.000000 3.827470 0.000000 
#    z 0.000000 0.000000 2.787480 
# 
# 
# High freq. dielectric constant tensor:
#      x y z
#    x 1.681390 0.000000 0.000000 
#    y 0.000000 1.696780 0.000000 
#    z 0.000000 0.000000 1.617150 
# 
# From -- ./inp_files/40490.got.cif
#   From: 2010.03.12/outbox.cif.g09.slc.cpg/sg63_21_cif.got.tgz:40490.got - 2010.04.10 19:34:48.
