data_PCOD8257713
_publ_section_title
;
Structure prediction by ZEFSAII (Michael W. Deem and Ramdas Pophale) SiO2 
 PCOD8257713
Probable space group: C M C M
;
_chemical_formula_sum "Si O2"
_cell_formula_units_Z 80
_cell_length_a 18.158896
_cell_length_b 24.393182
_cell_length_c 9.995480
_cell_angle_alpha 90.000000
_cell_angle_beta 90.000000
_cell_angle_gamma 90.000000
_cell_volume 4427.530402
_symmetry_space_group_name_H-M "C M C M"
_symmetry_group_IT_number 63
_symmetry_cell_setting 'orthorhombic'
loop_
_space_group_symop_operation_xyz
x,y,z
-x,-y,1/2+z
x,-y,-z
-x,y,1/2-z
-x,-y,-z
x,y,1/2-z
-x,y,z
x,-y,1/2+z
1/2+x,1/2+y,z
1/2-x,1/2-y,1/2+z
1/2+x,1/2-y,-z
1/2-x,1/2+y,1/2-z
1/2-x,1/2-y,-z
1/2+x,1/2+y,1/2-z
1/2-x,1/2+y,z
1/2+x,1/2-y,1/2+z
loop_
_atom_site_type_symbol
_atom_site_label
_atom_site_fract_x
_atom_site_fract_y
_atom_site_fract_z
Si Si1 0.586341 0.546406 0.250000
Si Si2 0.913288 0.075937 0.750000
Si Si3 0.419839 0.836729 0.408046
Si Si4 0.180361 0.238476 0.091963
Si Si5 0.912509 0.869236 0.975816
Si Si6 0.411855 0.044318 0.898668
O O1 0.500000 0.537894 0.250000
O O2 0.622726 0.485359 0.250000
O O3 0.609696 0.580420 0.380443
O O4 0.888839 0.111294 0.622608
O O5 0.000000 0.068336 0.750000
O O6 0.428806 0.835089 0.250000
O O7 0.500000 0.830110 0.475665
O O8 0.370988 0.787402 0.458650
O O9 0.384650 0.895672 0.447270
O O10 0.200247 0.241710 0.250000
O O11 0.137313 0.182454 0.062640
O O12 0.250000 0.250000 0.000000
O O13 0.000000 0.854812 0.963130
O O14 0.382455 0.030700 0.750000
O O15 0.500000 0.043839 0.898783
O O16 0.378258 0.000000 0.000000
#
# Coordination Sequence:
#
# PCOD8257713 Si02
#       6
#     8   8  16  16  16  16
#     4   9  16  30  53  84 112 138 177 220 266 321
#     4   9  18  30  51  84 118 142 167 218 278 323
#     4   8  15  30  53  77  98 127 169 211 249 302
#     4  11  23  37  54  75 102 142 183 224 266 315
#     4  10  19  33  56  83 111 143 180 223 269 321
#     4   8  13  23  43  71  98 121 150 193 246 296
#
# _framework density 18.068763000000001
#
# number of rings (size 3 to 8) (size 9 to 14) (size 15 to 20)
#    0.000    2.800    1.000    2.400    1.400    3.200 
#    0.000    1.000    0.000    3.600    0.000    0.000 
#    0.000    0.000    0.000    0.000    0.000    0.000 
#
# Total GULP energy -495631.731300 kJ/mol
# GULP energy per Si atom -12390.793283 kJ/mol
# Density = 1.802764 g / cm^3
# Si number density = 18.068763 Si / 1000 Ang^3
#
#
#
# Elastic Constant Matrix: (Units=GPa)
#
#
# Indices 1 2 3 4 5 6 
#
# 1 55.3763 46.0752 31.7335 0.0000 0.0000 0.0000
# 2 46.0752 149.4116 58.2942 0.0000 0.0000 0.0000
# 3 31.7335 58.2942 113.2555 0.0000 0.0000 0.0000
# 4 0.0000 0.0000 0.0000 41.6595 0.0000 0.0000
# 5 0.0000 0.0000 0.0000 0.0000 18.1164 0.0000
# 6 0.0000 0.0000 0.0000 0.0000 0.0000 1.7961
#
#
#
# Elastic Compliance Matrix: (Units=1/GPa)
#
#
# Indices 1 2 3 4 5 6 
#
# 1 0.025591 -0.006374 -0.003890 0.000000 0.000000 0.000000
# 2 -0.006374 0.009962 -0.003342 0.000000 0.000000 0.000000
# 3 -0.003890 -0.003342 0.011639 0.000000 0.000000 0.000000
# 4 0.000000 0.000000 0.000000 0.024004 0.000000 0.000000
# 5 0.000000 0.000000 0.000000 0.000000 0.055199 0.000000
# 6 0.000000 0.000000 0.000000 0.000000 0.000000 0.556769
#
#
# Mechanical properties :
#
#
# Convention : Reuss Voigt Hill
#
# Bulk Modulus (GPa) = 50.04569 65.58323 57.81446
# Shear Modulus (GPa) = 6.97316 24.44376 15.70846
#
# Velocity S-wave (km/s) = 1.96662 3.68206 2.95171
# Velocity P-wave (km/s) = 5.73710 7.37916 6.60932
#
# Compressibility (1/GPa) = 0.01998174
#
# Stress axis : x y z
#
# Youngs Moduli (GPa) = 39.07681 100.37780 85.91443
#
# Poissons Ratio (x) = 0.63981 0.33417
# Poissons Ratio (y) = 0.24908 0.28711
# Poissons Ratio (z) = 0.15199 0.33544
#
# Static dielectric constant tensor:
#      x y z
#    x 3.265150 0.000000 0.000000 
#    y 0.000000 3.801850 0.000000 
#    z 0.000000 0.000000 3.438230 
# 
# 
# High freq. dielectric constant tensor:
#      x y z
#    x 1.649830 0.000000 0.000000 
#    y 0.000000 1.720600 0.000000 
#    z 0.000000 0.000000 1.690760 
# 
# From -- ./inp_files/8104.got.cif
#   From: 2010.03.12/outbox.cif.g09.slc.cpg/sg63_5_cif.got.tgz:8104.got - 2010.04.10 19:34:48.
