data_PCOD8257616
_publ_section_title
;
Structure prediction by ZEFSAII (Michael W. Deem and Ramdas Pophale) SiO2 
 PCOD8257616
Probable space group: C M C M
;
_chemical_formula_sum "Si O2"
_cell_formula_units_Z 88
_cell_length_a 19.097959
_cell_length_b 27.641939
_cell_length_c 8.857125
_cell_angle_alpha 90.000000
_cell_angle_beta 90.000000
_cell_angle_gamma 90.000000
_cell_volume 4675.717187
_symmetry_space_group_name_H-M "C M C M"
_symmetry_group_IT_number 63
_symmetry_cell_setting 'orthorhombic'
loop_
_space_group_symop_operation_xyz
x,y,z
-x,-y,1/2+z
x,-y,-z
-x,y,1/2-z
-x,-y,-z
x,y,1/2-z
-x,y,z
x,-y,1/2+z
1/2+x,1/2+y,z
1/2-x,1/2-y,1/2+z
1/2+x,1/2-y,-z
1/2-x,1/2+y,1/2-z
1/2-x,1/2-y,-z
1/2+x,1/2+y,1/2-z
1/2-x,1/2+y,z
1/2+x,1/2-y,1/2+z
loop_
_atom_site_type_symbol
_atom_site_label
_atom_site_fract_x
_atom_site_fract_y
_atom_site_fract_z
Si Si1 0.672056 0.150537 0.070109
Si Si2 0.316504 0.692216 0.074207
Si Si3 0.919652 0.725345 0.929149
Si Si4 0.000000 0.949769 0.425423
Si Si5 0.359176 0.598488 0.576949
Si Si6 0.715470 0.051067 0.575149
O O1 0.671238 0.146325 0.250000
O O2 0.736330 0.185970 0.013694
O O3 0.601115 0.174570 0.007229
O O4 0.676934 0.096429 0.003500
O O5 0.314425 0.701365 0.250000
O O6 0.365096 0.734602 0.003748
O O7 0.352508 0.642016 0.037984
O O8 0.912881 0.720044 0.750000
O O9 0.000000 0.738267 0.973529
O O10 0.068424 0.922544 0.479269
O O11 0.000000 0.957805 0.250000
O O12 0.000000 0.000000 0.500000
O O13 0.360415 0.617114 0.750000
O O14 0.298677 0.558531 0.556257
O O15 0.693158 0.049621 0.750000
O O16 0.693806 0.000000 0.500000
#
# Coordination Sequence:
#
# PCOD8257616 Si02
#       6
#    16  16  16   8  16  16
#     4  10  20  35  55  80 108 139 178 220 262 313
#     4   9  19  34  53  77 104 138 179 219 260 310
#     4  10  21  36  54  78 109 142 177 218 265 317
#     4  10  20  32  44  64  96 136 178 220 265 310
#     4   9  19  32  47  70 102 136 174 220 264 309
#     4  10  19  33  54  78 104 135 173 218 266 314
#
# _framework density 18.820641999999999
#
# number of rings (size 3 to 8) (size 9 to 14) (size 15 to 20)
#    0.000    2.364    0.000    2.182    1.273    3.273 
#    0.000    0.000    0.000    0.545    0.000    0.000 
#    0.000    0.000    0.000    0.000    0.000    0.000 
#
# Total GULP energy -545302.995755 kJ/mol
# GULP energy per Si atom -12393.249904 kJ/mol
# Density = 1.877781 g / cm^3
# Si number density = 18.820642 Si / 1000 Ang^3
#
#
#
# Elastic Constant Matrix: (Units=GPa)
#
#
# Indices 1 2 3 4 5 6 
#
# 1 67.7621 52.8087 28.0891 0.0000 0.0000 0.0000
# 2 52.8087 101.0481 31.1056 0.0000 0.0000 0.0000
# 3 28.0891 31.1056 38.5045 0.0000 0.0000 0.0000
# 4 0.0000 0.0000 0.0000 34.8258 0.0000 0.0000
# 5 0.0000 0.0000 0.0000 0.0000 21.6563 0.0000
# 6 0.0000 0.0000 0.0000 0.0000 0.0000 74.2920
#
#
#
# Elastic Compliance Matrix: (Units=1/GPa)
#
#
# Indices 1 2 3 4 5 6 
#
# 1 0.028310 -0.011230 -0.011580 0.000000 0.000000 0.000000
# 2 -0.011230 0.017627 -0.006047 0.000000 0.000000 0.000000
# 3 -0.011580 -0.006047 0.039304 0.000000 0.000000 0.000000
# 4 0.000000 0.000000 0.000000 0.028714 0.000000 0.000000
# 5 0.000000 0.000000 0.000000 0.000000 0.046176 0.000000
# 6 0.000000 0.000000 0.000000 0.000000 0.000000 0.013460
#
#
# Mechanical properties :
#
#
# Convention : Reuss Voigt Hill
#
# Bulk Modulus (GPa) = 36.32955 47.92460 42.12708
# Shear Modulus (GPa) = 20.79174 32.50889 26.65031
#
# Velocity S-wave (km/s) = 3.32735 4.16059 3.76708
# Velocity P-wave (km/s) = 5.84009 6.97136 6.43065
#
# Compressibility (1/GPa) = 0.02752580
#
# Stress axis : x y z
#
# Youngs Moduli (GPa) = 35.32374 56.73158 25.44301
#
# Poissons Ratio (x) = 0.63711 0.29462
# Poissons Ratio (y) = 0.39670 0.15386
# Poissons Ratio (z) = 0.40903 0.34307
#
# Static dielectric constant tensor:
#      x y z
#    x 3.735810 0.000000 0.000000 
#    y 0.000000 3.403770 0.000000 
#    z 0.000000 0.000000 3.299520 
# 
# 
# High freq. dielectric constant tensor:
#      x y z
#    x 1.717270 0.000000 0.000000 
#    y 0.000000 1.731130 0.000000 
#    z 0.000000 0.000000 1.726250 
# 
# From -- ./inp_files/6780.got.cif
#   From: 2010.03.12/outbox.cif.g09.slc.cpg/sg63_4_cif.got.tgz:6780.got - 2010.04.10 19:34:48.
