data_PCOD8257758
_publ_section_title
;
Structure prediction by ZEFSAII (Michael W. Deem and Ramdas Pophale) SiO2 
 PCOD8257758
Probable space group: C M C M
;
_chemical_formula_sum "Si O2"
_cell_formula_units_Z 72
_cell_length_a 7.751047
_cell_length_b 21.704926
_cell_length_c 21.907293
_cell_angle_alpha 90.000000
_cell_angle_beta 90.000000
_cell_angle_gamma 90.000000
_cell_volume 3685.593189
_symmetry_space_group_name_H-M "C M C M"
_symmetry_group_IT_number 63
_symmetry_cell_setting 'orthorhombic'
loop_
_space_group_symop_operation_xyz
x,y,z
-x,-y,1/2+z
x,-y,-z
-x,y,1/2-z
-x,-y,-z
x,y,1/2-z
-x,y,z
x,-y,1/2+z
1/2+x,1/2+y,z
1/2-x,1/2-y,1/2+z
1/2+x,1/2-y,-z
1/2-x,1/2+y,1/2-z
1/2-x,1/2-y,-z
1/2+x,1/2+y,1/2-z
1/2-x,1/2+y,z
1/2+x,1/2-y,1/2+z
loop_
_atom_site_type_symbol
_atom_site_label
_atom_site_fract_x
_atom_site_fract_y
_atom_site_fract_z
Si Si1 0.500000 0.578781 0.823314
Si Si2 0.000000 0.044780 0.400817
Si Si3 0.800880 0.283494 0.614530
Si Si4 0.500000 0.337202 0.818230
Si Si5 0.809236 0.598244 0.033870
Si Si6 0.309899 0.648388 0.915405
O O1 0.500000 0.573262 0.750000
O O2 0.500000 0.513156 0.856480
O O3 0.329882 0.615779 0.848170
O O4 0.000000 0.103262 0.358796
O O5 0.828569 0.047400 0.443245
O O6 0.674697 0.298480 0.670642
O O7 0.774327 0.334270 0.562156
O O8 0.736617 0.217329 0.590043
O O9 0.000000 0.280547 0.637240
O O10 0.500000 0.360607 0.750000
O O11 0.000000 0.574138 0.051931
O O12 0.804568 0.606957 0.960616
O O13 0.500000 0.651703 0.946325
#
# Coordination Sequence:
#
# PCOD8257758 Si02
#       6
#     8   8  16   8  16  16
#     4  10  22  39  62  77 107 162 199 227 271 320
#     4  10  20  40  57  81 111 145 195 237 279 331
#     4   9  19  34  52  84 117 147 177 224 287 344
#     4  10  21  33  55  82 107 148 196 237 276 322
#     4  10  19  33  60  88 116 141 175 233 293 338
#     4   9  19  34  56  82 111 146 183 218 279 335
#
# _framework density 19.535526999999998
#
# number of rings (size 3 to 8) (size 9 to 14) (size 15 to 20)
#    0.667    1.778    1.111    1.000    1.556    3.111 
#    0.000    2.222    0.000    3.333    0.000    0.000 
#    0.000    0.000    0.000    0.000    0.000    0.000 
#
# Total GULP energy -446059.085533 kJ/mol
# GULP energy per Si atom -12390.530154 kJ/mol
# Density = 1.949106 g / cm^3
# Si number density = 19.535527 Si / 1000 Ang^3
#
#
#
# Elastic Constant Matrix: (Units=GPa)
#
#
# Indices 1 2 3 4 5 6 
#
# 1 92.8960 25.9649 34.2535 0.0000 0.0000 0.0000
# 2 25.9649 66.9906 22.5102 0.0000 0.0000 0.0000
# 3 34.2535 22.5102 101.0436 0.0000 0.0000 0.0000
# 4 0.0000 0.0000 0.0000 15.4795 0.0000 0.0000
# 5 0.0000 0.0000 0.0000 0.0000 21.6389 0.0000
# 6 0.0000 0.0000 0.0000 0.0000 0.0000 14.0325
#
#
#
# Elastic Compliance Matrix: (Units=1/GPa)
#
#
# Indices 1 2 3 4 5 6 
#
# 1 0.013182 -0.003900 -0.003600 0.000000 0.000000 0.000000
# 2 -0.003900 0.017289 -0.002530 0.000000 0.000000 0.000000
# 3 -0.003600 -0.002530 0.011681 0.000000 0.000000 0.000000
# 4 0.000000 0.000000 0.000000 0.064602 0.000000 0.000000
# 5 0.000000 0.000000 0.000000 0.000000 0.046213 0.000000
# 6 0.000000 0.000000 0.000000 0.000000 0.000000 0.071263
#
#
# Mechanical properties :
#
#
# Convention : Reuss Voigt Hill
#
# Bulk Modulus (GPa) = 45.26258 47.37638 46.31948
# Shear Modulus (GPa) = 19.86870 22.11029 20.98949
#
# Velocity S-wave (km/s) = 3.19259 3.36787 3.28140
# Velocity P-wave (km/s) = 6.06711 6.27913 6.17403
#
# Compressibility (1/GPa) = 0.02209331
#
# Stress axis : x y z
#
# Youngs Moduli (GPa) = 75.86052 57.84046 85.61178
#
# Poissons Ratio (x) = 0.22555 0.30820
# Poissons Ratio (y) = 0.29583 0.21657
# Poissons Ratio (z) = 0.27309 0.14631
#
# Static dielectric constant tensor:
#      x y z
#    x 3.790990 0.000000 0.000000 
#    y 0.000000 3.520190 0.000000 
#    z 0.000000 0.000000 3.277450 
# 
# 
# High freq. dielectric constant tensor:
#      x y z
#    x 1.752170 0.000000 0.000000 
#    y 0.000000 1.761770 0.000000 
#    z 0.000000 0.000000 1.734680 
# 
# From -- ./inp_files/50737.got.cif
#   From: 2010.03.12/outbox.cif.g09.slc.cpg/sg63_26_cif.got.tgz:50737.got - 2010.04.10 19:34:48.
