data_PCOD8257607
_publ_section_title
;
Structure prediction by ZEFSAII (Michael W. Deem and Ramdas Pophale) SiO2 
 PCOD8257607
Probable space group: C M C M
;
_chemical_formula_sum "Si O2"
_cell_formula_units_Z 64
_cell_length_a 8.409893
_cell_length_b 22.966668
_cell_length_c 16.430532
_cell_angle_alpha 90.000000
_cell_angle_beta 90.000000
_cell_angle_gamma 90.000000
_cell_volume 3173.511586
_symmetry_space_group_name_H-M "C M C M"
_symmetry_group_IT_number 63
_symmetry_cell_setting 'orthorhombic'
loop_
_space_group_symop_operation_xyz
x,y,z
-x,-y,1/2+z
x,-y,-z
-x,y,1/2-z
-x,-y,-z
x,y,1/2-z
-x,y,z
x,-y,1/2+z
1/2+x,1/2+y,z
1/2-x,1/2-y,1/2+z
1/2+x,1/2-y,-z
1/2-x,1/2+y,1/2-z
1/2-x,1/2-y,-z
1/2+x,1/2+y,1/2-z
1/2-x,1/2+y,z
1/2+x,1/2-y,1/2+z
loop_
_atom_site_type_symbol
_atom_site_label
_atom_site_fract_x
_atom_site_fract_y
_atom_site_fract_z
Si Si1 0.310868 0.393845 0.250000
Si Si2 0.689705 0.736217 0.750000
Si Si3 0.184373 0.582333 0.452866
Si Si4 0.684059 0.474497 0.109305
Si Si5 0.812347 0.286069 0.922347
O O1 0.500000 0.389568 0.250000
O O2 0.241096 0.328997 0.250000
O O3 0.245780 0.428545 0.327198
O O4 0.500000 0.739133 0.750000
O O5 0.754441 0.765056 0.665805
O O6 0.295284 0.557872 0.523839
O O7 0.218014 0.535318 0.381150
O O8 0.240816 0.646792 0.429367
O O9 0.000000 0.581694 0.478050
O O10 0.500000 0.488094 0.125608
O O11 0.000000 0.279317 0.922951
O O12 0.750000 0.250000 0.000000
#
# Coordination Sequence:
#
# PCOD8257607 Si02
#       5
#     8   8  16  16  16
#     4   9  18  31  51  77 101 127 172 221 258 301
#     4   9  18  35  55  77 105 141 180 217 260 323
#     4  10  20  34  51  77 107 135 170 214 261 312
#     4  10  19  33  54  77 100 135 175 214 259 311
#     4  10  21  36  57  80 107 143 181 218 264 316
#
# _framework density 20.166934999999999
#
# number of rings (size 3 to 8) (size 9 to 14) (size 15 to 20)
#    0.000    2.250    0.000    4.500    0.000    5.000 
#    0.000    4.375    0.000    6.000    0.000    0.000 
#    0.000    0.000    0.000    0.000    0.000    0.000 
#
# Total GULP energy -396575.922899 kJ/mol
# GULP energy per Si atom -12392.997591 kJ/mol
# Density = 2.012103 g / cm^3
# Si number density = 20.166935 Si / 1000 Ang^3
#
#
#
# Elastic Constant Matrix: (Units=GPa)
#
#
# Indices 1 2 3 4 5 6 
#
# 1 29.7833 23.2606 10.8481 0.0000 0.0000 0.0000
# 2 23.2606 223.8487 91.0428 0.0000 0.0000 0.0000
# 3 10.8481 91.0428 129.9871 0.0000 0.0000 0.0000
# 4 0.0000 0.0000 0.0000 39.6563 0.0000 0.0000
# 5 0.0000 0.0000 0.0000 0.0000 11.4455 0.0000
# 6 0.0000 0.0000 0.0000 0.0000 0.0000 28.1210
#
#
#
# Elastic Compliance Matrix: (Units=1/GPa)
#
#
# Indices 1 2 3 4 5 6 
#
# 1 0.036569 -0.003578 -0.000546 0.000000 0.000000 0.000000
# 2 -0.003578 0.006597 -0.004322 0.000000 0.000000 0.000000
# 3 -0.000546 -0.004322 0.010766 0.000000 0.000000 0.000000
# 4 0.000000 0.000000 0.000000 0.025217 0.000000 0.000000
# 5 0.000000 0.000000 0.000000 0.000000 0.087370 0.000000
# 6 0.000000 0.000000 0.000000 0.000000 0.000000 0.035561
#
#
# Mechanical properties :
#
#
# Convention : Reuss Voigt Hill
#
# Bulk Modulus (GPa) = 26.99772 70.43579 48.71675
# Shear Modulus (GPa) = 21.61533 33.07572 27.34553
#
# Velocity S-wave (km/s) = 3.27742 4.05420 3.68633
# Velocity P-wave (km/s) = 5.26670 7.54438 6.50599
#
# Compressibility (1/GPa) = 0.03704017
#
# Stress axis : x y z
#
# Youngs Moduli (GPa) = 27.34556 151.58746 92.88821
#
# Poissons Ratio (x) = 0.54237 0.05071
# Poissons Ratio (y) = 0.09784 0.40145
# Poissons Ratio (z) = 0.01493 0.65513
#
# Static dielectric constant tensor:
#      x y z
#    x 3.265780 0.000000 0.000000 
#    y 0.000000 4.119230 0.000000 
#    z 0.000000 0.000000 3.873090 
# 
# 
# High freq. dielectric constant tensor:
#      x y z
#    x 1.757220 0.000000 0.000000 
#    y 0.000000 1.807890 0.000000 
#    z 0.000000 0.000000 1.783370 
# 
# From -- ./inp_files/27566.got.cif
#   From: 2010.03.12/outbox.cif.g09.slc.cpg/sg63_14_cif.got.tgz:27566.got - 2010.04.10 19:34:48.
