data_PCOD8257547
_publ_section_title
;
Structure prediction by ZEFSAII (Michael W. Deem and Ramdas Pophale) SiO2 
 PCOD8257547
Probable space group: C M C M
;
_chemical_formula_sum "Si O2"
_cell_formula_units_Z 96
_cell_length_a 12.908596
_cell_length_b 14.546350
_cell_length_c 25.831633
_cell_angle_alpha 90.000000
_cell_angle_beta 90.000000
_cell_angle_gamma 90.000000
_cell_volume 4850.482072
_symmetry_space_group_name_H-M "C M C M"
_symmetry_group_IT_number 63
_symmetry_cell_setting 'orthorhombic'
loop_
_space_group_symop_operation_xyz
x,y,z
-x,-y,1/2+z
x,-y,-z
-x,y,1/2-z
-x,-y,-z
x,y,1/2-z
-x,y,z
x,-y,1/2+z
1/2+x,1/2+y,z
1/2-x,1/2-y,1/2+z
1/2+x,1/2-y,-z
1/2-x,1/2+y,1/2-z
1/2-x,1/2-y,-z
1/2+x,1/2+y,1/2-z
1/2-x,1/2+y,z
1/2+x,1/2-y,1/2+z
loop_
_atom_site_type_symbol
_atom_site_label
_atom_site_fract_x
_atom_site_fract_y
_atom_site_fract_z
Si Si1 0.116820 0.763504 0.518110
Si Si2 0.622180 0.306836 0.632016
Si Si3 0.882902 0.060841 0.953782
Si Si4 0.881028 0.587761 0.035499
Si Si5 0.252783 0.975544 0.629518
Si Si6 0.880647 0.379257 0.310326
O O1 0.161293 0.801659 0.572187
O O2 0.119087 0.834258 0.470904
O O3 0.175530 0.672204 0.496149
O O4 0.000000 0.734000 0.532304
O O5 0.500000 0.325393 0.638027
O O6 0.683522 0.394699 0.655706
O O7 0.655220 0.213384 0.660646
O O8 0.000000 0.025635 0.943696
O O9 0.819400 0.046948 0.901527
O O10 0.832839 0.000000 0.000000
O O11 0.835008 0.571785 0.091737
O O12 0.000000 0.614889 0.044809
O O13 0.869175 0.500000 0.000000
O O14 0.311954 0.033618 0.673081
O O15 0.864449 0.361992 0.250000
O O16 0.000000 0.401113 0.323934
#
# Coordination Sequence:
#
# PCOD8257547 Si02
#       6
#    16  16  16  16  16  16
#     4   9  18  33  52  76 119 162 188 218 268 338
#     4  10  21  38  61  89 119 155 196 238 285 349
#     4  10  19  33  52  84 127 162 185 215 273 345
#     4  10  21  34  48  77 119 157 194 235 277 332
#     4  12  22  33  61  89 114 148 199 246 285 346
#     4  10  24  46  65  81 109 150 197 255 315 358
#
# _framework density 19.791846
#
# number of rings (size 3 to 8) (size 9 to 14) (size 15 to 20)
#    0.000    1.833    1.667    2.500    2.333    4.000 
#    0.000    0.000    0.000    1.500    0.000    0.000 
#    0.000    0.000    0.000    0.000    0.000    0.000 
#
# Total GULP energy -595236.290593 kJ/mol
# GULP energy per Si atom -12400.756054 kJ/mol
# Density = 1.974680 g / cm^3
# Si number density = 19.791846 Si / 1000 Ang^3
#
#
#
# Elastic Constant Matrix: (Units=GPa)
#
#
# Indices 1 2 3 4 5 6 
#
# 1 64.8808 30.7988 27.6446 0.0000 0.0000 0.0000
# 2 30.7988 140.1658 34.5990 0.0000 0.0000 0.0000
# 3 27.6446 34.5990 58.3013 0.0000 0.0000 0.0000
# 4 0.0000 0.0000 0.0000 22.8975 0.0000 0.0000
# 5 0.0000 0.0000 0.0000 0.0000 19.6232 0.0000
# 6 0.0000 0.0000 0.0000 0.0000 0.0000 3.8608
#
#
#
# Elastic Compliance Matrix: (Units=1/GPa)
#
#
# Indices 1 2 3 4 5 6 
#
# 1 0.019984 -0.002404 -0.008049 0.000000 0.000000 0.000000
# 2 -0.002404 0.008648 -0.003992 0.000000 0.000000 0.000000
# 3 -0.008049 -0.003992 0.023338 0.000000 0.000000 0.000000
# 4 0.000000 0.000000 0.000000 0.043673 0.000000 0.000000
# 5 0.000000 0.000000 0.000000 0.000000 0.050960 0.000000
# 6 0.000000 0.000000 0.000000 0.000000 0.000000 0.259011
#
#
# Mechanical properties :
#
#
# Convention : Reuss Voigt Hill
#
# Bulk Modulus (GPa) = 43.32912 49.93698 46.63305
# Shear Modulus (GPa) = 11.30716 20.63000 15.96858
#
# Velocity S-wave (km/s) = 2.39279 3.23204 2.84355
# Velocity P-wave (km/s) = 5.43819 6.26211 5.86463
#
# Compressibility (1/GPa) = 0.02307917
#
# Stress axis : x y z
#
# Youngs Moduli (GPa) = 50.04096 115.63159 42.84862
#
# Poissons Ratio (x) = 0.27801 0.34488
# Poissons Ratio (y) = 0.12031 0.17106
# Poissons Ratio (z) = 0.40277 0.46163
#
# Static dielectric constant tensor:
#      x y z
#    x 3.878310 0.000000 0.000000 
#    y 0.000000 3.663050 0.000000 
#    z 0.000000 0.000000 3.225540 
# 
# 
# High freq. dielectric constant tensor:
#      x y z
#    x 1.786880 0.000000 0.000000 
#    y 0.000000 1.784420 0.000000 
#    z 0.000000 0.000000 1.727410 
# 
# From -- ./inp_files/54189.got.cif
#   From: 2010.03.12/outbox.cif.g09.slc.cpg/sg63_28_cif.got.tgz:54189.got - 2010.04.10 19:34:48.
