data_PCOD8257302
_publ_section_title
;
Structure prediction by ZEFSAII (Michael W. Deem and Ramdas Pophale) SiO2 
 PCOD8257302
Probable space group: C M C M
;
_chemical_formula_sum "Si O2"
_cell_formula_units_Z 128
_cell_length_a 17.894241
_cell_length_b 17.825439
_cell_length_c 22.815297
_cell_angle_alpha 90.000000
_cell_angle_beta 90.000000
_cell_angle_gamma 90.000000
_cell_volume 7277.456917
_symmetry_space_group_name_H-M "C M C M"
_symmetry_group_IT_number 63
_symmetry_cell_setting 'orthorhombic'
loop_
_space_group_symop_operation_xyz
x,y,z
-x,-y,1/2+z
x,-y,-z
-x,y,1/2-z
-x,-y,-z
x,y,1/2-z
-x,y,z
x,-y,1/2+z
1/2+x,1/2+y,z
1/2-x,1/2-y,1/2+z
1/2+x,1/2-y,-z
1/2-x,1/2+y,1/2-z
1/2-x,1/2-y,-z
1/2+x,1/2+y,1/2-z
1/2-x,1/2+y,z
1/2+x,1/2-y,1/2+z
loop_
_atom_site_type_symbol
_atom_site_label
_atom_site_fract_x
_atom_site_fract_y
_atom_site_fract_z
Si Si1 0.584068 0.173175 0.650960
Si Si2 0.794061 0.386568 0.867367
Si Si3 0.414315 0.771106 0.599526
Si Si4 0.795383 0.451083 0.318372
Si Si5 0.706568 0.733050 0.185140
Si Si6 0.266918 0.915844 0.996641
Si Si7 0.296578 0.345860 0.109137
Si Si8 0.581536 0.852951 0.018163
O O1 0.500000 0.161295 0.674272
O O2 0.617979 0.249454 0.679643
O O3 0.585779 0.185041 0.581421
O O4 0.633442 0.101915 0.670746
O O5 0.868987 0.335439 0.864912
O O6 0.816014 0.469179 0.846441
O O7 0.729593 0.353395 0.824642
O O8 0.756820 0.384947 0.931456
O O9 0.500000 0.771597 0.621165
O O10 0.380647 0.687580 0.612020
O O11 0.407124 0.787852 0.530217
O O12 0.777920 0.458935 0.250000
O O13 0.720419 0.418877 0.350539
O O14 0.733793 0.758143 0.250000
O O15 0.743823 0.780214 0.133061
O O16 0.222181 0.863034 0.041459
O O17 0.355160 0.916454 0.012872
O O18 0.235922 0.000000 0.000000
O O19 0.500000 0.891333 0.009050
#
# Coordination Sequence:
#
# PCOD8257302 Si02
#       8
#    16  16  16  16  16  16  16  16
#     4  10  19  32  51  76 106 139 176 208 252 311
#     4  10  21  33  55  79 106 138 171 220 266 311
#     4   9  20  34  53  79 108 140 171 214 269 320
#     4  11  21  36  53  77 107 139 177 213 264 313
#     4  10  20  34  51  74 103 139 182 214 256 304
#     4  11  18  31  51  79 109 131 178 217 264 319
#     4  10  19  33  55  76 102 139 175 225 258 309
#     4   9  17  29  47  74 110 141 165 204 261 318
#
# _framework density 17.588562
#
# number of rings (size 3 to 8) (size 9 to 14) (size 15 to 20)
#    0.000    2.000    3.750    1.875    1.750    3.250 
#    0.000    2.500    0.000   14.250    0.000    0.000 
#    0.000    0.000    0.000    0.000    0.000    0.000 
#
# Total GULP energy -793065.928612 kJ/mol
# GULP energy per Si atom -12391.655135 kJ/mol
# Density = 1.754853 g / cm^3
# Si number density = 17.588562 Si / 1000 Ang^3
#
#
#
# Elastic Constant Matrix: (Units=GPa)
#
#
# Indices 1 2 3 4 5 6 
#
# 1 87.4382 66.9527 35.7938 0.0000 0.0000 0.0000
# 2 66.9527 83.3281 25.9946 0.0000 0.0000 0.0000
# 3 35.7938 25.9946 92.5916 0.0000 0.0000 0.0000
# 4 0.0000 0.0000 0.0000 21.6982 0.0000 0.0000
# 5 0.0000 0.0000 0.0000 0.0000 14.8764 0.0000
# 6 0.0000 0.0000 0.0000 0.0000 0.0000 21.8490
#
#
#
# Elastic Compliance Matrix: (Units=1/GPa)
#
#
# Indices 1 2 3 4 5 6 
#
# 1 0.032245 -0.024133 -0.005690 0.000000 0.000000 0.000000
# 2 -0.024133 0.031215 0.000566 0.000000 0.000000 0.000000
# 3 -0.005690 0.000566 0.012841 0.000000 0.000000 0.000000
# 4 0.000000 0.000000 0.000000 0.046087 0.000000 0.000000
# 5 0.000000 0.000000 0.000000 0.000000 0.067221 0.000000
# 6 0.000000 0.000000 0.000000 0.000000 0.000000 0.045769
#
#
# Mechanical properties :
#
#
# Convention : Reuss Voigt Hill
#
# Bulk Modulus (GPa) = 56.22321 57.87113 57.04717
# Shear Modulus (GPa) = 16.67663 20.65917 18.66790
#
# Velocity S-wave (km/s) = 3.08255 3.43093 3.26140
# Velocity P-wave (km/s) = 6.68615 6.97633 6.83278
#
# Compressibility (1/GPa) = 0.01778625
#
# Stress axis : x y z
#
# Youngs Moduli (GPa) = 31.01230 32.03587 77.87669
#
# Poissons Ratio (x) = 0.77314 0.44311
# Poissons Ratio (y) = 0.74844 -0.04408
# Poissons Ratio (z) = 0.17646 -0.01813
#
# Static dielectric constant tensor:
#      x y z
#    x 3.380010 0.000000 0.000000 
#    y 0.000000 3.255140 0.000000 
#    z 0.000000 0.000000 3.423630 
# 
# 
# High freq. dielectric constant tensor:
#      x y z
#    x 1.653380 0.000000 0.000000 
#    y 0.000000 1.660790 0.000000 
#    z 0.000000 0.000000 1.692930 
# 
# From -- ./inp_files/64072.got.cif
#   From: 2010.03.12/outbox.cif.g09.slc.cpg/sg63_33_cif.got.tgz:64072.got - 2010.04.10 19:34:48.
