data_PCOD8257975
_publ_section_title
;
Structure prediction by ZEFSAII (Michael W. Deem and Ramdas Pophale) SiO2 
 PCOD8257975
Probable space group: C M C M
;
_chemical_formula_sum "Si O2"
_cell_formula_units_Z 96
_cell_length_a 18.417626
_cell_length_b 29.846735
_cell_length_c 9.196108
_cell_angle_alpha 90.000000
_cell_angle_beta 90.000000
_cell_angle_gamma 90.000000
_cell_volume 5055.155768
_symmetry_space_group_name_H-M "C M C M"
_symmetry_group_IT_number 63
_symmetry_cell_setting 'orthorhombic'
loop_
_space_group_symop_operation_xyz
x,y,z
-x,-y,1/2+z
x,-y,-z
-x,y,1/2-z
-x,-y,-z
x,y,1/2-z
-x,y,z
x,-y,1/2+z
1/2+x,1/2+y,z
1/2-x,1/2-y,1/2+z
1/2+x,1/2-y,-z
1/2-x,1/2+y,1/2-z
1/2-x,1/2-y,-z
1/2+x,1/2+y,1/2-z
1/2-x,1/2+y,z
1/2+x,1/2-y,1/2+z
loop_
_atom_site_type_symbol
_atom_site_label
_atom_site_fract_x
_atom_site_fract_y
_atom_site_fract_z
Si Si1 0.917063 0.200508 0.583928
Si Si2 0.852258 0.120899 0.418557
Si Si3 0.313550 0.876550 0.918341
Si Si4 0.188606 0.277175 0.583029
Si Si5 0.416256 0.954424 0.920668
Si Si6 0.084949 0.958853 0.089132
O O1 0.910964 0.183097 0.750000
O O2 0.867663 0.170165 0.480049
O O3 0.887598 0.251094 0.572030
O O4 0.000000 0.199912 0.530425
O O5 0.873445 0.119602 0.250000
O O6 0.768808 0.107497 0.443755
O O7 0.902882 0.086967 0.504724
O O8 0.333343 0.873007 0.750000
O O9 0.323503 0.826704 0.986367
O O10 0.367895 0.913569 0.986318
O O11 0.214792 0.282076 0.750000
O O12 0.250000 0.250000 0.500000
O O13 0.402010 0.961257 0.750000
O O14 0.500000 0.942913 0.953357
O O15 0.392542 0.000000 0.000000
O O16 0.120434 0.957028 0.250000
O O17 0.000000 0.966776 0.105041
O O18 0.120553 0.000000 0.000000
#
# Coordination Sequence:
#
# PCOD8257975 Si02
#       6
#    16  16  16  16  16  16
#     4  10  21  35  53  79 108 140 181 226 271 323
#     4  11  21  34  53  77 108 143 178 219 267 322
#     4   9  19  34  54  81 109 139 179 223 268 325
#     4  10  19  35  56  77 107 143 181 226 276 326
#     4   9  18  35  58  81 108 142 179 223 275 328
#     4  10  21  37  55  75 102 136 177 223 268 316
#
# _framework density 18.990511999999999
#
# number of rings (size 3 to 8) (size 9 to 14) (size 15 to 20)
#    0.000    2.167    1.667    1.500    0.000    4.667 
#    0.000    7.500    0.000    0.000    0.000    2.333 
#    0.000    0.000    0.000    0.000    0.000    0.000 
#
# Total GULP energy -595192.494922 kJ/mol
# GULP energy per Si atom -12399.843644 kJ/mol
# Density = 1.894729 g / cm^3
# Si number density = 18.990512 Si / 1000 Ang^3
#
#
#
# Elastic Constant Matrix: (Units=GPa)
#
#
# Indices 1 2 3 4 5 6 
#
# 1 80.3093 48.3340 30.4227 0.0000 0.0000 0.0000
# 2 48.3340 143.2465 46.1811 0.0000 0.0000 0.0000
# 3 30.4227 46.1811 84.5744 0.0000 0.0000 0.0000
# 4 0.0000 0.0000 0.0000 27.6201 0.0000 0.0000
# 5 0.0000 0.0000 0.0000 0.0000 17.0339 0.0000
# 6 0.0000 0.0000 0.0000 0.0000 0.0000 37.0569
#
#
#
# Elastic Compliance Matrix: (Units=1/GPa)
#
#
# Indices 1 2 3 4 5 6 
#
# 1 0.016437 -0.004418 -0.003500 0.000000 0.000000 0.000000
# 2 -0.004418 0.009660 -0.003686 0.000000 0.000000 0.000000
# 3 -0.003500 -0.003686 0.015095 0.000000 0.000000 0.000000
# 4 0.000000 0.000000 0.000000 0.036206 0.000000 0.000000
# 5 0.000000 0.000000 0.000000 0.000000 0.058707 0.000000
# 6 0.000000 0.000000 0.000000 0.000000 0.000000 0.026986
#
#
# Mechanical properties :
#
#
# Convention : Reuss Voigt Hill
#
# Bulk Modulus (GPa) = 55.60206 62.00066 58.80136
# Shear Modulus (GPa) = 26.00225 28.55500 27.27863
#
# Velocity S-wave (km/s) = 3.70432 3.88189 3.79414
# Velocity P-wave (km/s) = 6.90206 7.26713 7.08695
#
# Compressibility (1/GPa) = 0.01798494
#
# Stress axis : x y z
#
# Youngs Moduli (GPa) = 60.84013 103.52278 66.24494
#
# Poissons Ratio (x) = 0.45731 0.23188
# Poissons Ratio (y) = 0.26876 0.24415
# Poissons Ratio (z) = 0.21296 0.38154
#
# Static dielectric constant tensor:
#      x y z
#    x 3.379320 0.000000 0.000000 
#    y 0.000000 3.697750 0.000000 
#    z 0.000000 0.000000 3.472030 
# 
# 
# High freq. dielectric constant tensor:
#      x y z
#    x 1.728490 0.000000 0.000000 
#    y 0.000000 1.748380 0.000000 
#    z 0.000000 0.000000 1.721490 
# 
# From -- ./inp_files/8545.got.cif
#   From: 2010.03.12/outbox.cif.g09.slc.cpg/sg63_5_cif.got.tgz:8545.got - 2010.04.10 19:34:48.
