data_PCOD8257790
_publ_section_title
;
Structure prediction by ZEFSAII (Michael W. Deem and Ramdas Pophale) SiO2 
 PCOD8257790
Probable space group: C M C M
;
_chemical_formula_sum "Si O2"
_cell_formula_units_Z 72
_cell_length_a 12.060281
_cell_length_b 17.095111
_cell_length_c 19.204159
_cell_angle_alpha 90.000000
_cell_angle_beta 90.000000
_cell_angle_gamma 90.000000
_cell_volume 3959.356843
_symmetry_space_group_name_H-M "C M C M"
_symmetry_group_IT_number 63
_symmetry_cell_setting 'orthorhombic'
loop_
_space_group_symop_operation_xyz
x,y,z
-x,-y,1/2+z
x,-y,-z
-x,y,1/2-z
-x,-y,-z
x,y,1/2-z
-x,y,z
x,-y,1/2+z
1/2+x,1/2+y,z
1/2-x,1/2-y,1/2+z
1/2+x,1/2-y,-z
1/2-x,1/2+y,1/2-z
1/2-x,1/2-y,-z
1/2+x,1/2+y,1/2-z
1/2-x,1/2+y,z
1/2+x,1/2-y,1/2+z
loop_
_atom_site_type_symbol
_atom_site_label
_atom_site_fract_x
_atom_site_fract_y
_atom_site_fract_z
Si Si1 0.631517 0.966741 0.750000
Si Si2 0.368637 0.070738 0.623173
Si Si3 0.733544 0.500000 0.500000
Si Si4 0.631533 0.790267 0.750000
Si Si5 0.871761 0.158248 0.022089
Si Si6 0.760781 0.222337 0.612847
O O1 0.500000 0.965138 0.750000
O O2 0.678683 0.878848 0.750000
O O3 0.675206 0.013242 0.816903
O O4 0.500000 0.070564 0.616566
O O5 0.316242 0.040632 0.552832
O O6 0.329247 0.158891 0.637675
O O7 0.654941 0.433423 0.532507
O O8 0.500000 0.789760 0.750000
O O9 0.671703 0.747587 0.819438
O O10 0.800860 0.204011 0.079326
O O11 0.000000 0.173728 0.037020
O O12 0.845115 0.186136 0.943631
#
# Coordination Sequence:
#
# PCOD8257790 Si02
#       6
#     8  16   8   8  16  16
#     4   9  19  32  50  71  99 133 166 207 263 309
#     4  10  19  34  53  78 106 136 173 220 263 310
#     4  10  20  32  54  78 104 140 180 216 264 320
#     4  11  21  36  55  79 107 137 173 219 262 315
#     4  10  20  36  53  77 108 141 177 221 266 318
#     4  10  21  34  55  79 105 140 180 217 267 320
#
# _framework density 18.184771999999999
#
# number of rings (size 3 to 8) (size 9 to 14) (size 15 to 20)
#    0.000    2.000    0.000    4.000    0.000    0.000 
#    0.000    8.333    0.000    0.000    0.000    0.000 
#    0.000    0.000    0.000    0.000    0.000    0.000 
#
# Total GULP energy -446451.701119 kJ/mol
# GULP energy per Si atom -12401.436142 kJ/mol
# Density = 1.814338 g / cm^3
# Si number density = 18.184772 Si / 1000 Ang^3
#
#
#
# Elastic Constant Matrix: (Units=GPa)
#
#
# Indices 1 2 3 4 5 6 
#
# 1 81.9781 31.5439 25.8476 0.0000 0.0000 0.0000
# 2 31.5439 131.8663 35.4649 0.0000 0.0000 0.0000
# 3 25.8476 35.4649 87.0109 0.0000 0.0000 0.0000
# 4 0.0000 0.0000 0.0000 26.3103 0.0000 0.0000
# 5 0.0000 0.0000 0.0000 0.0000 18.1428 0.0000
# 6 0.0000 0.0000 0.0000 0.0000 0.0000 27.9292
#
#
#
# Elastic Compliance Matrix: (Units=1/GPa)
#
#
# Indices 1 2 3 4 5 6 
#
# 1 0.014176 -0.002537 -0.003177 0.000000 0.000000 0.000000
# 2 -0.002537 0.008971 -0.002903 0.000000 0.000000 0.000000
# 3 -0.003177 -0.002903 0.013620 0.000000 0.000000 0.000000
# 4 0.000000 0.000000 0.000000 0.038008 0.000000 0.000000
# 5 0.000000 0.000000 0.000000 0.000000 0.055118 0.000000
# 6 0.000000 0.000000 0.000000 0.000000 0.000000 0.035805
#
#
# Mechanical properties :
#
#
# Convention : Reuss Voigt Hill
#
# Bulk Modulus (GPa) = 51.19454 54.06313 52.62884
# Shear Modulus (GPa) = 26.39315 28.34304 27.36810
#
# Velocity S-wave (km/s) = 3.81384 3.95221 3.88364
# Velocity P-wave (km/s) = 6.89981 7.11485 7.00815
#
# Compressibility (1/GPa) = 0.01953333
#
# Stress axis : x y z
#
# Youngs Moduli (GPa) = 70.54062 111.47077 73.42205
#
# Poissons Ratio (x) = 0.28276 0.23329
# Poissons Ratio (y) = 0.17893 0.21314
# Poissons Ratio (z) = 0.22413 0.32360
#
# Static dielectric constant tensor:
#      x y z
#    x 3.169650 0.000000 0.000000 
#    y 0.000000 3.717820 0.000000 
#    z 0.000000 0.000000 3.335520 
# 
# 
# High freq. dielectric constant tensor:
#      x y z
#    x 1.695190 0.000000 0.000000 
#    y 0.000000 1.724030 0.000000 
#    z 0.000000 0.000000 1.705960 
# 
# From -- ./inp_files/41920.got.cif
#   From: 2010.03.12/outbox.cif.g09.slc.cpg/sg63_21_cif.got.tgz:41920.got - 2010.04.10 19:34:48.
