data_PCOD8257030
_publ_section_title
;
Structure prediction by ZEFSAII (Michael W. Deem and Ramdas Pophale) SiO2 
 PCOD8257030
Probable space group: C M C M
;
_chemical_formula_sum "Si O2"
_cell_formula_units_Z 96
_cell_length_a 30.821187
_cell_length_b 19.888812
_cell_length_c 8.582991
_cell_angle_alpha 90.000000
_cell_angle_beta 90.000000
_cell_angle_gamma 90.000000
_cell_volume 5261.345965
_symmetry_space_group_name_H-M "C M C M"
_symmetry_group_IT_number 63
_symmetry_cell_setting 'orthorhombic'
loop_
_space_group_symop_operation_xyz
x,y,z
-x,-y,1/2+z
x,-y,-z
-x,y,1/2-z
-x,-y,-z
x,y,1/2-z
-x,y,z
x,-y,1/2+z
1/2+x,1/2+y,z
1/2-x,1/2-y,1/2+z
1/2+x,1/2-y,-z
1/2-x,1/2+y,1/2-z
1/2-x,1/2-y,-z
1/2+x,1/2+y,1/2-z
1/2-x,1/2+y,z
1/2+x,1/2-y,1/2+z
loop_
_atom_site_type_symbol
_atom_site_label
_atom_site_fract_x
_atom_site_fract_y
_atom_site_fract_z
Si Si1 0.451067 0.929890 0.434111
Si Si2 0.705183 0.682310 0.432042
Si Si3 0.798574 0.326210 0.572373
Si Si4 0.115331 0.680958 0.931705
Si Si5 0.618313 0.328256 0.067238
Si Si6 0.550215 0.428757 0.932668
O O1 0.449006 0.933746 0.250000
O O2 0.500000 0.916956 0.493976
O O3 0.421386 0.869210 0.495683
O O4 0.433011 0.000000 0.500000
O O5 0.701977 0.703075 0.250000
O O6 0.750566 0.641552 0.461292
O O7 0.705927 0.746880 0.543253
O O8 0.661863 0.641834 0.482825
O O9 0.812206 0.339126 0.750000
O O10 0.837487 0.353840 0.463815
O O11 0.109708 0.695553 0.750000
O O12 0.110848 0.750500 0.023541
O O13 0.624005 0.335958 0.250000
O O14 0.576850 0.369513 0.012242
O O15 0.558742 0.428061 0.750000
O O16 0.500000 0.416105 0.973702
O O17 0.565849 0.500000 0.000000
#
# Coordination Sequence:
#
# PCOD8257030 Si02
#       6
#    16  16  16  16  16  16
#     4   9  19  35  53  72  95 127 166 204 246 298
#     4   9  16  27  44  67  97 131 165 202 246 295
#     4   9  16  26  43  68  97 129 164 203 246 294
#     4  10  19  31  49  74 103 133 166 207 253 299
#     4  11  21  32  50  77 106 134 167 207 248 291
#     4  10  21  38  58  77 100 132 168 205 247 298
#
# _framework density 18.246282000000001
#
# number of rings (size 3 to 8) (size 9 to 14) (size 15 to 20)
#    0.000    2.333    0.000    5.500    0.000    5.000 
#    0.000    1.667    0.000    1.000    0.000    2.333 
#    0.000    0.000    0.000    0.000    0.000    0.000 
#
# Total GULP energy -594875.434769 kJ/mol
# GULP energy per Si atom -12393.238224 kJ/mol
# Density = 1.820475 g / cm^3
# Si number density = 18.246282 Si / 1000 Ang^3
#
#
#
# Elastic Constant Matrix: (Units=GPa)
#
#
# Indices 1 2 3 4 5 6 
#
# 1 130.3539 63.0351 37.4524 0.0000 0.0000 0.0000
# 2 63.0351 70.0044 26.2709 0.0000 0.0000 0.0000
# 3 37.4524 26.2709 66.8438 0.0000 0.0000 0.0000
# 4 0.0000 0.0000 0.0000 24.6422 0.0000 0.0000
# 5 0.0000 0.0000 0.0000 0.0000 31.3726 0.0000
# 6 0.0000 0.0000 0.0000 0.0000 0.0000 5.1886
#
#
#
# Elastic Compliance Matrix: (Units=1/GPa)
#
#
# Indices 1 2 3 4 5 6 
#
# 1 0.014234 -0.011524 -0.003446 0.000000 0.000000 0.000000
# 2 -0.011524 0.026086 -0.003795 0.000000 0.000000 0.000000
# 3 -0.003446 -0.003795 0.018383 0.000000 0.000000 0.000000
# 4 0.000000 0.000000 0.000000 0.040581 0.000000 0.000000
# 5 0.000000 0.000000 0.000000 0.000000 0.031875 0.000000
# 6 0.000000 0.000000 0.000000 0.000000 0.000000 0.192729
#
#
# Mechanical properties :
#
#
# Convention : Reuss Voigt Hill
#
# Bulk Modulus (GPa) = 47.23285 57.85766 52.54526
# Shear Modulus (GPa) = 13.56943 21.60360 17.58652
#
# Velocity S-wave (km/s) = 2.73001 3.44466 3.10795
# Velocity P-wave (km/s) = 5.98997 6.89921 6.46061
#
# Compressibility (1/GPa) = 0.02117171
#
# Stress axis : x y z
#
# Youngs Moduli (GPa) = 70.25380 38.33529 54.39848
#
# Poissons Ratio (x) = 0.44177 0.18747
# Poissons Ratio (y) = 0.80959 0.20647
# Poissons Ratio (z) = 0.24211 0.14550
#
# Static dielectric constant tensor:
#      x y z
#    x 4.106140 0.000000 0.000000 
#    y 0.000000 2.971720 0.000000 
#    z 0.000000 0.000000 3.362990 
# 
# 
# High freq. dielectric constant tensor:
#      x y z
#    x 1.729830 0.000000 0.000000 
#    y 0.000000 1.650550 0.000000 
#    z 0.000000 0.000000 1.717810 
# 
# From -- ./inp_files/12410.got.cif
#   From: 2010.03.12/outbox.cif.g09.slc.cpg/sg63_7_cif.got.tgz:12410.got - 2010.04.10 19:34:48.
