data_PCOD8257355
_publ_section_title
;
Structure prediction by ZEFSAII (Michael W. Deem and Ramdas Pophale) SiO2 
 PCOD8257355
Probable space group: C M C M
;
_chemical_formula_sum "Si O2"
_cell_formula_units_Z 128
_cell_length_a 19.151523
_cell_length_b 21.468085
_cell_length_c 16.523045
_cell_angle_alpha 90.000000
_cell_angle_beta 90.000000
_cell_angle_gamma 90.000000
_cell_volume 6793.392512
_symmetry_space_group_name_H-M "C M C M"
_symmetry_group_IT_number 63
_symmetry_cell_setting 'orthorhombic'
loop_
_space_group_symop_operation_xyz
x,y,z
-x,-y,1/2+z
x,-y,-z
-x,y,1/2-z
-x,-y,-z
x,y,1/2-z
-x,y,z
x,-y,1/2+z
1/2+x,1/2+y,z
1/2-x,1/2-y,1/2+z
1/2+x,1/2-y,-z
1/2-x,1/2+y,1/2-z
1/2-x,1/2-y,-z
1/2+x,1/2+y,1/2-z
1/2-x,1/2+y,z
1/2+x,1/2-y,1/2+z
loop_
_atom_site_type_symbol
_atom_site_label
_atom_site_fract_x
_atom_site_fract_y
_atom_site_fract_z
Si Si1 0.577585 0.076134 0.844729
Si Si2 0.714586 0.119590 0.094253
Si Si3 0.713101 0.876637 0.405673
Si Si4 0.287294 0.498075 0.405999
Si Si5 0.780759 0.245670 0.909788
Si Si6 0.922172 0.053269 0.655869
Si Si7 0.080176 0.802139 0.155061
Si Si8 0.078440 0.565937 0.155219
O O1 0.591053 0.081175 0.750000
O O2 0.500000 0.098794 0.867036
O O3 0.630437 0.121273 0.891194
O O4 0.588333 0.005169 0.873434
O O5 0.734906 0.187098 0.132563
O O6 0.632221 0.108521 0.106655
O O7 0.759076 0.062753 0.133671
O O8 0.730979 0.124158 0.999754
O O9 0.748839 0.938098 0.365554
O O10 0.743125 0.812861 0.365427
O O11 0.268544 0.500000 0.500000
O O12 0.369842 0.491587 0.392700
O O13 0.864933 0.234802 0.902186
O O14 0.750000 0.250000 0.000000
O O15 0.910740 0.041303 0.750000
O O16 0.908971 0.125221 0.635095
O O17 0.000000 0.033806 0.629579
O O18 0.095000 0.788782 0.250000
O O19 0.000000 0.782606 0.134495
O O20 0.093242 0.572173 0.250000
O O21 0.000000 0.588544 0.134976
#
# Coordination Sequence:
#
# PCOD8257355 Si02
#       8
#    16  16  16  16  16  16  16  16
#     4   9  18  32  51  75 101 131 172 217 253 293
#     4  10  21  33  48  74 105 134 168 207 252 303
#     4  10  19  34  53  73  98 136 175 214 251 297
#     4  10  19  32  52  77 105 131 170 212 254 308
#     4  10  21  36  52  74 110 144 171 212 266 321
#     4   9  18  33  55  82 106 130 169 220 268 313
#     4   9  18  34  57  83 107 134 175 225 273 322
#     4   9  18  32  49  73 105 135 164 204 257 311
#
# _framework density 18.841837000000002
#
# number of rings (size 3 to 8) (size 9 to 14) (size 15 to 20)
#    0.000    2.500    2.500    1.500    0.000    3.250 
#    0.000    4.375    0.000    0.750    0.000    1.750 
#    0.000    0.000    0.000    0.000    0.000    0.000 
#
# Total GULP energy -793087.646352 kJ/mol
# GULP energy per Si atom -12391.994474 kJ/mol
# Density = 1.879895 g / cm^3
# Si number density = 18.841837 Si / 1000 Ang^3
#
#
#
# Elastic Constant Matrix: (Units=GPa)
#
#
# Indices 1 2 3 4 5 6 
#
# 1 128.5436 75.3203 24.1712 0.0000 0.0000 0.0000
# 2 75.3203 154.5958 17.7500 0.0000 0.0000 0.0000
# 3 24.1712 17.7500 16.8237 0.0000 0.0000 0.0000
# 4 0.0000 0.0000 0.0000 10.4248 0.0000 0.0000
# 5 0.0000 0.0000 0.0000 0.0000 33.0234 0.0000
# 6 0.0000 0.0000 0.0000 0.0000 0.0000 30.8508
#
#
#
# Elastic Compliance Matrix: (Units=1/GPa)
#
#
# Indices 1 2 3 4 5 6 
#
# 1 0.013236 -0.004853 -0.013897 0.000000 0.000000 0.000000
# 2 -0.004853 0.009140 -0.002670 0.000000 0.000000 0.000000
# 3 -0.013897 -0.002670 0.082223 0.000000 0.000000 0.000000
# 4 0.000000 0.000000 0.000000 0.095925 0.000000 0.000000
# 5 0.000000 0.000000 0.000000 0.000000 0.030282 0.000000
# 6 0.000000 0.000000 0.000000 0.000000 0.000000 0.032414
#
#
# Mechanical properties :
#
#
# Convention : Reuss Voigt Hill
#
# Bulk Modulus (GPa) = 16.19196 59.38289 37.78742
# Shear Modulus (GPa) = 15.30711 27.04124 21.17418
#
# Velocity S-wave (km/s) = 2.85336 3.79247 3.35593
# Velocity P-wave (km/s) = 4.41223 7.12475 5.92579
#
# Compressibility (1/GPa) = 0.06175906
#
# Stress axis : x y z
#
# Youngs Moduli (GPa) = 75.54940 109.41398 12.16208
#
# Poissons Ratio (x) = 0.53102 0.16901
# Poissons Ratio (y) = 0.36667 0.03247
# Poissons Ratio (z) = 1.04988 0.29212
#
# Static dielectric constant tensor:
#      x y z
#    x 3.538340 0.000000 0.000000 
#    y 0.000000 3.897620 0.000000 
#    z 0.000000 0.000000 3.055230 
# 
# 
# High freq. dielectric constant tensor:
#      x y z
#    x 1.737510 0.000000 0.000000 
#    y 0.000000 1.726530 0.000000 
#    z 0.000000 0.000000 1.693280 
# 
# From -- ./inp_files/46306.got.cif
#   From: 2010.03.12/outbox.cif.g09.slc.cpg/sg63_24_cif.got.tgz:46306.got - 2010.04.10 19:34:48.
