data_PCOD8257023
_publ_section_title
;
Structure prediction by ZEFSAII (Michael W. Deem and Ramdas Pophale) SiO2 
 PCOD8257023
Probable space group: C M C M
;
_chemical_formula_sum "Si O2"
_cell_formula_units_Z 96
_cell_length_a 9.152973
_cell_length_b 31.128239
_cell_length_c 17.950348
_cell_angle_alpha 90.000000
_cell_angle_beta 90.000000
_cell_angle_gamma 90.000000
_cell_volume 5114.340114
_symmetry_space_group_name_H-M "C M C M"
_symmetry_group_IT_number 63
_symmetry_cell_setting 'orthorhombic'
loop_
_space_group_symop_operation_xyz
x,y,z
-x,-y,1/2+z
x,-y,-z
-x,y,1/2-z
-x,-y,-z
x,y,1/2-z
-x,y,z
x,-y,1/2+z
1/2+x,1/2+y,z
1/2-x,1/2-y,1/2+z
1/2+x,1/2-y,-z
1/2-x,1/2+y,1/2-z
1/2-x,1/2-y,-z
1/2+x,1/2+y,1/2-z
1/2-x,1/2+y,z
1/2+x,1/2-y,1/2+z
loop_
_atom_site_type_symbol
_atom_site_label
_atom_site_fract_x
_atom_site_fract_y
_atom_site_fract_z
Si Si1 0.168300 0.661982 0.336383
Si Si2 0.672463 0.752391 0.921601
Si Si3 0.326138 0.669150 0.666356
Si Si4 0.673985 0.496338 0.165854
Si Si5 0.674099 0.586480 0.578478
Si Si6 0.826391 0.083617 0.409641
O O1 0.194863 0.671610 0.250000
O O2 0.219119 0.703907 0.381168
O O3 0.265483 0.622244 0.360998
O O4 0.000000 0.651150 0.352719
O O5 0.500000 0.749563 0.933748
O O6 0.728878 0.712837 0.871667
O O7 0.750000 0.750000 0.000000
O O8 0.262924 0.666831 0.750000
O O9 0.500000 0.667821 0.668606
O O10 0.265191 0.628743 0.619722
O O11 0.734963 0.494946 0.250000
O O12 0.500000 0.495483 0.166385
O O13 0.735345 0.455381 0.120949
O O14 0.731012 0.539226 0.125582
O O15 0.500000 0.585840 0.579003
O O16 0.732517 0.586593 0.494004
O O17 0.000000 0.086083 0.407217
#
# Coordination Sequence:
#
# PCOD8257023 Si02
#       6
#    16  16  16  16  16  16
#     4  10  21  36  52  71  99 135 169 199 236 286
#     4  10  20  34  52  74  99 126 158 198 242 286
#     4   9  16  27  45  68  93 123 160 198 234 279
#     4   9  16  26  42  67  99 131 161 197 244 294
#     4   9  16  26  43  69  99 127 156 196 247 295
#     4  10  19  31  49  74 101 127 160 204 248 287
#
# _framework density 18.77075
#
# number of rings (size 3 to 8) (size 9 to 14) (size 15 to 20)
#    0.000    2.500    0.000    3.000    0.000    9.000 
#    0.000    0.000    0.000    3.500    0.000    0.000 
#    0.000    4.000    0.000    0.000    0.000    0.000 
#
# Total GULP energy -595259.870303 kJ/mol
# GULP energy per Si atom -12401.247298 kJ/mol
# Density = 1.872803 g / cm^3
# Si number density = 18.770750 Si / 1000 Ang^3
#
#
#
# Elastic Constant Matrix: (Units=GPa)
#
#
# Indices 1 2 3 4 5 6 
#
# 1 11.8990 19.2273 16.3619 0.0000 0.0000 0.0000
# 2 19.2273 143.9260 42.1629 0.0000 0.0000 0.0000
# 3 16.3619 42.1629 120.4370 0.0000 0.0000 0.0000
# 4 0.0000 0.0000 0.0000 46.2369 0.0000 0.0000
# 5 0.0000 0.0000 0.0000 0.0000 21.1669 0.0000
# 6 0.0000 0.0000 0.0000 0.0000 0.0000 16.5586
#
#
#
# Elastic Compliance Matrix: (Units=1/GPa)
#
#
# Indices 1 2 3 4 5 6 
#
# 1 0.120987 -0.012645 -0.012010 0.000000 0.000000 0.000000
# 2 -0.012645 0.009064 -0.001455 0.000000 0.000000 0.000000
# 3 -0.012010 -0.001455 0.010444 0.000000 0.000000 0.000000
# 4 0.000000 0.000000 0.000000 0.021628 0.000000 0.000000
# 5 0.000000 0.000000 0.000000 0.000000 0.047244 0.000000
# 6 0.000000 0.000000 0.000000 0.000000 0.000000 0.060391
#
#
# Mechanical properties :
#
#
# Convention : Reuss Voigt Hill
#
# Bulk Modulus (GPa) = 11.32820 47.97402 29.65111
# Shear Modulus (GPa) = 14.22872 30.02647 22.12760
#
# Velocity S-wave (km/s) = 2.75621 4.00389 3.43714
# Velocity P-wave (km/s) = 4.02207 6.85479 5.61984
#
# Compressibility (1/GPa) = 0.08827530
#
# Stress axis : x y z
#
# Youngs Moduli (GPa) = 8.26535 110.33245 95.74757
#
# Poissons Ratio (x) = 1.39511 1.14992
# Poissons Ratio (y) = 0.10451 0.13933
# Poissons Ratio (z) = 0.09927 0.16055
#
# Static dielectric constant tensor:
#      x y z
#    x 2.815410 0.000000 0.000000 
#    y 0.000000 3.682030 0.000000 
#    z 0.000000 0.000000 3.690760 
# 
# 
# High freq. dielectric constant tensor:
#      x y z
#    x 1.659290 0.000000 0.000000 
#    y 0.000000 1.749620 0.000000 
#    z 0.000000 0.000000 1.750270 
# 
# From -- ./inp_files/42652.got.cif
#   From: 2010.03.12/outbox.cif.g09.slc.cpg/sg63_22_cif.got.tgz:42652.got - 2010.04.10 19:34:48.
