data_PCOD8257902
_publ_section_title
;
Structure prediction by ZEFSAII (Michael W. Deem and Ramdas Pophale) SiO2 
 PCOD8257902
Probable space group: C M C M
;
_chemical_formula_sum "Si O2"
_cell_formula_units_Z 64
_cell_length_a 8.791952
_cell_length_b 18.681940
_cell_length_c 20.680768
_cell_angle_alpha 90.000000
_cell_angle_beta 90.000000
_cell_angle_gamma 90.000000
_cell_volume 3396.831029
_symmetry_space_group_name_H-M "C M C M"
_symmetry_group_IT_number 63
_symmetry_cell_setting 'orthorhombic'
loop_
_space_group_symop_operation_xyz
x,y,z
-x,-y,1/2+z
x,-y,-z
-x,y,1/2-z
-x,-y,-z
x,y,1/2-z
-x,y,z
x,-y,1/2+z
1/2+x,1/2+y,z
1/2-x,1/2-y,1/2+z
1/2+x,1/2-y,-z
1/2-x,1/2+y,1/2-z
1/2-x,1/2-y,-z
1/2+x,1/2+y,1/2-z
1/2-x,1/2+y,z
1/2+x,1/2-y,1/2+z
loop_
_atom_site_type_symbol
_atom_site_label
_atom_site_fract_x
_atom_site_fract_y
_atom_site_fract_z
Si Si1 0.317960 0.574644 0.111249
Si Si2 0.168034 0.912949 0.250000
Si Si3 0.324401 0.923149 0.119936
Si Si4 0.823761 0.327025 0.503172
Si Si5 0.166028 0.917539 0.750000
O O1 0.500000 0.572023 0.112877
O O2 0.259267 0.495029 0.096580
O O3 0.253393 0.602540 0.181759
O O4 0.261355 0.628186 0.057519
O O5 0.257670 0.889120 0.185707
O O6 0.000000 0.877488 0.250000
O O7 0.151274 0.997424 0.250000
O O8 0.500000 0.942154 0.130666
O O9 0.300144 0.863790 0.065671
O O10 0.750000 0.250000 0.500000
O O11 0.000000 0.321218 0.521661
O O12 0.000000 0.881339 0.750000
#
# Coordination Sequence:
#
# PCOD8257902 Si02
#       5
#    16   8  16  16   8
#     4  10  19  34  58  84 110 142 180 222 268 321
#     4   9  17  31  54  83 110 137 175 221 267 319
#     4  10  20  35  56  82 111 142 178 222 270 321
#     4  11  24  39  54  76 108 145 185 227 272 323
#     4   7  14  29  50  79 108 133 167 211 259 311
#
# _framework density 18.841090999999999
#
# number of rings (size 3 to 8) (size 9 to 14) (size 15 to 20)
#    0.000    2.250    0.000    4.875    0.000    7.000 
#    0.000    3.125    0.000    3.000    0.000    0.000 
#    0.000    0.000    0.000    0.000    0.000    0.000 
#
# Total GULP energy -396635.592302 kJ/mol
# GULP energy per Si atom -12394.862259 kJ/mol
# Density = 1.879821 g / cm^3
# Si number density = 18.841091 Si / 1000 Ang^3
#
#
#
# Elastic Constant Matrix: (Units=GPa)
#
#
# Indices 1 2 3 4 5 6 
#
# 1 124.2842 51.6108 71.3476 0.0000 0.0000 0.0000
# 2 51.6108 84.6771 49.0260 0.0000 0.0000 0.0000
# 3 71.3476 49.0260 136.2681 0.0000 0.0000 0.0000
# 4 0.0000 0.0000 0.0000 -7.7810 0.0000 0.0000
# 5 0.0000 0.0000 0.0000 0.0000 35.1722 0.0000
# 6 0.0000 0.0000 0.0000 0.0000 0.0000 27.4065
#
#
#
# Elastic Compliance Matrix: (Units=1/GPa)
#
#
# Indices 1 2 3 4 5 6 
#
# 1 0.013006 -0.005033 -0.004999 0.000000 0.000000 0.000000
# 2 -0.005033 0.016864 -0.003432 0.000000 0.000000 0.000000
# 3 -0.004999 -0.003432 0.011191 0.000000 0.000000 0.000000
# 4 0.000000 0.000000 0.000000 -0.128518 0.000000 0.000000
# 5 0.000000 0.000000 0.000000 0.000000 0.028432 0.000000
# 6 0.000000 0.000000 0.000000 0.000000 0.000000 0.036488
#
#
# Mechanical properties :
#
#
# Convention : Reuss Voigt Hill
#
# Bulk Modulus (GPa) = 70.75769 76.57758 73.66763
# Shear Modulus (GPa) = 549.39236 22.50920 285.95078
#
# Velocity S-wave (km/s) = 17.09461 3.46017 12.33285
# Velocity P-wave (km/s) = 20.67053 7.52967 15.55581
#
# Compressibility (1/GPa) = 0.01413274
#
# Stress axis : x y z
#
# Youngs Moduli (GPa) = 76.88935 59.29702 89.36020
#
# Poissons Ratio (x) = 0.29843 0.44670
# Poissons Ratio (y) = 0.38696 0.30671
# Poissons Ratio (z) = 0.38436 0.20353
#
# Static dielectric constant tensor:
#      x y z
#    x 3.604880 0.000000 0.000000 
#    y 0.000000 3.084490 0.000000 
#    z 0.000000 0.000000 4.017640 
# 
# 
# High freq. dielectric constant tensor:
#      x y z
#    x 1.737410 0.000000 0.000000 
#    y 0.000000 1.693570 0.000000 
#    z 0.000000 0.000000 1.757690 
# 
# From -- ./inp_files/50371.got.cif
#   From: 2010.03.12/outbox.cif.g09.slc.cpg/sg63_26_cif.got.tgz:50371.got - 2010.04.10 19:34:48.
