data_PCOD8257134
_publ_section_title
;
Structure prediction by ZEFSAII (Michael W. Deem and Ramdas Pophale) SiO2 
 PCOD8257134
Probable space group: C M C M
;
_chemical_formula_sum "Si O2"
_cell_formula_units_Z 64
_cell_length_a 7.602131
_cell_length_b 23.264670
_cell_length_c 20.176294
_cell_angle_alpha 90.000000
_cell_angle_beta 90.000000
_cell_angle_gamma 90.000000
_cell_volume 3568.400926
_symmetry_space_group_name_H-M "C M C M"
_symmetry_group_IT_number 63
_symmetry_cell_setting 'orthorhombic'
loop_
_space_group_symop_operation_xyz
x,y,z
-x,-y,1/2+z
x,-y,-z
-x,y,1/2-z
-x,-y,-z
x,y,1/2-z
-x,y,z
x,-y,1/2+z
1/2+x,1/2+y,z
1/2-x,1/2-y,1/2+z
1/2+x,1/2-y,-z
1/2-x,1/2+y,1/2-z
1/2-x,1/2-y,-z
1/2+x,1/2+y,1/2-z
1/2-x,1/2+y,z
1/2+x,1/2-y,1/2+z
loop_
_atom_site_type_symbol
_atom_site_label
_atom_site_fract_x
_atom_site_fract_y
_atom_site_fract_z
Si Si1 0.000000 0.954671 0.403731
Si Si2 0.796141 0.390382 0.172894
Si Si3 0.204117 0.283955 0.089142
Si Si4 0.302692 0.834063 0.949512
Si Si5 0.500000 0.418377 0.555342
O O1 0.823797 0.935042 0.366400
O O2 0.000000 0.930315 0.477424
O O3 0.000000 0.023408 0.402841
O O4 0.754257 0.395619 0.250000
O O5 0.750503 0.325162 0.150814
O O6 0.000000 0.404296 0.156654
O O7 0.301283 0.222759 0.097234
O O8 0.000000 0.269689 0.083833
O O9 0.266238 0.316043 0.022319
O O10 0.500000 0.859432 0.951400
O O11 0.173550 0.883267 0.922876
#
# Coordination Sequence:
#
# PCOD8257134 Si02
#       5
#     8  16  16  16   8
#     4  11  23  36  56  78 113 153 191 229 274 329
#     4  10  21  37  57  82 109 141 187 235 275 323
#     4   9  17  30  52  81 113 141 174 218 277 334
#     4  10  19  31  52  79 114 149 172 218 280 333
#     4  11  22  36  52  82 116 148 188 228 275 341
#
# _framework density 17.935203999999999
#
# number of rings (size 3 to 8) (size 9 to 14) (size 15 to 20)
#    0.000    2.000    3.750    0.375    3.500    1.000 
#    0.000    2.500    0.000    3.000    0.000    0.000 
#    0.000    0.000    0.000    0.000    0.000    0.000 
#
# Total GULP energy -396805.415939 kJ/mol
# GULP energy per Si atom -12400.169248 kJ/mol
# Density = 1.789438 g / cm^3
# Si number density = 17.935204 Si / 1000 Ang^3
#
#
#
# Elastic Constant Matrix: (Units=GPa)
#
#
# Indices 1 2 3 4 5 6 
#
# 1 104.1307 70.1743 34.8030 0.0000 0.0000 0.0000
# 2 70.1743 135.9448 45.2841 0.0000 0.0000 0.0000
# 3 34.8030 45.2841 71.3423 0.0000 0.0000 0.0000
# 4 0.0000 0.0000 0.0000 23.4877 0.0000 0.0000
# 5 0.0000 0.0000 0.0000 0.0000 13.6870 0.0000
# 6 0.0000 0.0000 0.0000 0.0000 0.0000 30.0215
#
#
#
# Elastic Compliance Matrix: (Units=1/GPa)
#
#
# Indices 1 2 3 4 5 6 
#
# 1 0.015247 -0.006839 -0.003097 0.000000 0.000000 0.000000
# 2 -0.006839 0.012396 -0.004532 0.000000 0.000000 0.000000
# 3 -0.003097 -0.004532 0.018404 0.000000 0.000000 0.000000
# 4 0.000000 0.000000 0.000000 0.042575 0.000000 0.000000
# 5 0.000000 0.000000 0.000000 0.000000 0.073062 0.000000
# 6 0.000000 0.000000 0.000000 0.000000 0.000000 0.033310
#
#
# Mechanical properties :
#
#
# Convention : Reuss Voigt Hill
#
# Bulk Modulus (GPa) = 58.44012 67.99340 63.21676
# Shear Modulus (GPa) = 21.77376 24.18298 22.97837
#
# Velocity S-wave (km/s) = 3.48806 3.67598 3.58325
# Velocity P-wave (km/s) = 6.99120 7.48398 7.24178
#
# Compressibility (1/GPa) = 0.01711153
#
# Stress axis : x y z
#
# Youngs Moduli (GPa) = 65.58563 80.67281 54.33483
#
# Poissons Ratio (x) = 0.55171 0.16828
# Poissons Ratio (y) = 0.44853 0.24624
# Poissons Ratio (z) = 0.20313 0.36560
#
# Static dielectric constant tensor:
#      x y z
#    x 3.437720 0.000000 0.000000 
#    y 0.000000 3.294400 0.000000 
#    z 0.000000 0.000000 3.055060 
# 
# 
# High freq. dielectric constant tensor:
#      x y z
#    x 1.709250 0.000000 0.000000 
#    y 0.000000 1.686480 0.000000 
#    z 0.000000 0.000000 1.653710 
# 
# From -- ./inp_files/50640.got.cif
#   From: 2010.03.12/outbox.cif.g09.slc.cpg/sg63_26_cif.got.tgz:50640.got - 2010.04.10 19:34:48.
