data_PCOD8257130
_publ_section_title
;
Structure prediction by ZEFSAII (Michael W. Deem and Ramdas Pophale) SiO2 
 PCOD8257130
Probable space group: C M C M
;
_chemical_formula_sum "Si O2"
_cell_formula_units_Z 96
_cell_length_a 27.765776
_cell_length_b 23.504631
_cell_length_c 9.111032
_cell_angle_alpha 90.000000
_cell_angle_beta 90.000000
_cell_angle_gamma 90.000000
_cell_volume 5946.081057
_symmetry_space_group_name_H-M "C M C M"
_symmetry_group_IT_number 63
_symmetry_cell_setting 'orthorhombic'
loop_
_space_group_symop_operation_xyz
x,y,z
-x,-y,1/2+z
x,-y,-z
-x,y,1/2-z
-x,-y,-z
x,y,1/2-z
-x,y,z
x,-y,1/2+z
1/2+x,1/2+y,z
1/2-x,1/2-y,1/2+z
1/2+x,1/2-y,-z
1/2-x,1/2+y,1/2-z
1/2-x,1/2-y,-z
1/2+x,1/2+y,1/2-z
1/2-x,1/2+y,z
1/2+x,1/2-y,1/2+z
loop_
_atom_site_type_symbol
_atom_site_label
_atom_site_fract_x
_atom_site_fract_y
_atom_site_fract_z
Si Si1 0.500000 0.186972 0.586395
Si Si2 0.236153 0.337239 0.919316
Si Si3 0.000000 0.567418 0.474973
Si Si4 0.805910 0.556217 0.923422
Si Si5 0.321145 0.260719 0.919410
Si Si6 0.093629 0.279907 0.582904
Si Si7 0.392675 0.091742 0.093683
O O1 0.500000 0.210833 0.750000
O O2 0.500000 0.117033 0.599721
O O3 0.544035 0.213750 0.500757
O O4 0.220804 0.346201 0.750000
O O5 0.292983 0.320853 0.929321
O O6 0.226334 0.393308 0.012860
O O7 0.206784 0.285723 0.986837
O O8 0.000000 0.500000 0.500000
O O9 0.949781 0.579276 0.393680
O O10 0.800350 0.553495 0.750000
O O11 0.785170 0.500000 0.000000
O O12 0.863233 0.561609 0.963199
O O13 0.326031 0.240916 0.750000
O O14 0.373679 0.265683 0.994778
O O15 0.085352 0.259221 0.750000
O O16 0.118906 0.341599 0.579046
O O17 0.371331 0.070282 0.250000
#
# Coordination Sequence:
#
# PCOD8257130 Si02
#       7
#     8  16   8  16  16  16  16
#     4  10  21  33  47  67  93 121 158 196 237 290
#     4  10  20  34  50  72  97 121 153 194 239 286
#     4  10  21  33  47  63  83 111 152 202 249 288
#     4  12  24  36  51  68  92 124 159 197 241 290
#     4  10  19  31  52  75  96 121 153 194 238 285
#     4  10  19  32  50  69  94 123 154 195 241 285
#     4  10  20  34  49  65  86 114 153 199 245 290
#
# _framework density 16.145088000000001
#
# number of rings (size 3 to 8) (size 9 to 14) (size 15 to 20)
#    0.000    1.667    1.667    4.000    0.000    7.333 
#    0.000    0.000    0.000    0.000    0.000    0.000 
#    0.000    0.000    0.000    0.750    0.000   10.000 
#
# Total GULP energy -594630.181253 kJ/mol
# GULP energy per Si atom -12388.128776 kJ/mol
# Density = 1.610834 g / cm^3
# Si number density = 16.145088 Si / 1000 Ang^3
#
#
#
# Elastic Constant Matrix: (Units=GPa)
#
#
# Indices 1 2 3 4 5 6 
#
# 1 86.7475 41.7135 50.3830 0.0000 0.0000 0.0000
# 2 41.7135 61.0521 38.3711 0.0000 0.0000 0.0000
# 3 50.3830 38.3711 153.6232 0.0000 0.0000 0.0000
# 4 0.0000 0.0000 0.0000 20.1405 0.0000 0.0000
# 5 0.0000 0.0000 0.0000 0.0000 18.9657 0.0000
# 6 0.0000 0.0000 0.0000 0.0000 0.0000 26.3609
#
#
#
# Elastic Compliance Matrix: (Units=1/GPa)
#
#
# Indices 1 2 3 4 5 6 
#
# 1 0.018609 -0.010532 -0.003472 0.000000 0.000000 0.000000
# 2 -0.010532 0.025390 -0.002888 0.000000 0.000000 0.000000
# 3 -0.003472 -0.002888 0.008370 0.000000 0.000000 0.000000
# 4 0.000000 0.000000 0.000000 0.049651 0.000000 0.000000
# 5 0.000000 0.000000 0.000000 0.000000 0.052727 0.000000
# 6 0.000000 0.000000 0.000000 0.000000 0.000000 0.037935
#
#
# Mechanical properties :
#
#
# Convention : Reuss Voigt Hill
#
# Bulk Modulus (GPa) = 53.80845 62.48420 58.14633
# Shear Modulus (GPa) = 21.49049 24.49044 22.99046
#
# Velocity S-wave (km/s) = 3.65236 3.89896 3.77767
# Velocity P-wave (km/s) = 7.15449 7.68472 7.42434
#
# Compressibility (1/GPa) = 0.01858444
#
# Stress axis : x y z
#
# Youngs Moduli (GPa) = 53.73755 39.38506 119.48072
#
# Poissons Ratio (x) = 0.41481 0.41489
# Poissons Ratio (y) = 0.56597 0.34503
# Poissons Ratio (z) = 0.18660 0.11373
#
# Static dielectric constant tensor:
#      x y z
#    x 2.810810 0.000000 0.000000 
#    y 0.000000 2.988990 0.000000 
#    z 0.000000 0.000000 3.252250 
# 
# 
# High freq. dielectric constant tensor:
#      x y z
#    x 1.612300 0.000000 0.000000 
#    y 0.000000 1.577660 0.000000 
#    z 0.000000 0.000000 1.639670 
# 
# From -- ./inp_files/12822.got.cif
#   From: 2010.03.12/outbox.cif.g09.slc.cpg/sg63_7_cif.got.tgz:12822.got - 2010.04.10 19:34:48.
