data_PCOD8257356
_publ_section_title
;
Structure prediction by ZEFSAII (Michael W. Deem and Ramdas Pophale) SiO2 
 PCOD8257356
Probable space group: C M C M
;
_chemical_formula_sum "Si O2"
_cell_formula_units_Z 96
_cell_length_a 23.556719
_cell_length_b 23.566266
_cell_length_c 9.169261
_cell_angle_alpha 90.000000
_cell_angle_beta 90.000000
_cell_angle_gamma 90.000000
_cell_volume 5090.259367
_symmetry_space_group_name_H-M "C M C M"
_symmetry_group_IT_number 63
_symmetry_cell_setting 'orthorhombic'
loop_
_space_group_symop_operation_xyz
x,y,z
-x,-y,1/2+z
x,-y,-z
-x,y,1/2-z
-x,-y,-z
x,y,1/2-z
-x,y,z
x,-y,1/2+z
1/2+x,1/2+y,z
1/2-x,1/2-y,1/2+z
1/2+x,1/2-y,-z
1/2-x,1/2+y,1/2-z
1/2-x,1/2-y,-z
1/2+x,1/2+y,1/2-z
1/2-x,1/2+y,z
1/2+x,1/2-y,1/2+z
loop_
_atom_site_type_symbol
_atom_site_label
_atom_site_fract_x
_atom_site_fract_y
_atom_site_fract_z
Si Si1 0.227863 0.163432 0.918321
Si Si2 0.067537 0.553907 0.086337
Si Si3 0.064478 0.665119 0.918819
Si Si4 0.440165 0.441717 0.582105
Si Si5 0.333205 0.241717 0.916534
Si Si6 0.683562 0.560534 0.077806
O O1 0.214796 0.150930 0.750000
O O2 0.289700 0.190123 0.942051
O O3 0.179895 0.206311 0.977405
O O4 0.227499 0.104797 0.008060
O O5 0.091891 0.552868 0.250000
O O6 0.000000 0.550499 0.086616
O O7 0.092943 0.500000 0.000000
O O8 0.087305 0.611666 0.009637
O O9 0.068684 0.647702 0.750000
O O10 0.103799 0.719229 0.953138
O O11 0.000000 0.681398 0.961763
O O12 0.442903 0.500000 0.500000
O O13 0.438594 0.457988 0.750000
O O14 0.500000 0.407365 0.547607
O O15 0.379749 0.412458 0.544812
O O16 0.329060 0.263561 0.750000
O O17 0.695301 0.553840 0.250000
O O18 0.691145 0.500000 0.000000
#
# Coordination Sequence:
#
# PCOD8257356 Si02
#       6
#    16  16  16  16  16  16
#     4  10  20  35  55  76  99 130 169 208 245 290
#     4   9  16  26  42  66  97 132 167 200 238 290
#     4   9  17  31  52  76 101 128 160 203 254 302
#     4   8  14  25  42  65  93 126 161 195 234 283
#     4   9  19  36  56  76  98 128 167 207 247 294
#     4  10  19  32  52  77 105 134 166 206 251 297
#
# _framework density 18.859551
#
# number of rings (size 3 to 8) (size 9 to 14) (size 15 to 20)
#    0.000    2.833    0.000    1.500    0.000    4.000 
#    0.000    1.667    0.000    5.000    0.000    0.000 
#    0.000    0.000    0.000    0.000    0.000    0.000 
#
# Total GULP energy -594783.964469 kJ/mol
# GULP energy per Si atom -12391.332593 kJ/mol
# Density = 1.881663 g / cm^3
# Si number density = 18.859551 Si / 1000 Ang^3
#
#
#
# Elastic Constant Matrix: (Units=GPa)
#
#
# Indices 1 2 3 4 5 6 
#
# 1 57.3405 31.4974 27.6388 0.0000 0.0000 0.0000
# 2 31.4974 79.9715 50.0656 0.0000 0.0000 0.0000
# 3 27.6388 50.0656 100.0289 0.0000 0.0000 0.0000
# 4 0.0000 0.0000 0.0000 35.3170 0.0000 0.0000
# 5 0.0000 0.0000 0.0000 0.0000 18.6099 0.0000
# 6 0.0000 0.0000 0.0000 0.0000 0.0000 31.4364
#
#
#
# Elastic Compliance Matrix: (Units=1/GPa)
#
#
# Indices 1 2 3 4 5 6 
#
# 1 0.022716 -0.007307 -0.002619 0.000000 0.000000 0.000000
# 2 -0.007307 0.020561 -0.008272 0.000000 0.000000 0.000000
# 3 -0.002619 -0.008272 0.014861 0.000000 0.000000 0.000000
# 4 0.000000 0.000000 0.000000 0.028315 0.000000 0.000000
# 5 0.000000 0.000000 0.000000 0.000000 0.053735 0.000000
# 6 0.000000 0.000000 0.000000 0.000000 0.000000 0.031810
#
#
# Mechanical properties :
#
#
# Convention : Reuss Voigt Hill
#
# Bulk Modulus (GPa) = 45.99544 50.63828 48.31686
# Shear Modulus (GPa) = 23.18654 25.61526 24.40090
#
# Velocity S-wave (km/s) = 3.51013 3.68939 3.60088
# Velocity P-wave (km/s) = 6.39292 6.71247 6.55464
#
# Compressibility (1/GPa) = 0.02174129
#
# Stress axis : x y z
#
# Youngs Moduli (GPa) = 44.02167 48.63561 67.28976
#
# Poissons Ratio (x) = 0.35538 0.17626
# Poissons Ratio (y) = 0.32167 0.55662
# Poissons Ratio (z) = 0.11531 0.40232
#
# Static dielectric constant tensor:
#      x y z
#    x 3.688530 0.000000 0.000000 
#    y 0.000000 3.142820 0.000000 
#    z 0.000000 0.000000 3.531700 
# 
# 
# High freq. dielectric constant tensor:
#      x y z
#    x 1.721910 0.000000 0.000000 
#    y 0.000000 1.706240 0.000000 
#    z 0.000000 0.000000 1.739490 
# 
# From -- ./inp_files/10417.got.cif
#   From: 2010.03.12/outbox.cif.g09.slc.cpg/sg63_6_cif.got.tgz:10417.got - 2010.04.10 19:34:48.
