data_PCOD8257643
_publ_section_title
;
Structure prediction by ZEFSAII (Michael W. Deem and Ramdas Pophale) SiO2 
 PCOD8257643
Probable space group: C M C M
;
_chemical_formula_sum "Si O2"
_cell_formula_units_Z 104
_cell_length_a 27.707103
_cell_length_b 22.616877
_cell_length_c 8.689978
_cell_angle_alpha 90.000000
_cell_angle_beta 90.000000
_cell_angle_gamma 90.000000
_cell_volume 5445.558555
_symmetry_space_group_name_H-M "C M C M"
_symmetry_group_IT_number 63
_symmetry_cell_setting 'orthorhombic'
loop_
_space_group_symop_operation_xyz
x,y,z
-x,-y,1/2+z
x,-y,-z
-x,y,1/2-z
-x,-y,-z
x,y,1/2-z
-x,y,z
x,-y,1/2+z
1/2+x,1/2+y,z
1/2-x,1/2-y,1/2+z
1/2+x,1/2-y,-z
1/2-x,1/2+y,1/2-z
1/2-x,1/2-y,-z
1/2+x,1/2+y,1/2-z
1/2-x,1/2+y,z
1/2+x,1/2-y,1/2+z
loop_
_atom_site_type_symbol
_atom_site_label
_atom_site_fract_x
_atom_site_fract_y
_atom_site_fract_z
Si Si1 0.198777 0.264232 0.574858
Si Si2 0.944530 0.436056 0.931351
Si Si3 0.000000 0.937348 0.574596
Si Si4 0.269511 0.938663 0.568992
Si Si5 0.855702 0.626133 0.567549
Si Si6 0.102735 0.064630 0.069777
Si Si7 0.811943 0.132999 0.923193
O O1 0.205543 0.286945 0.750000
O O2 0.250000 0.250000 0.500000
O O3 0.165596 0.310697 0.484695
O O4 0.172492 0.201208 0.567844
O O5 0.936301 0.438623 0.750000
O O6 0.000000 0.419209 0.971793
O O7 0.931411 0.500000 0.000000
O O8 0.909500 0.385840 0.002734
O O9 0.949633 0.903670 0.537982
O O10 0.000000 0.954791 0.750000
O O11 0.000000 0.000000 0.500000
O O12 0.274711 0.944620 0.750000
O O13 0.321521 0.925998 0.495142
O O14 0.233706 0.884419 0.529272
O O15 0.248846 0.000000 0.500000
O O16 0.857241 0.624760 0.750000
O O17 0.116288 0.063248 0.250000
O O18 0.141065 0.100007 0.975285
O O19 0.101674 0.000000 0.000000
O O20 0.797468 0.114997 0.750000
#
# Coordination Sequence:
#
# PCOD8257643 Si02
#       7
#    16  16   8  16  16  16  16
#     4  11  23  40  62  84 112 150 197 241 285 339
#     4  10  21  39  64  94 127 161 199 246 302 362
#     4   8  16  30  50  76 104 138 178 220 265 322
#     4  12  24  38  57  82 117 153 190 233 286 344
#     4  12  24  39  61  88 120 155 198 243 291 352
#     4  10  19  33  54  80 111 145 183 227 280 335
#     4  11  23  38  56  81 112 146 188 234 284 341
#
# _framework density 19.098133000000001
#
# number of rings (size 3 to 8) (size 9 to 14) (size 15 to 20)
#    0.000    1.231    1.538    5.538    0.000    3.385 
#    0.000    0.000    1.692    0.000    0.000    0.000 
#    0.000    0.000    0.000    0.000    0.000    0.000 
#
# Total GULP energy -644612.956472 kJ/mol
# GULP energy per Si atom -12396.403009 kJ/mol
# Density = 1.905466 g / cm^3
# Si number density = 19.098133 Si / 1000 Ang^3
#
#
#
# Elastic Constant Matrix: (Units=GPa)
#
#
# Indices 1 2 3 4 5 6 
#
# 1 128.2180 46.1306 51.7577 0.0000 0.0000 0.0000
# 2 46.1306 83.5506 49.7753 0.0000 0.0000 0.0000
# 3 51.7577 49.7753 132.7947 0.0000 0.0000 0.0000
# 4 0.0000 0.0000 0.0000 31.2857 0.0000 0.0000
# 5 0.0000 0.0000 0.0000 0.0000 28.2725 0.0000
# 6 0.0000 0.0000 0.0000 0.0000 0.0000 15.4312
#
#
#
# Elastic Compliance Matrix: (Units=1/GPa)
#
#
# Indices 1 2 3 4 5 6 
#
# 1 0.010306 -0.004245 -0.002426 0.000000 0.000000 0.000000
# 2 -0.004245 0.017158 -0.004777 0.000000 0.000000 0.000000
# 3 -0.002426 -0.004777 0.010266 0.000000 0.000000 0.000000
# 4 0.000000 0.000000 0.000000 0.031964 0.000000 0.000000
# 5 0.000000 0.000000 0.000000 0.000000 0.035370 0.000000
# 6 0.000000 0.000000 0.000000 0.000000 0.000000 0.064804
#
#
# Mechanical properties :
#
#
# Convention : Reuss Voigt Hill
#
# Bulk Modulus (GPa) = 67.40635 71.09893 69.25264
# Shear Modulus (GPa) = 25.28984 28.12453 26.70719
#
# Velocity S-wave (km/s) = 3.64291 3.84165 3.74360
# Velocity P-wave (km/s) = 7.28462 7.54896 7.41797
#
# Compressibility (1/GPa) = 0.01483540
#
# Stress axis : x y z
#
# Youngs Moduli (GPa) = 97.03450 58.28035 97.40574
#
# Poissons Ratio (x) = 0.24740 0.23626
# Poissons Ratio (y) = 0.41191 0.46530
# Poissons Ratio (z) = 0.23536 0.27840
#
# Static dielectric constant tensor:
#      x y z
#    x 3.882910 0.000000 0.000000 
#    y 0.000000 3.537150 0.000000 
#    z 0.000000 0.000000 3.675430 
# 
# 
# High freq. dielectric constant tensor:
#      x y z
#    x 1.748840 0.000000 0.000000 
#    y 0.000000 1.724650 0.000000 
#    z 0.000000 0.000000 1.763290 
# 
# From -- ./inp_files/12868.got.cif
#   From: 2010.03.12/outbox.cif.g09.slc.cpg/sg63_7_cif.got.tgz:12868.got - 2010.04.10 19:34:48.
