data_PCOD8257335
_publ_section_title
;
Structure prediction by ZEFSAII (Michael W. Deem and Ramdas Pophale) SiO2 
 PCOD8257335
Probable space group: C M C M
;
_chemical_formula_sum "Si O2"
_cell_formula_units_Z 80
_cell_length_a 9.070081
_cell_length_b 18.977445
_cell_length_c 25.655708
_cell_angle_alpha 90.000000
_cell_angle_beta 90.000000
_cell_angle_gamma 90.000000
_cell_volume 4416.039110
_symmetry_space_group_name_H-M "C M C M"
_symmetry_group_IT_number 63
_symmetry_cell_setting 'orthorhombic'
loop_
_space_group_symop_operation_xyz
x,y,z
-x,-y,1/2+z
x,-y,-z
-x,y,1/2-z
-x,-y,-z
x,y,1/2-z
-x,y,z
x,-y,1/2+z
1/2+x,1/2+y,z
1/2-x,1/2-y,1/2+z
1/2+x,1/2-y,-z
1/2-x,1/2+y,1/2-z
1/2-x,1/2-y,-z
1/2+x,1/2+y,1/2-z
1/2-x,1/2+y,z
1/2+x,1/2-y,1/2+z
loop_
_atom_site_type_symbol
_atom_site_label
_atom_site_fract_x
_atom_site_fract_y
_atom_site_fract_z
Si Si1 0.165616 0.419981 0.250000
Si Si2 0.170047 0.167986 0.549773
Si Si3 0.829795 0.331483 0.555697
Si Si4 0.328476 0.577149 0.647817
Si Si5 0.666997 0.087552 0.250000
Si Si6 0.672969 0.413765 0.853420
O O1 0.245378 0.391750 0.301819
O O2 0.171904 0.503804 0.250000
O O3 0.000000 0.391031 0.250000
O O4 0.192499 0.248850 0.565605
O O5 0.270923 0.147035 0.501083
O O6 0.224513 0.120483 0.597664
O O7 0.000000 0.152578 0.535445
O O8 0.734516 0.372249 0.597692
O O9 0.000000 0.353757 0.560151
O O10 0.500000 0.588196 0.658531
O O11 0.289904 0.495733 0.638100
O O12 0.500000 0.116199 0.250000
O O13 0.749745 0.115864 0.301272
O O14 0.500000 0.400546 0.848105
#
# Coordination Sequence:
#
# PCOD8257335 Si02
#       6
#     8  16  16  16   8  16
#     4   9  17  29  48  75 104 129 155 197 250 293
#     4   9  19  36  54  71  95 131 170 204 243 292
#     4  10  20  34  52  73  99 131 165 204 249 293
#     4   9  18  33  53  74  97 129 167 202 238 288
#     4   9  17  31  50  73 102 131 161 199 244 291
#     4  10  19  32  52  76 101 129 163 202 243 291
#
# _framework density 18.115780999999998
#
# number of rings (size 3 to 8) (size 9 to 14) (size 15 to 20)
#    0.000    2.600    0.000    1.800    0.000    5.600 
#    0.000    5.000    0.000    2.400    0.000    0.000 
#    0.000    0.000    0.000    0.000    0.000    0.000 
#
# Total GULP energy -496096.820432 kJ/mol
# GULP energy per Si atom -12402.420511 kJ/mol
# Density = 1.807455 g / cm^3
# Si number density = 18.115781 Si / 1000 Ang^3
#
#
#
# Elastic Constant Matrix: (Units=GPa)
#
#
# Indices 1 2 3 4 5 6 
#
# 1 103.2275 38.1007 75.8652 0.0000 0.0000 0.0000
# 2 38.1007 44.6550 59.5927 0.0000 0.0000 0.0000
# 3 75.8652 59.5927 157.4057 0.0000 0.0000 0.0000
# 4 0.0000 0.0000 0.0000 -33.5385 0.0000 0.0000
# 5 0.0000 0.0000 0.0000 0.0000 40.1744 0.0000
# 6 0.0000 0.0000 0.0000 0.0000 0.0000 22.7955
#
#
#
# Elastic Compliance Matrix: (Units=1/GPa)
#
#
# Indices 1 2 3 4 5 6 
#
# 1 0.015954 -0.006772 -0.005125 0.000000 0.000000 0.000000
# 2 -0.006772 0.048137 -0.014960 0.000000 0.000000 0.000000
# 3 -0.005125 -0.014960 0.014487 0.000000 0.000000 0.000000
# 4 0.000000 0.000000 0.000000 -0.029816 0.000000 0.000000
# 5 0.000000 0.000000 0.000000 0.000000 0.024891 0.000000
# 6 0.000000 0.000000 0.000000 0.000000 0.000000 0.043868
#
#
# Mechanical properties :
#
#
# Convention : Reuss Voigt Hill
#
# Bulk Modulus (GPa) = 40.22204 72.48947 56.35576
# Shear Modulus (GPa) = 27.85146 14.66825 21.25986
#
# Velocity S-wave (km/s) = 3.92524 2.84860 3.42943
# Velocity P-wave (km/s) = 6.54174 7.13588 6.84526
#
# Compressibility (1/GPa) = 0.02486199
#
# Stress axis : x y z
#
# Youngs Moduli (GPa) = 62.68135 20.77413 69.02705
#
# Poissons Ratio (x) = 0.14069 0.35378
# Poissons Ratio (y) = 0.42450 1.03266
# Poissons Ratio (z) = 0.32126 0.31078
#
# Static dielectric constant tensor:
#      x y z
#    x 3.446540 0.000000 0.000000 
#    y 0.000000 3.111730 0.000000 
#    z 0.000000 0.000000 3.501960 
# 
# 
# High freq. dielectric constant tensor:
#      x y z
#    x 1.710910 0.000000 0.000000 
#    y 0.000000 1.671770 0.000000 
#    z 0.000000 0.000000 1.714790 
# 
# From -- ./inp_files/59544.got.cif
#   From: 2010.03.12/outbox.cif.g09.slc.cpg/sg63_30_cif.got.tgz:59544.got - 2010.04.10 19:34:48.
