data_PCOD8257031
_publ_section_title
;
Structure prediction by ZEFSAII (Michael W. Deem and Ramdas Pophale) SiO2 
 PCOD8257031
Probable space group: C M C M
;
_chemical_formula_sum "Si O2"
_cell_formula_units_Z 80
_cell_length_a 18.477063
_cell_length_b 27.357915
_cell_length_c 8.646835
_cell_angle_alpha 90.000000
_cell_angle_beta 90.000000
_cell_angle_gamma 90.000000
_cell_volume 4370.922511
_symmetry_space_group_name_H-M "C M C M"
_symmetry_group_IT_number 63
_symmetry_cell_setting 'orthorhombic'
loop_
_space_group_symop_operation_xyz
x,y,z
-x,-y,1/2+z
x,-y,-z
-x,y,1/2-z
-x,-y,-z
x,y,1/2-z
-x,y,z
x,-y,1/2+z
1/2+x,1/2+y,z
1/2-x,1/2-y,1/2+z
1/2+x,1/2-y,-z
1/2-x,1/2+y,1/2-z
1/2-x,1/2-y,-z
1/2+x,1/2+y,1/2-z
1/2-x,1/2+y,z
1/2+x,1/2-y,1/2+z
loop_
_atom_site_type_symbol
_atom_site_label
_atom_site_fract_x
_atom_site_fract_y
_atom_site_fract_z
Si Si1 0.920198 0.351999 0.933102
Si Si2 0.416723 0.447549 0.571622
Si Si3 0.660199 0.051276 0.066911
Si Si4 0.778616 0.300142 0.932944
Si Si5 0.290341 0.393861 0.431814
O O1 0.924017 0.349480 0.750000
O O2 0.896342 0.406585 0.982834
O O3 0.860568 0.312614 0.992033
O O4 0.000000 0.340656 0.003800
O O5 0.400748 0.500000 0.500000
O O6 0.392823 0.448190 0.750000
O O7 0.500000 0.432743 0.552648
O O8 0.371952 0.407519 0.476574
O O9 0.668665 0.048077 0.250000
O O10 0.737983 0.063475 0.993770
O O11 0.631551 0.000000 0.000000
O O12 0.777260 0.297343 0.750000
O O13 0.750000 0.250000 0.000000
O O14 0.725458 0.342589 0.987059
O O15 0.281450 0.387889 0.250000
#
# Coordination Sequence:
#
# PCOD8257031 Si02
#       5
#    16  16  16  16  16
#     4   8  16  32  53  76 102 133 169 210 255 301
#     4  10  20  34  52  75 105 139 174 214 261 312
#     4  10  19  31  49  74 105 139 174 211 251 301
#     4  10  20  36  58  80 103 132 169 214 263 314
#     4  11  21  34  53  75 102 135 174 217 258 307
#
# _framework density 18.302772000000001
#
# number of rings (size 3 to 8) (size 9 to 14) (size 15 to 20)
#    0.000    2.200    0.000    5.400    0.000    1.600 
#    0.000    1.000    0.000   24.600    0.000    0.000 
#    0.000    0.000    0.000    0.000    0.000    0.000 
#
# Total GULP energy -495980.996312 kJ/mol
# GULP energy per Si atom -12399.524908 kJ/mol
# Density = 1.826111 g / cm^3
# Si number density = 18.302772 Si / 1000 Ang^3
#
#
#
# Elastic Constant Matrix: (Units=GPa)
#
#
# Indices 1 2 3 4 5 6 
#
# 1 128.4649 74.4243 33.2619 0.0000 0.0000 0.0000
# 2 74.4243 130.4089 34.3362 0.0000 0.0000 0.0000
# 3 33.2619 34.3362 76.5208 0.0000 0.0000 0.0000
# 4 0.0000 0.0000 0.0000 34.4328 0.0000 0.0000
# 5 0.0000 0.0000 0.0000 0.0000 20.3941 0.0000
# 6 0.0000 0.0000 0.0000 0.0000 0.0000 -7.5940
#
#
#
# Elastic Compliance Matrix: (Units=1/GPa)
#
#
# Indices 1 2 3 4 5 6 
#
# 1 0.012016 -0.006217 -0.002433 0.000000 0.000000 0.000000
# 2 -0.006217 0.011912 -0.002643 0.000000 0.000000 0.000000
# 3 -0.002433 -0.002643 0.015312 0.000000 0.000000 0.000000
# 4 0.000000 0.000000 0.000000 0.029042 0.000000 0.000000
# 5 0.000000 0.000000 0.000000 0.000000 0.049034 0.000000
# 6 0.000000 0.000000 0.000000 0.000000 0.000000 -0.131682
#
#
# Mechanical properties :
#
#
# Convention : Reuss Voigt Hill
#
# Bulk Modulus (GPa) = 60.04655 68.82660 64.43658
# Shear Modulus (GPa) = 363.09069 22.33804 192.71437
#
# Velocity S-wave (km/s) = 14.10003 3.49732 10.27234
# Velocity P-wave (km/s) = 17.26151 7.34809 13.26563
#
# Compressibility (1/GPa) = 0.01665374
#
# Stress axis : x y z
#
# Youngs Moduli (GPa) = 83.22319 83.94953 65.30831
#
# Poissons Ratio (x) = 0.52189 0.15893
# Poissons Ratio (y) = 0.51738 0.17260
# Poissons Ratio (z) = 0.20252 0.22186
#
# Static dielectric constant tensor:
#      x y z
#    x 3.617330 0.000000 0.000000 
#    y 0.000000 3.256750 0.000000 
#    z 0.000000 0.000000 3.776920 
# 
# 
# High freq. dielectric constant tensor:
#      x y z
#    x 1.711230 0.000000 0.000000 
#    y 0.000000 1.697660 0.000000 
#    z 0.000000 0.000000 1.708250 
# 
# From -- ./inp_files/6387.got.cif
#   From: 2010.03.12/outbox.cif.g09.slc.cpg/sg63_4_cif.got.tgz:6387.got - 2010.04.10 19:34:48.
