data_PCOD8257922
_publ_section_title
;
Structure prediction by ZEFSAII (Michael W. Deem and Ramdas Pophale) SiO2 
 PCOD8257922
Probable space group: C M C M
;
_chemical_formula_sum "Si O2"
_cell_formula_units_Z 96
_cell_length_a 23.269063
_cell_length_b 11.515490
_cell_length_c 18.130056
_cell_angle_alpha 90.000000
_cell_angle_beta 90.000000
_cell_angle_gamma 90.000000
_cell_volume 4858.033033
_symmetry_space_group_name_H-M "C M C M"
_symmetry_group_IT_number 63
_symmetry_cell_setting 'orthorhombic'
loop_
_space_group_symop_operation_xyz
x,y,z
-x,-y,1/2+z
x,-y,-z
-x,y,1/2-z
-x,-y,-z
x,y,1/2-z
-x,y,z
x,-y,1/2+z
1/2+x,1/2+y,z
1/2-x,1/2-y,1/2+z
1/2+x,1/2-y,-z
1/2-x,1/2+y,1/2-z
1/2-x,1/2-y,-z
1/2+x,1/2+y,1/2-z
1/2-x,1/2+y,z
1/2+x,1/2-y,1/2+z
loop_
_atom_site_type_symbol
_atom_site_label
_atom_site_fract_x
_atom_site_fract_y
_atom_site_fract_z
Si Si1 0.645831 0.928375 0.165638
Si Si2 0.272098 0.859707 0.664908
Si Si3 0.064158 0.570472 0.074737
Si Si4 0.065051 0.997345 0.912562
Si Si5 0.140950 0.209950 0.576792
Si Si6 0.843257 0.813865 0.910984
O O1 0.640633 0.887287 0.250000
O O2 0.654074 0.819411 0.112817
O O3 0.698785 0.015533 0.153729
O O4 0.588595 0.996660 0.142846
O O5 0.265109 0.826638 0.750000
O O6 0.308108 0.753441 0.629688
O O7 0.210283 0.874782 0.628221
O O8 0.096616 0.688708 0.060379
O O9 0.000000 0.602887 0.096719
O O10 0.068225 0.500000 0.000000
O O11 0.097647 0.879311 0.887727
O O12 0.000000 0.001020 0.878557
O O13 0.104741 0.105186 0.885727
O O14 0.059636 0.000000 0.000000
O O15 0.167822 0.172848 0.498389
#
# Coordination Sequence:
#
# PCOD8257922 Si02
#       6
#    16  16  16  16  16  16
#     4  10  22  39  57  85 120 155 196 245 301 358
#     4  10  23  39  58  83 117 155 195 247 305 356
#     4  10  19  34  59  87 117 154 197 244 294 348
#     4   9  20  37  59  89 122 155 195 244 298 352
#     4  10  20  38  61  89 116 155 201 248 291 355
#     4  11  21  37  60  89 118 156 200 245 298 359
#
# _framework density 19.761082999999999
#
# number of rings (size 3 to 8) (size 9 to 14) (size 15 to 20)
#    0.000    2.000    1.667    1.500    2.333    1.667 
#    3.000    0.833    0.000    5.000    0.000    0.000 
#    0.000    0.000    0.000    0.000    0.000    0.000 
#
# Total GULP energy -595219.283889 kJ/mol
# GULP energy per Si atom -12400.401748 kJ/mol
# Density = 1.971611 g / cm^3
# Si number density = 19.761083 Si / 1000 Ang^3
#
#
#
# Elastic Constant Matrix: (Units=GPa)
#
#
# Indices 1 2 3 4 5 6 
#
# 1 142.5667 39.6333 53.1994 0.0000 0.0000 0.0000
# 2 39.6333 78.9883 31.8050 0.0000 0.0000 0.0000
# 3 53.1994 31.8050 82.1934 0.0000 0.0000 0.0000
# 4 0.0000 0.0000 0.0000 18.7347 0.0000 0.0000
# 5 0.0000 0.0000 0.0000 0.0000 22.5402 0.0000
# 6 0.0000 0.0000 0.0000 0.0000 0.0000 0.7634
#
#
#
# Elastic Compliance Matrix: (Units=1/GPa)
#
#
# Indices 1 2 3 4 5 6 
#
# 1 0.009738 -0.002782 -0.005226 0.000000 0.000000 0.000000
# 2 -0.002782 0.015791 -0.004310 0.000000 0.000000 0.000000
# 3 -0.005226 -0.004310 0.017217 0.000000 0.000000 0.000000
# 4 0.000000 0.000000 0.000000 0.053377 0.000000 0.000000
# 5 0.000000 0.000000 0.000000 0.000000 0.044365 0.000000
# 6 0.000000 0.000000 0.000000 0.000000 0.000000 1.310000
#
#
# Mechanical properties :
#
#
# Convention : Reuss Voigt Hill
#
# Bulk Modulus (GPa) = 55.21852 61.44707 58.33279
# Shear Modulus (GPa) = 3.37573 20.34839 11.86206
#
# Velocity S-wave (km/s) = 1.30843 3.21241 2.45271
# Velocity P-wave (km/s) = 5.50330 6.70238 6.13222
#
# Compressibility (1/GPa) = 0.01810987
#
# Stress axis : x y z
#
# Youngs Moduli (GPa) = 102.69266 63.32606 58.08214
#
# Poissons Ratio (x) = 0.17615 0.30356
# Poissons Ratio (y) = 0.28565 0.25034
# Poissons Ratio (z) = 0.53671 0.27294
#
# Static dielectric constant tensor:
#      x y z
#    x 3.821160 0.000000 0.000000 
#    y 0.000000 3.676050 0.000000 
#    z 0.000000 0.000000 3.453230 
# 
# 
# High freq. dielectric constant tensor:
#      x y z
#    x 1.778230 0.000000 0.000000 
#    y 0.000000 1.779570 0.000000 
#    z 0.000000 0.000000 1.748960 
# 
# From -- ./inp_files/56532.got.cif
#   From: 2010.03.12/outbox.cif.g09.slc.cpg/sg63_29_cif.got.tgz:56532.got - 2010.04.10 19:34:48.
