data_PCOD8257371
_publ_section_title
;
Structure prediction by ZEFSAII (Michael W. Deem and Ramdas Pophale) SiO2 
 PCOD8257371
Probable space group: C M C M
;
_chemical_formula_sum "Si O2"
_cell_formula_units_Z 80
_cell_length_a 21.334492
_cell_length_b 12.459025
_cell_length_c 16.646554
_cell_angle_alpha 90.000000
_cell_angle_beta 90.000000
_cell_angle_gamma 90.000000
_cell_volume 4424.770066
_symmetry_space_group_name_H-M "C M C M"
_symmetry_group_IT_number 63
_symmetry_cell_setting 'orthorhombic'
loop_
_space_group_symop_operation_xyz
x,y,z
-x,-y,1/2+z
x,-y,-z
-x,y,1/2-z
-x,-y,-z
x,y,1/2-z
-x,y,z
x,-y,1/2+z
1/2+x,1/2+y,z
1/2-x,1/2-y,1/2+z
1/2+x,1/2-y,-z
1/2-x,1/2+y,1/2-z
1/2-x,1/2-y,-z
1/2+x,1/2+y,1/2-z
1/2-x,1/2+y,z
1/2+x,1/2-y,1/2+z
loop_
_atom_site_type_symbol
_atom_site_label
_atom_site_fract_x
_atom_site_fract_y
_atom_site_fract_z
Si Si1 0.839399 0.471870 0.907196
Si Si2 0.303684 0.247727 0.346244
Si Si3 0.930626 0.360590 0.155991
Si Si4 0.799569 0.023106 0.593754
Si Si5 0.665379 0.309015 0.656238
O O1 0.845215 0.344932 0.888208
O O2 0.895292 0.527831 0.859120
O O3 0.772046 0.513440 0.874362
O O4 0.847609 0.500000 0.000000
O O5 0.310538 0.243448 0.250000
O O6 0.327114 0.361443 0.381450
O O7 0.232344 0.231662 0.376618
O O8 0.937963 0.343376 0.250000
O O9 0.890080 0.262692 0.117354
O O10 0.000000 0.362018 0.116226
O O11 0.801784 0.000000 0.500000
O O12 0.843589 0.934196 0.635703
O O13 0.663846 0.290733 0.750000
#
# Coordination Sequence:
#
# PCOD8257371 Si02
#       5
#    16  16  16  16  16
#     4  10  21  32  52  78 110 137 170 213 265 316
#     4  10  19  32  52  78 108 138 169 212 266 318
#     4  10  20  35  54  74 101 138 180 218 251 303
#     4  10  20  30  51  78 109 137 166 210 268 315
#     4   9  18  31  50  74 102 135 172 210 255 309
#
# _framework density 18.080036
#
# number of rings (size 3 to 8) (size 9 to 14) (size 15 to 20)
#    0.000    2.200    2.000    1.200    2.800    4.400 
#    0.000    0.000    0.000    1.800    0.000    2.800 
#    0.000    0.000    0.000    0.000    0.000    0.000 
#
# Total GULP energy -495915.040052 kJ/mol
# GULP energy per Si atom -12397.876001 kJ/mol
# Density = 1.803889 g / cm^3
# Si number density = 18.080036 Si / 1000 Ang^3
#
#
#
# Elastic Constant Matrix: (Units=GPa)
#
#
# Indices 1 2 3 4 5 6 
#
# 1 96.7632 59.2115 16.1742 0.0000 0.0000 0.0000
# 2 59.2115 181.4459 30.5430 0.0000 0.0000 0.0000
# 3 16.1742 30.5430 45.2846 0.0000 0.0000 0.0000
# 4 0.0000 0.0000 0.0000 30.3340 0.0000 0.0000
# 5 0.0000 0.0000 0.0000 0.0000 11.0664 0.0000
# 6 0.0000 0.0000 0.0000 0.0000 0.0000 15.4522
#
#
#
# Elastic Compliance Matrix: (Units=1/GPa)
#
#
# Indices 1 2 3 4 5 6 
#
# 1 0.013075 -0.003927 -0.002022 0.000000 0.000000 0.000000
# 2 -0.003927 0.007396 -0.003586 0.000000 0.000000 0.000000
# 3 -0.002022 -0.003586 0.025223 0.000000 0.000000 0.000000
# 4 0.000000 0.000000 0.000000 0.032966 0.000000 0.000000
# 5 0.000000 0.000000 0.000000 0.000000 0.090364 0.000000
# 6 0.000000 0.000000 0.000000 0.000000 0.000000 0.064716
#
#
# Mechanical properties :
#
#
# Convention : Reuss Voigt Hill
#
# Bulk Modulus (GPa) = 37.55714 59.48345 48.52029
# Shear Modulus (GPa) = 19.10696 25.87486 22.49091
#
# Velocity S-wave (km/s) = 3.25437 3.78713 3.53081
# Velocity P-wave (km/s) = 5.91093 7.21766 6.59673
#
# Compressibility (1/GPa) = 0.02662610
#
# Stress axis : x y z
#
# Youngs Moduli (GPa) = 76.48090 135.20300 39.64575
#
# Poissons Ratio (x) = 0.53088 0.08015
# Poissons Ratio (y) = 0.30030 0.14217
# Poissons Ratio (z) = 0.15462 0.48486
#
# Static dielectric constant tensor:
#      x y z
#    x 3.292130 0.000000 0.000000 
#    y 0.000000 3.558370 0.000000 
#    z 0.000000 0.000000 3.150560 
# 
# 
# High freq. dielectric constant tensor:
#      x y z
#    x 1.651900 0.000000 0.000000 
#    y 0.000000 1.714400 0.000000 
#    z 0.000000 0.000000 1.690970 
# 
# From -- ./inp_files/36449.got.cif
#   From: 2010.03.12/outbox.cif.g09.slc.cpg/sg63_19_cif.got.tgz:36449.got - 2010.04.10 19:34:48.
