data_PCOD8257971
_publ_section_title
;
Structure prediction by ZEFSAII (Michael W. Deem and Ramdas Pophale) SiO2 
 PCOD8257971
Probable space group: C M C M
;
_chemical_formula_sum "Si O2"
_cell_formula_units_Z 112
_cell_length_a 27.304874
_cell_length_b 15.886063
_cell_length_c 14.592603
_cell_angle_alpha 90.000000
_cell_angle_beta 90.000000
_cell_angle_gamma 90.000000
_cell_volume 6329.788875
_symmetry_space_group_name_H-M "C M C M"
_symmetry_group_IT_number 63
_symmetry_cell_setting 'orthorhombic'
loop_
_space_group_symop_operation_xyz
x,y,z
-x,-y,1/2+z
x,-y,-z
-x,y,1/2-z
-x,-y,-z
x,y,1/2-z
-x,y,z
x,-y,1/2+z
1/2+x,1/2+y,z
1/2-x,1/2-y,1/2+z
1/2+x,1/2-y,-z
1/2-x,1/2+y,1/2-z
1/2-x,1/2-y,-z
1/2+x,1/2+y,1/2-z
1/2-x,1/2+y,z
1/2+x,1/2-y,1/2+z
loop_
_atom_site_type_symbol
_atom_site_label
_atom_site_fract_x
_atom_site_fract_y
_atom_site_fract_z
Si Si1 0.264174 0.632687 0.150043
Si Si2 0.641065 0.743269 0.529124
Si Si3 0.055705 0.996098 0.392704
Si Si4 0.872674 0.858735 0.650663
Si Si5 0.698072 0.908620 0.009074
Si Si6 0.055108 0.192137 0.646249
Si Si7 0.266583 0.681336 0.857823
O O1 0.240677 0.616437 0.250000
O O2 0.319290 0.598929 0.145199
O O3 0.234271 0.582918 0.076138
O O4 0.263924 0.732800 0.129053
O O5 0.621593 0.702866 0.434977
O O6 0.657716 0.837523 0.506795
O O7 0.593042 0.750469 0.592007
O O8 0.683313 0.689881 0.582338
O O9 0.072653 0.904722 0.358232
O O10 0.000000 0.013443 0.363076
O O11 0.063139 0.000000 0.500000
O O12 0.088199 0.067108 0.346805
O O13 0.877324 0.811131 0.750000
O O14 0.731100 0.890761 0.100054
O O15 0.672027 0.000000 0.000000
O O16 0.055478 0.223880 0.750000
O O17 0.000000 0.200383 0.604773
O O18 0.277920 0.662529 0.750000
#
# Coordination Sequence:
#
# PCOD8257971 Si02
#       7
#    16  16  16  16  16  16  16
#     4   9  18  34  52  73 100 138 181 215 258 310
#     4  11  20  37  56  78 106 142 182 219 264 315
#     4  10  20  34  52  78 112 143 171 214 264 312
#     4  11  20  31  53  76 105 145 182 215 255 311
#     4  11  22  35  53  78 108 139 178 226 269 312
#     4  10  21  37  57  79 106 140 177 218 264 316
#     4  10  19  35  56  75 102 141 178 221 264 312
#
# _framework density 17.694113000000002
#
# number of rings (size 3 to 8) (size 9 to 14) (size 15 to 20)
#    0.000    1.714    4.286    1.714    0.000    3.714 
#    0.000    1.429    0.000    0.429    0.000    0.000 
#    0.000    0.000    0.000    0.000    0.000    0.000 
#
# Total GULP energy -694047.345345 kJ/mol
# GULP energy per Si atom -12393.702595 kJ/mol
# Density = 1.765384 g / cm^3
# Si number density = 17.694113 Si / 1000 Ang^3
#
#
#
# Elastic Constant Matrix: (Units=GPa)
#
#
# Indices 1 2 3 4 5 6 
#
# 1 87.6960 37.7564 32.4645 0.0000 0.0000 0.0000
# 2 37.7564 76.6135 30.7678 0.0000 0.0000 0.0000
# 3 32.4645 30.7678 101.1538 0.0000 0.0000 0.0000
# 4 0.0000 0.0000 0.0000 17.3661 0.0000 0.0000
# 5 0.0000 0.0000 0.0000 0.0000 25.1035 0.0000
# 6 0.0000 0.0000 0.0000 0.0000 0.0000 26.7636
#
#
#
# Elastic Compliance Matrix: (Units=1/GPa)
#
#
# Indices 1 2 3 4 5 6 
#
# 1 0.015217 -0.006308 -0.002965 0.000000 0.000000 0.000000
# 2 -0.006308 0.017484 -0.003293 0.000000 0.000000 0.000000
# 3 -0.002965 -0.003293 0.011839 0.000000 0.000000 0.000000
# 4 0.000000 0.000000 0.000000 0.057584 0.000000 0.000000
# 5 0.000000 0.000000 0.000000 0.000000 0.039835 0.000000
# 6 0.000000 0.000000 0.000000 0.000000 0.000000 0.037364
#
#
# Mechanical properties :
#
#
# Convention : Reuss Voigt Hill
#
# Bulk Modulus (GPa) = 51.52897 51.93787 51.73342
# Shear Modulus (GPa) = 23.70513 24.81160 24.25837
#
# Velocity S-wave (km/s) = 3.66419 3.74873 3.70670
# Velocity P-wave (km/s) = 6.86200 6.93932 6.90077
#
# Compressibility (1/GPa) = 0.01940656
#
# Stress axis : x y z
#
# Youngs Moduli (GPa) = 65.71790 57.19512 84.46474
#
# Poissons Ratio (x) = 0.36080 0.25043
# Poissons Ratio (y) = 0.41457 0.27818
# Poissons Ratio (z) = 0.19484 0.18837
#
# Static dielectric constant tensor:
#      x y z
#    x 3.251050 0.000000 0.000000 
#    y 0.000000 2.977100 0.000000 
#    z 0.000000 0.000000 3.587480 
# 
# 
# High freq. dielectric constant tensor:
#      x y z
#    x 1.670000 0.000000 0.000000 
#    y 0.000000 1.645570 0.000000 
#    z 0.000000 0.000000 1.709630 
# 
# From -- ./inp_files/37953.got.cif
#   From: 2010.03.12/outbox.cif.g09.slc.cpg/sg63_19_cif.got.tgz:37953.got - 2010.04.10 19:34:48.
