data_PCOD8257982
_publ_section_title
;
Structure prediction by ZEFSAII (Michael W. Deem and Ramdas Pophale) SiO2 
 PCOD8257982
Probable space group: C M C M
;
_chemical_formula_sum "Si O2"
_cell_formula_units_Z 96
_cell_length_a 8.826039
_cell_length_b 20.603365
_cell_length_c 28.533334
_cell_angle_alpha 90.000000
_cell_angle_beta 90.000000
_cell_angle_gamma 90.000000
_cell_volume 5188.675594
_symmetry_space_group_name_H-M "C M C M"
_symmetry_group_IT_number 63
_symmetry_cell_setting 'orthorhombic'
loop_
_space_group_symop_operation_xyz
x,y,z
-x,-y,1/2+z
x,-y,-z
-x,y,1/2-z
-x,-y,-z
x,y,1/2-z
-x,y,z
x,-y,1/2+z
1/2+x,1/2+y,z
1/2-x,1/2-y,1/2+z
1/2+x,1/2-y,-z
1/2-x,1/2+y,1/2-z
1/2-x,1/2-y,-z
1/2+x,1/2+y,1/2-z
1/2-x,1/2+y,z
1/2+x,1/2-y,1/2+z
loop_
_atom_site_type_symbol
_atom_site_label
_atom_site_fract_x
_atom_site_fract_y
_atom_site_fract_z
Si Si1 0.678769 0.736209 0.600344
Si Si2 0.820221 0.050679 0.801037
Si Si3 0.677582 0.872595 0.942001
Si Si4 0.820553 0.004938 0.397090
Si Si5 0.321736 0.113911 0.549962
Si Si6 0.179394 0.803335 0.300597
O O1 0.500000 0.724382 0.595642
O O2 0.730009 0.801813 0.575134
O O3 0.761578 0.676196 0.576839
O O4 0.729828 0.740466 0.655181
O O5 0.764160 0.024114 0.750000
O O6 0.760401 0.006828 0.843910
O O7 0.758460 0.123725 0.808378
O O8 0.000000 0.051656 0.801911
O O9 0.500000 0.883446 0.933846
O O10 0.768324 0.923988 0.911360
O O11 0.723483 0.879479 0.995836
O O12 0.751711 0.951967 0.431821
O O13 0.000000 0.999330 0.400153
O O14 0.500000 0.109192 0.556792
O O15 0.240080 0.776287 0.250000
O O16 0.000000 0.806016 0.298488
#
# Coordination Sequence:
#
# PCOD8257982 Si02
#       6
#    16  16  16  16  16  16
#     4  10  19  35  57  79 104 136 178 217 253 310
#     4   8  14  27  50  79 104 127 165 216 263 305
#     4  10  23  38  51  74 112 147 171 213 271 314
#     4  11  21  35  57  81 103 136 182 221 254 308
#     4  11  22  36  54  76 106 142 177 217 268 312
#     4   8  13  25  50  80 103 126 164 214 261 305
#
# _framework density 18.501832
#
# number of rings (size 3 to 8) (size 9 to 14) (size 15 to 20)
#    0.000    2.333    1.667    3.000    0.000    4.000 
#    0.000    0.833    0.000    4.500    0.000    0.000 
#    0.000    0.000    0.000    0.000    0.000    0.000 
#
# Total GULP energy -594970.262678 kJ/mol
# GULP energy per Si atom -12395.213806 kJ/mol
# Density = 1.845972 g / cm^3
# Si number density = 18.501832 Si / 1000 Ang^3
#
#
#
# Elastic Constant Matrix: (Units=GPa)
#
#
# Indices 1 2 3 4 5 6 
#
# 1 27.5218 9.7817 17.6359 0.0000 0.0000 0.0000
# 2 9.7817 55.9600 19.7547 0.0000 0.0000 0.0000
# 3 17.6359 19.7547 125.5657 0.0000 0.0000 0.0000
# 4 0.0000 0.0000 0.0000 5.8503 0.0000 0.0000
# 5 0.0000 0.0000 0.0000 0.0000 13.2890 0.0000
# 6 0.0000 0.0000 0.0000 0.0000 0.0000 28.8047
#
#
#
# Elastic Compliance Matrix: (Units=1/GPa)
#
#
# Indices 1 2 3 4 5 6 
#
# 1 0.041467 -0.005498 -0.004959 0.000000 0.000000 0.000000
# 2 -0.005498 0.019650 -0.002319 0.000000 0.000000 0.000000
# 3 -0.004959 -0.002319 0.009025 0.000000 0.000000 0.000000
# 4 0.000000 0.000000 0.000000 0.170931 0.000000 0.000000
# 5 0.000000 0.000000 0.000000 0.000000 0.075250 0.000000
# 6 0.000000 0.000000 0.000000 0.000000 0.000000 0.034717
#
#
# Mechanical properties :
#
#
# Convention : Reuss Voigt Hill
#
# Bulk Modulus (GPa) = 22.42678 33.71021 28.06849
# Shear Modulus (GPa) = 12.77288 20.38049 16.57668
#
# Velocity S-wave (km/s) = 2.63032 3.32254 2.99649
# Velocity P-wave (km/s) = 4.62303 5.74270 5.21301
#
# Compressibility (1/GPa) = 0.04458956
#
# Stress axis : x y z
#
# Youngs Moduli (GPa) = 24.11583 50.89158 110.79901
#
# Poissons Ratio (x) = 0.27978 0.54947
# Poissons Ratio (y) = 0.13258 0.25697
# Poissons Ratio (z) = 0.11959 0.11803
#
# Static dielectric constant tensor:
#      x y z
#    x 3.095870 0.000000 0.000000 
#    y 0.000000 3.321810 0.000000 
#    z 0.000000 0.000000 4.114830 
# 
# 
# High freq. dielectric constant tensor:
#      x y z
#    x 1.685290 0.000000 0.000000 
#    y 0.000000 1.701330 0.000000 
#    z 0.000000 0.000000 1.743620 
# 
# From -- ./inp_files/66915.got.cif
#   From: 2010.03.12/outbox.cif.g09.slc.cpg/sg63_34_cif.got.tgz:66915.got - 2010.04.10 19:34:48.
