data_PCOD8257207
_publ_section_title
;
Structure prediction by ZEFSAII (Michael W. Deem and Ramdas Pophale) SiO2 
 PCOD8257207
Probable space group: C M C M
;
_chemical_formula_sum "Si O2"
_cell_formula_units_Z 104
_cell_length_a 28.207551
_cell_length_b 24.193750
_cell_length_c 8.876389
_cell_angle_alpha 90.000000
_cell_angle_beta 90.000000
_cell_angle_gamma 90.000000
_cell_volume 6057.660047
_symmetry_space_group_name_H-M "C M C M"
_symmetry_group_IT_number 63
_symmetry_cell_setting 'orthorhombic'
loop_
_space_group_symop_operation_xyz
x,y,z
-x,-y,1/2+z
x,-y,-z
-x,y,1/2-z
-x,-y,-z
x,y,1/2-z
-x,y,z
x,-y,1/2+z
1/2+x,1/2+y,z
1/2-x,1/2-y,1/2+z
1/2+x,1/2-y,-z
1/2-x,1/2+y,1/2-z
1/2-x,1/2-y,-z
1/2+x,1/2+y,1/2-z
1/2-x,1/2+y,z
1/2+x,1/2-y,1/2+z
loop_
_atom_site_type_symbol
_atom_site_label
_atom_site_fract_x
_atom_site_fract_y
_atom_site_fract_z
Si Si1 0.587554 0.621623 0.426732
Si Si2 0.378344 0.060006 0.572670
Si Si3 0.000000 0.060012 0.570974
Si Si4 0.945672 0.758990 0.577624
Si Si5 0.327156 0.560644 0.572088
Si Si6 0.775755 0.557633 0.922946
Si Si7 0.944683 0.351853 0.924291
O O1 0.581672 0.608329 0.250000
O O2 0.546532 0.591546 0.517811
O O3 0.585499 0.687134 0.457167
O O4 0.637802 0.601871 0.488150
O O5 0.385006 0.053605 0.750000
O O6 0.325910 0.085880 0.529609
O O7 0.417960 0.100809 0.513401
O O8 0.385123 0.000000 0.500000
O O9 0.000000 0.055428 0.750000
O O10 0.000000 0.000000 0.500000
O O11 0.940385 0.740249 0.750000
O O12 0.927037 0.708641 0.475764
O O13 0.000000 0.774013 0.539675
O O14 0.332211 0.500000 0.500000
O O15 0.338669 0.556642 0.750000
O O16 0.274480 0.588008 0.543943
O O17 0.779447 0.543366 0.750000
O O18 0.771353 0.500000 0.000000
O O19 0.933387 0.358873 0.750000
O O20 0.000000 0.358294 0.961483
#
# Coordination Sequence:
#
# PCOD8257207 Si02
#       7
#    16  16   8  16  16  16  16
#     4  11  21  35  52  73 100 131 169 213 257 306
#     4  10  19  33  54  79 106 137 168 203 248 298
#     4  12  24  36  50  70 100 136 171 210 261 310
#     4   9  18  35  55  72  94 129 170 210 251 298
#     4  10  19  32  49  73 102 133 168 209 255 304
#     4   8  16  30  49  72  99 130 167 206 246 295
#     4  10  21  35  52  77 106 134 166 206 247 296
#
# _framework density 17.168344999999999
#
# number of rings (size 3 to 8) (size 9 to 14) (size 15 to 20)
#    0.000    2.154    0.769    3.000    0.000    3.692 
#    0.000    0.000    0.000    0.923    0.000    0.000 
#    0.000    0.000    0.000    0.000    0.000    0.000 
#
# Total GULP energy -644420.248176 kJ/mol
# GULP energy per Si atom -12392.697080 kJ/mol
# Density = 1.712927 g / cm^3
# Si number density = 17.168345 Si / 1000 Ang^3
#
#
#
# Elastic Constant Matrix: (Units=GPa)
#
#
# Indices 1 2 3 4 5 6 
#
# 1 96.8923 62.3944 55.4368 0.0000 0.0000 0.0000
# 2 62.3944 98.0489 54.1552 0.0000 0.0000 0.0000
# 3 55.4368 54.1552 97.5381 0.0000 0.0000 0.0000
# 4 0.0000 0.0000 0.0000 29.2994 0.0000 0.0000
# 5 0.0000 0.0000 0.0000 0.0000 21.2758 0.0000
# 6 0.0000 0.0000 0.0000 0.0000 0.0000 -8.8355
#
#
#
# Elastic Compliance Matrix: (Units=1/GPa)
#
#
# Indices 1 2 3 4 5 6 
#
# 1 0.019731 -0.009176 -0.006120 0.000000 0.000000 0.000000
# 2 -0.009176 0.018977 -0.005321 0.000000 0.000000 0.000000
# 3 -0.006120 -0.005321 0.016685 0.000000 0.000000 0.000000
# 4 0.000000 0.000000 0.000000 0.034130 0.000000 0.000000
# 5 0.000000 0.000000 0.000000 0.000000 0.047002 0.000000
# 6 0.000000 0.000000 0.000000 0.000000 0.000000 -0.113179
#
#
# Mechanical properties :
#
#
# Convention : Reuss Voigt Hill
#
# Bulk Modulus (GPa) = 70.62386 70.71687 70.67037
# Shear Modulus (GPa) = 72.15003 16.38079 44.26541
#
# Velocity S-wave (km/s) = 6.48970 3.09225 5.08322
# Velocity P-wave (km/s) = 9.86815 7.35044 8.70085
#
# Compressibility (1/GPa) = 0.01415952
#
# Stress axis : x y z
#
# Youngs Moduli (GPa) = 50.68168 52.69443 59.93379
#
# Poissons Ratio (x) = 0.48352 0.36677
# Poissons Ratio (y) = 0.46505 0.31893
# Poissons Ratio (z) = 0.31015 0.28041
#
# Static dielectric constant tensor:
#      x y z
#    x 3.648170 0.000000 0.000000 
#    y 0.000000 3.535320 0.000000 
#    z 0.000000 0.000000 3.373510 
# 
# 
# High freq. dielectric constant tensor:
#      x y z
#    x 1.667860 0.000000 0.000000 
#    y 0.000000 1.636630 0.000000 
#    z 0.000000 0.000000 1.678590 
# 
# From -- ./inp_files/12843.got.cif
#   From: 2010.03.12/outbox.cif.g09.slc.cpg/sg63_7_cif.got.tgz:12843.got - 2010.04.10 19:34:48.
