data_PCOD8257271
_publ_section_title
;
Structure prediction by ZEFSAII (Michael W. Deem and Ramdas Pophale) SiO2 
 PCOD8257271
Probable space group: C M C M
;
_chemical_formula_sum "Si O2"
_cell_formula_units_Z 104
_cell_length_a 20.083732
_cell_length_b 32.182220
_cell_length_c 9.405653
_cell_angle_alpha 90.000000
_cell_angle_beta 90.000000
_cell_angle_gamma 90.000000
_cell_volume 6079.241122
_symmetry_space_group_name_H-M "C M C M"
_symmetry_group_IT_number 63
_symmetry_cell_setting 'orthorhombic'
loop_
_space_group_symop_operation_xyz
x,y,z
-x,-y,1/2+z
x,-y,-z
-x,y,1/2-z
-x,-y,-z
x,y,1/2-z
-x,y,z
x,-y,1/2+z
1/2+x,1/2+y,z
1/2-x,1/2-y,1/2+z
1/2+x,1/2-y,-z
1/2-x,1/2+y,1/2-z
1/2-x,1/2-y,-z
1/2+x,1/2+y,1/2-z
1/2-x,1/2+y,z
1/2+x,1/2-y,1/2+z
loop_
_atom_site_type_symbol
_atom_site_label
_atom_site_fract_x
_atom_site_fract_y
_atom_site_fract_z
Si Si1 0.575582 0.816110 0.913117
Si Si2 0.808584 0.623202 0.084545
Si Si3 0.134387 0.916215 0.410513
Si Si4 0.671157 0.660921 0.084772
Si Si5 0.000000 0.039939 0.910568
Si Si6 0.076251 0.766124 0.582796
Si Si7 0.769516 0.457951 0.416799
O O1 0.586868 0.802955 0.750000
O O2 0.500000 0.830594 0.940853
O O3 0.622063 0.854887 0.953598
O O4 0.594404 0.776961 0.008618
O O5 0.804475 0.609634 0.250000
O O6 0.750356 0.657421 0.051205
O O7 0.805012 0.582170 0.987032
O O8 0.138761 0.899143 0.250000
O O9 0.138291 0.878864 0.517607
O O10 0.190519 0.951293 0.434530
O O11 0.063991 0.934213 0.449748
O O12 0.656636 0.658907 0.250000
O O13 0.632196 0.701437 0.025448
O O14 0.000000 0.025258 0.750000
O O15 0.000000 0.000000 0.000000
O O16 0.083088 0.759172 0.750000
O O17 0.000000 0.780076 0.544317
O O18 0.790313 0.500000 0.500000
O O19 0.789791 0.461512 0.250000
#
# Coordination Sequence:
#
# PCOD8257271 Si02
#       7
#    16  16  16  16   8  16  16
#     4   9  18  33  52  73  96 125 159 193 237 291
#     4   9  18  33  51  72  98 125 157 198 240 284
#     4   9  19  32  45  65  93 124 159 201 242 280
#     4   9  18  31  47  68  94 126 163 199 239 281
#     4  10  20  32  44  62  88 120 160 202 244 284
#     4   9  18  31  46  67  97 130 164 200 236 279
#     4  10  19  32  51  73  97 125 158 194 236 285
#
# _framework density 17.107398
#
# number of rings (size 3 to 8) (size 9 to 14) (size 15 to 20)
#    0.000    2.769    0.000    0.923    1.077    3.077 
#    0.000    0.000    0.000    0.462    0.000    0.000 
#    0.000    0.000    0.000    0.000    0.000    0.000 
#
# Total GULP energy -644510.780355 kJ/mol
# GULP energy per Si atom -12394.438084 kJ/mol
# Density = 1.706846 g / cm^3
# Si number density = 17.107398 Si / 1000 Ang^3
#
#
#
# Elastic Constant Matrix: (Units=GPa)
#
#
# Indices 1 2 3 4 5 6 
#
# 1 95.7853 63.1431 40.0758 0.0000 0.0000 0.0000
# 2 63.1431 99.2049 46.4130 0.0000 0.0000 0.0000
# 3 40.0758 46.4130 45.7706 0.0000 0.0000 0.0000
# 4 0.0000 0.0000 0.0000 34.7503 0.0000 0.0000
# 5 0.0000 0.0000 0.0000 0.0000 18.7041 0.0000
# 6 0.0000 0.0000 0.0000 0.0000 0.0000 21.7341
#
#
#
# Elastic Compliance Matrix: (Units=1/GPa)
#
#
# Indices 1 2 3 4 5 6 
#
# 1 0.019615 -0.008466 -0.008589 0.000000 0.000000 0.000000
# 2 -0.008466 0.022833 -0.015741 0.000000 0.000000 0.000000
# 3 -0.008589 -0.015741 0.045330 0.000000 0.000000 0.000000
# 4 0.000000 0.000000 0.000000 0.028777 0.000000 0.000000
# 5 0.000000 0.000000 0.000000 0.000000 0.053464 0.000000
# 6 0.000000 0.000000 0.000000 0.000000 0.000000 0.046011
#
#
# Mechanical properties :
#
#
# Convention : Reuss Voigt Hill
#
# Bulk Modulus (GPa) = 45.07392 60.00275 52.53834
# Shear Modulus (GPa) = 17.30000 21.11295 19.20647
#
# Velocity S-wave (km/s) = 3.18348 3.51685 3.35431
# Velocity P-wave (km/s) = 6.31803 7.18618 6.76605
#
# Compressibility (1/GPa) = 0.02218578
#
# Stress axis : x y z
#
# Youngs Moduli (GPa) = 50.98223 43.79611 22.06027
#
# Poissons Ratio (x) = 0.37078 0.18948
# Poissons Ratio (y) = 0.43162 0.34725
# Poissons Ratio (z) = 0.43790 0.68939
#
# Static dielectric constant tensor:
#      x y z
#    x 3.214220 0.000000 0.000000 
#    y 0.000000 3.038410 0.000000 
#    z 0.000000 0.000000 3.238420 
# 
# 
# High freq. dielectric constant tensor:
#      x y z
#    x 1.655020 0.000000 0.000000 
#    y 0.000000 1.649540 0.000000 
#    z 0.000000 0.000000 1.663200 
# 
# From -- ./inp_files/9111.got.cif
#   From: 2010.03.12/outbox.cif.g09.slc.cpg/sg63_5_cif.got.tgz:9111.got - 2010.04.10 19:34:48.
