data_PCOD8257266
_publ_section_title
;
Structure prediction by ZEFSAII (Michael W. Deem and Ramdas Pophale) SiO2 
 PCOD8257266
Probable space group: C M C M
;
_chemical_formula_sum "Si O2"
_cell_formula_units_Z 128
_cell_length_a 18.184557
_cell_length_b 22.955403
_cell_length_c 17.269792
_cell_angle_alpha 90.000000
_cell_angle_beta 90.000000
_cell_angle_gamma 90.000000
_cell_volume 7208.995492
_symmetry_space_group_name_H-M "C M C M"
_symmetry_group_IT_number 63
_symmetry_cell_setting 'orthorhombic'
loop_
_space_group_symop_operation_xyz
x,y,z
-x,-y,1/2+z
x,-y,-z
-x,y,1/2-z
-x,-y,-z
x,y,1/2-z
-x,y,z
x,-y,1/2+z
1/2+x,1/2+y,z
1/2-x,1/2-y,1/2+z
1/2+x,1/2-y,-z
1/2-x,1/2+y,1/2-z
1/2-x,1/2-y,-z
1/2+x,1/2+y,1/2-z
1/2-x,1/2+y,z
1/2+x,1/2-y,1/2+z
loop_
_atom_site_type_symbol
_atom_site_label
_atom_site_fract_x
_atom_site_fract_y
_atom_site_fract_z
Si Si1 0.308034 0.519195 0.841534
Si Si2 0.207309 0.319265 0.942884
Si Si3 0.300862 0.610787 0.340896
Si Si4 0.584476 0.711067 0.339197
Si Si5 0.585684 0.174146 0.937570
Si Si6 0.686590 0.894951 0.162064
Si Si7 0.916039 0.118156 0.658384
Si Si8 0.294816 0.307932 0.403937
O O1 0.304066 0.519151 0.750000
O O2 0.319748 0.453808 0.872863
O O3 0.231272 0.548686 0.870743
O O4 0.377549 0.557814 0.867760
O O5 0.225165 0.370754 0.882846
O O6 0.210872 0.260939 0.891578
O O7 0.126430 0.325317 0.979832
O O8 0.270097 0.322101 0.008614
O O9 0.286266 0.609170 0.250000
O O10 0.366256 0.655508 0.362493
O O11 0.597665 0.729240 0.250000
O O12 0.500000 0.692830 0.352582
O O13 0.605324 0.766248 0.392268
O O14 0.500000 0.166576 0.952506
O O15 0.614308 0.118314 0.888865
O O16 0.661100 0.904121 0.250000
O O17 0.741505 0.839613 0.157278
O O18 0.908410 0.128873 0.750000
O O19 0.878099 0.171085 0.611715
O O20 0.000000 0.115154 0.631814
#
# Coordination Sequence:
#
# PCOD8257266 Si02
#       8
#    16  16  16  16  16  16  16  16
#     4   8  16  30  48  71  97 126 161 198 234 273
#     4  10  20  32  48  68  93 126 160 198 242 286
#     4  10  19  32  51  72  95 128 166 197 230 278
#     4   9  17  28  45  74 107 131 153 186 228 278
#     4  10  20  33  49  71  97 123 152 192 247 299
#     4   9  16  29  50  72  95 122 156 200 238 272
#     4   9  17  30  50  75 102 132 164 196 228 268
#     4   9  17  30  46  69  98 129 162 194 235 277
#
# _framework density 17.755593999999999
#
# number of rings (size 3 to 8) (size 9 to 14) (size 15 to 20)
#    0.000    2.750    0.000    3.750    0.000    3.750 
#    0.000    8.750    0.000    2.625    0.000    1.750 
#    0.000    0.000    0.000    0.000    0.000    0.000 
#
# Total GULP energy -793327.023397 kJ/mol
# GULP energy per Si atom -12395.734741 kJ/mol
# Density = 1.771518 g / cm^3
# Si number density = 17.755594 Si / 1000 Ang^3
#
#
#
# Elastic Constant Matrix: (Units=GPa)
#
#
# Indices 1 2 3 4 5 6 
#
# 1 115.5037 52.3762 32.1562 0.0000 0.0000 0.0000
# 2 52.3762 90.8837 26.3822 0.0000 0.0000 0.0000
# 3 32.1562 26.3822 35.0895 0.0000 0.0000 0.0000
# 4 0.0000 0.0000 0.0000 12.9180 0.0000 0.0000
# 5 0.0000 0.0000 0.0000 0.0000 29.4004 0.0000
# 6 0.0000 0.0000 0.0000 0.0000 0.0000 22.9470
#
#
#
# Elastic Compliance Matrix: (Units=1/GPa)
#
#
# Indices 1 2 3 4 5 6 
#
# 1 0.013361 -0.005303 -0.008257 0.000000 0.000000 0.000000
# 2 -0.005303 0.016180 -0.007305 0.000000 0.000000 0.000000
# 3 -0.008257 -0.007305 0.041558 0.000000 0.000000 0.000000
# 4 0.000000 0.000000 0.000000 0.077411 0.000000 0.000000
# 5 0.000000 0.000000 0.000000 0.000000 0.034013 0.000000
# 6 0.000000 0.000000 0.000000 0.000000 0.000000 0.043579
#
#
# Mechanical properties :
#
#
# Convention : Reuss Voigt Hill
#
# Bulk Modulus (GPa) = 34.05044 51.47845 42.76444
# Shear Modulus (GPa) = 18.01009 21.75723 19.88366
#
# Velocity S-wave (km/s) = 3.18831 3.50433 3.35005
# Velocity P-wave (km/s) = 5.72475 6.74014 6.25309
#
# Compressibility (1/GPa) = 0.02936820
#
# Stress axis : x y z
#
# Youngs Moduli (GPa) = 74.84320 61.80537 24.06291
#
# Poissons Ratio (x) = 0.32776 0.19869
# Poissons Ratio (y) = 0.39691 0.17578
# Poissons Ratio (z) = 0.61799 0.45149
#
# Static dielectric constant tensor:
#      x y z
#    x 3.271620 0.000000 0.000000 
#    y 0.000000 3.492240 0.000000 
#    z 0.000000 0.000000 3.109150 
# 
# 
# High freq. dielectric constant tensor:
#      x y z
#    x 1.676070 0.000000 0.000000 
#    y 0.000000 1.675860 0.000000 
#    z 0.000000 0.000000 1.669140 
# 
# From -- ./inp_files/46336.got.cif
#   From: 2010.03.12/outbox.cif.g09.slc.cpg/sg63_24_cif.got.tgz:46336.got - 2010.04.10 19:34:48.
