data_PCOD8257704
_publ_section_title
;
Structure prediction by ZEFSAII (Michael W. Deem and Ramdas Pophale) SiO2 
 PCOD8257704
Probable space group: C M C M
;
_chemical_formula_sum "Si O2"
_cell_formula_units_Z 112
_cell_length_a 33.434840
_cell_length_b 4.900794
_cell_length_c 34.032626
_cell_angle_alpha 90.000000
_cell_angle_beta 90.000000
_cell_angle_gamma 90.000000
_cell_volume 5576.492958
_symmetry_space_group_name_H-M "C M C M"
_symmetry_group_IT_number 63
_symmetry_cell_setting 'orthorhombic'
loop_
_space_group_symop_operation_xyz
x,y,z
-x,-y,1/2+z
x,-y,-z
-x,y,1/2-z
-x,-y,-z
x,y,1/2-z
-x,y,z
x,-y,1/2+z
1/2+x,1/2+y,z
1/2-x,1/2-y,1/2+z
1/2+x,1/2-y,-z
1/2-x,1/2+y,1/2-z
1/2-x,1/2-y,-z
1/2+x,1/2+y,1/2-z
1/2-x,1/2+y,z
1/2+x,1/2-y,1/2+z
loop_
_atom_site_type_symbol
_atom_site_label
_atom_site_fract_x
_atom_site_fract_y
_atom_site_fract_z
Si Si1 0.651464 0.071549 0.085867
Si Si2 0.454899 0.433278 0.597145
Si Si3 0.387591 0.653787 0.706730
Si Si4 0.665977 0.839701 0.293846
Si Si5 0.879981 0.083988 0.455223
Si Si6 0.923657 0.563722 0.137474
Si Si7 0.276442 0.867349 0.134912
O O1 0.639511 0.880803 0.049182
O O2 0.622002 0.038814 0.122884
O O3 0.694619 0.977844 0.100743
O O4 0.648072 0.380510 0.070278
O O5 0.500000 0.379029 0.582926
O O6 0.425241 0.388631 0.560621
O O7 0.443744 0.235115 0.634251
O O8 0.450649 0.745457 0.609969
O O9 0.406389 0.601658 0.750000
O O10 0.368721 0.369430 0.689918
O O11 0.350926 0.858970 0.709539
O O12 0.422323 0.792160 0.680155
O O13 0.679242 0.739445 0.250000
O O14 0.703753 0.868131 0.322169
O O15 0.881462 0.000000 0.500000
O O16 0.262892 0.554529 0.130498
#
# Coordination Sequence:
#
# PCOD8257704 Si02
#       7
#    16  16  16  16  16  16  16
#     4  10  21  37  58  83 112 143 197 235 270 343
#     4  10  21  35  56  89 120 146 177 222 283 347
#     4  10  19  33  56  81 108 146 197 245 276 314
#     4  10  21  35  53  80 115 149 187 238 289 333
#     4  10  21  38  63  87 110 147 183 230 284 338
#     4  10  19  34  59  79 110 155 192 232 272 324
#     4  12  24  36  57  82 116 155 188 236 291 334
#
# _framework density 20.084309999999999
#
# number of rings (size 3 to 8) (size 9 to 14) (size 15 to 20)
#    0.000    1.714    1.429    3.429    4.000    0.857 
#    0.000    0.000    0.000   16.286    0.000    0.000 
#    0.000    0.000    0.000    0.000    0.000    0.000 
#
# Total GULP energy -694136.093154 kJ/mol
# GULP energy per Si atom -12395.287378 kJ/mol
# Density = 2.003860 g / cm^3
# Si number density = 20.084310 Si / 1000 Ang^3
#
#
#
# Elastic Constant Matrix: (Units=GPa)
#
#
# Indices 1 2 3 4 5 6 
#
# 1 68.9382 1.2344 29.6040 0.0000 0.0000 0.0000
# 2 1.2344 65.6206 -4.1143 0.0000 0.0000 0.0000
# 3 29.6040 -4.1143 75.5370 0.0000 0.0000 0.0000
# 4 0.0000 0.0000 0.0000 24.4925 0.0000 0.0000
# 5 0.0000 0.0000 0.0000 0.0000 17.3994 0.0000
# 6 0.0000 0.0000 0.0000 0.0000 0.0000 23.9708
#
#
#
# Elastic Compliance Matrix: (Units=1/GPa)
#
#
# Indices 1 2 3 4 5 6 
#
# 1 0.017479 -0.000761 -0.006892 0.000000 0.000000 0.000000
# 2 -0.000761 0.015324 0.001133 0.000000 0.000000 0.000000
# 3 -0.006892 0.001133 0.016001 0.000000 0.000000 0.000000
# 4 0.000000 0.000000 0.000000 0.040829 0.000000 0.000000
# 5 0.000000 0.000000 0.000000 0.000000 0.057473 0.000000
# 6 0.000000 0.000000 0.000000 0.000000 0.000000 0.041717
#
#
# Mechanical properties :
#
#
# Convention : Reuss Voigt Hill
#
# Bulk Modulus (GPa) = 27.96015 29.28266 28.62141
# Shear Modulus (GPa) = 23.38798 25.39732 24.39265
#
# Velocity S-wave (km/s) = 3.41616 3.55989 3.48877
# Velocity P-wave (km/s) = 5.43248 5.61325 5.52361
#
# Compressibility (1/GPa) = 0.03576519
#
# Stress axis : x y z
#
# Youngs Moduli (GPa) = 57.21207 65.25510 62.49543
#
# Poissons Ratio (x) = 0.04965 0.43070
# Poissons Ratio (y) = 0.04353 -0.07080
# Poissons Ratio (z) = 0.39428 -0.07393
#
# Static dielectric constant tensor:
#      x y z
#    x 3.319040 0.000000 0.000000 
#    y 0.000000 3.908100 0.000000 
#    z 0.000000 0.000000 3.530840 
# 
# 
# High freq. dielectric constant tensor:
#      x y z
#    x 1.750430 0.000000 0.000000 
#    y 0.000000 1.810290 0.000000 
#    z 0.000000 0.000000 1.767370 
# 
# From -- ./inp_files/74538.got.cif
#   From: 2010.03.12/outbox.cif.g09.slc.cpg/sg63_38_cif.got.tgz:74538.got - 2010.04.10 19:34:48.
