data_PCOD8257468
_publ_section_title
;
Structure prediction by ZEFSAII (Michael W. Deem and Ramdas Pophale) SiO2 
 PCOD8257468
Probable space group: C M C M
;
_chemical_formula_sum "Si O2"
_cell_formula_units_Z 96
_cell_length_a 19.335900
_cell_length_b 28.690638
_cell_length_c 9.051146
_cell_angle_alpha 90.000000
_cell_angle_beta 90.000000
_cell_angle_gamma 90.000000
_cell_volume 5021.207485
_symmetry_space_group_name_H-M "C M C M"
_symmetry_group_IT_number 63
_symmetry_cell_setting 'orthorhombic'
loop_
_space_group_symop_operation_xyz
x,y,z
-x,-y,1/2+z
x,-y,-z
-x,y,1/2-z
-x,-y,-z
x,y,1/2-z
-x,y,z
x,-y,1/2+z
1/2+x,1/2+y,z
1/2-x,1/2-y,1/2+z
1/2+x,1/2-y,-z
1/2-x,1/2+y,1/2-z
1/2-x,1/2-y,-z
1/2+x,1/2+y,1/2-z
1/2-x,1/2+y,z
1/2+x,1/2-y,1/2+z
loop_
_atom_site_type_symbol
_atom_site_label
_atom_site_fract_x
_atom_site_fract_y
_atom_site_fract_z
Si Si1 0.149674 0.222992 0.412409
Si Si2 0.581366 0.627791 0.078064
Si Si3 0.308334 0.897284 0.422635
Si Si4 0.194654 0.696160 0.087522
Si Si5 0.079783 0.547197 0.079555
Si Si6 0.330977 0.549813 0.924636
O O1 0.116637 0.232972 0.250000
O O2 0.115156 0.176183 0.478988
O O3 0.138450 0.266904 0.522155
O O4 0.231343 0.219350 0.391924
O O5 0.599977 0.620157 0.250000
O O6 0.500000 0.629979 0.050660
O O7 0.611356 0.584993 0.985149
O O8 0.323302 0.898348 0.250000
O O9 0.292863 0.845317 0.473227
O O10 0.376890 0.911466 0.509520
O O11 0.244699 0.930709 0.465288
O O12 0.167997 0.679684 0.250000
O O13 0.098300 0.541240 0.250000
O O14 0.000000 0.559310 0.053659
O O15 0.101781 0.500000 0.000000
O O16 0.340846 0.544592 0.750000
O O17 0.341307 0.500000 0.000000
#
# Coordination Sequence:
#
# PCOD8257468 Si02
#       6
#    16  16  16  16  16  16
#     4   9  18  34  55  82 112 144 183 229 279 337
#     4  10  21  39  62  85 113 151 193 239 294 350
#     4  11  22  36  57  86 116 151 191 236 286 339
#     4  10  19  32  56  84 112 146 183 230 281 332
#     4  10  21  37  57  81 111 148 188 229 278 338
#     4  11  24  39  58  84 115 150 194 244 292 343
#
# _framework density 19.118905999999999
#
# number of rings (size 3 to 8) (size 9 to 14) (size 15 to 20)
#    0.000    1.833    1.667    2.500    0.000    6.333 
#    0.000    0.833    0.000    3.000    0.000    0.000 
#    0.000    0.000    0.000    0.000    0.000    0.000 
#
# Total GULP energy -595216.474892 kJ/mol
# GULP energy per Si atom -12400.343227 kJ/mol
# Density = 1.907539 g / cm^3
# Si number density = 19.118906 Si / 1000 Ang^3
#
#
#
# Elastic Constant Matrix: (Units=GPa)
#
#
# Indices 1 2 3 4 5 6 
#
# 1 63.0413 42.1194 48.5619 0.0000 0.0000 0.0000
# 2 42.1194 103.4088 59.1239 0.0000 0.0000 0.0000
# 3 48.5619 59.1239 89.1670 0.0000 0.0000 0.0000
# 4 0.0000 0.0000 0.0000 36.0837 0.0000 0.0000
# 5 0.0000 0.0000 0.0000 0.0000 24.6807 0.0000
# 6 0.0000 0.0000 0.0000 0.0000 0.0000 18.4263
#
#
#
# Elastic Compliance Matrix: (Units=1/GPa)
#
#
# Indices 1 2 3 4 5 6 
#
# 1 0.028522 -0.004406 -0.012612 0.000000 0.000000 0.000000
# 2 -0.004406 0.016256 -0.008379 0.000000 0.000000 0.000000
# 3 -0.012612 -0.008379 0.023639 0.000000 0.000000 0.000000
# 4 0.000000 0.000000 0.000000 0.027713 0.000000 0.000000
# 5 0.000000 0.000000 0.000000 0.000000 0.040518 0.000000
# 6 0.000000 0.000000 0.000000 0.000000 0.000000 0.054270
#
#
# Mechanical properties :
#
#
# Convention : Reuss Voigt Hill
#
# Bulk Modulus (GPa) = 56.74488 61.69195 59.21842
# Shear Modulus (GPa) = 20.19503 22.89227 21.54365
#
# Velocity S-wave (km/s) = 3.25358 3.46405 3.36046
# Velocity P-wave (km/s) = 6.62260 6.95249 6.78955
#
# Compressibility (1/GPa) = 0.01762273
#
# Stress axis : x y z
#
# Youngs Moduli (GPa) = 35.06111 61.51671 42.30278
#
# Poissons Ratio (x) = 0.27107 0.53350
# Poissons Ratio (y) = 0.15450 0.35445
# Poissons Ratio (z) = 0.44218 0.51544
#
# Static dielectric constant tensor:
#      x y z
#    x 3.289720 0.000000 0.000000 
#    y 0.000000 3.496470 0.000000 
#    z 0.000000 0.000000 3.826420 
# 
# 
# High freq. dielectric constant tensor:
#      x y z
#    x 1.722120 0.000000 0.000000 
#    y 0.000000 1.747470 0.000000 
#    z 0.000000 0.000000 1.754680 
# 
# From -- ./inp_files/8586.got.cif
#   From: 2010.03.12/outbox.cif.g09.slc.cpg/sg63_5_cif.got.tgz:8586.got - 2010.04.10 19:34:48.
