data_PCOD8257699
_publ_section_title
;
Structure prediction by ZEFSAII (Michael W. Deem and Ramdas Pophale) SiO2 
 PCOD8257699
Probable space group: C M C M
;
_chemical_formula_sum "Si O2"
_cell_formula_units_Z 112
_cell_length_a 23.465102
_cell_length_b 15.793241
_cell_length_c 14.831072
_cell_angle_alpha 90.000000
_cell_angle_beta 90.000000
_cell_angle_gamma 90.000000
_cell_volume 5496.247135
_symmetry_space_group_name_H-M "C M C M"
_symmetry_group_IT_number 63
_symmetry_cell_setting 'orthorhombic'
loop_
_space_group_symop_operation_xyz
x,y,z
-x,-y,1/2+z
x,-y,-z
-x,y,1/2-z
-x,-y,-z
x,y,1/2-z
-x,y,z
x,-y,1/2+z
1/2+x,1/2+y,z
1/2-x,1/2-y,1/2+z
1/2+x,1/2-y,-z
1/2-x,1/2+y,1/2-z
1/2-x,1/2-y,-z
1/2+x,1/2+y,1/2-z
1/2-x,1/2+y,z
1/2+x,1/2-y,1/2+z
loop_
_atom_site_type_symbol
_atom_site_label
_atom_site_fract_x
_atom_site_fract_y
_atom_site_fract_z
Si Si1 0.343519 0.096105 0.021391
Si Si2 0.063642 0.142340 0.585351
Si Si3 0.832548 0.288397 0.150260
Si Si4 0.936628 0.821608 0.881580
Si Si5 0.765299 0.120738 0.144428
Si Si6 0.371980 0.486830 0.850674
Si Si7 0.566153 0.819899 0.850476
O O1 0.289791 0.103642 0.086141
O O2 0.397495 0.134473 0.072790
O O3 0.330212 0.140560 0.926080
O O4 0.358268 0.000000 0.000000
O O5 0.067003 0.184971 0.488473
O O6 0.079093 0.218956 0.652435
O O7 0.000000 0.106603 0.605382
O O8 0.108895 0.065993 0.588459
O O9 0.817833 0.326496 0.250000
O O10 0.895172 0.248215 0.159853
O O11 0.787669 0.215134 0.124371
O O12 0.920304 0.915354 0.849550
O O13 0.000000 0.801890 0.846529
O O14 0.751295 0.110326 0.250000
O O15 0.812739 0.052241 0.113644
O O16 0.364503 0.522246 0.750000
O O17 0.580662 0.854623 0.750000
O O18 0.500000 0.835630 0.874203
#
# Coordination Sequence:
#
# PCOD8257699 Si02
#       7
#    16  16  16  16  16  16  16
#     4  12  25  42  67  91 119 158 205 261 317 364
#     4  10  19  33  57  89 127 166 206 247 294 361
#     4  10  22  41  63  89 123 162 206 255 306 366
#     4  10  19  33  55  85 124 166 204 247 301 364
#     4   9  21  42  63  88 124 163 206 252 301 365
#     4  10  20  33  53  88 130 166 204 246 293 360
#     4  10  22  42  66  92 124 161 204 257 312 367
#
# _framework density 20.37754
#
# number of rings (size 3 to 8) (size 9 to 14) (size 15 to 20)
#    0.000    1.857    1.429    3.429    0.000    7.429 
#    2.571    0.000    0.000    0.000    0.000    0.000 
#    0.000    0.000    0.000    0.000    0.000    0.000 
#
# Total GULP energy -694340.210932 kJ/mol
# GULP energy per Si atom -12398.932338 kJ/mol
# Density = 2.033116 g / cm^3
# Si number density = 20.377540 Si / 1000 Ang^3
#
#
#
# Elastic Constant Matrix: (Units=GPa)
#
#
# Indices 1 2 3 4 5 6 
#
# 1 100.9987 44.5933 40.2999 0.0000 0.0000 0.0000
# 2 44.5933 108.4593 50.5179 0.0000 0.0000 0.0000
# 3 40.2999 50.5179 104.0568 0.0000 0.0000 0.0000
# 4 0.0000 0.0000 0.0000 22.7075 0.0000 0.0000
# 5 0.0000 0.0000 0.0000 0.0000 19.7373 0.0000
# 6 0.0000 0.0000 0.0000 0.0000 0.0000 22.0496
#
#
#
# Elastic Compliance Matrix: (Units=1/GPa)
#
#
# Indices 1 2 3 4 5 6 
#
# 1 0.012832 -0.003827 -0.003112 0.000000 0.000000 0.000000
# 2 -0.003827 0.013055 -0.004856 0.000000 0.000000 0.000000
# 3 -0.003112 -0.004856 0.013173 0.000000 0.000000 0.000000
# 4 0.000000 0.000000 0.000000 0.044038 0.000000 0.000000
# 5 0.000000 0.000000 0.000000 0.000000 0.050666 0.000000
# 6 0.000000 0.000000 0.000000 0.000000 0.000000 0.045352
#
#
# Mechanical properties :
#
#
# Convention : Reuss Voigt Hill
#
# Bulk Modulus (GPa) = 64.63675 64.92631 64.78153
# Shear Modulus (GPa) = 24.05430 24.77248 24.41339
#
# Velocity S-wave (km/s) = 3.43947 3.49044 3.46505
# Velocity P-wave (km/s) = 6.89650 6.94083 6.91870
#
# Compressibility (1/GPa) = 0.01547107
#
# Stress axis : x y z
#
# Youngs Moduli (GPa) = 77.92786 76.59779 75.91291
#
# Poissons Ratio (x) = 0.29310 0.23625
# Poissons Ratio (y) = 0.29819 0.36864
# Poissons Ratio (z) = 0.24252 0.37197
#
# Static dielectric constant tensor:
#      x y z
#    x 3.683280 0.000000 0.000000 
#    y 0.000000 3.460630 0.000000 
#    z 0.000000 0.000000 3.886090 
# 
# 
# High freq. dielectric constant tensor:
#      x y z
#    x 1.792500 0.000000 0.000000 
#    y 0.000000 1.772200 0.000000 
#    z 0.000000 0.000000 1.813600 
# 
# From -- ./inp_files/36929.got.cif
#   From: 2010.03.12/outbox.cif.g09.slc.cpg/sg63_19_cif.got.tgz:36929.got - 2010.04.10 19:34:48.
