data_PCOD8257748
_publ_section_title
;
Structure prediction by ZEFSAII (Michael W. Deem and Ramdas Pophale) SiO2 
 PCOD8257748
Probable space group: C M C M
;
_chemical_formula_sum "Si O2"
_cell_formula_units_Z 80
_cell_length_a 13.969776
_cell_length_b 17.760779
_cell_length_c 14.721650
_cell_angle_alpha 90.000000
_cell_angle_beta 90.000000
_cell_angle_gamma 90.000000
_cell_volume 3652.649002
_symmetry_space_group_name_H-M "C M C M"
_symmetry_group_IT_number 63
_symmetry_cell_setting 'orthorhombic'
loop_
_space_group_symop_operation_xyz
x,y,z
-x,-y,1/2+z
x,-y,-z
-x,y,1/2-z
-x,-y,-z
x,y,1/2-z
-x,y,z
x,-y,1/2+z
1/2+x,1/2+y,z
1/2-x,1/2-y,1/2+z
1/2+x,1/2-y,-z
1/2-x,1/2+y,1/2-z
1/2-x,1/2-y,-z
1/2+x,1/2+y,1/2-z
1/2-x,1/2+y,z
1/2+x,1/2-y,1/2+z
loop_
_atom_site_type_symbol
_atom_site_label
_atom_site_fract_x
_atom_site_fract_y
_atom_site_fract_z
Si Si1 0.111466 0.106335 0.351184
Si Si2 0.106856 0.483630 0.605165
Si Si3 0.887429 0.178287 0.532989
Si Si4 0.386911 0.817243 0.648296
Si Si5 0.704504 0.549471 0.851003
O O1 0.146091 0.131994 0.250000
O O2 0.133657 0.172573 0.424463
O O3 0.162410 0.030154 0.383525
O O4 0.000000 0.087946 0.349693
O O5 0.100807 0.500000 0.500000
O O6 0.150733 0.400248 0.623161
O O7 0.179551 0.543252 0.649604
O O8 0.000000 0.492012 0.648147
O O9 0.849180 0.257415 0.573512
O O10 0.000000 0.167988 0.553339
O O11 0.829669 0.112507 0.580964
O O12 0.352300 0.794893 0.750000
O O13 0.500000 0.819214 0.643557
O O14 0.668472 0.569706 0.750000
#
# Coordination Sequence:
#
# PCOD8257748 Si02
#       5
#    16  16  16  16  16
#     4   9  18  32  51  78 115 156 189 221 273 341
#     4  10  21  38  59  80 106 146 195 239 279 328
#     4  10  19  33  57  88 118 145 180 231 285 335
#     4   9  18  34  57  84 113 146 185 231 281 328
#     4  11  21  33  53  82 115 150 189 231 279 335
#
# _framework density 21.901911999999999
#
# number of rings (size 3 to 8) (size 9 to 14) (size 15 to 20)
#    0.000    2.200    0.000    3.600    0.000    4.800 
#    0.000    4.000    0.000    4.800    0.000   15.400 
#    0.000    4.800    0.000    0.000    0.000    0.000 
#
# Total GULP energy -495857.924228 kJ/mol
# GULP energy per Si atom -12396.448106 kJ/mol
# Density = 2.185206 g / cm^3
# Si number density = 21.901912 Si / 1000 Ang^3
#
#
#
# Elastic Constant Matrix: (Units=GPa)
#
#
# Indices 1 2 3 4 5 6 
#
# 1 51.9641 33.1111 11.4964 0.0000 0.0000 0.0000
# 2 33.1111 87.8961 52.8005 0.0000 0.0000 0.0000
# 3 11.4964 52.8005 116.0397 0.0000 0.0000 0.0000
# 4 0.0000 0.0000 0.0000 34.4071 0.0000 0.0000
# 5 0.0000 0.0000 0.0000 0.0000 -102.3521 0.0000
# 6 0.0000 0.0000 0.0000 0.0000 0.0000 27.4975
#
#
#
# Elastic Compliance Matrix: (Units=1/GPa)
#
#
# Indices 1 2 3 4 5 6 
#
# 1 0.025870 -0.011292 0.002575 0.000000 0.000000 0.000000
# 2 -0.011292 0.020586 -0.008248 0.000000 0.000000 0.000000
# 3 0.002575 -0.008248 0.012116 0.000000 0.000000 0.000000
# 4 0.000000 0.000000 0.000000 0.029064 0.000000 0.000000
# 5 0.000000 0.000000 0.000000 0.000000 -0.009770 0.000000
# 6 0.000000 0.000000 0.000000 0.000000 0.000000 0.036367
#
#
# Mechanical properties :
#
#
# Convention : Reuss Voigt Hill
#
# Bulk Modulus (GPa) = 40.58333 50.07956 45.33144
# Shear Modulus (GPa) = 31.97429 2.47663 17.22546
#
# Velocity S-wave (km/s) = 3.82499 1.06454 2.80747
# Velocity P-wave (km/s) = 6.17067 4.94227 5.59031
#
# Compressibility (1/GPa) = 0.02464066
#
# Stress axis : x y z
#
# Youngs Moduli (GPa) = 38.65534 48.57727 82.53747
#
# Poissons Ratio (x) = 0.54855 -0.21255
# Poissons Ratio (y) = 0.43651 0.68079
# Poissons Ratio (z) = -0.09955 0.40067
#
# Static dielectric constant tensor:
#      x y z
#    x 4.050290 0.000000 0.000000 
#    y 0.000000 3.888100 0.000000 
#    z 0.000000 0.000000 4.232690 
# 
# 
# High freq. dielectric constant tensor:
#      x y z
#    x 1.865560 0.000000 0.000000 
#    y 0.000000 1.830390 0.000000 
#    z 0.000000 0.000000 1.871820 
# 
# From -- ./inp_files/31641.got.cif
#   From: 2010.03.12/outbox.cif.g09.slc.cpg/sg63_16_cif.got.tgz:31641.got - 2010.04.10 19:34:48.
