data_PCOD8257350
_publ_section_title
;
Structure prediction by ZEFSAII (Michael W. Deem and Ramdas Pophale) SiO2 
 PCOD8257350
Probable space group: C M C M
;
_chemical_formula_sum "Si O2"
_cell_formula_units_Z 80
_cell_length_a 25.233971
_cell_length_b 19.698408
_cell_length_c 8.996240
_cell_angle_alpha 90.000000
_cell_angle_beta 90.000000
_cell_angle_gamma 90.000000
_cell_volume 4471.752526
_symmetry_space_group_name_H-M "C M C M"
_symmetry_group_IT_number 63
_symmetry_cell_setting 'orthorhombic'
loop_
_space_group_symop_operation_xyz
x,y,z
-x,-y,1/2+z
x,-y,-z
-x,y,1/2-z
-x,-y,-z
x,y,1/2-z
-x,y,z
x,-y,1/2+z
1/2+x,1/2+y,z
1/2-x,1/2-y,1/2+z
1/2+x,1/2-y,-z
1/2-x,1/2+y,1/2-z
1/2-x,1/2-y,-z
1/2+x,1/2+y,1/2-z
1/2-x,1/2+y,z
1/2+x,1/2-y,1/2+z
loop_
_atom_site_type_symbol
_atom_site_label
_atom_site_fract_x
_atom_site_fract_y
_atom_site_fract_z
Si Si1 0.808617 0.068527 0.076476
Si Si2 0.000000 0.170957 0.916521
Si Si3 0.000000 0.667667 0.418944
Si Si4 0.395371 0.674062 0.423446
Si Si5 0.606585 0.831015 0.074473
Si Si6 0.687148 0.929922 0.925830
O O1 0.814346 0.056674 0.250000
O O2 0.844550 0.131344 0.022431
O O3 0.748170 0.084691 0.032998
O O4 0.828921 0.000000 0.000000
O O5 0.000000 0.142619 0.750000
O O6 0.000000 0.251736 0.921456
O O7 0.947319 0.143975 0.996842
O O8 0.948240 0.640885 0.505453
O O9 0.000000 0.639805 0.250000
O O10 0.405698 0.666068 0.250000
O O11 0.385173 0.752148 0.465105
O O12 0.606193 0.844350 0.250000
O O13 0.654867 0.868838 0.997158
O O14 0.677444 0.933518 0.750000
O O15 0.668151 0.000000 0.000000
#
# Coordination Sequence:
#
# PCOD8257350 Si02
#       6
#    16   8   8  16  16  16
#     4   9  19  35  53  73  99 133 170 207 249 296
#     4   9  17  29  48  75 102 129 165 206 247 293
#     4   9  17  31  50  73 102 133 164 202 248 293
#     4   9  18  33  52  74 102 134 166 203 249 298
#     4  10  19  32  52  77 103 132 166 203 246 297
#     4  10  20  35  53  73 100 133 168 206 249 296
#
# _framework density 17.890077000000002
#
# number of rings (size 3 to 8) (size 9 to 14) (size 15 to 20)
#    0.000    2.600    0.000    1.800    0.000    5.600 
#    0.000    1.000    0.000    0.000    0.000    0.000 
#    0.000    0.000    0.000    0.000    0.000    0.000 
#
# Total GULP energy -496051.863069 kJ/mol
# GULP energy per Si atom -12401.296577 kJ/mol
# Density = 1.784936 g / cm^3
# Si number density = 17.890077 Si / 1000 Ang^3
#
#
#
# Elastic Constant Matrix: (Units=GPa)
#
#
# Indices 1 2 3 4 5 6 
#
# 1 128.7179 70.8375 60.0574 0.0000 0.0000 0.0000
# 2 70.8375 82.7565 48.5038 0.0000 0.0000 0.0000
# 3 60.0574 48.5038 88.3630 0.0000 0.0000 0.0000
# 4 0.0000 0.0000 0.0000 27.0284 0.0000 0.0000
# 5 0.0000 0.0000 0.0000 0.0000 30.4297 0.0000
# 6 0.0000 0.0000 0.0000 0.0000 0.0000 10.1371
#
#
#
# Elastic Compliance Matrix: (Units=1/GPa)
#
#
# Indices 1 2 3 4 5 6 
#
# 1 0.016039 -0.010821 -0.004961 0.000000 0.000000 0.000000
# 2 -0.010821 0.025116 -0.006432 0.000000 0.000000 0.000000
# 3 -0.004961 -0.006432 0.018219 0.000000 0.000000 0.000000
# 4 0.000000 0.000000 0.000000 0.036998 0.000000 0.000000
# 5 0.000000 0.000000 0.000000 0.000000 0.032863 0.000000
# 6 0.000000 0.000000 0.000000 0.000000 0.000000 0.098648
#
#
# Mechanical properties :
#
#
# Convention : Reuss Voigt Hill
#
# Bulk Modulus (GPa) = 66.90738 73.18167 70.04453
# Shear Modulus (GPa) = 18.03144 21.54828 19.78986
#
# Velocity S-wave (km/s) = 3.17819 3.47433 3.32955
# Velocity P-wave (km/s) = 7.13780 7.55577 7.34976
#
# Compressibility (1/GPa) = 0.01494603
#
# Stress axis : x y z
#
# Youngs Moduli (GPa) = 62.34804 39.81528 54.88638
#
# Poissons Ratio (x) = 0.43085 0.27231
# Poissons Ratio (y) = 0.67468 0.35302
# Poissons Ratio (z) = 0.30933 0.25608
#
# Static dielectric constant tensor:
#      x y z
#    x 3.499430 0.000000 0.000000 
#    y 0.000000 3.169830 0.000000 
#    z 0.000000 0.000000 3.393370 
# 
# 
# High freq. dielectric constant tensor:
#      x y z
#    x 1.700420 0.000000 0.000000 
#    y 0.000000 1.667760 0.000000 
#    z 0.000000 0.000000 1.701420 
# 
# From -- ./inp_files/10116.got.cif
#   From: 2010.03.12/outbox.cif.g09.slc.cpg/sg63_6_cif.got.tgz:10116.got - 2010.04.10 19:34:48.
