data_PCOD8257236
_publ_section_title
;
Structure prediction by ZEFSAII (Michael W. Deem and Ramdas Pophale) SiO2 
 PCOD8257236
Probable space group: C M C M
;
_chemical_formula_sum "Si O2"
_cell_formula_units_Z 96
_cell_length_a 8.754115
_cell_length_b 23.990509
_cell_length_c 26.310950
_cell_angle_alpha 90.000000
_cell_angle_beta 90.000000
_cell_angle_gamma 90.000000
_cell_volume 5525.711916
_symmetry_space_group_name_H-M "C M C M"
_symmetry_group_IT_number 63
_symmetry_cell_setting 'orthorhombic'
loop_
_space_group_symop_operation_xyz
x,y,z
-x,-y,1/2+z
x,-y,-z
-x,y,1/2-z
-x,-y,-z
x,y,1/2-z
-x,y,z
x,-y,1/2+z
1/2+x,1/2+y,z
1/2-x,1/2-y,1/2+z
1/2+x,1/2-y,-z
1/2-x,1/2+y,1/2-z
1/2-x,1/2-y,-z
1/2+x,1/2+y,1/2-z
1/2-x,1/2+y,z
1/2+x,1/2-y,1/2+z
loop_
_atom_site_type_symbol
_atom_site_label
_atom_site_fract_x
_atom_site_fract_y
_atom_site_fract_z
Si Si1 0.820772 0.267466 0.446067
Si Si2 0.677599 0.417382 0.959761
Si Si3 0.320628 0.828959 0.609230
Si Si4 0.675964 0.000559 0.386980
Si Si5 0.680550 0.913255 0.806179
Si Si6 0.324538 0.893731 0.060628
O O1 0.750000 0.250000 0.500000
O O2 0.760664 0.230298 0.399043
O O3 0.774557 0.330184 0.429622
O O4 0.000000 0.259825 0.451486
O O5 0.500000 0.404529 0.951659
O O6 0.778535 0.366464 0.939004
O O7 0.721991 0.474353 0.932012
O O8 0.716584 0.422096 0.018872
O O9 0.500000 0.818908 0.611104
O O10 0.261797 0.860429 0.660356
O O11 0.500000 0.017778 0.396906
O O12 0.727791 0.028206 0.333370
O O13 0.695628 0.933082 0.388879
O O14 0.755946 0.911189 0.750000
O O15 0.500000 0.909787 0.801107
O O16 0.500000 0.895625 0.042217
#
# Coordination Sequence:
#
# PCOD8257236 Si02
#       6
#    16  16  16  16  16  16
#     4  11  21  32  48  69  99 137 174 204 238 289
#     4  11  20  29  45  69  98 130 163 200 237 284
#     4  10  19  32  50  72  99 129 165 207 249 290
#     4   9  18  32  49  69  95 126 159 197 244 295
#     4   8  15  30  54  78  94 115 157 210 254 295
#     4  10  20  32  46  65  96 135 166 194 237 290
#
# _framework density 17.373327
#
# number of rings (size 3 to 8) (size 9 to 14) (size 15 to 20)
#    0.000    2.167    1.667    4.000    0.000    3.333 
#    0.000    0.000    0.000   13.500    0.000    2.333 
#    0.000    0.000    0.000    0.000    0.000    0.000 
#
# Total GULP energy -594876.605758 kJ/mol
# GULP energy per Si atom -12393.262620 kJ/mol
# Density = 1.733378 g / cm^3
# Si number density = 17.373327 Si / 1000 Ang^3
#
#
#
# Elastic Constant Matrix: (Units=GPa)
#
#
# Indices 1 2 3 4 5 6 
#
# 1 50.6080 30.8564 23.3929 0.0000 0.0000 0.0000
# 2 30.8564 142.0670 69.0986 0.0000 0.0000 0.0000
# 3 23.3929 69.0986 111.8791 0.0000 0.0000 0.0000
# 4 0.0000 0.0000 0.0000 15.6443 0.0000 0.0000
# 5 0.0000 0.0000 0.0000 0.0000 11.2654 0.0000
# 6 0.0000 0.0000 0.0000 0.0000 0.0000 23.5427
#
#
#
# Elastic Compliance Matrix: (Units=1/GPa)
#
#
# Indices 1 2 3 4 5 6 
#
# 1 0.023252 -0.003839 -0.002491 0.000000 0.000000 0.000000
# 2 -0.003839 0.010695 -0.005803 0.000000 0.000000 0.000000
# 3 -0.002491 -0.005803 0.013043 0.000000 0.000000 0.000000
# 4 0.000000 0.000000 0.000000 0.063921 0.000000 0.000000
# 5 0.000000 0.000000 0.000000 0.000000 0.088767 0.000000
# 6 0.000000 0.000000 0.000000 0.000000 0.000000 0.042476
#
#
# Mechanical properties :
#
#
# Convention : Reuss Voigt Hill
#
# Bulk Modulus (GPa) = 44.00462 61.24998 52.62730
# Shear Modulus (GPa) = 18.24859 22.17090 20.20974
#
# Velocity S-wave (km/s) = 3.24447 3.57619 3.41436
# Velocity P-wave (km/s) = 6.27848 7.23767 6.77507
#
# Compressibility (1/GPa) = 0.02272489
#
# Stress axis : x y z
#
# Youngs Moduli (GPa) = 43.00790 93.50114 76.66953
#
# Poissons Ratio (x) = 0.35892 0.19097
# Poissons Ratio (y) = 0.16509 0.44490
# Poissons Ratio (z) = 0.10713 0.54257
#
# Static dielectric constant tensor:
#      x y z
#    x 3.095010 0.000000 0.000000 
#    y 0.000000 3.462410 0.000000 
#    z 0.000000 0.000000 3.233800 
# 
# 
# High freq. dielectric constant tensor:
#      x y z
#    x 1.659600 0.000000 0.000000 
#    y 0.000000 1.676810 0.000000 
#    z 0.000000 0.000000 1.632650 
# 
# From -- ./inp_files/67185.got.cif
#   From: 2010.03.12/outbox.cif.g09.slc.cpg/sg63_34_cif.got.tgz:67185.got - 2010.04.10 19:34:48.
