data_PCOD8257256
_publ_section_title
;
Structure prediction by ZEFSAII (Michael W. Deem and Ramdas Pophale) SiO2 
 PCOD8257256
Probable space group: C M C M
;
_chemical_formula_sum "Si O2"
_cell_formula_units_Z 104
_cell_length_a 13.254841
_cell_length_b 34.609920
_cell_length_c 12.259647
_cell_angle_alpha 90.000000
_cell_angle_beta 90.000000
_cell_angle_gamma 90.000000
_cell_volume 5624.100638
_symmetry_space_group_name_H-M "C M C M"
_symmetry_group_IT_number 63
_symmetry_cell_setting 'orthorhombic'
loop_
_space_group_symop_operation_xyz
x,y,z
-x,-y,1/2+z
x,-y,-z
-x,y,1/2-z
-x,-y,-z
x,y,1/2-z
-x,y,z
x,-y,1/2+z
1/2+x,1/2+y,z
1/2-x,1/2-y,1/2+z
1/2+x,1/2-y,-z
1/2-x,1/2+y,1/2-z
1/2-x,1/2-y,-z
1/2+x,1/2+y,1/2-z
1/2-x,1/2+y,z
1/2+x,1/2-y,1/2+z
loop_
_atom_site_type_symbol
_atom_site_label
_atom_site_fract_x
_atom_site_fract_y
_atom_site_fract_z
Si Si1 0.114107 0.677528 0.997171
Si Si2 0.888508 0.088267 0.121976
Si Si3 0.118662 0.752171 0.871462
Si Si4 0.696564 0.667631 0.377235
Si Si5 0.000000 0.478013 0.622806
Si Si6 0.203099 0.543221 0.039678
Si Si7 0.885699 0.400336 0.373610
O O1 0.183934 0.666463 0.099162
O O2 0.000000 0.682183 0.040403
O O3 0.157741 0.716954 0.945299
O O4 0.121957 0.644169 0.907318
O O5 0.895508 0.093286 0.250000
O O6 0.855465 0.129672 0.070363
O O7 0.805984 0.055435 0.098673
O O8 0.000000 0.077028 0.075686
O O9 0.166496 0.748739 0.750000
O O10 0.148084 0.793177 0.926242
O O11 0.000000 0.748679 0.862430
O O12 0.677510 0.667290 0.250000
O O13 0.000000 0.500000 0.500000
O O14 0.104277 0.453588 0.619172
O O15 0.000000 0.497434 0.750000
O O16 0.219882 0.500000 0.000000
O O17 0.188374 0.571647 0.938230
O O18 0.850277 0.403085 0.250000
O O19 0.000000 0.415604 0.389252
#
# Coordination Sequence:
#
# PCOD8257256 Si02
#       7
#    16  16  16  16   8  16  16
#     4  10  19  32  50  76 109 140 175 217 276 330
#     4  10  21  38  58  79 106 143 187 233 279 332
#     4   9  17  30  50  77 104 133 175 223 266 319
#     4  10  19  32  52  76 104 139 179 223 273 327
#     4  10  22  38  60  90 124 156 188 236 298 362
#     4  11  22  37  57  84 115 146 186 236 292 339
#     4  10  20  35  55  80 112 149 187 224 274 344
#
# _framework density 18.491845000000001
#
# number of rings (size 3 to 8) (size 9 to 14) (size 15 to 20)
#    0.000    2.000    2.308    1.846    0.000    7.385 
#    0.000    0.000    0.000    0.462    0.000    0.000 
#    0.000    0.000    0.000    0.000    0.000    0.000 
#
# Total GULP energy -644249.462435 kJ/mol
# GULP energy per Si atom -12389.412739 kJ/mol
# Density = 1.844976 g / cm^3
# Si number density = 18.491845 Si / 1000 Ang^3
#
#
#
# Elastic Constant Matrix: (Units=GPa)
#
#
# Indices 1 2 3 4 5 6 
#
# 1 116.2611 48.7461 20.3433 0.0000 0.0000 0.0000
# 2 48.7461 110.3593 18.5947 0.0000 0.0000 0.0000
# 3 20.3433 18.5947 42.7202 0.0000 0.0000 0.0000
# 4 0.0000 0.0000 0.0000 20.3910 0.0000 0.0000
# 5 0.0000 0.0000 0.0000 0.0000 19.2832 0.0000
# 6 0.0000 0.0000 0.0000 0.0000 0.0000 20.2380
#
#
#
# Elastic Compliance Matrix: (Units=1/GPa)
#
#
# Indices 1 2 3 4 5 6 
#
# 1 0.010987 -0.004286 -0.003367 0.000000 0.000000 0.000000
# 2 -0.004286 0.011450 -0.002943 0.000000 0.000000 0.000000
# 3 -0.003367 -0.002943 0.026292 0.000000 0.000000 0.000000
# 4 0.000000 0.000000 0.000000 0.049041 0.000000 0.000000
# 5 0.000000 0.000000 0.000000 0.000000 0.051859 0.000000
# 6 0.000000 0.000000 0.000000 0.000000 0.000000 0.049412
#
#
# Mechanical properties :
#
#
# Convention : Reuss Voigt Hill
#
# Bulk Modulus (GPa) = 36.31231 49.41211 42.86221
# Shear Modulus (GPa) = 21.79480 24.09288 22.94384
#
# Velocity S-wave (km/s) = 3.43682 3.61348 3.52626
# Velocity P-wave (km/s) = 5.95219 6.64745 6.30941
#
# Compressibility (1/GPa) = 0.02753887
#
# Stress axis : x y z
#
# Youngs Moduli (GPa) = 91.01297 87.33402 38.03389
#
# Poissons Ratio (x) = 0.37431 0.12805
# Poissons Ratio (y) = 0.39008 0.11193
# Poissons Ratio (z) = 0.30641 0.25702
#
# Static dielectric constant tensor:
#      x y z
#    x 3.520900 0.000000 0.000000 
#    y 0.000000 3.620960 0.000000 
#    z 0.000000 0.000000 3.366510 
# 
# 
# High freq. dielectric constant tensor:
#      x y z
#    x 1.710070 0.000000 0.000000 
#    y 0.000000 1.726370 0.000000 
#    z 0.000000 0.000000 1.689970 
# 
# From -- ./inp_files/20052.got.cif
#   From: 2010.03.12/outbox.cif.g09.slc.cpg/sg63_11_cif.got.tgz:20052.got - 2010.04.10 19:34:48.
