data_PCOD8257674
_publ_section_title
;
Structure prediction by ZEFSAII (Michael W. Deem and Ramdas Pophale) SiO2 
 PCOD8257674
Probable space group: C M C M
;
_chemical_formula_sum "Si O2"
_cell_formula_units_Z 96
_cell_length_a 8.738331
_cell_length_b 25.554931
_cell_length_c 23.438694
_cell_angle_alpha 90.000000
_cell_angle_beta 90.000000
_cell_angle_gamma 90.000000
_cell_volume 5234.034889
_symmetry_space_group_name_H-M "C M C M"
_symmetry_group_IT_number 63
_symmetry_cell_setting 'orthorhombic'
loop_
_space_group_symop_operation_xyz
x,y,z
-x,-y,1/2+z
x,-y,-z
-x,y,1/2-z
-x,-y,-z
x,y,1/2-z
-x,y,z
x,-y,1/2+z
1/2+x,1/2+y,z
1/2-x,1/2-y,1/2+z
1/2+x,1/2-y,-z
1/2-x,1/2+y,1/2-z
1/2-x,1/2-y,-z
1/2+x,1/2+y,1/2-z
1/2-x,1/2+y,z
1/2+x,1/2-y,1/2+z
loop_
_atom_site_type_symbol
_atom_site_label
_atom_site_fract_x
_atom_site_fract_y
_atom_site_fract_z
Si Si1 0.324396 0.244299 0.684205
Si Si2 0.177352 0.152387 0.384973
Si Si3 0.181660 0.939370 0.186241
Si Si4 0.181707 0.055489 0.186347
Si Si5 0.319831 0.344400 0.111239
Si Si6 0.179544 0.307301 0.998075
O O1 0.275508 0.242485 0.750000
O O2 0.500000 0.226706 0.675734
O O3 0.300088 0.302857 0.662038
O O4 0.215228 0.206320 0.648969
O O5 0.243049 0.098763 0.357760
O O6 0.277013 0.163287 0.440449
O O7 0.000000 0.147647 0.402978
O O8 0.245449 0.928180 0.250000
O O9 0.246051 0.895928 0.142949
O O10 0.000000 0.935835 0.187968
O O11 0.232905 0.997419 0.165949
O O12 0.246578 0.066132 0.250000
O O13 0.000000 0.059448 0.188778
O O14 0.500000 0.347702 0.101113
O O15 0.237933 0.341885 0.050532
O O16 0.000000 0.300474 0.002622
O O17 0.250000 0.250000 0.000000
#
# Coordination Sequence:
#
# PCOD8257674 Si02
#       6
#    16  16  16  16  16  16
#     4  10  20  32  49  77 111 141 171 215 269 324
#     4  10  19  33  55  81 108 139 178 220 265 317
#     4   8  15  29  51  81 113 141 174 218 264 309
#     4   8  14  28  53  83 112 141 174 216 264 311
#     4  11  21  34  54  79 107 142 182 224 268 314
#     4  12  24  39  56  75 103 142 182 224 271 323
#
# _framework density 18.341491000000001
#
# number of rings (size 3 to 8) (size 9 to 14) (size 15 to 20)
#    0.000    2.167    1.667    4.000    0.000    3.000 
#    0.000    0.833    0.000    8.500    0.000    4.667 
#    0.000    0.000    0.000    0.000    0.000    0.000 
#
# Total GULP energy -595181.940321 kJ/mol
# GULP energy per Si atom -12399.623757 kJ/mol
# Density = 1.829974 g / cm^3
# Si number density = 18.341491 Si / 1000 Ang^3
#
#
#
# Elastic Constant Matrix: (Units=GPa)
#
#
# Indices 1 2 3 4 5 6 
#
# 1 62.9736 27.6494 31.0644 0.0000 0.0000 0.0000
# 2 27.6494 124.4863 50.5187 0.0000 0.0000 0.0000
# 3 31.0644 50.5187 111.1770 0.0000 0.0000 0.0000
# 4 0.0000 0.0000 0.0000 31.9593 0.0000 0.0000
# 5 0.0000 0.0000 0.0000 0.0000 26.7634 0.0000
# 6 0.0000 0.0000 0.0000 0.0000 0.0000 15.3499
#
#
#
# Elastic Compliance Matrix: (Units=1/GPa)
#
#
# Indices 1 2 3 4 5 6 
#
# 1 0.019051 -0.002539 -0.004169 0.000000 0.000000 0.000000
# 2 -0.002539 0.010188 -0.003920 0.000000 0.000000 0.000000
# 3 -0.004169 -0.003920 0.011941 0.000000 0.000000 0.000000
# 4 0.000000 0.000000 0.000000 0.031290 0.000000 0.000000
# 5 0.000000 0.000000 0.000000 0.000000 0.037364 0.000000
# 6 0.000000 0.000000 0.000000 0.000000 0.000000 0.065147
#
#
# Mechanical properties :
#
#
# Convention : Reuss Voigt Hill
#
# Bulk Modulus (GPa) = 50.19365 57.45576 53.82470
# Shear Modulus (GPa) = 24.64520 27.44146 26.04333
#
# Velocity S-wave (km/s) = 3.66961 3.87219 3.77226
# Velocity P-wave (km/s) = 6.73649 7.16836 6.95578
#
# Compressibility (1/GPa) = 0.01992284
#
# Stress axis : x y z
#
# Youngs Moduli (GPa) = 52.48974 98.15712 83.74687
#
# Poissons Ratio (x) = 0.24927 0.34916
# Poissons Ratio (y) = 0.13330 0.32826
# Poissons Ratio (z) = 0.21884 0.38475
#
# Static dielectric constant tensor:
#      x y z
#    x 3.075290 0.000000 0.000000 
#    y 0.000000 3.635780 0.000000 
#    z 0.000000 0.000000 3.581300 
# 
# 
# High freq. dielectric constant tensor:
#      x y z
#    x 1.678140 0.000000 0.000000 
#    y 0.000000 1.715590 0.000000 
#    z 0.000000 0.000000 1.715230 
# 
# From -- ./inp_files/59886.got.cif
#   From: 2010.03.12/outbox.cif.g09.slc.cpg/sg63_30_cif.got.tgz:59886.got - 2010.04.10 19:34:48.
