data_PCOD8257242
_publ_section_title
;
Structure prediction by ZEFSAII (Michael W. Deem and Ramdas Pophale) SiO2 
 PCOD8257242
Probable space group: C M C M
;
_chemical_formula_sum "Si O2"
_cell_formula_units_Z 80
_cell_length_a 28.093500
_cell_length_b 9.130314
_cell_length_c 16.712627
_cell_angle_alpha 90.000000
_cell_angle_beta 90.000000
_cell_angle_gamma 90.000000
_cell_volume 4286.830212
_symmetry_space_group_name_H-M "C M C M"
_symmetry_group_IT_number 63
_symmetry_cell_setting 'orthorhombic'
loop_
_space_group_symop_operation_xyz
x,y,z
-x,-y,1/2+z
x,-y,-z
-x,y,1/2-z
-x,-y,-z
x,y,1/2-z
-x,y,z
x,-y,1/2+z
1/2+x,1/2+y,z
1/2-x,1/2-y,1/2+z
1/2+x,1/2-y,-z
1/2-x,1/2+y,1/2-z
1/2-x,1/2-y,-z
1/2+x,1/2+y,1/2-z
1/2-x,1/2+y,z
1/2+x,1/2-y,1/2+z
loop_
_atom_site_type_symbol
_atom_site_label
_atom_site_fract_x
_atom_site_fract_y
_atom_site_fract_z
Si Si1 0.597835 0.318357 0.341402
Si Si2 0.555308 0.831959 0.991652
Si Si3 0.792961 0.221881 0.660524
Si Si4 0.720531 0.571458 0.085899
Si Si5 0.384197 0.398782 0.922999
O O1 0.582667 0.283908 0.250000
O O2 0.564464 0.228524 0.402114
O O3 0.651342 0.264302 0.359810
O O4 0.594308 0.495222 0.353861
O O5 0.500000 0.814684 0.010950
O O6 0.582950 0.741316 0.060379
O O7 0.571660 0.000000 0.000000
O O8 0.781905 0.275343 0.750000
O O9 0.763819 0.317786 0.597523
O O10 0.776884 0.054054 0.652915
O O11 0.669631 0.654616 0.095971
O O12 0.726555 0.500000 0.000000
O O13 0.381486 0.500000 0.000000
#
# Coordination Sequence:
#
# PCOD8257242 Si02
#       5
#    16  16  16  16  16
#     4   9  19  35  54  77 105 137 175 216 253 299
#     4  10  21  37  56  78 104 133 167 213 268 318
#     4  10  20  33  49  74 108 138 167 207 254 298
#     4  10  19  32  50  74 102 136 175 211 245 293
#     4   8  17  34  54  76 101 133 172 211 253 304
#
# _framework density 18.661807
#
# number of rings (size 3 to 8) (size 9 to 14) (size 15 to 20)
#    0.000    2.600    0.000    2.400    0.000    7.200 
#    0.000    1.000    0.000    1.200    0.000    0.000 
#    0.000    0.000    0.000    0.000    0.000    0.000 
#
# Total GULP energy -495876.183479 kJ/mol
# GULP energy per Si atom -12396.904587 kJ/mol
# Density = 1.861933 g / cm^3
# Si number density = 18.661807 Si / 1000 Ang^3
#
#
#
# Elastic Constant Matrix: (Units=GPa)
#
#
# Indices 1 2 3 4 5 6 
#
# 1 82.1293 63.5889 28.0546 0.0000 0.0000 0.0000
# 2 63.5889 107.3417 35.8281 0.0000 0.0000 0.0000
# 3 28.0546 35.8281 71.2958 0.0000 0.0000 0.0000
# 4 0.0000 0.0000 0.0000 24.5575 0.0000 0.0000
# 5 0.0000 0.0000 0.0000 0.0000 19.3544 0.0000
# 6 0.0000 0.0000 0.0000 0.0000 0.0000 33.1420
#
#
#
# Elastic Compliance Matrix: (Units=1/GPa)
#
#
# Indices 1 2 3 4 5 6 
#
# 1 0.022897 -0.012685 -0.002636 0.000000 0.000000 0.000000
# 2 -0.012685 0.018220 -0.004165 0.000000 0.000000 0.000000
# 3 -0.002636 -0.004165 0.017156 0.000000 0.000000 0.000000
# 4 0.000000 0.000000 0.000000 0.040721 0.000000 0.000000
# 5 0.000000 0.000000 0.000000 0.000000 0.051668 0.000000
# 6 0.000000 0.000000 0.000000 0.000000 0.000000 0.030173
#
#
# Mechanical properties :
#
#
# Convention : Reuss Voigt Hill
#
# Bulk Modulus (GPa) = 51.80374 57.30110 54.55242
# Shear Modulus (GPa) = 22.10036 24.29714 23.19875
#
# Velocity S-wave (km/s) = 3.44504 3.61220 3.52961
# Velocity P-wave (km/s) = 6.60635 6.94039 6.77543
#
# Compressibility (1/GPa) = 0.01930362
#
# Stress axis : x y z
#
# Youngs Moduli (GPa) = 43.67330 54.88326 58.28789
#
# Poissons Ratio (x) = 0.69617 0.15363
# Poissons Ratio (y) = 0.55398 0.24277
# Poissons Ratio (z) = 0.11511 0.22859
#
# Static dielectric constant tensor:
#      x y z
#    x 3.380670 0.000000 0.000000 
#    y 0.000000 3.424840 0.000000 
#    z 0.000000 0.000000 3.597910 
# 
# 
# High freq. dielectric constant tensor:
#      x y z
#    x 1.719960 0.000000 0.000000 
#    y 0.000000 1.710660 0.000000 
#    z 0.000000 0.000000 1.719970 
# 
# From -- ./inp_files/48737.got.cif
#   From: 2010.03.12/outbox.cif.g09.slc.cpg/sg63_25_cif.got.tgz:48737.got - 2010.04.10 19:34:48.
