data_PCOD8257548
_publ_section_title
;
Structure prediction by ZEFSAII (Michael W. Deem and Ramdas Pophale) SiO2 
 PCOD8257548
Probable space group: C M C M
;
_chemical_formula_sum "Si O2"
_cell_formula_units_Z 96
_cell_length_a 17.313804
_cell_length_b 21.002932
_cell_length_c 14.266933
_cell_angle_alpha 90.000000
_cell_angle_beta 90.000000
_cell_angle_gamma 90.000000
_cell_volume 5188.036762
_symmetry_space_group_name_H-M "C M C M"
_symmetry_group_IT_number 63
_symmetry_cell_setting 'orthorhombic'
loop_
_space_group_symop_operation_xyz
x,y,z
-x,-y,1/2+z
x,-y,-z
-x,y,1/2-z
-x,-y,-z
x,y,1/2-z
-x,y,z
x,-y,1/2+z
1/2+x,1/2+y,z
1/2-x,1/2-y,1/2+z
1/2+x,1/2-y,-z
1/2-x,1/2+y,1/2-z
1/2-x,1/2-y,-z
1/2+x,1/2+y,1/2-z
1/2-x,1/2+y,z
1/2+x,1/2-y,1/2+z
loop_
_atom_site_type_symbol
_atom_site_label
_atom_site_fract_x
_atom_site_fract_y
_atom_site_fract_z
Si Si1 0.586895 0.291725 0.510997
Si Si2 0.586020 0.037829 0.356151
Si Si3 0.174002 0.415040 0.143651
Si Si4 0.818091 0.841775 0.354197
Si Si5 0.271300 0.288533 0.641270
Si Si6 0.865799 0.343286 0.967593
O O1 0.500000 0.309389 0.541667
O O2 0.614897 0.342311 0.431942
O O3 0.641760 0.293412 0.601855
O O4 0.587793 0.222616 0.461147
O O5 0.604229 0.056939 0.250000
O O6 0.500000 0.008370 0.366630
O O7 0.588461 0.101987 0.414682
O O8 0.648437 0.985379 0.390567
O O9 0.143971 0.402899 0.250000
O O10 0.267208 0.406600 0.139098
O O11 0.137224 0.362268 0.076506
O O12 0.854617 0.835713 0.250000
O O13 0.759607 0.782909 0.373307
O O14 0.271054 0.308958 0.750000
O O15 0.218595 0.336367 0.580235
#
# Coordination Sequence:
#
# PCOD8257548 Si02
#       6
#    16  16  16  16  16  16
#     4  11  21  32  50  78 106 134 173 219 270 314
#     4  10  22  36  50  78 114 143 176 215 255 306
#     4  10  19  33  53  72 101 142 179 213 252 300
#     4   9  17  34  53  71  98 133 177 219 257 308
#     4  10  19  34  53  73 100 138 178 218 262 312
#     4  11  19  35  54  76 104 144 179 210 254 317
#
# _framework density 18.504111000000002
#
# number of rings (size 3 to 8) (size 9 to 14) (size 15 to 20)
#    0.000    1.833    3.333    2.500    0.000    3.333 
#    0.000    0.000    0.000    0.000    0.000    2.333 
#    0.000    4.000    0.000    0.000    0.000    0.000 
#
# Total GULP energy -595027.957000 kJ/mol
# GULP energy per Si atom -12396.415771 kJ/mol
# Density = 1.846199 g / cm^3
# Si number density = 18.504111 Si / 1000 Ang^3
#
#
#
# Elastic Constant Matrix: (Units=GPa)
#
#
# Indices 1 2 3 4 5 6 
#
# 1 98.3467 19.0484 33.0593 0.0000 0.0000 0.0000
# 2 19.0484 58.5879 23.2194 0.0000 0.0000 0.0000
# 3 33.0593 23.2194 88.1805 0.0000 0.0000 0.0000
# 4 0.0000 0.0000 0.0000 25.2781 0.0000 0.0000
# 5 0.0000 0.0000 0.0000 0.0000 25.5542 0.0000
# 6 0.0000 0.0000 0.0000 0.0000 0.0000 22.2945
#
#
#
# Elastic Compliance Matrix: (Units=1/GPa)
#
#
# Indices 1 2 3 4 5 6 
#
# 1 0.011917 -0.002349 -0.003849 0.000000 0.000000 0.000000
# 2 -0.002349 0.019520 -0.004259 0.000000 0.000000 0.000000
# 3 -0.003849 -0.004259 0.013905 0.000000 0.000000 0.000000
# 4 0.000000 0.000000 0.000000 0.039560 0.000000 0.000000
# 5 0.000000 0.000000 0.000000 0.000000 0.039133 0.000000
# 6 0.000000 0.000000 0.000000 0.000000 0.000000 0.044854
#
#
# Mechanical properties :
#
#
# Convention : Reuss Voigt Hill
#
# Bulk Modulus (GPa) = 40.93819 43.97437 42.45628
# Shear Modulus (GPa) = 25.25940 25.94456 25.60198
#
# Velocity S-wave (km/s) = 3.69869 3.74852 3.72369
# Velocity P-wave (km/s) = 6.35707 6.52315 6.44064
#
# Compressibility (1/GPa) = 0.02442707
#
# Stress axis : x y z
#
# Youngs Moduli (GPa) = 83.91380 51.22910 71.91649
#
# Poissons Ratio (x) = 0.12034 0.27682
# Poissons Ratio (y) = 0.19711 0.30632
# Poissons Ratio (z) = 0.32300 0.21820
#
# Static dielectric constant tensor:
#      x y z
#    x 3.257800 0.000000 0.000000 
#    y 0.000000 3.210650 0.000000 
#    z 0.000000 0.000000 3.586250 
# 
# 
# High freq. dielectric constant tensor:
#      x y z
#    x 1.692330 0.000000 0.000000 
#    y 0.000000 1.682890 0.000000 
#    z 0.000000 0.000000 1.736130 
# 
# From -- ./inp_files/31902.got.cif
#   From: 2010.03.12/outbox.cif.g09.slc.cpg/sg63_16_cif.got.tgz:31902.got - 2010.04.10 19:34:48.
