data_PCOD8257085
_publ_section_title
;
Structure prediction by ZEFSAII (Michael W. Deem and Ramdas Pophale) SiO2 
 PCOD8257085
Probable space group: C M C M
;
_chemical_formula_sum "Si O2"
_cell_formula_units_Z 80
_cell_length_a 7.652805
_cell_length_b 19.577506
_cell_length_c 29.136041
_cell_angle_alpha 90.000000
_cell_angle_beta 90.000000
_cell_angle_gamma 90.000000
_cell_volume 4365.244287
_symmetry_space_group_name_H-M "C M C M"
_symmetry_group_IT_number 63
_symmetry_cell_setting 'orthorhombic'
loop_
_space_group_symop_operation_xyz
x,y,z
-x,-y,1/2+z
x,-y,-z
-x,y,1/2-z
-x,-y,-z
x,y,1/2-z
-x,y,z
x,-y,1/2+z
1/2+x,1/2+y,z
1/2-x,1/2-y,1/2+z
1/2+x,1/2-y,-z
1/2-x,1/2+y,1/2-z
1/2-x,1/2-y,-z
1/2+x,1/2+y,1/2-z
1/2-x,1/2+y,z
1/2+x,1/2-y,1/2+z
loop_
_atom_site_type_symbol
_atom_site_label
_atom_site_fract_x
_atom_site_fract_y
_atom_site_fract_z
Si Si1 0.000000 0.332903 0.801064
Si Si2 0.292976 0.077243 0.052773
Si Si3 0.203306 0.671694 0.869048
Si Si4 0.500000 0.671066 0.699090
Si Si5 0.306229 0.329170 0.633890
Si Si6 0.206095 0.424060 0.049429
O O1 0.000000 0.252105 0.796945
O O2 0.171499 0.358144 0.828412
O O3 0.000000 0.365541 0.750000
O O4 0.500000 0.085999 0.057922
O O5 0.198482 0.127711 0.087517
O O6 0.231920 0.999837 0.063936
O O7 0.226435 0.095732 0.001397
O O8 0.323439 0.646987 0.826696
O O9 0.237216 0.751147 0.879280
O O10 0.270933 0.631097 0.913731
O O11 0.000000 0.656148 0.857588
O O12 0.500000 0.638433 0.750000
O O13 0.500000 0.334014 0.655425
O O14 0.000000 0.425255 0.046651
#
# Coordination Sequence:
#
# PCOD8257085 Si02
#       6
#     8  16  16   8  16  16
#     4   9  18  34  54  73  98 130 163 206 252 294
#     4   9  16  31  52  72 100 137 173 204 239 292
#     4   9  18  33  50  73 103 130 162 205 251 293
#     4   9  18  32  52  77  98 124 165 206 250 300
#     4  10  19  31  50  77 103 128 163 205 251 298
#     4   8  16  31  51  73  98 137 176 201 239 294
#
# _framework density 18.326581999999998
#
# number of rings (size 3 to 8) (size 9 to 14) (size 15 to 20)
#    0.000    3.000    1.000    1.200    0.000    1.600 
#    3.600    5.000    0.000    1.200    0.000    0.000 
#    0.000    0.000    0.000    0.000    0.000    0.000 
#
# Total GULP energy -495823.503271 kJ/mol
# GULP energy per Si atom -12395.587582 kJ/mol
# Density = 1.828487 g / cm^3
# Si number density = 18.326582 Si / 1000 Ang^3
#
#
#
# Elastic Constant Matrix: (Units=GPa)
#
#
# Indices 1 2 3 4 5 6 
#
# 1 90.6071 30.6353 59.2834 0.0000 0.0000 0.0000
# 2 30.6353 61.8820 61.5067 0.0000 0.0000 0.0000
# 3 59.2834 61.5067 158.6873 0.0000 0.0000 0.0000
# 4 0.0000 0.0000 0.0000 5.5949 0.0000 0.0000
# 5 0.0000 0.0000 0.0000 0.0000 22.7794 0.0000
# 6 0.0000 0.0000 0.0000 0.0000 0.0000 12.4503
#
#
#
# Elastic Compliance Matrix: (Units=1/GPa)
#
#
# Indices 1 2 3 4 5 6 
#
# 1 0.014944 -0.003008 -0.004417 0.000000 0.000000 0.000000
# 2 -0.003008 0.026892 -0.009300 0.000000 0.000000 0.000000
# 3 -0.004417 -0.009300 0.011556 0.000000 0.000000 0.000000
# 4 0.000000 0.000000 0.000000 0.178734 0.000000 0.000000
# 5 0.000000 0.000000 0.000000 0.000000 0.043899 0.000000
# 6 0.000000 0.000000 0.000000 0.000000 0.000000 0.080319
#
#
# Mechanical properties :
#
#
# Convention : Reuss Voigt Hill
#
# Bulk Modulus (GPa) = 50.14228 68.22526 59.18377
# Shear Modulus (GPa) = 12.61221 18.81499 15.71360
#
# Velocity S-wave (km/s) = 2.62619 3.20761 2.93135
# Velocity P-wave (km/s) = 6.05108 7.14330 6.61975
#
# Compressibility (1/GPa) = 0.01994325
#
# Stress axis : x y z
#
# Youngs Moduli (GPa) = 66.91839 37.18567 86.53300
#
# Poissons Ratio (x) = 0.11185 0.38221
# Poissons Ratio (y) = 0.20128 0.80472
# Poissons Ratio (z) = 0.29557 0.34581
#
# Static dielectric constant tensor:
#      x y z
#    x 3.338720 0.000000 0.000000 
#    y 0.000000 3.272500 0.000000 
#    z 0.000000 0.000000 3.666980 
# 
# 
# High freq. dielectric constant tensor:
#      x y z
#    x 1.711790 0.000000 0.000000 
#    y 0.000000 1.681620 0.000000 
#    z 0.000000 0.000000 1.703080 
# 
# From -- ./inp_files/59473.got.cif
#   From: 2010.03.12/outbox.cif.g09.slc.cpg/sg63_30_cif.got.tgz:59473.got - 2010.04.10 19:34:48.
