data_PCOD8257728
_publ_section_title
;
Structure prediction by ZEFSAII (Michael W. Deem and Ramdas Pophale) SiO2 
 PCOD8257728
Probable space group: C M C M
;
_chemical_formula_sum "Si O2"
_cell_formula_units_Z 104
_cell_length_a 20.089857
_cell_length_b 8.542945
_cell_length_c 30.267277
_cell_angle_alpha 90.000000
_cell_angle_beta 90.000000
_cell_angle_gamma 90.000000
_cell_volume 5194.668130
_symmetry_space_group_name_H-M "C M C M"
_symmetry_group_IT_number 63
_symmetry_cell_setting 'orthorhombic'
loop_
_space_group_symop_operation_xyz
x,y,z
-x,-y,1/2+z
x,-y,-z
-x,y,1/2-z
-x,-y,-z
x,y,1/2-z
-x,y,z
x,-y,1/2+z
1/2+x,1/2+y,z
1/2-x,1/2-y,1/2+z
1/2+x,1/2-y,-z
1/2-x,1/2+y,1/2-z
1/2-x,1/2-y,-z
1/2+x,1/2+y,1/2-z
1/2-x,1/2+y,z
1/2+x,1/2-y,1/2+z
loop_
_atom_site_type_symbol
_atom_site_label
_atom_site_fract_x
_atom_site_fract_y
_atom_site_fract_z
Si Si1 0.691145 0.803810 0.922436
Si Si2 0.306076 0.609123 0.199533
Si Si3 0.574350 0.228374 0.566106
Si Si4 0.178343 0.960903 0.895075
Si Si5 0.165107 0.537590 0.798302
Si Si6 0.852025 0.500000 0.500000
Si Si7 0.573714 0.949214 0.872353
O O1 0.753118 0.862616 0.893526
O O2 0.694368 0.616988 0.922627
O O3 0.618866 0.841913 0.903062
O O4 0.695207 0.888544 0.970154
O O5 0.334268 0.571401 0.250000
O O6 0.340025 0.514699 0.157709
O O7 0.228157 0.575360 0.199969
O O8 0.314549 0.789684 0.185837
O O9 0.500000 0.287406 0.553165
O O10 0.621035 0.375690 0.576859
O O11 0.570660 0.125828 0.610131
O O12 0.602091 0.119777 0.527057
O O13 0.135058 0.550206 0.750000
O O14 0.105571 0.458116 0.824491
O O15 0.500000 0.874444 0.870025
#
# Coordination Sequence:
#
# PCOD8257728 Si02
#       7
#    16  16  16  16  16   8  16
#     4  11  24  38  63  88 118 160 203 255 308 364
#     4  10  20  34  57  89 122 154 196 246 295 349
#     4  10  22  40  64  87 119 159 200 248 303 368
#     4  12  22  39  64  90 122 157 204 250 306 361
#     4  10  19  33  56  86 116 154 199 244 297 355
#     4  10  23  44  62  88 123 156 202 254 313 364
#     4  10  20  37  56  82 118 158 198 245 301 357
#
# _framework density 20.020529
#
# number of rings (size 3 to 8) (size 9 to 14) (size 15 to 20)
#    0.000    1.538    3.077    3.000    0.000    4.615 
#    0.000    0.769    0.000    0.462    0.000    0.000 
#    0.000    0.000    0.000    0.000    0.000    0.000 
#
# Total GULP energy -644375.276561 kJ/mol
# GULP energy per Si atom -12391.832242 kJ/mol
# Density = 1.997496 g / cm^3
# Si number density = 20.020529 Si / 1000 Ang^3
#
#
#
# Elastic Constant Matrix: (Units=GPa)
#
#
# Indices 1 2 3 4 5 6 
#
# 1 83.1255 35.3668 27.5247 0.0000 0.0000 0.0000
# 2 35.3668 92.5003 36.0970 0.0000 0.0000 0.0000
# 3 27.5247 36.0970 119.3910 0.0000 0.0000 0.0000
# 4 0.0000 0.0000 0.0000 25.4298 0.0000 0.0000
# 5 0.0000 0.0000 0.0000 0.0000 22.4476 0.0000
# 6 0.0000 0.0000 0.0000 0.0000 0.0000 27.3411
#
#
#
# Elastic Compliance Matrix: (Units=1/GPa)
#
#
# Indices 1 2 3 4 5 6 
#
# 1 0.014746 -0.004888 -0.001922 0.000000 0.000000 0.000000
# 2 -0.004888 0.013877 -0.003069 0.000000 0.000000 0.000000
# 3 -0.001922 -0.003069 0.009747 0.000000 0.000000 0.000000
# 4 0.000000 0.000000 0.000000 0.039324 0.000000 0.000000
# 5 0.000000 0.000000 0.000000 0.000000 0.044548 0.000000
# 6 0.000000 0.000000 0.000000 0.000000 0.000000 0.036575
#
#
# Mechanical properties :
#
#
# Convention : Reuss Voigt Hill
#
# Bulk Modulus (GPa) = 53.72643 54.77707 54.25175
# Shear Modulus (GPa) = 27.05943 28.11226 27.58584
#
# Velocity S-wave (km/s) = 3.68038 3.75129 3.71600
# Velocity P-wave (km/s) = 6.70479 6.79579 6.75044
#
# Compressibility (1/GPa) = 0.01861281
#
# Stress axis : x y z
#
# Youngs Moduli (GPa) = 67.81487 72.06040 102.59887
#
# Poissons Ratio (x) = 0.35224 0.19716
# Poissons Ratio (y) = 0.33149 0.31485
# Poissons Ratio (z) = 0.13032 0.22114
#
# Static dielectric constant tensor:
#      x y z
#    x 3.585730 0.000000 0.000000 
#    y 0.000000 3.514740 0.000000 
#    z 0.000000 0.000000 3.981780 
# 
# 
# High freq. dielectric constant tensor:
#      x y z
#    x 1.760430 0.000000 0.000000 
#    y 0.000000 1.770020 0.000000 
#    z 0.000000 0.000000 1.794990 
# 
# From -- ./inp_files/74084.got.cif
#   From: 2010.03.12/outbox.cif.g09.slc.cpg/sg63_38_cif.got.tgz:74084.got - 2010.04.10 19:34:48.
