data_PCOD8257603
_publ_section_title
;
Structure prediction by ZEFSAII (Michael W. Deem and Ramdas Pophale) SiO2 
 PCOD8257603
Probable space group: C M C M
;
_chemical_formula_sum "Si O2"
_cell_formula_units_Z 112
_cell_length_a 14.081188
_cell_length_b 13.905563
_cell_length_c 29.565160
_cell_angle_alpha 90.000000
_cell_angle_beta 90.000000
_cell_angle_gamma 90.000000
_cell_volume 5789.060756
_symmetry_space_group_name_H-M "C M C M"
_symmetry_group_IT_number 63
_symmetry_cell_setting 'orthorhombic'
loop_
_space_group_symop_operation_xyz
x,y,z
-x,-y,1/2+z
x,-y,-z
-x,y,1/2-z
-x,-y,-z
x,y,1/2-z
-x,y,z
x,-y,1/2+z
1/2+x,1/2+y,z
1/2-x,1/2-y,1/2+z
1/2+x,1/2-y,-z
1/2-x,1/2+y,1/2-z
1/2-x,1/2-y,-z
1/2+x,1/2+y,1/2-z
1/2-x,1/2+y,z
1/2+x,1/2-y,1/2+z
loop_
_atom_site_type_symbol
_atom_site_label
_atom_site_fract_x
_atom_site_fract_y
_atom_site_fract_z
Si Si1 0.395363 0.505922 0.351818
Si Si2 0.724242 0.342895 0.697916
Si Si3 0.270537 0.137492 0.842329
Si Si4 0.606693 0.022362 0.302469
Si Si5 0.355630 0.532474 0.452784
Si Si6 0.262213 0.141172 0.944756
Si Si7 0.387146 0.724021 0.494402
O O1 0.500000 0.489573 0.331158
O O2 0.354361 0.607016 0.333782
O O3 0.328264 0.419441 0.335201
O O4 0.408276 0.507473 0.406261
O O5 0.696922 0.362070 0.750000
O O6 0.728924 0.229818 0.689479
O O7 0.827639 0.386219 0.686295
O O8 0.359014 0.070653 0.829708
O O9 0.284951 0.169727 0.893740
O O10 0.611635 0.995474 0.250000
O O11 0.500000 0.048262 0.317741
O O12 0.409127 0.500000 0.500000
O O13 0.254800 0.474176 0.450943
O O14 0.348495 0.647715 0.456595
O O15 0.349938 0.172869 0.976625
O O16 0.163964 0.196307 0.958492
O O17 0.500000 0.725248 0.500376
#
# Coordination Sequence:
#
# PCOD8257603 Si02
#       7
#    16  16  16  16  16  16  16
#     4  10  21  35  53  82 114 140 175 224 270 315
#     4  10  21  37  55  75 102 138 176 215 265 321
#     4  10  20  34  54  78 106 137 172 216 266 316
#     4   9  19  36  55  75  99 128 167 212 255 308
#     4   9  18  32  54  79 108 143 179 216 261 315
#     4   9  20  33  49  78 110 135 173 224 263 303
#     4  10  19  33  54  76 103 143 183 216 257 311
#
# _framework density 19.346834000000001
#
# number of rings (size 3 to 8) (size 9 to 14) (size 15 to 20)
#    0.000    2.429    0.000    1.714    0.000   10.571 
#    0.000    0.000    0.000   10.714    0.000    0.000 
#    0.000    0.000    0.000    0.000    0.000    0.000 
#
# Total GULP energy -693991.049387 kJ/mol
# GULP energy per Si atom -12392.697310 kJ/mol
# Density = 1.930280 g / cm^3
# Si number density = 19.346834 Si / 1000 Ang^3
#
#
#
# Elastic Constant Matrix: (Units=GPa)
#
#
# Indices 1 2 3 4 5 6 
#
# 1 87.8590 6.9304 21.0554 0.0000 0.0000 0.0000
# 2 6.9304 59.4505 8.0914 0.0000 0.0000 0.0000
# 3 21.0554 8.0914 63.8718 0.0000 0.0000 0.0000
# 4 0.0000 0.0000 0.0000 21.7577 0.0000 0.0000
# 5 0.0000 0.0000 0.0000 0.0000 14.7545 0.0000
# 6 0.0000 0.0000 0.0000 0.0000 0.0000 12.3164
#
#
#
# Elastic Compliance Matrix: (Units=1/GPa)
#
#
# Indices 1 2 3 4 5 6 
#
# 1 0.012406 -0.000905 -0.003975 0.000000 0.000000 0.000000
# 2 -0.000905 0.017182 -0.001878 0.000000 0.000000 0.000000
# 3 -0.003975 -0.001878 0.017205 0.000000 0.000000 0.000000
# 4 0.000000 0.000000 0.000000 0.045961 0.000000 0.000000
# 5 0.000000 0.000000 0.000000 0.000000 0.067776 0.000000
# 6 0.000000 0.000000 0.000000 0.000000 0.000000 0.081192
#
#
# Mechanical properties :
#
#
# Convention : Reuss Voigt Hill
#
# Bulk Modulus (GPa) = 30.05199 31.48173 30.76686
# Shear Modulus (GPa) = 18.77372 21.43935 20.10653
#
# Velocity S-wave (km/s) = 3.11847 3.33251 3.22726
# Velocity P-wave (km/s) = 5.34167 5.57809 5.46116
#
# Compressibility (1/GPa) = 0.03327567
#
# Stress axis : x y z
#
# Youngs Moduli (GPa) = 80.60708 58.20086 58.12389
#
# Poissons Ratio (x) = 0.05268 0.23104
# Poissons Ratio (y) = 0.07297 0.10917
# Poissons Ratio (z) = 0.32041 0.10931
#
# Static dielectric constant tensor:
#      x y z
#    x 3.402590 0.000000 0.000000 
#    y 0.000000 3.532550 0.000000 
#    z 0.000000 0.000000 3.569980 
# 
# 
# High freq. dielectric constant tensor:
#      x y z
#    x 1.734900 0.000000 0.000000 
#    y 0.000000 1.748580 0.000000 
#    z 0.000000 0.000000 1.754250 
# 
# From -- ./inp_files/69392.got.cif
#   From: 2010.03.12/outbox.cif.g09.slc.cpg/sg63_35_cif.got.tgz:69392.got - 2010.04.10 19:34:48.
