data_PCOD8257385
_publ_section_title
;
Structure prediction by ZEFSAII (Michael W. Deem and Ramdas Pophale) SiO2 
 PCOD8257385
Probable space group: C M C M
;
_chemical_formula_sum "Si O2"
_cell_formula_units_Z 96
_cell_length_a 23.262008
_cell_length_b 10.438517
_cell_length_c 20.801288
_cell_angle_alpha 90.000000
_cell_angle_beta 90.000000
_cell_angle_gamma 90.000000
_cell_volume 5050.986765
_symmetry_space_group_name_H-M "C M C M"
_symmetry_group_IT_number 63
_symmetry_cell_setting 'orthorhombic'
loop_
_space_group_symop_operation_xyz
x,y,z
-x,-y,1/2+z
x,-y,-z
-x,y,1/2-z
-x,-y,-z
x,y,1/2-z
-x,y,z
x,-y,1/2+z
1/2+x,1/2+y,z
1/2-x,1/2-y,1/2+z
1/2+x,1/2-y,-z
1/2-x,1/2+y,1/2-z
1/2-x,1/2-y,-z
1/2+x,1/2+y,1/2-z
1/2-x,1/2+y,z
1/2+x,1/2-y,1/2+z
loop_
_atom_site_type_symbol
_atom_site_label
_atom_site_fract_x
_atom_site_fract_y
_atom_site_fract_z
Si Si1 0.500000 0.591966 0.826186
Si Si2 0.828793 0.721715 0.677777
Si Si3 0.777429 0.676750 0.100660
Si Si4 0.118795 0.981886 0.676232
Si Si5 0.375209 0.044127 0.173076
Si Si6 0.000000 0.377061 0.826154
Si Si7 0.299145 0.551368 0.563626
O O1 0.500000 0.594232 0.750000
O O2 0.443513 0.519198 0.850583
O O3 0.500000 0.734211 0.854986
O O4 0.813393 0.686604 0.750000
O O5 0.770675 0.775321 0.649282
O O6 0.878448 0.828307 0.672760
O O7 0.852449 0.591851 0.646160
O O8 0.836796 0.653080 0.139162
O O9 0.756594 0.544416 0.066999
O O10 0.785006 0.797947 0.052145
O O11 0.129649 0.029333 0.750000
O O12 0.165978 0.044581 0.629936
O O13 0.370593 0.059907 0.250000
O O14 0.441672 0.053915 0.150198
O O15 0.000000 0.371424 0.750000
O O16 0.333216 0.500000 0.500000
#
# Coordination Sequence:
#
# PCOD8257385 Si02
#       7
#     8  16  16  16  16   8  16
#     4   9  16  31  52  80 107 143 186 225 276 328
#     4   9  18  31  49  81 111 141 183 227 278 329
#     4  11  20  36  54  76 107 145 186 225 281 328
#     4   9  19  34  56  79 110 143 182 229 274 331
#     4  10  19  32  52  80 114 146 183 233 280 332
#     4   9  18  29  45  74 112 147 180 222 281 337
#     4  11  23  37  55  80 111 143 183 229 283 338
#
# _framework density 19.006186
#
# number of rings (size 3 to 8) (size 9 to 14) (size 15 to 20)
#    0.000    2.167    1.667    2.000    0.000    4.000 
#    0.000    3.750    0.000    0.000    0.000    0.583 
#    0.000    0.000    0.000    0.000    0.000    0.000 
#
# Total GULP energy -594779.214958 kJ/mol
# GULP energy per Si atom -12391.233645 kJ/mol
# Density = 1.896293 g / cm^3
# Si number density = 19.006186 Si / 1000 Ang^3
#
#
#
# Elastic Constant Matrix: (Units=GPa)
#
#
# Indices 1 2 3 4 5 6 
#
# 1 111.6545 42.5430 20.1822 0.0000 0.0000 0.0000
# 2 42.5430 108.7315 17.3219 0.0000 0.0000 0.0000
# 3 20.1822 17.3219 48.9784 0.0000 0.0000 0.0000
# 4 0.0000 0.0000 0.0000 22.9000 0.0000 0.0000
# 5 0.0000 0.0000 0.0000 0.0000 7.3437 0.0000
# 6 0.0000 0.0000 0.0000 0.0000 0.0000 25.3319
#
#
#
# Elastic Compliance Matrix: (Units=1/GPa)
#
#
# Indices 1 2 3 4 5 6 
#
# 1 0.010974 -0.003787 -0.003183 0.000000 0.000000 0.000000
# 2 -0.003787 0.011053 -0.002349 0.000000 0.000000 0.000000
# 3 -0.003183 -0.002349 0.022559 0.000000 0.000000 0.000000
# 4 0.000000 0.000000 0.000000 0.043668 0.000000 0.000000
# 5 0.000000 0.000000 0.000000 0.000000 0.136172 0.000000
# 6 0.000000 0.000000 0.000000 0.000000 0.000000 0.039476
#
#
# Mechanical properties :
#
#
# Convention : Reuss Voigt Hill
#
# Bulk Modulus (GPa) = 38.53576 47.71762 43.12669
# Shear Modulus (GPa) = 17.17097 23.73626 20.45362
#
# Velocity S-wave (km/s) = 3.00899 3.53777 3.28404
# Velocity P-wave (km/s) = 5.69135 6.46905 6.09262
#
# Compressibility (1/GPa) = 0.02594992
#
# Stress axis : x y z
#
# Youngs Moduli (GPa) = 91.12109 90.47498 44.32765
#
# Poissons Ratio (x) = 0.34262 0.14109
# Poissons Ratio (y) = 0.34506 0.10410
# Poissons Ratio (z) = 0.29003 0.21248
#
# Static dielectric constant tensor:
#      x y z
#    x 3.558880 0.000000 0.000000 
#    y 0.000000 3.839470 0.000000 
#    z 0.000000 0.000000 3.197570 
# 
# 
# High freq. dielectric constant tensor:
#      x y z
#    x 1.727080 0.000000 0.000000 
#    y 0.000000 1.758070 0.000000 
#    z 0.000000 0.000000 1.700760 
# 
# From -- ./inp_files/56581.got.cif
#   From: 2010.03.12/outbox.cif.g09.slc.cpg/sg63_29_cif.got.tgz:56581.got - 2010.04.10 19:34:48.
