data_PCOD8257312
_publ_section_title
;
Structure prediction by ZEFSAII (Michael W. Deem and Ramdas Pophale) SiO2 
 PCOD8257312
Probable space group: C M C M
;
_chemical_formula_sum "Si O2"
_cell_formula_units_Z 72
_cell_length_a 22.276789
_cell_length_b 16.434176
_cell_length_c 9.891805
_cell_angle_alpha 90.000000
_cell_angle_beta 90.000000
_cell_angle_gamma 90.000000
_cell_volume 3621.396449
_symmetry_space_group_name_H-M "C M C M"
_symmetry_group_IT_number 63
_symmetry_cell_setting 'orthorhombic'
loop_
_space_group_symop_operation_xyz
x,y,z
-x,-y,1/2+z
x,-y,-z
-x,y,1/2-z
-x,-y,-z
x,y,1/2-z
-x,y,z
x,-y,1/2+z
1/2+x,1/2+y,z
1/2-x,1/2-y,1/2+z
1/2+x,1/2-y,-z
1/2-x,1/2+y,1/2-z
1/2-x,1/2-y,-z
1/2+x,1/2+y,1/2-z
1/2-x,1/2+y,z
1/2+x,1/2-y,1/2+z
loop_
_atom_site_type_symbol
_atom_site_label
_atom_site_fract_x
_atom_site_fract_y
_atom_site_fract_z
Si Si1 0.332939 0.406736 0.030229
Si Si2 0.229226 0.807892 0.250000
Si Si3 0.163121 0.187490 0.250000
Si Si4 0.116684 0.303929 0.750000
Si Si5 0.931577 0.687991 0.750000
Si Si6 0.929888 0.407580 0.985942
Si Si7 0.569465 0.367919 0.250000
O O1 0.280253 0.364653 0.118047
O O2 0.395844 0.398740 0.114294
O O3 0.318084 0.500000 0.000000
O O4 0.332083 0.365156 0.884496
O O5 0.293847 0.766593 0.250000
O O6 0.182767 0.733272 0.250000
O O7 0.097073 0.223689 0.250000
O O8 0.109803 0.361649 0.622581
O O9 0.068561 0.230345 0.750000
O O10 0.913005 0.634575 0.623973
O O11 0.000000 0.710299 0.750000
O O12 0.000000 0.402509 0.946563
O O13 0.908862 0.500000 0.000000
O O14 0.500000 0.398715 0.250000
#
# Coordination Sequence:
#
# PCOD8257312 Si02
#       7
#    16   8   8   8   8  16   8
#     4  10  22  41  62  86 120 158 196 246 305 356
#     4  10  23  41  60  85 115 155 202 247 295 353
#     4  12  22  39  64  87 115 152 201 249 294 356
#     4  10  19  35  54  74 107 151 194 232 285 349
#     4  10  21  35  53  81 111 140 181 233 288 345
#     4  10  19  32  51  77 111 147 183 229 285 344
#     4  10  21  38  61  89 120 158 202 247 304 369
#
# _framework density 19.881833
#
# number of rings (size 3 to 8) (size 9 to 14) (size 15 to 20)
#    0.000    2.000    0.000    6.333    0.000    4.889 
#    0.000    7.778    0.000    0.000    0.000    0.000 
#    0.000    0.000    0.000    0.000    0.000    0.000 
#
# Total GULP energy -446290.149591 kJ/mol
# GULP energy per Si atom -12396.948600 kJ/mol
# Density = 1.983658 g / cm^3
# Si number density = 19.881833 Si / 1000 Ang^3
#
#
#
# Elastic Constant Matrix: (Units=GPa)
#
#
# Indices 1 2 3 4 5 6 
#
# 1 41.3559 32.8095 49.0060 0.0000 0.0000 0.0000
# 2 32.8095 167.2919 85.7811 0.0000 0.0000 0.0000
# 3 49.0060 85.7811 184.7099 0.0000 0.0000 0.0000
# 4 0.0000 0.0000 0.0000 51.2271 0.0000 0.0000
# 5 0.0000 0.0000 0.0000 0.0000 17.0746 0.0000
# 6 0.0000 0.0000 0.0000 0.0000 0.0000 12.9571
#
#
#
# Elastic Compliance Matrix: (Units=1/GPa)
#
#
# Indices 1 2 3 4 5 6 
#
# 1 0.036283 -0.002861 -0.008298 0.000000 0.000000 0.000000
# 2 -0.002861 0.008072 -0.002989 0.000000 0.000000 0.000000
# 3 -0.008298 -0.002989 0.009004 0.000000 0.000000 0.000000
# 4 0.000000 0.000000 0.000000 0.019521 0.000000 0.000000
# 5 0.000000 0.000000 0.000000 0.000000 0.058567 0.000000
# 6 0.000000 0.000000 0.000000 0.000000 0.000000 0.077178
#
#
# Mechanical properties :
#
#
# Convention : Reuss Voigt Hill
#
# Bulk Modulus (GPa) = 39.90153 80.95011 60.42582
# Shear Modulus (GPa) = 20.38543 31.30249 25.84396
#
# Velocity S-wave (km/s) = 3.20555 3.97221 3.60929
# Velocity P-wave (km/s) = 5.81495 7.86396 6.91576
#
# Compressibility (1/GPa) = 0.02506170
#
# Stress axis : x y z
#
# Youngs Moduli (GPa) = 27.56138 123.89166 111.06595
#
# Poissons Ratio (x) = 0.35447 0.92157
# Poissons Ratio (y) = 0.07886 0.33202
# Poissons Ratio (z) = 0.22869 0.37036
#
# Static dielectric constant tensor:
#      x y z
#    x 3.394690 0.000000 0.000000 
#    y 0.000000 3.501440 0.000000 
#    z 0.000000 0.000000 3.733430 
# 
# 
# High freq. dielectric constant tensor:
#      x y z
#    x 1.752510 0.000000 0.000000 
#    y 0.000000 1.785380 0.000000 
#    z 0.000000 0.000000 1.796200 
# 
# From -- ./inp_files/11809.got.cif
#   From: 2010.03.12/outbox.cif.g09.slc.cpg/sg63_6_cif.got.tgz:11809.got - 2010.04.10 19:34:48.
