data_PCOD8257337
_publ_section_title
;
Structure prediction by ZEFSAII (Michael W. Deem and Ramdas Pophale) SiO2 
 PCOD8257337
Probable space group: C M C M
;
_chemical_formula_sum "Si O2"
_cell_formula_units_Z 80
_cell_length_a 12.946943
_cell_length_b 18.524288
_cell_length_c 18.187586
_cell_angle_alpha 90.000000
_cell_angle_beta 90.000000
_cell_angle_gamma 90.000000
_cell_volume 4361.981510
_symmetry_space_group_name_H-M "C M C M"
_symmetry_group_IT_number 63
_symmetry_cell_setting 'orthorhombic'
loop_
_space_group_symop_operation_xyz
x,y,z
-x,-y,1/2+z
x,-y,-z
-x,y,1/2-z
-x,-y,-z
x,y,1/2-z
-x,y,z
x,-y,1/2+z
1/2+x,1/2+y,z
1/2-x,1/2-y,1/2+z
1/2+x,1/2-y,-z
1/2-x,1/2+y,1/2-z
1/2-x,1/2-y,-z
1/2+x,1/2+y,1/2-z
1/2-x,1/2+y,z
1/2+x,1/2-y,1/2+z
loop_
_atom_site_type_symbol
_atom_site_label
_atom_site_fract_x
_atom_site_fract_y
_atom_site_fract_z
Si Si1 0.800418 0.937974 0.591448
Si Si2 0.385694 0.299609 0.663595
Si Si3 0.118439 0.087141 0.935230
Si Si4 0.767286 0.339223 0.334920
Si Si5 0.119001 0.486984 0.165227
O O1 0.834305 0.875905 0.646681
O O2 0.809711 0.910254 0.507820
O O3 0.874214 0.007838 0.601840
O O4 0.683346 0.960144 0.611826
O O5 0.394435 0.290025 0.750000
O O6 0.500000 0.296410 0.628075
O O7 0.318052 0.233452 0.632302
O O8 0.161330 0.146719 0.879050
O O9 0.000000 0.104704 0.954787
O O10 0.736760 0.330170 0.250000
O O11 0.847529 0.404322 0.346871
O O12 0.137777 0.509303 0.250000
O O13 0.000000 0.494876 0.143071
#
# Coordination Sequence:
#
# PCOD8257337 Si02
#       5
#    16  16  16  16  16
#     4  10  19  33  51  76 104 132 169 209 251 300
#     4  10  19  32  52  76 101 129 164 210 257 300
#     4  10  20  35  53  73 103 139 171 210 256 300
#     4   9  19  34  51  73  99 130 172 214 254 305
#     4   9  17  32  53  74 100 134 168 206 253 303
#
# _framework density 18.340288999999999
#
# number of rings (size 3 to 8) (size 9 to 14) (size 15 to 20)
#    0.000    2.400    0.000    3.600    0.000    4.400 
#    0.000   10.000    0.000    1.200    0.000    0.000 
#    0.000    0.000    0.000    0.000    0.000    0.000 
#
# Total GULP energy -495986.191424 kJ/mol
# GULP energy per Si atom -12399.654786 kJ/mol
# Density = 1.829855 g / cm^3
# Si number density = 18.340289 Si / 1000 Ang^3
#
#
#
# Elastic Constant Matrix: (Units=GPa)
#
#
# Indices 1 2 3 4 5 6 
#
# 1 123.1560 40.2523 45.3441 0.0000 0.0000 0.0000
# 2 40.2523 88.6193 26.0929 0.0000 0.0000 0.0000
# 3 45.3441 26.0929 48.8737 0.0000 0.0000 0.0000
# 4 0.0000 0.0000 0.0000 23.9924 0.0000 0.0000
# 5 0.0000 0.0000 0.0000 0.0000 27.4209 0.0000
# 6 0.0000 0.0000 0.0000 0.0000 0.0000 21.5342
#
#
#
# Elastic Compliance Matrix: (Units=1/GPa)
#
#
# Indices 1 2 3 4 5 6 
#
# 1 0.012880 -0.002767 -0.010473 0.000000 0.000000 0.000000
# 2 -0.002767 0.013983 -0.004899 0.000000 0.000000 0.000000
# 3 -0.010473 -0.004899 0.032792 0.000000 0.000000 0.000000
# 4 0.000000 0.000000 0.000000 0.041680 0.000000 0.000000
# 5 0.000000 0.000000 0.000000 0.000000 0.036469 0.000000
# 6 0.000000 0.000000 0.000000 0.000000 0.000000 0.046438
#
#
# Mechanical properties :
#
#
# Convention : Reuss Voigt Hill
#
# Bulk Modulus (GPa) = 42.77186 53.78086 48.27636
# Shear Modulus (GPa) = 21.89996 24.52014 23.21005
#
# Velocity S-wave (km/s) = 3.45931 3.66041 3.56128
# Velocity P-wave (km/s) = 6.27118 6.87403 6.57951
#
# Compressibility (1/GPa) = 0.02337986
#
# Stress axis : x y z
#
# Youngs Moduli (GPa) = 77.64030 71.51425 30.49480
#
# Poissons Ratio (x) = 0.19786 0.31936
# Poissons Ratio (y) = 0.21481 0.14938
# Poissons Ratio (z) = 0.81310 0.35031
#
# Static dielectric constant tensor:
#      x y z
#    x 3.387520 0.000000 0.000000 
#    y 0.000000 3.356040 0.000000 
#    z 0.000000 0.000000 3.279190 
# 
# 
# High freq. dielectric constant tensor:
#      x y z
#    x 1.704790 0.000000 0.000000 
#    y 0.000000 1.703570 0.000000 
#    z 0.000000 0.000000 1.700470 
# 
# From -- ./inp_files/43975.got.cif
#   From: 2010.03.12/outbox.cif.g09.slc.cpg/sg63_22_cif.got.tgz:43975.got - 2010.04.10 19:34:48.
