data_PCOD8257280
_publ_section_title
;
Structure prediction by ZEFSAII (Michael W. Deem and Ramdas Pophale) SiO2 
 PCOD8257280
Probable space group: C M C M
;
_chemical_formula_sum "Si O2"
_cell_formula_units_Z 96
_cell_length_a 20.379666
_cell_length_b 28.021823
_cell_length_c 8.913411
_cell_angle_alpha 90.000000
_cell_angle_beta 90.000000
_cell_angle_gamma 90.000000
_cell_volume 5090.229694
_symmetry_space_group_name_H-M "C M C M"
_symmetry_group_IT_number 63
_symmetry_cell_setting 'orthorhombic'
loop_
_space_group_symop_operation_xyz
x,y,z
-x,-y,1/2+z
x,-y,-z
-x,y,1/2-z
-x,-y,-z
x,y,1/2-z
-x,y,z
x,-y,1/2+z
1/2+x,1/2+y,z
1/2-x,1/2-y,1/2+z
1/2+x,1/2-y,-z
1/2-x,1/2+y,1/2-z
1/2-x,1/2-y,-z
1/2+x,1/2+y,1/2-z
1/2-x,1/2+y,z
1/2+x,1/2-y,1/2+z
loop_
_atom_site_type_symbol
_atom_site_label
_atom_site_fract_x
_atom_site_fract_y
_atom_site_fract_z
Si Si1 0.072092 0.787153 0.928114
Si Si2 0.190018 0.722830 0.928809
Si Si3 0.689687 0.449358 0.427593
Si Si4 0.309865 0.884763 0.072112
Si Si5 0.926128 0.450230 0.073207
Si Si6 0.423852 0.394414 0.923983
O O1 0.069212 0.787079 0.750000
O O2 0.124008 0.748623 0.987619
O O3 0.091480 0.840568 0.980074
O O4 0.000000 0.773571 0.991758
O O5 0.195225 0.724807 0.750000
O O6 0.190310 0.668943 0.991176
O O7 0.250000 0.750000 0.000000
O O8 0.705558 0.500000 0.500000
O O9 0.690424 0.455052 0.250000
O O10 0.745426 0.412571 0.484542
O O11 0.618772 0.430790 0.478703
O O12 0.310780 0.883221 0.250000
O O13 0.375811 0.910437 0.012652
O O14 0.919734 0.456719 0.250000
O O15 0.000000 0.434924 0.027381
O O16 0.906160 0.500000 0.000000
O O17 0.405249 0.400602 0.750000
O O18 0.500000 0.406694 0.950569
#
# Coordination Sequence:
#
# PCOD8257280 Si02
#       6
#    16  16  16  16  16  16
#     4   8  15  29  51  77 101 128 163 199 235 281
#     4  10  19  32  51  74 101 130 162 201 242 286
#     4  11  22  35  51  71  98 130 165 204 245 291
#     4   9  19  33  49  73 102 130 162 202 244 286
#     4   9  17  31  51  73  98 129 164 201 242 287
#     4   9  18  34  54  75 100 128 160 199 241 288
#
# _framework density 18.859660999999999
#
# number of rings (size 3 to 8) (size 9 to 14) (size 15 to 20)
#    0.000    2.667    0.000    3.000    0.000    1.333 
#    0.000    5.833    0.000    1.500    0.000    0.000 
#    0.000    0.000    0.000    0.000    0.000    0.000 
#
# Total GULP energy -595156.894295 kJ/mol
# GULP energy per Si atom -12399.101964 kJ/mol
# Density = 1.881674 g / cm^3
# Si number density = 18.859661 Si / 1000 Ang^3
#
#
#
# Elastic Constant Matrix: (Units=GPa)
#
#
# Indices 1 2 3 4 5 6 
#
# 1 131.3119 83.3431 27.8382 0.0000 0.0000 0.0000
# 2 83.3431 147.0782 28.5473 0.0000 0.0000 0.0000
# 3 27.8382 28.5473 31.6182 0.0000 0.0000 0.0000
# 4 0.0000 0.0000 0.0000 15.5702 0.0000 0.0000
# 5 0.0000 0.0000 0.0000 0.0000 21.9610 0.0000
# 6 0.0000 0.0000 0.0000 0.0000 0.0000 41.2541
#
#
#
# Elastic Compliance Matrix: (Units=1/GPa)
#
#
# Indices 1 2 3 4 5 6 
#
# 1 0.012679 -0.006084 -0.005670 0.000000 0.000000 0.000000
# 2 -0.006084 0.011163 -0.004722 0.000000 0.000000 0.000000
# 3 -0.005670 -0.004722 0.040883 0.000000 0.000000 0.000000
# 4 0.000000 0.000000 0.000000 0.064225 0.000000 0.000000
# 5 0.000000 0.000000 0.000000 0.000000 0.045535 0.000000
# 6 0.000000 0.000000 0.000000 0.000000 0.000000 0.024240
#
#
# Mechanical properties :
#
#
# Convention : Reuss Voigt Hill
#
# Bulk Modulus (GPa) = 31.47364 65.49617 48.48490
# Shear Modulus (GPa) = 20.63812 27.10905 23.87359
#
# Velocity S-wave (km/s) = 3.31161 3.79543 3.56174
# Velocity P-wave (km/s) = 5.59883 7.34919 6.53290
#
# Compressibility (1/GPa) = 0.03177262
#
# Stress axis : x y z
#
# Youngs Moduli (GPa) = 78.86981 89.57889 24.45992
#
# Poissons Ratio (x) = 0.54502 0.13869
# Poissons Ratio (y) = 0.47986 0.11551
# Poissons Ratio (z) = 0.44719 0.42302
#
# Static dielectric constant tensor:
#      x y z
#    x 2.861680 0.000000 0.000000 
#    y 0.000000 3.885660 0.000000 
#    z 0.000000 0.000000 3.040440 
# 
# 
# High freq. dielectric constant tensor:
#      x y z
#    x 1.747420 0.000000 0.000000 
#    y 0.000000 1.738000 0.000000 
#    z 0.000000 0.000000 1.693170 
# 
# From -- ./inp_files/8535.got.cif
#   From: 2010.03.12/outbox.cif.g09.slc.cpg/sg63_5_cif.got.tgz:8535.got - 2010.04.10 19:34:48.
