data_PCOD8257391
_publ_section_title
;
Structure prediction by ZEFSAII (Michael W. Deem and Ramdas Pophale) SiO2 
 PCOD8257391
Probable space group: C M C M
;
_chemical_formula_sum "Si O2"
_cell_formula_units_Z 96
_cell_length_a 9.407422
_cell_length_b 29.431292
_cell_length_c 18.973851
_cell_angle_alpha 90.000000
_cell_angle_beta 90.000000
_cell_angle_gamma 90.000000
_cell_volume 5253.339152
_symmetry_space_group_name_H-M "C M C M"
_symmetry_group_IT_number 63
_symmetry_cell_setting 'orthorhombic'
loop_
_space_group_symop_operation_xyz
x,y,z
-x,-y,1/2+z
x,-y,-z
-x,y,1/2-z
-x,-y,-z
x,y,1/2-z
-x,y,z
x,-y,1/2+z
1/2+x,1/2+y,z
1/2-x,1/2-y,1/2+z
1/2+x,1/2-y,-z
1/2-x,1/2+y,1/2-z
1/2-x,1/2-y,-z
1/2+x,1/2+y,1/2-z
1/2-x,1/2+y,z
1/2+x,1/2-y,1/2+z
loop_
_atom_site_type_symbol
_atom_site_label
_atom_site_fract_x
_atom_site_fract_y
_atom_site_fract_z
Si Si1 0.834544 0.812264 0.944522
Si Si2 0.165138 0.595782 0.432544
Si Si3 0.661006 0.730501 0.594713
Si Si4 0.835264 0.570359 0.588613
Si Si5 0.831232 0.517399 0.170256
Si Si6 0.663170 0.642301 0.829317
O O1 0.760044 0.859643 0.928090
O O2 0.766340 0.772941 0.895770
O O3 0.000000 0.816636 0.926443
O O4 0.805759 0.798755 0.024955
O O5 0.189532 0.567794 0.504824
O O6 0.215991 0.563422 0.368860
O O7 0.000000 0.609678 0.425332
O O8 0.500000 0.749249 0.592253
O O9 0.685338 0.696243 0.659524
O O10 0.771118 0.525743 0.626707
O O11 0.759049 0.614921 0.616918
O O12 0.000000 0.575446 0.607059
O O13 0.770014 0.517069 0.250000
O O14 0.000000 0.514742 0.171081
O O15 0.708003 0.630196 0.750000
O O16 0.500000 0.629377 0.844274
#
# Coordination Sequence:
#
# PCOD8257391 Si02
#       6
#    16  16  16  16  16  16
#     4  10  19  32  53  77 101 131 169 214 258 299
#     4  10  19  32  53  79 104 135 175 217 259 307
#     4   9  18  33  51  73 102 134 169 207 251 305
#     4  10  19  32  53  79 105 133 172 219 263 305
#     4   9  18  33  52  75 104 138 176 216 257 305
#     4  10  20  34  52  76 108 141 171 208 259 317
#
# _framework density 18.274092
#
# number of rings (size 3 to 8) (size 9 to 14) (size 15 to 20)
#    0.000    2.333    1.667    1.500    0.000    4.333 
#    0.000    1.667    0.000    8.500    0.000    0.000 
#    0.000    0.000    0.000    0.000    0.000    0.000 
#
# Total GULP energy -595211.165595 kJ/mol
# GULP energy per Si atom -12400.232617 kJ/mol
# Density = 1.823250 g / cm^3
# Si number density = 18.274092 Si / 1000 Ang^3
#
#
#
# Elastic Constant Matrix: (Units=GPa)
#
#
# Indices 1 2 3 4 5 6 
#
# 1 66.2903 56.6223 32.7181 0.0000 0.0000 0.0000
# 2 56.6223 130.3265 48.2054 0.0000 0.0000 0.0000
# 3 32.7181 48.2054 82.2058 0.0000 0.0000 0.0000
# 4 0.0000 0.0000 0.0000 21.7141 0.0000 0.0000
# 5 0.0000 0.0000 0.0000 0.0000 13.5313 0.0000
# 6 0.0000 0.0000 0.0000 0.0000 0.0000 29.6677
#
#
#
# Elastic Compliance Matrix: (Units=1/GPa)
#
#
# Indices 1 2 3 4 5 6 
#
# 1 0.025293 -0.009278 -0.004626 0.000000 0.000000 0.000000
# 2 -0.009278 0.013202 -0.004049 0.000000 0.000000 0.000000
# 3 -0.004626 -0.004049 0.016380 0.000000 0.000000 0.000000
# 4 0.000000 0.000000 0.000000 0.046053 0.000000 0.000000
# 5 0.000000 0.000000 0.000000 0.000000 0.073903 0.000000
# 6 0.000000 0.000000 0.000000 0.000000 0.000000 0.033707
#
#
# Mechanical properties :
#
#
# Convention : Reuss Voigt Hill
#
# Bulk Modulus (GPa) = 52.71735 61.54600 57.13168
# Shear Modulus (GPa) = 19.93892 22.40108 21.17000
#
# Velocity S-wave (km/s) = 3.30677 3.50500 3.40732
# Velocity P-wave (km/s) = 6.59472 7.08043 6.84189
#
# Compressibility (1/GPa) = 0.01896909
#
# Stress axis : x y z
#
# Youngs Moduli (GPa) = 39.53624 75.74894 61.05001
#
# Poissons Ratio (x) = 0.70279 0.28243
# Poissons Ratio (y) = 0.36681 0.24718
# Poissons Ratio (z) = 0.18290 0.30669
#
# Static dielectric constant tensor:
#      x y z
#    x 3.188780 0.000000 0.000000 
#    y 0.000000 3.357180 0.000000 
#    z 0.000000 0.000000 3.408860 
# 
# 
# High freq. dielectric constant tensor:
#      x y z
#    x 1.686790 0.000000 0.000000 
#    y 0.000000 1.713490 0.000000 
#    z 0.000000 0.000000 1.697140 
# 
# From -- ./inp_files/51270.got.cif
#   From: 2010.03.12/outbox.cif.g09.slc.cpg/sg63_26_cif.got.tgz:51270.got - 2010.04.10 19:34:48.
