data_PCOD8257535
_publ_section_title
;
Structure prediction by ZEFSAII (Michael W. Deem and Ramdas Pophale) SiO2 
 PCOD8257535
Probable space group: C M C M
;
_chemical_formula_sum "Si O2"
_cell_formula_units_Z 104
_cell_length_a 26.101767
_cell_length_b 23.978213
_cell_length_c 9.045590
_cell_angle_alpha 90.000000
_cell_angle_beta 90.000000
_cell_angle_gamma 90.000000
_cell_volume 5661.397143
_symmetry_space_group_name_H-M "C M C M"
_symmetry_group_IT_number 63
_symmetry_cell_setting 'orthorhombic'
loop_
_space_group_symop_operation_xyz
x,y,z
-x,-y,1/2+z
x,-y,-z
-x,y,1/2-z
-x,-y,-z
x,y,1/2-z
-x,y,z
x,-y,1/2+z
1/2+x,1/2+y,z
1/2-x,1/2-y,1/2+z
1/2+x,1/2-y,-z
1/2-x,1/2+y,1/2-z
1/2-x,1/2-y,-z
1/2+x,1/2+y,1/2-z
1/2-x,1/2+y,z
1/2+x,1/2-y,1/2+z
loop_
_atom_site_type_symbol
_atom_site_label
_atom_site_fract_x
_atom_site_fract_y
_atom_site_fract_z
Si Si1 0.691560 0.812558 0.079494
Si Si2 0.111126 0.850291 0.077870
Si Si3 0.918109 0.638272 0.579809
Si Si4 0.794869 0.817180 0.919613
Si Si5 0.439739 0.447677 0.913854
Si Si6 0.056601 0.238941 0.413673
Si Si7 0.500000 0.938794 0.927928
O O1 0.704959 0.824448 0.250000
O O2 0.640930 0.847823 0.032604
O O3 0.685531 0.746146 0.055465
O O4 0.738234 0.831175 0.977028
O O5 0.112574 0.860937 0.250000
O O6 0.167746 0.857585 0.011490
O O7 0.071950 0.892192 0.002808
O O8 0.090764 0.788476 0.040668
O O9 0.919924 0.617795 0.750000
O O10 0.948682 0.695486 0.559037
O O11 0.947549 0.592542 0.480016
O O12 0.796546 0.834361 0.750000
O O13 0.415581 0.444690 0.750000
O O14 0.500000 0.455110 0.902310
O O15 0.415124 0.500000 0.000000
O O16 0.081499 0.228184 0.250000
O O17 0.000000 0.212803 0.417916
O O18 0.500000 0.942710 0.750000
O O19 0.500000 0.000000 0.000000
#
# Coordination Sequence:
#
# PCOD8257535 Si02
#       7
#    16  16  16  16  16  16   8
#     4   9  18  33  54  80 111 148 184 224 278 338
#     4  12  23  33  50  78 113 148 188 233 274 323
#     4  10  19  37  60  82 113 149 183 226 283 339
#     4  10  19  33  52  77 112 150 189 227 275 334
#     4  10  21  38  58  78 104 142 186 229 276 328
#     4  10  19  33  52  76 110 149 183 220 278 339
#     4  12  26  42  62  88 116 150 197 240 283 338
#
# _framework density 18.370023
#
# number of rings (size 3 to 8) (size 9 to 14) (size 15 to 20)
#    0.000    1.692    2.308    3.462    0.000    4.923 
#    0.000    0.000    0.000    0.923    0.000    2.154 
#    0.000    0.000    0.000    0.000    0.000    0.000 
#
# Total GULP energy -644566.015903 kJ/mol
# GULP energy per Si atom -12395.500306 kJ/mol
# Density = 1.832821 g / cm^3
# Si number density = 18.370023 Si / 1000 Ang^3
#
#
#
# Elastic Constant Matrix: (Units=GPa)
#
#
# Indices 1 2 3 4 5 6 
#
# 1 91.0575 36.6468 55.8956 0.0000 0.0000 0.0000
# 2 36.6468 68.7276 46.3841 0.0000 0.0000 0.0000
# 3 55.8956 46.3841 144.7071 0.0000 0.0000 0.0000
# 4 0.0000 0.0000 0.0000 26.4303 0.0000 0.0000
# 5 0.0000 0.0000 0.0000 0.0000 31.4064 0.0000
# 6 0.0000 0.0000 0.0000 0.0000 0.0000 11.1635
#
#
#
# Elastic Compliance Matrix: (Units=1/GPa)
#
#
# Indices 1 2 3 4 5 6 
#
# 1 0.015885 -0.005524 -0.004365 0.000000 0.000000 0.000000
# 2 -0.005524 0.020488 -0.004433 0.000000 0.000000 0.000000
# 3 -0.004365 -0.004433 0.010018 0.000000 0.000000 0.000000
# 4 0.000000 0.000000 0.000000 0.037835 0.000000 0.000000
# 5 0.000000 0.000000 0.000000 0.000000 0.031841 0.000000
# 6 0.000000 0.000000 0.000000 0.000000 0.000000 0.089577
#
#
# Mechanical properties :
#
#
# Convention : Reuss Voigt Hill
#
# Bulk Modulus (GPa) = 56.35320 64.70501 60.52911
# Shear Modulus (GPa) = 20.81565 24.83775 22.82670
#
# Velocity S-wave (km/s) = 3.36985 3.68105 3.52889
# Velocity P-wave (km/s) = 6.77381 7.30524 7.04454
#
# Compressibility (1/GPa) = 0.01774522
#
# Stress axis : x y z
#
# Youngs Moduli (GPa) = 62.95340 48.80956 99.82368
#
# Poissons Ratio (x) = 0.26963 0.43574
# Poissons Ratio (y) = 0.34776 0.44255
# Poissons Ratio (z) = 0.27480 0.21639
#
# Static dielectric constant tensor:
#      x y z
#    x 3.446100 0.000000 0.000000 
#    y 0.000000 3.174620 0.000000 
#    z 0.000000 0.000000 3.522820 
# 
# 
# High freq. dielectric constant tensor:
#      x y z
#    x 1.716060 0.000000 0.000000 
#    y 0.000000 1.677070 0.000000 
#    z 0.000000 0.000000 1.714380 
# 
# From -- ./inp_files/12876.got.cif
#   From: 2010.03.12/outbox.cif.g09.slc.cpg/sg63_7_cif.got.tgz:12876.got - 2010.04.10 19:34:48.
