data_PCOD8257156
_publ_section_title
;
Structure prediction by ZEFSAII (Michael W. Deem and Ramdas Pophale) SiO2 
 PCOD8257156
Probable space group: C M C M
;
_chemical_formula_sum "Si O2"
_cell_formula_units_Z 120
_cell_length_a 21.748993
_cell_length_b 10.900374
_cell_length_c 27.293159
_cell_angle_alpha 90.000000
_cell_angle_beta 90.000000
_cell_angle_gamma 90.000000
_cell_volume 6470.448098
_symmetry_space_group_name_H-M "C M C M"
_symmetry_group_IT_number 63
_symmetry_cell_setting 'orthorhombic'
loop_
_space_group_symop_operation_xyz
x,y,z
-x,-y,1/2+z
x,-y,-z
-x,y,1/2-z
-x,-y,-z
x,y,1/2-z
-x,y,z
x,-y,1/2+z
1/2+x,1/2+y,z
1/2-x,1/2-y,1/2+z
1/2+x,1/2-y,-z
1/2-x,1/2+y,1/2-z
1/2-x,1/2-y,-z
1/2+x,1/2+y,1/2-z
1/2-x,1/2+y,z
1/2+x,1/2-y,1/2+z
loop_
_atom_site_type_symbol
_atom_site_label
_atom_site_fract_x
_atom_site_fract_y
_atom_site_fract_z
Si Si1 0.302213 0.342766 0.574438
Si Si2 0.327913 0.843003 0.890918
Si Si3 0.429296 0.649495 0.585929
Si Si4 0.872065 0.000000 0.500000
Si Si5 0.222158 0.184905 0.805582
Si Si6 0.569250 0.254507 0.805405
Si Si7 0.636174 0.487655 0.659196
Si Si8 0.659739 0.120430 0.867638
O O1 0.228496 0.328734 0.570880
O O2 0.328584 0.396708 0.524178
O O3 0.317020 0.437743 0.618114
O O4 0.332108 0.210147 0.585606
O O5 0.385490 0.768431 0.912446
O O6 0.306952 0.794537 0.837521
O O7 0.346482 0.983822 0.887084
O O8 0.500000 0.692838 0.585282
O O9 0.415906 0.567654 0.538333
O O10 0.417664 0.566269 0.633727
O O11 0.233039 0.231205 0.750000
O O12 0.285960 0.141341 0.828814
O O13 0.175359 0.071223 0.804212
O O14 0.572244 0.206585 0.750000
O O15 0.500000 0.280701 0.822247
O O16 0.607460 0.379496 0.809351
O O17 0.596002 0.150114 0.840574
#
# Coordination Sequence:
#
# PCOD8257156 Si02
#       8
#    16  16  16   8  16  16  16  16
#     4   9  19  36  57  84 105 140 177 224 287 327
#     4  10  21  37  54  79 117 146 180 220 271 342
#     4  10  21  37  59  83 109 146 181 223 278 329
#     4  10  21  38  64  88 107 128 184 240 274 326
#     4  10  19  31  54  83 109 142 184 232 275 313
#     4  10  20  32  49  75 106 145 189 224 259 313
#     4   9  17  34  55  78 108 137 181 233 276 318
#     4  10  20  36  52  75 114 148 178 218 275 335
#
# _framework density 18.545857000000002
#
# number of rings (size 3 to 8) (size 9 to 14) (size 15 to 20)
#    0.000    2.267    1.333    1.400    1.867    2.133 
#    0.000    0.667    0.000    4.400    0.000    0.000 
#    0.000    0.000    0.000    0.000    0.000    0.000 
#
# Total GULP energy -744072.714255 kJ/mol
# GULP energy per Si atom -12401.211904 kJ/mol
# Density = 1.850365 g / cm^3
# Si number density = 18.545857 Si / 1000 Ang^3
#
#
#
# Elastic Constant Matrix: (Units=GPa)
#
#
# Indices 1 2 3 4 5 6 
#
# 1 111.7102 26.7468 23.5671 0.0000 0.0000 0.0000
# 2 26.7468 102.2797 17.3206 0.0000 0.0000 0.0000
# 3 23.5671 17.3206 57.4638 0.0000 0.0000 0.0000
# 4 0.0000 0.0000 0.0000 19.7161 0.0000 0.0000
# 5 0.0000 0.0000 0.0000 0.0000 16.9700 0.0000
# 6 0.0000 0.0000 0.0000 0.0000 0.0000 24.0992
#
#
#
# Elastic Compliance Matrix: (Units=1/GPa)
#
#
# Indices 1 2 3 4 5 6 
#
# 1 0.010197 -0.002064 -0.003560 0.000000 0.000000 0.000000
# 2 -0.002064 0.010721 -0.002385 0.000000 0.000000 0.000000
# 3 -0.003560 -0.002385 0.019581 0.000000 0.000000 0.000000
# 4 0.000000 0.000000 0.000000 0.050720 0.000000 0.000000
# 5 0.000000 0.000000 0.000000 0.000000 0.058928 0.000000
# 6 0.000000 0.000000 0.000000 0.000000 0.000000 0.041495
#
#
# Mechanical properties :
#
#
# Convention : Reuss Voigt Hill
#
# Bulk Modulus (GPa) = 40.84730 45.19138 43.01934
# Shear Modulus (GPa) = 23.16755 25.74501 24.45628
#
# Velocity S-wave (km/s) = 3.53824 3.72987 3.63532
# Velocity P-wave (km/s) = 6.22616 6.55512 6.39275
#
# Compressibility (1/GPa) = 0.02448142
#
# Stress axis : x y z
#
# Youngs Moduli (GPa) = 98.06934 93.27771 51.06950
#
# Poissons Ratio (x) = 0.19250 0.18180
# Poissons Ratio (y) = 0.20238 0.12180
# Poissons Ratio (z) = 0.34912 0.22247
#
# Static dielectric constant tensor:
#      x y z
#    x 3.398260 0.000000 0.000000 
#    y 0.000000 3.410390 0.000000 
#    z 0.000000 0.000000 3.218920 
# 
# 
# High freq. dielectric constant tensor:
#      x y z
#    x 1.717330 0.000000 0.000000 
#    y 0.000000 1.718690 0.000000 
#    z 0.000000 0.000000 1.705290 
# 
# From -- ./inp_files/70509.got.cif
#   From: 2010.03.12/outbox.cif.g09.slc.cpg/sg63_36_cif.got.tgz:70509.got - 2010.04.10 19:34:48.
