data_PCOD8257202
_publ_section_title
;
Structure prediction by ZEFSAII (Michael W. Deem and Ramdas Pophale) SiO2 
 PCOD8257202
Probable space group: C M C M
;
_chemical_formula_sum "Si O2"
_cell_formula_units_Z 72
_cell_length_a 33.082521
_cell_length_b 14.603481
_cell_length_c 8.863224
_cell_angle_alpha 90.000000
_cell_angle_beta 90.000000
_cell_angle_gamma 90.000000
_cell_volume 4282.000485
_symmetry_space_group_name_H-M "C M C M"
_symmetry_group_IT_number 63
_symmetry_cell_setting 'orthorhombic'
loop_
_space_group_symop_operation_xyz
x,y,z
-x,-y,1/2+z
x,-y,-z
-x,y,1/2-z
-x,-y,-z
x,y,1/2-z
-x,y,z
x,-y,1/2+z
1/2+x,1/2+y,z
1/2-x,1/2-y,1/2+z
1/2+x,1/2-y,-z
1/2-x,1/2+y,1/2-z
1/2-x,1/2-y,-z
1/2+x,1/2+y,1/2-z
1/2-x,1/2+y,z
1/2+x,1/2-y,1/2+z
loop_
_atom_site_type_symbol
_atom_site_label
_atom_site_fract_x
_atom_site_fract_y
_atom_site_fract_z
Si Si1 0.844741 0.225592 0.928544
Si Si2 0.725568 0.592825 0.573624
Si Si3 0.000000 0.095332 0.422434
Si Si4 0.912198 0.100595 0.071704
Si Si5 0.317479 0.905014 0.428777
O O1 0.848684 0.235422 0.750000
O O2 0.803069 0.175891 0.976476
O O3 0.882082 0.169292 0.991542
O O4 0.845262 0.325128 0.004302
O O5 0.708848 0.500000 0.500000
O O6 0.723786 0.576538 0.750000
O O7 0.771182 0.613678 0.520232
O O8 0.957202 0.144306 0.461082
O O9 0.000000 0.069552 0.250000
O O10 0.000000 0.000000 0.500000
O O11 0.903009 0.094368 0.250000
O O12 0.907579 0.000000 0.000000
O O13 0.322249 0.908984 0.250000
O O14 0.332741 0.000000 0.500000
#
# Coordination Sequence:
#
# PCOD8257202 Si02
#       5
#    16  16   8  16  16
#     4  11  21  32  47  71  98 126 160 199 238 281
#     4   9  19  32  47  67  94 126 160 196 237 281
#     4   8  16  30  48  68  95 128 159 188 226 276
#     4  10  19  32  49  72 100 130 160 193 232 279
#     4  10  20  35  51  67  89 123 163 204 244 283
#
# _framework density 16.814571000000001
#
# number of rings (size 3 to 8) (size 9 to 14) (size 15 to 20)
#    0.000    2.222    0.000    3.333    0.000    5.333 
#    0.000    0.000    0.000    0.000    0.000    0.778 
#    0.000    0.000    0.000    0.000    0.000    0.000 
#
# Total GULP energy -446247.689410 kJ/mol
# GULP energy per Si atom -12395.769150 kJ/mol
# Density = 1.677630 g / cm^3
# Si number density = 16.814571 Si / 1000 Ang^3
#
#
#
# Elastic Constant Matrix: (Units=GPa)
#
#
# Indices 1 2 3 4 5 6 
#
# 1 87.1695 59.3377 39.1696 0.0000 0.0000 0.0000
# 2 59.3377 123.3571 49.0822 0.0000 0.0000 0.0000
# 3 39.1696 49.0822 69.6222 0.0000 0.0000 0.0000
# 4 0.0000 0.0000 0.0000 31.1998 0.0000 0.0000
# 5 0.0000 0.0000 0.0000 0.0000 22.1058 0.0000
# 6 0.0000 0.0000 0.0000 0.0000 0.0000 20.1604
#
#
#
# Elastic Compliance Matrix: (Units=1/GPa)
#
#
# Indices 1 2 3 4 5 6 
#
# 1 0.018590 -0.006645 -0.005774 0.000000 0.000000 0.000000
# 2 -0.006645 0.013642 -0.005879 0.000000 0.000000 0.000000
# 3 -0.005774 -0.005879 0.021756 0.000000 0.000000 0.000000
# 4 0.000000 0.000000 0.000000 0.032051 0.000000 0.000000
# 5 0.000000 0.000000 0.000000 0.000000 0.045237 0.000000
# 6 0.000000 0.000000 0.000000 0.000000 0.000000 0.049602
#
#
# Mechanical properties :
#
#
# Convention : Reuss Voigt Hill
#
# Bulk Modulus (GPa) = 57.49683 63.92531 60.71107
# Shear Modulus (GPa) = 22.39424 23.53051 22.96237
#
# Velocity S-wave (km/s) = 3.65339 3.74493 3.69944
# Velocity P-wave (km/s) = 7.21562 7.53656 7.37784
#
# Compressibility (1/GPa) = 0.01739226
#
# Stress axis : x y z
#
# Youngs Moduli (GPa) = 53.79343 73.30347 45.96335
#
# Poissons Ratio (x) = 0.48707 0.26541
# Poissons Ratio (y) = 0.35743 0.27022
# Poissons Ratio (z) = 0.31062 0.43095
#
# Static dielectric constant tensor:
#      x y z
#    x 3.323800 0.000000 0.000000 
#    y 0.000000 3.017580 0.000000 
#    z 0.000000 0.000000 3.240570 
# 
# 
# High freq. dielectric constant tensor:
#      x y z
#    x 1.637000 0.000000 0.000000 
#    y 0.000000 1.627850 0.000000 
#    z 0.000000 0.000000 1.662910 
# 
# From -- ./inp_files/13887.got.cif
#   From: 2010.03.12/outbox.cif.g09.slc.cpg/sg63_7_cif.got.tgz:13887.got - 2010.04.10 19:34:48.
