data_PCOD8257339
_publ_section_title
;
Structure prediction by ZEFSAII (Michael W. Deem and Ramdas Pophale) SiO2 
 PCOD8257339
Probable space group: C M C M
;
_chemical_formula_sum "Si O2"
_cell_formula_units_Z 96
_cell_length_a 8.957346
_cell_length_b 23.451253
_cell_length_c 25.772017
_cell_angle_alpha 90.000000
_cell_angle_beta 90.000000
_cell_angle_gamma 90.000000
_cell_volume 5413.695335
_symmetry_space_group_name_H-M "C M C M"
_symmetry_group_IT_number 63
_symmetry_cell_setting 'orthorhombic'
loop_
_space_group_symop_operation_xyz
x,y,z
-x,-y,1/2+z
x,-y,-z
-x,y,1/2-z
-x,-y,-z
x,y,1/2-z
-x,y,z
x,-y,1/2+z
1/2+x,1/2+y,z
1/2-x,1/2-y,1/2+z
1/2+x,1/2-y,-z
1/2-x,1/2+y,1/2-z
1/2-x,1/2-y,-z
1/2+x,1/2+y,1/2-z
1/2-x,1/2+y,z
1/2+x,1/2-y,1/2+z
loop_
_atom_site_type_symbol
_atom_site_label
_atom_site_fract_x
_atom_site_fract_y
_atom_site_fract_z
Si Si1 0.824732 0.359958 0.150921
Si Si2 0.323401 0.444271 0.750000
Si Si3 0.823952 0.249378 0.808970
Si Si4 0.823394 0.374887 0.658839
Si Si5 0.322400 0.934952 0.057202
Si Si6 0.673681 0.935340 0.250000
Si Si7 0.176862 0.437502 0.557470
O O1 0.748022 0.298794 0.155395
O O2 0.758958 0.390801 0.099595
O O3 0.784218 0.398536 0.199994
O O4 0.000000 0.349652 0.146873
O O5 0.500000 0.439001 0.750000
O O6 0.259012 0.414798 0.800782
O O7 0.276669 0.509748 0.750000
O O8 0.763813 0.245170 0.750000
O O9 0.775161 0.309811 0.832787
O O10 0.000000 0.242053 0.810100
O O11 0.769268 0.393501 0.601426
O O12 0.000000 0.383021 0.666736
O O13 0.500000 0.934831 0.060839
O O14 0.262684 0.998768 0.069573
O O15 0.267619 0.916809 0.999428
O O16 0.500000 0.953393 0.250000
O O17 0.000000 0.440433 0.556480
#
# Coordination Sequence:
#
# PCOD8257339 Si02
#       7
#    16   8  16  16  16   8  16
#     4  10  19  32  52  76 102 131 170 212 251 297
#     4  12  24  33  48  77 107 130 156 206 265 306
#     4  10  20  34  50  69  97 135 175 211 250 298
#     4  10  19  35  55  73  97 135 177 209 243 300
#     4   8  14  26  47  79 105 124 158 210 260 293
#     4  10  20  33  50  73  99 132 168 202 245 306
#     4   8  14  27  51  76 100 128 163 207 251 298
#
# _framework density 17.732804000000002
#
# number of rings (size 3 to 8) (size 9 to 14) (size 15 to 20)
#    0.000    2.500    1.667    2.750    0.000    4.000 
#    0.000    0.833    0.000    1.000    0.000    3.500 
#    0.000    0.000    0.000    0.000    0.000    0.000 
#
# Total GULP energy -595096.236428 kJ/mol
# GULP energy per Si atom -12397.838259 kJ/mol
# Density = 1.769244 g / cm^3
# Si number density = 17.732804 Si / 1000 Ang^3
#
#
#
# Elastic Constant Matrix: (Units=GPa)
#
#
# Indices 1 2 3 4 5 6 
#
# 1 22.1156 24.0539 18.3050 0.0000 0.0000 0.0000
# 2 24.0539 125.8688 73.5840 0.0000 0.0000 0.0000
# 3 18.3050 73.5840 145.6294 0.0000 0.0000 0.0000
# 4 0.0000 0.0000 0.0000 23.9339 0.0000 0.0000
# 5 0.0000 0.0000 0.0000 0.0000 14.7322 0.0000
# 6 0.0000 0.0000 0.0000 0.0000 0.0000 25.4748
#
#
#
# Elastic Compliance Matrix: (Units=1/GPa)
#
#
# Indices 1 2 3 4 5 6 
#
# 1 0.057659 -0.009625 -0.002384 0.000000 0.000000 0.000000
# 2 -0.009625 0.012882 -0.005299 0.000000 0.000000 0.000000
# 3 -0.002384 -0.005299 0.009844 0.000000 0.000000 0.000000
# 4 0.000000 0.000000 0.000000 0.041782 0.000000 0.000000
# 5 0.000000 0.000000 0.000000 0.000000 0.067879 0.000000
# 6 0.000000 0.000000 0.000000 0.000000 0.000000 0.039254
#
#
# Mechanical properties :
#
#
# Convention : Reuss Voigt Hill
#
# Bulk Modulus (GPa) = 21.84926 58.38883 40.11905
# Shear Modulus (GPa) = 17.91007 24.67292 21.29150
#
# Velocity S-wave (km/s) = 3.18149 3.73416 3.46885
# Velocity P-wave (km/s) = 5.08370 7.18265 6.22231
#
# Compressibility (1/GPa) = 0.04576813
#
# Stress axis : x y z
#
# Youngs Moduli (GPa) = 17.34344 77.62671 101.58402
#
# Poissons Ratio (x) = 0.74716 0.24219
# Poissons Ratio (y) = 0.16693 0.53833
# Poissons Ratio (z) = 0.04135 0.41137
#
# Static dielectric constant tensor:
#      x y z
#    x 2.863670 0.000000 0.000000 
#    y 0.000000 3.368600 0.000000 
#    z 0.000000 0.000000 3.753710 
# 
# 
# High freq. dielectric constant tensor:
#      x y z
#    x 1.641850 0.000000 0.000000 
#    y 0.000000 1.687590 0.000000 
#    z 0.000000 0.000000 1.695590 
# 
# From -- ./inp_files/67296.got.cif
#   From: 2010.03.12/outbox.cif.g09.slc.cpg/sg63_34_cif.got.tgz:67296.got - 2010.04.10 19:34:48.
