data_PCOD8257478
_publ_section_title
;
Structure prediction by ZEFSAII (Michael W. Deem and Ramdas Pophale) SiO2 
 PCOD8257478
Probable space group: C M C M
;
_chemical_formula_sum "Si O2"
_cell_formula_units_Z 88
_cell_length_a 22.023079
_cell_length_b 13.797129
_cell_length_c 15.655568
_cell_angle_alpha 90.000000
_cell_angle_beta 90.000000
_cell_angle_gamma 90.000000
_cell_volume 4757.026715
_symmetry_space_group_name_H-M "C M C M"
_symmetry_group_IT_number 63
_symmetry_cell_setting 'orthorhombic'
loop_
_space_group_symop_operation_xyz
x,y,z
-x,-y,1/2+z
x,-y,-z
-x,y,1/2-z
-x,-y,-z
x,y,1/2-z
-x,y,z
x,-y,1/2+z
1/2+x,1/2+y,z
1/2-x,1/2-y,1/2+z
1/2+x,1/2-y,-z
1/2-x,1/2+y,1/2-z
1/2-x,1/2-y,-z
1/2+x,1/2+y,1/2-z
1/2-x,1/2+y,z
1/2+x,1/2-y,1/2+z
loop_
_atom_site_type_symbol
_atom_site_label
_atom_site_fract_x
_atom_site_fract_y
_atom_site_fract_z
Si Si1 0.122885 0.180943 0.905115
Si Si2 0.798374 0.999112 0.405321
Si Si3 0.300788 0.780714 0.250000
Si Si4 0.871599 0.812997 0.594023
Si Si5 0.000000 0.940213 0.412572
Si Si6 0.000000 0.857637 0.654927
Si Si7 0.837107 0.703305 0.250000
Si Si8 0.787052 0.505518 0.250000
O O1 0.175588 0.105236 0.880472
O O2 0.125837 0.263439 0.833567
O O3 0.058058 0.128602 0.904768
O O4 0.138439 0.227822 0.997908
O O5 0.768287 0.000000 0.500000
O O6 0.853983 0.074074 0.404533
O O7 0.750228 0.030003 0.335138
O O8 0.333245 0.745217 0.336270
O O9 0.231662 0.744687 0.250000
O O10 0.309885 0.896126 0.250000
O O11 0.942826 0.809096 0.609711
O O12 0.000000 0.000000 0.500000
O O13 0.000000 0.024724 0.341686
O O14 0.000000 0.819021 0.750000
O O15 0.839964 0.586095 0.250000
#
# Coordination Sequence:
#
# PCOD8257478 Si02
#       8
#    16  16   8  16   8   8   8   8
#     4  11  22  37  58  92 129 158 192 241 311 378
#     4  10  19  32  59  88 119 155 191 242 299 365
#     4  12  24  39  61  83 115 167 214 253 303 350
#     4  11  21  37  59  91 125 155 195 245 310 369
#     4  12  20  36  62  98 131 159 182 245 318 384
#     4  12  22  32  60  97 126 152 191 247 305 367
#     4  12  26  39  57  85 119 165 208 249 295 362
#     4  12  24  42  54  78 122 154 214 256 284 346
#
# _framework density 18.498950000000001
#
# number of rings (size 3 to 8) (size 9 to 14) (size 15 to 20)
#    0.000    0.727    8.182    0.545    1.273    2.182 
#    0.000    0.000    0.000    2.182    0.000    2.545 
#    0.000    0.000    0.000    0.000    0.000    0.000 
#
# Total GULP energy -545534.132369 kJ/mol
# GULP energy per Si atom -12398.503008 kJ/mol
# Density = 1.845685 g / cm^3
# Si number density = 18.498950 Si / 1000 Ang^3
#
#
#
# Elastic Constant Matrix: (Units=GPa)
#
#
# Indices 1 2 3 4 5 6 
#
# 1 75.3272 23.8234 41.5751 0.0000 0.0000 0.0000
# 2 23.8234 82.1076 42.0985 0.0000 0.0000 0.0000
# 3 41.5751 42.0985 149.9215 0.0000 0.0000 0.0000
# 4 0.0000 0.0000 0.0000 25.9791 0.0000 0.0000
# 5 0.0000 0.0000 0.0000 0.0000 53.1851 0.0000
# 6 0.0000 0.0000 0.0000 0.0000 0.0000 41.2804
#
#
#
# Elastic Compliance Matrix: (Units=1/GPa)
#
#
# Indices 1 2 3 4 5 6 
#
# 1 0.016208 -0.002802 -0.003708 0.000000 0.000000 0.000000
# 2 -0.002802 0.014712 -0.003354 0.000000 0.000000 0.000000
# 3 -0.003708 -0.003354 0.008640 0.000000 0.000000 0.000000
# 4 0.000000 0.000000 0.000000 0.038493 0.000000 0.000000
# 5 0.000000 0.000000 0.000000 0.000000 0.018802 0.000000
# 6 0.000000 0.000000 0.000000 0.000000 0.000000 0.024225
#
#
# Mechanical properties :
#
#
# Convention : Reuss Voigt Hill
#
# Bulk Modulus (GPa) = 50.42211 58.03891 54.23051
# Shear Modulus (GPa) = 33.91721 37.41287 35.66504
#
# Velocity S-wave (km/s) = 4.28655 4.50202 4.39561
# Velocity P-wave (km/s) = 7.19828 7.64634 7.42569
#
# Compressibility (1/GPa) = 0.01983257
#
# Stress axis : x y z
#
# Youngs Moduli (GPa) = 61.69801 67.97275 115.73673
#
# Poissons Ratio (x) = 0.19043 0.42915
# Poissons Ratio (y) = 0.17285 0.38821
# Poissons Ratio (z) = 0.22878 0.22800
#
# Static dielectric constant tensor:
#      x y z
#    x 3.238630 0.000000 0.000000 
#    y 0.000000 3.242660 0.000000 
#    z 0.000000 0.000000 3.779300 
# 
# 
# High freq. dielectric constant tensor:
#      x y z
#    x 1.700410 0.000000 0.000000 
#    y 0.000000 1.686660 0.000000 
#    z 0.000000 0.000000 1.744270 
# 
# From -- ./inp_files/35278.got.cif
#   From: 2010.03.12/outbox.cif.g09.slc.cpg/sg63_18_cif.got.tgz:35278.got - 2010.04.10 19:34:48.
