data_PCOD8257868
_publ_section_title
;
Structure prediction by ZEFSAII (Michael W. Deem and Ramdas Pophale) SiO2 
 PCOD8257868
Probable space group: C M C M
;
_chemical_formula_sum "Si O2"
_cell_formula_units_Z 104
_cell_length_a 21.850746
_cell_length_b 28.220638
_cell_length_c 8.883847
_cell_angle_alpha 90.000000
_cell_angle_beta 90.000000
_cell_angle_gamma 90.000000
_cell_volume 5478.153119
_symmetry_space_group_name_H-M "C M C M"
_symmetry_group_IT_number 63
_symmetry_cell_setting 'orthorhombic'
loop_
_space_group_symop_operation_xyz
x,y,z
-x,-y,1/2+z
x,-y,-z
-x,y,1/2-z
-x,-y,-z
x,y,1/2-z
-x,y,z
x,-y,1/2+z
1/2+x,1/2+y,z
1/2-x,1/2-y,1/2+z
1/2+x,1/2-y,-z
1/2-x,1/2+y,1/2-z
1/2-x,1/2-y,-z
1/2+x,1/2+y,1/2-z
1/2-x,1/2+y,z
1/2+x,1/2-y,1/2+z
loop_
_atom_site_type_symbol
_atom_site_label
_atom_site_fract_x
_atom_site_fract_y
_atom_site_fract_z
Si Si1 0.616378 0.899374 0.074474
Si Si2 0.674364 0.200574 0.921140
Si Si3 0.500000 0.052667 0.429030
Si Si4 0.158291 0.887238 0.925602
Si Si5 0.819161 0.204662 0.579974
Si Si6 0.240417 0.450152 0.074474
Si Si7 0.572205 0.546697 0.919448
O O1 0.598438 0.899161 0.250000
O O2 0.639382 0.846977 0.024406
O O3 0.670475 0.936417 0.042268
O O4 0.558862 0.916804 0.978070
O O5 0.655311 0.212242 0.750000
O O6 0.747012 0.195571 0.931916
O O7 0.656746 0.243729 0.030217
O O8 0.500000 0.046759 0.250000
O O9 0.500000 0.000000 0.500000
O O10 0.166850 0.894344 0.750000
O O11 0.150670 0.832332 0.966347
O O12 0.216215 0.909770 0.008808
O O13 0.095335 0.909696 0.982801
O O14 0.841686 0.196255 0.750000
O O15 0.253736 0.453798 0.250000
O O16 0.255834 0.500000 0.000000
O O17 0.598479 0.548441 0.750000
O O18 0.500000 0.547737 0.918663
O O19 0.598032 0.500000 0.000000
#
# Coordination Sequence:
#
# PCOD8257868 Si02
#       7
#    16  16   8  16  16  16  16
#     4  10  21  40  63  85 115 153 194 241 294 349
#     4   9  18  35  58  86 115 148 185 229 283 340
#     4  12  26  42  62  88 118 156 204 250 301 360
#     4  12  23  35  55  83 115 152 189 232 282 337
#     4  10  19  34  56  86 119 150 186 230 280 337
#     4  11  22  37  55  82 116 150 188 234 286 342
#     4  10  21  38  59  81 109 147 189 232 277 331
#
# _framework density 18.984501000000002
#
# number of rings (size 3 to 8) (size 9 to 14) (size 15 to 20)
#    0.000    1.538    1.538    4.385    0.000    4.615 
#    0.000    0.000    1.692    0.000    0.000    0.000 
#    0.000    0.000    0.000    0.000    0.000    0.000 
#
# Total GULP energy -644820.122057 kJ/mol
# GULP energy per Si atom -12400.386963 kJ/mol
# Density = 1.894129 g / cm^3
# Si number density = 18.984501 Si / 1000 Ang^3
#
#
#
# Elastic Constant Matrix: (Units=GPa)
#
#
# Indices 1 2 3 4 5 6 
#
# 1 49.5318 35.3993 33.7381 0.0000 0.0000 0.0000
# 2 35.3993 128.8905 58.2965 0.0000 0.0000 0.0000
# 3 33.7381 58.2965 126.5199 0.0000 0.0000 0.0000
# 4 0.0000 0.0000 0.0000 36.6402 0.0000 0.0000
# 5 0.0000 0.0000 0.0000 0.0000 27.1188 0.0000
# 6 0.0000 0.0000 0.0000 0.0000 0.0000 34.5894
#
#
#
# Elastic Compliance Matrix: (Units=1/GPa)
#
#
# Indices 1 2 3 4 5 6 
#
# 1 0.027269 -0.005306 -0.004827 0.000000 0.000000 0.000000
# 2 -0.005306 0.010834 -0.003577 0.000000 0.000000 0.000000
# 3 -0.004827 -0.003577 0.010839 0.000000 0.000000 0.000000
# 4 0.000000 0.000000 0.000000 0.027292 0.000000 0.000000
# 5 0.000000 0.000000 0.000000 0.000000 0.036875 0.000000
# 6 0.000000 0.000000 0.000000 0.000000 0.000000 0.028911
#
#
# Mechanical properties :
#
#
# Convention : Reuss Voigt Hill
#
# Bulk Modulus (GPa) = 46.46362 62.20110 54.33236
# Shear Modulus (GPa) = 28.31050 31.50359 29.90704
#
# Velocity S-wave (km/s) = 3.86585 4.07804 3.97336
# Velocity P-wave (km/s) = 6.66739 7.41681 7.05206
#
# Compressibility (1/GPa) = 0.02152221
#
# Stress axis : x y z
#
# Youngs Moduli (GPa) = 36.67175 92.30499 92.25886
#
# Poissons Ratio (x) = 0.48979 0.44530
# Poissons Ratio (y) = 0.19459 0.32999
# Poissons Ratio (z) = 0.17700 0.33016
#
# Static dielectric constant tensor:
#      x y z
#    x 3.268000 0.000000 0.000000 
#    y 0.000000 3.589140 0.000000 
#    z 0.000000 0.000000 3.684950 
# 
# 
# High freq. dielectric constant tensor:
#      x y z
#    x 1.716790 0.000000 0.000000 
#    y 0.000000 1.748100 0.000000 
#    z 0.000000 0.000000 1.747310 
# 
# From -- ./inp_files/8757.got.cif
#   From: 2010.03.12/outbox.cif.g09.slc.cpg/sg63_5_cif.got.tgz:8757.got - 2010.04.10 19:34:48.
