data_PCOD8257515
_publ_section_title
;
Structure prediction by ZEFSAII (Michael W. Deem and Ramdas Pophale) SiO2 
 PCOD8257515
Probable space group: C M C M
;
_chemical_formula_sum "Si O2"
_cell_formula_units_Z 88
_cell_length_a 24.184915
_cell_length_b 24.358580
_cell_length_c 9.101633
_cell_angle_alpha 90.000000
_cell_angle_beta 90.000000
_cell_angle_gamma 90.000000
_cell_volume 5361.864717
_symmetry_space_group_name_H-M "C M C M"
_symmetry_group_IT_number 63
_symmetry_cell_setting 'orthorhombic'
loop_
_space_group_symop_operation_xyz
x,y,z
-x,-y,1/2+z
x,-y,-z
-x,y,1/2-z
-x,-y,-z
x,y,1/2-z
-x,y,z
x,-y,1/2+z
1/2+x,1/2+y,z
1/2-x,1/2-y,1/2+z
1/2+x,1/2-y,-z
1/2-x,1/2+y,1/2-z
1/2-x,1/2-y,-z
1/2+x,1/2+y,1/2-z
1/2-x,1/2+y,z
1/2+x,1/2-y,1/2+z
loop_
_atom_site_type_symbol
_atom_site_label
_atom_site_fract_x
_atom_site_fract_y
_atom_site_fract_z
Si Si1 0.500000 0.055737 0.082508
Si Si2 0.166013 0.757847 0.420530
Si Si3 0.563863 0.226716 0.586086
Si Si4 0.749302 0.336246 0.578861
Si Si5 0.714470 0.057927 0.577982
Si Si6 0.405723 0.103934 0.589228
O O1 0.500000 0.042133 0.250000
O O2 0.554031 0.089300 0.042303
O O3 0.500000 0.000000 0.000000
O O4 0.168577 0.774197 0.250000
O O5 0.101922 0.760808 0.473313
O O6 0.193788 0.697851 0.445588
O O7 0.198240 0.802310 0.515654
O O8 0.564419 0.252788 0.750000
O O9 0.500000 0.222428 0.530214
O O10 0.595507 0.169101 0.594380
O O11 0.739206 0.347340 0.750000
O O12 0.749050 0.394408 0.495419
O O13 0.728853 0.053150 0.750000
O O14 0.651795 0.075873 0.551040
O O15 0.726438 0.000000 0.500000
O O16 0.426115 0.082526 0.750000
#
# Coordination Sequence:
#
# PCOD8257515 Si02
#       6
#     8  16  16  16  16  16
#     4  12  24  34  46  60  82 118 166 216 257 296
#     4  10  20  33  52  76 101 129 167 211 256 305
#     4  10  19  33  52  72  99 133 168 208 256 303
#     4  10  20  34  53  75 100 130 168 209 256 308
#     4  11  22  35  52  72  99 131 168 211 256 303
#     4  10  20  35  50  66  91 126 167 210 253 296
#
# _framework density 16.412201
#
# number of rings (size 3 to 8) (size 9 to 14) (size 15 to 20)
#    0.000    1.636    2.727    3.000    0.000    5.455 
#    0.000    0.000    0.000    0.000    0.000    0.000 
#    0.000    0.727    0.000    2.727    0.000    4.182 
#
# Total GULP energy -545399.363237 kJ/mol
# GULP energy per Si atom -12395.440074 kJ/mol
# Density = 1.637485 g / cm^3
# Si number density = 16.412201 Si / 1000 Ang^3
#
#
#
# Elastic Constant Matrix: (Units=GPa)
#
#
# Indices 1 2 3 4 5 6 
#
# 1 65.0450 31.0622 40.6596 0.0000 0.0000 0.0000
# 2 31.0622 78.8282 46.9582 0.0000 0.0000 0.0000
# 3 40.6596 46.9582 117.0317 0.0000 0.0000 0.0000
# 4 0.0000 0.0000 0.0000 28.9838 0.0000 0.0000
# 5 0.0000 0.0000 0.0000 0.0000 24.8067 0.0000
# 6 0.0000 0.0000 0.0000 0.0000 0.0000 20.4946
#
#
#
# Elastic Compliance Matrix: (Units=1/GPa)
#
#
# Indices 1 2 3 4 5 6 
#
# 1 0.021145 -0.005198 -0.005260 0.000000 0.000000 0.000000
# 2 -0.005198 0.017948 -0.005396 0.000000 0.000000 0.000000
# 3 -0.005260 -0.005396 0.012537 0.000000 0.000000 0.000000
# 4 0.000000 0.000000 0.000000 0.034502 0.000000 0.000000
# 5 0.000000 0.000000 0.000000 0.000000 0.040312 0.000000
# 6 0.000000 0.000000 0.000000 0.000000 0.000000 0.048793
#
#
# Mechanical properties :
#
#
# Convention : Reuss Voigt Hill
#
# Bulk Modulus (GPa) = 50.19689 55.36276 52.77982
# Shear Modulus (GPa) = 23.40967 24.33868 23.87418
#
# Velocity S-wave (km/s) = 3.78081 3.85510 3.81814
# Velocity P-wave (km/s) = 7.05060 7.32268 7.18793
#
# Compressibility (1/GPa) = 0.01992155
#
# Stress axis : x y z
#
# Youngs Moduli (GPa) = 47.29308 55.71500 79.76251
#
# Poissons Ratio (x) = 0.28963 0.41958
# Poissons Ratio (y) = 0.24585 0.43037
# Poissons Ratio (z) = 0.24878 0.30062
#
# Static dielectric constant tensor:
#      x y z
#    x 2.916810 0.000000 0.000000 
#    y 0.000000 2.915590 0.000000 
#    z 0.000000 0.000000 3.087320 
# 
# 
# High freq. dielectric constant tensor:
#      x y z
#    x 1.609740 0.000000 0.000000 
#    y 0.000000 1.603390 0.000000 
#    z 0.000000 0.000000 1.648340 
# 
# From -- ./inp_files/8247.got.cif
#   From: 2010.03.12/outbox.cif.g09.slc.cpg/sg63_5_cif.got.tgz:8247.got - 2010.04.10 19:34:48.
