data_PCOD8257002
_publ_section_title
;
Structure prediction by ZEFSAII (Michael W. Deem and Ramdas Pophale) SiO2 
 PCOD8257002
Probable space group: C M C M
;
_chemical_formula_sum "Si O2"
_cell_formula_units_Z 96
_cell_length_a 9.072790
_cell_length_b 28.012109
_cell_length_c 20.138430
_cell_angle_alpha 90.000000
_cell_angle_beta 90.000000
_cell_angle_gamma 90.000000
_cell_volume 5118.141353
_symmetry_space_group_name_H-M "C M C M"
_symmetry_group_IT_number 63
_symmetry_cell_setting 'orthorhombic'
loop_
_space_group_symop_operation_xyz
x,y,z
-x,-y,1/2+z
x,-y,-z
-x,y,1/2-z
-x,-y,-z
x,y,1/2-z
-x,y,z
x,-y,1/2+z
1/2+x,1/2+y,z
1/2-x,1/2-y,1/2+z
1/2+x,1/2-y,-z
1/2-x,1/2+y,1/2-z
1/2-x,1/2-y,-z
1/2+x,1/2+y,1/2-z
1/2-x,1/2+y,z
1/2+x,1/2-y,1/2+z
loop_
_atom_site_type_symbol
_atom_site_label
_atom_site_fract_x
_atom_site_fract_y
_atom_site_fract_z
Si Si1 0.166633 0.522077 0.572995
Si Si2 0.661077 0.149215 0.173316
Si Si3 0.672903 0.208942 0.957394
Si Si4 0.169712 0.240973 0.174765
Si Si5 0.665819 0.565040 0.382867
Si Si6 0.332788 0.390277 0.472123
O O1 0.167343 0.500000 0.500000
O O2 0.250778 0.485488 0.621190
O O3 0.250195 0.572796 0.576622
O O4 0.000000 0.529591 0.598314
O O5 0.639974 0.159024 0.250000
O O6 0.500000 0.144446 0.138689
O O7 0.744432 0.195375 0.144707
O O8 0.752732 0.101189 0.165576
O O9 0.500000 0.208171 0.974807
O O10 0.697418 0.216761 0.878025
O O11 0.744625 0.158790 0.975859
O O12 0.750000 0.250000 0.000000
O O13 0.219211 0.256117 0.250000
O O14 0.000000 0.225659 0.175895
O O15 0.500000 0.556988 0.357615
O O16 0.666842 0.586919 0.455719
O O17 0.500000 0.381760 0.447098
#
# Coordination Sequence:
#
# PCOD8257002 Si02
#       6
#    16  16  16  16  16  16
#     4   9  17  30  49  72  97 126 159 196 241 293
#     4  10  20  32  48  72  99 127 162 204 248 294
#     4  11  22  34  51  76 104 133 167 211 259 302
#     4   9  19  36  54  71  96 133 173 208 247 299
#     4  10  19  31  49  72  99 131 163 197 242 295
#     4  10  20  33  49  72 102 132 163 201 246 297
#
# _framework density 18.756809000000001
#
# number of rings (size 3 to 8) (size 9 to 14) (size 15 to 20)
#    0.000    2.167    0.000    3.500    0.000   10.333 
#    0.000    0.000    0.000    1.000    0.000    2.333 
#    0.000    0.000    0.000    0.000    0.000    0.000 
#
# Total GULP energy -595112.189804 kJ/mol
# GULP energy per Si atom -12398.170621 kJ/mol
# Density = 1.871412 g / cm^3
# Si number density = 18.756809 Si / 1000 Ang^3
#
#
#
# Elastic Constant Matrix: (Units=GPa)
#
#
# Indices 1 2 3 4 5 6 
#
# 1 150.9315 56.5485 18.6536 0.0000 0.0000 0.0000
# 2 56.5485 107.6682 7.4780 0.0000 0.0000 0.0000
# 3 18.6536 7.4780 30.7911 0.0000 0.0000 0.0000
# 4 0.0000 0.0000 0.0000 25.0639 0.0000 0.0000
# 5 0.0000 0.0000 0.0000 0.0000 20.1826 0.0000
# 6 0.0000 0.0000 0.0000 0.0000 0.0000 34.1308
#
#
#
# Elastic Compliance Matrix: (Units=1/GPa)
#
#
# Indices 1 2 3 4 5 6 
#
# 1 0.008767 -0.004308 -0.004265 0.000000 0.000000 0.000000
# 2 -0.004308 0.011564 -0.000199 0.000000 0.000000 0.000000
# 3 -0.004265 -0.000199 0.035109 0.000000 0.000000 0.000000
# 4 0.000000 0.000000 0.000000 0.039898 0.000000 0.000000
# 5 0.000000 0.000000 0.000000 0.000000 0.049548 0.000000
# 6 0.000000 0.000000 0.000000 0.000000 0.000000 0.029299
#
#
# Mechanical properties :
#
#
# Convention : Reuss Voigt Hill
#
# Bulk Modulus (GPa) = 26.38743 50.52788 38.45766
# Shear Modulus (GPa) = 24.46670 29.65618 27.06144
#
# Velocity S-wave (km/s) = 3.61559 3.98060 3.80248
# Velocity P-wave (km/s) = 5.61504 6.93714 6.31081
#
# Compressibility (1/GPa) = 0.03789683
#
# Stress axis : x y z
#
# Youngs Moduli (GPa) = 114.06797 86.47313 28.48296
#
# Poissons Ratio (x) = 0.37254 0.12147
# Poissons Ratio (y) = 0.49142 0.00566
# Poissons Ratio (z) = 0.48646 0.01717
#
# Static dielectric constant tensor:
#      x y z
#    x 3.883840 0.000000 0.000000 
#    y 0.000000 3.469290 0.000000 
#    z 0.000000 0.000000 3.207210 
# 
# 
# High freq. dielectric constant tensor:
#      x y z
#    x 1.749040 0.000000 0.000000 
#    y 0.000000 1.723590 0.000000 
#    z 0.000000 0.000000 1.690960 
# 
# From -- ./inp_files/51303.got.cif
#   From: 2010.03.12/outbox.cif.g09.slc.cpg/sg63_26_cif.got.tgz:51303.got - 2010.04.10 19:34:48.
