data_PCOD8257520
_publ_section_title
;
Structure prediction by ZEFSAII (Michael W. Deem and Ramdas Pophale) SiO2 
 PCOD8257520
Probable space group: C M C M
;
_chemical_formula_sum "Si O2"
_cell_formula_units_Z 128
_cell_length_a 27.906397
_cell_length_b 11.713543
_cell_length_c 21.205715
_cell_angle_alpha 90.000000
_cell_angle_beta 90.000000
_cell_angle_gamma 90.000000
_cell_volume 6931.783097
_symmetry_space_group_name_H-M "C M C M"
_symmetry_group_IT_number 63
_symmetry_cell_setting 'orthorhombic'
loop_
_space_group_symop_operation_xyz
x,y,z
-x,-y,1/2+z
x,-y,-z
-x,y,1/2-z
-x,-y,-z
x,y,1/2-z
-x,y,z
x,-y,1/2+z
1/2+x,1/2+y,z
1/2-x,1/2-y,1/2+z
1/2+x,1/2-y,-z
1/2-x,1/2+y,1/2-z
1/2-x,1/2-y,-z
1/2+x,1/2+y,1/2-z
1/2-x,1/2+y,z
1/2+x,1/2-y,1/2+z
loop_
_atom_site_type_symbol
_atom_site_label
_atom_site_fract_x
_atom_site_fract_y
_atom_site_fract_z
Si Si1 0.401347 0.454008 0.824107
Si Si2 0.807745 0.827721 0.822504
Si Si3 0.357172 0.101103 0.864345
Si Si4 0.554097 0.220909 0.823547
Si Si5 0.785721 0.388636 0.031253
Si Si6 0.053745 0.186236 0.824540
Si Si7 0.638336 0.157510 0.177628
Si Si8 0.277656 0.231100 0.096681
O O1 0.398580 0.468868 0.750000
O O2 0.348144 0.416862 0.847132
O O3 0.438320 0.353216 0.842107
O O4 0.420334 0.572991 0.853778
O O5 0.793008 0.851020 0.750000
O O6 0.827944 0.697775 0.825898
O O7 0.761794 0.848283 0.867630
O O8 0.412759 0.137842 0.865328
O O9 0.337272 0.091443 0.935687
O O10 0.353423 0.976132 0.833570
O O11 0.567003 0.202283 0.750000
O O12 0.500000 0.185705 0.838306
O O13 0.748171 0.352609 0.085903
O O14 0.764060 0.500000 0.000000
O O15 0.792983 0.302056 0.973980
O O16 0.049595 0.171211 0.750000
O O17 0.085065 0.298855 0.841517
O O18 0.000000 0.199986 0.852971
O O19 0.648086 0.186224 0.250000
O O20 0.675291 0.236420 0.138940
#
# Coordination Sequence:
#
# PCOD8257520 Si02
#       8
#    16  16  16  16  16  16  16  16
#     4   8  14  27  47  72 105 140 170 206 257 313
#     4   9  17  31  51  79 110 136 165 215 278 327
#     4  10  19  33  52  73 107 142 172 213 261 315
#     4   9  16  27  49  80 107 133 171 217 267 319
#     4  10  20  38  56  71  95 137 180 222 261 305
#     4   9  18  31  46  68 103 144 179 210 250 312
#     4  11  21  33  50  77 110 144 174 210 267 327
#     4  10  21  34  54  78 100 132 180 224 264 317
#
# _framework density 18.465667
#
# number of rings (size 3 to 8) (size 9 to 14) (size 15 to 20)
#    0.000    2.500    1.250    2.625    0.000    3.000 
#    0.000    1.250    0.000    1.125    0.000    0.000 
#    0.000   17.500    0.000    0.000    0.000    0.000 
#
# Total GULP energy -792969.103305 kJ/mol
# GULP energy per Si atom -12390.142239 kJ/mol
# Density = 1.842364 g / cm^3
# Si number density = 18.465667 Si / 1000 Ang^3
#
#
#
# Elastic Constant Matrix: (Units=GPa)
#
#
# Indices 1 2 3 4 5 6 
#
# 1 122.4028 37.9348 41.3464 0.0000 0.0000 0.0000
# 2 37.9348 72.7390 21.8405 0.0000 0.0000 0.0000
# 3 41.3464 21.8405 59.7710 0.0000 0.0000 0.0000
# 4 0.0000 0.0000 0.0000 20.6320 0.0000 0.0000
# 5 0.0000 0.0000 0.0000 0.0000 14.7448 0.0000
# 6 0.0000 0.0000 0.0000 0.0000 0.0000 17.5087
#
#
#
# Elastic Compliance Matrix: (Units=1/GPa)
#
#
# Indices 1 2 3 4 5 6 
#
# 1 0.011661 -0.004110 -0.006565 0.000000 0.000000 0.000000
# 2 -0.004110 0.016891 -0.003329 0.000000 0.000000 0.000000
# 3 -0.006565 -0.003329 0.022488 0.000000 0.000000 0.000000
# 4 0.000000 0.000000 0.000000 0.048469 0.000000 0.000000
# 5 0.000000 0.000000 0.000000 0.000000 0.067821 0.000000
# 6 0.000000 0.000000 0.000000 0.000000 0.000000 0.057114
#
#
# Mechanical properties :
#
#
# Convention : Reuss Voigt Hill
#
# Bulk Modulus (GPa) = 43.41672 50.79515 47.10594
# Shear Modulus (GPa) = 19.22131 20.82984 20.02558
#
# Velocity S-wave (km/s) = 3.22983 3.36226 3.29671
# Velocity P-wave (km/s) = 6.12146 6.52998 6.32902
#
# Compressibility (1/GPa) = 0.02303260
#
# Stress axis : x y z
#
# Youngs Moduli (GPa) = 85.75543 59.20351 44.46855
#
# Poissons Ratio (x) = 0.24335 0.29192
# Poissons Ratio (y) = 0.35249 0.14802
# Poissons Ratio (z) = 0.56295 0.19707
#
# Static dielectric constant tensor:
#      x y z
#    x 3.573900 0.000000 0.000000 
#    y 0.000000 3.498270 0.000000 
#    z 0.000000 0.000000 3.221910 
# 
# 
# High freq. dielectric constant tensor:
#      x y z
#    x 1.717210 0.000000 0.000000 
#    y 0.000000 1.712250 0.000000 
#    z 0.000000 0.000000 1.675590 
# 
# From -- ./inp_files/65568.got.cif
#   From: 2010.03.12/outbox.cif.g09.slc.cpg/sg63_33_cif.got.tgz:65568.got - 2010.04.10 19:34:48.
