data_PCOD8257298
_publ_section_title
;
Structure prediction by ZEFSAII (Michael W. Deem and Ramdas Pophale) SiO2 
 PCOD8257298
Probable space group: C M C M
;
_chemical_formula_sum "Si O2"
_cell_formula_units_Z 80
_cell_length_a 9.510777
_cell_length_b 19.165880
_cell_length_c 24.345363
_cell_angle_alpha 90.000000
_cell_angle_beta 90.000000
_cell_angle_gamma 90.000000
_cell_volume 4437.731457
_symmetry_space_group_name_H-M "C M C M"
_symmetry_group_IT_number 63
_symmetry_cell_setting 'orthorhombic'
loop_
_space_group_symop_operation_xyz
x,y,z
-x,-y,1/2+z
x,-y,-z
-x,y,1/2-z
-x,-y,-z
x,y,1/2-z
-x,y,z
x,-y,1/2+z
1/2+x,1/2+y,z
1/2-x,1/2-y,1/2+z
1/2+x,1/2-y,-z
1/2-x,1/2+y,1/2-z
1/2-x,1/2-y,-z
1/2+x,1/2+y,1/2-z
1/2-x,1/2+y,z
1/2+x,1/2-y,1/2+z
loop_
_atom_site_type_symbol
_atom_site_label
_atom_site_fract_x
_atom_site_fract_y
_atom_site_fract_z
Si Si1 0.166184 0.358688 0.250000
Si Si2 0.342045 0.798494 0.036033
Si Si3 0.667945 0.113264 0.350756
Si Si4 0.334047 0.015793 0.250000
Si Si5 0.661614 0.934398 0.969993
Si Si6 0.834620 0.744895 0.655986
O O1 0.231545 0.437272 0.250000
O O2 0.216711 0.314281 0.197902
O O3 0.000000 0.366568 0.250000
O O4 0.500000 0.773179 0.027132
O O5 0.297839 0.791257 0.098705
O O6 0.250000 0.750000 0.000000
O O7 0.319630 0.876420 0.016099
O O8 0.500000 0.126362 0.351348
O O9 0.724967 0.087019 0.410485
O O10 0.745037 0.185140 0.335559
O O11 0.713506 0.056732 0.304972
O O12 0.500000 0.010225 0.250000
O O13 0.500000 0.952807 0.958023
O O14 0.736691 0.000000 0.000000
O O15 0.000000 0.762767 0.662890
#
# Coordination Sequence:
#
# PCOD8257298 Si02
#       6
#     8  16  16   8  16  16
#     4   9  19  34  51  77 104 129 166 214 256 291
#     4  10  19  32  51  76 102 131 165 204 248 297
#     4  10  19  33  53  75 100 131 166 208 250 293
#     4   9  19  32  51  77 100 125 166 214 252 287
#     4   9  18  30  48  74 101 128 162 204 249 292
#     4  10  20  33  53  75 101 135 168 203 248 302
#
# _framework density 18.027227
#
# number of rings (size 3 to 8) (size 9 to 14) (size 15 to 20)
#    0.000    2.400    2.000    0.600    2.800    0.000 
#    0.000    0.000    0.000    4.800    0.000    0.000 
#    0.000    0.000    0.000    0.000    0.000    0.000 
#
# Total GULP energy -495764.970421 kJ/mol
# GULP energy per Si atom -12394.124261 kJ/mol
# Density = 1.798620 g / cm^3
# Si number density = 18.027227 Si / 1000 Ang^3
#
#
#
# Elastic Constant Matrix: (Units=GPa)
#
#
# Indices 1 2 3 4 5 6 
#
# 1 27.1565 36.4859 32.2292 0.0000 0.0000 0.0000
# 2 36.4859 147.3096 94.3514 0.0000 0.0000 0.0000
# 3 32.2292 94.3514 163.0532 0.0000 0.0000 0.0000
# 4 0.0000 0.0000 0.0000 35.5109 0.0000 0.0000
# 5 0.0000 0.0000 0.0000 0.0000 17.5095 0.0000
# 6 0.0000 0.0000 0.0000 0.0000 0.0000 23.8012
#
#
#
# Elastic Compliance Matrix: (Units=1/GPa)
#
#
# Indices 1 2 3 4 5 6 
#
# 1 0.057622 -0.011085 -0.004975 0.000000 0.000000 0.000000
# 2 -0.011085 0.012919 -0.005284 0.000000 0.000000 0.000000
# 3 -0.004975 -0.005284 0.010174 0.000000 0.000000 0.000000
# 4 0.000000 0.000000 0.000000 0.028160 0.000000 0.000000
# 5 0.000000 0.000000 0.000000 0.000000 0.057112 0.000000
# 6 0.000000 0.000000 0.000000 0.000000 0.000000 0.042015
#
#
# Mechanical properties :
#
#
# Convention : Reuss Voigt Hill
#
# Bulk Modulus (GPa) = 26.29841 73.73915 50.01878
# Shear Modulus (GPa) = 18.98504 26.99450 22.98977
#
# Velocity S-wave (km/s) = 3.24872 3.87386 3.57498
# Velocity P-wave (km/s) = 5.35650 7.81039 6.69680
#
# Compressibility (1/GPa) = 0.03802511
#
# Stress axis : x y z
#
# Youngs Moduli (GPa) = 17.35461 77.40753 98.28896
#
# Poissons Ratio (x) = 0.85809 0.48898
# Poissons Ratio (y) = 0.19238 0.51939
# Poissons Ratio (z) = 0.08634 0.40904
#
# Static dielectric constant tensor:
#      x y z
#    x 2.945790 0.000000 0.000000 
#    y 0.000000 3.437750 0.000000 
#    z 0.000000 0.000000 3.652150 
# 
# 
# High freq. dielectric constant tensor:
#      x y z
#    x 1.645730 0.000000 0.000000 
#    y 0.000000 1.708430 0.000000 
#    z 0.000000 0.000000 1.720370 
# 
# From -- ./inp_files/61170.got.cif
#   From: 2010.03.12/outbox.cif.g09.slc.cpg/sg63_31_cif.got.tgz:61170.got - 2010.04.10 19:34:48.
