data_PCOD8257785
_publ_section_title
;
Structure prediction by ZEFSAII (Michael W. Deem and Ramdas Pophale) SiO2 
 PCOD8257785
Probable space group: C M C M
;
_chemical_formula_sum "Si O2"
_cell_formula_units_Z 88
_cell_length_a 22.536587
_cell_length_b 24.624905
_cell_length_c 8.720241
_cell_angle_alpha 90.000000
_cell_angle_beta 90.000000
_cell_angle_gamma 90.000000
_cell_volume 4839.396403
_symmetry_space_group_name_H-M "C M C M"
_symmetry_group_IT_number 63
_symmetry_cell_setting 'orthorhombic'
loop_
_space_group_symop_operation_xyz
x,y,z
-x,-y,1/2+z
x,-y,-z
-x,y,1/2-z
-x,-y,-z
x,y,1/2-z
-x,y,z
x,-y,1/2+z
1/2+x,1/2+y,z
1/2-x,1/2-y,1/2+z
1/2+x,1/2-y,-z
1/2-x,1/2+y,1/2-z
1/2-x,1/2-y,-z
1/2+x,1/2+y,1/2-z
1/2-x,1/2+y,z
1/2+x,1/2-y,1/2+z
loop_
_atom_site_type_symbol
_atom_site_label
_atom_site_fract_x
_atom_site_fract_y
_atom_site_fract_z
Si Si1 0.000000 0.940759 0.568949
Si Si2 0.115761 0.876139 0.569366
Si Si3 0.281767 0.557137 0.931339
Si Si4 0.567501 0.738724 0.071174
Si Si5 0.066734 0.650368 0.431042
Si Si6 0.845308 0.557392 0.067265
O O1 0.058064 0.908837 0.512544
O O2 0.000000 0.944803 0.750000
O O3 0.000000 0.000000 0.500000
O O4 0.126250 0.884603 0.750000
O O5 0.172100 0.896177 0.474506
O O6 0.107564 0.812900 0.527911
O O7 0.275597 0.551463 0.750000
O O8 0.304416 0.500000 0.000000
O O9 0.218857 0.573409 0.002960
O O10 0.570375 0.750639 0.250000
O O11 0.500000 0.726355 0.020140
O O12 0.592596 0.791764 0.985547
O O13 0.066107 0.649701 0.250000
O O14 0.108363 0.602278 0.492650
O O15 0.000000 0.641938 0.496368
O O16 0.842324 0.553978 0.250000
O O17 0.866694 0.500000 0.000000
#
# Coordination Sequence:
#
# PCOD8257785 Si02
#       6
#     8  16  16  16  16  16
#     4  10  20  32  48  72 104 136 171 218 263 306
#     4  10  19  34  53  75 105 139 177 219 263 309
#     4  11  22  36  54  76 103 138 179 219 263 313
#     4   9  17  32  54  78 105 140 177 214 260 310
#     4   9  19  35  55  81 111 138 167 210 261 312
#     4  10  20  36  57  79 106 139 172 210 260 313
#
# _framework density 18.184085
#
# number of rings (size 3 to 8) (size 9 to 14) (size 15 to 20)
#    0.000    2.182    0.909    3.818    0.000    4.727 
#    0.000    0.909    0.000    0.000    0.000    0.000 
#    0.000    0.000    0.000    0.000    0.000    0.000 
#
# Total GULP energy -545670.246442 kJ/mol
# GULP energy per Si atom -12401.596510 kJ/mol
# Density = 1.814270 g / cm^3
# Si number density = 18.184085 Si / 1000 Ang^3
#
#
#
# Elastic Constant Matrix: (Units=GPa)
#
#
# Indices 1 2 3 4 5 6 
#
# 1 97.3661 85.0818 33.7906 0.0000 0.0000 0.0000
# 2 85.0818 144.2907 37.3425 0.0000 0.0000 0.0000
# 3 33.7906 37.3425 58.2595 0.0000 0.0000 0.0000
# 4 0.0000 0.0000 0.0000 33.7518 0.0000 0.0000
# 5 0.0000 0.0000 0.0000 0.0000 22.3890 0.0000
# 6 0.0000 0.0000 0.0000 0.0000 0.0000 26.5386
#
#
#
# Elastic Compliance Matrix: (Units=1/GPa)
#
#
# Indices 1 2 3 4 5 6 
#
# 1 0.022550 -0.011883 -0.005462 0.000000 0.000000 0.000000
# 2 -0.011883 0.014571 -0.002447 0.000000 0.000000 0.000000
# 3 -0.005462 -0.002447 0.021901 0.000000 0.000000 0.000000
# 4 0.000000 0.000000 0.000000 0.029628 0.000000 0.000000
# 5 0.000000 0.000000 0.000000 0.000000 0.044665 0.000000
# 6 0.000000 0.000000 0.000000 0.000000 0.000000 0.037681
#
#
# Mechanical properties :
#
#
# Convention : Reuss Voigt Hill
#
# Bulk Modulus (GPa) = 51.44871 68.03846 59.74359
# Shear Modulus (GPa) = 23.03510 26.11598 24.57554
#
# Velocity S-wave (km/s) = 3.56304 3.79383 3.68025
# Velocity P-wave (km/s) = 6.72916 7.52918 7.14039
#
# Compressibility (1/GPa) = 0.01943683
#
# Stress axis : x y z
#
# Youngs Moduli (GPa) = 44.34579 68.63082 45.65940
#
# Poissons Ratio (x) = 0.81555 0.24941
# Poissons Ratio (y) = 0.52697 0.11174
# Poissons Ratio (z) = 0.24223 0.16795
#
# Static dielectric constant tensor:
#      x y z
#    x 3.399710 0.000000 0.000000 
#    y 0.000000 3.454760 0.000000 
#    z 0.000000 0.000000 3.270980 
# 
# 
# High freq. dielectric constant tensor:
#      x y z
#    x 1.694960 0.000000 0.000000 
#    y 0.000000 1.710250 0.000000 
#    z 0.000000 0.000000 1.701010 
# 
# From -- ./inp_files/8219.got.cif
#   From: 2010.03.12/outbox.cif.g09.slc.cpg/sg63_5_cif.got.tgz:8219.got - 2010.04.10 19:34:48.
