data_PCOD8257589
_publ_section_title
;
Structure prediction by ZEFSAII (Michael W. Deem and Ramdas Pophale) SiO2 
 PCOD8257589
Probable space group: C M C M
;
_chemical_formula_sum "Si O2"
_cell_formula_units_Z 96
_cell_length_a 19.438307
_cell_length_b 28.209506
_cell_length_c 9.384389
_cell_angle_alpha 90.000000
_cell_angle_beta 90.000000
_cell_angle_gamma 90.000000
_cell_volume 5145.883142
_symmetry_space_group_name_H-M "C M C M"
_symmetry_group_IT_number 63
_symmetry_cell_setting 'orthorhombic'
loop_
_space_group_symop_operation_xyz
x,y,z
-x,-y,1/2+z
x,-y,-z
-x,y,1/2-z
-x,-y,-z
x,y,1/2-z
-x,y,z
x,-y,1/2+z
1/2+x,1/2+y,z
1/2-x,1/2-y,1/2+z
1/2+x,1/2-y,-z
1/2-x,1/2+y,1/2-z
1/2-x,1/2-y,-z
1/2+x,1/2+y,1/2-z
1/2-x,1/2+y,z
1/2+x,1/2-y,1/2+z
loop_
_atom_site_type_symbol
_atom_site_label
_atom_site_fract_x
_atom_site_fract_y
_atom_site_fract_z
Si Si1 0.294592 0.395694 0.587259
Si Si2 0.923429 0.955190 0.587084
Si Si3 0.697108 0.695635 0.592515
Si Si4 0.850190 0.725907 0.591116
Si Si5 0.580896 0.141400 0.415696
Si Si6 0.161860 0.452581 0.914780
O O1 0.283896 0.378734 0.750000
O O2 0.372127 0.412290 0.558843
O O3 0.282221 0.352643 0.483581
O O4 0.240381 0.437296 0.552203
O O5 0.921978 0.971114 0.750000
O O6 0.000000 0.939132 0.539827
O O7 0.897350 0.000000 0.500000
O O8 0.665821 0.686149 0.750000
O O9 0.768805 0.722341 0.609684
O O10 0.640661 0.726104 0.502931
O O11 0.883207 0.731251 0.750000
O O12 0.884659 0.681831 0.511203
O O13 0.597837 0.151878 0.250000
O O14 0.500000 0.140662 0.444939
O O15 0.611572 0.090407 0.460527
O O16 0.151476 0.464900 0.750000
O O17 0.142800 0.500000 0.000000
#
# Coordination Sequence:
#
# PCOD8257589 Si02
#       6
#    16  16  16  16  16  16
#     4  10  19  33  53  78 108 143 179 223 272 320
#     4   9  18  32  50  73 102 138 177 215 261 316
#     4  10  20  33  55  83 109 137 174 220 268 321
#     4  10  20  35  56  82 108 138 176 220 268 322
#     4  10  21  38  58  79 109 148 186 228 279 332
#     4  10  21  35  53  78 108 142 184 231 278 327
#
# _framework density 18.655691000000001
#
# number of rings (size 3 to 8) (size 9 to 14) (size 15 to 20)
#    0.000    2.167    1.667    1.500    0.000    4.000 
#    0.000    0.833    0.000    3.000    0.000    0.000 
#    0.000    0.000    0.000    0.000    0.000    0.000 
#
# Total GULP energy -595069.280836 kJ/mol
# GULP energy per Si atom -12397.276684 kJ/mol
# Density = 1.861323 g / cm^3
# Si number density = 18.655691 Si / 1000 Ang^3
#
#
#
# Elastic Constant Matrix: (Units=GPa)
#
#
# Indices 1 2 3 4 5 6 
#
# 1 66.8920 25.8624 32.9532 0.0000 0.0000 0.0000
# 2 25.8624 75.6699 49.6970 0.0000 0.0000 0.0000
# 3 32.9532 49.6970 100.0346 0.0000 0.0000 0.0000
# 4 0.0000 0.0000 0.0000 37.3236 0.0000 0.0000
# 5 0.0000 0.0000 0.0000 0.0000 20.4396 0.0000
# 6 0.0000 0.0000 0.0000 0.0000 0.0000 14.5329
#
#
#
# Elastic Compliance Matrix: (Units=1/GPa)
#
#
# Indices 1 2 3 4 5 6 
#
# 1 0.018427 -0.003431 -0.004366 0.000000 0.000000 0.000000
# 2 -0.003431 0.020254 -0.008932 0.000000 0.000000 0.000000
# 3 -0.004366 -0.008932 0.015872 0.000000 0.000000 0.000000
# 4 0.000000 0.000000 0.000000 0.026793 0.000000 0.000000
# 5 0.000000 0.000000 0.000000 0.000000 0.048925 0.000000
# 6 0.000000 0.000000 0.000000 0.000000 0.000000 0.068809
#
#
# Mechanical properties :
#
#
# Convention : Reuss Voigt Hill
#
# Bulk Modulus (GPa) = 47.40247 51.06907 49.23577
# Shear Modulus (GPa) = 20.87089 23.39814 22.13451
#
# Velocity S-wave (km/s) = 3.34839 3.54532 3.44826
# Velocity P-wave (km/s) = 6.35714 6.64779 6.50409
#
# Compressibility (1/GPa) = 0.02109595
#
# Stress axis : x y z
#
# Youngs Moduli (GPa) = 54.26957 49.37288 63.00353
#
# Poissons Ratio (x) = 0.16938 0.27506
# Poissons Ratio (y) = 0.18618 0.56275
# Poissons Ratio (z) = 0.23693 0.44100
#
# Static dielectric constant tensor:
#      x y z
#    x 3.458730 0.000000 0.000000 
#    y 0.000000 3.254950 0.000000 
#    z 0.000000 0.000000 3.643020 
# 
# 
# High freq. dielectric constant tensor:
#      x y z
#    x 1.708050 0.000000 0.000000 
#    y 0.000000 1.717130 0.000000 
#    z 0.000000 0.000000 1.731180 
# 
# From -- ./inp_files/8513.got.cif
#   From: 2010.03.12/outbox.cif.g09.slc.cpg/sg63_5_cif.got.tgz:8513.got - 2010.04.10 19:34:48.
