data_PCOD8257209
_publ_section_title
;
Structure prediction by ZEFSAII (Michael W. Deem and Ramdas Pophale) SiO2 
 PCOD8257209
Probable space group: C M C M
;
_chemical_formula_sum "Si O2"
_cell_formula_units_Z 96
_cell_length_a 22.268339
_cell_length_b 27.560178
_cell_length_c 8.713544
_cell_angle_alpha 90.000000
_cell_angle_beta 90.000000
_cell_angle_gamma 90.000000
_cell_volume 5347.670879
_symmetry_space_group_name_H-M "C M C M"
_symmetry_group_IT_number 63
_symmetry_cell_setting 'orthorhombic'
loop_
_space_group_symop_operation_xyz
x,y,z
-x,-y,1/2+z
x,-y,-z
-x,y,1/2-z
-x,-y,-z
x,y,1/2-z
-x,y,z
x,-y,1/2+z
1/2+x,1/2+y,z
1/2-x,1/2-y,1/2+z
1/2+x,1/2-y,-z
1/2-x,1/2+y,1/2-z
1/2-x,1/2-y,-z
1/2+x,1/2+y,1/2-z
1/2-x,1/2+y,z
1/2+x,1/2-y,1/2+z
loop_
_atom_site_type_symbol
_atom_site_label
_atom_site_fract_x
_atom_site_fract_y
_atom_site_fract_z
Si Si1 0.377030 0.782866 0.932265
Si Si2 0.738958 0.552330 0.067384
Si Si3 0.500000 0.735754 0.932454
Si Si4 0.619299 0.603925 0.076175
Si Si5 0.801296 0.640855 0.930981
Si Si6 0.500000 0.626329 0.570364
Si Si7 0.806860 0.802748 0.573352
O O1 0.373908 0.783962 0.750000
O O2 0.441917 0.765096 0.991489
O O3 0.362935 0.836256 0.000773
O O4 0.325949 0.747394 0.997356
O O5 0.741921 0.552469 0.250000
O O6 0.673139 0.570265 0.011031
O O7 0.752637 0.500000 0.000000
O O8 0.790343 0.588128 0.004694
O O9 0.500000 0.732831 0.750000
O O10 0.500000 0.680939 0.000416
O O11 0.605344 0.589072 0.250000
O O12 0.637741 0.660096 0.063501
O O13 0.558686 0.596262 0.980268
O O14 0.806503 0.635316 0.750000
O O15 0.747800 0.676759 0.975747
O O16 0.500000 0.629985 0.750000
O O17 0.786826 0.795346 0.750000
#
# Coordination Sequence:
#
# PCOD8257209 Si02
#       7
#    16  16   8  16  16   8  16
#     4  11  20  34  51  73 106 141 178 217 258 309
#     4  10  21  39  60  82 104 131 168 216 272 322
#     4   9  20  33  49  74 105 144 183 220 257 299
#     4   9  19  33  50  73 103 137 175 217 262 309
#     4  11  22  35  52  77 105 137 173 214 262 313
#     4  11  19  31  50  74 101 138 187 222 257 304
#     4  10  19  32  49  73 103 139 177 216 261 310
#
# _framework density 17.951740000000001
#
# number of rings (size 3 to 8) (size 9 to 14) (size 15 to 20)
#    0.000    1.833    1.667    4.750    0.000    3.333 
#    0.000    2.083    0.000    0.000    0.000    0.583 
#    0.000    0.000    0.000    0.000    0.000    0.000 
#
# Total GULP energy -595226.289711 kJ/mol
# GULP energy per Si atom -12400.547702 kJ/mol
# Density = 1.791088 g / cm^3
# Si number density = 17.951740 Si / 1000 Ang^3
#
#
#
# Elastic Constant Matrix: (Units=GPa)
#
#
# Indices 1 2 3 4 5 6 
#
# 1 43.7422 31.8672 10.0037 0.0000 0.0000 0.0000
# 2 31.8672 111.4494 28.0938 0.0000 0.0000 0.0000
# 3 10.0037 28.0938 70.6845 0.0000 0.0000 0.0000
# 4 0.0000 0.0000 0.0000 28.6885 0.0000 0.0000
# 5 0.0000 0.0000 0.0000 0.0000 23.3246 0.0000
# 6 0.0000 0.0000 0.0000 0.0000 0.0000 16.2703
#
#
#
# Elastic Compliance Matrix: (Units=1/GPa)
#
#
# Indices 1 2 3 4 5 6 
#
# 1 0.028927 -0.008045 -0.000896 0.000000 0.000000 0.000000
# 2 -0.008045 0.012209 -0.003714 0.000000 0.000000 0.000000
# 3 -0.000896 -0.003714 0.015750 0.000000 0.000000 0.000000
# 4 0.000000 0.000000 0.000000 0.034857 0.000000 0.000000
# 5 0.000000 0.000000 0.000000 0.000000 0.042873 0.000000
# 6 0.000000 0.000000 0.000000 0.000000 0.000000 0.061462
#
#
# Mechanical properties :
#
#
# Convention : Reuss Voigt Hill
#
# Bulk Modulus (GPa) = 31.66988 40.64504 36.15746
# Shear Modulus (GPa) = 21.55953 24.05077 22.80515
#
# Velocity S-wave (km/s) = 3.46926 3.66422 3.56808
# Velocity P-wave (km/s) = 5.80755 6.37122 6.09591
#
# Compressibility (1/GPa) = 0.03157574
#
# Stress axis : x y z
#
# Youngs Moduli (GPa) = 34.56920 81.90435 63.49057
#
# Poissons Ratio (x) = 0.65895 0.05691
# Poissons Ratio (y) = 0.27812 0.23581
# Poissons Ratio (z) = 0.03098 0.30420
#
# Static dielectric constant tensor:
#      x y z
#    x 3.336100 0.000000 0.000000 
#    y 0.000000 3.260660 0.000000 
#    z 0.000000 0.000000 3.251870 
# 
# 
# High freq. dielectric constant tensor:
#      x y z
#    x 1.678300 0.000000 0.000000 
#    y 0.000000 1.675690 0.000000 
#    z 0.000000 0.000000 1.699120 
# 
# From -- ./inp_files/10777.got.cif
#   From: 2010.03.12/outbox.cif.g09.slc.cpg/sg63_6_cif.got.tgz:10777.got - 2010.04.10 19:34:48.
