data_PCOD8257717
_publ_section_title
;
Structure prediction by ZEFSAII (Michael W. Deem and Ramdas Pophale) SiO2 
 PCOD8257717
Probable space group: C M C M
;
_chemical_formula_sum "Si O2"
_cell_formula_units_Z 96
_cell_length_a 9.277084
_cell_length_b 28.617206
_cell_length_c 20.299725
_cell_angle_alpha 90.000000
_cell_angle_beta 90.000000
_cell_angle_gamma 90.000000
_cell_volume 5389.256737
_symmetry_space_group_name_H-M "C M C M"
_symmetry_group_IT_number 63
_symmetry_cell_setting 'orthorhombic'
loop_
_space_group_symop_operation_xyz
x,y,z
-x,-y,1/2+z
x,-y,-z
-x,y,1/2-z
-x,-y,-z
x,y,1/2-z
-x,y,z
x,-y,1/2+z
1/2+x,1/2+y,z
1/2-x,1/2-y,1/2+z
1/2+x,1/2-y,-z
1/2-x,1/2+y,1/2-z
1/2-x,1/2-y,-z
1/2+x,1/2+y,1/2-z
1/2-x,1/2+y,z
1/2+x,1/2-y,1/2+z
loop_
_atom_site_type_symbol
_atom_site_label
_atom_site_fract_x
_atom_site_fract_y
_atom_site_fract_z
Si Si1 0.167782 0.223263 0.056819
Si Si2 0.670629 0.970263 0.936125
Si Si3 0.668680 0.380439 0.523006
Si Si4 0.166648 0.714430 0.823691
Si Si5 0.666796 0.626218 0.872634
Si Si6 0.334800 0.524193 0.825556
O O1 0.206107 0.168605 0.057564
O O2 0.215547 0.244528 0.126927
O O3 0.000000 0.230406 0.042439
O O4 0.250000 0.250000 0.000000
O O5 0.500000 0.965376 0.931388
O O6 0.740358 0.919280 0.939210
O O7 0.727897 0.994682 0.870474
O O8 0.717846 0.000000 0.000000
O O9 0.500000 0.392937 0.527900
O O10 0.720625 0.378638 0.447526
O O11 0.198882 0.732453 0.750000
O O12 0.250258 0.666896 0.836011
O O13 0.000000 0.702590 0.833922
O O14 0.500000 0.639799 0.871544
O O15 0.699319 0.578808 0.833772
O O16 0.307996 0.509930 0.750000
O O17 0.500000 0.514097 0.846576
#
# Coordination Sequence:
#
# PCOD8257717 Si02
#       6
#    16  16  16  16  16  16
#     4  10  20  35  55  79 108 143 184 226 270 321
#     4  11  23  37  56  82 112 146 183 226 277 329
#     4  10  20  35  57  83 109 141 184 231 274 319
#     4  10  21  35  52  78 113 148 179 219 273 329
#     4  10  19  33  56  84 113 142 179 227 273 323
#     4  10  21  37  57  81 110 146 184 225 277 333
#
# _framework density 17.813217000000002
#
# number of rings (size 3 to 8) (size 9 to 14) (size 15 to 20)
#    0.000    1.833    3.333    1.000    0.000    4.000 
#    0.000    0.833    0.000    3.000    0.000    0.000 
#    0.000    0.000    0.000    0.000    0.000    0.000 
#
# Total GULP energy -595379.861122 kJ/mol
# GULP energy per Si atom -12403.747107 kJ/mol
# Density = 1.777267 g / cm^3
# Si number density = 17.813217 Si / 1000 Ang^3
#
#
#
# Elastic Constant Matrix: (Units=GPa)
#
#
# Indices 1 2 3 4 5 6 
#
# 1 59.4716 54.2081 46.8426 0.0000 0.0000 0.0000
# 2 54.2081 115.4354 61.9357 0.0000 0.0000 0.0000
# 3 46.8426 61.9357 121.4478 0.0000 0.0000 0.0000
# 4 0.0000 0.0000 0.0000 27.5478 0.0000 0.0000
# 5 0.0000 0.0000 0.0000 0.0000 27.3350 0.0000
# 6 0.0000 0.0000 0.0000 0.0000 0.0000 31.1034
#
#
#
# Elastic Compliance Matrix: (Units=1/GPa)
#
#
# Indices 1 2 3 4 5 6 
#
# 1 0.032850 -0.011878 -0.006613 0.000000 0.000000 0.000000
# 2 -0.011878 0.016221 -0.003691 0.000000 0.000000 0.000000
# 3 -0.006613 -0.003691 0.012667 0.000000 0.000000 0.000000
# 4 0.000000 0.000000 0.000000 0.036301 0.000000 0.000000
# 5 0.000000 0.000000 0.000000 0.000000 0.036583 0.000000
# 6 0.000000 0.000000 0.000000 0.000000 0.000000 0.032151
#
#
# Mechanical properties :
#
#
# Convention : Reuss Voigt Hill
#
# Bulk Modulus (GPa) = 57.55636 69.14750 63.35193
# Shear Modulus (GPa) = 23.04905 26.08847 24.56876
#
# Velocity S-wave (km/s) = 3.60103 3.83110 3.71785
# Velocity P-wave (km/s) = 7.04777 7.64671 7.35334
#
# Compressibility (1/GPa) = 0.01737428
#
# Stress axis : x y z
#
# Youngs Moduli (GPa) = 30.44103 61.64740 78.94643
#
# Poissons Ratio (x) = 0.73228 0.52205
# Poissons Ratio (y) = 0.36159 0.29139
# Poissons Ratio (z) = 0.20130 0.22754
#
# Static dielectric constant tensor:
#      x y z
#    x 3.252300 0.000000 0.000000 
#    y 0.000000 3.328650 0.000000 
#    z 0.000000 0.000000 3.401290 
# 
# 
# High freq. dielectric constant tensor:
#      x y z
#    x 1.685070 0.000000 0.000000 
#    y 0.000000 1.689010 0.000000 
#    z 0.000000 0.000000 1.691090 
# 
# From -- ./inp_files/51285.got.cif
#   From: 2010.03.12/outbox.cif.g09.slc.cpg/sg63_26_cif.got.tgz:51285.got - 2010.04.10 19:34:48.
