data_PCOD8257446
_publ_section_title
;
Structure prediction by ZEFSAII (Michael W. Deem and Ramdas Pophale) SiO2 
 PCOD8257446
Probable space group: C M C M
;
_chemical_formula_sum "Si O2"
_cell_formula_units_Z 104
_cell_length_a 7.728443
_cell_length_b 26.205212
_cell_length_c 27.248018
_cell_angle_alpha 90.000000
_cell_angle_beta 90.000000
_cell_angle_gamma 90.000000
_cell_volume 5518.418122
_symmetry_space_group_name_H-M "C M C M"
_symmetry_group_IT_number 63
_symmetry_cell_setting 'orthorhombic'
loop_
_space_group_symop_operation_xyz
x,y,z
-x,-y,1/2+z
x,-y,-z
-x,y,1/2-z
-x,-y,-z
x,y,1/2-z
-x,y,z
x,-y,1/2+z
1/2+x,1/2+y,z
1/2-x,1/2-y,1/2+z
1/2+x,1/2-y,-z
1/2-x,1/2+y,1/2-z
1/2-x,1/2-y,-z
1/2+x,1/2+y,1/2-z
1/2-x,1/2+y,z
1/2+x,1/2-y,1/2+z
loop_
_atom_site_type_symbol
_atom_site_label
_atom_site_fract_x
_atom_site_fract_y
_atom_site_fract_z
Si Si1 0.000000 0.560205 0.008752
Si Si2 0.500000 0.112659 0.387794
Si Si3 0.201292 0.703338 0.600994
Si Si4 0.500000 0.968771 0.691418
Si Si5 0.692261 0.629232 0.980631
Si Si6 0.310354 0.537902 0.807945
Si Si7 0.202001 0.646775 0.695548
Si Si8 0.700088 0.317754 0.581117
O O1 0.169752 0.583491 0.982515
O O2 0.000000 0.500000 0.000000
O O3 0.000000 0.572967 0.066701
O O4 0.500000 0.085055 0.335502
O O5 0.325582 0.146220 0.387480
O O6 0.299687 0.661333 0.569159
O O7 0.242953 0.692923 0.658405
O O8 0.264519 0.760018 0.588701
O O9 0.000000 0.697502 0.589020
O O10 0.500000 0.960102 0.750000
O O11 0.332513 0.999287 0.671638
O O12 0.500000 0.605126 0.985110
O O13 0.726861 0.669329 0.024188
O O14 0.288479 0.540376 0.750000
O O15 0.500000 0.517913 0.823904
O O16 0.286346 0.595548 0.827044
O O17 0.274788 0.660551 0.750000
O O18 0.000000 0.635666 0.699167
O O19 0.500000 0.325189 0.598036
#
# Coordination Sequence:
#
# PCOD8257446 Si02
#       8
#     8   8  16   8  16  16  16  16
#     4  10  22  40  56  80 116 146 176 219 274 334
#     4  10  22  38  58  76 106 150 179 218 282 322
#     4  10  19  32  54  81 109 140 181 226 266 319
#     4  10  20  36  56  80 106 142 192 233 264 316
#     4  10  20  35  57  83 108 138 180 226 269 317
#     4   9  17  31  52  76 104 137 175 223 273 313
#     4   9  17  31  50  75 111 147 174 212 268 324
#     4   9  20  37  55  79 109 139 177 226 276 321
#
# _framework density 18.845980000000001
#
# number of rings (size 3 to 8) (size 9 to 14) (size 15 to 20)
#    0.000    2.462    1.538    0.462    1.077    2.769 
#    0.000    0.769    0.000    0.923    0.000    0.000 
#    0.000    0.000    0.000    0.000    0.000    0.000 
#
# Total GULP energy -644711.569977 kJ/mol
# GULP energy per Si atom -12398.299423 kJ/mol
# Density = 1.880309 g / cm^3
# Si number density = 18.845980 Si / 1000 Ang^3
#
#
#
# Elastic Constant Matrix: (Units=GPa)
#
#
# Indices 1 2 3 4 5 6 
#
# 1 113.3003 61.5346 35.5350 0.0000 0.0000 0.0000
# 2 61.5346 130.9875 52.0973 0.0000 0.0000 0.0000
# 3 35.5350 52.0973 72.0320 0.0000 0.0000 0.0000
# 4 0.0000 0.0000 0.0000 27.9661 0.0000 0.0000
# 5 0.0000 0.0000 0.0000 0.0000 13.7177 0.0000
# 6 0.0000 0.0000 0.0000 0.0000 0.0000 20.8041
#
#
#
# Elastic Compliance Matrix: (Units=1/GPa)
#
#
# Indices 1 2 3 4 5 6 
#
# 1 0.012194 -0.004683 -0.002629 0.000000 0.000000 0.000000
# 2 -0.004683 0.012516 -0.006742 0.000000 0.000000 0.000000
# 3 -0.002629 -0.006742 0.020055 0.000000 0.000000 0.000000
# 4 0.000000 0.000000 0.000000 0.035758 0.000000 0.000000
# 5 0.000000 0.000000 0.000000 0.000000 0.072899 0.000000
# 6 0.000000 0.000000 0.000000 0.000000 0.000000 0.048067
#
#
# Mechanical properties :
#
#
# Convention : Reuss Voigt Hill
#
# Bulk Modulus (GPa) = 60.02967 68.29483 64.16225
# Shear Modulus (GPa) = 21.26322 23.64111 22.45216
#
# Velocity S-wave (km/s) = 3.36261 3.54565 3.45534
# Velocity P-wave (km/s) = 6.85552 7.28555 7.07380
#
# Compressibility (1/GPa) = 0.01665843
#
# Stress axis : x y z
#
# Youngs Moduli (GPa) = 82.00852 79.90029 49.86173
#
# Poissons Ratio (x) = 0.37416 0.13107
# Poissons Ratio (y) = 0.38404 0.33616
# Poissons Ratio (z) = 0.21557 0.53867
#
# Static dielectric constant tensor:
#      x y z
#    x 3.657200 0.000000 0.000000 
#    y 0.000000 3.280640 0.000000 
#    z 0.000000 0.000000 3.288650 
# 
# 
# High freq. dielectric constant tensor:
#      x y z
#    x 1.744380 0.000000 0.000000 
#    y 0.000000 1.712990 0.000000 
#    z 0.000000 0.000000 1.712540 
# 
# From -- ./inp_files/67418.got.cif
#   From: 2010.03.12/outbox.cif.g09.slc.cpg/sg63_34_cif.got.tgz:67418.got - 2010.04.10 19:34:48.
