data_PCOD8257450
_publ_section_title
;
Structure prediction by ZEFSAII (Michael W. Deem and Ramdas Pophale) SiO2 
 PCOD8257450
Probable space group: C M C M
;
_chemical_formula_sum "Si O2"
_cell_formula_units_Z 104
_cell_length_a 21.380739
_cell_length_b 28.175104
_cell_length_c 9.164138
_cell_angle_alpha 90.000000
_cell_angle_beta 90.000000
_cell_angle_gamma 90.000000
_cell_volume 5520.518381
_symmetry_space_group_name_H-M "C M C M"
_symmetry_group_IT_number 63
_symmetry_cell_setting 'orthorhombic'
loop_
_space_group_symop_operation_xyz
x,y,z
-x,-y,1/2+z
x,-y,-z
-x,y,1/2-z
-x,-y,-z
x,y,1/2-z
-x,y,z
x,-y,1/2+z
1/2+x,1/2+y,z
1/2-x,1/2-y,1/2+z
1/2+x,1/2-y,-z
1/2-x,1/2+y,1/2-z
1/2-x,1/2-y,-z
1/2+x,1/2+y,1/2-z
1/2-x,1/2+y,z
1/2+x,1/2-y,1/2+z
loop_
_atom_site_type_symbol
_atom_site_label
_atom_site_fract_x
_atom_site_fract_y
_atom_site_fract_z
Si Si1 0.369251 0.596978 0.079183
Si Si2 0.676402 0.793091 0.915582
Si Si3 0.500000 0.550242 0.419468
Si Si4 0.176121 0.200424 0.084918
Si Si5 0.426720 0.956255 0.911136
Si Si6 0.758296 0.952158 0.421307
Si Si7 0.644236 0.116418 0.919798
O O1 0.354329 0.589842 0.250000
O O2 0.439862 0.582102 0.039292
O O3 0.357262 0.651774 0.034837
O O4 0.324773 0.563058 0.986157
O O5 0.652337 0.797943 0.750000
O O6 0.749586 0.803880 0.924452
O O7 0.655708 0.741551 0.973804
O O8 0.643846 0.830615 0.020403
O O9 0.500000 0.500000 0.500000
O O10 0.500000 0.537737 0.250000
O O11 0.155978 0.213557 0.250000
O O12 0.395937 0.955230 0.750000
O O13 0.500000 0.962874 0.896197
O O14 0.412815 0.908528 0.998031
O O15 0.396709 0.000000 0.000000
O O16 0.765638 0.961564 0.250000
O O17 0.708664 0.910771 0.454866
O O18 0.735387 0.000000 0.500000
O O19 0.629416 0.117411 0.750000
#
# Coordination Sequence:
#
# PCOD8257450 Si02
#       7
#    16  16   8  16  16  16  16
#     4  10  20  37  58  80 108 144 185 230 280 333
#     4  10  19  32  54  82 111 142 177 221 275 331
#     4  10  22  38  58  82 110 146 190 236 281 336
#     4   9  18  33  54  79 108 142 177 221 275 332
#     4  10  21  37  57  80 108 144 184 223 265 319
#     4  11  23  35  51  78 111 144 179 223 272 326
#     4  11  22  35  54  81 111 144 182 225 272 325
#
# _framework density 18.838812000000001
#
# number of rings (size 3 to 8) (size 9 to 14) (size 15 to 20)
#    0.000    1.846    1.538    2.769    0.000    7.077 
#    0.000    0.000    1.692    0.000    0.000    0.000 
#    0.000    0.000    0.000    0.000    0.000    0.000 
#
# Total GULP energy -644899.511920 kJ/mol
# GULP energy per Si atom -12401.913691 kJ/mol
# Density = 1.879593 g / cm^3
# Si number density = 18.838812 Si / 1000 Ang^3
#
#
#
# Elastic Constant Matrix: (Units=GPa)
#
#
# Indices 1 2 3 4 5 6 
#
# 1 39.3051 25.6558 24.7258 0.0000 0.0000 0.0000
# 2 25.6558 128.8037 63.1879 0.0000 0.0000 0.0000
# 3 24.7258 63.1879 125.2620 0.0000 0.0000 0.0000
# 4 0.0000 0.0000 0.0000 38.7176 0.0000 0.0000
# 5 0.0000 0.0000 0.0000 0.0000 22.9725 0.0000
# 6 0.0000 0.0000 0.0000 0.0000 0.0000 29.3591
#
#
#
# Elastic Compliance Matrix: (Units=1/GPa)
#
#
# Indices 1 2 3 4 5 6 
#
# 1 0.030645 -0.004168 -0.003947 0.000000 0.000000 0.000000
# 2 -0.004168 0.010884 -0.004668 0.000000 0.000000 0.000000
# 3 -0.003947 -0.004668 0.011117 0.000000 0.000000 0.000000
# 4 0.000000 0.000000 0.000000 0.025828 0.000000 0.000000
# 5 0.000000 0.000000 0.000000 0.000000 0.043530 0.000000
# 6 0.000000 0.000000 0.000000 0.000000 0.000000 0.034061
#
#
# Mechanical properties :
#
#
# Convention : Reuss Voigt Hill
#
# Bulk Modulus (GPa) = 36.92546 57.83442 47.37994
# Shear Modulus (GPa) = 26.22518 30.19662 28.21090
#
# Velocity S-wave (km/s) = 3.73511 4.00796 3.87394
# Velocity P-wave (km/s) = 6.18423 7.22389 6.72418
#
# Compressibility (1/GPa) = 0.02708158
#
# Stress axis : x y z
#
# Youngs Moduli (GPa) = 32.63144 91.88032 89.95381
#
# Poissons Ratio (x) = 0.38295 0.35501
# Poissons Ratio (y) = 0.13601 0.41986
# Poissons Ratio (z) = 0.12878 0.42885
#
# Static dielectric constant tensor:
#      x y z
#    x 3.220560 0.000000 0.000000 
#    y 0.000000 3.523180 0.000000 
#    z 0.000000 0.000000 3.648120 
# 
# 
# High freq. dielectric constant tensor:
#      x y z
#    x 1.704350 0.000000 0.000000 
#    y 0.000000 1.738350 0.000000 
#    z 0.000000 0.000000 1.743120 
# 
# From -- ./inp_files/10821.got.cif
#   From: 2010.03.12/outbox.cif.g09.slc.cpg/sg63_6_cif.got.tgz:10821.got - 2010.04.10 19:34:48.
