data_PCOD8257218
_publ_section_title
;
Structure prediction by ZEFSAII (Michael W. Deem and Ramdas Pophale) SiO2 
 PCOD8257218
Probable space group: C M C M
;
_chemical_formula_sum "Si O2"
_cell_formula_units_Z 128
_cell_length_a 17.514866
_cell_length_b 23.190894
_cell_length_c 17.650649
_cell_angle_alpha 90.000000
_cell_angle_beta 90.000000
_cell_angle_gamma 90.000000
_cell_volume 7169.435939
_symmetry_space_group_name_H-M "C M C M"
_symmetry_group_IT_number 63
_symmetry_cell_setting 'orthorhombic'
loop_
_space_group_symop_operation_xyz
x,y,z
-x,-y,1/2+z
x,-y,-z
-x,y,1/2-z
-x,-y,-z
x,y,1/2-z
-x,y,z
x,-y,1/2+z
1/2+x,1/2+y,z
1/2-x,1/2-y,1/2+z
1/2+x,1/2-y,-z
1/2-x,1/2+y,1/2-z
1/2-x,1/2-y,-z
1/2+x,1/2+y,1/2-z
1/2-x,1/2+y,z
1/2+x,1/2-y,1/2+z
loop_
_atom_site_type_symbol
_atom_site_label
_atom_site_fract_x
_atom_site_fract_y
_atom_site_fract_z
Si Si1 0.661854 0.627015 0.045271
Si Si2 0.341651 0.130828 0.469229
Si Si3 0.583721 0.042915 0.569329
Si Si4 0.662699 0.257529 0.023755
Si Si5 0.910192 0.949497 0.663354
Si Si6 0.909248 0.559516 0.335076
Si Si7 0.412280 0.689204 0.663424
Si Si8 0.412243 0.430733 0.407462
O O1 0.752243 0.631292 0.044610
O O2 0.632366 0.604737 0.125666
O O3 0.626900 0.691071 0.028057
O O4 0.635763 0.580969 0.982779
O O5 0.359908 0.094072 0.544741
O O6 0.375345 0.194739 0.486308
O O7 0.379106 0.107879 0.392122
O O8 0.500000 0.068646 0.589589
O O9 0.574099 0.000000 0.500000
O O10 0.617330 0.005027 0.639090
O O11 0.648184 0.276557 0.111060
O O12 0.750000 0.250000 0.000000
O O13 0.885614 0.948731 0.750000
O O14 0.000000 0.941802 0.652683
O O15 0.881944 0.010091 0.628798
O O16 0.878708 0.571179 0.250000
O O17 0.000000 0.561920 0.338112
O O18 0.393383 0.705057 0.750000
O O19 0.500000 0.706452 0.643234
O O20 0.401735 0.620565 0.652996
O O21 0.500000 0.437062 0.432170
#
# Coordination Sequence:
#
# PCOD8257218 Si02
#       8
#    16  16  16  16  16  16  16  16
#     4  10  20  33  49  69  95 128 166 206 240 277
#     4  10  19  32  50  69  93 126 163 197 230 277
#     4   8  15  29  48  69  94 123 150 180 227 283
#     4   9  20  36  49  66  98 137 169 197 239 295
#     4  10  20  33  49  70  98 130 161 196 241 290
#     4   9  18  32  50  74 102 124 144 183 242 298
#     4   9  17  30  51  79 104 124 156 208 260 297
#     4   9  17  31  51  73  98 128 159 193 243 302
#
# _framework density 17.853567000000002
#
# number of rings (size 3 to 8) (size 9 to 14) (size 15 to 20)
#    0.000    2.750    0.000    2.250    0.000    8.000 
#    0.000    3.125    0.000    7.500    0.000    1.750 
#    0.000    0.000    0.000    0.000    0.000    0.000 
#
# Total GULP energy -793140.283690 kJ/mol
# GULP energy per Si atom -12392.816933 kJ/mol
# Density = 1.781293 g / cm^3
# Si number density = 17.853567 Si / 1000 Ang^3
#
#
#
# Elastic Constant Matrix: (Units=GPa)
#
#
# Indices 1 2 3 4 5 6 
#
# 1 39.9846 34.9210 39.4279 0.0000 0.0000 0.0000
# 2 34.9210 144.4372 65.8938 0.0000 0.0000 0.0000
# 3 39.4279 65.8938 100.5197 0.0000 0.0000 0.0000
# 4 0.0000 0.0000 0.0000 20.8436 0.0000 0.0000
# 5 0.0000 0.0000 0.0000 0.0000 15.3892 0.0000
# 6 0.0000 0.0000 0.0000 0.0000 0.0000 50.2165
#
#
#
# Elastic Compliance Matrix: (Units=1/GPa)
#
#
# Indices 1 2 3 4 5 6 
#
# 1 0.042184 -0.003781 -0.014067 0.000000 0.000000 0.000000
# 2 -0.003781 0.010216 -0.005214 0.000000 0.000000 0.000000
# 3 -0.014067 -0.005214 0.018884 0.000000 0.000000 0.000000
# 4 0.000000 0.000000 0.000000 0.047976 0.000000 0.000000
# 5 0.000000 0.000000 0.000000 0.000000 0.064981 0.000000
# 6 0.000000 0.000000 0.000000 0.000000 0.000000 0.019914
#
#
# Mechanical properties :
#
#
# Convention : Reuss Voigt Hill
#
# Bulk Modulus (GPa) = 39.74758 62.82522 51.28640
# Shear Modulus (GPa) = 19.32995 26.93644 23.13319
#
# Velocity S-wave (km/s) = 3.29400 3.88847 3.60351
# Velocity P-wave (km/s) = 6.06454 7.44485 6.78986
#
# Compressibility (1/GPa) = 0.02515876
#
# Stress axis : x y z
#
# Youngs Moduli (GPa) = 23.70592 97.88304 52.95469
#
# Poissons Ratio (x) = 0.37011 0.74494
# Poissons Ratio (y) = 0.08963 0.27611
# Poissons Ratio (z) = 0.33348 0.51036
#
# Static dielectric constant tensor:
#      x y z
#    x 3.126590 0.000000 0.000000 
#    y 0.000000 3.683510 0.000000 
#    z 0.000000 0.000000 3.427220 
# 
# 
# High freq. dielectric constant tensor:
#      x y z
#    x 1.672110 0.000000 0.000000 
#    y 0.000000 1.692960 0.000000 
#    z 0.000000 0.000000 1.680410 
# 
# From -- ./inp_files/46346.got.cif
#   From: 2010.03.12/outbox.cif.g09.slc.cpg/sg63_24_cif.got.tgz:46346.got - 2010.04.10 19:34:48.
