data_PCOD8257347
_publ_section_title
;
Structure prediction by ZEFSAII (Michael W. Deem and Ramdas Pophale) SiO2 
 PCOD8257347
Probable space group: C M C M
;
_chemical_formula_sum "Si O2"
_cell_formula_units_Z 96
_cell_length_a 9.238694
_cell_length_b 29.795396
_cell_length_c 18.799664
_cell_angle_alpha 90.000000
_cell_angle_beta 90.000000
_cell_angle_gamma 90.000000
_cell_volume 5174.993779
_symmetry_space_group_name_H-M "C M C M"
_symmetry_group_IT_number 63
_symmetry_cell_setting 'orthorhombic'
loop_
_space_group_symop_operation_xyz
x,y,z
-x,-y,1/2+z
x,-y,-z
-x,y,1/2-z
-x,-y,-z
x,y,1/2-z
-x,y,z
x,-y,1/2+z
1/2+x,1/2+y,z
1/2-x,1/2-y,1/2+z
1/2+x,1/2-y,-z
1/2-x,1/2+y,1/2-z
1/2-x,1/2-y,-z
1/2+x,1/2+y,1/2-z
1/2-x,1/2+y,z
1/2+x,1/2-y,1/2+z
loop_
_atom_site_type_symbol
_atom_site_label
_atom_site_fract_x
_atom_site_fract_y
_atom_site_fract_z
Si Si1 0.665832 0.386046 0.669183
Si Si2 0.170910 0.934331 0.056596
Si Si3 0.329708 0.814055 0.583321
Si Si4 0.667679 0.528980 0.407322
Si Si5 0.168259 0.737568 0.831758
Si Si6 0.333241 0.844341 0.428642
O O1 0.690416 0.371875 0.750000
O O2 0.500000 0.376100 0.645679
O O3 0.776645 0.358981 0.621484
O O4 0.699093 0.439392 0.660538
O O5 0.245361 0.889622 0.085578
O O6 0.000000 0.925883 0.061815
O O7 0.226030 0.977993 0.102506
O O8 0.226430 0.944583 0.976594
O O9 0.500000 0.808880 0.593708
O O10 0.254680 0.771526 0.618732
O O11 0.285453 0.818124 0.500493
O O12 0.500000 0.521955 0.422549
O O13 0.221918 0.739934 0.750000
O O14 0.195504 0.687671 0.861284
O O15 0.000000 0.750660 0.836721
O O16 0.500000 0.857873 0.435334
#
# Coordination Sequence:
#
# PCOD8257347 Si02
#       6
#    16  16  16  16  16  16
#     4  10  19  32  52  76 105 142 179 213 255 312
#     4   9  16  30  54  77 101 134 172 214 254 296
#     4  11  22  35  53  79 108 134 166 217 268 309
#     4   8  15  29  49  75 103 133 172 212 250 295
#     4  10  22  40  58  74  99 138 178 213 254 312
#     4  10  21  36  54  80 107 133 171 216 261 308
#
# _framework density 18.550747000000001
#
# number of rings (size 3 to 8) (size 9 to 14) (size 15 to 20)
#    0.000    2.333    1.667    2.500    0.000    4.000 
#    0.000    3.333    0.000    1.000    0.000    0.000 
#    0.000    0.000    0.000    0.000    0.000    0.000 
#
# Total GULP energy -594937.494382 kJ/mol
# GULP energy per Si atom -12394.531133 kJ/mol
# Density = 1.850852 g / cm^3
# Si number density = 18.550747 Si / 1000 Ang^3
#
#
#
# Elastic Constant Matrix: (Units=GPa)
#
#
# Indices 1 2 3 4 5 6 
#
# 1 44.3910 41.1363 19.2513 0.0000 0.0000 0.0000
# 2 41.1363 121.2271 26.2046 0.0000 0.0000 0.0000
# 3 19.2513 26.2046 51.6783 0.0000 0.0000 0.0000
# 4 0.0000 0.0000 0.0000 19.1744 0.0000 0.0000
# 5 0.0000 0.0000 0.0000 0.0000 19.0813 0.0000
# 6 0.0000 0.0000 0.0000 0.0000 0.0000 31.9200
#
#
#
# Elastic Compliance Matrix: (Units=1/GPa)
#
#
# Indices 1 2 3 4 5 6 
#
# 1 0.035587 -0.010344 -0.008012 0.000000 0.000000 0.000000
# 2 -0.010344 0.012271 -0.002369 0.000000 0.000000 0.000000
# 3 -0.008012 -0.002369 0.023536 0.000000 0.000000 0.000000
# 4 0.000000 0.000000 0.000000 0.052153 0.000000 0.000000
# 5 0.000000 0.000000 0.000000 0.000000 0.052407 0.000000
# 6 0.000000 0.000000 0.000000 0.000000 0.000000 0.031328
#
#
# Mechanical properties :
#
#
# Convention : Reuss Voigt Hill
#
# Bulk Modulus (GPa) = 33.39461 43.38674 38.39068
# Shear Modulus (GPa) = 19.32632 22.74875 21.03754
#
# Velocity S-wave (km/s) = 3.23121 3.50565 3.37122
# Velocity P-wave (km/s) = 5.65347 6.31071 5.99111
#
# Compressibility (1/GPa) = 0.02994495
#
# Stress axis : x y z
#
# Youngs Moduli (GPa) = 28.09995 81.49213 42.48752
#
# Poissons Ratio (x) = 0.84296 0.34040
# Poissons Ratio (y) = 0.29067 0.10065
# Poissons Ratio (z) = 0.22513 0.19305
#
# Static dielectric constant tensor:
#      x y z
#    x 3.177330 0.000000 0.000000 
#    y 0.000000 3.521340 0.000000 
#    z 0.000000 0.000000 3.344430 
# 
# 
# High freq. dielectric constant tensor:
#      x y z
#    x 1.693760 0.000000 0.000000 
#    y 0.000000 1.734470 0.000000 
#    z 0.000000 0.000000 1.704100 
# 
# From -- ./inp_files/51290.got.cif
#   From: 2010.03.12/outbox.cif.g09.slc.cpg/sg63_26_cif.got.tgz:51290.got - 2010.04.10 19:34:48.
