data_PCOD8257592
_publ_section_title
;
Structure prediction by ZEFSAII (Michael W. Deem and Ramdas Pophale) SiO2 
 PCOD8257592
Probable space group: C M C M
;
_chemical_formula_sum "Si O2"
_cell_formula_units_Z 120
_cell_length_a 27.642292
_cell_length_b 27.615971
_cell_length_c 8.887234
_cell_angle_alpha 90.000000
_cell_angle_beta 90.000000
_cell_angle_gamma 90.000000
_cell_volume 6784.236570
_symmetry_space_group_name_H-M "C M C M"
_symmetry_group_IT_number 63
_symmetry_cell_setting 'orthorhombic'
loop_
_space_group_symop_operation_xyz
x,y,z
-x,-y,1/2+z
x,-y,-z
-x,y,1/2-z
-x,-y,-z
x,y,1/2-z
-x,y,z
x,-y,1/2+z
1/2+x,1/2+y,z
1/2-x,1/2-y,1/2+z
1/2+x,1/2-y,-z
1/2-x,1/2+y,1/2-z
1/2-x,1/2-y,-z
1/2+x,1/2+y,1/2-z
1/2-x,1/2+y,z
1/2+x,1/2-y,1/2+z
loop_
_atom_site_type_symbol
_atom_site_label
_atom_site_fract_x
_atom_site_fract_y
_atom_site_fract_z
Si Si1 0.332674 0.950031 0.926164
Si Si2 0.000000 0.551633 0.573590
Si Si3 0.056231 0.286617 0.926519
Si Si4 0.779664 0.709491 0.922063
Si Si5 0.866080 0.770050 0.927198
Si Si6 0.803244 0.145151 0.572544
Si Si7 0.219769 0.950499 0.574369
Si Si8 0.909503 0.615237 0.571550
O O1 0.344176 0.952132 0.750000
O O2 0.276279 0.943090 0.959957
O O3 0.359909 0.904574 0.000432
O O4 0.351486 0.000000 0.000000
O O5 0.000000 0.500000 0.500000
O O6 0.952723 0.580212 0.520072
O O7 0.000000 0.544871 0.750000
O O8 0.065415 0.291664 0.750000
O O9 0.000000 0.281388 0.965328
O O10 0.082693 0.238524 0.990934
O O11 0.078572 0.332191 0.010744
O O12 0.770927 0.719821 0.750000
O O13 0.836044 0.719352 0.959663
O O14 0.753689 0.658648 0.963520
O O15 0.750000 0.750000 0.000000
O O16 0.873262 0.778993 0.750000
O O17 0.839845 0.816648 0.997690
O O18 0.813635 0.143040 0.750000
O O19 0.811170 0.092748 0.499514
O O20 0.208760 0.952245 0.750000
O O21 0.201220 0.000000 0.500000
O O22 0.903172 0.618221 0.750000
#
# Coordination Sequence:
#
# PCOD8257592 Si02
#       8
#    16   8  16  16  16  16  16  16
#     4  10  21  36  52  74 100 133 176 220 266 316
#     4  10  22  36  52  72  92 120 162 218 277 328
#     4  11  24  40  56  76 103 136 175 221 273 329
#     4   8  16  29  46  72 101 132 166 205 251 299
#     4  10  20  35  55  79 105 137 176 218 265 318
#     4  10  19  33  53  78 109 142 176 215 260 313
#     4  10  21  36  53  76 107 143 179 217 259 309
#     4  11  22  37  54  72  96 129 171 219 273 328
#
# _framework density 17.688063
#
# number of rings (size 3 to 8) (size 9 to 14) (size 15 to 20)
#    0.000    2.000    0.667    2.800    1.867    5.600 
#    0.000    0.000    0.000    0.000    0.000    0.000 
#    0.000    0.533    0.000    2.000    0.000    3.067 
#
# Total GULP energy -743693.656089 kJ/mol
# GULP energy per Si atom -12394.894268 kJ/mol
# Density = 1.764780 g / cm^3
# Si number density = 17.688063 Si / 1000 Ang^3
#
#
#
# Elastic Constant Matrix: (Units=GPa)
#
#
# Indices 1 2 3 4 5 6 
#
# 1 62.8919 48.3108 38.5267 0.0000 0.0000 0.0000
# 2 48.3108 109.8429 52.1706 0.0000 0.0000 0.0000
# 3 38.5267 52.1706 83.3918 0.0000 0.0000 0.0000
# 4 0.0000 0.0000 0.0000 32.6893 0.0000 0.0000
# 5 0.0000 0.0000 0.0000 0.0000 24.1252 0.0000
# 6 0.0000 0.0000 0.0000 0.0000 0.0000 19.0381
#
#
#
# Elastic Compliance Matrix: (Units=1/GPa)
#
#
# Indices 1 2 3 4 5 6 
#
# 1 0.026665 -0.008361 -0.007088 0.000000 0.000000 0.000000
# 2 -0.008361 0.015574 -0.005881 0.000000 0.000000 0.000000
# 3 -0.007088 -0.005881 0.018945 0.000000 0.000000 0.000000
# 4 0.000000 0.000000 0.000000 0.030591 0.000000 0.000000
# 5 0.000000 0.000000 0.000000 0.000000 0.041450 0.000000
# 6 0.000000 0.000000 0.000000 0.000000 0.000000 0.052526
#
#
# Mechanical properties :
#
#
# Convention : Reuss Voigt Hill
#
# Bulk Modulus (GPa) = 53.98237 59.34918 56.66578
# Shear Modulus (GPa) = 21.31397 22.97842 22.14620
#
# Velocity S-wave (km/s) = 3.47507 3.60820 3.54226
# Velocity P-wave (km/s) = 6.83277 7.14037 6.98827
#
# Compressibility (1/GPa) = 0.01852457
#
# Stress axis : x y z
#
# Youngs Moduli (GPa) = 37.50199 64.20829 52.78333
#
# Poissons Ratio (x) = 0.53685 0.37415
# Poissons Ratio (y) = 0.31356 0.31040
# Poissons Ratio (z) = 0.26583 0.37758
#
# Static dielectric constant tensor:
#      x y z
#    x 3.277440 0.000000 0.000000 
#    y 0.000000 3.195500 0.000000 
#    z 0.000000 0.000000 3.335000 
# 
# 
# High freq. dielectric constant tensor:
#      x y z
#    x 1.656320 0.000000 0.000000 
#    y 0.000000 1.675190 0.000000 
#    z 0.000000 0.000000 1.700450 
# 
# From -- ./inp_files/13153.got.cif
#   From: 2010.03.12/outbox.cif.g09.slc.cpg/sg63_7_cif.got.tgz:13153.got - 2010.04.10 19:34:48.
