data_PCOD8257032
_publ_section_title
;
Structure prediction by ZEFSAII (Michael W. Deem and Ramdas Pophale) SiO2 
 PCOD8257032
Probable space group: C M C M
;
_chemical_formula_sum "Si O2"
_cell_formula_units_Z 80
_cell_length_a 18.432157
_cell_length_b 26.625193
_cell_length_c 8.955111
_cell_angle_alpha 90.000000
_cell_angle_beta 90.000000
_cell_angle_gamma 90.000000
_cell_volume 4394.807924
_symmetry_space_group_name_H-M "C M C M"
_symmetry_group_IT_number 63
_symmetry_cell_setting 'orthorhombic'
loop_
_space_group_symop_operation_xyz
x,y,z
-x,-y,1/2+z
x,-y,-z
-x,y,1/2-z
-x,-y,-z
x,y,1/2-z
-x,y,z
x,-y,1/2+z
1/2+x,1/2+y,z
1/2-x,1/2-y,1/2+z
1/2+x,1/2-y,-z
1/2-x,1/2+y,1/2-z
1/2-x,1/2-y,-z
1/2+x,1/2+y,1/2-z
1/2-x,1/2+y,z
1/2+x,1/2-y,1/2+z
loop_
_atom_site_type_symbol
_atom_site_label
_atom_site_fract_x
_atom_site_fract_y
_atom_site_fract_z
Si Si1 0.417358 0.653280 0.575299
Si Si2 0.789002 0.599516 0.423689
Si Si3 0.842985 0.050407 0.925807
Si Si4 0.582998 0.052797 0.576395
Si Si5 0.712275 0.703470 0.422718
O O1 0.406202 0.662310 0.750000
O O2 0.500000 0.662606 0.525864
O O3 0.396409 0.596201 0.533007
O O4 0.367260 0.693212 0.490073
O O5 0.791358 0.585735 0.250000
O O6 0.736088 0.560545 0.505772
O O7 0.868305 0.594996 0.496886
O O8 0.763584 0.656045 0.451297
O O9 0.835932 0.042717 0.750000
O O10 0.875430 0.000000 0.000000
O O11 0.602461 0.048698 0.750000
O O12 0.500000 0.068949 0.551529
O O13 0.600026 0.000000 0.500000
O O14 0.702228 0.715663 0.250000
O O15 0.750000 0.750000 0.500000
#
# Coordination Sequence:
#
# PCOD8257032 Si02
#       5
#    16  16  16  16  16
#     4   9  19  36  56  78 106 139 173 211 256 303
#     4  10  20  34  52  74 100 131 170 213 255 302
#     4  10  19  31  49  74 105 140 175 210 249 296
#     4  10  20  33  50  73 102 136 171 208 253 303
#     4  10  21  37  58  81 103 132 170 213 261 309
#
# _framework density 18.203298
#
# number of rings (size 3 to 8) (size 9 to 14) (size 15 to 20)
#    0.000    2.200    0.000    3.000    0.000    5.200 
#    0.000    1.000    0.000    1.200    0.000    0.000 
#    0.000    0.000    0.000    0.000    0.000    0.000 
#
# Total GULP energy -496151.107031 kJ/mol
# GULP energy per Si atom -12403.777676 kJ/mol
# Density = 1.816187 g / cm^3
# Si number density = 18.203298 Si / 1000 Ang^3
#
#
#
# Elastic Constant Matrix: (Units=GPa)
#
#
# Indices 1 2 3 4 5 6 
#
# 1 138.9938 62.8047 71.5596 0.0000 0.0000 0.0000
# 2 62.8047 95.9362 60.4293 0.0000 0.0000 0.0000
# 3 71.5596 60.4293 114.1742 0.0000 0.0000 0.0000
# 4 0.0000 0.0000 0.0000 34.5779 0.0000 0.0000
# 5 0.0000 0.0000 0.0000 0.0000 31.8623 0.0000
# 6 0.0000 0.0000 0.0000 0.0000 0.0000 -3.4338
#
#
#
# Elastic Compliance Matrix: (Units=1/GPa)
#
#
# Indices 1 2 3 4 5 6 
#
# 1 0.011845 -0.004617 -0.004980 0.000000 0.000000 0.000000
# 2 -0.004617 0.017437 -0.006335 0.000000 0.000000 0.000000
# 3 -0.004980 -0.006335 0.015233 0.000000 0.000000 0.000000
# 4 0.000000 0.000000 0.000000 0.028920 0.000000 0.000000
# 5 0.000000 0.000000 0.000000 0.000000 0.031385 0.000000
# 6 0.000000 0.000000 0.000000 0.000000 0.000000 -0.291220
#
#
# Mechanical properties :
#
#
# Convention : Reuss Voigt Hill
#
# Bulk Modulus (GPa) = 79.05262 82.07682 80.56472
# Shear Modulus (GPa) = -33.26230 22.88865 -5.18683
#
# Velocity S-wave (km/s) = -4.27929 3.54982 -1.68984
# Velocity P-wave (km/s) = 4.37098 7.87328 6.36765
#
# Compressibility (1/GPa) = 0.01264980
#
# Stress axis : x y z
#
# Youngs Moduli (GPa) = 84.42492 57.35080 65.64876
#
# Poissons Ratio (x) = 0.26481 0.32693
# Poissons Ratio (y) = 0.38982 0.41587
# Poissons Ratio (z) = 0.42044 0.36330
#
# Static dielectric constant tensor:
#      x y z
#    x 3.397590 0.000000 0.000000 
#    y 0.000000 3.207020 0.000000 
#    z 0.000000 0.000000 3.472370 
# 
# 
# High freq. dielectric constant tensor:
#      x y z
#    x 1.704970 0.000000 0.000000 
#    y 0.000000 1.690390 0.000000 
#    z 0.000000 0.000000 1.720410 
# 
# From -- ./inp_files/6363.got.cif
#   From: 2010.03.12/outbox.cif.g09.slc.cpg/sg63_4_cif.got.tgz:6363.got - 2010.04.10 19:34:48.
