data_PCOD8257979
_publ_section_title
;
Structure prediction by ZEFSAII (Michael W. Deem and Ramdas Pophale) SiO2 
 PCOD8257979
Probable space group: C M C M
;
_chemical_formula_sum "Si O2"
_cell_formula_units_Z 96
_cell_length_a 19.526518
_cell_length_b 28.977025
_cell_length_c 9.010231
_cell_angle_alpha 90.000000
_cell_angle_beta 90.000000
_cell_angle_gamma 90.000000
_cell_volume 5098.172511
_symmetry_space_group_name_H-M "C M C M"
_symmetry_group_IT_number 63
_symmetry_cell_setting 'orthorhombic'
loop_
_space_group_symop_operation_xyz
x,y,z
-x,-y,1/2+z
x,-y,-z
-x,y,1/2-z
-x,-y,-z
x,y,1/2-z
-x,y,z
x,-y,1/2+z
1/2+x,1/2+y,z
1/2-x,1/2-y,1/2+z
1/2+x,1/2-y,-z
1/2-x,1/2+y,1/2-z
1/2-x,1/2-y,-z
1/2+x,1/2+y,1/2-z
1/2-x,1/2+y,z
1/2+x,1/2-y,1/2+z
loop_
_atom_site_type_symbol
_atom_site_label
_atom_site_fract_x
_atom_site_fract_y
_atom_site_fract_z
Si Si1 0.350686 0.276715 0.912057
Si Si2 0.919421 0.870594 0.923867
Si Si3 0.303768 0.197930 0.087837
Si Si4 0.334302 0.450565 0.071832
Si Si5 0.424840 0.954203 0.578844
Si Si6 0.791258 0.597271 0.424701
O O1 0.384450 0.269515 0.750000
O O2 0.383950 0.323074 0.982074
O O3 0.269275 0.278155 0.896542
O O4 0.361105 0.230340 0.009017
O O5 0.901933 0.877861 0.750000
O O6 0.000000 0.867306 0.952564
O O7 0.890036 0.913346 0.016784
O O8 0.335209 0.187931 0.250000
O O9 0.288514 0.148979 0.009408
O O10 0.336164 0.454293 0.250000
O O11 0.352708 0.500000 0.000000
O O12 0.259273 0.435230 0.017489
O O13 0.427955 0.966392 0.750000
O O14 0.500000 0.938125 0.521464
O O15 0.369562 0.915486 0.544780
O O16 0.399362 0.000000 0.500000
O O17 0.770751 0.594449 0.250000
#
# Coordination Sequence:
#
# PCOD8257979 Si02
#       6
#    16  16  16  16  16  16
#     4   9  17  32  53  79 108 138 176 217 262 320
#     4  10  21  40  63  83 110 149 189 233 287 340
#     4   9  17  30  52  79 109 140 173 218 267 314
#     4  12  25  39  58  83 113 145 187 237 286 338
#     4   9  18  32  51  74 102 139 179 219 266 321
#     4  10  19  35  56  80 112 146 185 231 277 326
#
# _framework density 18.830276999999999
#
# number of rings (size 3 to 8) (size 9 to 14) (size 15 to 20)
#    0.000    2.167    1.667    2.000    0.000    4.000 
#    0.000    0.833    0.000    1.000    0.000    0.000 
#    0.000    0.000    0.000    0.000    0.000    0.000 
#
# Total GULP energy -594827.634453 kJ/mol
# GULP energy per Si atom -12392.242384 kJ/mol
# Density = 1.878742 g / cm^3
# Si number density = 18.830277 Si / 1000 Ang^3
#
#
#
# Elastic Constant Matrix: (Units=GPa)
#
#
# Indices 1 2 3 4 5 6 
#
# 1 76.1883 38.8393 33.6330 0.0000 0.0000 0.0000
# 2 38.8393 100.9318 45.4461 0.0000 0.0000 0.0000
# 3 33.6330 45.4461 78.2853 0.0000 0.0000 0.0000
# 4 0.0000 0.0000 0.0000 32.8212 0.0000 0.0000
# 5 0.0000 0.0000 0.0000 0.0000 21.1877 0.0000
# 6 0.0000 0.0000 0.0000 0.0000 0.0000 14.6616
#
#
#
# Elastic Compliance Matrix: (Units=1/GPa)
#
#
# Indices 1 2 3 4 5 6 
#
# 1 0.017626 -0.004567 -0.004921 0.000000 0.000000 0.000000
# 2 -0.004567 0.014597 -0.006512 0.000000 0.000000 0.000000
# 3 -0.004921 -0.006512 0.018668 0.000000 0.000000 0.000000
# 4 0.000000 0.000000 0.000000 0.030468 0.000000 0.000000
# 5 0.000000 0.000000 0.000000 0.000000 0.047197 0.000000
# 6 0.000000 0.000000 0.000000 0.000000 0.000000 0.068205
#
#
# Mechanical properties :
#
#
# Convention : Reuss Voigt Hill
#
# Bulk Modulus (GPa) = 52.93419 54.58247 53.75833
# Shear Modulus (GPa) = 21.27124 22.89990 22.08557
#
# Velocity S-wave (km/s) = 3.36464 3.49108 3.42844
# Velocity P-wave (km/s) = 6.57774 6.73050 6.65456
#
# Compressibility (1/GPa) = 0.01889138
#
# Stress axis : x y z
#
# Youngs Moduli (GPa) = 56.73470 68.50691 53.56630
#
# Poissons Ratio (x) = 0.31285 0.26362
# Poissons Ratio (y) = 0.25909 0.34882
# Poissons Ratio (z) = 0.27922 0.44611
#
# Static dielectric constant tensor:
#      x y z
#    x 3.396080 0.000000 0.000000 
#    y 0.000000 3.390840 0.000000 
#    z 0.000000 0.000000 3.610610 
# 
# 
# High freq. dielectric constant tensor:
#      x y z
#    x 1.714750 0.000000 0.000000 
#    y 0.000000 1.738320 0.000000 
#    z 0.000000 0.000000 1.718300 
# 
# From -- ./inp_files/8665.got.cif
#   From: 2010.03.12/outbox.cif.g09.slc.cpg/sg63_5_cif.got.tgz:8665.got - 2010.04.10 19:34:48.
