data_PCOD8257621
_publ_section_title
;
Structure prediction by ZEFSAII (Michael W. Deem and Ramdas Pophale) SiO2 
 PCOD8257621
Probable space group: C M C M
;
_chemical_formula_sum "Si O2"
_cell_formula_units_Z 96
_cell_length_a 8.990413
_cell_length_b 25.035829
_cell_length_c 23.619555
_cell_angle_alpha 90.000000
_cell_angle_beta 90.000000
_cell_angle_gamma 90.000000
_cell_volume 5316.347130
_symmetry_space_group_name_H-M "C M C M"
_symmetry_group_IT_number 63
_symmetry_cell_setting 'orthorhombic'
loop_
_space_group_symop_operation_xyz
x,y,z
-x,-y,1/2+z
x,-y,-z
-x,y,1/2-z
-x,-y,-z
x,y,1/2-z
-x,y,z
x,-y,1/2+z
1/2+x,1/2+y,z
1/2-x,1/2-y,1/2+z
1/2+x,1/2-y,-z
1/2-x,1/2+y,1/2-z
1/2-x,1/2-y,-z
1/2+x,1/2+y,1/2-z
1/2-x,1/2+y,z
1/2+x,1/2-y,1/2+z
loop_
_atom_site_type_symbol
_atom_site_label
_atom_site_fract_x
_atom_site_fract_y
_atom_site_fract_z
Si Si1 0.172782 0.812343 0.053593
Si Si2 0.674541 0.395309 0.868069
Si Si3 0.176679 0.003193 0.062924
Si Si4 0.675106 0.595298 0.638090
Si Si5 0.176619 0.560835 0.750000
Si Si6 0.174160 0.690267 0.061436
Si Si7 0.173795 0.945722 0.750000
O O1 0.214375 0.849597 0.106468
O O2 0.216551 0.752189 0.070346
O O3 0.000000 0.817795 0.038220
O O4 0.260342 0.831216 0.997792
O O5 0.500000 0.386353 0.875271
O O6 0.733571 0.442741 0.908125
O O7 0.757120 0.341207 0.885569
O O8 0.716179 0.409999 0.803899
O O9 0.232702 0.953041 0.099045
O O10 0.000000 0.002361 0.060478
O O11 0.244744 0.000000 0.000000
O O12 0.500000 0.590249 0.651038
O O13 0.765350 0.593675 0.696118
O O14 0.236457 0.500574 0.750000
O O15 0.000000 0.559489 0.750000
O O16 0.000000 0.680947 0.060542
O O17 0.000000 0.961457 0.750000
#
# Coordination Sequence:
#
# PCOD8257621 Si02
#       7
#    16  16  16  16   8  16   8
#     4   9  19  36  59  82 105 143 188 223 261 318
#     4  10  19  33  54  78 105 140 187 226 261 317
#     4   9  16  27  50  81 104 127 170 225 266 303
#     4  10  19  36  59  78 103 142 190 228 258 313
#     4  12  24  36  53  80 115 145 174 220 284 333
#     4  10  20  34  54  83 116 144 173 218 279 329
#     4  10  20  38  59  76  99 145 198 228 256 313
#
# _framework density 18.057510000000001
#
# number of rings (size 3 to 8) (size 9 to 14) (size 15 to 20)
#    0.000    2.167    1.667    2.250    0.000    4.667 
#    0.000    0.833    0.000    5.000    0.000    0.000 
#    0.000    0.000    0.000    0.000    0.000    0.000 
#
# Total GULP energy -595327.402330 kJ/mol
# GULP energy per Si atom -12402.654215 kJ/mol
# Density = 1.801641 g / cm^3
# Si number density = 18.057510 Si / 1000 Ang^3
#
#
#
# Elastic Constant Matrix: (Units=GPa)
#
#
# Indices 1 2 3 4 5 6 
#
# 1 62.1450 41.2691 50.7542 0.0000 0.0000 0.0000
# 2 41.2691 104.4515 69.0337 0.0000 0.0000 0.0000
# 3 50.7542 69.0337 158.1497 0.0000 0.0000 0.0000
# 4 0.0000 0.0000 0.0000 29.1162 0.0000 0.0000
# 5 0.0000 0.0000 0.0000 0.0000 22.2963 0.0000
# 6 0.0000 0.0000 0.0000 0.0000 0.0000 26.2107
#
#
#
# Elastic Compliance Matrix: (Units=1/GPa)
#
#
# Indices 1 2 3 4 5 6 
#
# 1 0.024426 -0.006282 -0.005097 0.000000 0.000000 0.000000
# 2 -0.006282 0.015072 -0.004563 0.000000 0.000000 0.000000
# 3 -0.005097 -0.004563 0.009950 0.000000 0.000000 0.000000
# 4 0.000000 0.000000 0.000000 0.034345 0.000000 0.000000
# 5 0.000000 0.000000 0.000000 0.000000 0.044851 0.000000
# 6 0.000000 0.000000 0.000000 0.000000 0.000000 0.038152
#
#
# Mechanical properties :
#
#
# Convention : Reuss Voigt Hill
#
# Bulk Modulus (GPa) = 56.93284 71.87335 64.40310
# Shear Modulus (GPa) = 24.44587 26.43726 25.44157
#
# Velocity S-wave (km/s) = 3.68336 3.83045 3.75763
# Velocity P-wave (km/s) = 7.04887 7.71052 7.38711
#
# Compressibility (1/GPa) = 0.01756455
#
# Stress axis : x y z
#
# Youngs Moduli (GPa) = 40.94053 66.35028 100.49844
#
# Poissons Ratio (x) = 0.41683 0.51220
# Poissons Ratio (y) = 0.25720 0.45855
# Poissons Ratio (z) = 0.20866 0.30274
#
# Static dielectric constant tensor:
#      x y z
#    x 3.079560 0.000000 0.000000 
#    y 0.000000 3.382930 0.000000 
#    z 0.000000 0.000000 3.468980 
# 
# 
# High freq. dielectric constant tensor:
#      x y z
#    x 1.675330 0.000000 0.000000 
#    y 0.000000 1.700220 0.000000 
#    z 0.000000 0.000000 1.704370 
# 
# From -- ./inp_files/59985.got.cif
#   From: 2010.03.12/outbox.cif.g09.slc.cpg/sg63_30_cif.got.tgz:59985.got - 2010.04.10 19:34:48.
