data_PCOD8257052
_publ_section_title
;
Structure prediction by ZEFSAII (Michael W. Deem and Ramdas Pophale) SiO2 
 PCOD8257052
Probable space group: C M C M
;
_chemical_formula_sum "Si O2"
_cell_formula_units_Z 96
_cell_length_a 8.890156
_cell_length_b 19.128328
_cell_length_c 31.397489
_cell_angle_alpha 90.000000
_cell_angle_beta 90.000000
_cell_angle_gamma 90.000000
_cell_volume 5339.262941
_symmetry_space_group_name_H-M "C M C M"
_symmetry_group_IT_number 63
_symmetry_cell_setting 'orthorhombic'
loop_
_space_group_symop_operation_xyz
x,y,z
-x,-y,1/2+z
x,-y,-z
-x,y,1/2-z
-x,-y,-z
x,y,1/2-z
-x,y,z
x,-y,1/2+z
1/2+x,1/2+y,z
1/2-x,1/2-y,1/2+z
1/2+x,1/2-y,-z
1/2-x,1/2+y,1/2-z
1/2-x,1/2-y,-z
1/2+x,1/2+y,1/2-z
1/2-x,1/2+y,z
1/2+x,1/2-y,1/2+z
loop_
_atom_site_type_symbol
_atom_site_label
_atom_site_fract_x
_atom_site_fract_y
_atom_site_fract_z
Si Si1 0.322840 0.920789 0.164714
Si Si2 0.329390 0.583817 0.250000
Si Si3 0.168774 0.082350 0.750000
Si Si4 0.176710 0.675012 0.495952
Si Si5 0.675938 0.172943 0.588966
Si Si6 0.821328 0.167920 0.088062
Si Si7 0.677400 0.082418 0.336208
O O1 0.500000 0.911920 0.168956
O O2 0.251358 0.889775 0.207813
O O3 0.253548 0.876990 0.125151
O O4 0.279874 0.001392 0.157653
O O5 0.500000 0.612528 0.250000
O O6 0.326646 0.500765 0.250000
O O7 0.242503 0.611466 0.291657
O O8 0.000000 0.111466 0.750000
O O9 0.250000 0.750000 0.500000
O O10 0.207508 0.638996 0.542114
O O11 0.256110 0.635650 0.456370
O O12 0.000000 0.681241 0.486941
O O13 0.500000 0.177027 0.597015
O O14 0.737896 0.252198 0.592723
O O15 0.756753 0.123833 0.126437
O O16 0.000000 0.162696 0.087148
O O17 0.500000 0.094941 0.337183
#
# Coordination Sequence:
#
# PCOD8257052 Si02
#       7
#    16   8   8  16  16  16  16
#     4   9  17  32  52  71  92 122 160 196 231 277
#     4   9  17  31  50  69  94 127 159 191 230 283
#     4   9  17  29  46  71  98 123 153 189 234 283
#     4   9  16  29  49  71  95 124 160 198 237 284
#     4   8  16  31  51  72  92 121 161 198 232 278
#     4  10  19  32  50  71  97 128 162 197 235 283
#     4  10  19  31  50  74  97 122 156 198 239 279
#
# _framework density 17.98001
#
# number of rings (size 3 to 8) (size 9 to 14) (size 15 to 20)
#    0.000    2.833    0.000    3.000    0.000    2.667 
#    0.000    6.667    0.000    7.000    0.000    0.000 
#    0.000    0.000    0.000    0.000    0.000    0.000 
#
# Total GULP energy -594895.464730 kJ/mol
# GULP energy per Si atom -12393.655515 kJ/mol
# Density = 1.793909 g / cm^3
# Si number density = 17.980010 Si / 1000 Ang^3
#
#
#
# Elastic Constant Matrix: (Units=GPa)
#
#
# Indices 1 2 3 4 5 6 
#
# 1 84.8972 30.3073 67.9430 0.0000 0.0000 0.0000
# 2 30.3073 46.9847 61.4555 0.0000 0.0000 0.0000
# 3 67.9430 61.4555 209.3068 0.0000 0.0000 0.0000
# 4 0.0000 0.0000 0.0000 29.9075 0.0000 0.0000
# 5 0.0000 0.0000 0.0000 0.0000 35.8967 0.0000
# 6 0.0000 0.0000 0.0000 0.0000 0.0000 16.8196
#
#
#
# Elastic Compliance Matrix: (Units=1/GPa)
#
#
# Indices 1 2 3 4 5 6 
#
# 1 0.016910 -0.006053 -0.003712 0.000000 0.000000 0.000000
# 2 -0.006053 0.036720 -0.008817 0.000000 0.000000 0.000000
# 3 -0.003712 -0.008817 0.008571 0.000000 0.000000 0.000000
# 4 0.000000 0.000000 0.000000 0.033436 0.000000 0.000000
# 5 0.000000 0.000000 0.000000 0.000000 0.027858 0.000000
# 6 0.000000 0.000000 0.000000 0.000000 0.000000 0.059454
#
#
# Mechanical properties :
#
#
# Convention : Reuss Voigt Hill
#
# Bulk Modulus (GPa) = 39.93798 73.40002 56.66900
# Shear Modulus (GPa) = 21.88570 28.62363 25.25466
#
# Velocity S-wave (km/s) = 3.49266 3.99428 3.75186
# Velocity P-wave (km/s) = 6.20689 7.88569 7.09611
#
# Compressibility (1/GPa) = 0.02503882
#
# Stress axis : x y z
#
# Youngs Moduli (GPa) = 59.13494 27.23317 116.66663
#
# Poissons Ratio (x) = 0.16483 0.43309
# Poissons Ratio (y) = 0.35791 1.02863
# Poissons Ratio (z) = 0.21952 0.24011
#
# Static dielectric constant tensor:
#      x y z
#    x 3.363390 0.000000 0.000000 
#    y 0.000000 3.072640 0.000000 
#    z 0.000000 0.000000 3.964450 
# 
# 
# High freq. dielectric constant tensor:
#      x y z
#    x 1.693330 0.000000 0.000000 
#    y 0.000000 1.647010 0.000000 
#    z 0.000000 0.000000 1.721050 
# 
# From -- ./inp_files/67303.got.cif
#   From: 2010.03.12/outbox.cif.g09.slc.cpg/sg63_34_cif.got.tgz:67303.got - 2010.04.10 19:34:48.
