data_PCOD8257074
_publ_section_title
;
Structure prediction by ZEFSAII (Michael W. Deem and Ramdas Pophale) SiO2 
 PCOD8257074
Probable space group: C M C M
;
_chemical_formula_sum "Si O2"
_cell_formula_units_Z 96
_cell_length_a 19.293917
_cell_length_b 30.808229
_cell_length_c 9.010188
_cell_angle_alpha 90.000000
_cell_angle_beta 90.000000
_cell_angle_gamma 90.000000
_cell_volume 5355.758583
_symmetry_space_group_name_H-M "C M C M"
_symmetry_group_IT_number 63
_symmetry_cell_setting 'orthorhombic'
loop_
_space_group_symop_operation_xyz
x,y,z
-x,-y,1/2+z
x,-y,-z
-x,y,1/2-z
-x,-y,-z
x,y,1/2-z
-x,y,z
x,-y,1/2+z
1/2+x,1/2+y,z
1/2-x,1/2-y,1/2+z
1/2+x,1/2-y,-z
1/2-x,1/2+y,1/2-z
1/2-x,1/2-y,-z
1/2+x,1/2+y,1/2-z
1/2-x,1/2+y,z
1/2+x,1/2-y,1/2+z
loop_
_atom_site_type_symbol
_atom_site_label
_atom_site_fract_x
_atom_site_fract_y
_atom_site_fract_z
Si Si1 0.682025 0.370453 0.075482
Si Si2 0.918512 0.293997 0.420369
Si Si3 0.172487 0.041703 0.416068
Si Si4 0.326744 0.864552 0.927283
Si Si5 0.920502 0.793113 0.079620
Si Si6 0.663272 0.959480 0.587596
O O1 0.694055 0.376893 0.250000
O O2 0.624816 0.334601 0.038825
O O3 0.653641 0.415148 0.006990
O O4 0.752991 0.354414 0.001007
O O5 0.895226 0.299036 0.250000
O O6 0.882045 0.329615 0.521468
O O7 0.896056 0.246612 0.476880
O O8 0.000000 0.300659 0.440263
O O9 0.141121 0.044711 0.250000
O O10 0.254455 0.036069 0.405770
O O11 0.140110 0.000000 0.500000
O O12 0.317460 0.864123 0.750000
O O13 0.353983 0.912120 0.981257
O O14 0.909795 0.779019 0.250000
O O15 0.000000 0.805423 0.047586
O O16 0.630274 0.962539 0.750000
O O17 0.630215 0.000000 0.500000
#
# Coordination Sequence:
#
# PCOD8257074 Si02
#       6
#    16  16  16  16  16  16
#     4  10  19  31  50  76 103 130 163 206 251 292
#     4  10  21  36  54  75  97 125 164 207 250 297
#     4   9  16  27  44  68  99 132 165 201 243 292
#     4  10  20  33  50  74 103 133 165 201 244 295
#     4   9  19  36  55  73  96 130 168 203 246 302
#     4   8  15  26  42  66  94 125 158 192 232 279
#
# _framework density 17.924631999999999
#
# number of rings (size 3 to 8) (size 9 to 14) (size 15 to 20)
#    0.000    2.667    0.000    3.000    0.000    7.667 
#    0.000    0.000    0.000    1.000    0.000    0.000 
#    0.000    0.000    0.000    0.000    0.000    0.000 
#
# Total GULP energy -595096.384069 kJ/mol
# GULP energy per Si atom -12397.841335 kJ/mol
# Density = 1.788383 g / cm^3
# Si number density = 17.924632 Si / 1000 Ang^3
#
#
#
# Elastic Constant Matrix: (Units=GPa)
#
#
# Indices 1 2 3 4 5 6 
#
# 1 39.7148 51.6646 34.0534 0.0000 0.0000 0.0000
# 2 51.6646 150.2813 70.3841 0.0000 0.0000 0.0000
# 3 34.0534 70.3841 108.8813 0.0000 0.0000 0.0000
# 4 0.0000 0.0000 0.0000 36.9544 0.0000 0.0000
# 5 0.0000 0.0000 0.0000 0.0000 15.6542 0.0000
# 6 0.0000 0.0000 0.0000 0.0000 0.0000 -5.4956
#
#
#
# Elastic Compliance Matrix: (Units=1/GPa)
#
#
# Indices 1 2 3 4 5 6 
#
# 1 0.048371 -0.013688 -0.006280 0.000000 0.000000 0.000000
# 2 -0.013688 0.013417 -0.004392 0.000000 0.000000 0.000000
# 3 -0.006280 -0.004392 0.013988 0.000000 0.000000 0.000000
# 4 0.000000 0.000000 0.000000 0.027060 0.000000 0.000000
# 5 0.000000 0.000000 0.000000 0.000000 0.063881 0.000000
# 6 0.000000 0.000000 0.000000 0.000000 0.000000 -0.181965
#
#
# Mechanical properties :
#
#
# Convention : Reuss Voigt Hill
#
# Bulk Modulus (GPa) = 36.96137 67.89796 52.42967
# Shear Modulus (GPa) = 117.67485 18.94097 68.30791
#
# Velocity S-wave (km/s) = 8.11125 3.25422 6.17990
# Velocity P-wave (km/s) = 10.41097 7.21678 8.95740
#
# Compressibility (1/GPa) = 0.02705527
#
# Stress axis : x y z
#
# Youngs Moduli (GPa) = 20.67354 74.53249 71.49173
#
# Poissons Ratio (x) = 1.02020 0.44897
# Poissons Ratio (y) = 0.28298 0.31400
# Poissons Ratio (z) = 0.12983 0.32735
#
# Static dielectric constant tensor:
#      x y z
#    x 2.895820 0.000000 0.000000 
#    y 0.000000 3.521770 0.000000 
#    z 0.000000 0.000000 3.536480 
# 
# 
# High freq. dielectric constant tensor:
#      x y z
#    x 1.645700 0.000000 0.000000 
#    y 0.000000 1.708840 0.000000 
#    z 0.000000 0.000000 1.706130 
# 
# From -- ./inp_files/8562.got.cif
#   From: 2010.03.12/outbox.cif.g09.slc.cpg/sg63_5_cif.got.tgz:8562.got - 2010.04.10 19:34:48.
