data_PCOD8257307
_publ_section_title
;
Structure prediction by ZEFSAII (Michael W. Deem and Ramdas Pophale) SiO2 
 PCOD8257307
Probable space group: C M C M
;
_chemical_formula_sum "Si O2"
_cell_formula_units_Z 104
_cell_length_a 26.050528
_cell_length_b 21.603514
_cell_length_c 8.716291
_cell_angle_alpha 90.000000
_cell_angle_beta 90.000000
_cell_angle_gamma 90.000000
_cell_volume 4905.379930
_symmetry_space_group_name_H-M "C M C M"
_symmetry_group_IT_number 63
_symmetry_cell_setting 'orthorhombic'
loop_
_space_group_symop_operation_xyz
x,y,z
-x,-y,1/2+z
x,-y,-z
-x,y,1/2-z
-x,-y,-z
x,y,1/2-z
-x,y,z
x,-y,1/2+z
1/2+x,1/2+y,z
1/2-x,1/2-y,1/2+z
1/2+x,1/2-y,-z
1/2-x,1/2+y,1/2-z
1/2-x,1/2-y,-z
1/2+x,1/2+y,1/2-z
1/2-x,1/2+y,z
1/2+x,1/2-y,1/2+z
loop_
_atom_site_type_symbol
_atom_site_label
_atom_site_fract_x
_atom_site_fract_y
_atom_site_fract_z
Si Si1 0.212355 0.152508 0.930640
Si Si2 0.709653 0.064586 0.075208
Si Si3 0.354553 0.248317 0.931383
Si Si4 0.055246 0.830740 0.574135
Si Si5 0.107335 0.374337 0.924629
Si Si6 0.370989 0.565330 0.425921
Si Si7 0.500000 0.931782 0.568007
O O1 0.217927 0.159540 0.750000
O O2 0.266037 0.125692 0.995169
O O3 0.197085 0.220606 0.997627
O O4 0.170252 0.102271 0.975902
O O5 0.728659 0.063493 0.250000
O O6 0.647607 0.068887 0.065619
O O7 0.727873 0.000000 0.000000
O O8 0.349187 0.255966 0.750000
O O9 0.403031 0.285652 0.001895
O O10 0.365630 0.178041 0.973900
O O11 0.049350 0.810803 0.750000
O O12 0.074064 0.901288 0.562418
O O13 0.000000 0.824150 0.490583
O O14 0.101564 0.350861 0.750000
O O15 0.051365 0.395403 0.988081
O O16 0.379317 0.500000 0.500000
O O17 0.352088 0.561075 0.250000
O O18 0.500000 0.938226 0.750000
O O19 0.500000 0.000000 0.500000
#
# Coordination Sequence:
#
# PCOD8257307 Si02
#       7
#    16  16  16  16  16  16   8
#     4  11  22  38  60  84 116 155 196 244 299 356
#     4  11  23  40  62  89 121 157 200 247 298 355
#     4  10  21  37  60  88 119 154 199 246 294 356
#     4   8  16  31  50  74 106 143 185 237 289 340
#     4  10  23  41  62  90 125 161 197 246 301 359
#     4  10  19  32  51  76 109 148 192 241 292 353
#     4  10  22  42  66  94 128 164 205 250 303 360
#
# _framework density 21.201212000000002
#
# number of rings (size 3 to 8) (size 9 to 14) (size 15 to 20)
#    0.000    2.000    0.000    4.615    1.077    2.769 
#    0.000    0.000    0.000    8.769    0.000    0.000 
#    0.000    0.000    0.000    0.000    0.000    0.000 
#
# Total GULP energy -644535.088798 kJ/mol
# GULP energy per Si atom -12394.905554 kJ/mol
# Density = 2.115296 g / cm^3
# Si number density = 21.201212 Si / 1000 Ang^3
#
#
#
# Elastic Constant Matrix: (Units=GPa)
#
#
# Indices 1 2 3 4 5 6 
#
# 1 130.5940 33.8119 33.8045 0.0000 0.0000 0.0000
# 2 33.8119 104.5515 35.9186 0.0000 0.0000 0.0000
# 3 33.8045 35.9186 107.1911 0.0000 0.0000 0.0000
# 4 0.0000 0.0000 0.0000 34.3164 0.0000 0.0000
# 5 0.0000 0.0000 0.0000 0.0000 20.0930 0.0000
# 6 0.0000 0.0000 0.0000 0.0000 0.0000 23.5126
#
#
#
# Elastic Compliance Matrix: (Units=1/GPa)
#
#
# Indices 1 2 3 4 5 6 
#
# 1 0.008736 -0.002123 -0.002044 0.000000 0.000000 0.000000
# 2 -0.002123 0.011325 -0.003125 0.000000 0.000000 0.000000
# 3 -0.002044 -0.003125 0.011021 0.000000 0.000000 0.000000
# 4 0.000000 0.000000 0.000000 0.029141 0.000000 0.000000
# 5 0.000000 0.000000 0.000000 0.000000 0.049769 0.000000
# 6 0.000000 0.000000 0.000000 0.000000 0.000000 0.042530
#
#
# Mechanical properties :
#
#
# Convention : Reuss Voigt Hill
#
# Bulk Modulus (GPa) = 60.61432 61.04518 60.82975
# Shear Modulus (GPa) = 28.96791 31.50451 30.23621
#
# Velocity S-wave (km/s) = 3.70040 3.85902 3.78054
# Velocity P-wave (km/s) = 6.84904 6.97938 6.91452
#
# Compressibility (1/GPa) = 0.01649775
#
# Stress axis : x y z
#
# Youngs Moduli (GPa) = 114.46878 88.30033 90.73682
#
# Poissons Ratio (x) = 0.18747 0.18543
# Poissons Ratio (y) = 0.24303 0.28358
# Poissons Ratio (z) = 0.23393 0.27597
#
# Static dielectric constant tensor:
#      x y z
#    x 4.211220 0.000000 0.000000 
#    y 0.000000 3.734920 0.000000 
#    z 0.000000 0.000000 3.630410 
# 
# 
# High freq. dielectric constant tensor:
#      x y z
#    x 1.843180 0.000000 0.000000 
#    y 0.000000 1.829540 0.000000 
#    z 0.000000 0.000000 1.814960 
# 
# From -- ./inp_files/12518.got.cif
#   From: 2010.03.12/outbox.cif.g09.slc.cpg/sg63_7_cif.got.tgz:12518.got - 2010.04.10 19:34:48.
