data_PCOD8257403
_publ_section_title
;
Structure prediction by ZEFSAII (Michael W. Deem and Ramdas Pophale) SiO2 
 PCOD8257403
Probable space group: C M C M
;
_chemical_formula_sum "Si O2"
_cell_formula_units_Z 72
_cell_length_a 16.703015
_cell_length_b 24.690813
_cell_length_c 9.479855
_cell_angle_alpha 90.000000
_cell_angle_beta 90.000000
_cell_angle_gamma 90.000000
_cell_volume 3909.596669
_symmetry_space_group_name_H-M "C M C M"
_symmetry_group_IT_number 63
_symmetry_cell_setting 'orthorhombic'
loop_
_space_group_symop_operation_xyz
x,y,z
-x,-y,1/2+z
x,-y,-z
-x,y,1/2-z
-x,-y,-z
x,y,1/2-z
-x,y,z
x,-y,1/2+z
1/2+x,1/2+y,z
1/2-x,1/2-y,1/2+z
1/2+x,1/2-y,-z
1/2-x,1/2+y,1/2-z
1/2-x,1/2-y,-z
1/2+x,1/2+y,1/2-z
1/2-x,1/2+y,z
1/2+x,1/2-y,1/2+z
loop_
_atom_site_type_symbol
_atom_site_label
_atom_site_fract_x
_atom_site_fract_y
_atom_site_fract_z
Si Si1 0.592927 0.448574 0.413230
Si Si2 0.411012 0.249124 0.089500
Si Si3 0.374022 0.146201 0.584270
Si Si4 0.191700 0.152068 0.582874
Si Si5 0.500000 0.055725 0.914342
O O1 0.622957 0.500000 0.500000
O O2 0.612839 0.459014 0.250000
O O3 0.500000 0.437070 0.437900
O O4 0.640465 0.397704 0.476418
O O5 0.388108 0.233491 0.250000
O O6 0.500000 0.275362 0.085494
O O7 0.346548 0.291786 0.025743
O O8 0.414275 0.195616 0.996071
O O9 0.380412 0.157995 0.750000
O O10 0.282365 0.143097 0.532512
O O11 0.420823 0.090752 0.546976
O O12 0.184294 0.153078 0.750000
O O13 0.500000 0.040584 0.750000
O O14 0.500000 0.000000 0.000000
#
# Coordination Sequence:
#
# PCOD8257403 Si02
#       5
#    16  16  16  16   8
#     4   9  17  31  50  71  99 133 168 207 251 300
#     4  10  19  32  53  79 105 134 170 208 252 309
#     4  10  20  36  54  74 103 135 169 212 262 308
#     4   9  18  32  52  76 102 135 172 209 254 309
#     4  10  22  38  56  76 100 136 177 216 261 308
#
# _framework density 18.416222999999999
#
# number of rings (size 3 to 8) (size 9 to 14) (size 15 to 20)
#    0.000    2.444    1.111    1.333    0.000    4.444 
#    0.000    2.222    0.000    2.667    0.000    0.000 
#    0.000    0.000    0.000    0.000    0.000    0.000 
#
# Total GULP energy -446351.728047 kJ/mol
# GULP energy per Si atom -12398.659112 kJ/mol
# Density = 1.837431 g / cm^3
# Si number density = 18.416223 Si / 1000 Ang^3
#
#
#
# Elastic Constant Matrix: (Units=GPa)
#
#
# Indices 1 2 3 4 5 6 
#
# 1 117.9863 72.3859 33.6059 0.0000 0.0000 0.0000
# 2 72.3859 150.9491 50.1305 0.0000 0.0000 0.0000
# 3 33.6059 50.1305 42.4680 0.0000 0.0000 0.0000
# 4 0.0000 0.0000 0.0000 32.5243 0.0000 0.0000
# 5 0.0000 0.0000 0.0000 0.0000 17.8537 0.0000
# 6 0.0000 0.0000 0.0000 0.0000 0.0000 25.1199
#
#
#
# Elastic Compliance Matrix: (Units=1/GPa)
#
#
# Indices 1 2 3 4 5 6 
#
# 1 0.012542 -0.004471 -0.004647 0.000000 0.000000 0.000000
# 2 -0.004471 0.012490 -0.011206 0.000000 0.000000 0.000000
# 3 -0.004647 -0.011206 0.040452 0.000000 0.000000 0.000000
# 4 0.000000 0.000000 0.000000 0.030746 0.000000 0.000000
# 5 0.000000 0.000000 0.000000 0.000000 0.056011 0.000000
# 6 0.000000 0.000000 0.000000 0.000000 0.000000 0.039809
#
#
# Mechanical properties :
#
#
# Convention : Reuss Voigt Hill
#
# Bulk Modulus (GPa) = 40.26309 69.29421 54.77865
# Shear Modulus (GPa) = 20.74878 25.45165 23.10022
#
# Velocity S-wave (km/s) = 3.36021 3.72159 3.54551
# Velocity P-wave (km/s) = 6.07989 7.49502 6.82424
#
# Compressibility (1/GPa) = 0.02483664
#
# Stress axis : x y z
#
# Youngs Moduli (GPa) = 79.72999 80.06183 24.72061
#
# Poissons Ratio (x) = 0.35798 0.11488
# Poissons Ratio (y) = 0.35649 0.27701
# Poissons Ratio (z) = 0.37051 0.89716
#
# Static dielectric constant tensor:
#      x y z
#    x 3.623830 0.000000 0.000000 
#    y 0.000000 3.392120 0.000000 
#    z 0.000000 0.000000 3.016890 
# 
# 
# High freq. dielectric constant tensor:
#      x y z
#    x 1.726690 0.000000 0.000000 
#    y 0.000000 1.714440 0.000000 
#    z 0.000000 0.000000 1.683880 
# 
# From -- ./inp_files/4646.got.cif
#   From: 2010.03.12/outbox.cif.g09.slc.cpg/sg63_3_cif.got.tgz:4646.got - 2010.04.10 19:34:48.
