data_PCOD8257006
_publ_section_title
;
Structure prediction by ZEFSAII (Michael W. Deem and Ramdas Pophale) SiO2 
 PCOD8257006
Probable space group: C M C M
;
_chemical_formula_sum "Si O2"
_cell_formula_units_Z 80
_cell_length_a 13.610571
_cell_length_b 18.580170
_cell_length_c 16.262867
_cell_angle_alpha 90.000000
_cell_angle_beta 90.000000
_cell_angle_gamma 90.000000
_cell_volume 4112.663142
_symmetry_space_group_name_H-M "C M C M"
_symmetry_group_IT_number 63
_symmetry_cell_setting 'orthorhombic'
loop_
_space_group_symop_operation_xyz
x,y,z
-x,-y,1/2+z
x,-y,-z
-x,y,1/2-z
-x,-y,-z
x,y,1/2-z
-x,y,z
x,-y,1/2+z
1/2+x,1/2+y,z
1/2-x,1/2-y,1/2+z
1/2+x,1/2-y,-z
1/2-x,1/2+y,1/2-z
1/2-x,1/2-y,-z
1/2+x,1/2+y,1/2-z
1/2-x,1/2+y,z
1/2+x,1/2-y,1/2+z
loop_
_atom_site_type_symbol
_atom_site_label
_atom_site_fract_x
_atom_site_fract_y
_atom_site_fract_z
Si Si1 0.111188 0.397013 0.845820
Si Si2 0.215830 0.736879 0.407998
Si Si3 0.208829 0.009294 0.158197
Si Si4 0.108216 0.849768 0.885842
Si Si5 0.611790 0.376164 0.420452
O O1 0.125216 0.376482 0.750000
O O2 0.136583 0.327533 0.901291
O O3 0.183031 0.463174 0.869381
O O4 0.000000 0.421130 0.864991
O O5 0.250000 0.750000 0.500000
O O6 0.313957 0.712007 0.358339
O O7 0.165763 0.809698 0.373680
O O8 0.212020 0.976826 0.250000
O O9 0.172323 0.948449 0.096118
O O10 0.133578 0.075837 0.158501
O O11 0.000000 0.824539 0.858441
O O12 0.112794 0.862616 0.983043
O O13 0.500000 0.383279 0.387602
#
# Coordination Sequence:
#
# PCOD8257006 Si02
#       5
#    16  16  16  16  16
#     4   9  18  34  54  73  98 136 176 210 248 299
#     4   9  18  32  51  74 101 129 165 210 252 297
#     4  10  20  32  49  74 100 127 163 206 248 292
#     4   9  18  33  51  69  95 133 167 196 240 296
#     4  10  19  31  49  73 101 130 159 201 254 296
#
# _framework density 19.452116
#
# number of rings (size 3 to 8) (size 9 to 14) (size 15 to 20)
#    0.000    2.600    0.000    1.800    0.000    4.800 
#    0.000    1.000    0.000   16.800    0.000    0.000 
#    0.000    0.000    0.000    0.000    0.000    0.000 
#
# Total GULP energy -495784.819903 kJ/mol
# GULP energy per Si atom -12394.620498 kJ/mol
# Density = 1.940784 g / cm^3
# Si number density = 19.452116 Si / 1000 Ang^3
#
#
#
# Elastic Constant Matrix: (Units=GPa)
#
#
# Indices 1 2 3 4 5 6 
#
# 1 182.1964 75.9761 20.7546 0.0000 0.0000 0.0000
# 2 75.9761 116.3271 18.4298 0.0000 0.0000 0.0000
# 3 20.7546 18.4298 26.8268 0.0000 0.0000 0.0000
# 4 0.0000 0.0000 0.0000 12.2937 0.0000 0.0000
# 5 0.0000 0.0000 0.0000 0.0000 21.5420 0.0000
# 6 0.0000 0.0000 0.0000 0.0000 0.0000 28.7023
#
#
#
# Elastic Compliance Matrix: (Units=1/GPa)
#
#
# Indices 1 2 3 4 5 6 
#
# 1 0.007728 -0.004601 -0.002818 0.000000 0.000000 0.000000
# 2 -0.004601 0.012386 -0.004949 0.000000 0.000000 0.000000
# 3 -0.002818 -0.004949 0.042856 0.000000 0.000000 0.000000
# 4 0.000000 0.000000 0.000000 0.081342 0.000000 0.000000
# 5 0.000000 0.000000 0.000000 0.000000 0.046421 0.000000
# 6 0.000000 0.000000 0.000000 0.000000 0.000000 0.034840
#
#
# Mechanical properties :
#
#
# Convention : Reuss Voigt Hill
#
# Bulk Modulus (GPa) = 26.15499 61.74125 43.94812
# Shear Modulus (GPa) = 19.00741 26.52025 22.76383
#
# Velocity S-wave (km/s) = 3.12931 3.69638 3.42460
# Velocity P-wave (km/s) = 5.15090 7.07295 6.18702
#
# Compressibility (1/GPa) = 0.03823362
#
# Stress axis : x y z
#
# Youngs Moduli (GPa) = 129.39580 80.73889 23.33369
#
# Poissons Ratio (x) = 0.37148 0.06576
# Poissons Ratio (y) = 0.59535 0.11548
# Poissons Ratio (z) = 0.36465 0.39960
#
# Static dielectric constant tensor:
#      x y z
#    x 4.053570 0.000000 0.000000 
#    y 0.000000 3.581820 0.000000 
#    z 0.000000 0.000000 3.304020 
# 
# 
# High freq. dielectric constant tensor:
#      x y z
#    x 1.772320 0.000000 0.000000 
#    y 0.000000 1.743250 0.000000 
#    z 0.000000 0.000000 1.732480 
# 
# From -- ./inp_files/43955.got.cif
#   From: 2010.03.12/outbox.cif.g09.slc.cpg/sg63_22_cif.got.tgz:43955.got - 2010.04.10 19:34:48.
