data_PCOD8257999
_publ_section_title
;
Structure prediction by ZEFSAII (Michael W. Deem and Ramdas Pophale) SiO2 
 PCOD8257999
Probable space group: C M C M
;
_chemical_formula_sum "Si O2"
_cell_formula_units_Z 112
_cell_length_a 22.100154
_cell_length_b 16.911283
_cell_length_c 15.327779
_cell_angle_alpha 90.000000
_cell_angle_beta 90.000000
_cell_angle_gamma 90.000000
_cell_volume 5728.634145
_symmetry_space_group_name_H-M "C M C M"
_symmetry_group_IT_number 63
_symmetry_cell_setting 'orthorhombic'
loop_
_space_group_symop_operation_xyz
x,y,z
-x,-y,1/2+z
x,-y,-z
-x,y,1/2-z
-x,-y,-z
x,y,1/2-z
-x,y,z
x,-y,1/2+z
1/2+x,1/2+y,z
1/2-x,1/2-y,1/2+z
1/2+x,1/2-y,-z
1/2-x,1/2+y,1/2-z
1/2-x,1/2-y,-z
1/2+x,1/2+y,1/2-z
1/2-x,1/2+y,z
1/2+x,1/2-y,1/2+z
loop_
_atom_site_type_symbol
_atom_site_label
_atom_site_fract_x
_atom_site_fract_y
_atom_site_fract_z
Si Si1 0.684840 0.015769 0.352889
Si Si2 0.069128 0.248578 0.487383
Si Si3 0.355466 0.150940 0.650249
Si Si4 0.131982 0.318755 0.848575
Si Si5 0.309743 0.421114 0.648396
Si Si6 0.258378 0.738499 0.101637
Si Si7 0.066581 0.071217 0.433688
O O1 0.689314 0.005997 0.250000
O O2 0.643373 0.090680 0.378136
O O3 0.753965 0.025706 0.390168
O O4 0.651110 0.937775 0.389175
O O5 0.102982 0.296584 0.411939
O O6 0.087568 0.276539 0.584017
O O7 0.080347 0.154528 0.481142
O O8 0.000000 0.270454 0.474083
O O9 0.380447 0.152280 0.750000
O O10 0.287734 0.185563 0.647472
O O11 0.105218 0.314136 0.750000
O O12 0.196194 0.275112 0.848333
O O13 0.299887 0.415891 0.750000
O O14 0.304993 0.333618 0.610142
O O15 0.377573 0.452101 0.629297
O O16 0.250000 0.750000 0.000000
O O17 0.000000 0.076993 0.386208
O O18 0.062710 0.000000 0.500000
#
# Coordination Sequence:
#
# PCOD8257999 Si02
#       7
#    16  16  16  16  16  16  16
#     4   8  19  35  56  87 121 152 190 244 302 354
#     4  11  24  41  61  88 117 158 211 246 290 359
#     4  11  21  38  61  89 123 156 193 247 304 360
#     4  10  20  39  60  83 120 160 200 248 295 349
#     4  10  19  35  57  85 116 151 198 244 293 361
#     4  11  19  33  56  87 119 153 191 242 302 355
#     4  10  22  40  58  81 119 158 196 249 303 358
#
# _framework density 19.550908
#
# number of rings (size 3 to 8) (size 9 to 14) (size 15 to 20)
#    0.000    1.857    2.857    2.143    0.000    3.714 
#    0.000    5.000    0.000    5.143    0.000    0.000 
#    0.000    0.000    0.000    0.000    0.000    0.000 
#
# Total GULP energy -693981.388505 kJ/mol
# GULP energy per Si atom -12392.524795 kJ/mol
# Density = 1.950641 g / cm^3
# Si number density = 19.550908 Si / 1000 Ang^3
#
#
#
# Elastic Constant Matrix: (Units=GPa)
#
#
# Indices 1 2 3 4 5 6 
#
# 1 80.0874 48.8527 30.7360 0.0000 0.0000 0.0000
# 2 48.8527 131.5925 38.0793 0.0000 0.0000 0.0000
# 3 30.7360 38.0793 86.8432 0.0000 0.0000 0.0000
# 4 0.0000 0.0000 0.0000 20.6478 0.0000 0.0000
# 5 0.0000 0.0000 0.0000 0.0000 22.3144 0.0000
# 6 0.0000 0.0000 0.0000 0.0000 0.0000 17.0086
#
#
#
# Elastic Compliance Matrix: (Units=1/GPa)
#
#
# Indices 1 2 3 4 5 6 
#
# 1 0.017148 -0.005280 -0.003754 0.000000 0.000000 0.000000
# 2 -0.005280 0.010329 -0.002661 0.000000 0.000000 0.000000
# 3 -0.003754 -0.002661 0.014010 0.000000 0.000000 0.000000
# 4 0.000000 0.000000 0.000000 0.048431 0.000000 0.000000
# 5 0.000000 0.000000 0.000000 0.000000 0.044814 0.000000
# 6 0.000000 0.000000 0.000000 0.000000 0.000000 0.058794
#
#
# Mechanical properties :
#
#
# Convention : Reuss Voigt Hill
#
# Bulk Modulus (GPa) = 55.25257 59.31768 57.28513
# Shear Modulus (GPa) = 22.42684 24.05117 23.23901
#
# Velocity S-wave (km/s) = 3.39056 3.51120 3.45141
# Velocity P-wave (km/s) = 6.60682 6.84427 6.72659
#
# Compressibility (1/GPa) = 0.01809870
#
# Stress axis : x y z
#
# Youngs Moduli (GPa) = 58.31728 96.81357 71.37637
#
# Poissons Ratio (x) = 0.51114 0.26794
# Poissons Ratio (y) = 0.30789 0.18990
# Poissons Ratio (z) = 0.21892 0.25758
#
# Static dielectric constant tensor:
#      x y z
#    x 3.802790 0.000000 0.000000 
#    y 0.000000 3.900970 0.000000 
#    z 0.000000 0.000000 3.399320 
# 
# 
# High freq. dielectric constant tensor:
#      x y z
#    x 1.754830 0.000000 0.000000 
#    y 0.000000 1.767590 0.000000 
#    z 0.000000 0.000000 1.749910 
# 
# From -- ./inp_files/36859.got.cif
#   From: 2010.03.12/outbox.cif.g09.slc.cpg/sg63_19_cif.got.tgz:36859.got - 2010.04.10 19:34:48.
