data_PCOD8257974
_publ_section_title
;
Structure prediction by ZEFSAII (Michael W. Deem and Ramdas Pophale) SiO2 
 PCOD8257974
Probable space group: C M C M
;
_chemical_formula_sum "Si O2"
_cell_formula_units_Z 96
_cell_length_a 18.540294
_cell_length_b 29.636126
_cell_length_c 9.242183
_cell_angle_alpha 90.000000
_cell_angle_beta 90.000000
_cell_angle_gamma 90.000000
_cell_volume 5078.232876
_symmetry_space_group_name_H-M "C M C M"
_symmetry_group_IT_number 63
_symmetry_cell_setting 'orthorhombic'
loop_
_space_group_symop_operation_xyz
x,y,z
-x,-y,1/2+z
x,-y,-z
-x,y,1/2-z
-x,-y,-z
x,y,1/2-z
-x,y,z
x,-y,1/2+z
1/2+x,1/2+y,z
1/2-x,1/2-y,1/2+z
1/2+x,1/2-y,-z
1/2-x,1/2+y,1/2-z
1/2-x,1/2-y,-z
1/2+x,1/2+y,1/2-z
1/2-x,1/2+y,z
1/2+x,1/2-y,1/2+z
loop_
_atom_site_type_symbol
_atom_site_label
_atom_site_fract_x
_atom_site_fract_y
_atom_site_fract_z
Si Si1 0.917186 0.213016 0.415365
Si Si2 0.850725 0.117351 0.415654
Si Si3 0.311881 0.876627 0.919828
Si Si4 0.183446 0.274541 0.577083
Si Si5 0.416830 0.954275 0.919876
Si Si6 0.084400 0.959241 0.091059
O O1 0.908087 0.229700 0.250000
O O2 0.867929 0.169466 0.442420
O O3 0.890569 0.251139 0.526182
O O4 0.000000 0.201386 0.449775
O O5 0.866147 0.104206 0.250000
O O6 0.768462 0.107219 0.459732
O O7 0.902624 0.088234 0.515098
O O8 0.322722 0.874417 0.750000
O O9 0.323369 0.826029 0.979113
O O10 0.369201 0.912721 0.982970
O O11 0.193370 0.271496 0.750000
O O12 0.250000 0.250000 0.500000
O O13 0.403302 0.961495 0.750000
O O14 0.500000 0.942659 0.952897
O O15 0.393099 0.000000 0.000000
O O16 0.120014 0.959114 0.250000
O O17 0.000000 0.967271 0.104787
O O18 0.120138 0.000000 0.000000
#
# Coordination Sequence:
#
# PCOD8257974 Si02
#       6
#    16  16  16  16  16  16
#     4  10  21  37  57  82 113 150 189 231 285 343
#     4  10  19  35  56  77 106 144 182 223 277 335
#     4   9  19  35  57  82 109 145 186 226 274 338
#     4  11  21  37  59  82 113 151 192 237 288 342
#     4   9  18  35  58  82 110 144 182 228 281 335
#     4  10  21  36  53  75 104 138 179 225 272 323
#
# _framework density 18.904212999999999
#
# number of rings (size 3 to 8) (size 9 to 14) (size 15 to 20)
#    0.000    2.167    1.667    1.500    0.000    4.000 
#    0.000    5.833    0.000    2.000    0.000    0.000 
#    0.000    0.000    0.000    0.000    0.000    0.000 
#
# Total GULP energy -595194.294763 kJ/mol
# GULP energy per Si atom -12399.881141 kJ/mol
# Density = 1.886119 g / cm^3
# Si number density = 18.904213 Si / 1000 Ang^3
#
#
#
# Elastic Constant Matrix: (Units=GPa)
#
#
# Indices 1 2 3 4 5 6 
#
# 1 81.7987 50.6544 28.4376 0.0000 0.0000 0.0000
# 2 50.6544 128.2593 53.7761 0.0000 0.0000 0.0000
# 3 28.4376 53.7761 84.0554 0.0000 0.0000 0.0000
# 4 0.0000 0.0000 0.0000 32.4888 0.0000 0.0000
# 5 0.0000 0.0000 0.0000 0.0000 25.4323 0.0000
# 6 0.0000 0.0000 0.0000 0.0000 0.0000 36.7526
#
#
#
# Elastic Compliance Matrix: (Units=1/GPa)
#
#
# Indices 1 2 3 4 5 6 
#
# 1 0.016407 -0.005674 -0.001920 0.000000 0.000000 0.000000
# 2 -0.005674 0.012617 -0.006152 0.000000 0.000000 0.000000
# 3 -0.001920 -0.006152 0.016483 0.000000 0.000000 0.000000
# 4 0.000000 0.000000 0.000000 0.030780 0.000000 0.000000
# 5 0.000000 0.000000 0.000000 0.000000 0.039320 0.000000
# 6 0.000000 0.000000 0.000000 0.000000 0.000000 0.027209
#
#
# Mechanical properties :
#
#
# Convention : Reuss Voigt Hill
#
# Bulk Modulus (GPa) = 55.51759 62.20553 58.86156
# Shear Modulus (GPa) = 28.35846 29.68442 29.02144
#
# Velocity S-wave (km/s) = 3.87733 3.96694 3.92239
# Velocity P-wave (km/s) = 7.03396 7.34570 7.19152
#
# Compressibility (1/GPa) = 0.01801231
#
# Stress axis : x y z
#
# Youngs Moduli (GPa) = 60.95063 79.25608 60.66952
#
# Poissons Ratio (x) = 0.44974 0.11651
# Poissons Ratio (y) = 0.34586 0.37326
# Poissons Ratio (z) = 0.11705 0.48762
#
# Static dielectric constant tensor:
#      x y z
#    x 3.483530 0.000000 0.000000 
#    y 0.000000 3.595490 0.000000 
#    z 0.000000 0.000000 3.616330 
# 
# 
# High freq. dielectric constant tensor:
#      x y z
#    x 1.730960 0.000000 0.000000 
#    y 0.000000 1.739520 0.000000 
#    z 0.000000 0.000000 1.718620 
# 
# From -- ./inp_files/8617.got.cif
#   From: 2010.03.12/outbox.cif.g09.slc.cpg/sg63_5_cif.got.tgz:8617.got - 2010.04.10 19:34:48.
