data_PCOD8257860
_publ_section_title
;
Structure prediction by ZEFSAII (Michael W. Deem and Ramdas Pophale) SiO2 
 PCOD8257860
Probable space group: C M C M
;
_chemical_formula_sum "Si O2"
_cell_formula_units_Z 96
_cell_length_a 9.249037
_cell_length_b 28.547808
_cell_length_c 20.296381
_cell_angle_alpha 90.000000
_cell_angle_beta 90.000000
_cell_angle_gamma 90.000000
_cell_volume 5359.051009
_symmetry_space_group_name_H-M "C M C M"
_symmetry_group_IT_number 63
_symmetry_cell_setting 'orthorhombic'
loop_
_space_group_symop_operation_xyz
x,y,z
-x,-y,1/2+z
x,-y,-z
-x,y,1/2-z
-x,-y,-z
x,y,1/2-z
-x,y,z
x,-y,1/2+z
1/2+x,1/2+y,z
1/2-x,1/2-y,1/2+z
1/2+x,1/2-y,-z
1/2-x,1/2+y,1/2-z
1/2-x,1/2-y,-z
1/2+x,1/2+y,1/2-z
1/2-x,1/2+y,z
1/2+x,1/2-y,1/2+z
loop_
_atom_site_type_symbol
_atom_site_label
_atom_site_fract_x
_atom_site_fract_y
_atom_site_fract_z
Si Si1 0.830460 0.376560 0.871060
Si Si2 0.165229 0.964600 0.824013
Si Si3 0.333047 0.120556 0.978740
Si Si4 0.332534 0.225775 0.325914
Si Si5 0.169082 0.274771 0.059994
Si Si6 0.829946 0.968621 0.438524
O O1 0.754490 0.417287 0.830739
O O2 0.786308 0.327766 0.837715
O O3 0.000000 0.384994 0.866277
O O4 0.776465 0.376451 0.946360
O O5 0.181571 0.983850 0.750000
O O6 0.000000 0.952552 0.841695
O O7 0.222185 0.004977 0.872611
O O8 0.500000 0.106336 0.977582
O O9 0.306103 0.169829 0.943580
O O10 0.245307 0.081614 0.939117
O O11 0.306007 0.239141 0.250000
O O12 0.500000 0.232757 0.346004
O O13 0.233501 0.258948 0.370303
O O14 0.000000 0.262045 0.055531
O O15 0.250000 0.250000 0.000000
O O16 0.000000 0.959906 0.439972
O O17 0.778863 0.000000 0.500000
#
# Coordination Sequence:
#
# PCOD8257860 Si02
#       6
#    16  16  16  16  16  16
#     4  10  19  34  56  82 113 144 178 222 275 332
#     4  10  21  36  53  78 112 144 178 223 273 324
#     4  10  21  36  56  83 110 140 181 228 273 321
#     4  10  21  38  58  83 117 152 186 228 282 340
#     4  11  22  38  59  83 114 149 190 234 278 330
#     4  10  20  35  55  79 107 141 180 221 268 321
#
# _framework density 17.913620000000002
#
# number of rings (size 3 to 8) (size 9 to 14) (size 15 to 20)
#    0.000    1.833    3.333    1.000    0.000    4.333 
#    0.000    0.833    0.000    3.000    0.000    0.000 
#    0.000    0.000    0.000    0.000    0.000    0.000 
#
# Total GULP energy -595397.617874 kJ/mol
# GULP energy per Si atom -12404.117039 kJ/mol
# Density = 1.787285 g / cm^3
# Si number density = 17.913620 Si / 1000 Ang^3
#
#
#
# Elastic Constant Matrix: (Units=GPa)
#
#
# Indices 1 2 3 4 5 6 
#
# 1 62.2426 55.8711 45.2140 0.0000 0.0000 0.0000
# 2 55.8711 110.0070 58.5633 0.0000 0.0000 0.0000
# 3 45.2140 58.5633 122.7541 0.0000 0.0000 0.0000
# 4 0.0000 0.0000 0.0000 31.3679 0.0000 0.0000
# 5 0.0000 0.0000 0.0000 0.0000 26.1057 0.0000
# 6 0.0000 0.0000 0.0000 0.0000 0.0000 36.2741
#
#
#
# Elastic Compliance Matrix: (Units=1/GPa)
#
#
# Indices 1 2 3 4 5 6 
#
# 1 0.031997 -0.013373 -0.005405 0.000000 0.000000 0.000000
# 2 -0.013373 0.017774 -0.003554 0.000000 0.000000 0.000000
# 3 -0.005405 -0.003554 0.011833 0.000000 0.000000 0.000000
# 4 0.000000 0.000000 0.000000 0.031880 0.000000 0.000000
# 5 0.000000 0.000000 0.000000 0.000000 0.038306 0.000000
# 6 0.000000 0.000000 0.000000 0.000000 0.000000 0.027568
#
#
# Mechanical properties :
#
#
# Convention : Reuss Voigt Hill
#
# Bulk Modulus (GPa) = 59.03524 68.25559 63.64542
# Shear Modulus (GPa) = 23.84706 27.77321 25.81013
#
# Velocity S-wave (km/s) = 3.65255 3.94178 3.79992
# Velocity P-wave (km/s) = 7.12848 7.67477 7.40667
#
# Compressibility (1/GPa) = 0.01693903
#
# Stress axis : x y z
#
# Youngs Moduli (GPa) = 31.25293 56.26050 84.51024
#
# Poissons Ratio (x) = 0.75239 0.45681
# Poissons Ratio (y) = 0.41795 0.30035
# Poissons Ratio (z) = 0.16893 0.19995
#
# Static dielectric constant tensor:
#      x y z
#    x 3.282530 0.000000 0.000000 
#    y 0.000000 3.254830 0.000000 
#    z 0.000000 0.000000 3.387420 
# 
# 
# High freq. dielectric constant tensor:
#      x y z
#    x 1.690040 0.000000 0.000000 
#    y 0.000000 1.690430 0.000000 
#    z 0.000000 0.000000 1.696440 
# 
# From -- ./inp_files/51273.got.cif
#   From: 2010.03.12/outbox.cif.g09.slc.cpg/sg63_26_cif.got.tgz:51273.got - 2010.04.10 19:34:48.
