data_PCOD8257916
_publ_section_title
;
Structure prediction by ZEFSAII (Michael W. Deem and Ramdas Pophale) SiO2 
 PCOD8257916
Probable space group: C M C M
;
_chemical_formula_sum "Si O2"
_cell_formula_units_Z 96
_cell_length_a 18.556117
_cell_length_b 16.947743
_cell_length_c 13.455464
_cell_angle_alpha 90.000000
_cell_angle_beta 90.000000
_cell_angle_gamma 90.000000
_cell_volume 4231.532204
_symmetry_space_group_name_H-M "C M C M"
_symmetry_group_IT_number 63
_symmetry_cell_setting 'orthorhombic'
loop_
_space_group_symop_operation_xyz
x,y,z
-x,-y,1/2+z
x,-y,-z
-x,y,1/2-z
-x,-y,-z
x,y,1/2-z
-x,y,z
x,-y,1/2+z
1/2+x,1/2+y,z
1/2-x,1/2-y,1/2+z
1/2+x,1/2-y,-z
1/2-x,1/2+y,1/2-z
1/2-x,1/2-y,-z
1/2+x,1/2+y,1/2-z
1/2-x,1/2+y,z
1/2+x,1/2-y,1/2+z
loop_
_atom_site_type_symbol
_atom_site_label
_atom_site_fract_x
_atom_site_fract_y
_atom_site_fract_z
Si Si1 0.690952 0.081192 0.470590
Si Si2 0.353834 0.225604 0.362329
Si Si3 0.917638 0.886812 0.132072
Si Si4 0.919499 0.193590 0.131381
Si Si5 0.204984 0.305389 0.138168
Si Si6 0.338277 0.541260 0.368371
O O1 0.635259 0.142000 0.418113
O O2 0.722868 0.119812 0.570829
O O3 0.756822 0.055860 0.400722
O O4 0.649271 0.000000 0.500000
O O5 0.381350 0.214541 0.250000
O O6 0.395433 0.300477 0.412568
O O7 0.268285 0.241112 0.367309
O O8 0.904796 0.881512 0.250000
O O9 0.000000 0.905544 0.105746
O O10 0.867307 0.957208 0.089424
O O11 0.918167 0.191332 0.250000
O O12 0.867123 0.263977 0.096016
O O13 0.891092 0.109863 0.089514
O O14 0.000000 0.208596 0.090606
O O15 0.195798 0.336894 0.250000
O O16 0.341400 0.541935 0.250000
#
# Coordination Sequence:
#
# PCOD8257916 Si02
#       6
#    16  16  16  16  16  16
#     4  12  24  36  58  85 119 158 203 254 306 354
#     4  10  20  37  60  85 118 159 202 247 299 363
#     4   9  18  34  60  93 130 170 205 243 300 371
#     4   9  17  32  58  88 119 157 196 242 305 369
#     4  10  21  38  59  84 117 159 208 255 302 360
#     4  10  19  34  58  92 130 160 196 244 302 371
#
# _framework density 22.686817999999999
#
# number of rings (size 3 to 8) (size 9 to 14) (size 15 to 20)
#    0.000    2.000    1.667    2.500    0.000    4.667 
#    0.000    0.833    0.000    4.000    0.000    4.667 
#    0.000    0.000    0.000    0.000    0.000    0.000 
#
# Total GULP energy -595210.124757 kJ/mol
# GULP energy per Si atom -12400.210932 kJ/mol
# Density = 2.263518 g / cm^3
# Si number density = 22.686818 Si / 1000 Ang^3
#
#
#
# Elastic Constant Matrix: (Units=GPa)
#
#
# Indices 1 2 3 4 5 6 
#
# 1 73.6250 37.7786 -4.2352 0.0000 0.0000 0.0000
# 2 37.7786 176.2349 38.6214 0.0000 0.0000 0.0000
# 3 -4.2352 38.6214 19.8601 0.0000 0.0000 0.0000
# 4 0.0000 0.0000 0.0000 37.2085 0.0000 0.0000
# 5 0.0000 0.0000 0.0000 0.0000 11.8465 0.0000
# 6 0.0000 0.0000 0.0000 0.0000 0.0000 37.3052
#
#
#
# Elastic Compliance Matrix: (Units=1/GPa)
#
#
# Indices 1 2 3 4 5 6 
#
# 1 0.019311 -0.008787 0.021205 0.000000 0.000000 0.000000
# 2 -0.008787 0.013886 -0.028878 0.000000 0.000000 0.000000
# 3 0.021205 -0.028878 0.111033 0.000000 0.000000 0.000000
# 4 0.000000 0.000000 0.000000 0.026876 0.000000 0.000000
# 5 0.000000 0.000000 0.000000 0.000000 0.084413 0.000000
# 6 0.000000 0.000000 0.000000 0.000000 0.000000 0.026806
#
#
# Mechanical properties :
#
#
# Convention : Reuss Voigt Hill
#
# Bulk Modulus (GPa) = 8.98388 46.00552 27.49470
# Shear Modulus (GPa) = 14.19053 30.44237 22.31645
#
# Velocity S-wave (km/s) = 2.50371 3.66710 3.13976
# Velocity P-wave (km/s) = 3.51093 6.18488 5.02889
#
# Compressibility (1/GPa) = 0.11131050
#
# Stress axis : x y z
#
# Youngs Moduli (GPa) = 51.78471 72.01320 9.00635
#
# Poissons Ratio (x) = 0.63275 -0.19098
# Poissons Ratio (y) = 0.45501 0.26009
# Poissons Ratio (z) = -1.09810 2.07961
#
# Static dielectric constant tensor:
#      x y z
#    x 3.756770 0.000000 0.000000 
#    y 0.000000 4.293900 0.000000 
#    z 0.000000 0.000000 4.195070 
# 
# 
# High freq. dielectric constant tensor:
#      x y z
#    x 1.850160 0.000000 0.000000 
#    y 0.000000 1.895700 0.000000 
#    z 0.000000 0.000000 1.918930 
# 
# From -- ./inp_files/35317.got.cif
#   From: 2010.03.12/outbox.cif.g09.slc.cpg/sg63_18_cif.got.tgz:35317.got - 2010.04.10 19:34:48.
