data_PCOD8257440
_publ_section_title
;
Structure prediction by ZEFSAII (Michael W. Deem and Ramdas Pophale) SiO2 
 PCOD8257440
Probable space group: C M C M
;
_chemical_formula_sum "Si O2"
_cell_formula_units_Z 88
_cell_length_a 34.773111
_cell_length_b 5.110026
_cell_length_c 26.385946
_cell_angle_alpha 90.000000
_cell_angle_beta 90.000000
_cell_angle_gamma 90.000000
_cell_volume 4688.558358
_symmetry_space_group_name_H-M "C M C M"
_symmetry_group_IT_number 63
_symmetry_cell_setting 'orthorhombic'
loop_
_space_group_symop_operation_xyz
x,y,z
-x,-y,1/2+z
x,-y,-z
-x,y,1/2-z
-x,-y,-z
x,y,1/2-z
-x,y,z
x,-y,1/2+z
1/2+x,1/2+y,z
1/2-x,1/2-y,1/2+z
1/2+x,1/2-y,-z
1/2-x,1/2+y,1/2-z
1/2-x,1/2-y,-z
1/2+x,1/2+y,1/2-z
1/2-x,1/2+y,z
1/2+x,1/2-y,1/2+z
loop_
_atom_site_type_symbol
_atom_site_label
_atom_site_fract_x
_atom_site_fract_y
_atom_site_fract_z
Si Si1 0.455153 0.414538 0.633691
Si Si2 0.225674 0.534346 0.750000
Si Si3 0.658848 0.986616 0.059302
Si Si4 0.775670 0.560985 0.359225
Si Si5 0.955064 0.575424 0.194605
Si Si6 0.109981 0.986699 0.441752
O O1 0.500000 0.403213 0.618288
O O2 0.446813 0.634810 0.675306
O O3 0.431068 0.478327 0.584152
O O4 0.438932 0.143099 0.656399
O O5 0.262600 0.339377 0.750000
O O6 0.203543 0.474457 0.803443
O O7 0.627975 0.208640 0.072865
O O8 0.695692 0.021058 0.094398
O O9 0.640477 0.708710 0.073219
O O10 0.671202 0.000000 0.000000
O O11 0.758751 0.852053 0.363733
O O12 0.935707 0.547062 0.250000
O O13 0.000000 0.520645 0.199564
O O14 0.099575 0.000000 0.500000
#
# Coordination Sequence:
#
# PCOD8257440 Si02
#       6
#    16   8  16  16  16  16
#     4  10  19  32  54  79 100 134 182 226 262 309
#     4   8  16  30  50  76 102 132 165 200 255 306
#     4  10  21  36  54  76 107 145 175 211 270 322
#     4  10  19  33  56  82 105 135 174 216 255 305
#     4   9  17  30  50  75 102 131 165 211 268 320
#     4  10  21  37  54  73 104 145 177 213 271 325
#
# _framework density 18.769096000000001
#
# number of rings (size 3 to 8) (size 9 to 14) (size 15 to 20)
#    0.000    2.364    0.000    2.727    0.000    3.273 
#    0.000    0.000   12.000    6.545    0.000    0.000 
#    0.000    0.000    0.000    0.000    0.000    0.000 
#
# Total GULP energy -545424.158930 kJ/mol
# GULP energy per Si atom -12396.003612 kJ/mol
# Density = 1.872638 g / cm^3
# Si number density = 18.769096 Si / 1000 Ang^3
#
#
#
# Elastic Constant Matrix: (Units=GPa)
#
#
# Indices 1 2 3 4 5 6 
#
# 1 49.5258 4.0190 51.2166 0.0000 0.0000 0.0000
# 2 4.0190 73.1615 13.3529 0.0000 0.0000 0.0000
# 3 51.2166 13.3529 99.2926 0.0000 0.0000 0.0000
# 4 0.0000 0.0000 0.0000 18.6380 0.0000 0.0000
# 5 0.0000 0.0000 0.0000 0.0000 10.8919 0.0000
# 6 0.0000 0.0000 0.0000 0.0000 0.0000 3.4527
#
#
#
# Elastic Compliance Matrix: (Units=1/GPa)
#
#
# Indices 1 2 3 4 5 6 
#
# 1 0.043493 0.001748 -0.022669 0.000000 0.000000 0.000000
# 2 0.001748 0.014083 -0.002796 0.000000 0.000000 0.000000
# 3 -0.022669 -0.002796 0.022140 0.000000 0.000000 0.000000
# 4 0.000000 0.000000 0.000000 0.053654 0.000000 0.000000
# 5 0.000000 0.000000 0.000000 0.000000 0.091812 0.000000
# 6 0.000000 0.000000 0.000000 0.000000 0.000000 0.289628
#
#
# Mechanical properties :
#
#
# Convention : Reuss Voigt Hill
#
# Bulk Modulus (GPa) = 30.97659 39.90631 35.44145
# Shear Modulus (GPa) = 8.72594 16.82261 12.77428
#
# Velocity S-wave (km/s) = 2.15852 2.99706 2.61166
# Velocity P-wave (km/s) = 4.76992 5.76926 5.29323
#
# Compressibility (1/GPa) = 0.03228244
#
# Stress axis : x y z
#
# Youngs Moduli (GPa) = 22.99225 71.00967 45.16632
#
# Poissons Ratio (x) = -0.12414 1.02389
# Poissons Ratio (y) = -0.04020 0.12627
# Poissons Ratio (z) = 0.52122 0.19852
#
# Static dielectric constant tensor:
#      x y z
#    x 2.964870 0.000000 0.000000 
#    y 0.000000 4.098950 0.000000 
#    z 0.000000 0.000000 3.706040 
# 
# 
# High freq. dielectric constant tensor:
#      x y z
#    x 1.678590 0.000000 0.000000 
#    y 0.000000 1.754960 0.000000 
#    z 0.000000 0.000000 1.740950 
# 
# From -- ./inp_files/65698.got.cif
#   From: 2010.03.12/outbox.cif.g09.slc.cpg/sg63_33_cif.got.tgz:65698.got - 2010.04.10 19:34:48.
