data_PCOD8257180
_publ_section_title
;
Structure prediction by ZEFSAII (Michael W. Deem and Ramdas Pophale) SiO2 
 PCOD8257180
Probable space group: C M C M
;
_chemical_formula_sum "Si O2"
_cell_formula_units_Z 112
_cell_length_a 29.287686
_cell_length_b 14.205579
_cell_length_c 15.294264
_cell_angle_alpha 90.000000
_cell_angle_beta 90.000000
_cell_angle_gamma 90.000000
_cell_volume 6363.156165
_symmetry_space_group_name_H-M "C M C M"
_symmetry_group_IT_number 63
_symmetry_cell_setting 'orthorhombic'
loop_
_space_group_symop_operation_xyz
x,y,z
-x,-y,1/2+z
x,-y,-z
-x,y,1/2-z
-x,-y,-z
x,y,1/2-z
-x,y,z
x,-y,1/2+z
1/2+x,1/2+y,z
1/2-x,1/2-y,1/2+z
1/2+x,1/2-y,-z
1/2-x,1/2+y,1/2-z
1/2-x,1/2-y,-z
1/2+x,1/2+y,1/2-z
1/2-x,1/2+y,z
1/2+x,1/2-y,1/2+z
loop_
_atom_site_type_symbol
_atom_site_label
_atom_site_fract_x
_atom_site_fract_y
_atom_site_fract_z
Si Si1 0.550114 0.722471 0.350517
Si Si2 0.224181 0.139778 0.150239
Si Si3 0.132781 0.914079 0.434967
Si Si4 0.049199 0.008208 0.395733
Si Si5 0.860079 0.754538 0.937084
Si Si6 0.277513 0.582096 0.847303
Si Si7 0.790306 0.610932 0.996302
O O1 0.546909 0.747772 0.250000
O O2 0.500000 0.747821 0.393233
O O3 0.559968 0.612111 0.362888
O O4 0.594202 0.779433 0.386099
O O5 0.237750 0.169071 0.250000
O O6 0.177881 0.193391 0.122948
O O7 0.216078 0.029092 0.145193
O O8 0.265419 0.157008 0.081180
O O9 0.091337 0.941430 0.368420
O O10 0.118754 0.824900 0.492123
O O11 0.173905 0.877500 0.375408
O O12 0.147003 0.000000 0.500000
O O13 0.000000 0.974509 0.358009
O O14 0.048748 0.000000 0.500000
O O15 0.838185 0.663412 0.983013
O O16 0.264151 0.614324 0.750000
O O17 0.240342 0.628663 0.910512
O O18 0.800180 0.500000 0.000000
#
# Coordination Sequence:
#
# PCOD8257180 Si02
#       7
#    16  16  16  16  16  16  16
#     4  10  20  32  49  78 111 137 169 216 262 313
#     4  10  19  32  52  76 103 135 168 212 263 316
#     4  11  17  29  46  70 102 130 172 215 247 304
#     4   9  16  28  46  68 100 140 169 193 241 309
#     4  12  20  32  53  73  99 141 175 213 262 310
#     4  10  19  32  49  69 102 141 174 210 255 305
#     4  10  22  39  51  71 105 138 180 222 260 307
#
# _framework density 17.601327999999999
#
# number of rings (size 3 to 8) (size 9 to 14) (size 15 to 20)
#    0.000    1.714    5.714    1.286    0.000    2.857 
#    0.000    0.000    0.000    0.429    0.000    0.000 
#    0.000    1.714    0.000    0.286    0.000    0.000 
#
# Total GULP energy -693786.456553 kJ/mol
# GULP energy per Si atom -12389.043867 kJ/mol
# Density = 1.756127 g / cm^3
# Si number density = 17.601328 Si / 1000 Ang^3
#
#
#
# Elastic Constant Matrix: (Units=GPa)
#
#
# Indices 1 2 3 4 5 6 
#
# 1 140.3697 34.0318 39.6471 0.0000 0.0000 0.0000
# 2 34.0318 28.0939 13.4981 0.0000 0.0000 0.0000
# 3 39.6471 13.4981 84.0351 0.0000 0.0000 0.0000
# 4 0.0000 0.0000 0.0000 9.0890 0.0000 0.0000
# 5 0.0000 0.0000 0.0000 0.0000 16.9800 0.0000
# 6 0.0000 0.0000 0.0000 0.0000 0.0000 32.1017
#
#
#
# Elastic Compliance Matrix: (Units=1/GPa)
#
#
# Indices 1 2 3 4 5 6 
#
# 1 0.010852 -0.011580 -0.003260 0.000000 0.000000 0.000000
# 2 -0.011580 0.050928 -0.002717 0.000000 0.000000 0.000000
# 3 -0.003260 -0.002717 0.013874 0.000000 0.000000 0.000000
# 4 0.000000 0.000000 0.000000 0.110023 0.000000 0.000000
# 5 0.000000 0.000000 0.000000 0.000000 0.058893 0.000000
# 6 0.000000 0.000000 0.000000 0.000000 0.000000 0.031151
#
#
# Mechanical properties :
#
#
# Convention : Reuss Voigt Hill
#
# Bulk Modulus (GPa) = 24.66660 47.42807 36.04734
# Shear Modulus (GPa) = 15.41556 22.65560 19.03558
#
# Velocity S-wave (km/s) = 2.96263 3.59158 3.29216
# Velocity P-wave (km/s) = 5.07419 6.64857 5.91401
#
# Compressibility (1/GPa) = 0.04054065
#
# Stress axis : x y z
#
# Youngs Moduli (GPa) = 92.14680 19.63575 72.07587
#
# Poissons Ratio (x) = 0.22738 0.23497
# Poissons Ratio (y) = 1.06703 0.19583
# Poissons Ratio (z) = 0.30040 0.05335
#
# Static dielectric constant tensor:
#      x y z
#    x 3.733370 0.000000 0.000000 
#    y 0.000000 2.930800 0.000000 
#    z 0.000000 0.000000 3.432890 
# 
# 
# High freq. dielectric constant tensor:
#      x y z
#    x 1.683040 0.000000 0.000000 
#    y 0.000000 1.637300 0.000000 
#    z 0.000000 0.000000 1.674770 
# 
# From -- ./inp_files/38703.got.cif
#   From: 2010.03.12/outbox.cif.g09.slc.cpg/sg63_20_cif.got.tgz:38703.got - 2010.04.10 19:34:48.
