data_PCOD8257583
_publ_section_title
;
Structure prediction by ZEFSAII (Michael W. Deem and Ramdas Pophale) SiO2 
 PCOD8257583
Probable space group: C M C M
;
_chemical_formula_sum "Si O2"
_cell_formula_units_Z 120
_cell_length_a 21.188461
_cell_length_b 12.586389
_cell_length_c 24.941562
_cell_angle_alpha 90.000000
_cell_angle_beta 90.000000
_cell_angle_gamma 90.000000
_cell_volume 6651.570703
_symmetry_space_group_name_H-M "C M C M"
_symmetry_group_IT_number 63
_symmetry_cell_setting 'orthorhombic'
loop_
_space_group_symop_operation_xyz
x,y,z
-x,-y,1/2+z
x,-y,-z
-x,y,1/2-z
-x,-y,-z
x,y,1/2-z
-x,y,z
x,-y,1/2+z
1/2+x,1/2+y,z
1/2-x,1/2-y,1/2+z
1/2+x,1/2-y,-z
1/2-x,1/2+y,1/2-z
1/2-x,1/2-y,-z
1/2+x,1/2+y,1/2-z
1/2-x,1/2+y,z
1/2+x,1/2-y,1/2+z
loop_
_atom_site_type_symbol
_atom_site_label
_atom_site_fract_x
_atom_site_fract_y
_atom_site_fract_z
Si Si1 0.178954 0.901770 0.599231
Si Si2 0.709962 0.559505 0.812521
Si Si3 0.071346 0.473606 0.402535
Si Si4 0.658061 0.969660 0.809198
Si Si5 0.356762 0.135839 0.029461
Si Si6 0.294993 0.778016 0.631054
Si Si7 0.747251 0.500000 0.500000
Si Si8 0.928035 0.244477 0.440705
O O1 0.224899 0.800730 0.607962
O O2 0.111180 0.855094 0.582450
O O3 0.174426 0.964949 0.655456
O O4 0.204972 0.983984 0.553392
O O5 0.688238 0.557941 0.750000
O O6 0.785885 0.554751 0.816754
O O7 0.691797 0.664702 0.843979
O O8 0.098851 0.509355 0.346335
O O9 0.109676 0.524746 0.452333
O O10 0.075391 0.346166 0.401993
O O11 0.000000 0.514352 0.407347
O O12 0.630040 0.971768 0.750000
O O13 0.690511 0.857388 0.820441
O O14 0.342925 0.203469 0.082452
O O15 0.292995 0.104239 0.996383
O O16 0.401125 0.215649 0.997314
O O17 0.000000 0.205382 0.448066
#
# Coordination Sequence:
#
# PCOD8257583 Si02
#       8
#    16  16  16  16  16  16   8  16
#     4  10  23  34  54  84 115 144 186 226 281 333
#     4  10  20  36  57  78 107 144 181 230 286 331
#     4  10  19  33  53  77 111 148 182 221 271 336
#     4   9  18  32  50  78 109 136 176 228 278 327
#     4  10  19  33  55  85 110 141 184 224 280 333
#     4   9  19  32  55  82 107 137 176 234 282 333
#     4  10  20  34  56  82 118 144 174 230 284 326
#     4  11  22  36  54  77 113 153 186 223 268 333
#
# _framework density 18.040852000000001
#
# number of rings (size 3 to 8) (size 9 to 14) (size 15 to 20)
#    0.000    2.133    1.333    2.400    3.733    2.933 
#    0.000    1.000    0.000    2.000    0.000    0.000 
#    0.000    0.000    0.000    0.000    0.000    0.000 
#
# Total GULP energy -743687.794585 kJ/mol
# GULP energy per Si atom -12394.796576 kJ/mol
# Density = 1.799979 g / cm^3
# Si number density = 18.040852 Si / 1000 Ang^3
#
#
#
# Elastic Constant Matrix: (Units=GPa)
#
#
# Indices 1 2 3 4 5 6 
#
# 1 101.0570 44.4328 47.6838 0.0000 0.0000 0.0000
# 2 44.4328 73.4544 45.4557 0.0000 0.0000 0.0000
# 3 47.6838 45.4557 111.1884 0.0000 0.0000 0.0000
# 4 0.0000 0.0000 0.0000 23.4045 0.0000 0.0000
# 5 0.0000 0.0000 0.0000 0.0000 12.9937 0.0000
# 6 0.0000 0.0000 0.0000 0.0000 0.0000 26.2991
#
#
#
# Elastic Compliance Matrix: (Units=1/GPa)
#
#
# Indices 1 2 3 4 5 6 
#
# 1 0.014436 -0.006561 -0.003509 0.000000 0.000000 0.000000
# 2 -0.006561 0.021206 -0.005856 0.000000 0.000000 0.000000
# 3 -0.003509 -0.005856 0.012892 0.000000 0.000000 0.000000
# 4 0.000000 0.000000 0.000000 0.042727 0.000000 0.000000
# 5 0.000000 0.000000 0.000000 0.000000 0.076960 0.000000
# 6 0.000000 0.000000 0.000000 0.000000 0.000000 0.038024
#
#
# Mechanical properties :
#
#
# Convention : Reuss Voigt Hill
#
# Bulk Modulus (GPa) = 59.93880 62.31606 61.12743
# Shear Modulus (GPa) = 20.52061 22.41463 21.46762
#
# Velocity S-wave (km/s) = 3.37627 3.52865 3.45330
# Velocity P-wave (km/s) = 6.96384 7.15670 7.06093
#
# Compressibility (1/GPa) = 0.01668368
#
# Stress axis : x y z
#
# Youngs Moduli (GPa) = 69.27294 47.15564 77.56510
#
# Poissons Ratio (x) = 0.30939 0.27214
# Poissons Ratio (y) = 0.45450 0.45421
# Poissons Ratio (z) = 0.24305 0.27614
#
# Static dielectric constant tensor:
#      x y z
#    x 3.195080 0.000000 0.000000 
#    y 0.000000 3.161370 0.000000 
#    z 0.000000 0.000000 3.411870 
# 
# 
# High freq. dielectric constant tensor:
#      x y z
#    x 1.675240 0.000000 0.000000 
#    y 0.000000 1.686170 0.000000 
#    z 0.000000 0.000000 1.705620 
# 
# From -- ./inp_files/64684.got.cif
#   From: 2010.03.12/outbox.cif.g09.slc.cpg/sg63_33_cif.got.tgz:64684.got - 2010.04.10 19:34:48.
