data_PCOD8257135
_publ_section_title
;
Structure prediction by ZEFSAII (Michael W. Deem and Ramdas Pophale) SiO2 
 PCOD8257135
Probable space group: C M C M
;
_chemical_formula_sum "Si O2"
_cell_formula_units_Z 80
_cell_length_a 9.052029
_cell_length_b 19.853513
_cell_length_c 24.944574
_cell_angle_alpha 90.000000
_cell_angle_beta 90.000000
_cell_angle_gamma 90.000000
_cell_volume 4482.903526
_symmetry_space_group_name_H-M "C M C M"
_symmetry_group_IT_number 63
_symmetry_cell_setting 'orthorhombic'
loop_
_space_group_symop_operation_xyz
x,y,z
-x,-y,1/2+z
x,-y,-z
-x,y,1/2-z
-x,-y,-z
x,y,1/2-z
-x,y,z
x,-y,1/2+z
1/2+x,1/2+y,z
1/2-x,1/2-y,1/2+z
1/2+x,1/2-y,-z
1/2-x,1/2+y,1/2-z
1/2-x,1/2-y,-z
1/2+x,1/2+y,1/2-z
1/2-x,1/2+y,z
1/2+x,1/2-y,1/2+z
loop_
_atom_site_type_symbol
_atom_site_label
_atom_site_fract_x
_atom_site_fract_y
_atom_site_fract_z
Si Si1 0.330233 0.678436 0.686998
Si Si2 0.829706 0.186503 0.311501
Si Si3 0.662769 0.079835 0.496430
Si Si4 0.175036 0.572197 0.886173
Si Si5 0.672766 0.569681 0.107182
O O1 0.309709 0.668143 0.750000
O O2 0.500000 0.673734 0.669402
O O3 0.268215 0.750797 0.669233
O O4 0.238534 0.619907 0.659194
O O5 0.796331 0.167588 0.250000
O O6 0.786451 0.122309 0.346654
O O7 0.000000 0.206688 0.319759
O O8 0.500000 0.109220 0.482908
O O9 0.715893 0.104121 0.555412
O O10 0.776177 0.101302 0.449909
O O11 0.652910 0.000000 0.500000
O O12 0.243184 0.498490 0.878596
O O13 0.000000 0.565400 0.880044
O O14 0.500000 0.554419 0.104215
#
# Coordination Sequence:
#
# PCOD8257135 Si02
#       5
#    16  16  16  16  16
#     4  10  21  36  54  76 101 130 167 211 255 299
#     4   9  19  36  54  72 100 136 168 202 250 304
#     4   8  16  31  49  71 101 135 168 205 250 298
#     4  10  20  34  53  76 103 136 171 206 249 301
#     4  10  19  31  52  80 105 132 169 211 253 297
#
# _framework density 17.845578
#
# number of rings (size 3 to 8) (size 9 to 14) (size 15 to 20)
#    0.000    2.600    0.000    3.000    0.000    8.000 
#    0.000    3.000    0.000    0.000    0.000    0.000 
#    0.000    0.000    0.000    0.000    0.000    0.000 
#
# Total GULP energy -495950.492503 kJ/mol
# GULP energy per Si atom -12398.762313 kJ/mol
# Density = 1.780496 g / cm^3
# Si number density = 17.845578 Si / 1000 Ang^3
#
#
#
# Elastic Constant Matrix: (Units=GPa)
#
#
# Indices 1 2 3 4 5 6 
#
# 1 107.2811 65.1027 58.7648 0.0000 0.0000 0.0000
# 2 65.1027 93.7950 61.4309 0.0000 0.0000 0.0000
# 3 58.7648 61.4309 84.7822 0.0000 0.0000 0.0000
# 4 0.0000 0.0000 0.0000 0.8519 0.0000 0.0000
# 5 0.0000 0.0000 0.0000 0.0000 32.7242 0.0000
# 6 0.0000 0.0000 0.0000 0.0000 0.0000 29.4821
#
#
#
# Elastic Compliance Matrix: (Units=1/GPa)
#
#
# Indices 1 2 3 4 5 6 
#
# 1 0.017776 -0.008124 -0.006435 0.000000 0.000000 0.000000
# 2 -0.008124 0.024003 -0.011761 0.000000 0.000000 0.000000
# 3 -0.006435 -0.011761 0.024777 0.000000 0.000000 0.000000
# 4 0.000000 0.000000 0.000000 1.173889 0.000000 0.000000
# 5 0.000000 0.000000 0.000000 0.000000 0.030558 0.000000
# 6 0.000000 0.000000 0.000000 0.000000 0.000000 0.033919
#
#
# Mechanical properties :
#
#
# Convention : Reuss Voigt Hill
#
# Bulk Modulus (GPa) = 71.85702 72.93947 72.39825
# Shear Modulus (GPa) = 3.67053 19.31564 11.49309
#
# Velocity S-wave (km/s) = 1.43572 3.29352 2.54053
# Velocity P-wave (km/s) = 6.56520 7.44475 7.01877
#
# Compressibility (1/GPa) = 0.01391652
#
# Stress axis : x y z
#
# Youngs Moduli (GPa) = 56.25621 41.66101 40.36020
#
# Poissons Ratio (x) = 0.33844 0.25970
# Poissons Ratio (y) = 0.45701 0.47469
# Poissons Ratio (z) = 0.36199 0.48999
#
# Static dielectric constant tensor:
#      x y z
#    x 3.422430 0.000000 0.000000 
#    y 0.000000 3.047750 0.000000 
#    z 0.000000 0.000000 3.675840 
# 
# 
# High freq. dielectric constant tensor:
#      x y z
#    x 1.700600 0.000000 0.000000 
#    y 0.000000 1.665830 0.000000 
#    z 0.000000 0.000000 1.698030 
# 
# From -- ./inp_files/71568.got.cif
#   From: 2010.03.12/outbox.cif.g09.slc.cpg/sg63_36_cif.got.tgz:71568.got - 2010.04.10 19:34:48.
