data_PCOD8257276
_publ_section_title
;
Structure prediction by ZEFSAII (Michael W. Deem and Ramdas Pophale) SiO2 
 PCOD8257276
Probable space group: C M C M
;
_chemical_formula_sum "Si O2"
_cell_formula_units_Z 104
_cell_length_a 20.254908
_cell_length_b 31.844761
_cell_length_c 9.014116
_cell_angle_alpha 90.000000
_cell_angle_beta 90.000000
_cell_angle_gamma 90.000000
_cell_volume 5814.219338
_symmetry_space_group_name_H-M "C M C M"
_symmetry_group_IT_number 63
_symmetry_cell_setting 'orthorhombic'
loop_
_space_group_symop_operation_xyz
x,y,z
-x,-y,1/2+z
x,-y,-z
-x,y,1/2-z
-x,-y,-z
x,y,1/2-z
-x,y,z
x,-y,1/2+z
1/2+x,1/2+y,z
1/2-x,1/2-y,1/2+z
1/2+x,1/2-y,-z
1/2-x,1/2+y,1/2-z
1/2-x,1/2-y,-z
1/2+x,1/2+y,1/2-z
1/2-x,1/2+y,z
1/2+x,1/2-y,1/2+z
loop_
_atom_site_type_symbol
_atom_site_label
_atom_site_fract_x
_atom_site_fract_y
_atom_site_fract_z
Si Si1 0.074139 0.313012 0.580363
Si Si2 0.075293 0.773177 0.924746
Si Si3 0.761347 0.541876 0.075543
Si Si4 0.680948 0.332287 0.081320
Si Si5 0.197412 0.633306 0.422702
Si Si6 0.500000 0.543724 0.576417
Si Si7 0.138913 0.073139 0.582083
O O1 0.083498 0.297822 0.750000
O O2 0.089687 0.274320 0.473424
O O3 0.123485 0.351163 0.543369
O O4 0.000000 0.330023 0.553848
O O5 0.084316 0.776723 0.750000
O O6 0.000000 0.785805 0.971436
O O7 0.129686 0.802054 0.000749
O O8 0.766531 0.535840 0.250000
O O9 0.798088 0.584759 0.021798
O O10 0.792523 0.500000 0.000000
O O11 0.685323 0.546144 0.025793
O O12 0.690309 0.316773 0.250000
O O13 0.651234 0.378057 0.072413
O O14 0.752546 0.334528 0.003621
O O15 0.215658 0.634850 0.250000
O O16 0.500000 0.500000 0.500000
O O17 0.500000 0.536754 0.750000
O O18 0.564456 0.568720 0.524816
O O19 0.149360 0.056439 0.750000
#
# Coordination Sequence:
#
# PCOD8257276 Si02
#       7
#    16  16  16  16  16   8  16
#     4   9  18  35  58  80 100 129 169 208 251 306
#     4  10  21  35  51  74 105 139 173 212 256 302
#     4  10  19  32  51  73  99 129 162 201 247 298
#     4  10  20  33  52  75 100 134 175 215 254 298
#     4   9  19  35  54  77 105 132 164 210 258 302
#     4  10  20  32  44  62  88 120 160 206 252 294
#     4   9  19  33  48  67  93 126 166 210 253 293
#
# _framework density 17.887181999999999
#
# number of rings (size 3 to 8) (size 9 to 14) (size 15 to 20)
#    0.000    2.462    0.000    1.846    1.077    5.231 
#    0.000    0.000    0.000    0.462    0.000    0.000 
#    0.000    0.000    0.000    0.000    0.000    0.462 
#
# Total GULP energy -644664.377280 kJ/mol
# GULP energy per Si atom -12397.391871 kJ/mol
# Density = 1.784647 g / cm^3
# Si number density = 17.887182 Si / 1000 Ang^3
#
#
#
# Elastic Constant Matrix: (Units=GPa)
#
#
# Indices 1 2 3 4 5 6 
#
# 1 111.7762 59.2174 42.9043 0.0000 0.0000 0.0000
# 2 59.2174 86.1518 41.9167 0.0000 0.0000 0.0000
# 3 42.9043 41.9167 70.5929 0.0000 0.0000 0.0000
# 4 0.0000 0.0000 0.0000 28.6137 0.0000 0.0000
# 5 0.0000 0.0000 0.0000 0.0000 22.3780 0.0000
# 6 0.0000 0.0000 0.0000 0.0000 0.0000 17.7381
#
#
#
# Elastic Compliance Matrix: (Units=1/GPa)
#
#
# Indices 1 2 3 4 5 6 
#
# 1 0.014900 -0.008206 -0.004183 0.000000 0.000000 0.000000
# 2 -0.008206 0.020843 -0.007389 0.000000 0.000000 0.000000
# 3 -0.004183 -0.007389 0.021095 0.000000 0.000000 0.000000
# 4 0.000000 0.000000 0.000000 0.034948 0.000000 0.000000
# 5 0.000000 0.000000 0.000000 0.000000 0.044687 0.000000
# 6 0.000000 0.000000 0.000000 0.000000 0.000000 0.056376
#
#
# Mechanical properties :
#
#
# Convention : Reuss Voigt Hill
#
# Bulk Modulus (GPa) = 57.86267 61.84419 59.85343
# Shear Modulus (GPa) = 20.99389 22.04479 21.51934
#
# Velocity S-wave (km/s) = 3.42962 3.51441 3.47228
# Velocity P-wave (km/s) = 6.93556 7.14967 7.04343
#
# Compressibility (1/GPa) = 0.01728230
#
# Stress axis : x y z
#
# Youngs Moduli (GPa) = 67.11631 47.97790 47.40428
#
# Poissons Ratio (x) = 0.39372 0.19828
# Poissons Ratio (y) = 0.55077 0.35025
# Poissons Ratio (z) = 0.28073 0.35449
#
# Static dielectric constant tensor:
#      x y z
#    x 3.379480 0.000000 0.000000 
#    y 0.000000 3.331990 0.000000 
#    z 0.000000 0.000000 3.254910 
# 
# 
# High freq. dielectric constant tensor:
#      x y z
#    x 1.682630 0.000000 0.000000 
#    y 0.000000 1.687940 0.000000 
#    z 0.000000 0.000000 1.695530 
# 
# From -- ./inp_files/8804.got.cif
#   From: 2010.03.12/outbox.cif.g09.slc.cpg/sg63_5_cif.got.tgz:8804.got - 2010.04.10 19:34:48.
