data_PCOD8257768
_publ_section_title
;
Structure prediction by ZEFSAII (Michael W. Deem and Ramdas Pophale) SiO2 
 PCOD8257768
Probable space group: C M C M
;
_chemical_formula_sum "Si O2"
_cell_formula_units_Z 96
_cell_length_a 25.417668
_cell_length_b 23.712941
_cell_length_c 9.050854
_cell_angle_alpha 90.000000
_cell_angle_beta 90.000000
_cell_angle_gamma 90.000000
_cell_volume 5455.200067
_symmetry_space_group_name_H-M "C M C M"
_symmetry_group_IT_number 63
_symmetry_cell_setting 'orthorhombic'
loop_
_space_group_symop_operation_xyz
x,y,z
-x,-y,1/2+z
x,-y,-z
-x,y,1/2-z
-x,-y,-z
x,y,1/2-z
-x,y,z
x,-y,1/2+z
1/2+x,1/2+y,z
1/2-x,1/2-y,1/2+z
1/2+x,1/2-y,-z
1/2-x,1/2+y,1/2-z
1/2-x,1/2-y,-z
1/2+x,1/2+y,1/2-z
1/2-x,1/2+y,z
1/2+x,1/2-y,1/2+z
loop_
_atom_site_type_symbol
_atom_site_label
_atom_site_fract_x
_atom_site_fract_y
_atom_site_fract_z
Si Si1 0.157246 0.127599 0.421575
Si Si2 0.558843 0.443343 0.578178
Si Si3 0.805957 0.249756 0.423144
Si Si4 0.747744 0.560211 0.925357
Si Si5 0.940661 0.558241 0.924112
Si Si6 0.653459 0.867150 0.075180
O O1 0.171399 0.116702 0.250000
O O2 0.097793 0.108324 0.458282
O O3 0.161556 0.193544 0.461581
O O4 0.195706 0.092236 0.524176
O O5 0.579235 0.500000 0.500000
O O6 0.558858 0.457024 0.750000
O O7 0.500000 0.426920 0.523686
O O8 0.795186 0.255485 0.250000
O O9 0.750000 0.250000 0.500000
O O10 0.839946 0.302999 0.482069
O O11 0.746630 0.553099 0.750000
O O12 0.797864 0.595561 0.981797
O O13 0.750633 0.500000 0.000000
O O14 0.934836 0.549272 0.750000
O O15 0.901416 0.606802 0.983747
O O16 0.000000 0.576065 0.967312
O O17 0.924437 0.500000 0.000000
O O18 0.652819 0.867750 0.250000
#
# Coordination Sequence:
#
# PCOD8257768 Si02
#       6
#    16  16  16  16  16  16
#     4  10  20  33  51  74  99 128 165 206 245 294
#     4   9  18  33  51  72  98 128 161 199 245 293
#     4  10  19  34  52  71  98 132 168 203 244 293
#     4  11  21  32  48  71 101 131 160 202 250 297
#     4   9  17  31  51  73  98 129 164 202 246 294
#     4   9  18  32  49  71  99 129 162 202 245 290
#
# _framework density 17.597888999999999
#
# number of rings (size 3 to 8) (size 9 to 14) (size 15 to 20)
#    0.000    2.333    1.667    1.500    0.000    2.000 
#    0.000    2.500    0.000    5.000    0.000    0.000 
#    0.000    6.667    0.000    0.000    0.000    0.000 
#
# Total GULP energy -595150.187004 kJ/mol
# GULP energy per Si atom -12398.962229 kJ/mol
# Density = 1.755784 g / cm^3
# Si number density = 17.597889 Si / 1000 Ang^3
#
#
#
# Elastic Constant Matrix: (Units=GPa)
#
#
# Indices 1 2 3 4 5 6 
#
# 1 126.8699 85.9957 26.3951 0.0000 0.0000 0.0000
# 2 85.9957 167.9809 35.2968 0.0000 0.0000 0.0000
# 3 26.3951 35.2968 34.0507 0.0000 0.0000 0.0000
# 4 0.0000 0.0000 0.0000 -5.8612 0.0000 0.0000
# 5 0.0000 0.0000 0.0000 0.0000 22.2402 0.0000
# 6 0.0000 0.0000 0.0000 0.0000 0.0000 30.1630
#
#
#
# Elastic Compliance Matrix: (Units=1/GPa)
#
#
# Indices 1 2 3 4 5 6 
#
# 1 0.012462 -0.005561 -0.003895 0.000000 0.000000 0.000000
# 2 -0.005561 0.010093 -0.006151 0.000000 0.000000 0.000000
# 3 -0.003895 -0.006151 0.038764 0.000000 0.000000 0.000000
# 4 0.000000 0.000000 0.000000 -0.170614 0.000000 0.000000
# 5 0.000000 0.000000 0.000000 0.000000 0.044964 0.000000
# 6 0.000000 0.000000 0.000000 0.000000 0.000000 0.033153
#
#
# Mechanical properties :
#
#
# Convention : Reuss Voigt Hill
#
# Bulk Modulus (GPa) = 33.21935 69.36408 51.29172
# Shear Modulus (GPa) = 496.45975 21.38931 258.92453
#
# Velocity S-wave (km/s) = 16.81445 3.49011 12.14303
# Velocity P-wave (km/s) = 19.89687 7.46611 15.02711
#
# Compressibility (1/GPa) = 0.03010294
#
# Stress axis : x y z
#
# Youngs Moduli (GPa) = 80.24308 99.08280 25.79736
#
# Poissons Ratio (x) = 0.55103 0.10049
# Poissons Ratio (y) = 0.44626 0.15868
# Poissons Ratio (z) = 0.31258 0.60945
#
# Static dielectric constant tensor:
#      x y z
#    x 3.571610 0.000000 0.000000 
#    y 0.000000 3.611760 0.000000 
#    z 0.000000 0.000000 3.127000 
# 
# 
# High freq. dielectric constant tensor:
#      x y z
#    x 1.682820 0.000000 0.000000 
#    y 0.000000 1.683340 0.000000 
#    z 0.000000 0.000000 1.663020 
# 
# From -- ./inp_files/10461.got.cif
#   From: 2010.03.12/outbox.cif.g09.slc.cpg/sg63_6_cif.got.tgz:10461.got - 2010.04.10 19:34:48.
