data_PCOD8257458
_publ_section_title
;
Structure prediction by ZEFSAII (Michael W. Deem and Ramdas Pophale) SiO2 
 PCOD8257458
Probable space group: C M C M
;
_chemical_formula_sum "Si O2"
_cell_formula_units_Z 48
_cell_length_a 9.048308
_cell_length_b 18.136340
_cell_length_c 15.565266
_cell_angle_alpha 90.000000
_cell_angle_beta 90.000000
_cell_angle_gamma 90.000000
_cell_volume 2554.309809
_symmetry_space_group_name_H-M "C M C M"
_symmetry_group_IT_number 63
_symmetry_cell_setting 'orthorhombic'
loop_
_space_group_symop_operation_xyz
x,y,z
-x,-y,1/2+z
x,-y,-z
-x,y,1/2-z
-x,-y,-z
x,y,1/2-z
-x,y,z
x,-y,1/2+z
1/2+x,1/2+y,z
1/2-x,1/2-y,1/2+z
1/2+x,1/2-y,-z
1/2-x,1/2+y,1/2-z
1/2-x,1/2-y,-z
1/2+x,1/2+y,1/2-z
1/2-x,1/2+y,z
1/2+x,1/2-y,1/2+z
loop_
_atom_site_type_symbol
_atom_site_label
_atom_site_fract_x
_atom_site_fract_y
_atom_site_fract_z
Si Si1 0.328197 0.457560 0.915571
Si Si2 0.674946 0.207973 0.750000
Si Si3 0.170509 0.945563 0.250000
Si Si4 0.665456 0.824604 0.845020
O O1 0.500000 0.437802 0.921233
O O2 0.292588 0.507169 0.833641
O O3 0.241310 0.380475 0.911179
O O4 0.273165 0.500000 0.000000
O O5 0.500000 0.215271 0.750000
O O6 0.722026 0.123724 0.750000
O O7 0.740930 0.248388 0.664364
O O8 0.000000 0.919419 0.250000
O O9 0.660592 0.862050 0.750000
O O10 0.500000 0.806102 0.877549
#
# Coordination Sequence:
#
# PCOD8257458 Si02
#       4
#    16   8   8  16
#     4  10  20  34  56  83 108 140 180 218 262 317
#     4  10  19  32  55  79 103 139 181 220 265 318
#     4  10  19  34  53  77 111 139 169 220 267 310
#     4   9  18  33  54  77 104 138 175 214 264 316
#
# _framework density 18.79177
#
# number of rings (size 3 to 8) (size 9 to 14) (size 15 to 20)
#    1.000    1.333    1.667    2.000    0.000    2.000 
#    0.000    1.667    0.000    0.000    0.000    0.000 
#    0.000    0.000    0.000    0.000    0.000    0.000 
#
# Total GULP energy -297474.340444 kJ/mol
# GULP energy per Si atom -12394.764185 kJ/mol
# Density = 1.874900 g / cm^3
# Si number density = 18.791770 Si / 1000 Ang^3
#
#
#
# Elastic Constant Matrix: (Units=GPa)
#
#
# Indices 1 2 3 4 5 6 
#
# 1 116.1756 44.6662 12.6894 0.0000 0.0000 0.0000
# 2 44.6662 63.9388 9.4153 0.0000 0.0000 0.0000
# 3 12.6894 9.4153 76.0206 0.0000 0.0000 0.0000
# 4 0.0000 0.0000 0.0000 -0.0456 0.0000 0.0000
# 5 0.0000 0.0000 0.0000 0.0000 14.4455 0.0000
# 6 0.0000 0.0000 0.0000 0.0000 0.0000 36.1744
#
#
#
# Elastic Compliance Matrix: (Units=1/GPa)
#
#
# Indices 1 2 3 4 5 6 
#
# 1 0.011838 -0.008127 -0.000969 0.000000 0.000000 0.000000
# 2 -0.008127 0.021510 -0.001307 0.000000 0.000000 0.000000
# 3 -0.000969 -0.001307 0.013478 0.000000 0.000000 0.000000
# 4 0.000000 0.000000 0.000000-21.924798 0.000000 0.000000
# 5 0.000000 0.000000 0.000000 0.000000 0.069226 0.000000
# 6 0.000000 0.000000 0.000000 0.000000 0.000000 0.027644
#
#
# Mechanical properties :
#
#
# Convention : Reuss Voigt Hill
#
# Bulk Modulus (GPa) = 38.43484 43.29741 40.86613
# Shear Modulus (GPa) = -0.22987 22.73914 11.25464
#
# Velocity S-wave (km/s) = -0.35013 3.48236 2.44993
# Velocity P-wave (km/s) = 4.50932 6.26576 5.45865
#
# Compressibility (1/GPa) = 0.02601806
#
# Stress axis : x y z
#
# Youngs Moduli (GPa) = 84.47232 46.49023 74.19452
#
# Poissons Ratio (x) = 0.37783 0.07193
# Poissons Ratio (y) = 0.68652 0.09701
# Poissons Ratio (z) = 0.08189 0.06078
#
# Static dielectric constant tensor:
#      x y z
#    x 3.368660 0.000000 0.000000 
#    y 0.000000 3.186710 0.000000 
#    z 0.000000 0.000000 3.253570 
# 
# 
# High freq. dielectric constant tensor:
#      x y z
#    x 1.732470 0.000000 0.000000 
#    y 0.000000 1.723130 0.000000 
#    z 0.000000 0.000000 1.699120 
# 
# From -- ./inp_files/26970.got.cif
#   From: 2010.03.12/outbox.cif.g09.slc.cpg/sg63_14_cif.got.tgz:26970.got - 2010.04.10 19:34:48.
