data_PCOD8257500
_publ_section_title
;
Structure prediction by ZEFSAII (Michael W. Deem and Ramdas Pophale) SiO2 
 PCOD8257500
Probable space group: C M C M
;
_chemical_formula_sum "Si O2"
_cell_formula_units_Z 128
_cell_length_a 9.727879
_cell_length_b 25.495337
_cell_length_c 28.677313
_cell_angle_alpha 90.000000
_cell_angle_beta 90.000000
_cell_angle_gamma 90.000000
_cell_volume 7112.419654
_symmetry_space_group_name_H-M "C M C M"
_symmetry_group_IT_number 63
_symmetry_cell_setting 'orthorhombic'
loop_
_space_group_symop_operation_xyz
x,y,z
-x,-y,1/2+z
x,-y,-z
-x,y,1/2-z
-x,-y,-z
x,y,1/2-z
-x,y,z
x,-y,1/2+z
1/2+x,1/2+y,z
1/2-x,1/2-y,1/2+z
1/2+x,1/2-y,-z
1/2-x,1/2+y,1/2-z
1/2-x,1/2-y,-z
1/2+x,1/2+y,1/2-z
1/2-x,1/2+y,z
1/2+x,1/2-y,1/2+z
loop_
_atom_site_type_symbol
_atom_site_label
_atom_site_fract_x
_atom_site_fract_y
_atom_site_fract_z
Si Si1 0.753961 0.916474 0.801257
Si Si2 0.662781 0.242942 0.103600
Si Si3 0.348860 0.434922 0.898881
Si Si4 0.347163 0.029729 0.697679
Si Si5 0.834305 0.162958 0.454728
Si Si6 0.835426 0.049086 0.614655
Si Si7 0.157076 0.301793 0.800364
Si Si8 0.159897 0.148373 0.940693
O O1 0.827841 0.915873 0.750000
O O2 0.860786 0.920064 0.843953
O O3 0.665727 0.864030 0.808380
O O4 0.654402 0.966420 0.804887
O O5 0.500000 0.229401 0.097893
O O6 0.754051 0.212012 0.066410
O O7 0.720132 0.229388 0.155526
O O8 0.691479 0.304074 0.094411
O O9 0.500000 0.438330 0.920058
O O10 0.275948 0.389034 0.928349
O O11 0.282829 0.492812 0.905767
O O12 0.313585 0.048653 0.750000
O O13 0.500000 0.047595 0.682753
O O14 0.234396 0.057231 0.664970
O O15 0.781869 0.159136 0.507870
O O16 0.000000 0.170634 0.449530
O O17 0.779630 0.094667 0.580777
O O18 0.000000 0.049823 0.621734
O O19 0.227052 0.286723 0.750000
O O20 0.000000 0.285294 0.797495
O O21 0.000000 0.139455 0.946662
#
# Coordination Sequence:
#
# PCOD8257500 Si02
#       8
#    16  16  16  16  16  16  16  16
#     4   9  15  25  42  66  96 127 156 187 231 288
#     4  10  19  33  52  74  97 124 161 204 242 285
#     4   9  17  28  45  70  97 126 160 196 240 288
#     4   9  17  29  47  72  99 127 160 197 240 291
#     4  10  19  33  51  73  99 127 160 202 252 298
#     4   9  18  33  49  69  97 130 167 203 238 283
#     4   9  16  26  43  67  94 122 152 188 233 284
#     4   9  19  34  52  71  95 128 168 208 243 284
#
# _framework density 17.996687999999999
#
# number of rings (size 3 to 8) (size 9 to 14) (size 15 to 20)
#    0.000    2.750    1.250    0.750    0.000    2.500 
#    0.000    6.875    0.000    2.625    0.000    2.625 
#    0.000    0.000    0.000    0.000    0.000    0.000 
#
# Total GULP energy -792849.542932 kJ/mol
# GULP energy per Si atom -12388.274108 kJ/mol
# Density = 1.795573 g / cm^3
# Si number density = 17.996688 Si / 1000 Ang^3
#
#
#
# Elastic Constant Matrix: (Units=GPa)
#
#
# Indices 1 2 3 4 5 6 
#
# 1 35.2816 13.0372 17.2298 0.0000 0.0000 0.0000
# 2 13.0372 88.3941 55.4061 0.0000 0.0000 0.0000
# 3 17.2298 55.4061 125.7850 0.0000 0.0000 0.0000
# 4 0.0000 0.0000 0.0000 23.8556 0.0000 0.0000
# 5 0.0000 0.0000 0.0000 0.0000 21.9713 0.0000
# 6 0.0000 0.0000 0.0000 0.0000 0.0000 16.7245
#
#
#
# Elastic Compliance Matrix: (Units=1/GPa)
#
#
# Indices 1 2 3 4 5 6 
#
# 1 0.030809 -0.002623 -0.003065 0.000000 0.000000 0.000000
# 2 -0.002623 0.015851 -0.006623 0.000000 0.000000 0.000000
# 3 -0.003065 -0.006623 0.011287 0.000000 0.000000 0.000000
# 4 0.000000 0.000000 0.000000 0.041919 0.000000 0.000000
# 5 0.000000 0.000000 0.000000 0.000000 0.045514 0.000000
# 6 0.000000 0.000000 0.000000 0.000000 0.000000 0.059792
#
#
# Mechanical properties :
#
#
# Convention : Reuss Voigt Hill
#
# Bulk Modulus (GPa) = 30.00637 46.75631 38.38134
# Shear Modulus (GPa) = 20.75527 23.42947 22.09237
#
# Velocity S-wave (km/s) = 3.39969 3.61207 3.50748
# Velocity P-wave (km/s) = 5.66745 6.59037 6.14625
#
# Compressibility (1/GPa) = 0.03332626
#
# Stress axis : x y z
#
# Youngs Moduli (GPa) = 32.45770 63.08725 88.59657
#
# Poissons Ratio (x) = 0.16548 0.27153
# Poissons Ratio (y) = 0.08514 0.58676
# Poissons Ratio (z) = 0.09948 0.41782
#
# Static dielectric constant tensor:
#      x y z
#    x 2.927110 0.000000 0.000000 
#    y 0.000000 3.325940 0.000000 
#    z 0.000000 0.000000 3.690400 
# 
# 
# High freq. dielectric constant tensor:
#      x y z
#    x 1.651620 0.000000 0.000000 
#    y 0.000000 1.687020 0.000000 
#    z 0.000000 0.000000 1.706540 
# 
# From -- ./inp_files/62044.got.cif
#   From: 2010.03.12/outbox.cif.g09.slc.cpg/sg63_32_cif.got.tgz:62044.got - 2010.04.10 19:34:48.
