data_PCOD8257763
_publ_section_title
;
Structure prediction by ZEFSAII (Michael W. Deem and Ramdas Pophale) SiO2 
 PCOD8257763
Probable space group: C M C M
;
_chemical_formula_sum "Si O2"
_cell_formula_units_Z 96
_cell_length_a 25.839011
_cell_length_b 14.958891
_cell_length_c 14.771983
_cell_angle_alpha 90.000000
_cell_angle_beta 90.000000
_cell_angle_gamma 90.000000
_cell_volume 5709.710433
_symmetry_space_group_name_H-M "C M C M"
_symmetry_group_IT_number 63
_symmetry_cell_setting 'orthorhombic'
loop_
_space_group_symop_operation_xyz
x,y,z
-x,-y,1/2+z
x,-y,-z
-x,y,1/2-z
-x,-y,-z
x,y,1/2-z
-x,y,z
x,-y,1/2+z
1/2+x,1/2+y,z
1/2-x,1/2-y,1/2+z
1/2+x,1/2-y,-z
1/2-x,1/2+y,1/2-z
1/2-x,1/2-y,-z
1/2+x,1/2+y,1/2-z
1/2-x,1/2+y,z
1/2+x,1/2-y,1/2+z
loop_
_atom_site_type_symbol
_atom_site_label
_atom_site_fract_x
_atom_site_fract_y
_atom_site_fract_z
Si Si1 0.742300 0.990389 0.893782
Si Si2 0.635792 0.078129 0.432916
Si Si3 0.059498 0.703868 0.146074
Si Si4 0.313929 0.331084 0.851652
Si Si5 0.140156 0.770112 0.021765
Si Si6 0.268919 0.316138 0.149463
O O1 0.685341 0.950427 0.873015
O O2 0.787283 0.927829 0.854119
O O3 0.744270 0.085814 0.845999
O O4 0.750096 0.000000 0.000000
O O5 0.588465 0.107811 0.367328
O O6 0.653055 0.164727 0.492504
O O7 0.617123 0.000000 0.500000
O O8 0.065376 0.735131 0.250000
O O9 0.085832 0.776904 0.077971
O O10 0.000000 0.692806 0.118586
O O11 0.335136 0.314129 0.750000
O O12 0.272901 0.256327 0.882981
O O13 0.361100 0.320767 0.924296
O O14 0.183475 0.818141 0.081569
O O15 0.288076 0.289097 0.250000
#
# Coordination Sequence:
#
# PCOD8257763 Si02
#       6
#    16  16  16  16  16  16
#     4  11  19  31  49  73 107 145 178 205 253 315
#     4   9  19  31  51  74 104 141 173 214 257 313
#     4   9  19  35  57  79  99 133 180 226 273 315
#     4  11  20  32  48  71 105 142 179 214 253 311
#     4  10  19  34  51  70 104 136 168 217 263 301
#     4  11  21  31  48  73 103 141 178 213 258 309
#
# _framework density 16.813462999999999
#
# number of rings (size 3 to 8) (size 9 to 14) (size 15 to 20)
#    1.000    0.833    3.333    3.500    0.000    1.667 
#    0.000    0.833    0.000    0.500    0.000    2.333 
#    0.000    2.667    0.000    0.000    0.000    0.167 
#
# Total GULP energy -594800.483368 kJ/mol
# GULP energy per Si atom -12391.676737 kJ/mol
# Density = 1.677519 g / cm^3
# Si number density = 16.813463 Si / 1000 Ang^3
#
#
#
# Elastic Constant Matrix: (Units=GPa)
#
#
# Indices 1 2 3 4 5 6 
#
# 1 86.7771 18.0254 45.9071 0.0000 0.0000 0.0000
# 2 18.0254 59.4894 4.0914 0.0000 0.0000 0.0000
# 3 45.9071 4.0914 100.2912 0.0000 0.0000 0.0000
# 4 0.0000 0.0000 0.0000 18.3953 0.0000 0.0000
# 5 0.0000 0.0000 0.0000 0.0000 18.4225 0.0000
# 6 0.0000 0.0000 0.0000 0.0000 0.0000 18.1737
#
#
#
# Elastic Compliance Matrix: (Units=1/GPa)
#
#
# Indices 1 2 3 4 5 6 
#
# 1 0.016296 -0.004437 -0.007278 0.000000 0.000000 0.000000
# 2 -0.004437 0.018065 0.001294 0.000000 0.000000 0.000000
# 3 -0.007278 0.001294 0.013250 0.000000 0.000000 0.000000
# 4 0.000000 0.000000 0.000000 0.054362 0.000000 0.000000
# 5 0.000000 0.000000 0.000000 0.000000 0.054282 0.000000
# 6 0.000000 0.000000 0.000000 0.000000 0.000000 0.055025
#
#
# Mechanical properties :
#
#
# Convention : Reuss Voigt Hill
#
# Bulk Modulus (GPa) = 37.35781 42.51173 39.93477
# Shear Modulus (GPa) = 20.74312 22.90054 21.82183
#
# Velocity S-wave (km/s) = 3.51625 3.69458 3.60652
# Velocity P-wave (km/s) = 6.22515 6.59842 6.41450
#
# Compressibility (1/GPa) = 0.02676816
#
# Stress axis : x y z
#
# Youngs Moduli (GPa) = 61.36559 55.35519 75.47354
#
# Poissons Ratio (x) = 0.24562 0.54931
# Poissons Ratio (y) = 0.27228 -0.09767
# Poissons Ratio (z) = 0.44663 -0.07163
#
# Static dielectric constant tensor:
#      x y z
#    x 2.842270 0.000000 0.000000 
#    y 0.000000 3.082600 0.000000 
#    z 0.000000 0.000000 3.224600 
# 
# 
# High freq. dielectric constant tensor:
#      x y z
#    x 1.603540 0.000000 0.000000 
#    y 0.000000 1.639450 0.000000 
#    z 0.000000 0.000000 1.655890 
# 
# From -- ./inp_files/38638.got.cif
#   From: 2010.03.12/outbox.cif.g09.slc.cpg/sg63_20_cif.got.tgz:38638.got - 2010.04.10 19:34:48.
