data_PCOD8257734
_publ_section_title
;
Structure prediction by ZEFSAII (Michael W. Deem and Ramdas Pophale) SiO2 
 PCOD8257734
Probable space group: C M C M
;
_chemical_formula_sum "Si O2"
_cell_formula_units_Z 112
_cell_length_a 26.778934
_cell_length_b 12.503073
_cell_length_c 14.803284
_cell_angle_alpha 90.000000
_cell_angle_beta 90.000000
_cell_angle_gamma 90.000000
_cell_volume 4956.420252
_symmetry_space_group_name_H-M "C M C M"
_symmetry_group_IT_number 63
_symmetry_cell_setting 'orthorhombic'
loop_
_space_group_symop_operation_xyz
x,y,z
-x,-y,1/2+z
x,-y,-z
-x,y,1/2-z
-x,-y,-z
x,y,1/2-z
-x,y,z
x,-y,1/2+z
1/2+x,1/2+y,z
1/2-x,1/2-y,1/2+z
1/2+x,1/2-y,-z
1/2-x,1/2+y,1/2-z
1/2-x,1/2-y,-z
1/2+x,1/2+y,1/2-z
1/2-x,1/2+y,z
1/2+x,1/2-y,1/2+z
loop_
_atom_site_type_symbol
_atom_site_label
_atom_site_fract_x
_atom_site_fract_y
_atom_site_fract_z
Si Si1 0.850353 0.823078 0.149385
Si Si2 0.682698 0.538939 0.099828
Si Si3 0.555574 0.293180 0.462548
Si Si4 0.644981 0.063331 0.848323
Si Si5 0.105607 0.215815 0.355063
Si Si6 0.555437 0.051998 0.406733
Si Si7 0.788107 0.380676 0.858052
O O1 0.868944 0.792424 0.250000
O O2 0.898291 0.853801 0.086109
O O3 0.816741 0.726423 0.107875
O O4 0.815544 0.928888 0.156990
O O5 0.638706 0.610714 0.139790
O O6 0.732153 0.611673 0.104959
O O7 0.671014 0.500000 0.000000
O O8 0.500000 0.341956 0.442472
O O9 0.560771 0.293703 0.572010
O O10 0.558446 0.178167 0.415865
O O11 0.667410 0.086383 0.750000
O O12 0.636328 0.180028 0.891589
O O13 0.593699 0.995699 0.834547
O O14 0.683998 0.985713 0.899456
O O15 0.086985 0.230937 0.250000
O O16 0.500000 0.014632 0.379239
O O17 0.572717 0.000000 0.500000
O O18 0.787670 0.379944 0.750000
#
# Coordination Sequence:
#
# PCOD8257734 Si02
#       7
#    16  16  16  16  16  16  16
#     4  11  24  45  69  97 140 178 221 280 336 401
#     4  12  26  44  69  96 129 177 228 282 339 400
#     4  11  23  41  68 100 133 174 229 281 336 404
#     4  10  21  37  60  91 132 176 218 270 328 400
#     4  11  24  43  65  94 137 178 223 279 341 407
#     4  10  19  33  56  89 130 170 210 265 329 391
#     4  10  23  41  63  96 134 176 219 268 332 400
#
# _framework density 22.596952999999999
#
# number of rings (size 3 to 8) (size 9 to 14) (size 15 to 20)
#    0.000    1.286    4.286    1.286    2.000    3.143 
#    0.000    4.286    0.000    1.714    0.000    0.000 
#    0.000    0.000    0.000    0.000    0.000    0.000 
#
# Total GULP energy -693836.894157 kJ/mol
# GULP energy per Si atom -12389.944539 kJ/mol
# Density = 2.254552 g / cm^3
# Si number density = 22.596953 Si / 1000 Ang^3
#
#
#
# Elastic Constant Matrix: (Units=GPa)
#
#
# Indices 1 2 3 4 5 6 
#
# 1 95.6411 38.3096 21.0494 0.0000 0.0000 0.0000
# 2 38.3096 99.1494 12.6580 0.0000 0.0000 0.0000
# 3 21.0494 12.6580 79.2478 0.0000 0.0000 0.0000
# 4 0.0000 0.0000 0.0000 22.9122 0.0000 0.0000
# 5 0.0000 0.0000 0.0000 0.0000 21.8489 0.0000
# 6 0.0000 0.0000 0.0000 0.0000 0.0000 17.3736
#
#
#
# Elastic Compliance Matrix: (Units=1/GPa)
#
#
# Indices 1 2 3 4 5 6 
#
# 1 0.012907 -0.004644 -0.002687 0.000000 0.000000 0.000000
# 2 -0.004644 0.011967 -0.000678 0.000000 0.000000 0.000000
# 3 -0.002687 -0.000678 0.013441 0.000000 0.000000 0.000000
# 4 0.000000 0.000000 0.000000 0.043645 0.000000 0.000000
# 5 0.000000 0.000000 0.000000 0.000000 0.045769 0.000000
# 6 0.000000 0.000000 0.000000 0.000000 0.000000 0.057559
#
#
# Mechanical properties :
#
#
# Convention : Reuss Voigt Hill
#
# Bulk Modulus (GPa) = 44.84834 46.45248 45.65041
# Shear Modulus (GPa) = 23.95365 25.89504 24.92434
#
# Velocity S-wave (km/s) = 3.25936 3.38886 3.32474
# Velocity P-wave (km/s) = 5.83564 5.99284 5.91476
#
# Compressibility (1/GPa) = 0.02229737
#
# Stress axis : x y z
#
# Youngs Moduli (GPa) = 77.47569 83.56490 74.40191
#
# Poissons Ratio (x) = 0.38809 0.19989
# Poissons Ratio (y) = 0.35981 0.05043
# Poissons Ratio (z) = 0.20814 0.05665
#
# Static dielectric constant tensor:
#      x y z
#    x 4.065770 0.000000 0.000000 
#    y 0.000000 4.256730 0.000000 
#    z 0.000000 0.000000 4.064500 
# 
# 
# High freq. dielectric constant tensor:
#      x y z
#    x 1.876360 0.000000 0.000000 
#    y 0.000000 1.892170 0.000000 
#    z 0.000000 0.000000 1.882930 
# 
# From -- ./inp_files/38562.got.cif
#   From: 2010.03.12/outbox.cif.g09.slc.cpg/sg63_20_cif.got.tgz:38562.got - 2010.04.10 19:34:48.
