data_PCOD8257176
_publ_section_title
;
Structure prediction by ZEFSAII (Michael W. Deem and Ramdas Pophale) SiO2 
 PCOD8257176
Probable space group: C M C M
;
_chemical_formula_sum "Si O2"
_cell_formula_units_Z 88
_cell_length_a 22.078705
_cell_length_b 14.137955
_cell_length_c 13.559528
_cell_angle_alpha 90.000000
_cell_angle_beta 90.000000
_cell_angle_gamma 90.000000
_cell_volume 4232.575990
_symmetry_space_group_name_H-M "C M C M"
_symmetry_group_IT_number 63
_symmetry_cell_setting 'orthorhombic'
loop_
_space_group_symop_operation_xyz
x,y,z
-x,-y,1/2+z
x,-y,-z
-x,y,1/2-z
-x,-y,-z
x,y,1/2-z
-x,y,z
x,-y,1/2+z
1/2+x,1/2+y,z
1/2-x,1/2-y,1/2+z
1/2+x,1/2-y,-z
1/2-x,1/2+y,1/2-z
1/2-x,1/2-y,-z
1/2+x,1/2+y,1/2-z
1/2-x,1/2+y,z
1/2+x,1/2-y,1/2+z
loop_
_atom_site_type_symbol
_atom_site_label
_atom_site_fract_x
_atom_site_fract_y
_atom_site_fract_z
Si Si1 0.868739 0.500000 0.500000
Si Si2 0.567778 0.356269 0.632367
Si Si3 0.262566 0.337008 0.132858
Si Si4 0.791622 0.367514 0.861154
Si Si5 0.326687 0.519770 0.138635
Si Si6 0.877995 0.657497 0.866386
O O1 0.829121 0.438468 0.574191
O O2 0.907829 0.571370 0.569479
O O3 0.570279 0.358414 0.750000
O O4 0.500000 0.373929 0.592422
O O5 0.611706 0.438862 0.589584
O O6 0.590447 0.253433 0.597789
O O7 0.264159 0.343065 0.250000
O O8 0.293451 0.239714 0.096614
O O9 0.300084 0.425410 0.084346
O O10 0.192624 0.343633 0.101141
O O11 0.817457 0.371875 0.750000
O O12 0.721276 0.395469 0.861622
O O13 0.341577 0.489070 0.250000
O O14 0.887170 0.639867 0.750000
#
# Coordination Sequence:
#
# PCOD8257176 Si02
#       6
#     8  16  16  16  16  16
#     4  12  22  30  49  78 105 144 178 210 270 332
#     4   9  17  31  53  77 102 139 185 227 263 305
#     4   9  16  29  49  71 106 143 164 209 275 319
#     4  10  19  32  48  74 111 141 170 215 269 325
#     4   9  15  28  49  73 104 138 169 212 269 317
#     4  10  19  33  50  74 110 140 174 221 265 316
#
# _framework density 20.791121
#
# number of rings (size 3 to 8) (size 9 to 14) (size 15 to 20)
#    0.000    2.364    3.636    0.545    0.000    0.727 
#    0.000    0.455    0.000    0.000    0.000    7.000 
#    0.000    8.727    0.000    0.364    0.000    0.000 
#
# Total GULP energy -545223.240090 kJ/mol
# GULP energy per Si atom -12391.437275 kJ/mol
# Density = 2.074380 g / cm^3
# Si number density = 20.791121 Si / 1000 Ang^3
#
#
#
# Elastic Constant Matrix: (Units=GPa)
#
#
# Indices 1 2 3 4 5 6 
#
# 1 80.1158 44.0678 0.0550 0.0000 0.0000 0.0000
# 2 44.0678 150.9910 19.7906 0.0000 0.0000 0.0000
# 3 0.0550 19.7906 47.6385 0.0000 0.0000 0.0000
# 4 0.0000 0.0000 0.0000 25.6490 0.0000 0.0000
# 5 0.0000 0.0000 0.0000 0.0000 5.9750 0.0000
# 6 0.0000 0.0000 0.0000 0.0000 0.0000 25.9051
#
#
#
# Elastic Compliance Matrix: (Units=1/GPa)
#
#
# Indices 1 2 3 4 5 6 
#
# 1 0.015031 -0.004637 0.001909 0.000000 0.000000 0.000000
# 2 -0.004637 0.008435 -0.003499 0.000000 0.000000 0.000000
# 3 0.001909 -0.003499 0.022443 0.000000 0.000000 0.000000
# 4 0.000000 0.000000 0.000000 0.038988 0.000000 0.000000
# 5 0.000000 0.000000 0.000000 0.000000 0.167363 0.000000
# 6 0.000000 0.000000 0.000000 0.000000 0.000000 0.038602
#
#
# Mechanical properties :
#
#
# Convention : Reuss Voigt Hill
#
# Bulk Modulus (GPa) = 29.89076 45.17469 37.53272
# Shear Modulus (GPa) = 15.89987 25.82794 20.86391
#
# Velocity S-wave (km/s) = 2.76840 3.52839 3.17124
# Velocity P-wave (km/s) = 4.96252 6.19471 5.61253
#
# Compressibility (1/GPa) = 0.03345516
#
# Stress axis : x y z
#
# Youngs Moduli (GPa) = 66.52764 118.55487 44.55786
#
# Poissons Ratio (x) = 0.54977 -0.08507
# Poissons Ratio (y) = 0.30850 0.15590
# Poissons Ratio (z) = -0.12701 0.41480
#
# Static dielectric constant tensor:
#      x y z
#    x 3.476490 0.000000 0.000000 
#    y 0.000000 4.307200 0.000000 
#    z 0.000000 0.000000 3.772990 
# 
# 
# High freq. dielectric constant tensor:
#      x y z
#    x 1.751770 0.000000 0.000000 
#    y 0.000000 1.833950 0.000000 
#    z 0.000000 0.000000 1.807100 
# 
# From -- ./inp_files/35234.got.cif
#   From: 2010.03.12/outbox.cif.g09.slc.cpg/sg63_18_cif.got.tgz:35234.got - 2010.04.10 19:34:48.
