data_PCOD8257046
_publ_section_title
;
Structure prediction by ZEFSAII (Michael W. Deem and Ramdas Pophale) SiO2 
 PCOD8257046
Probable space group: C M C M
;
_chemical_formula_sum "Si O2"
_cell_formula_units_Z 64
_cell_length_a 8.888134
_cell_length_b 23.004350
_cell_length_c 18.881320
_cell_angle_alpha 90.000000
_cell_angle_beta 90.000000
_cell_angle_gamma 90.000000
_cell_volume 3860.583168
_symmetry_space_group_name_H-M "C M C M"
_symmetry_group_IT_number 63
_symmetry_cell_setting 'orthorhombic'
loop_
_space_group_symop_operation_xyz
x,y,z
-x,-y,1/2+z
x,-y,-z
-x,y,1/2-z
-x,-y,-z
x,y,1/2-z
-x,y,z
x,-y,1/2+z
1/2+x,1/2+y,z
1/2-x,1/2-y,1/2+z
1/2+x,1/2-y,-z
1/2-x,1/2+y,1/2-z
1/2-x,1/2-y,-z
1/2+x,1/2+y,1/2-z
1/2-x,1/2+y,z
1/2+x,1/2-y,1/2+z
loop_
_atom_site_type_symbol
_atom_site_label
_atom_site_fract_x
_atom_site_fract_y
_atom_site_fract_z
Si Si1 0.325703 0.255069 0.669117
Si Si2 0.830225 0.438086 0.021159
Si Si3 0.677071 0.659381 0.909123
Si Si4 0.171426 0.677095 0.452119
O O1 0.301739 0.274111 0.750000
O O2 0.500000 0.250724 0.649198
O O3 0.249780 0.191761 0.658058
O O4 0.246895 0.303512 0.620674
O O5 0.735895 0.407322 0.084770
O O6 0.000000 0.448529 0.048614
O O7 0.756576 0.500000 0.000000
O O8 0.828757 0.393906 0.953923
O O9 0.500000 0.659701 0.902524
O O10 0.732877 0.697223 0.978030
O O11 0.000000 0.700953 0.456675
#
# Coordination Sequence:
#
# PCOD8257046 Si02
#       4
#    16  16  16  16
#     4  11  22  34  48  69  99 132 163 199 243 289
#     4   8  16  31  51  74  98 125 160 200 239 281
#     4  10  19  31  50  74 100 127 160 200 241 285
#     4   9  18  32  51  73  98 127 160 199 240 284
#
# _framework density 16.577805999999999
#
# number of rings (size 3 to 8) (size 9 to 14) (size 15 to 20)
#    1.500    1.000    0.000    3.750    0.000    2.500 
#    0.000    0.000    0.000    1.500    0.000    3.500 
#    0.000    0.000    0.000    0.000    0.000    0.000 
#
# Total GULP energy -396445.262532 kJ/mol
# GULP energy per Si atom -12388.914454 kJ/mol
# Density = 1.654007 g / cm^3
# Si number density = 16.577806 Si / 1000 Ang^3
#
#
#
# Elastic Constant Matrix: (Units=GPa)
#
#
# Indices 1 2 3 4 5 6 
#
# 1 124.7460 21.4567 36.6441 0.0000 0.0000 0.0000
# 2 21.4567 48.3863 7.6593 0.0000 0.0000 0.0000
# 3 36.6441 7.6593 56.3415 0.0000 0.0000 0.0000
# 4 0.0000 0.0000 0.0000 14.4498 0.0000 0.0000
# 5 0.0000 0.0000 0.0000 0.0000 24.1592 0.0000
# 6 0.0000 0.0000 0.0000 0.0000 0.0000 21.7404
#
#
#
# Elastic Compliance Matrix: (Units=1/GPa)
#
#
# Indices 1 2 3 4 5 6 
#
# 1 0.010506 -0.003656 -0.006336 0.000000 0.000000 0.000000
# 2 -0.003656 0.022394 -0.000666 0.000000 0.000000 0.000000
# 3 -0.006336 -0.000666 0.021961 0.000000 0.000000 0.000000
# 4 0.000000 0.000000 0.000000 0.069205 0.000000 0.000000
# 5 0.000000 0.000000 0.000000 0.000000 0.041392 0.000000
# 6 0.000000 0.000000 0.000000 0.000000 0.000000 0.045997
#
#
# Mechanical properties :
#
#
# Convention : Reuss Voigt Hill
#
# Bulk Modulus (GPa) = 29.81226 40.11044 34.96135
# Shear Modulus (GPa) = 20.49568 22.98413 21.73991
#
# Velocity S-wave (km/s) = 3.51997 3.72753 3.62524
# Velocity P-wave (km/s) = 5.87729 6.54017 6.21757
#
# Compressibility (1/GPa) = 0.03354325
#
# Stress axis : x y z
#
# Youngs Moduli (GPa) = 95.17991 44.65532 45.53619
#
# Poissons Ratio (x) = 0.16326 0.28853
# Poissons Ratio (y) = 0.34798 0.03035
# Poissons Ratio (z) = 0.60309 0.02976
#
# Static dielectric constant tensor:
#      x y z
#    x 3.123390 0.000000 0.000000 
#    y 0.000000 3.128860 0.000000 
#    z 0.000000 0.000000 2.769650 
# 
# 
# High freq. dielectric constant tensor:
#      x y z
#    x 1.652150 0.000000 0.000000 
#    y 0.000000 1.630650 0.000000 
#    z 0.000000 0.000000 1.596400 
# 
# From -- ./inp_files/40087.got.cif
#   From: 2010.03.12/outbox.cif.g09.slc.cpg/sg63_21_cif.got.tgz:40087.got - 2010.04.10 19:34:48.
