data_PCOD8257035
_publ_section_title
;
Structure prediction by ZEFSAII (Michael W. Deem and Ramdas Pophale) SiO2 
 PCOD8257035
Probable space group: C M C M
;
_chemical_formula_sum "Si O2"
_cell_formula_units_Z 128
_cell_length_a 17.785501
_cell_length_b 22.213084
_cell_length_c 17.940599
_cell_angle_alpha 90.000000
_cell_angle_beta 90.000000
_cell_angle_gamma 90.000000
_cell_volume 7087.807296
_symmetry_space_group_name_H-M "C M C M"
_symmetry_group_IT_number 63
_symmetry_cell_setting 'orthorhombic'
loop_
_space_group_symop_operation_xyz
x,y,z
-x,-y,1/2+z
x,-y,-z
-x,y,1/2-z
-x,-y,-z
x,y,1/2-z
-x,y,z
x,-y,1/2+z
1/2+x,1/2+y,z
1/2-x,1/2-y,1/2+z
1/2+x,1/2-y,-z
1/2-x,1/2+y,1/2-z
1/2-x,1/2-y,-z
1/2+x,1/2+y,1/2-z
1/2-x,1/2+y,z
1/2+x,1/2-y,1/2+z
loop_
_atom_site_type_symbol
_atom_site_label
_atom_site_fract_x
_atom_site_fract_y
_atom_site_fract_z
Si Si1 0.699793 0.674822 0.550173
Si Si2 0.671643 0.105574 0.898104
Si Si3 0.413366 0.779235 0.164387
Si Si4 0.587020 0.102487 0.049844
Si Si5 0.302255 0.802406 0.591094
Si Si6 0.587362 0.340995 0.571139
Si Si7 0.294500 0.394780 0.666096
Si Si8 0.839332 0.521497 0.164795
O O1 0.738482 0.618961 0.593348
O O2 0.687765 0.731305 0.606313
O O3 0.760309 0.690058 0.486976
O O4 0.619206 0.659859 0.513185
O O5 0.634563 0.164705 0.863164
O O6 0.663205 0.050307 0.841776
O O7 0.632725 0.086273 0.975350
O O8 0.393791 0.762671 0.250000
O O9 0.500000 0.797564 0.156612
O O10 0.395373 0.722239 0.112079
O O11 0.500000 0.109476 0.030050
O O12 0.616548 0.165415 0.084528
O O13 0.597990 0.049205 0.110048
O O14 0.253620 0.833229 0.656241
O O15 0.500000 0.356840 0.569159
O O16 0.630974 0.393885 0.615178
O O17 0.322505 0.400292 0.750000
O O18 0.241981 0.450822 0.642499
O O19 0.859411 0.538582 0.250000
#
# Coordination Sequence:
#
# PCOD8257035 Si02
#       8
#    16  16  16  16  16  16  16  16
#     4   9  17  29  47  69  94 125 160 200 244 292
#     4  11  20  33  52  72 100 136 175 210 247 296
#     4  10  20  31  46  75 113 144 167 199 247 302
#     4  10  20  32  49  73  99 132 172 209 245 291
#     4   8  15  29  46  67  94 125 159 196 236 276
#     4  10  19  31  49  75 103 126 153 196 254 310
#     4   9  17  31  49  67  91 123 162 205 243 284
#     4  10  22  37  51  69  95 130 170 211 253 296
#
# _framework density 18.059180999999999
#
# number of rings (size 3 to 8) (size 9 to 14) (size 15 to 20)
#    0.000    2.375    0.000    5.250    0.000    4.000 
#    0.000    0.625    0.000    1.500    0.000    0.000 
#    0.000    3.500    0.000    0.000    0.000    0.000 
#
# Total GULP energy -793368.067611 kJ/mol
# GULP energy per Si atom -12396.376056 kJ/mol
# Density = 1.801808 g / cm^3
# Si number density = 18.059181 Si / 1000 Ang^3
#
#
#
# Elastic Constant Matrix: (Units=GPa)
#
#
# Indices 1 2 3 4 5 6 
#
# 1 96.4687 26.1418 23.3982 0.0000 0.0000 0.0000
# 2 26.1418 49.6954 11.9912 0.0000 0.0000 0.0000
# 3 23.3982 11.9912 44.5891 0.0000 0.0000 0.0000
# 4 0.0000 0.0000 0.0000 21.9902 0.0000 0.0000
# 5 0.0000 0.0000 0.0000 0.0000 21.5987 0.0000
# 6 0.0000 0.0000 0.0000 0.0000 0.0000 18.7681
#
#
#
# Elastic Compliance Matrix: (Units=1/GPa)
#
#
# Indices 1 2 3 4 5 6 
#
# 1 0.013208 -0.005642 -0.005414 0.000000 0.000000 0.000000
# 2 -0.005642 0.023929 -0.003475 0.000000 0.000000 0.000000
# 3 -0.005414 -0.003475 0.026202 0.000000 0.000000 0.000000
# 4 0.000000 0.000000 0.000000 0.045475 0.000000 0.000000
# 5 0.000000 0.000000 0.000000 0.000000 0.046299 0.000000
# 6 0.000000 0.000000 0.000000 0.000000 0.000000 0.053282
#
#
# Mechanical properties :
#
#
# Convention : Reuss Voigt Hill
#
# Bulk Modulus (GPa) = 29.17235 34.86840 32.02038
# Shear Modulus (GPa) = 20.08992 21.08620 20.58806
#
# Velocity S-wave (km/s) = 3.33896 3.42075 3.38010
# Velocity P-wave (km/s) = 5.57258 5.91200 5.74480
#
# Compressibility (1/GPa) = 0.03427903
#
# Stress axis : x y z
#
# Youngs Moduli (GPa) = 75.71197 41.79079 38.16456
#
# Poissons Ratio (x) = 0.23577 0.20661
# Poissons Ratio (y) = 0.42714 0.13261
# Poissons Ratio (z) = 0.40988 0.14521
#
# Static dielectric constant tensor:
#      x y z
#    x 3.298710 0.000000 0.000000 
#    y 0.000000 3.330290 0.000000 
#    z 0.000000 0.000000 3.296350 
# 
# 
# High freq. dielectric constant tensor:
#      x y z
#    x 1.686330 0.000000 0.000000 
#    y 0.000000 1.683620 0.000000 
#    z 0.000000 0.000000 1.685560 
# 
# From -- ./inp_files/56062.got.cif
#   From: 2010.03.12/outbox.cif.g09.slc.cpg/sg63_29_cif.got.tgz:56062.got - 2010.04.10 19:34:48.
