data_PCOD8257158
_publ_section_title
;
Structure prediction by ZEFSAII (Michael W. Deem and Ramdas Pophale) SiO2 
 PCOD8257158
Probable space group: C M C M
;
_chemical_formula_sum "Si O2"
_cell_formula_units_Z 128
_cell_length_a 18.456495
_cell_length_b 19.007210
_cell_length_c 19.555631
_cell_angle_alpha 90.000000
_cell_angle_beta 90.000000
_cell_angle_gamma 90.000000
_cell_volume 6860.242003
_symmetry_space_group_name_H-M "C M C M"
_symmetry_group_IT_number 63
_symmetry_cell_setting 'orthorhombic'
loop_
_space_group_symop_operation_xyz
x,y,z
-x,-y,1/2+z
x,-y,-z
-x,y,1/2-z
-x,-y,-z
x,y,1/2-z
-x,y,z
x,-y,1/2+z
1/2+x,1/2+y,z
1/2-x,1/2-y,1/2+z
1/2+x,1/2-y,-z
1/2-x,1/2+y,1/2-z
1/2-x,1/2-y,-z
1/2+x,1/2+y,1/2-z
1/2-x,1/2+y,z
1/2+x,1/2-y,1/2+z
loop_
_atom_site_type_symbol
_atom_site_label
_atom_site_fract_x
_atom_site_fract_y
_atom_site_fract_z
Si Si1 0.785624 0.410810 0.428799
Si Si2 0.795279 0.573768 0.411039
Si Si3 0.343361 0.580353 0.329584
Si Si4 0.858289 0.830702 0.078575
Si Si5 0.917719 0.173326 0.067676
Si Si6 0.919652 0.939242 0.326078
Si Si7 0.421498 0.828338 0.424027
Si Si8 0.082097 0.677854 0.085224
O O1 0.790220 0.490048 0.401526
O O2 0.781095 0.406421 0.510575
O O3 0.720518 0.361900 0.400340
O O4 0.859645 0.379875 0.397720
O O5 0.732960 0.604207 0.361903
O O6 0.871171 0.610505 0.387407
O O7 0.345832 0.600669 0.250000
O O8 0.406137 0.620193 0.370394
O O9 0.359059 0.497973 0.341544
O O10 0.916142 0.876400 0.119993
O O11 0.871995 0.749449 0.100031
O O12 0.867709 0.843242 0.997668
O O13 0.900623 0.249840 0.098677
O O14 0.000000 0.169485 0.041264
O O15 0.906700 0.908745 0.250000
O O16 0.000000 0.972928 0.331388
O O17 0.500000 0.851132 0.393630
O O18 0.427027 0.830237 0.505254
O O19 0.000000 0.679066 0.117670
#
# Coordination Sequence:
#
# PCOD8257158 Si02
#       8
#    16  16  16  16  16  16  16  16
#     4  10  19  31  55  82 106 142 177 225 272 313
#     4  10  20  35  51  78 109 137 182 224 265 317
#     4  11  22  36  51  73 107 146 182 221 270 324
#     4  11  19  33  56  84 112 137 179 222 266 326
#     4  10  20  33  54  80 108 140 177 221 265 320
#     4  10  21  36  53  75 109 148 179 215 268 327
#     4   8  17  32  51  81 112 138 171 216 274 324
#     4   9  19  33  54  81 111 146 177 218 272 323
#
# _framework density 18.658235000000001
#
# number of rings (size 3 to 8) (size 9 to 14) (size 15 to 20)
#    0.000    2.125    2.500    2.250    1.750    3.250 
#    0.000    4.375    0.000    1.875    0.000    0.000 
#    0.000    0.000    0.000    0.000    0.000    0.000 
#
# Total GULP energy -793108.549765 kJ/mol
# GULP energy per Si atom -12392.321090 kJ/mol
# Density = 1.861577 g / cm^3
# Si number density = 18.658235 Si / 1000 Ang^3
#
#
#
# Elastic Constant Matrix: (Units=GPa)
#
#
# Indices 1 2 3 4 5 6 
#
# 1 111.4246 62.6796 17.1018 0.0000 0.0000 0.0000
# 2 62.6796 90.3499 24.0552 0.0000 0.0000 0.0000
# 3 17.1018 24.0552 42.9591 0.0000 0.0000 0.0000
# 4 0.0000 0.0000 0.0000 8.8984 0.0000 0.0000
# 5 0.0000 0.0000 0.0000 0.0000 17.0705 0.0000
# 6 0.0000 0.0000 0.0000 0.0000 0.0000 30.7234
#
#
#
# Elastic Compliance Matrix: (Units=1/GPa)
#
#
# Indices 1 2 3 4 5 6 
#
# 1 0.014720 -0.010167 -0.000167 0.000000 0.000000 0.000000
# 2 -0.010167 0.020030 -0.007168 0.000000 0.000000 0.000000
# 3 -0.000167 -0.007168 0.027358 0.000000 0.000000 0.000000
# 4 0.000000 0.000000 0.000000 0.112379 0.000000 0.000000
# 5 0.000000 0.000000 0.000000 0.000000 0.058580 0.000000
# 6 0.000000 0.000000 0.000000 0.000000 0.000000 0.032548
#
#
# Mechanical properties :
#
#
# Convention : Reuss Voigt Hill
#
# Bulk Modulus (GPa) = 36.89570 50.26743 43.58157
# Shear Modulus (GPa) = 16.14698 20.73161 18.43930
#
# Velocity S-wave (km/s) = 2.94497 3.33697 3.14708
# Velocity P-wave (km/s) = 5.60190 6.46891 6.05095
#
# Compressibility (1/GPa) = 0.02710343
#
# Stress axis : x y z
#
# Youngs Moduli (GPa) = 67.93632 49.92471 36.55199
#
# Poissons Ratio (x) = 0.50760 0.00609
# Poissons Ratio (y) = 0.69073 0.26202
# Poissons Ratio (z) = 0.01132 0.35788
#
# Static dielectric constant tensor:
#      x y z
#    x 3.696980 0.000000 0.000000 
#    y 0.000000 3.505630 0.000000 
#    z 0.000000 0.000000 2.986100 
# 
# 
# High freq. dielectric constant tensor:
#      x y z
#    x 1.736690 0.000000 0.000000 
#    y 0.000000 1.721860 0.000000 
#    z 0.000000 0.000000 1.674290 
# 
# From -- ./inp_files/56068.got.cif
#   From: 2010.03.12/outbox.cif.g09.slc.cpg/sg63_29_cif.got.tgz:56068.got - 2010.04.10 19:34:48.
