data_PCOD8257392
_publ_section_title
;
Structure prediction by ZEFSAII (Michael W. Deem and Ramdas Pophale) SiO2 
 PCOD8257392
Probable space group: C M C M
;
_chemical_formula_sum "Si O2"
_cell_formula_units_Z 72
_cell_length_a 14.954285
_cell_length_b 18.000532
_cell_length_c 14.571441
_cell_angle_alpha 90.000000
_cell_angle_beta 90.000000
_cell_angle_gamma 90.000000
_cell_volume 3922.414594
_symmetry_space_group_name_H-M "C M C M"
_symmetry_group_IT_number 63
_symmetry_cell_setting 'orthorhombic'
loop_
_space_group_symop_operation_xyz
x,y,z
-x,-y,1/2+z
x,-y,-z
-x,y,1/2-z
-x,-y,-z
x,y,1/2-z
-x,y,z
x,-y,1/2+z
1/2+x,1/2+y,z
1/2-x,1/2-y,1/2+z
1/2+x,1/2-y,-z
1/2-x,1/2+y,1/2-z
1/2-x,1/2-y,-z
1/2+x,1/2+y,1/2-z
1/2-x,1/2+y,z
1/2+x,1/2-y,1/2+z
loop_
_atom_site_type_symbol
_atom_site_label
_atom_site_fract_x
_atom_site_fract_y
_atom_site_fract_z
Si Si1 0.095037 0.071278 0.250000
Si Si2 0.102529 0.309075 0.056723
Si Si3 0.781563 0.523713 0.250000
Si Si4 0.400880 0.637946 0.057370
Si Si5 0.895825 0.624605 0.750000
Si Si6 0.783791 0.424991 0.951182
O O1 0.173786 0.009665 0.250000
O O2 0.099812 0.128171 0.333835
O O3 0.000000 0.027375 0.250000
O O4 0.120473 0.223234 0.035301
O O5 0.129735 0.327364 0.161211
O O6 0.000000 0.330285 0.040382
O O7 0.159651 0.355678 0.985078
O O8 0.834967 0.448053 0.250000
O O9 0.802420 0.570510 0.158001
O O10 0.500000 0.615558 0.017799
O O11 0.320292 0.587242 0.018537
O O12 0.000000 0.600959 0.750000
O O13 0.817175 0.500000 0.000000
#
# Coordination Sequence:
#
# PCOD8257392 Si02
#       6
#     8  16   8  16   8  16
#     4   8  15  30  53  75 101 134 173 214 254 296
#     4  10  20  34  54  78 105 136 174 214 254 301
#     4  10  20  34  48  76 108 134 170 210 258 312
#     4   9  18  33  53  78 104 135 174 214 254 301
#     4  10  19  32  53  77 103 136 173 214 252 294
#     4  11  21  34  54  77 107 137 171 211 260 309
#
# _framework density 18.35604
#
# number of rings (size 3 to 8) (size 9 to 14) (size 15 to 20)
#    0.000    2.222    2.222    1.333    0.000    4.444 
#    0.000    0.000    0.000    0.000    0.000    3.111 
#    0.000    0.000    0.000    0.000    0.000    0.000 
#
# Total GULP energy -446158.914506 kJ/mol
# GULP energy per Si atom -12393.303181 kJ/mol
# Density = 1.831426 g / cm^3
# Si number density = 18.356040 Si / 1000 Ang^3
#
#
#
# Elastic Constant Matrix: (Units=GPa)
#
#
# Indices 1 2 3 4 5 6 
#
# 1 52.4299 18.4029 19.5815 0.0000 0.0000 0.0000
# 2 18.4029 51.0180 8.7919 0.0000 0.0000 0.0000
# 3 19.5815 8.7919 78.5724 0.0000 0.0000 0.0000
# 4 0.0000 0.0000 0.0000 15.3144 0.0000 0.0000
# 5 0.0000 0.0000 0.0000 0.0000 24.1329 0.0000
# 6 0.0000 0.0000 0.0000 0.0000 0.0000 31.8289
#
#
#
# Elastic Compliance Matrix: (Units=1/GPa)
#
#
# Indices 1 2 3 4 5 6 
#
# 1 0.023642 -0.007660 -0.005035 0.000000 0.000000 0.000000
# 2 -0.007660 0.022468 -0.000605 0.000000 0.000000 0.000000
# 3 -0.005035 -0.000605 0.014050 0.000000 0.000000 0.000000
# 4 0.000000 0.000000 0.000000 0.065298 0.000000 0.000000
# 5 0.000000 0.000000 0.000000 0.000000 0.041437 0.000000
# 6 0.000000 0.000000 0.000000 0.000000 0.000000 0.031418
#
#
# Mechanical properties :
#
#
# Convention : Reuss Voigt Hill
#
# Bulk Modulus (GPa) = 29.79767 30.61919 30.20843
# Shear Modulus (GPa) = 21.17738 23.27149 22.22444
#
# Velocity S-wave (km/s) = 3.40030 3.56446 3.48335
# Velocity P-wave (km/s) = 5.62890 5.80150 5.71585
#
# Compressibility (1/GPa) = 0.03355967
#
# Stress axis : x y z
#
# Youngs Moduli (GPa) = 42.29707 44.50691 71.17647
#
# Poissons Ratio (x) = 0.34094 0.35836
# Poissons Ratio (y) = 0.32401 0.04306
# Poissons Ratio (z) = 0.21296 0.02693
#
# Static dielectric constant tensor:
#      x y z
#    x 3.732460 0.000000 0.000000 
#    y 0.000000 3.169410 0.000000 
#    z 0.000000 0.000000 3.331670 
# 
# 
# High freq. dielectric constant tensor:
#      x y z
#    x 1.721550 0.000000 0.000000 
#    y 0.000000 1.696790 0.000000 
#    z 0.000000 0.000000 1.700480 
# 
# From -- ./inp_files/31478.got.cif
#   From: 2010.03.12/outbox.cif.g09.slc.cpg/sg63_16_cif.got.tgz:31478.got - 2010.04.10 19:34:48.
