data_PCOD8257282
_publ_section_title
;
Structure prediction by ZEFSAII (Michael W. Deem and Ramdas Pophale) SiO2 
 PCOD8257282
Probable space group: C M C M
;
_chemical_formula_sum "Si O2"
_cell_formula_units_Z 64
_cell_length_a 9.080408
_cell_length_b 24.515974
_cell_length_c 15.126244
_cell_angle_alpha 90.000000
_cell_angle_beta 90.000000
_cell_angle_gamma 90.000000
_cell_volume 3367.329510
_symmetry_space_group_name_H-M "C M C M"
_symmetry_group_IT_number 63
_symmetry_cell_setting 'orthorhombic'
loop_
_space_group_symop_operation_xyz
x,y,z
-x,-y,1/2+z
x,-y,-z
-x,y,1/2-z
-x,-y,-z
x,y,1/2-z
-x,y,z
x,-y,1/2+z
1/2+x,1/2+y,z
1/2-x,1/2-y,1/2+z
1/2+x,1/2-y,-z
1/2-x,1/2+y,1/2-z
1/2-x,1/2-y,-z
1/2+x,1/2+y,1/2-z
1/2-x,1/2+y,z
1/2+x,1/2-y,1/2+z
loop_
_atom_site_type_symbol
_atom_site_label
_atom_site_fract_x
_atom_site_fract_y
_atom_site_fract_z
Si Si1 0.324761 0.191191 0.750000
Si Si2 0.674141 0.610284 0.092611
Si Si3 0.674554 0.686647 0.250000
Si Si4 0.674488 0.884897 0.406584
Si Si5 0.661533 0.995978 0.895619
O O1 0.500000 0.191066 0.750000
O O2 0.259343 0.252274 0.750000
O O3 0.268957 0.160571 0.838045
O O4 0.500000 0.608733 0.081942
O O5 0.728217 0.655665 0.162115
O O6 0.725026 0.551430 0.130796
O O7 0.745250 0.625432 0.999174
O O8 0.500000 0.689145 0.250000
O O9 0.500000 0.881925 0.423875
O O10 0.715242 0.944107 0.363977
O O11 0.500000 0.982244 0.855652
O O12 0.648945 0.000000 0.000000
#
# Coordination Sequence:
#
# PCOD8257282 Si02
#       5
#     8  16   8  16  16
#     4   9  18  35  55  71  95 133 170 203 244 294
#     4  10  19  32  51  74 102 134 163 196 243 296
#     4   9  20  35  49  71 101 133 170 203 238 294
#     4   9  18  33  54  77  98 126 165 205 246 291
#     4   8  15  29  49  75 102 124 157 203 245 292
#
# _framework density 19.006159
#
# number of rings (size 3 to 8) (size 9 to 14) (size 15 to 20)
#    0.000    3.000    0.000    2.250    0.000    6.500 
#    0.000    4.375    0.000    4.500    0.000    0.000 
#    0.000    0.000    0.000    0.000    0.000    0.000 
#
# Total GULP energy -396616.655342 kJ/mol
# GULP energy per Si atom -12394.270479 kJ/mol
# Density = 1.896290 g / cm^3
# Si number density = 19.006159 Si / 1000 Ang^3
#
#
#
# Elastic Constant Matrix: (Units=GPa)
#
#
# Indices 1 2 3 4 5 6 
#
# 1 54.9302 46.1196 42.6724 0.0000 0.0000 0.0000
# 2 46.1196 189.0207 89.3552 0.0000 0.0000 0.0000
# 3 42.6724 89.3552 117.1089 0.0000 0.0000 0.0000
# 4 0.0000 0.0000 0.0000 32.7976 0.0000 0.0000
# 5 0.0000 0.0000 0.0000 0.0000 7.5368 0.0000
# 6 0.0000 0.0000 0.0000 0.0000 0.0000 22.0649
#
#
#
# Elastic Compliance Matrix: (Units=1/GPa)
#
#
# Indices 1 2 3 4 5 6 
#
# 1 0.026413 -0.002964 -0.007363 0.000000 0.000000 0.000000
# 2 -0.002964 0.008608 -0.005488 0.000000 0.000000 0.000000
# 3 -0.007363 -0.005488 0.015409 0.000000 0.000000 0.000000
# 4 0.000000 0.000000 0.000000 0.030490 0.000000 0.000000
# 5 0.000000 0.000000 0.000000 0.000000 0.132682 0.000000
# 6 0.000000 0.000000 0.000000 0.000000 0.000000 0.045321
#
#
# Mechanical properties :
#
#
# Convention : Reuss Voigt Hill
#
# Bulk Modulus (GPa) = 53.18909 79.70603 66.44756
# Shear Modulus (GPa) = 16.84524 24.67404 20.75964
#
# Velocity S-wave (km/s) = 2.98032 3.60698 3.30852
# Velocity P-wave (km/s) = 6.31577 7.70552 7.04500
#
# Compressibility (1/GPa) = 0.01880085
#
# Stress axis : x y z
#
# Youngs Moduli (GPa) = 37.85953 116.17268 64.89571
#
# Poissons Ratio (x) = 0.34433 0.47783
# Poissons Ratio (y) = 0.11221 0.35614
# Poissons Ratio (z) = 0.27876 0.63754
#
# Static dielectric constant tensor:
#      x y z
#    x 3.189460 0.000000 0.000000 
#    y 0.000000 4.061740 0.000000 
#    z 0.000000 0.000000 3.377330 
# 
# 
# High freq. dielectric constant tensor:
#      x y z
#    x 1.705470 0.000000 0.000000 
#    y 0.000000 1.745090 0.000000 
#    z 0.000000 0.000000 1.733360 
# 
# From -- ./inp_files/27605.got.cif
#   From: 2010.03.12/outbox.cif.g09.slc.cpg/sg63_14_cif.got.tgz:27605.got - 2010.04.10 19:34:48.
