data_PCOD8257582
_publ_section_title
;
Structure prediction by ZEFSAII (Michael W. Deem and Ramdas Pophale) SiO2 
 PCOD8257582
Probable space group: C M C M
;
_chemical_formula_sum "Si O2"
_cell_formula_units_Z 96
_cell_length_a 12.170432
_cell_length_b 22.326812
_cell_length_c 18.839420
_cell_angle_alpha 90.000000
_cell_angle_beta 90.000000
_cell_angle_gamma 90.000000
_cell_volume 5119.178084
_symmetry_space_group_name_H-M "C M C M"
_symmetry_group_IT_number 63
_symmetry_cell_setting 'orthorhombic'
loop_
_space_group_symop_operation_xyz
x,y,z
-x,-y,1/2+z
x,-y,-z
-x,y,1/2-z
-x,-y,-z
x,y,1/2-z
-x,y,z
x,-y,1/2+z
1/2+x,1/2+y,z
1/2-x,1/2-y,1/2+z
1/2+x,1/2-y,-z
1/2-x,1/2+y,1/2-z
1/2-x,1/2-y,-z
1/2+x,1/2+y,1/2-z
1/2-x,1/2+y,z
1/2+x,1/2-y,1/2+z
loop_
_atom_site_type_symbol
_atom_site_label
_atom_site_fract_x
_atom_site_fract_y
_atom_site_fract_z
Si Si1 0.878270 0.780240 0.168872
Si Si2 0.621568 0.602462 0.416528
Si Si3 0.500000 0.957763 0.164157
Si Si4 0.212967 0.499228 0.416117
Si Si5 0.875429 0.105916 0.579585
Si Si6 0.500000 0.179429 0.833212
Si Si7 0.663855 0.720010 0.168259
O O1 0.872776 0.802002 0.250000
O O2 0.840752 0.835578 0.121949
O O3 0.794435 0.725878 0.155632
O O4 0.000000 0.757262 0.148443
O O5 0.500000 0.572245 0.407464
O O6 0.720200 0.558778 0.393016
O O7 0.639174 0.620903 0.497483
O O8 0.620710 0.663160 0.372777
O O9 0.500000 0.962819 0.250000
O O10 0.500000 0.888506 0.135664
O O11 0.394995 0.992435 0.131951
O O12 0.183328 0.500000 0.500000
O O13 0.294416 0.445901 0.396363
O O14 0.000000 0.086533 0.597767
O O15 0.500000 0.169892 0.750000
O O16 0.606026 0.218151 0.857833
O O17 0.633673 0.709515 0.250000
#
# Coordination Sequence:
#
# PCOD8257582 Si02
#       7
#    16  16   8  16  16   8  16
#     4   9  18  33  52  75 106 142 179 224 277 329
#     4  10  20  35  56  81 111 144 183 227 274 334
#     4  11  23  39  59  83 109 144 195 237 269 319
#     4  10  21  38  58  80 113 150 182 223 280 335
#     4   9  18  34  58  84 109 138 180 231 276 327
#     4   9  18  33  55  79 104 138 179 231 280 315
#     4  10  19  33  53  77 107 145 184 222 274 330
#
# _framework density 18.753011000000001
#
# number of rings (size 3 to 8) (size 9 to 14) (size 15 to 20)
#    0.000    2.333    0.833    1.750    0.000    5.333 
#    1.500    0.000    0.000    3.000    0.000    0.000 
#    0.000    0.000    0.000    0.000    0.000    0.000 
#
# Total GULP energy -594983.511599 kJ/mol
# GULP energy per Si atom -12395.489825 kJ/mol
# Density = 1.871033 g / cm^3
# Si number density = 18.753011 Si / 1000 Ang^3
#
#
#
# Elastic Constant Matrix: (Units=GPa)
#
#
# Indices 1 2 3 4 5 6 
#
# 1 123.9710 54.6245 47.0048 0.0000 0.0000 0.0000
# 2 54.6245 81.1001 33.1634 0.0000 0.0000 0.0000
# 3 47.0048 33.1634 52.1293 0.0000 0.0000 0.0000
# 4 0.0000 0.0000 0.0000 27.9960 0.0000 0.0000
# 5 0.0000 0.0000 0.0000 0.0000 22.5455 0.0000
# 6 0.0000 0.0000 0.0000 0.0000 0.0000 25.2025
#
#
#
# Elastic Compliance Matrix: (Units=1/GPa)
#
#
# Indices 1 2 3 4 5 6 
#
# 1 0.014005 -0.005770 -0.008958 0.000000 0.000000 0.000000
# 2 -0.005770 0.019043 -0.006912 0.000000 0.000000 0.000000
# 3 -0.008958 -0.006912 0.031657 0.000000 0.000000 0.000000
# 4 0.000000 0.000000 0.000000 0.035719 0.000000 0.000000
# 5 0.000000 0.000000 0.000000 0.000000 0.044355 0.000000
# 6 0.000000 0.000000 0.000000 0.000000 0.000000 0.039679
#
#
# Mechanical properties :
#
#
# Convention : Reuss Voigt Hill
#
# Bulk Modulus (GPa) = 46.67137 58.53174 52.60156
# Shear Modulus (GPa) = 21.28742 23.30930 22.29836
#
# Velocity S-wave (km/s) = 3.37285 3.52939 3.45201
# Velocity P-wave (km/s) = 6.33321 6.92015 6.63318
#
# Compressibility (1/GPa) = 0.02142641
#
# Stress axis : x y z
#
# Youngs Moduli (GPa) = 71.40168 52.51177 31.58820
#
# Poissons Ratio (x) = 0.30300 0.28296
# Poissons Ratio (y) = 0.41200 0.21834
# Poissons Ratio (z) = 0.63959 0.36296
#
# Static dielectric constant tensor:
#      x y z
#    x 3.739660 0.000000 0.000000 
#    y 0.000000 3.344620 0.000000 
#    z 0.000000 0.000000 3.306760 
# 
# 
# High freq. dielectric constant tensor:
#      x y z
#    x 1.746040 0.000000 0.000000 
#    y 0.000000 1.714210 0.000000 
#    z 0.000000 0.000000 1.712530 
# 
# From -- ./inp_files/52926.got.cif
#   From: 2010.03.12/outbox.cif.g09.slc.cpg/sg63_27_cif.got.tgz:52926.got - 2010.04.10 19:34:48.
