data_PCOD8257220
_publ_section_title
;
Structure prediction by ZEFSAII (Michael W. Deem and Ramdas Pophale) SiO2 
 PCOD8257220
Probable space group: C M C M
;
_chemical_formula_sum "Si O2"
_cell_formula_units_Z 96
_cell_length_a 9.150796
_cell_length_b 25.070083
_cell_length_c 21.707598
_cell_angle_alpha 90.000000
_cell_angle_beta 90.000000
_cell_angle_gamma 90.000000
_cell_volume 4979.966437
_symmetry_space_group_name_H-M "C M C M"
_symmetry_group_IT_number 63
_symmetry_cell_setting 'orthorhombic'
loop_
_space_group_symop_operation_xyz
x,y,z
-x,-y,1/2+z
x,-y,-z
-x,y,1/2-z
-x,-y,-z
x,y,1/2-z
-x,y,z
x,-y,1/2+z
1/2+x,1/2+y,z
1/2-x,1/2-y,1/2+z
1/2+x,1/2-y,-z
1/2-x,1/2+y,1/2-z
1/2-x,1/2-y,-z
1/2+x,1/2+y,1/2-z
1/2-x,1/2+y,z
1/2+x,1/2-y,1/2+z
loop_
_atom_site_type_symbol
_atom_site_label
_atom_site_fract_x
_atom_site_fract_y
_atom_site_fract_z
Si Si1 0.825975 0.906691 0.750000
Si Si2 0.672718 0.289416 0.750000
Si Si3 0.673126 0.731945 0.115573
Si Si4 0.672737 0.375064 0.951608
Si Si5 0.326363 0.532410 0.131397
Si Si6 0.672380 0.336052 0.082981
Si Si7 0.326098 0.578269 0.820255
O O1 0.757511 0.848059 0.750000
O O2 0.767615 0.936969 0.809227
O O3 0.000000 0.904948 0.750000
O O4 0.500000 0.295507 0.750000
O O5 0.722168 0.260430 0.812844
O O6 0.500000 0.737024 0.107430
O O7 0.729529 0.675187 0.089074
O O8 0.749017 0.779333 0.078434
O O9 0.500000 0.375628 0.944460
O O10 0.733068 0.432545 0.926714
O O11 0.719894 0.369243 0.022497
O O12 0.500000 0.530113 0.128499
O O13 0.266772 0.471891 0.138925
O O14 0.500000 0.326065 0.083334
O O15 0.723588 0.368560 0.143610
O O16 0.263398 0.578638 0.750000
O O17 0.500000 0.574954 0.816796
#
# Coordination Sequence:
#
# PCOD8257220 Si02
#       7
#     8   8  16  16  16  16  16
#     4   9  12  20  39  65  93 117 145 190 245 280
#     4   9  16  26  44  71  93 113 151 204 243 266
#     4  10  19  32  50  70  93 121 159 200 234 270
#     4   9  17  29  46  69  94 121 155 198 238 271
#     4   9  14  23  43  67  92 120 152 192 238 279
#     4  10  21  33  45  67 101 133 156 181 225 284
#     4   9  17  28  42  63  95 130 156 183 228 284
#
# _framework density 19.277238000000001
#
# number of rings (size 3 to 8) (size 9 to 14) (size 15 to 20)
#    0.000    2.667    2.500    0.500    1.167    0.667 
#    0.000    3.333    0.000    0.000    0.000    3.500 
#    0.000    0.000    0.000    0.000    0.000    0.000 
#
# Total GULP energy -594689.640383 kJ/mol
# GULP energy per Si atom -12389.367508 kJ/mol
# Density = 1.923336 g / cm^3
# Si number density = 19.277238 Si / 1000 Ang^3
#
#
#
# Elastic Constant Matrix: (Units=GPa)
#
#
# Indices 1 2 3 4 5 6 
#
# 1 9.9322 10.7387 11.6753 0.0000 0.0000 0.0000
# 2 10.7387 97.7845 37.7970 0.0000 0.0000 0.0000
# 3 11.6753 37.7970 108.4144 0.0000 0.0000 0.0000
# 4 0.0000 0.0000 0.0000 30.9523 0.0000 0.0000
# 5 0.0000 0.0000 0.0000 0.0000 8.2080 0.0000
# 6 0.0000 0.0000 0.0000 0.0000 0.0000 16.5757
#
#
#
# Elastic Compliance Matrix: (Units=1/GPa)
#
#
# Indices 1 2 3 4 5 6 
#
# 1 0.122710 -0.009671 -0.009843 0.000000 0.000000 0.000000
# 2 -0.009671 0.012582 -0.003345 0.000000 0.000000 0.000000
# 3 -0.009843 -0.003345 0.011450 0.000000 0.000000 0.000000
# 4 0.000000 0.000000 0.000000 0.032308 0.000000 0.000000
# 5 0.000000 0.000000 0.000000 0.000000 0.121833 0.000000
# 6 0.000000 0.000000 0.000000 0.000000 0.000000 0.060329
#
#
# Mechanical properties :
#
#
# Convention : Reuss Voigt Hill
#
# Bulk Modulus (GPa) = 9.89873 37.39477 23.64675
# Shear Modulus (GPa) = 11.34807 21.54187 16.44497
#
# Velocity S-wave (km/s) = 2.42890 3.34649 2.92392
# Velocity P-wave (km/s) = 3.60724 5.86281 4.86748
#
# Compressibility (1/GPa) = 0.10102304
#
# Stress axis : x y z
#
# Youngs Moduli (GPa) = 8.14931 79.48136 87.33614
#
# Poissons Ratio (x) = 0.76869 0.85965
# Poissons Ratio (y) = 0.07881 0.29213
# Poissons Ratio (z) = 0.08021 0.26585
#
# Static dielectric constant tensor:
#      x y z
#    x 2.684350 0.000000 0.000000 
#    y 0.000000 3.714930 0.000000 
#    z 0.000000 0.000000 3.823990 
# 
# 
# High freq. dielectric constant tensor:
#      x y z
#    x 1.655110 0.000000 0.000000 
#    y 0.000000 1.760640 0.000000 
#    z 0.000000 0.000000 1.764150 
# 
# From -- ./inp_files/53102.got.cif
#   From: 2010.03.12/outbox.cif.g09.slc.cpg/sg63_27_cif.got.tgz:53102.got - 2010.04.10 19:34:48.
