data_PCOD8257428
_publ_section_title
;
Structure prediction by ZEFSAII (Michael W. Deem and Ramdas Pophale) SiO2 
 PCOD8257428
Probable space group: C M C M
;
_chemical_formula_sum "Si O2"
_cell_formula_units_Z 64
_cell_length_a 9.434167
_cell_length_b 24.055808
_cell_length_c 14.040272
_cell_angle_alpha 90.000000
_cell_angle_beta 90.000000
_cell_angle_gamma 90.000000
_cell_volume 3186.390730
_symmetry_space_group_name_H-M "C M C M"
_symmetry_group_IT_number 63
_symmetry_cell_setting 'orthorhombic'
loop_
_space_group_symop_operation_xyz
x,y,z
-x,-y,1/2+z
x,-y,-z
-x,y,1/2-z
-x,-y,-z
x,y,1/2-z
-x,y,z
x,-y,1/2+z
1/2+x,1/2+y,z
1/2-x,1/2-y,1/2+z
1/2+x,1/2-y,-z
1/2-x,1/2+y,1/2-z
1/2-x,1/2-y,-z
1/2+x,1/2+y,1/2-z
1/2-x,1/2+y,z
1/2+x,1/2-y,1/2+z
loop_
_atom_site_type_symbol
_atom_site_label
_atom_site_fract_x
_atom_site_fract_y
_atom_site_fract_z
Si Si1 0.792763 0.231911 0.137551
Si Si2 0.500000 0.485595 0.864456
Si Si3 0.500000 0.192039 0.362246
Si Si4 0.000000 0.140204 0.137410
Si Si5 0.000000 0.324563 0.138171
Si Si6 0.749027 0.500000 0.000000
Si Si7 0.000000 0.414216 0.988235
O O1 0.811832 0.232301 0.250000
O O2 0.631252 0.229700 0.103654
O O3 0.864343 0.288858 0.101197
O O4 0.864735 0.175059 0.100191
O O5 0.500000 0.493511 0.750000
O O6 0.500000 0.421965 0.902938
O O7 0.645065 0.511679 0.908827
O O8 0.500000 0.182456 0.250000
O O9 0.500000 0.130792 0.404817
O O10 0.000000 0.133988 0.250000
O O11 0.000000 0.335152 0.250000
O O12 0.000000 0.384584 0.090720
O O13 0.854407 0.448719 0.979043
#
# Coordination Sequence:
#
# PCOD8257428 Si02
#       7
#    16   8   8   8   8   8   8
#     4   8  15  29  50  78 108 135 174 223 264 322
#     4  10  20  39  64  82 105 144 184 233 295 338
#     4  10  19  32  53  82 112 142 181 231 281 323
#     4   8  13  25  50  77  98 129 170 214 270 325
#     4   9  19  36  54  74 109 155 187 213 268 339
#     4  10  24  40  54  84 116 140 192 248 274 320
#     4  11  23  38  56  80 116 154 187 232 281 331
#
# _framework density 20.085422000000001
#
# number of rings (size 3 to 8) (size 9 to 14) (size 15 to 20)
#    0.000    2.750    0.000    3.000    0.000    5.000 
#    0.000    5.000    0.000    1.500    0.000    0.000 
#    0.000    0.000    0.000    0.000    0.000    0.000 
#
# Total GULP energy -396468.434963 kJ/mol
# GULP energy per Si atom -12389.638593 kJ/mol
# Density = 2.003971 g / cm^3
# Si number density = 20.085422 Si / 1000 Ang^3
#
#
#
# Elastic Constant Matrix: (Units=GPa)
#
#
# Indices 1 2 3 4 5 6 
#
# 1 181.1113 40.1624 33.2215 0.0000 0.0000 0.0000
# 2 40.1624 52.0201 9.1697 0.0000 0.0000 0.0000
# 3 33.2215 9.1697 81.5530 0.0000 0.0000 0.0000
# 4 0.0000 0.0000 0.0000 27.3369 0.0000 0.0000
# 5 0.0000 0.0000 0.0000 0.0000 12.6534 0.0000
# 6 0.0000 0.0000 0.0000 0.0000 0.0000 -26.9988
#
#
#
# Elastic Compliance Matrix: (Units=1/GPa)
#
#
# Indices 1 2 3 4 5 6 
#
# 1 0.007064 -0.005047 -0.002310 0.000000 0.000000 0.000000
# 2 -0.005047 0.023218 -0.000555 0.000000 0.000000 0.000000
# 3 -0.002310 -0.000555 0.013265 0.000000 0.000000 0.000000
# 4 0.000000 0.000000 0.000000 0.036581 0.000000 0.000000
# 5 0.000000 0.000000 0.000000 0.000000 0.079030 0.000000
# 6 0.000000 0.000000 0.000000 0.000000 0.000000 -0.037039
#
#
# Mechanical properties :
#
#
# Convention : Reuss Voigt Hill
#
# Bulk Modulus (GPa) = 36.07013 53.31020 44.69016
# Shear Modulus (GPa) = 33.97097 18.07368 26.02232
#
# Velocity S-wave (km/s) = 4.11703 3.00299 3.60333
# Velocity P-wave (km/s) = 6.37160 6.21476 6.29367
#
# Compressibility (1/GPa) = 0.02772377
#
# Stress axis : x y z
#
# Youngs Moduli (GPa) = 141.55434 43.07078 75.38377
#
# Poissons Ratio (x) = 0.21737 0.17416
# Poissons Ratio (y) = 0.71441 0.04181
# Poissons Ratio (z) = 0.32703 0.02389
#
# Static dielectric constant tensor:
#      x y z
#    x 4.019820 0.000000 0.000000 
#    y 0.000000 3.584720 0.000000 
#    z 0.000000 0.000000 3.367530 
# 
# 
# High freq. dielectric constant tensor:
#      x y z
#    x 1.799950 0.000000 0.000000 
#    y 0.000000 1.768370 0.000000 
#    z 0.000000 0.000000 1.771220 
# 
# From -- ./inp_files/27665.got.cif
#   From: 2010.03.12/outbox.cif.g09.slc.cpg/sg63_14_cif.got.tgz:27665.got - 2010.04.10 19:34:48.
