data_PCOD8257997
_publ_section_title
;
Structure prediction by ZEFSAII (Michael W. Deem and Ramdas Pophale) SiO2 
 PCOD8257997
Probable space group: C M C M
;
_chemical_formula_sum "Si O2"
_cell_formula_units_Z 88
_cell_length_a 17.432898
_cell_length_b 28.553780
_cell_length_c 8.896231
_cell_angle_alpha 90.000000
_cell_angle_beta 90.000000
_cell_angle_gamma 90.000000
_cell_volume 4428.322580
_symmetry_space_group_name_H-M "C M C M"
_symmetry_group_IT_number 63
_symmetry_cell_setting 'orthorhombic'
loop_
_space_group_symop_operation_xyz
x,y,z
-x,-y,1/2+z
x,-y,-z
-x,y,1/2-z
-x,-y,-z
x,y,1/2-z
-x,y,z
x,-y,1/2+z
1/2+x,1/2+y,z
1/2-x,1/2-y,1/2+z
1/2+x,1/2-y,-z
1/2-x,1/2+y,1/2-z
1/2-x,1/2-y,-z
1/2+x,1/2+y,1/2-z
1/2-x,1/2+y,z
1/2+x,1/2-y,1/2+z
loop_
_atom_site_type_symbol
_atom_site_label
_atom_site_fract_x
_atom_site_fract_y
_atom_site_fract_z
Si Si1 0.000000 0.550273 0.073787
Si Si2 0.089440 0.101840 0.075818
Si Si3 0.780740 0.048878 0.927487
Si Si4 0.091189 0.194810 0.917467
Si Si5 0.349692 0.107121 0.072408
Si Si6 0.914929 0.296361 0.928359
O O1 0.924998 0.578611 0.023014
O O2 0.000000 0.543017 0.250000
O O3 0.000000 0.500000 0.000000
O O4 0.108008 0.094846 0.250000
O O5 0.000000 0.095220 0.039605
O O6 0.133997 0.062598 0.981347
O O7 0.118095 0.153702 0.028639
O O8 0.779063 0.043656 0.750000
O O9 0.722724 0.088759 0.981181
O O10 0.755289 0.000000 0.000000
O O11 0.123055 0.183888 0.750000
O O12 0.120403 0.245737 0.977381
O O13 0.000000 0.197875 0.911344
O O14 0.334390 0.102454 0.250000
O O15 0.360137 0.161176 0.021265
O O16 0.923180 0.296872 0.750000
O O17 0.000000 0.303794 0.998155
#
# Coordination Sequence:
#
# PCOD8257997 Si02
#       6
#     8  16  16  16  16  16
#     4  10  20  32  52  78 108 148 194 240 283 330
#     4  10  21  39  63  89 115 144 181 227 281 342
#     4  12  26  43  61  82 111 147 187 233 288 341
#     4   8  14  27  52  85 117 149 185 226 273 329
#     4  10  19  35  57  83 115 152 194 237 282 331
#     4   8  13  26  52  84 116 152 193 232 275 326
#
# _framework density 19.872084000000001
#
# number of rings (size 3 to 8) (size 9 to 14) (size 15 to 20)
#    0.000    2.364    0.909    3.818    0.000    3.636 
#    0.000    1.818    0.000    1.091    0.000    0.000 
#    0.000    0.000    0.000    0.000    0.000    0.000 
#
# Total GULP energy -545511.740904 kJ/mol
# GULP energy per Si atom -12397.994111 kJ/mol
# Density = 1.982685 g / cm^3
# Si number density = 19.872084 Si / 1000 Ang^3
#
#
#
# Elastic Constant Matrix: (Units=GPa)
#
#
# Indices 1 2 3 4 5 6 
#
# 1 64.7045 20.6660 31.3029 0.0000 0.0000 0.0000
# 2 20.6660 74.9935 24.3981 0.0000 0.0000 0.0000
# 3 31.3029 24.3981 80.0866 0.0000 0.0000 0.0000
# 4 0.0000 0.0000 0.0000 27.2520 0.0000 0.0000
# 5 0.0000 0.0000 0.0000 0.0000 24.0430 0.0000
# 6 0.0000 0.0000 0.0000 0.0000 0.0000 27.1217
#
#
#
# Elastic Compliance Matrix: (Units=1/GPa)
#
#
# Indices 1 2 3 4 5 6 
#
# 1 0.019749 -0.003253 -0.006728 0.000000 0.000000 0.000000
# 2 -0.003253 0.015337 -0.003401 0.000000 0.000000 0.000000
# 3 -0.006728 -0.003401 0.016152 0.000000 0.000000 0.000000
# 4 0.000000 0.000000 0.000000 0.036695 0.000000 0.000000
# 5 0.000000 0.000000 0.000000 0.000000 0.041592 0.000000
# 6 0.000000 0.000000 0.000000 0.000000 0.000000 0.036871
#
#
# Mechanical properties :
#
#
# Convention : Reuss Voigt Hill
#
# Bulk Modulus (GPa) = 40.85943 41.39095 41.12519
# Shear Modulus (GPa) = 24.83627 25.24452 25.04040
#
# Velocity S-wave (km/s) = 3.53910 3.56807 3.55361
# Velocity P-wave (km/s) = 6.10787 6.15213 6.13004
#
# Compressibility (1/GPa) = 0.02447415
#
# Stress axis : x y z
#
# Youngs Moduli (GPa) = 50.63590 65.19989 61.91087
#
# Poissons Ratio (x) = 0.21212 0.41653
# Poissons Ratio (y) = 0.16474 0.21055
# Poissons Ratio (z) = 0.34068 0.22174
#
# Static dielectric constant tensor:
#      x y z
#    x 3.411840 0.000000 0.000000 
#    y 0.000000 4.019550 0.000000 
#    z 0.000000 0.000000 3.362180 
# 
# 
# High freq. dielectric constant tensor:
#      x y z
#    x 1.753050 0.000000 0.000000 
#    y 0.000000 1.792770 0.000000 
#    z 0.000000 0.000000 1.748590 
# 
# From -- ./inp_files/6882.got.cif
#   From: 2010.03.12/outbox.cif.g09.slc.cpg/sg63_4_cif.got.tgz:6882.got - 2010.04.10 19:34:48.
