data_PCOD8257305
_publ_section_title
;
Structure prediction by ZEFSAII (Michael W. Deem and Ramdas Pophale) SiO2 
 PCOD8257305
Probable space group: C M C M
;
_chemical_formula_sum "Si O2"
_cell_formula_units_Z 88
_cell_length_a 22.488315
_cell_length_b 23.118947
_cell_length_c 8.959588
_cell_angle_alpha 90.000000
_cell_angle_beta 90.000000
_cell_angle_gamma 90.000000
_cell_volume 4658.145016
_symmetry_space_group_name_H-M "C M C M"
_symmetry_group_IT_number 63
_symmetry_cell_setting 'orthorhombic'
loop_
_space_group_symop_operation_xyz
x,y,z
-x,-y,1/2+z
x,-y,-z
-x,y,1/2-z
-x,-y,-z
x,y,1/2-z
-x,y,z
x,-y,1/2+z
1/2+x,1/2+y,z
1/2-x,1/2-y,1/2+z
1/2+x,1/2-y,-z
1/2-x,1/2+y,1/2-z
1/2-x,1/2-y,-z
1/2+x,1/2+y,1/2-z
1/2-x,1/2+y,z
1/2+x,1/2-y,1/2+z
loop_
_atom_site_type_symbol
_atom_site_label
_atom_site_fract_x
_atom_site_fract_y
_atom_site_fract_z
Si Si1 0.162294 0.358007 0.924309
Si Si2 0.000000 0.064125 0.427563
Si Si3 0.566322 0.057166 0.073350
Si Si4 0.262893 0.440504 0.576821
Si Si5 0.622131 0.625638 0.423445
Si Si6 0.687494 0.266919 0.074919
O O1 0.167207 0.368193 0.750000
O O2 0.104987 0.390163 0.989249
O O3 0.223127 0.387113 0.989329
O O4 0.150636 0.291162 0.958569
O O5 0.942184 0.101844 0.478649
O O6 0.000000 0.055070 0.250000
O O7 0.000000 0.000000 0.500000
O O8 0.568754 0.050896 0.250000
O O9 0.500000 0.068000 0.014785
O O10 0.593561 0.000000 0.000000
O O11 0.244865 0.500000 0.500000
O O12 0.250270 0.449382 0.750000
O O13 0.331818 0.426276 0.546736
O O14 0.619360 0.642586 0.250000
O O15 0.647300 0.681807 0.508710
O O16 0.698019 0.278610 0.250000
O O17 0.750000 0.250000 0.000000
#
# Coordination Sequence:
#
# PCOD8257305 Si02
#       6
#    16   8  16  16  16  16
#     4   9  18  33  51  74 105 139 174 220 272 320
#     4  10  22  40  64  88 120 158 197 248 303 358
#     4   9  17  31  51  73 101 135 169 208 258 313
#     4  10  19  32  51  76 108 138 175 225 275 332
#     4  10  21  39  58  81 115 153 188 234 292 343
#     4  11  21  37  59  82 111 147 187 232 282 342
#
# _framework density 18.891642000000001
#
# number of rings (size 3 to 8) (size 9 to 14) (size 15 to 20)
#    0.000    2.182    1.818    1.636    0.000    1.455 
#    1.636    1.818    0.000    0.000    0.000    0.000 
#    0.000    0.000    0.000    0.000    0.000    0.000 
#
# Total GULP energy -545155.174715 kJ/mol
# GULP energy per Si atom -12389.890334 kJ/mol
# Density = 1.884864 g / cm^3
# Si number density = 18.891642 Si / 1000 Ang^3
#
#
#
# Elastic Constant Matrix: (Units=GPa)
#
#
# Indices 1 2 3 4 5 6 
#
# 1 117.4311 71.8340 34.8702 0.0000 0.0000 0.0000
# 2 71.8340 137.5160 45.7773 0.0000 0.0000 0.0000
# 3 34.8702 45.7773 49.8420 0.0000 0.0000 0.0000
# 4 0.0000 0.0000 0.0000 34.6989 0.0000 0.0000
# 5 0.0000 0.0000 0.0000 0.0000 16.8973 0.0000
# 6 0.0000 0.0000 0.0000 0.0000 0.0000 34.5624
#
#
#
# Elastic Compliance Matrix: (Units=1/GPa)
#
#
# Indices 1 2 3 4 5 6 
#
# 1 0.013083 -0.005455 -0.004143 0.000000 0.000000 0.000000
# 2 -0.005455 0.012749 -0.007893 0.000000 0.000000 0.000000
# 3 -0.004143 -0.007893 0.030211 0.000000 0.000000 0.000000
# 4 0.000000 0.000000 0.000000 0.028819 0.000000 0.000000
# 5 0.000000 0.000000 0.000000 0.000000 0.059181 0.000000
# 6 0.000000 0.000000 0.000000 0.000000 0.000000 0.028933
#
#
# Mechanical properties :
#
#
# Convention : Reuss Voigt Hill
#
# Bulk Modulus (GPa) = 47.48027 67.75023 57.61525
# Shear Modulus (GPa) = 23.25830 27.38555 25.32192
#
# Velocity S-wave (km/s) = 3.51257 3.81151 3.66509
# Velocity P-wave (km/s) = 6.45278 7.43710 6.96236
#
# Compressibility (1/GPa) = 0.02106138
#
# Stress axis : x y z
#
# Youngs Moduli (GPa) = 76.43735 78.43931 33.10076
#
# Poissons Ratio (x) = 0.42788 0.13713
# Poissons Ratio (y) = 0.41696 0.26125
# Poissons Ratio (z) = 0.31666 0.61910
#
# Static dielectric constant tensor:
#      x y z
#    x 3.867640 0.000000 0.000000 
#    y 0.000000 5.493840 0.000000 
#    z 0.000000 0.000000 3.247170 
# 
# 
# High freq. dielectric constant tensor:
#      x y z
#    x 1.739810 0.000000 0.000000 
#    y 0.000000 1.742650 0.000000 
#    z 0.000000 0.000000 1.709720 
# 
# From -- ./inp_files/8147.got.cif
#   From: 2010.03.12/outbox.cif.g09.slc.cpg/sg63_5_cif.got.tgz:8147.got - 2010.04.10 19:34:48.
