data_PCOD8257896
_publ_section_title
;
Structure prediction by ZEFSAII (Michael W. Deem and Ramdas Pophale) SiO2 
 PCOD8257896
Probable space group: C M C M
;
_chemical_formula_sum "Si O2"
_cell_formula_units_Z 96
_cell_length_a 29.784942
_cell_length_b 9.586040
_cell_length_c 17.978305
_cell_angle_alpha 90.000000
_cell_angle_beta 90.000000
_cell_angle_gamma 90.000000
_cell_volume 5133.159269
_symmetry_space_group_name_H-M "C M C M"
_symmetry_group_IT_number 63
_symmetry_cell_setting 'orthorhombic'
loop_
_space_group_symop_operation_xyz
x,y,z
-x,-y,1/2+z
x,-y,-z
-x,y,1/2-z
-x,-y,-z
x,y,1/2-z
-x,y,z
x,-y,1/2+z
1/2+x,1/2+y,z
1/2-x,1/2-y,1/2+z
1/2+x,1/2-y,-z
1/2-x,1/2+y,1/2-z
1/2-x,1/2-y,-z
1/2+x,1/2+y,1/2-z
1/2-x,1/2+y,z
1/2+x,1/2-y,1/2+z
loop_
_atom_site_type_symbol
_atom_site_label
_atom_site_fract_x
_atom_site_fract_y
_atom_site_fract_z
Si Si1 0.616398 0.905716 0.665535
Si Si2 0.950962 0.377962 0.547552
Si Si3 0.449912 0.618722 0.055710
Si Si4 0.118953 0.265357 0.163536
Si Si5 0.206701 0.639379 0.086484
Si Si6 0.791320 0.317704 0.416218
O O1 0.611144 0.860356 0.750000
O O2 0.577512 0.831743 0.618787
O O3 0.663087 0.841013 0.637220
O O4 0.608293 0.070775 0.654233
O O5 0.926298 0.500000 0.500000
O O6 0.956891 0.250462 0.494530
O O7 0.000000 0.431387 0.574548
O O8 0.500000 0.575833 0.086776
O O9 0.415979 0.661015 0.122415
O O10 0.430281 0.500000 0.000000
O O11 0.118869 0.222481 0.250000
O O12 0.168400 0.248233 0.129650
O O13 0.220183 0.478703 0.097708
O O14 0.248345 0.732300 0.112527
O O15 0.195756 0.691470 0.003110
#
# Coordination Sequence:
#
# PCOD8257896 Si02
#       6
#    16  16  16  16  16  16
#     4  10  20  33  55  84 113 144 179 227 283 326
#     4  10  19  34  58  82 106 139 181 224 267 321
#     4  10  21  38  58  81 108 144 184 223 271 328
#     4  10  20  35  56  83 112 144 180 226 278 328
#     4   9  18  33  54  76 107 142 183 223 265 316
#     4   9  18  34  54  79 105 141 182 224 266 316
#
# _framework density 18.701934000000001
#
# number of rings (size 3 to 8) (size 9 to 14) (size 15 to 20)
#    0.000    2.333    1.667    1.000    2.333    1.333 
#    9.000    2.500    0.000    3.000    0.000    0.000 
#    0.000    0.000    0.000    0.000    0.000    0.000 
#
# Total GULP energy -594746.520684 kJ/mol
# GULP energy per Si atom -12390.552514 kJ/mol
# Density = 1.865937 g / cm^3
# Si number density = 18.701934 Si / 1000 Ang^3
#
#
#
# Elastic Constant Matrix: (Units=GPa)
#
#
# Indices 1 2 3 4 5 6 
#
# 1 121.2386 32.3269 80.7474 0.0000 0.0000 0.0000
# 2 32.3269 50.0537 29.4490 0.0000 0.0000 0.0000
# 3 80.7474 29.4490 123.2535 0.0000 0.0000 0.0000
# 4 0.0000 0.0000 0.0000 23.1624 0.0000 0.0000
# 5 0.0000 0.0000 0.0000 0.0000 9.4303 0.0000
# 6 0.0000 0.0000 0.0000 0.0000 0.0000 31.2245
#
#
#
# Elastic Compliance Matrix: (Units=1/GPa)
#
#
# Indices 1 2 3 4 5 6 
#
# 1 0.015531 -0.004706 -0.009050 0.000000 0.000000 0.000000
# 2 -0.004706 0.024672 -0.002812 0.000000 0.000000 0.000000
# 3 -0.009050 -0.002812 0.014714 0.000000 0.000000 0.000000
# 4 0.000000 0.000000 0.000000 0.043173 0.000000 0.000000
# 5 0.000000 0.000000 0.000000 0.000000 0.106041 0.000000
# 6 0.000000 0.000000 0.000000 0.000000 0.000000 0.032026
#
#
# Mechanical properties :
#
#
# Convention : Reuss Voigt Hill
#
# Bulk Modulus (GPa) = 45.91139 64.39917 55.15528
# Shear Modulus (GPa) = 18.07965 22.89829 20.48897
#
# Velocity S-wave (km/s) = 3.11260 3.50291 3.31351
# Velocity P-wave (km/s) = 6.12535 7.13230 6.64792
#
# Compressibility (1/GPa) = 0.02178109
#
# Stress axis : x y z
#
# Youngs Moduli (GPa) = 64.38917 40.53154 67.96074
#
# Poissons Ratio (x) = 0.19073 0.61506
# Poissons Ratio (y) = 0.30299 0.19111
# Poissons Ratio (z) = 0.58274 0.11398
#
# Static dielectric constant tensor:
#      x y z
#    x 3.629760 0.000000 0.000000 
#    y 0.000000 3.185650 0.000000 
#    z 0.000000 0.000000 3.347130 
# 
# 
# High freq. dielectric constant tensor:
#      x y z
#    x 1.731830 0.000000 0.000000 
#    y 0.000000 1.708380 0.000000 
#    z 0.000000 0.000000 1.715490 
# 
# From -- ./inp_files/58042.got.cif
#   From: 2010.03.12/outbox.cif.g09.slc.cpg/sg63_30_cif.got.tgz:58042.got - 2010.04.10 19:34:48.
