data_PCOD8257629
_publ_section_title
;
Structure prediction by ZEFSAII (Michael W. Deem and Ramdas Pophale) SiO2 
 PCOD8257629
Probable space group: C M C M
;
_chemical_formula_sum "Si O2"
_cell_formula_units_Z 96
_cell_length_a 8.846520
_cell_length_b 19.994077
_cell_length_c 28.329639
_cell_angle_alpha 90.000000
_cell_angle_beta 90.000000
_cell_angle_gamma 90.000000
_cell_volume 5010.889945
_symmetry_space_group_name_H-M "C M C M"
_symmetry_group_IT_number 63
_symmetry_cell_setting 'orthorhombic'
loop_
_space_group_symop_operation_xyz
x,y,z
-x,-y,1/2+z
x,-y,-z
-x,y,1/2-z
-x,-y,-z
x,y,1/2-z
-x,y,z
x,-y,1/2+z
1/2+x,1/2+y,z
1/2-x,1/2-y,1/2+z
1/2+x,1/2-y,-z
1/2-x,1/2+y,1/2-z
1/2-x,1/2-y,-z
1/2+x,1/2+y,1/2-z
1/2-x,1/2+y,z
1/2+x,1/2-y,1/2+z
loop_
_atom_site_type_symbol
_atom_site_label
_atom_site_fract_x
_atom_site_fract_y
_atom_site_fract_z
Si Si1 0.179512 0.702615 0.039105
Si Si2 0.679669 0.951530 0.958388
Si Si3 0.820814 0.616697 0.198362
Si Si4 0.678050 0.010202 0.641034
Si Si5 0.320438 0.759840 0.641987
Si Si6 0.679476 0.629785 0.804109
O O1 0.239003 0.625242 0.035937
O O2 0.232646 0.737576 0.087778
O O3 0.000000 0.702568 0.033846
O O4 0.250000 0.750000 0.000000
O O5 0.500000 0.948738 0.957754
O O6 0.737229 0.985578 0.909985
O O7 0.739783 0.000000 0.000000
O O8 0.749238 0.623353 0.250000
O O9 0.775470 0.545467 0.178424
O O10 0.751212 0.674225 0.165906
O O11 0.000000 0.624405 0.200008
O O12 0.500000 0.024513 0.639620
O O13 0.763304 0.074848 0.659392
O O14 0.500000 0.760591 0.643777
O O15 0.258387 0.697606 0.672054
O O16 0.741688 0.622586 0.750000
O O17 0.500000 0.628531 0.802684
#
# Coordination Sequence:
#
# PCOD8257629 Si02
#       6
#    16  16  16  16  16  16
#     4  10  20  35  55  78 104 134 171 214 258 307
#     4   9  18  33  53  77 105 137 172 211 261 314
#     4   9  15  26  49  76  96 121 165 216 254 288
#     4  10  19  33  54  79 104 132 172 220 259 300
#     4   9  17  32  51  72 100 133 171 210 248 300
#     4  10  21  35  51  74 106 141 171 205 258 315
#
# _framework density 19.158273999999999
#
# number of rings (size 3 to 8) (size 9 to 14) (size 15 to 20)
#    0.000    2.500    1.667    1.000    2.333    3.000 
#    0.000    0.833    0.000    2.000    0.000    0.000 
#    0.000    0.000    0.000    0.000    0.000    0.000 
#
# Total GULP energy -594870.959690 kJ/mol
# GULP energy per Si atom -12393.144994 kJ/mol
# Density = 1.911467 g / cm^3
# Si number density = 19.158274 Si / 1000 Ang^3
#
#
#
# Elastic Constant Matrix: (Units=GPa)
#
#
# Indices 1 2 3 4 5 6 
#
# 1 10.4274 17.3255 16.2556 0.0000 0.0000 0.0000
# 2 17.3255 117.6546 55.3669 0.0000 0.0000 0.0000
# 3 16.2556 55.3669 156.6818 0.0000 0.0000 0.0000
# 4 0.0000 0.0000 0.0000 42.5910 0.0000 0.0000
# 5 0.0000 0.0000 0.0000 0.0000 20.5003 0.0000
# 6 0.0000 0.0000 0.0000 0.0000 0.0000 15.2433
#
#
#
# Elastic Compliance Matrix: (Units=1/GPa)
#
#
# Indices 1 2 3 4 5 6 
#
# 1 0.135620 -0.016012 -0.008412 0.000000 0.000000 0.000000
# 2 -0.016012 0.012085 -0.002609 0.000000 0.000000 0.000000
# 3 -0.008412 -0.002609 0.008177 0.000000 0.000000 0.000000
# 4 0.000000 0.000000 0.000000 0.023479 0.000000 0.000000
# 5 0.000000 0.000000 0.000000 0.000000 0.048780 0.000000
# 6 0.000000 0.000000 0.000000 0.000000 0.000000 0.065602
#
#
# Mechanical properties :
#
#
# Convention : Reuss Voigt Hill
#
# Bulk Modulus (GPa) = 9.82174 51.40665 30.61419
# Shear Modulus (GPa) = 13.09757 28.72131 20.90944
#
# Velocity S-wave (km/s) = 2.61751 3.87610 3.30723
# Velocity P-wave (km/s) = 3.77795 6.85004 5.53154
#
# Compressibility (1/GPa) = 0.10181498
#
# Stress axis : x y z
#
# Youngs Moduli (GPa) = 7.37353 82.74505 122.29152
#
# Poissons Ratio (x) = 1.32495 1.02874
# Poissons Ratio (y) = 0.11807 0.31910
# Poissons Ratio (z) = 0.06203 0.21591
#
# Static dielectric constant tensor:
#      x y z
#    x 2.878960 0.000000 0.000000 
#    y 0.000000 3.758160 0.000000 
#    z 0.000000 0.000000 3.960740 
# 
# 
# High freq. dielectric constant tensor:
#      x y z
#    x 1.677400 0.000000 0.000000 
#    y 0.000000 1.761660 0.000000 
#    z 0.000000 0.000000 1.766420 
# 
# From -- ./inp_files/61464.got.cif
#   From: 2010.03.12/outbox.cif.g09.slc.cpg/sg63_31_cif.got.tgz:61464.got - 2010.04.10 19:34:48.
