data_PCOD8257380
_publ_section_title
;
Structure prediction by ZEFSAII (Michael W. Deem and Ramdas Pophale) SiO2 
 PCOD8257380
Probable space group: C M C M
;
_chemical_formula_sum "Si O2"
_cell_formula_units_Z 96
_cell_length_a 22.758933
_cell_length_b 24.227832
_cell_length_c 9.345664
_cell_angle_alpha 90.000000
_cell_angle_beta 90.000000
_cell_angle_gamma 90.000000
_cell_volume 5153.195440
_symmetry_space_group_name_H-M "C M C M"
_symmetry_group_IT_number 63
_symmetry_cell_setting 'orthorhombic'
loop_
_space_group_symop_operation_xyz
x,y,z
-x,-y,1/2+z
x,-y,-z
-x,y,1/2-z
-x,-y,-z
x,y,1/2-z
-x,y,z
x,-y,1/2+z
1/2+x,1/2+y,z
1/2-x,1/2-y,1/2+z
1/2+x,1/2-y,-z
1/2-x,1/2+y,1/2-z
1/2-x,1/2-y,-z
1/2+x,1/2+y,1/2-z
1/2-x,1/2+y,z
1/2+x,1/2-y,1/2+z
loop_
_atom_site_type_symbol
_atom_site_label
_atom_site_fract_x
_atom_site_fract_y
_atom_site_fract_z
Si Si1 0.223262 0.297837 0.089514
Si Si2 0.155343 0.449344 0.585557
Si Si3 0.268673 0.584654 0.912124
Si Si4 0.000000 0.264231 0.918659
Si Si5 0.500000 0.639221 0.580930
Si Si6 0.599732 0.445089 0.419186
Si Si7 0.386696 0.831182 0.585839
O O1 0.213164 0.277240 0.250000
O O2 0.267442 0.349218 0.083991
O O3 0.250000 0.250000 0.000000
O O4 0.161326 0.311572 0.023395
O O5 0.125597 0.500000 0.500000
O O6 0.164994 0.465512 0.750000
O O7 0.219902 0.439189 0.518704
O O8 0.110745 0.397735 0.572111
O O9 0.256135 0.563867 0.750000
O O10 0.333220 0.567127 0.964672
O O11 0.000000 0.201853 0.984813
O O12 0.055045 0.300825 0.968289
O O13 0.000000 0.258838 0.750000
O O14 0.500000 0.644804 0.750000
O O15 0.558285 0.605903 0.531576
O O16 0.578124 0.500000 0.500000
O O17 0.593787 0.454649 0.250000
O O18 0.371330 0.814987 0.750000
#
# Coordination Sequence:
#
# PCOD8257380 Si02
#       7
#    16  16  16   8   8  16  16
#     4  10  20  33  52  78 110 143 176 220 269 323
#     4  10  19  32  52  79 110 139 173 214 262 322
#     4   9  19  33  51  76 105 137 176 217 261 313
#     4   9  18  35  61  81 101 137 184 231 266 316
#     4   9  19  33  54  77  97 131 178 219 260 310
#     4  10  20  34  52  76 102 133 172 216 260 309
#     4   9  19  35  56  81 105 137 181 226 269 315
#
# _framework density 18.629218000000002
#
# number of rings (size 3 to 8) (size 9 to 14) (size 15 to 20)
#    0.000    2.500    0.000    1.750    2.333    3.333 
#    0.000    0.833    0.000    1.000    0.000    0.000 
#    0.000    0.000    0.000    0.000    0.000    0.000 
#
# Total GULP energy -595017.987703 kJ/mol
# GULP energy per Si atom -12396.208077 kJ/mol
# Density = 1.858682 g / cm^3
# Si number density = 18.629218 Si / 1000 Ang^3
#
#
#
# Elastic Constant Matrix: (Units=GPa)
#
#
# Indices 1 2 3 4 5 6 
#
# 1 82.4687 60.4587 25.8253 0.0000 0.0000 0.0000
# 2 60.4587 141.3483 55.9900 0.0000 0.0000 0.0000
# 3 25.8253 55.9900 92.0828 0.0000 0.0000 0.0000
# 4 0.0000 0.0000 0.0000 34.1153 0.0000 0.0000
# 5 0.0000 0.0000 0.0000 0.0000 10.6922 0.0000
# 6 0.0000 0.0000 0.0000 0.0000 0.0000 19.6894
#
#
#
# Elastic Compliance Matrix: (Units=1/GPa)
#
#
# Indices 1 2 3 4 5 6 
#
# 1 0.017681 -0.007375 -0.000475 0.000000 0.000000 0.000000
# 2 -0.007375 0.012395 -0.005469 0.000000 0.000000 0.000000
# 3 -0.000475 -0.005469 0.014318 0.000000 0.000000 0.000000
# 4 0.000000 0.000000 0.000000 0.029312 0.000000 0.000000
# 5 0.000000 0.000000 0.000000 0.000000 0.093526 0.000000
# 6 0.000000 0.000000 0.000000 0.000000 0.000000 0.050789
#
#
# Mechanical properties :
#
#
# Convention : Reuss Voigt Hill
#
# Bulk Modulus (GPa) = 56.31118 66.71644 61.51381
# Shear Modulus (GPa) = 19.95398 24.47442 22.21420
#
# Velocity S-wave (km/s) = 3.27634 3.62852 3.45692
# Velocity P-wave (km/s) = 6.67873 7.31064 7.00182
#
# Compressibility (1/GPa) = 0.01775846
#
# Stress axis : x y z
#
# Youngs Moduli (GPa) = 56.55841 80.67650 69.84223
#
# Poissons Ratio (x) = 0.59495 0.03315
# Poissons Ratio (y) = 0.41709 0.38193
# Poissons Ratio (z) = 0.02685 0.44118
#
# Static dielectric constant tensor:
#      x y z
#    x 3.470240 0.000000 0.000000 
#    y 0.000000 3.710090 0.000000 
#    z 0.000000 0.000000 3.335470 
# 
# 
# High freq. dielectric constant tensor:
#      x y z
#    x 1.708350 0.000000 0.000000 
#    y 0.000000 1.737250 0.000000 
#    z 0.000000 0.000000 1.709410 
# 
# From -- ./inp_files/10519.got.cif
#   From: 2010.03.12/outbox.cif.g09.slc.cpg/sg63_6_cif.got.tgz:10519.got - 2010.04.10 19:34:48.
