data_PCOD8257948
_publ_section_title
;
Structure prediction by ZEFSAII (Michael W. Deem and Ramdas Pophale) SiO2 
 PCOD8257948
Probable space group: C M C M
;
_chemical_formula_sum "Si O2"
_cell_formula_units_Z 96
_cell_length_a 25.602879
_cell_length_b 8.218314
_cell_length_c 24.689265
_cell_angle_alpha 90.000000
_cell_angle_beta 90.000000
_cell_angle_gamma 90.000000
_cell_volume 5194.929945
_symmetry_space_group_name_H-M "C M C M"
_symmetry_group_IT_number 63
_symmetry_cell_setting 'orthorhombic'
loop_
_space_group_symop_operation_xyz
x,y,z
-x,-y,1/2+z
x,-y,-z
-x,y,1/2-z
-x,-y,-z
x,y,1/2-z
-x,y,z
x,-y,1/2+z
1/2+x,1/2+y,z
1/2-x,1/2-y,1/2+z
1/2+x,1/2-y,-z
1/2-x,1/2+y,1/2-z
1/2-x,1/2-y,-z
1/2+x,1/2+y,1/2-z
1/2-x,1/2+y,z
1/2+x,1/2-y,1/2+z
loop_
_atom_site_type_symbol
_atom_site_label
_atom_site_fract_x
_atom_site_fract_y
_atom_site_fract_z
Si Si1 0.320825 0.367004 0.926755
Si Si2 0.614021 0.819806 0.990080
Si Si3 0.810075 0.272305 0.812704
Si Si4 0.500000 0.461419 0.406745
Si Si5 0.500000 0.265747 0.982819
Si Si6 0.891588 0.133942 0.619605
Si Si7 0.733414 0.938023 0.121976
O O1 0.347757 0.318473 0.983736
O O2 0.364324 0.462384 0.893171
O O3 0.305989 0.197141 0.899154
O O4 0.268403 0.481460 0.927150
O O5 0.554949 0.831214 0.014395
O O6 0.614611 0.768873 0.927603
O O7 0.638154 0.000000 0.000000
O O8 0.803215 0.312166 0.750000
O O9 0.868599 0.209266 0.825263
O O10 0.770533 0.132157 0.831231
O O11 0.801904 0.429470 0.849216
O O12 0.500000 0.650925 0.423257
O O13 0.500000 0.382895 0.465895
O O14 0.451577 0.407793 0.370319
#
# Coordination Sequence:
#
# PCOD8257948 Si02
#       7
#    16  16  16   8   8  16  16
#     4  10  19  35  52  73 105 139 172 212 259 313
#     4  11  20  32  51  78 110 138 173 213 258 316
#     4  10  19  35  55  77 101 132 172 217 260 301
#     4   9  16  32  53  76 103 133 173 210 251 307
#     4   9  17  30  52  76 103 139 170 206 255 303
#     4  10  20  34  54  77 104 136 174 212 259 309
#     4   9  20  35  53  76 103 135 177 214 258 309
#
# _framework density 18.479555999999999
#
# number of rings (size 3 to 8) (size 9 to 14) (size 15 to 20)
#    0.000    2.167    1.667    2.250    0.000    0.000 
#    0.000   22.083    0.000    0.000    0.000    0.000 
#    0.000    0.000    0.000    0.000    0.000    0.000 
#
# Total GULP energy -594695.537958 kJ/mol
# GULP energy per Si atom -12389.490374 kJ/mol
# Density = 1.843750 g / cm^3
# Si number density = 18.479556 Si / 1000 Ang^3
#
#
#
# Elastic Constant Matrix: (Units=GPa)
#
#
# Indices 1 2 3 4 5 6 
#
# 1 95.8874 30.6575 23.6485 0.0000 0.0000 0.0000
# 2 30.6575 85.4907 -0.5202 0.0000 0.0000 0.0000
# 3 23.6485 -0.5202 31.1120 0.0000 0.0000 0.0000
# 4 0.0000 0.0000 0.0000 12.1026 0.0000 0.0000
# 5 0.0000 0.0000 0.0000 0.0000 16.4301 0.0000
# 6 0.0000 0.0000 0.0000 0.0000 0.0000 24.5059
#
#
#
# Elastic Compliance Matrix: (Units=1/GPa)
#
#
# Indices 1 2 3 4 5 6 
#
# 1 0.015008 -0.005452 -0.011499 0.000000 0.000000 0.000000
# 2 -0.005452 0.013679 0.004373 0.000000 0.000000 0.000000
# 3 -0.011499 0.004373 0.040955 0.000000 0.000000 0.000000
# 4 0.000000 0.000000 0.000000 0.082627 0.000000 0.000000
# 5 0.000000 0.000000 0.000000 0.000000 0.060864 0.000000
# 6 0.000000 0.000000 0.000000 0.000000 0.000000 0.040806
#
#
# Mechanical properties :
#
#
# Convention : Reuss Voigt Hill
#
# Bulk Modulus (GPa) = 22.47884 35.56242 29.02063
# Shear Modulus (GPa) = 17.01120 21.18802 19.09961
#
# Velocity S-wave (km/s) = 3.03733 3.38977 3.21838
# Velocity P-wave (km/s) = 4.94885 5.88275 5.43589
#
# Compressibility (1/GPa) = 0.04448627
#
# Stress axis : x y z
#
# Youngs Moduli (GPa) = 66.63144 73.10542 24.41680
#
# Poissons Ratio (x) = 0.39856 0.28076
# Poissons Ratio (y) = 0.36327 -0.10677
# Poissons Ratio (z) = 0.76618 -0.31967
#
# Static dielectric constant tensor:
#      x y z
#    x 3.627370 0.000000 0.000000 
#    y 0.000000 3.474690 0.000000 
#    z 0.000000 0.000000 2.995590 
# 
# 
# High freq. dielectric constant tensor:
#      x y z
#    x 1.724000 0.000000 0.000000 
#    y 0.000000 1.729240 0.000000 
#    z 0.000000 0.000000 1.667230 
# 
# From -- ./inp_files/65033.got.cif
#   From: 2010.03.12/outbox.cif.g09.slc.cpg/sg63_33_cif.got.tgz:65033.got - 2010.04.10 19:34:48.
