data_PCOD8257231
_publ_section_title
;
Structure prediction by ZEFSAII (Michael W. Deem and Ramdas Pophale) SiO2 
 PCOD8257231
Probable space group: C M C M
;
_chemical_formula_sum "Si O2"
_cell_formula_units_Z 96
_cell_length_a 22.361979
_cell_length_b 12.530605
_cell_length_c 18.808642
_cell_angle_alpha 90.000000
_cell_angle_beta 90.000000
_cell_angle_gamma 90.000000
_cell_volume 5270.353134
_symmetry_space_group_name_H-M "C M C M"
_symmetry_group_IT_number 63
_symmetry_cell_setting 'orthorhombic'
loop_
_space_group_symop_operation_xyz
x,y,z
-x,-y,1/2+z
x,-y,-z
-x,y,1/2-z
-x,-y,-z
x,y,1/2-z
-x,y,z
x,-y,1/2+z
1/2+x,1/2+y,z
1/2-x,1/2-y,1/2+z
1/2+x,1/2-y,-z
1/2-x,1/2+y,1/2-z
1/2-x,1/2-y,-z
1/2+x,1/2+y,1/2-z
1/2-x,1/2+y,z
1/2+x,1/2-y,1/2+z
loop_
_atom_site_type_symbol
_atom_site_label
_atom_site_fract_x
_atom_site_fract_y
_atom_site_fract_z
Si Si1 0.297618 0.434285 0.667959
Si Si2 0.830541 0.767206 0.562433
Si Si3 0.067387 0.390753 0.460884
Si Si4 0.670261 0.831036 0.669918
Si Si5 0.933632 0.481290 0.670766
Si Si6 0.286473 0.355001 0.421599
O O1 0.318097 0.454655 0.750000
O O2 0.338239 0.338969 0.633937
O O3 0.228166 0.405034 0.666085
O O4 0.303551 0.536813 0.617892
O O5 0.890072 0.712050 0.530584
O O6 0.784172 0.671763 0.580950
O O7 0.805586 0.851485 0.504195
O O8 0.089072 0.500000 0.500000
O O9 0.068314 0.412998 0.376640
O O10 0.000000 0.361984 0.487126
O O11 0.660056 0.789619 0.750000
O O12 0.674893 0.733124 0.617925
O O13 0.612693 0.894547 0.641454
O O14 0.915228 0.516819 0.750000
O O15 0.000000 0.429970 0.668425
#
# Coordination Sequence:
#
# PCOD8257231 Si02
#       6
#    16  16  16  16  16  16
#     4  10  20  33  50  73 100 132 169 206 248 297
#     4  10  21  33  51  76 101 130 166 204 250 299
#     4  10  20  34  53  76 101 129 161 200 248 300
#     4   9  17  29  47  72 100 131 166 204 246 291
#     4   9  17  29  47  72 100 129 161 199 245 295
#     4  10  19  32  50  72 102 134 164 204 249 296
#
# _framework density 18.215098999999999
#
# number of rings (size 3 to 8) (size 9 to 14) (size 15 to 20)
#    0.000    2.333    0.000    3.000    0.000    4.000 
#    0.000    0.000    0.000    3.000    0.000    0.000 
#    0.000    0.000    0.000    0.000    0.000    0.000 
#
# Total GULP energy -594896.148626 kJ/mol
# GULP energy per Si atom -12393.669763 kJ/mol
# Density = 1.817364 g / cm^3
# Si number density = 18.215099 Si / 1000 Ang^3
#
#
#
# Elastic Constant Matrix: (Units=GPa)
#
#
# Indices 1 2 3 4 5 6 
#
# 1 62.2799 33.3219 14.5937 0.0000 0.0000 0.0000
# 2 33.3219 75.2718 39.3420 0.0000 0.0000 0.0000
# 3 14.5937 39.3420 79.2158 0.0000 0.0000 0.0000
# 4 0.0000 0.0000 0.0000 32.4205 0.0000 0.0000
# 5 0.0000 0.0000 0.0000 0.0000 19.8382 0.0000
# 6 0.0000 0.0000 0.0000 0.0000 0.0000 25.3224
#
#
#
# Elastic Compliance Matrix: (Units=1/GPa)
#
#
# Indices 1 2 3 4 5 6 
#
# 1 0.021100 -0.009871 0.001015 0.000000 0.000000 0.000000
# 2 -0.009871 0.022561 -0.009386 0.000000 0.000000 0.000000
# 3 0.001015 -0.009386 0.017098 0.000000 0.000000 0.000000
# 4 0.000000 0.000000 0.000000 0.030845 0.000000 0.000000
# 5 0.000000 0.000000 0.000000 0.000000 0.050408 0.000000
# 6 0.000000 0.000000 0.000000 0.000000 0.000000 0.039491
#
#
# Mechanical properties :
#
#
# Convention : Reuss Voigt Hill
#
# Bulk Modulus (GPa) = 41.19484 43.47586 42.33535
# Shear Modulus (GPa) = 22.11617 24.15020 23.13319
#
# Velocity S-wave (km/s) = 3.48827 3.64515 3.56757
# Velocity P-wave (km/s) = 6.23610 6.45260 6.34527
#
# Compressibility (1/GPa) = 0.02427488
#
# Stress axis : x y z
#
# Youngs Moduli (GPa) = 47.39295 44.32431 58.48552
#
# Poissons Ratio (x) = 0.43755 -0.05938
# Poissons Ratio (y) = 0.46784 0.54895
# Poissons Ratio (z) = -0.04812 0.41603
#
# Static dielectric constant tensor:
#      x y z
#    x 3.243200 0.000000 0.000000 
#    y 0.000000 3.073860 0.000000 
#    z 0.000000 0.000000 3.723680 
# 
# 
# High freq. dielectric constant tensor:
#      x y z
#    x 1.681550 0.000000 0.000000 
#    y 0.000000 1.678550 0.000000 
#    z 0.000000 0.000000 1.730930 
# 
# From -- ./inp_files/48053.got.cif
#   From: 2010.03.12/outbox.cif.g09.slc.cpg/sg63_25_cif.got.tgz:48053.got - 2010.04.10 19:34:48.
