data_PCOD8257760
_publ_section_title
;
Structure prediction by ZEFSAII (Michael W. Deem and Ramdas Pophale) SiO2 
 PCOD8257760
Probable space group: C M C M
;
_chemical_formula_sum "Si O2"
_cell_formula_units_Z 80
_cell_length_a 19.388781
_cell_length_b 24.767708
_cell_length_c 10.000708
_cell_angle_alpha 90.000000
_cell_angle_beta 90.000000
_cell_angle_gamma 90.000000
_cell_volume 4802.496656
_symmetry_space_group_name_H-M "C M C M"
_symmetry_group_IT_number 63
_symmetry_cell_setting 'orthorhombic'
loop_
_space_group_symop_operation_xyz
x,y,z
-x,-y,1/2+z
x,-y,-z
-x,y,1/2-z
-x,-y,-z
x,y,1/2-z
-x,y,z
x,-y,1/2+z
1/2+x,1/2+y,z
1/2-x,1/2-y,1/2+z
1/2+x,1/2-y,-z
1/2-x,1/2+y,1/2-z
1/2-x,1/2-y,-z
1/2+x,1/2+y,1/2-z
1/2-x,1/2+y,z
1/2+x,1/2-y,1/2+z
loop_
_atom_site_type_symbol
_atom_site_label
_atom_site_fract_x
_atom_site_fract_y
_atom_site_fract_z
Si Si1 0.629753 0.056808 0.250000
Si Si2 0.851581 0.735250 0.094272
Si Si3 0.500000 0.147381 0.750000
Si Si4 0.721186 0.940238 0.495174
Si Si5 0.000000 0.370186 0.750000
Si Si6 0.000000 0.288277 0.518240
Si Si7 0.879375 0.561624 0.750000
Si Si8 0.251851 0.169687 0.906473
O O1 0.680216 0.067561 0.370870
O O2 0.569698 0.098288 0.250000
O O3 0.590644 0.999087 0.250000
O O4 0.848476 0.715796 0.250000
O O5 0.930428 0.745767 0.047839
O O6 0.814279 0.792547 0.077387
O O7 0.815513 0.691499 0.996755
O O8 0.500000 0.188702 0.629141
O O9 0.434862 0.108422 0.750000
O O10 0.665599 0.933814 0.380567
O O11 0.771812 0.889341 0.465281
O O12 0.757847 0.000000 0.500000
O O13 0.000000 0.338545 0.614346
O O14 0.275005 0.166404 0.750000
#
# Coordination Sequence:
#
# PCOD8257760 Si02
#       8
#     8  16   4  16   4   8   8  16
#     4  10  21  30  47  68  97 136 168 215 250 286
#     4  10  21  37  53  77 103 136 173 219 261 313
#     4  12  23  32  50  68  98 144 179 212 246 298
#     4  10  20  33  49  72  98 129 171 216 258 302
#     4  12  19  32  46  64  98 132 175 202 242 304
#     4  12  24  34  49  74 103 134 175 212 257 306
#     4  10  19  34  45  66  99 130 178 211 246 294
#     4  10  20  35  57  76 103 134 174 215 265 313
#
# _framework density 16.658003000000001
#
# number of rings (size 3 to 8) (size 9 to 14) (size 15 to 20)
#    0.000    1.600    2.000    3.900    2.800    0.000 
#    0.000    4.000    0.000    0.000    0.000    0.700 
#    0.000    0.000    0.000    0.000    0.000    0.000 
#
# Total GULP energy -495582.995860 kJ/mol
# GULP energy per Si atom -12389.574897 kJ/mol
# Density = 1.662009 g / cm^3
# Si number density = 16.658003 Si / 1000 Ang^3
#
#
#
# Elastic Constant Matrix: (Units=GPa)
#
#
# Indices 1 2 3 4 5 6 
#
# 1 76.8692 42.9162 33.3541 0.0000 0.0000 0.0000
# 2 42.9162 118.7541 45.3729 0.0000 0.0000 0.0000
# 3 33.3541 45.3729 131.7807 0.0000 0.0000 0.0000
# 4 0.0000 0.0000 0.0000 29.3201 0.0000 0.0000
# 5 0.0000 0.0000 0.0000 0.0000 162.9609 0.0000
# 6 0.0000 0.0000 0.0000 0.0000 0.0000 28.1608
#
#
#
# Elastic Compliance Matrix: (Units=1/GPa)
#
#
# Indices 1 2 3 4 5 6 
#
# 1 0.016993 -0.005179 -0.002518 0.000000 0.000000 0.000000
# 2 -0.005179 0.011275 -0.002571 0.000000 0.000000 0.000000
# 3 -0.002518 -0.002571 0.009111 0.000000 0.000000 0.000000
# 4 0.000000 0.000000 0.000000 0.034106 0.000000 0.000000
# 5 0.000000 0.000000 0.000000 0.000000 0.006136 0.000000
# 6 0.000000 0.000000 0.000000 0.000000 0.000000 0.035510
#
#
# Mechanical properties :
#
#
# Convention : Reuss Voigt Hill
#
# Bulk Modulus (GPa) = 59.37294 63.41007 61.39150
# Shear Modulus (GPa) = 35.89833 57.80575 46.85204
#
# Velocity S-wave (km/s) = 4.64726 5.89719 5.30913
# Velocity P-wave (km/s) = 8.03216 9.19334 8.63230
#
# Compressibility (1/GPa) = 0.01684269
#
# Stress axis : x y z
#
# Youngs Moduli (GPa) = 58.84733 88.69350 109.75878
#
# Poissons Ratio (x) = 0.45935 0.27635
# Poissons Ratio (y) = 0.30478 0.28220
# Poissons Ratio (z) = 0.14817 0.22804
#
# Static dielectric constant tensor:
#      x y z
#    x 2.947240 0.000000 0.000000 
#    y 0.000000 3.688370 0.000000 
#    z 0.000000 0.000000 3.390480 
# 
# 
# High freq. dielectric constant tensor:
#      x y z
#    x 1.598710 0.000000 0.000000 
#    y 0.000000 1.647570 0.000000 
#    z 0.000000 0.000000 1.671330 
# 
# From -- ./inp_files/8500.got.cif
#   From: 2010.03.12/outbox.cif.g09.slc.cpg/sg63_5_cif.got.tgz:8500.got - 2010.04.10 19:34:48.
