data_PCOD8257844
_publ_section_title
;
Structure prediction by ZEFSAII (Michael W. Deem and Ramdas Pophale) SiO2 
 PCOD8257844
Probable space group: C M C M
;
_chemical_formula_sum "Si O2"
_cell_formula_units_Z 96
_cell_length_a 8.889909
_cell_length_b 25.137023
_cell_length_c 23.655060
_cell_angle_alpha 90.000000
_cell_angle_beta 90.000000
_cell_angle_gamma 90.000000
_cell_volume 5286.098019
_symmetry_space_group_name_H-M "C M C M"
_symmetry_group_IT_number 63
_symmetry_cell_setting 'orthorhombic'
loop_
_space_group_symop_operation_xyz
x,y,z
-x,-y,1/2+z
x,-y,-z
-x,y,1/2-z
-x,-y,-z
x,y,1/2-z
-x,y,z
x,-y,1/2+z
1/2+x,1/2+y,z
1/2-x,1/2-y,1/2+z
1/2+x,1/2-y,-z
1/2-x,1/2+y,1/2-z
1/2-x,1/2-y,-z
1/2+x,1/2+y,1/2-z
1/2-x,1/2+y,z
1/2+x,1/2-y,1/2+z
loop_
_atom_site_type_symbol
_atom_site_label
_atom_site_fract_x
_atom_site_fract_y
_atom_site_fract_z
Si Si1 0.678210 0.601318 0.630681
Si Si2 0.673831 0.311729 0.551944
Si Si3 0.821298 0.059259 0.750000
Si Si4 0.675445 0.190904 0.936027
Si Si5 0.822902 0.059847 0.250000
Si Si6 0.175721 0.090632 0.371531
Si Si7 0.324175 0.005905 0.565302
O O1 0.500000 0.601526 0.627764
O O2 0.736420 0.589655 0.694182
O O3 0.739764 0.658787 0.612810
O O4 0.737229 0.556909 0.588052
O O5 0.500000 0.314508 0.533666
O O6 0.715986 0.252772 0.573053
O O7 0.771334 0.328331 0.497781
O O8 0.710970 0.351570 0.602964
O O9 0.000000 0.056625 0.750000
O O10 0.752949 0.999579 0.750000
O O11 0.500000 0.179293 0.930886
O O12 0.772316 0.091772 0.194030
O O13 0.000000 0.053535 0.250000
O O14 0.000000 0.075771 0.377429
O O15 0.272189 0.046941 0.403394
O O16 0.500000 0.014633 0.575238
O O17 0.283118 0.000000 0.500000
#
# Coordination Sequence:
#
# PCOD8257844 Si02
#       7
#    16  16   8  16   8  16  16
#     4  11  21  36  57  78 103 139 184 222 260 316
#     4   9  19  35  56  81 107 142 182 217 261 318
#     4   9  18  34  55  78 102 136 180 222 263 310
#     4  10  20  35  54  80 113 142 174 220 271 318
#     4   9  16  32  55  78 102 134 174 220 265 304
#     4  10  19  34  56  78 102 135 178 217 255 313
#     4  11  23  35  49  76 111 139 166 213 273 320
#
# _framework density 18.160843
#
# number of rings (size 3 to 8) (size 9 to 14) (size 15 to 20)
#    0.000    2.000    1.667    2.500    0.000    5.333 
#    0.000    3.750    0.000    2.000    0.000    0.000 
#    0.000    0.000    0.000    0.000    0.000    0.000 
#
# Total GULP energy -595307.830996 kJ/mol
# GULP energy per Si atom -12402.246479 kJ/mol
# Density = 1.811951 g / cm^3
# Si number density = 18.160843 Si / 1000 Ang^3
#
#
#
# Elastic Constant Matrix: (Units=GPa)
#
#
# Indices 1 2 3 4 5 6 
#
# 1 49.4822 23.2635 35.3866 0.0000 0.0000 0.0000
# 2 23.2635 99.5650 62.5234 0.0000 0.0000 0.0000
# 3 35.3866 62.5234 140.3509 0.0000 0.0000 0.0000
# 4 0.0000 0.0000 0.0000 30.5552 0.0000 0.0000
# 5 0.0000 0.0000 0.0000 0.0000 18.4067 0.0000
# 6 0.0000 0.0000 0.0000 0.0000 0.0000 30.5109
#
#
#
# Elastic Compliance Matrix: (Units=1/GPa)
#
#
# Indices 1 2 3 4 5 6 
#
# 1 0.025141 -0.002629 -0.005168 0.000000 0.000000 0.000000
# 2 -0.002629 0.014220 -0.005672 0.000000 0.000000 0.000000
# 3 -0.005168 -0.005672 0.010954 0.000000 0.000000 0.000000
# 4 0.000000 0.000000 0.000000 0.032728 0.000000 0.000000
# 5 0.000000 0.000000 0.000000 0.000000 0.054328 0.000000
# 6 0.000000 0.000000 0.000000 0.000000 0.000000 0.032775
#
#
# Mechanical properties :
#
#
# Convention : Reuss Voigt Hill
#
# Bulk Modulus (GPa) = 42.77478 59.08280 50.92879
# Shear Modulus (GPa) = 24.40511 27.10953 25.75732
#
# Velocity S-wave (km/s) = 3.66981 3.86780 3.77010
# Velocity P-wave (km/s) = 6.44679 7.24915 6.85971
#
# Compressibility (1/GPa) = 0.02337826
#
# Stress axis : x y z
#
# Youngs Moduli (GPa) = 39.77592 70.32543 91.28682
#
# Poissons Ratio (x) = 0.18490 0.47173
# Poissons Ratio (y) = 0.10458 0.51775
# Poissons Ratio (z) = 0.20554 0.39886
#
# Static dielectric constant tensor:
#      x y z
#    x 3.257720 0.000000 0.000000 
#    y 0.000000 3.458750 0.000000 
#    z 0.000000 0.000000 3.500300 
# 
# 
# High freq. dielectric constant tensor:
#      x y z
#    x 1.693360 0.000000 0.000000 
#    y 0.000000 1.704810 0.000000 
#    z 0.000000 0.000000 1.706400 
# 
# From -- ./inp_files/59988.got.cif
#   From: 2010.03.12/outbox.cif.g09.slc.cpg/sg63_30_cif.got.tgz:59988.got - 2010.04.10 19:34:48.
