data_PCOD8257933
_publ_section_title
;
Structure prediction by ZEFSAII (Michael W. Deem and Ramdas Pophale) SiO2 
 PCOD8257933
Probable space group: C M C M
;
_chemical_formula_sum "Si O2"
_cell_formula_units_Z 88
_cell_length_a 12.209921
_cell_length_b 26.987742
_cell_length_c 14.001403
_cell_angle_alpha 90.000000
_cell_angle_beta 90.000000
_cell_angle_gamma 90.000000
_cell_volume 4613.717083
_symmetry_space_group_name_H-M "C M C M"
_symmetry_group_IT_number 63
_symmetry_cell_setting 'orthorhombic'
loop_
_space_group_symop_operation_xyz
x,y,z
-x,-y,1/2+z
x,-y,-z
-x,y,1/2-z
-x,-y,-z
x,y,1/2-z
-x,y,z
x,-y,1/2+z
1/2+x,1/2+y,z
1/2-x,1/2-y,1/2+z
1/2+x,1/2-y,-z
1/2-x,1/2+y,1/2-z
1/2-x,1/2-y,-z
1/2+x,1/2+y,1/2-z
1/2-x,1/2+y,z
1/2+x,1/2-y,1/2+z
loop_
_atom_site_type_symbol
_atom_site_label
_atom_site_fract_x
_atom_site_fract_y
_atom_site_fract_z
Si Si1 0.236292 0.037445 0.250000
Si Si2 0.871212 0.308840 0.570381
Si Si3 0.230879 0.376357 0.080437
Si Si4 0.375050 0.447496 0.549715
Si Si5 0.370266 0.867501 0.750000
Si Si6 0.877922 0.792076 0.357782
Si Si7 0.628998 0.936706 0.250000
O O1 0.159427 0.045403 0.158925
O O2 0.335274 0.075716 0.250000
O O3 0.292976 0.984083 0.250000
O O4 0.844445 0.335936 0.472125
O O5 0.820329 0.340764 0.656933
O O6 0.826335 0.251982 0.576442
O O7 0.000000 0.305601 0.584540
O O8 0.317142 0.344314 0.139217
O O9 0.155230 0.406567 0.153515
O O10 0.292686 0.410888 0.004720
O O11 0.366931 0.500000 0.500000
O O12 0.500000 0.427192 0.545698
O O13 0.500000 0.866845 0.750000
O O14 0.876770 0.771600 0.250000
O O15 0.000000 0.803904 0.392866
O O16 0.500000 0.950392 0.250000
#
# Coordination Sequence:
#
# PCOD8257933 Si02
#       7
#     8  16  16  16   8  16   8
#     4  12  22  44  62  90 122 159 198 251 309 354
#     4  10  20  36  61  89 118 155 198 248 295 356
#     4  12  22  41  60  88 123 164 199 246 313 361
#     4  11  24  41  63  91 119 155 206 253 301 365
#     4  10  19  34  60  89 117 148 197 245 292 354
#     4  10  20  36  60  90 119 153 202 248 292 355
#     4  12  27  42  60  91 125 159 205 254 305 366
#
# _framework density 19.073557999999998
#
# number of rings (size 3 to 8) (size 9 to 14) (size 15 to 20)
#    0.000    1.091    5.455    2.182    0.000    0.000 
#    0.000    0.909    0.000    0.000    0.000    0.000 
#    0.000    0.000    0.000    0.000    0.000    0.000 
#
# Total GULP energy -545473.071771 kJ/mol
# GULP energy per Si atom -12397.115268 kJ/mol
# Density = 1.903015 g / cm^3
# Si number density = 19.073558 Si / 1000 Ang^3
#
#
#
# Elastic Constant Matrix: (Units=GPa)
#
#
# Indices 1 2 3 4 5 6 
#
# 1 58.8631 20.8057 27.2759 0.0000 0.0000 0.0000
# 2 20.8057 81.5256 19.5100 0.0000 0.0000 0.0000
# 3 27.2759 19.5100 100.9735 0.0000 0.0000 0.0000
# 4 0.0000 0.0000 0.0000 33.4780 0.0000 0.0000
# 5 0.0000 0.0000 0.0000 0.0000 28.6467 0.0000
# 6 0.0000 0.0000 0.0000 0.0000 0.0000 23.5554
#
#
#
# Elastic Compliance Matrix: (Units=1/GPa)
#
#
# Indices 1 2 3 4 5 6 
#
# 1 0.020665 -0.004129 -0.004784 0.000000 0.000000 0.000000
# 2 -0.004129 0.013686 -0.001529 0.000000 0.000000 0.000000
# 3 -0.004784 -0.001529 0.011491 0.000000 0.000000 0.000000
# 4 0.000000 0.000000 0.000000 0.029870 0.000000 0.000000
# 5 0.000000 0.000000 0.000000 0.000000 0.034908 0.000000
# 6 0.000000 0.000000 0.000000 0.000000 0.000000 0.042453
#
#
# Mechanical properties :
#
#
# Convention : Reuss Voigt Hill
#
# Bulk Modulus (GPa) = 40.06809 41.83838 40.95323
# Shear Modulus (GPa) = 27.43072 28.72072 28.07572
#
# Velocity S-wave (km/s) = 3.79641 3.88466 3.84079
# Velocity P-wave (km/s) = 6.34585 6.48873 6.41769
#
# Compressibility (1/GPa) = 0.02495752
#
# Stress axis : x y z
#
# Youngs Moduli (GPa) = 48.39108 73.06904 87.02127
#
# Poissons Ratio (x) = 0.30169 0.41635
# Poissons Ratio (y) = 0.19980 0.13306
# Poissons Ratio (z) = 0.23152 0.11172
#
# Static dielectric constant tensor:
#      x y z
#    x 3.328950 0.000000 0.000000 
#    y 0.000000 3.607480 0.000000 
#    z 0.000000 0.000000 3.498890 
# 
# 
# High freq. dielectric constant tensor:
#      x y z
#    x 1.729990 0.000000 0.000000 
#    y 0.000000 1.756590 0.000000 
#    z 0.000000 0.000000 1.749690 
# 
# From -- ./inp_files/30169.got.cif
#   From: 2010.03.12/outbox.cif.g09.slc.cpg/sg63_16_cif.got.tgz:30169.got - 2010.04.10 19:34:48.
