data_PCOD8257254
_publ_section_title
;
Structure prediction by ZEFSAII (Michael W. Deem and Ramdas Pophale) SiO2 
 PCOD8257254
Probable space group: C M C M
;
_chemical_formula_sum "Si O2"
_cell_formula_units_Z 88
_cell_length_a 22.257649
_cell_length_b 22.910589
_cell_length_c 9.194843
_cell_angle_alpha 90.000000
_cell_angle_beta 90.000000
_cell_angle_gamma 90.000000
_cell_volume 4688.780066
_symmetry_space_group_name_H-M "C M C M"
_symmetry_group_IT_number 63
_symmetry_cell_setting 'orthorhombic'
loop_
_space_group_symop_operation_xyz
x,y,z
-x,-y,1/2+z
x,-y,-z
-x,y,1/2-z
-x,-y,-z
x,y,1/2-z
-x,y,z
x,-y,1/2+z
1/2+x,1/2+y,z
1/2-x,1/2-y,1/2+z
1/2+x,1/2-y,-z
1/2-x,1/2+y,1/2-z
1/2-x,1/2-y,-z
1/2+x,1/2+y,1/2-z
1/2-x,1/2+y,z
1/2+x,1/2-y,1/2+z
loop_
_atom_site_type_symbol
_atom_site_label
_atom_site_fract_x
_atom_site_fract_y
_atom_site_fract_z
Si Si1 0.160617 0.349745 0.917347
Si Si2 0.000000 0.063513 0.424892
Si Si3 0.566886 0.053451 0.083974
Si Si4 0.259436 0.441952 0.581148
Si Si5 0.623079 0.622272 0.419931
Si Si6 0.814077 0.240297 0.076682
O O1 0.167781 0.328807 0.750000
O O2 0.101856 0.387485 0.940729
O O3 0.219516 0.386298 0.965008
O O4 0.148391 0.296357 0.026227
O O5 0.058303 0.100658 0.479874
O O6 0.000000 0.054931 0.250000
O O7 0.000000 0.000000 0.500000
O O8 0.566736 0.034624 0.250000
O O9 0.500000 0.063956 0.023238
O O10 0.598390 0.000000 0.000000
O O11 0.238530 0.500000 0.500000
O O12 0.249149 0.454194 0.750000
O O13 0.328557 0.427958 0.543058
O O14 0.616277 0.631250 0.250000
O O15 0.648710 0.683808 0.482075
O O16 0.804926 0.237078 0.250000
O O17 0.750000 0.250000 0.000000
#
# Coordination Sequence:
#
# PCOD8257254 Si02
#       6
#    16   8  16  16  16  16
#     4  10  20  35  53  75 109 144 177 222 274 323
#     4  10  20  38  62  84 112 148 183 226 277 328
#     4   9  18  33  53  76 106 143 179 219 269 321
#     4  10  19  32  50  76 107 136 171 217 268 320
#     4   9  19  36  56  78 109 144 177 220 274 323
#     4  11  21  37  58  80 107 142 182 222 272 330
#
# _framework density 18.768208000000001
#
# number of rings (size 3 to 8) (size 9 to 14) (size 15 to 20)
#    0.000    2.182    1.818    1.636    0.000    1.455 
#    1.636    1.818    0.000    0.000    0.000    0.000 
#    0.000    0.000    0.000    0.000    0.000    0.000 
#
# Total GULP energy -545341.753632 kJ/mol
# GULP energy per Si atom -12394.130764 kJ/mol
# Density = 1.872549 g / cm^3
# Si number density = 18.768208 Si / 1000 Ang^3
#
#
#
# Elastic Constant Matrix: (Units=GPa)
#
#
# Indices 1 2 3 4 5 6 
#
# 1 106.3408 49.9661 26.1472 0.0000 0.0000 0.0000
# 2 49.9661 134.1881 48.3927 0.0000 0.0000 0.0000
# 3 26.1472 48.3927 47.1414 0.0000 0.0000 0.0000
# 4 0.0000 0.0000 0.0000 36.7322 0.0000 0.0000
# 5 0.0000 0.0000 0.0000 0.0000 4.5123 0.0000
# 6 0.0000 0.0000 0.0000 0.0000 0.0000 28.2948
#
#
#
# Elastic Compliance Matrix: (Units=1/GPa)
#
#
# Indices 1 2 3 4 5 6 
#
# 1 0.011694 -0.003200 -0.003201 0.000000 0.000000 0.000000
# 2 -0.003200 0.012708 -0.011271 0.000000 0.000000 0.000000
# 3 -0.003201 -0.011271 0.034558 0.000000 0.000000 0.000000
# 4 0.000000 0.000000 0.000000 0.027224 0.000000 0.000000
# 5 0.000000 0.000000 0.000000 0.000000 0.221616 0.000000
# 6 0.000000 0.000000 0.000000 0.000000 0.000000 0.035342
#
#
# Mechanical properties :
#
#
# Convention : Reuss Voigt Hill
#
# Bulk Modulus (GPa) = 42.34277 59.63135 50.98706
# Shear Modulus (GPa) = 12.94130 24.78549 18.86339
#
# Velocity S-wave (km/s) = 2.62874 3.63796 3.17373
# Velocity P-wave (km/s) = 5.64124 7.03476 6.37619
#
# Compressibility (1/GPa) = 0.02361678
#
# Stress axis : x y z
#
# Youngs Moduli (GPa) = 85.51040 78.68813 28.93648
#
# Poissons Ratio (x) = 0.25180 0.09264
# Poissons Ratio (y) = 0.27363 0.32614
# Poissons Ratio (z) = 0.27376 0.88688
#
# Static dielectric constant tensor:
#      x y z
#    x 3.742600 0.000000 0.000000 
#    y 0.000000 3.681920 0.000000 
#    z 0.000000 0.000000 3.352910 
# 
# 
# High freq. dielectric constant tensor:
#      x y z
#    x 1.734390 0.000000 0.000000 
#    y 0.000000 1.735300 0.000000 
#    z 0.000000 0.000000 1.703120 
# 
# From -- ./inp_files/8146.got.cif
#   From: 2010.03.12/outbox.cif.g09.slc.cpg/sg63_5_cif.got.tgz:8146.got - 2010.04.10 19:34:48.
