data_PCOD8257919
_publ_section_title
;
Structure prediction by ZEFSAII (Michael W. Deem and Ramdas Pophale) SiO2 
 PCOD8257919
Probable space group: C M C M
;
_chemical_formula_sum "Si O2"
_cell_formula_units_Z 104
_cell_length_a 17.243452
_cell_length_b 15.507030
_cell_length_c 19.845748
_cell_angle_alpha 90.000000
_cell_angle_beta 90.000000
_cell_angle_gamma 90.000000
_cell_volume 5306.648378
_symmetry_space_group_name_H-M "C M C M"
_symmetry_group_IT_number 63
_symmetry_cell_setting 'orthorhombic'
loop_
_space_group_symop_operation_xyz
x,y,z
-x,-y,1/2+z
x,-y,-z
-x,y,1/2-z
-x,-y,-z
x,y,1/2-z
-x,y,z
x,-y,1/2+z
1/2+x,1/2+y,z
1/2-x,1/2-y,1/2+z
1/2+x,1/2-y,-z
1/2-x,1/2+y,1/2-z
1/2-x,1/2-y,-z
1/2+x,1/2+y,1/2-z
1/2-x,1/2+y,z
1/2+x,1/2-y,1/2+z
loop_
_atom_site_type_symbol
_atom_site_label
_atom_site_fract_x
_atom_site_fract_y
_atom_site_fract_z
Si Si1 0.298529 0.000000 0.000000
Si Si2 0.668630 0.261922 0.960393
Si Si3 0.171319 0.360310 0.823235
Si Si4 0.226847 0.304486 0.174384
Si Si5 0.717557 0.489073 0.138325
Si Si6 0.413371 0.862532 0.956295
Si Si7 0.588209 0.559981 0.434924
O O1 0.352823 0.082327 0.002113
O O2 0.244123 0.983866 0.062004
O O3 0.667459 0.209930 0.888144
O O4 0.648135 0.361100 0.947068
O O5 0.750000 0.250000 0.000000
O O6 0.599985 0.231217 0.010801
O O7 0.131635 0.362616 0.750000
O O8 0.208575 0.267873 0.837351
O O9 0.236115 0.435102 0.824268
O O10 0.103253 0.371782 0.877036
O O11 0.189139 0.293358 0.250000
O O12 0.267629 0.398049 0.174173
O O13 0.625338 0.510312 0.130527
O O14 0.500000 0.894445 0.968704
O O15 0.585575 0.500000 0.500000
O O16 0.500000 0.589121 0.416753
#
# Coordination Sequence:
#
# PCOD8257919 Si02
#       7
#     8  16  16  16  16  16  16
#     4  10  19  34  59  86 114 148 198 252 289 358
#     4  12  20  40  62  89 118 157 211 259 301 367
#     4  10  22  38  58  87 117 154 205 251 301 371
#     4  11  22  37  63  90 117 154 210 262 301 360
#     4  11  19  37  62  86 119 159 207 253 308 360
#     4  11  22  35  58  87 117 151 188 247 313 360
#     4  11  23  36  57  93 132 162 199 260 325 373
#
# _framework density 19.598056
#
# number of rings (size 3 to 8) (size 9 to 14) (size 15 to 20)
#    0.000    1.077    5.385    3.000    0.000    0.308 
#    0.000    0.000    0.000    6.462    0.000    0.000 
#    0.000    0.000    0.000    0.000    0.000    0.000 
#
# Total GULP energy -644366.072266 kJ/mol
# GULP energy per Si atom -12391.655236 kJ/mol
# Density = 1.955345 g / cm^3
# Si number density = 19.598056 Si / 1000 Ang^3
#
#
#
# Elastic Constant Matrix: (Units=GPa)
#
#
# Indices 1 2 3 4 5 6 
#
# 1 92.5427 23.0739 25.1381 0.0000 0.0000 0.0000
# 2 23.0739 108.6293 19.3438 0.0000 0.0000 0.0000
# 3 25.1381 19.3438 102.9071 0.0000 0.0000 0.0000
# 4 0.0000 0.0000 0.0000 -45.2095 0.0000 0.0000
# 5 0.0000 0.0000 0.0000 0.0000 34.9687 0.0000
# 6 0.0000 0.0000 0.0000 0.0000 0.0000 48.0473
#
#
#
# Elastic Compliance Matrix: (Units=1/GPa)
#
#
# Indices 1 2 3 4 5 6 
#
# 1 0.012020 -0.002101 -0.002541 0.000000 0.000000 0.000000
# 2 -0.002101 0.009892 -0.001346 0.000000 0.000000 0.000000
# 3 -0.002541 -0.001346 0.010591 0.000000 0.000000 0.000000
# 4 0.000000 0.000000 0.000000 -0.022119 0.000000 0.000000
# 5 0.000000 0.000000 0.000000 0.000000 0.028597 0.000000
# 6 0.000000 0.000000 0.000000 0.000000 0.000000 0.020813
#
#
# Mechanical properties :
#
#
# Convention : Reuss Voigt Hill
#
# Bulk Modulus (GPa) = 48.71764 48.79897 48.75830
# Shear Modulus (GPa) = 63.60360 23.32950 43.46655
#
# Velocity S-wave (km/s) = 5.70302 3.45396 4.71457
# Velocity P-wave (km/s) = 8.26307 6.39221 7.38711
#
# Compressibility (1/GPa) = 0.02052645
#
# Stress axis : x y z
#
# Youngs Moduli (GPa) = 83.19542 101.09663 94.41658
#
# Poissons Ratio (x) = 0.21236 0.23995
# Poissons Ratio (y) = 0.17476 0.12711
# Poissons Ratio (z) = 0.21143 0.13610
#
# Static dielectric constant tensor:
#      x y z
#    x 3.444230 0.000000 0.000000 
#    y 0.000000 4.341340 0.000000 
#    z 0.000000 0.000000 4.135400 
# 
# 
# High freq. dielectric constant tensor:
#      x y z
#    x 1.730800 0.000000 0.000000 
#    y 0.000000 1.780150 0.000000 
#    z 0.000000 0.000000 1.767210 
# 
# From -- ./inp_files/55623.got.cif
#   From: 2010.03.12/outbox.cif.g09.slc.cpg/sg63_28_cif.got.tgz:55623.got - 2010.04.10 19:34:48.
