data_PCOD8257602
_publ_section_title
;
Structure prediction by ZEFSAII (Michael W. Deem and Ramdas Pophale) SiO2 
 PCOD8257602
Probable space group: C M C M
;
_chemical_formula_sum "Si O2"
_cell_formula_units_Z 112
_cell_length_a 13.591080
_cell_length_b 17.554233
_cell_length_c 23.970466
_cell_angle_alpha 90.000000
_cell_angle_beta 90.000000
_cell_angle_gamma 90.000000
_cell_volume 5718.897390
_symmetry_space_group_name_H-M "C M C M"
_symmetry_group_IT_number 63
_symmetry_cell_setting 'orthorhombic'
loop_
_space_group_symop_operation_xyz
x,y,z
-x,-y,1/2+z
x,-y,-z
-x,y,1/2-z
-x,-y,-z
x,y,1/2-z
-x,y,z
x,-y,1/2+z
1/2+x,1/2+y,z
1/2-x,1/2-y,1/2+z
1/2+x,1/2-y,-z
1/2-x,1/2+y,1/2-z
1/2-x,1/2-y,-z
1/2+x,1/2+y,1/2-z
1/2-x,1/2+y,z
1/2+x,1/2-y,1/2+z
loop_
_atom_site_type_symbol
_atom_site_label
_atom_site_fract_x
_atom_site_fract_y
_atom_site_fract_z
Si Si1 0.295983 0.906471 0.315055
Si Si2 0.756072 0.225369 0.608307
Si Si3 0.200238 0.108493 0.420263
Si Si4 0.111159 0.696517 0.190646
Si Si5 0.111723 0.126578 0.963296
Si Si6 0.390351 0.520033 0.858794
Si Si7 0.611020 0.953143 0.873762
O O1 0.324054 0.891335 0.250000
O O2 0.310132 0.831542 0.354059
O O3 0.183472 0.937042 0.316873
O O4 0.368129 0.966779 0.344205
O O5 0.696188 0.300840 0.591566
O O6 0.848425 0.245803 0.645967
O O7 0.805613 0.188976 0.553273
O O8 0.144811 0.092101 0.477743
O O9 0.142758 0.067323 0.369304
O O10 0.310945 0.071571 0.422076
O O11 0.166024 0.707394 0.250000
O O12 0.122351 0.608730 0.174678
O O13 0.000000 0.720986 0.197110
O O14 0.000000 0.160140 0.967553
O O15 0.114462 0.058849 0.919195
O O16 0.500000 0.522510 0.833088
O O17 0.500000 0.953683 0.898984
#
# Coordination Sequence:
#
# PCOD8257602 Si02
#       7
#    16  16  16  16  16  16  16
#     4  10  20  34  54  77 104 138 170 206 253 308
#     4  10  20  32  46  74 111 139 168 205 251 310
#     4  10  19  33  54  76 102 136 175 219 264 308
#     4   9  16  28  49  73  95 123 163 213 259 293
#     4  10  19  33  55  78 103 138 175 215 265 315
#     4   9  19  35  56  81 105 132 173 220 264 311
#     4   9  19  35  54  75  97 128 175 221 257 299
#
# _framework density 19.584195000000001
#
# number of rings (size 3 to 8) (size 9 to 14) (size 15 to 20)
#    0.000    2.429    0.000    2.571    0.000    3.429 
#    0.000    2.143    0.000   15.429    0.000    0.000 
#    0.000    0.000    0.000    0.000    0.000    0.000 
#
# Total GULP energy -694018.582463 kJ/mol
# GULP energy per Si atom -12393.188973 kJ/mol
# Density = 1.953962 g / cm^3
# Si number density = 19.584195 Si / 1000 Ang^3
#
#
#
# Elastic Constant Matrix: (Units=GPa)
#
#
# Indices 1 2 3 4 5 6 
#
# 1 63.7820 8.5564 4.9364 0.0000 0.0000 0.0000
# 2 8.5564 81.9670 3.7990 0.0000 0.0000 0.0000
# 3 4.9364 3.7990 60.2515 0.0000 0.0000 0.0000
# 4 0.0000 0.0000 0.0000 36.0821 0.0000 0.0000
# 5 0.0000 0.0000 0.0000 0.0000 21.5437 0.0000
# 6 0.0000 0.0000 0.0000 0.0000 0.0000 23.2642
#
#
#
# Elastic Compliance Matrix: (Units=1/GPa)
#
#
# Indices 1 2 3 4 5 6 
#
# 1 0.015988 -0.001613 -0.001208 0.000000 0.000000 0.000000
# 2 -0.001613 0.012399 -0.000650 0.000000 0.000000 0.000000
# 3 -0.001208 -0.000650 0.016737 0.000000 0.000000 0.000000
# 4 0.000000 0.000000 0.000000 0.027715 0.000000 0.000000
# 5 0.000000 0.000000 0.000000 0.000000 0.046417 0.000000
# 6 0.000000 0.000000 0.000000 0.000000 0.000000 0.042984
#
#
# Mechanical properties :
#
#
# Convention : Reuss Voigt Hill
#
# Bulk Modulus (GPa) = 26.19019 26.73157 26.46088
# Shear Modulus (GPa) = 27.48623 28.75859 28.12241
#
# Velocity S-wave (km/s) = 3.75038 3.83621 3.79354
# Velocity P-wave (km/s) = 5.67063 5.77071 5.72089
#
# Compressibility (1/GPa) = 0.03818224
#
# Stress axis : x y z
#
# Youngs Moduli (GPa) = 62.54578 80.65477 59.74771
#
# Poissons Ratio (x) = 0.13010 0.07219
# Poissons Ratio (y) = 0.10089 0.03881
# Poissons Ratio (z) = 0.07557 0.05239
#
# Static dielectric constant tensor:
#      x y z
#    x 3.648760 0.000000 0.000000 
#    y 0.000000 3.673660 0.000000 
#    z 0.000000 0.000000 3.425830 
# 
# 
# High freq. dielectric constant tensor:
#      x y z
#    x 1.747400 0.000000 0.000000 
#    y 0.000000 1.768480 0.000000 
#    z 0.000000 0.000000 1.747060 
# 
# From -- ./inp_files/63010.got.cif
#   From: 2010.03.12/outbox.cif.g09.slc.cpg/sg63_32_cif.got.tgz:63010.got - 2010.04.10 19:34:48.
