data_PCOD8257937
_publ_section_title
;
Structure prediction by ZEFSAII (Michael W. Deem and Ramdas Pophale) SiO2 
 PCOD8257937
Probable space group: C M C M
;
_chemical_formula_sum "Si O2"
_cell_formula_units_Z 96
_cell_length_a 14.587398
_cell_length_b 20.951234
_cell_length_c 14.268411
_cell_angle_alpha 90.000000
_cell_angle_beta 90.000000
_cell_angle_gamma 90.000000
_cell_volume 4360.768686
_symmetry_space_group_name_H-M "C M C M"
_symmetry_group_IT_number 63
_symmetry_cell_setting 'orthorhombic'
loop_
_space_group_symop_operation_xyz
x,y,z
-x,-y,1/2+z
x,-y,-z
-x,y,1/2-z
-x,-y,-z
x,y,1/2-z
-x,y,z
x,-y,1/2+z
1/2+x,1/2+y,z
1/2-x,1/2-y,1/2+z
1/2+x,1/2-y,-z
1/2-x,1/2+y,1/2-z
1/2-x,1/2-y,-z
1/2+x,1/2+y,1/2-z
1/2-x,1/2+y,z
1/2+x,1/2-y,1/2+z
loop_
_atom_site_type_symbol
_atom_site_label
_atom_site_fract_x
_atom_site_fract_y
_atom_site_fract_z
Si Si1 0.897490 0.428780 0.983914
Si Si2 0.844138 0.218666 0.468729
Si Si3 0.602983 0.506139 0.609364
Si Si4 0.855020 0.152140 0.648160
Si Si5 0.862037 0.663781 0.643661
Si Si6 0.733417 0.393902 0.854347
O O1 0.827771 0.395905 0.912349
O O2 0.000000 0.427999 0.940564
O O3 0.861901 0.500000 0.000000
O O4 0.900242 0.395651 0.085504
O O5 0.750000 0.250000 0.500000
O O6 0.897940 0.194271 0.562901
O O7 0.898603 0.271893 0.408822
O O8 0.831866 0.157456 0.402832
O O9 0.615151 0.500000 0.500000
O O10 0.500000 0.486478 0.640866
O O11 0.620615 0.578283 0.639401
O O12 0.678640 0.460390 0.655368
O O13 0.891213 0.176300 0.750000
O O14 0.746806 0.160599 0.643379
O O15 0.900407 0.661756 0.750000
O O16 0.759367 0.371005 0.750000
#
# Coordination Sequence:
#
# PCOD8257937 Si02
#       6
#    16  16  16  16  16  16
#     4  11  24  42  64  92 126 161 210 271 324 380
#     4  10  19  38  62  91 123 164 216 261 308 371
#     4  11  22  39  63  93 132 170 209 261 319 382
#     4  10  19  34  61  88 123 169 213 259 313 374
#     4  10  20  39  66  92 122 168 217 262 317 379
#     4  12  23  39  66  93 126 168 209 261 322 379
#
# _framework density 22.014468999999998
#
# number of rings (size 3 to 8) (size 9 to 14) (size 15 to 20)
#    0.000    1.333    5.000    2.500    0.000    4.667 
#    0.000    3.333    0.000    2.000    0.000    0.000 
#    0.000    0.000    0.000    0.000    0.000    0.000 
#
# Total GULP energy -594960.862892 kJ/mol
# GULP energy per Si atom -12395.017977 kJ/mol
# Density = 2.196436 g / cm^3
# Si number density = 22.014469 Si / 1000 Ang^3
#
#
#
# Elastic Constant Matrix: (Units=GPa)
#
#
# Indices 1 2 3 4 5 6 
#
# 1 57.9172 12.3863 27.5641 0.0000 0.0000 0.0000
# 2 12.3863 123.1981 65.7509 0.0000 0.0000 0.0000
# 3 27.5641 65.7509 199.1684 0.0000 0.0000 0.0000
# 4 0.0000 0.0000 0.0000 26.8243 0.0000 0.0000
# 5 0.0000 0.0000 0.0000 0.0000 -10.7897 0.0000
# 6 0.0000 0.0000 0.0000 0.0000 0.0000 -66.4482
#
#
#
# Elastic Compliance Matrix: (Units=1/GPa)
#
#
# Indices 1 2 3 4 5 6 
#
# 1 0.018520 -0.000600 -0.002365 0.000000 0.000000 0.000000
# 2 -0.000600 0.009872 -0.003176 0.000000 0.000000 0.000000
# 3 -0.002365 -0.003176 0.006397 0.000000 0.000000 0.000000
# 4 0.000000 0.000000 0.000000 0.037280 0.000000 0.000000
# 5 0.000000 0.000000 0.000000 0.000000 -0.092681 0.000000
# 6 0.000000 0.000000 0.000000 0.000000 0.000000 -0.015049
#
#
# Mechanical properties :
#
#
# Convention : Reuss Voigt Hill
#
# Bulk Modulus (GPa) = 44.43047 65.74292 55.08669
# Shear Modulus (GPa) = -314.90732 8.22277 -153.34227
#
# Velocity S-wave (km/s) = -11.97314 1.93475 -8.35502
# Velocity P-wave (km/s) = 13.07346 5.90926 8.24609
#
# Compressibility (1/GPa) = 0.02250708
#
# Stress axis : x y z
#
# Youngs Moduli (GPa) = 53.99603 101.29229 156.32993
#
# Poissons Ratio (x) = 0.06075 0.36973
# Poissons Ratio (y) = 0.03238 0.49653
# Poissons Ratio (z) = 0.12771 0.32172
#
# Static dielectric constant tensor:
#      x y z
#    x 3.699230 0.000000 0.000000 
#    y 0.000000 4.363500 0.000000 
#    z 0.000000 0.000000 4.559490 
# 
# 
# High freq. dielectric constant tensor:
#      x y z
#    x 1.843070 0.000000 0.000000 
#    y 0.000000 1.868440 0.000000 
#    z 0.000000 0.000000 1.881090 
# 
# From -- ./inp_files/31893.got.cif
#   From: 2010.03.12/outbox.cif.g09.slc.cpg/sg63_16_cif.got.tgz:31893.got - 2010.04.10 19:34:48.
