data_PCOD8257558
_publ_section_title
;
Structure prediction by ZEFSAII (Michael W. Deem and Ramdas Pophale) SiO2 
 PCOD8257558
Probable space group: C M C M
;
_chemical_formula_sum "Si O2"
_cell_formula_units_Z 80
_cell_length_a 8.549610
_cell_length_b 19.244886
_cell_length_c 25.804382
_cell_angle_alpha 90.000000
_cell_angle_beta 90.000000
_cell_angle_gamma 90.000000
_cell_volume 4245.756759
_symmetry_space_group_name_H-M "C M C M"
_symmetry_group_IT_number 63
_symmetry_cell_setting 'orthorhombic'
loop_
_space_group_symop_operation_xyz
x,y,z
-x,-y,1/2+z
x,-y,-z
-x,y,1/2-z
-x,-y,-z
x,y,1/2-z
-x,y,z
x,-y,1/2+z
1/2+x,1/2+y,z
1/2-x,1/2-y,1/2+z
1/2+x,1/2-y,-z
1/2-x,1/2+y,1/2-z
1/2-x,1/2-y,-z
1/2+x,1/2+y,1/2-z
1/2-x,1/2+y,z
1/2+x,1/2-y,1/2+z
loop_
_atom_site_type_symbol
_atom_site_label
_atom_site_fract_x
_atom_site_fract_y
_atom_site_fract_z
Si Si1 0.818100 0.979100 0.389780
Si Si2 0.816597 0.627374 0.534420
Si Si3 0.317625 0.272631 0.384544
Si Si4 0.816607 0.620152 0.416191
Si Si5 0.682985 0.121098 0.809204
O O1 0.721875 0.944937 0.437012
O O2 0.774635 0.942320 0.335794
O O3 0.000000 0.969043 0.400808
O O4 0.774938 0.059986 0.385910
O O5 0.725165 0.690526 0.561376
O O6 0.759179 0.622866 0.475497
O O7 0.000000 0.642603 0.538071
O O8 0.500000 0.283511 0.374042
O O9 0.273426 0.191833 0.387820
O O10 0.222180 0.306259 0.337262
O O11 0.000000 0.604745 0.413699
O O12 0.737783 0.126194 0.750000
O O13 0.500000 0.106237 0.814074
#
# Coordination Sequence:
#
# PCOD8257558 Si02
#       5
#    16  16  16  16  16
#     4  11  22  34  53  80 107 137 176 220 261 305
#     4  10  19  33  53  75 107 148 182 212 250 304
#     4  10  20  34  54  80 108 137 174 217 258 306
#     4  10  21  35  51  76 111 147 177 210 257 307
#     4  10  21  39  61  79  99 132 172 214 263 319
#
# _framework density 18.842341999999999
#
# number of rings (size 3 to 8) (size 9 to 14) (size 15 to 20)
#    0.000    1.800    0.000    7.200    0.000    7.200 
#    0.000    1.000    0.000    1.200    0.000    0.000 
#    0.000    0.000    0.000    0.000    0.000    0.000 
#
# Total GULP energy -496177.365962 kJ/mol
# GULP energy per Si atom -12404.434149 kJ/mol
# Density = 1.879946 g / cm^3
# Si number density = 18.842342 Si / 1000 Ang^3
#
#
#
# Elastic Constant Matrix: (Units=GPa)
#
#
# Indices 1 2 3 4 5 6 
#
# 1 44.9506 26.2016 20.1253 0.0000 0.0000 0.0000
# 2 26.2016 129.4966 48.9065 0.0000 0.0000 0.0000
# 3 20.1253 48.9065 121.3984 0.0000 0.0000 0.0000
# 4 0.0000 0.0000 0.0000 11.2051 0.0000 0.0000
# 5 0.0000 0.0000 0.0000 0.0000 22.2321 0.0000
# 6 0.0000 0.0000 0.0000 0.0000 0.0000 33.5834
#
#
#
# Elastic Compliance Matrix: (Units=1/GPa)
#
#
# Indices 1 2 3 4 5 6 
#
# 1 0.025885 -0.004266 -0.002573 0.000000 0.000000 0.000000
# 2 -0.004266 0.009811 -0.003245 0.000000 0.000000 0.000000
# 3 -0.002573 -0.003245 0.009971 0.000000 0.000000 0.000000
# 4 0.000000 0.000000 0.000000 0.089245 0.000000 0.000000
# 5 0.000000 0.000000 0.000000 0.000000 0.044980 0.000000
# 6 0.000000 0.000000 0.000000 0.000000 0.000000 0.029777
#
#
# Mechanical properties :
#
#
# Convention : Reuss Voigt Hill
#
# Bulk Modulus (GPa) = 39.21612 54.03471 46.62541
# Shear Modulus (GPa) = 20.97877 26.77826 23.87852
#
# Velocity S-wave (km/s) = 3.34036 3.77394 3.56375
# Velocity P-wave (km/s) = 5.97790 6.90867 6.46007
#
# Compressibility (1/GPa) = 0.02549972
#
# Stress axis : x y z
#
# Youngs Moduli (GPa) = 38.63235 101.92688 100.28867
#
# Poissons Ratio (x) = 0.43480 0.25801
# Poissons Ratio (y) = 0.16480 0.32546
# Poissons Ratio (z) = 0.09939 0.33078
#
# Static dielectric constant tensor:
#      x y z
#    x 3.445230 0.000000 0.000000 
#    y 0.000000 3.486870 0.000000 
#    z 0.000000 0.000000 3.370240 
# 
# 
# High freq. dielectric constant tensor:
#      x y z
#    x 1.740130 0.000000 0.000000 
#    y 0.000000 1.736170 0.000000 
#    z 0.000000 0.000000 1.714370 
# 
# From -- ./inp_files/66640.got.cif
#   From: 2010.03.12/outbox.cif.g09.slc.cpg/sg63_34_cif.got.tgz:66640.got - 2010.04.10 19:34:48.
