data_PCOD8257815
_publ_section_title
;
Structure prediction by ZEFSAII (Michael W. Deem and Ramdas Pophale) SiO2 
 PCOD8257815
Probable space group: C M C M
;
_chemical_formula_sum "Si O2"
_cell_formula_units_Z 96
_cell_length_a 8.984808
_cell_length_b 29.141767
_cell_length_c 20.275421
_cell_angle_alpha 90.000000
_cell_angle_beta 90.000000
_cell_angle_gamma 90.000000
_cell_volume 5308.777982
_symmetry_space_group_name_H-M "C M C M"
_symmetry_group_IT_number 63
_symmetry_cell_setting 'orthorhombic'
loop_
_space_group_symop_operation_xyz
x,y,z
-x,-y,1/2+z
x,-y,-z
-x,y,1/2-z
-x,-y,-z
x,y,1/2-z
-x,y,z
x,-y,1/2+z
1/2+x,1/2+y,z
1/2-x,1/2-y,1/2+z
1/2+x,1/2-y,-z
1/2-x,1/2+y,1/2-z
1/2-x,1/2-y,-z
1/2+x,1/2+y,1/2-z
1/2-x,1/2+y,z
1/2+x,1/2-y,1/2+z
loop_
_atom_site_type_symbol
_atom_site_label
_atom_site_fract_x
_atom_site_fract_y
_atom_site_fract_z
Si Si1 0.170591 0.213444 0.324405
Si Si2 0.676484 0.876349 0.871364
Si Si3 0.676184 0.876165 0.020505
Si Si4 0.674711 0.777521 0.441678
Si Si5 0.674964 0.973443 0.066895
Si Si6 0.828658 0.033259 0.325093
O O1 0.191805 0.231275 0.250000
O O2 0.275397 0.170165 0.335909
O O3 0.218341 0.255274 0.371829
O O4 0.000000 0.198822 0.337914
O O5 0.500000 0.880565 0.868972
O O6 0.738614 0.876326 0.946032
O O7 0.744376 0.918841 0.832560
O O8 0.500000 0.878111 0.016261
O O9 0.731452 0.830267 0.057851
O O10 0.731828 0.921021 0.059606
O O11 0.500000 0.776029 0.454954
O O12 0.750000 0.750000 0.500000
O O13 0.500000 0.976911 0.081255
O O14 0.760691 0.994441 0.128375
O O15 0.715438 0.000000 0.000000
O O16 0.810477 0.016307 0.250000
O O17 0.000000 0.040840 0.343802
#
# Coordination Sequence:
#
# PCOD8257815 Si02
#       6
#    16  16  16  16  16  16
#     4  10  21  35  51  77 113 147 179 221 274 328
#     4  11  20  34  57  83 111 142 179 226 275 325
#     4   9  18  33  54  82 111 135 174 231 276 315
#     4  10  19  34  55  78 108 144 181 221 266 317
#     4  10  19  36  59  82 109 142 182 229 274 321
#     4  11  24  39  54  79 116 150 181 222 273 330
#
# _framework density 18.083258000000001
#
# number of rings (size 3 to 8) (size 9 to 14) (size 15 to 20)
#    0.000    1.833    3.333    1.500    0.000    4.000 
#    0.000    1.667    0.000    3.000    0.000    0.000 
#    0.000    0.000    0.000    0.000    0.000    0.000 
#
# Total GULP energy -595267.320774 kJ/mol
# GULP energy per Si atom -12401.402516 kJ/mol
# Density = 1.804210 g / cm^3
# Si number density = 18.083258 Si / 1000 Ang^3
#
#
#
# Elastic Constant Matrix: (Units=GPa)
#
#
# Indices 1 2 3 4 5 6 
#
# 1 59.0925 42.7132 47.4622 0.0000 0.0000 0.0000
# 2 42.7132 159.6825 73.7690 0.0000 0.0000 0.0000
# 3 47.4622 73.7690 133.3588 0.0000 0.0000 0.0000
# 4 0.0000 0.0000 0.0000 29.8055 0.0000 0.0000
# 5 0.0000 0.0000 0.0000 0.0000 25.7469 0.0000
# 6 0.0000 0.0000 0.0000 0.0000 0.0000 23.3052
#
#
#
# Elastic Compliance Matrix: (Units=1/GPa)
#
#
# Indices 1 2 3 4 5 6 
#
# 1 0.025049 -0.003468 -0.006996 0.000000 0.000000 0.000000
# 2 -0.003468 0.008892 -0.003685 0.000000 0.000000 0.000000
# 3 -0.006996 -0.003685 0.012027 0.000000 0.000000 0.000000
# 4 0.000000 0.000000 0.000000 0.033551 0.000000 0.000000
# 5 0.000000 0.000000 0.000000 0.000000 0.038840 0.000000
# 6 0.000000 0.000000 0.000000 0.000000 0.000000 0.042909
#
#
# Mechanical properties :
#
#
# Convention : Reuss Voigt Hill
#
# Bulk Modulus (GPa) = 56.59416 75.55806 66.07611
# Shear Modulus (GPa) = 25.58129 28.31748 26.94938
#
# Velocity S-wave (km/s) = 3.76525 3.96150 3.86462
# Velocity P-wave (km/s) = 7.08994 7.92457 7.51884
#
# Compressibility (1/GPa) = 0.01766967
#
# Stress axis : x y z
#
# Youngs Moduli (GPa) = 39.92200 112.45700 83.14796
#
# Poissons Ratio (x) = 0.39001 0.58174
# Poissons Ratio (y) = 0.13845 0.30637
# Poissons Ratio (z) = 0.27931 0.41436
#
# Static dielectric constant tensor:
#      x y z
#    x 3.215870 0.000000 0.000000 
#    y 0.000000 3.797970 0.000000 
#    z 0.000000 0.000000 3.405040 
# 
# 
# High freq. dielectric constant tensor:
#      x y z
#    x 1.685870 0.000000 0.000000 
#    y 0.000000 1.704740 0.000000 
#    z 0.000000 0.000000 1.699850 
# 
# From -- ./inp_files/51380.got.cif
#   From: 2010.03.12/outbox.cif.g09.slc.cpg/sg63_26_cif.got.tgz:51380.got - 2010.04.10 19:34:48.
