data_PCOD8257274
_publ_section_title
;
Structure prediction by ZEFSAII (Michael W. Deem and Ramdas Pophale) SiO2 
 PCOD8257274
Probable space group: C M C M
;
_chemical_formula_sum "Si O2"
_cell_formula_units_Z 104
_cell_length_a 20.377078
_cell_length_b 32.177226
_cell_length_c 9.078655
_cell_angle_alpha 90.000000
_cell_angle_beta 90.000000
_cell_angle_gamma 90.000000
_cell_volume 5952.672937
_symmetry_space_group_name_H-M "C M C M"
_symmetry_group_IT_number 63
_symmetry_cell_setting 'orthorhombic'
loop_
_space_group_symop_operation_xyz
x,y,z
-x,-y,1/2+z
x,-y,-z
-x,y,1/2-z
-x,-y,-z
x,y,1/2-z
-x,y,z
x,-y,1/2+z
1/2+x,1/2+y,z
1/2-x,1/2-y,1/2+z
1/2+x,1/2-y,-z
1/2-x,1/2+y,1/2-z
1/2-x,1/2-y,-z
1/2+x,1/2+y,1/2-z
1/2-x,1/2+y,z
1/2+x,1/2-y,1/2+z
loop_
_atom_site_type_symbol
_atom_site_label
_atom_site_fract_x
_atom_site_fract_y
_atom_site_fract_z
Si Si1 0.427794 0.679252 0.075302
Si Si2 0.765310 0.957097 0.079912
Si Si3 0.693557 0.373530 0.576007
Si Si4 0.425727 0.226916 0.575829
Si Si5 0.132130 0.414971 0.082296
Si Si6 0.170717 0.335555 0.579148
Si Si7 0.000000 0.457930 0.081025
O O1 0.424618 0.680032 0.250000
O O2 0.500000 0.664040 0.022648
O O3 0.372816 0.647782 0.015234
O O4 0.415304 0.726062 0.018827
O O5 0.787126 0.960103 0.250000
O O6 0.687242 0.950451 0.065316
O O7 0.800696 0.917439 0.006755
O O8 0.785325 0.000000 0.000000
O O9 0.692177 0.382800 0.750000
O O10 0.751923 0.340562 0.539231
O O11 0.418351 0.223825 0.750000
O O12 0.500000 0.211952 0.531241
O O13 0.366662 0.200657 0.506775
O O14 0.132410 0.397438 0.250000
O O15 0.063233 0.432755 0.034527
O O16 0.139816 0.379127 0.964238
O O17 0.160290 0.326756 0.750000
O O18 0.000000 0.468924 0.250000
O O19 0.000000 0.500000 0.000000
#
# Coordination Sequence:
#
# PCOD8257274 Si02
#       7
#    16  16  16  16  16  16   8
#     4   8  15  31  55  78  97 125 165 201 240 294
#     4  10  19  32  51  73  98 128 162 199 242 292
#     4   9  18  33  52  75 102 128 159 202 247 292
#     4   9  18  32  50  70  95 131 172 209 242 285
#     4   9  19  33  47  65  91 126 165 203 242 287
#     4  10  20  31  45  70 101 130 162 202 249 291
#     4  10  20  32  46  64  86 116 158 204 248 288
#
# _framework density 17.471143999999999
#
# number of rings (size 3 to 8) (size 9 to 14) (size 15 to 20)
#    0.000    2.769    0.000    2.308    1.077    2.769 
#    0.000    0.769    0.000    1.846    0.000    0.000 
#    0.000    0.000    0.000    0.000    0.000    0.000 
#
# Total GULP energy -644463.759079 kJ/mol
# GULP energy per Si atom -12393.533828 kJ/mol
# Density = 1.743138 g / cm^3
# Si number density = 17.471144 Si / 1000 Ang^3
#
#
#
# Elastic Constant Matrix: (Units=GPa)
#
#
# Indices 1 2 3 4 5 6 
#
# 1 134.2014 75.4792 43.6786 0.0000 0.0000 0.0000
# 2 75.4792 100.2105 44.2600 0.0000 0.0000 0.0000
# 3 43.6786 44.2600 50.5515 0.0000 0.0000 0.0000
# 4 0.0000 0.0000 0.0000 25.6118 0.0000 0.0000
# 5 0.0000 0.0000 0.0000 0.0000 17.9221 0.0000
# 6 0.0000 0.0000 0.0000 0.0000 0.0000 25.3271
#
#
#
# Elastic Compliance Matrix: (Units=1/GPa)
#
#
# Indices 1 2 3 4 5 6 
#
# 1 0.013532 -0.008199 -0.004514 0.000000 0.000000 0.000000
# 2 -0.008199 0.021238 -0.011511 0.000000 0.000000 0.000000
# 3 -0.004514 -0.011511 0.033760 0.000000 0.000000 0.000000
# 4 0.000000 0.000000 0.000000 0.039044 0.000000 0.000000
# 5 0.000000 0.000000 0.000000 0.000000 0.055797 0.000000
# 6 0.000000 0.000000 0.000000 0.000000 0.000000 0.039483
#
#
# Mechanical properties :
#
#
# Convention : Reuss Voigt Hill
#
# Bulk Modulus (GPa) = 49.79220 67.97768 58.88494
# Shear Modulus (GPa) = 19.38007 21.87526 20.62766
#
# Velocity S-wave (km/s) = 3.33417 3.54231 3.43982
# Velocity P-wave (km/s) = 6.58664 7.46483 7.03944
#
# Compressibility (1/GPa) = 0.02008347
#
# Stress axis : x y z
#
# Youngs Moduli (GPa) = 73.90031 47.08459 29.62044
#
# Poissons Ratio (x) = 0.38603 0.13370
# Poissons Ratio (y) = 0.60588 0.34097
# Poissons Ratio (z) = 0.33357 0.54200
#
# Static dielectric constant tensor:
#      x y z
#    x 4.043190 0.000000 0.000000 
#    y 0.000000 3.148920 0.000000 
#    z 0.000000 0.000000 3.071860 
# 
# 
# High freq. dielectric constant tensor:
#      x y z
#    x 1.671790 0.000000 0.000000 
#    y 0.000000 1.668910 0.000000 
#    z 0.000000 0.000000 1.661410 
# 
# From -- ./inp_files/9162.got.cif
#   From: 2010.03.12/outbox.cif.g09.slc.cpg/sg63_5_cif.got.tgz:9162.got - 2010.04.10 19:34:48.
