data_PCOD8257906
_publ_section_title
;
Structure prediction by ZEFSAII (Michael W. Deem and Ramdas Pophale) SiO2 
 PCOD8257906
Probable space group: C M C M
;
_chemical_formula_sum "Si O2"
_cell_formula_units_Z 80
_cell_length_a 8.571373
_cell_length_b 18.207060
_cell_length_c 26.147390
_cell_angle_alpha 90.000000
_cell_angle_beta 90.000000
_cell_angle_gamma 90.000000
_cell_volume 4080.548675
_symmetry_space_group_name_H-M "C M C M"
_symmetry_group_IT_number 63
_symmetry_cell_setting 'orthorhombic'
loop_
_space_group_symop_operation_xyz
x,y,z
-x,-y,1/2+z
x,-y,-z
-x,y,1/2-z
-x,-y,-z
x,y,1/2-z
-x,y,z
x,-y,1/2+z
1/2+x,1/2+y,z
1/2-x,1/2-y,1/2+z
1/2+x,1/2-y,-z
1/2-x,1/2+y,1/2-z
1/2-x,1/2-y,-z
1/2+x,1/2+y,1/2-z
1/2-x,1/2+y,z
1/2+x,1/2-y,1/2+z
loop_
_atom_site_type_symbol
_atom_site_label
_atom_site_fract_x
_atom_site_fract_y
_atom_site_fract_z
Si Si1 0.685657 0.288414 0.750000
Si Si2 0.317693 0.547180 0.250000
Si Si3 0.184813 0.297607 0.645917
Si Si4 0.318299 0.952077 0.047938
Si Si5 0.183284 0.040375 0.360342
Si Si6 0.682029 0.707828 0.547794
O O1 0.500000 0.278513 0.750000
O O2 0.752734 0.371380 0.750000
O O3 0.758937 0.255550 0.802231
O O4 0.500000 0.560501 0.250000
O O5 0.271593 0.507663 0.196513
O O6 0.275435 0.373883 0.637620
O O7 0.239462 0.244782 0.600209
O O8 0.000000 0.311479 0.646429
O O9 0.500000 0.934628 0.043500
O O10 0.226401 0.876791 0.047323
O O11 0.285228 0.995915 0.099681
O O12 0.260294 0.000000 0.000000
O O13 0.000000 0.030179 0.371971
O O14 0.500000 0.715033 0.543396
O O15 0.750000 0.750000 0.500000
#
# Coordination Sequence:
#
# PCOD8257906 Si02
#       6
#     8   8  16  16  16  16
#     4   9  17  31  54  83 112 147 189 227 269 323
#     4   7  14  29  50  79 110 139 175 219 263 313
#     4  10  20  35  56  84 116 148 185 229 276 326
#     4  11  24  40  57  80 111 145 184 232 282 332
#     4  10  19  34  58  85 113 147 187 228 274 330
#     4  11  24  40  59  83 111 146 186 229 280 336
#
# _framework density 19.605207
#
# number of rings (size 3 to 8) (size 9 to 14) (size 15 to 20)
#    0.000    2.000    0.000    5.100    0.000    9.600 
#    0.000    2.500    0.000    2.400    0.000    0.000 
#    0.000    0.000    0.000    0.000    0.000    0.000 
#
# Total GULP energy -495831.828146 kJ/mol
# GULP energy per Si atom -12395.795704 kJ/mol
# Density = 1.956059 g / cm^3
# Si number density = 19.605207 Si / 1000 Ang^3
#
#
#
# Elastic Constant Matrix: (Units=GPa)
#
#
# Indices 1 2 3 4 5 6 
#
# 1 39.4046 2.8326 31.7345 0.0000 0.0000 0.0000
# 2 2.8326 71.1692 57.1205 0.0000 0.0000 0.0000
# 3 31.7345 57.1205 192.6775 0.0000 0.0000 0.0000
# 4 0.0000 0.0000 0.0000 30.3692 0.0000 0.0000
# 5 0.0000 0.0000 0.0000 0.0000 32.9661 0.0000
# 6 0.0000 0.0000 0.0000 0.0000 0.0000 29.0299
#
#
#
# Elastic Compliance Matrix: (Units=1/GPa)
#
#
# Indices 1 2 3 4 5 6 
#
# 1 0.029957 0.003632 -0.006011 0.000000 0.000000 0.000000
# 2 0.003632 0.018878 -0.006195 0.000000 0.000000 0.000000
# 3 -0.006011 -0.006195 0.008017 0.000000 0.000000 0.000000
# 4 0.000000 0.000000 0.000000 0.032928 0.000000 0.000000
# 5 0.000000 0.000000 0.000000 0.000000 0.030334 0.000000
# 6 0.000000 0.000000 0.000000 0.000000 0.000000 0.034447
#
#
# Mechanical properties :
#
#
# Convention : Reuss Voigt Hill
#
# Bulk Modulus (GPa) = 25.18573 54.06962 39.62767
# Shear Modulus (GPa) = 27.03518 32.57729 29.80623
#
# Velocity S-wave (km/s) = 3.71749 4.08078 3.90336
# Velocity P-wave (km/s) = 5.59470 7.05994 6.36959
#
# Compressibility (1/GPa) = 0.03970502
#
# Stress axis : x y z
#
# Youngs Moduli (GPa) = 33.38072 52.97049 124.74259
#
# Poissons Ratio (x) = -0.19239 0.74980
# Poissons Ratio (y) = -0.12124 0.77276
# Poissons Ratio (z) = 0.20064 0.32814
#
# Static dielectric constant tensor:
#      x y z
#    x 3.521770 0.000000 0.000000 
#    y 0.000000 3.261970 0.000000 
#    z 0.000000 0.000000 4.418460 
# 
# 
# High freq. dielectric constant tensor:
#      x y z
#    x 1.767460 0.000000 0.000000 
#    y 0.000000 1.731120 0.000000 
#    z 0.000000 0.000000 1.794510 
# 
# From -- ./inp_files/66705.got.cif
#   From: 2010.03.12/outbox.cif.g09.slc.cpg/sg63_34_cif.got.tgz:66705.got - 2010.04.10 19:34:48.
