data_PCOD8257284
_publ_section_title
;
Structure prediction by ZEFSAII (Michael W. Deem and Ramdas Pophale) SiO2 
 PCOD8257284
Probable space group: C M C M
;
_chemical_formula_sum "Si O2"
_cell_formula_units_Z 112
_cell_length_a 14.987315
_cell_length_b 16.274041
_cell_length_c 23.742035
_cell_angle_alpha 90.000000
_cell_angle_beta 90.000000
_cell_angle_gamma 90.000000
_cell_volume 5790.781549
_symmetry_space_group_name_H-M "C M C M"
_symmetry_group_IT_number 63
_symmetry_cell_setting 'orthorhombic'
loop_
_space_group_symop_operation_xyz
x,y,z
-x,-y,1/2+z
x,-y,-z
-x,y,1/2-z
-x,-y,-z
x,y,1/2-z
-x,y,z
x,-y,1/2+z
1/2+x,1/2+y,z
1/2-x,1/2-y,1/2+z
1/2+x,1/2-y,-z
1/2-x,1/2+y,1/2-z
1/2-x,1/2-y,-z
1/2+x,1/2+y,1/2-z
1/2-x,1/2+y,z
1/2+x,1/2-y,1/2+z
loop_
_atom_site_type_symbol
_atom_site_label
_atom_site_fract_x
_atom_site_fract_y
_atom_site_fract_z
Si Si1 0.719660 0.453065 0.106909
Si Si2 0.600302 0.984594 0.565842
Si Si3 0.213726 0.191494 0.685220
Si Si4 0.403380 0.258289 0.687478
Si Si5 0.097749 0.852829 0.029451
Si Si6 0.149609 0.129762 0.408499
Si Si7 0.838674 0.303758 0.912473
O O1 0.826715 0.460842 0.098895
O O2 0.693400 0.399090 0.161343
O O3 0.676224 0.410260 0.052528
O O4 0.676652 0.541235 0.114623
O O5 0.500000 0.013955 0.581541
O O6 0.618425 0.000000 0.500000
O O7 0.607713 0.889074 0.584272
O O8 0.183200 0.198364 0.750000
O O9 0.320559 0.198074 0.677139
O O10 0.159830 0.261426 0.650077
O O11 0.393788 0.296791 0.750000
O O12 0.500000 0.212450 0.681983
O O13 0.403436 0.331459 0.642959
O O14 0.119461 0.757486 0.041709
O O15 0.000000 0.873337 0.055713
O O16 0.087871 0.870770 0.963223
O O17 0.236026 0.181260 0.427643
#
# Coordination Sequence:
#
# PCOD8257284 Si02
#       7
#    16  16  16  16  16  16  16
#     4  10  21  35  52  77 110 140 175 223 266 317
#     4  10  20  35  56  82 114 148 178 216 275 337
#     4   9  19  36  57  76  99 141 185 224 273 317
#     4   9  18  32  50  74 102 132 172 218 259 308
#     4  11  21  33  53  78 106 142 180 217 262 318
#     4  10  19  32  51  74 105 141 173 214 270 322
#     4   9  19  36  55  77 106 138 181 230 266 317
#
# _framework density 19.341085
#
# number of rings (size 3 to 8) (size 9 to 14) (size 15 to 20)
#    0.000    2.286    0.000    3.429    0.000    5.143 
#    0.000    3.571    0.000   11.571    0.000    0.000 
#    0.000    0.000    0.000    0.000    0.000    0.000 
#
# Total GULP energy -694043.310578 kJ/mol
# GULP energy per Si atom -12393.630546 kJ/mol
# Density = 1.929706 g / cm^3
# Si number density = 19.341085 Si / 1000 Ang^3
#
#
#
# Elastic Constant Matrix: (Units=GPa)
#
#
# Indices 1 2 3 4 5 6 
#
# 1 82.7558 35.0550 18.9705 0.0000 0.0000 0.0000
# 2 35.0550 80.9850 43.9063 0.0000 0.0000 0.0000
# 3 18.9705 43.9063 106.5516 0.0000 0.0000 0.0000
# 4 0.0000 0.0000 0.0000 20.2658 0.0000 0.0000
# 5 0.0000 0.0000 0.0000 0.0000 15.5519 0.0000
# 6 0.0000 0.0000 0.0000 0.0000 0.0000 17.3020
#
#
#
# Elastic Compliance Matrix: (Units=1/GPa)
#
#
# Indices 1 2 3 4 5 6 
#
# 1 0.014797 -0.006408 0.000006 0.000000 0.000000 0.000000
# 2 -0.006408 0.018675 -0.006555 0.000000 0.000000 0.000000
# 3 0.000006 -0.006555 0.012085 0.000000 0.000000 0.000000
# 4 0.000000 0.000000 0.000000 0.049344 0.000000 0.000000
# 5 0.000000 0.000000 0.000000 0.000000 0.064301 0.000000
# 6 0.000000 0.000000 0.000000 0.000000 0.000000 0.057797
#
#
# Mechanical properties :
#
#
# Convention : Reuss Voigt Hill
#
# Bulk Modulus (GPa) = 50.90644 51.79511 51.35078
# Shear Modulus (GPa) = 20.04323 22.11462 21.07893
#
# Velocity S-wave (km/s) = 3.22266 3.38509 3.30487
# Velocity P-wave (km/s) = 6.34231 6.48972 6.41644
#
# Compressibility (1/GPa) = 0.01964388
#
# Stress axis : x y z
#
# Youngs Moduli (GPa) = 67.58195 53.54625 82.74762
#
# Poissons Ratio (x) = 0.34314 -0.00051
# Poissons Ratio (y) = 0.43309 0.54238
# Poissons Ratio (z) = -0.00042 0.35097
#
# Static dielectric constant tensor:
#      x y z
#    x 3.644070 0.000000 0.000000 
#    y 0.000000 3.476840 0.000000 
#    z 0.000000 0.000000 3.431010 
# 
# 
# High freq. dielectric constant tensor:
#      x y z
#    x 1.759410 0.000000 0.000000 
#    y 0.000000 1.741780 0.000000 
#    z 0.000000 0.000000 1.739620 
# 
# From -- ./inp_files/62978.got.cif
#   From: 2010.03.12/outbox.cif.g09.slc.cpg/sg63_32_cif.got.tgz:62978.got - 2010.04.10 19:34:48.
