data_PCOD8257418
_publ_section_title
;
Structure prediction by ZEFSAII (Michael W. Deem and Ramdas Pophale) SiO2 
 PCOD8257418
Probable space group: C M C M
;
_chemical_formula_sum "Si O2"
_cell_formula_units_Z 104
_cell_length_a 25.536658
_cell_length_b 9.375220
_cell_length_c 22.936541
_cell_angle_alpha 90.000000
_cell_angle_beta 90.000000
_cell_angle_gamma 90.000000
_cell_volume 5491.278264
_symmetry_space_group_name_H-M "C M C M"
_symmetry_group_IT_number 63
_symmetry_cell_setting 'orthorhombic'
loop_
_space_group_symop_operation_xyz
x,y,z
-x,-y,1/2+z
x,-y,-z
-x,y,1/2-z
-x,-y,-z
x,y,1/2-z
-x,y,z
x,-y,1/2+z
1/2+x,1/2+y,z
1/2-x,1/2-y,1/2+z
1/2+x,1/2-y,-z
1/2-x,1/2+y,1/2-z
1/2-x,1/2-y,-z
1/2+x,1/2+y,1/2-z
1/2-x,1/2+y,z
1/2+x,1/2-y,1/2+z
loop_
_atom_site_type_symbol
_atom_site_label
_atom_site_fract_x
_atom_site_fract_y
_atom_site_fract_z
Si Si1 0.862849 0.337389 0.250000
Si Si2 0.061579 0.008371 0.567174
Si Si3 0.856311 0.323411 0.750000
Si Si4 0.629197 0.735484 0.876757
Si Si5 0.281775 0.481748 0.367872
Si Si6 0.754072 0.842165 0.250000
Si Si7 0.173661 0.489245 0.431521
Si Si8 0.133008 0.215338 0.129406
O O1 0.865934 0.508388 0.250000
O O2 0.803741 0.279407 0.250000
O O3 0.888924 0.274198 0.308575
O O4 0.087221 0.878578 0.602139
O O5 0.000000 0.994038 0.573985
O O6 0.079255 0.000000 0.500000
O O7 0.079168 0.159603 0.594341
O O8 0.881197 0.249422 0.692798
O O9 0.794136 0.290696 0.750000
O O10 0.680573 0.642522 0.891706
O O11 0.637202 0.889973 0.903742
O O12 0.259672 0.443880 0.305187
O O13 0.233472 0.503523 0.411197
O O14 0.313449 0.628152 0.362347
O O15 0.172817 0.500000 0.500000
O O16 0.146972 0.342085 0.413924
#
# Coordination Sequence:
#
# PCOD8257418 Si02
#       8
#     8  16   8  16  16   8  16  16
#     4  12  21  32  59  87 125 157 193 246 298 338
#     4  10  23  46  70  87 111 152 202 253 303 360
#     4  10  20  36  58  85 124 161 199 240 291 349
#     4  10  21  39  60  86 118 157 202 245 292 354
#     4  10  21  34  53  82 121 164 200 237 282 349
#     4  10  19  32  53  80 117 168 210 232 267 351
#     4  12  23  34  52  83 124 164 198 239 294 354
#     4  11  23  37  60  90 120 154 200 253 299 343
#
# _framework density 18.939125000000001
#
# number of rings (size 3 to 8) (size 9 to 14) (size 15 to 20)
#    0.000    1.385    3.077    2.308    4.308    6.769 
#    0.000    2.308    0.000    3.692    0.000    0.000 
#    0.000    0.000    0.000    0.000    0.000    0.000 
#
# Total GULP energy -644942.341838 kJ/mol
# GULP energy per Si atom -12402.737343 kJ/mol
# Density = 1.889602 g / cm^3
# Si number density = 18.939125 Si / 1000 Ang^3
#
#
#
# Elastic Constant Matrix: (Units=GPa)
#
#
# Indices 1 2 3 4 5 6 
#
# 1 66.1592 31.8348 41.9624 0.0000 0.0000 0.0000
# 2 31.8348 116.4547 44.3505 0.0000 0.0000 0.0000
# 3 41.9624 44.3505 152.2395 0.0000 0.0000 0.0000
# 4 0.0000 0.0000 0.0000 32.1975 0.0000 0.0000
# 5 0.0000 0.0000 0.0000 0.0000 30.9771 0.0000
# 6 0.0000 0.0000 0.0000 0.0000 0.0000 15.3268
#
#
#
# Elastic Compliance Matrix: (Units=1/GPa)
#
#
# Indices 1 2 3 4 5 6 
#
# 1 0.019655 -0.003723 -0.004333 0.000000 0.000000 0.000000
# 2 -0.003723 0.010364 -0.001993 0.000000 0.000000 0.000000
# 3 -0.004333 -0.001993 0.008344 0.000000 0.000000 0.000000
# 4 0.000000 0.000000 0.000000 0.031058 0.000000 0.000000
# 5 0.000000 0.000000 0.000000 0.000000 0.032282 0.000000
# 6 0.000000 0.000000 0.000000 0.000000 0.000000 0.065245
#
#
# Mechanical properties :
#
#
# Convention : Reuss Voigt Hill
#
# Bulk Modulus (GPa) = 54.75148 63.46099 59.10623
# Shear Modulus (GPa) = 25.88889 30.14732 28.01811
#
# Velocity S-wave (km/s) = 3.70124 3.99407 3.85044
# Velocity P-wave (km/s) = 6.87296 7.40613 7.14452
#
# Compressibility (1/GPa) = 0.01826435
#
# Stress axis : x y z
#
# Youngs Moduli (GPa) = 50.87856 96.49026 119.85339
#
# Poissons Ratio (x) = 0.35921 0.51932
# Poissons Ratio (y) = 0.18941 0.23887
# Poissons Ratio (z) = 0.22046 0.19231
#
# Static dielectric constant tensor:
#      x y z
#    x 3.133550 0.000000 0.000000 
#    y 0.000000 3.610900 0.000000 
#    z 0.000000 0.000000 3.757030 
# 
# 
# High freq. dielectric constant tensor:
#      x y z
#    x 1.695090 0.000000 0.000000 
#    y 0.000000 1.754100 0.000000 
#    z 0.000000 0.000000 1.753460 
# 
# From -- ./inp_files/58577.got.cif
#   From: 2010.03.12/outbox.cif.g09.slc.cpg/sg63_30_cif.got.tgz:58577.got - 2010.04.10 19:34:48.
