data_PCOD8257791
_publ_section_title
;
Structure prediction by ZEFSAII (Michael W. Deem and Ramdas Pophale) SiO2 
 PCOD8257791
Probable space group: C M C M
;
_chemical_formula_sum "Si O2"
_cell_formula_units_Z 104
_cell_length_a 17.644987
_cell_length_b 14.121322
_cell_length_c 21.371389
_cell_angle_alpha 90.000000
_cell_angle_beta 90.000000
_cell_angle_gamma 90.000000
_cell_volume 5325.120604
_symmetry_space_group_name_H-M "C M C M"
_symmetry_group_IT_number 63
_symmetry_cell_setting 'orthorhombic'
loop_
_space_group_symop_operation_xyz
x,y,z
-x,-y,1/2+z
x,-y,-z
-x,y,1/2-z
-x,-y,-z
x,y,1/2-z
-x,y,z
x,-y,1/2+z
1/2+x,1/2+y,z
1/2-x,1/2-y,1/2+z
1/2+x,1/2-y,-z
1/2-x,1/2+y,1/2-z
1/2-x,1/2-y,-z
1/2+x,1/2+y,1/2-z
1/2-x,1/2+y,z
1/2+x,1/2-y,1/2+z
loop_
_atom_site_type_symbol
_atom_site_label
_atom_site_fract_x
_atom_site_fract_y
_atom_site_fract_z
Si Si1 0.416227 0.020291 0.867736
Si Si2 0.085568 0.977983 0.180350
Si Si3 0.584347 0.798799 0.452876
Si Si4 0.328071 0.357929 0.879358
Si Si5 0.171162 0.835537 0.250000
Si Si6 0.817630 0.548243 0.750000
Si Si7 0.752346 0.842834 0.750000
Si Si8 0.682500 0.091578 0.456427
O O1 0.500000 0.985567 0.847524
O O2 0.423597 0.104015 0.916418
O O3 0.370378 0.058504 0.809354
O O4 0.372318 0.932886 0.898729
O O5 0.086605 0.026756 0.250000
O O6 0.128508 0.876188 0.187767
O O7 0.000000 0.960382 0.157227
O O8 0.128597 0.042619 0.130473
O O9 0.500000 0.771167 0.477974
O O10 0.613140 0.716371 0.407586
O O11 0.643889 0.819221 0.508479
O O12 0.298983 0.318896 0.812783
O O13 0.261979 0.373738 0.929266
O O14 0.258826 0.866329 0.250000
O O15 0.175300 0.721435 0.250000
O O16 0.769615 0.452173 0.750000
O O17 0.696313 0.000000 0.500000
#
# Coordination Sequence:
#
# PCOD8257791 Si02
#       8
#    16  16  16  16   8   8   8  16
#     4  10  20  36  57  81 117 156 187 233 300 358
#     4   9  18  36  58  79 114 154 185 228 287 347
#     4  10  22  37  57  86 115 153 200 246 293 350
#     4  12  20  37  60  90 115 148 198 251 297 345
#     4  10  19  34  53  78 120 152 186 220 279 359
#     4  12  19  37  53  91 123 146 189 243 298 351
#     4  12  22  33  60  91 117 152 189 239 301 360
#     4  10  21  38  60  80 112 158 199 239 294 348
#
# _framework density 19.530075
#
# number of rings (size 3 to 8) (size 9 to 14) (size 15 to 20)
#    0.462    1.077    3.846    2.538    0.000    3.077 
#    0.000    2.308    0.000    3.692    0.000    0.000 
#    0.000    0.000    0.000    0.000    0.000    0.000 
#
# Total GULP energy -644629.258137 kJ/mol
# GULP energy per Si atom -12396.716503 kJ/mol
# Density = 1.948562 g / cm^3
# Si number density = 19.530075 Si / 1000 Ang^3
#
#
#
# Elastic Constant Matrix: (Units=GPa)
#
#
# Indices 1 2 3 4 5 6 
#
# 1 122.0763 8.1353 35.0077 0.0000 0.0000 0.0000
# 2 8.1353 36.7963 -2.9099 0.0000 0.0000 0.0000
# 3 35.0077 -2.9099 66.8652 0.0000 0.0000 0.0000
# 4 0.0000 0.0000 0.0000 16.5533 0.0000 0.0000
# 5 0.0000 0.0000 0.0000 0.0000 99.5178 0.0000
# 6 0.0000 0.0000 0.0000 0.0000 0.0000 25.2699
#
#
#
# Elastic Compliance Matrix: (Units=1/GPa)
#
#
# Indices 1 2 3 4 5 6 
#
# 1 0.009881 -0.002603 -0.005287 0.000000 0.000000 0.000000
# 2 -0.002603 0.027956 0.002579 0.000000 0.000000 0.000000
# 3 -0.005287 0.002579 0.017836 0.000000 0.000000 0.000000
# 4 0.000000 0.000000 0.000000 0.060411 0.000000 0.000000
# 5 0.000000 0.000000 0.000000 0.000000 0.010048 0.000000
# 6 0.000000 0.000000 0.000000 0.000000 0.000000 0.039573
#
#
# Mechanical properties :
#
#
# Convention : Reuss Voigt Hill
#
# Bulk Modulus (GPa) = 22.19625 34.02266 28.10945
# Shear Modulus (GPa) = 26.13115 40.63515 33.38315
#
# Velocity S-wave (km/s) = 3.66183 4.56636 4.13888
# Velocity P-wave (km/s) = 5.41004 6.72760 6.10447
#
# Compressibility (1/GPa) = 0.04505266
#
# Stress axis : x y z
#
# Youngs Moduli (GPa) = 101.20364 35.77046 56.06787
#
# Poissons Ratio (x) = 0.09310 0.29641
# Poissons Ratio (y) = 0.26340 -0.14461
# Poissons Ratio (z) = 0.53502 -0.09226
#
# Static dielectric constant tensor:
#      x y z
#    x 3.797870 0.000000 0.000000 
#    y 0.000000 3.323290 0.000000 
#    z 0.000000 0.000000 3.697300 
# 
# 
# High freq. dielectric constant tensor:
#      x y z
#    x 1.776070 0.000000 0.000000 
#    y 0.000000 1.741340 0.000000 
#    z 0.000000 0.000000 1.745670 
# 
# From -- ./inp_files/55673.got.cif
#   From: 2010.03.12/outbox.cif.g09.slc.cpg/sg63_28_cif.got.tgz:55673.got - 2010.04.10 19:34:48.
