data_PCOD8257161
_publ_section_title
;
Structure prediction by ZEFSAII (Michael W. Deem and Ramdas Pophale) SiO2 
 PCOD8257161
Probable space group: C M C M
;
_chemical_formula_sum "Si O2"
_cell_formula_units_Z 88
_cell_length_a 20.330493
_cell_length_b 32.017055
_cell_length_c 9.040471
_cell_angle_alpha 90.000000
_cell_angle_beta 90.000000
_cell_angle_gamma 90.000000
_cell_volume 5884.646098
_symmetry_space_group_name_H-M "C M C M"
_symmetry_group_IT_number 63
_symmetry_cell_setting 'orthorhombic'
loop_
_space_group_symop_operation_xyz
x,y,z
-x,-y,1/2+z
x,-y,-z
-x,y,1/2-z
-x,-y,-z
x,y,1/2-z
-x,y,z
x,-y,1/2+z
1/2+x,1/2+y,z
1/2-x,1/2-y,1/2+z
1/2+x,1/2-y,-z
1/2-x,1/2+y,1/2-z
1/2-x,1/2-y,-z
1/2+x,1/2+y,1/2-z
1/2-x,1/2+y,z
1/2+x,1/2-y,1/2+z
loop_
_atom_site_type_symbol
_atom_site_label
_atom_site_fract_x
_atom_site_fract_y
_atom_site_fract_z
Si Si1 0.000000 0.957681 0.083112
Si Si2 0.856874 0.954931 0.423874
Si Si3 0.575419 0.327207 0.077228
Si Si4 0.272394 0.187360 0.585055
Si Si5 0.811066 0.123035 0.425469
Si Si6 0.348723 0.249486 0.413160
O O1 0.069335 0.934518 0.050402
O O2 0.000000 0.972301 0.250000
O O3 0.000000 0.000000 0.000000
O O4 0.840516 0.958812 0.250000
O O5 0.807088 0.923163 0.503216
O O6 0.850453 0.000000 0.500000
O O7 0.592128 0.336268 0.250000
O O8 0.500000 0.337922 0.041454
O O9 0.588580 0.278003 0.042013
O O10 0.621331 0.355168 0.974665
O O11 0.287783 0.171204 0.750000
O O12 0.252605 0.148309 0.482476
O O13 0.337613 0.210565 0.523076
O O14 0.213448 0.219979 0.585785
O O15 0.808639 0.119900 0.250000
O O16 0.358493 0.230423 0.250000
#
# Coordination Sequence:
#
# PCOD8257161 Si02
#       6
#     8  16  16  16  16  16
#     4   8  16  28  42  54  66  88 118 152 188 230
#     4  10  19  32  45  58  74  98 128 161 201 243
#     4   9  18  31  44  58  79 106 133 161 197 238
#     4   9  16  27  42  58  75  98 126 158 195 234
#     4  11  21  30  41  59  79 101 130 167 203 237
#     4   8  14  25  41  59  77  98 124 157 193 231
#
# _framework density 14.954171000000001
#
# number of rings (size 3 to 8) (size 9 to 14) (size 15 to 20)
#    0.000    2.727    0.000    3.818    1.273    5.455 
#    0.000    0.000    0.000    0.000    0.000    0.000 
#    0.000    0.000    0.000    0.000    0.000    0.909 
#
# Total GULP energy -545170.677513 kJ/mol
# GULP energy per Si atom -12390.242671 kJ/mol
# Density = 1.492013 g / cm^3
# Si number density = 14.954171 Si / 1000 Ang^3
#
#
#
# Elastic Constant Matrix: (Units=GPa)
#
#
# Indices 1 2 3 4 5 6 
#
# 1 7.9343 14.0125 13.8601 0.0000 0.0000 0.0000
# 2 14.0125 72.3624 48.7293 0.0000 0.0000 0.0000
# 3 13.8601 48.7293 109.1649 0.0000 0.0000 0.0000
# 4 0.0000 0.0000 0.0000 27.0890 0.0000 0.0000
# 5 0.0000 0.0000 0.0000 0.0000 14.9656 0.0000
# 6 0.0000 0.0000 0.0000 0.0000 0.0000 20.2284
#
#
#
# Elastic Compliance Matrix: (Units=1/GPa)
#
#
# Indices 1 2 3 4 5 6 
#
# 1 0.201430 -0.031146 -0.011672 0.000000 0.000000 0.000000
# 2 -0.031146 0.024575 -0.007015 0.000000 0.000000 0.000000
# 3 -0.011672 -0.007015 0.013774 0.000000 0.000000 0.000000
# 4 0.000000 0.000000 0.000000 0.036915 0.000000 0.000000
# 5 0.000000 0.000000 0.000000 0.000000 0.066820 0.000000
# 6 0.000000 0.000000 0.000000 0.000000 0.000000 0.049435
#
#
# Mechanical properties :
#
#
# Convention : Reuss Voigt Hill
#
# Bulk Modulus (GPa) = 7.13708 38.07392 22.60550
# Shear Modulus (GPa) = 9.27095 19.98059 14.62577
#
# Velocity S-wave (km/s) = 2.49260 3.65926 3.13076
# Velocity P-wave (km/s) = 3.61484 6.58554 5.31208
#
# Compressibility (1/GPa) = 0.14011327
#
# Stress axis : x y z
#
# Youngs Moduli (GPa) = 4.96450 40.69245 72.60141
#
# Poissons Ratio (x) = 1.26739 0.84738
# Poissons Ratio (y) = 0.15462 0.50932
# Poissons Ratio (z) = 0.05794 0.28547
#
# Static dielectric constant tensor:
#      x y z
#    x 2.659860 0.000000 0.000000 
#    y 0.000000 2.821210 0.000000 
#    z 0.000000 0.000000 3.007590 
# 
# 
# High freq. dielectric constant tensor:
#      x y z
#    x 1.515370 0.000000 0.000000 
#    y 0.000000 1.557430 0.000000 
#    z 0.000000 0.000000 1.584070 
# 
# From -- ./inp_files/11024.got.cif
#   From: 2010.03.12/outbox.cif.g09.slc.cpg/sg63_6_cif.got.tgz:11024.got - 2010.04.10 19:34:48.
