data_PCOD8257228
_publ_section_title
;
Structure prediction by ZEFSAII (Michael W. Deem and Ramdas Pophale) SiO2 
 PCOD8257228
Probable space group: C M C M
;
_chemical_formula_sum "Si O2"
_cell_formula_units_Z 120
_cell_length_a 27.809476
_cell_length_b 28.339987
_cell_length_c 8.736946
_cell_angle_alpha 90.000000
_cell_angle_beta 90.000000
_cell_angle_gamma 90.000000
_cell_volume 6885.763527
_symmetry_space_group_name_H-M "C M C M"
_symmetry_group_IT_number 63
_symmetry_cell_setting 'orthorhombic'
loop_
_space_group_symop_operation_xyz
x,y,z
-x,-y,1/2+z
x,-y,-z
-x,y,1/2-z
-x,-y,-z
x,y,1/2-z
-x,y,z
x,-y,1/2+z
1/2+x,1/2+y,z
1/2-x,1/2-y,1/2+z
1/2+x,1/2-y,-z
1/2-x,1/2+y,1/2-z
1/2-x,1/2-y,-z
1/2+x,1/2+y,1/2-z
1/2-x,1/2+y,z
1/2+x,1/2-y,1/2+z
loop_
_atom_site_type_symbol
_atom_site_label
_atom_site_fract_x
_atom_site_fract_y
_atom_site_fract_z
Si Si1 0.500000 0.049703 0.423839
Si Si2 0.273238 0.549773 0.569021
Si Si3 0.859240 0.104314 0.432144
Si Si4 0.699490 0.794289 0.928785
Si Si5 0.944519 0.949436 0.069980
Si Si6 0.316851 0.887897 0.427651
Si Si7 0.191127 0.199658 0.069168
Si Si8 0.897373 0.448490 0.569973
O O1 0.500000 0.034908 0.250000
O O2 0.449729 0.076984 0.458185
O O3 0.500000 0.000000 0.500000
O O4 0.256540 0.500000 0.500000
O O5 0.279300 0.545010 0.750000
O O6 0.323396 0.564406 0.493404
O O7 0.233547 0.588495 0.523642
O O8 0.860648 0.102867 0.250000
O O9 0.912043 0.092236 0.497584
O O10 0.841058 0.155835 0.491996
O O11 0.698628 0.785681 0.750000
O O12 0.753859 0.802990 0.990698
O O13 0.671510 0.841341 0.974551
O O14 0.672206 0.749761 0.005763
O O15 0.935354 0.951748 0.250000
O O16 0.000000 0.937452 0.031497
O O17 0.930040 0.000000 0.000000
O O18 0.316659 0.874978 0.250000
O O19 0.359127 0.922959 0.465895
O O20 0.189254 0.199702 0.250000
O O21 0.900159 0.500000 0.500000
O O22 0.883034 0.448833 0.750000
#
# Coordination Sequence:
#
# PCOD8257228 Si02
#       8
#     8  16  16  16  16  16  16  16
#     4   8  16  30  48  70  94 124 162 206 248 290
#     4  11  23  35  48  68 101 141 176 209 247 296
#     4  11  21  35  55  78 105 136 173 214 258 309
#     4  10  19  33  53  75 102 135 170 211 253 299
#     4  10  21  37  56  79 108 141 178 219 263 314
#     4  11  22  34  49  72 102 137 173 209 252 303
#     4   9  19  34  52  76 103 132 167 209 254 300
#     4  10  19  32  50  72 100 132 169 209 252 300
#
# _framework density 17.427261000000001
#
# number of rings (size 3 to 8) (size 9 to 14) (size 15 to 20)
#    0.000    1.867    1.333    3.200    0.000    5.600 
#    0.000    0.000    0.000    0.000    1.733    0.000 
#    0.000    0.000    0.000    0.000    0.000    0.000 
#
# Total GULP energy -743767.673812 kJ/mol
# GULP energy per Si atom -12396.127897 kJ/mol
# Density = 1.738760 g / cm^3
# Si number density = 17.427261 Si / 1000 Ang^3
#
#
#
# Elastic Constant Matrix: (Units=GPa)
#
#
# Indices 1 2 3 4 5 6 
#
# 1 86.1432 35.7979 26.9491 0.0000 0.0000 0.0000
# 2 35.7979 103.8904 30.0811 0.0000 0.0000 0.0000
# 3 26.9491 30.0811 50.5276 0.0000 0.0000 0.0000
# 4 0.0000 0.0000 0.0000 29.3835 0.0000 0.0000
# 5 0.0000 0.0000 0.0000 0.0000 23.3779 0.0000
# 6 0.0000 0.0000 0.0000 0.0000 0.0000 15.4166
#
#
#
# Elastic Compliance Matrix: (Units=1/GPa)
#
#
# Indices 1 2 3 4 5 6 
#
# 1 0.014874 -0.003417 -0.005899 0.000000 0.000000 0.000000
# 2 -0.003417 0.012415 -0.005569 0.000000 0.000000 0.000000
# 3 -0.005899 -0.005569 0.026253 0.000000 0.000000 0.000000
# 4 0.000000 0.000000 0.000000 0.034033 0.000000 0.000000
# 5 0.000000 0.000000 0.000000 0.000000 0.042776 0.000000
# 6 0.000000 0.000000 0.000000 0.000000 0.000000 0.064865
#
#
# Mechanical properties :
#
#
# Convention : Reuss Voigt Hill
#
# Bulk Modulus (GPa) = 42.06529 47.35747 44.71138
# Shear Modulus (GPa) = 21.46761 23.48447 22.47604
#
# Velocity S-wave (km/s) = 3.51357 3.67491 3.59514
# Velocity P-wave (km/s) = 6.37575 6.72607 6.55325
#
# Compressibility (1/GPa) = 0.02377257
#
# Stress axis : x y z
#
# Youngs Moduli (GPa) = 67.23137 80.54479 38.09148
#
# Poissons Ratio (x) = 0.27524 0.22469
# Poissons Ratio (y) = 0.22975 0.21212
# Poissons Ratio (z) = 0.39658 0.44854
#
# Static dielectric constant tensor:
#      x y z
#    x 3.442730 0.000000 0.000000 
#    y 0.000000 3.254770 0.000000 
#    z 0.000000 0.000000 3.238980 
# 
# 
# High freq. dielectric constant tensor:
#      x y z
#    x 1.658490 0.000000 0.000000 
#    y 0.000000 1.660460 0.000000 
#    z 0.000000 0.000000 1.685960 
# 
# From -- ./inp_files/13150.got.cif
#   From: 2010.03.12/outbox.cif.g09.slc.cpg/sg63_7_cif.got.tgz:13150.got - 2010.04.10 19:34:48.
