data_PCOD8257053
_publ_section_title
;
Structure prediction by ZEFSAII (Michael W. Deem and Ramdas Pophale) SiO2 
 PCOD8257053
Probable space group: C M C M
;
_chemical_formula_sum "Si O2"
_cell_formula_units_Z 96
_cell_length_a 13.144711
_cell_length_b 26.247327
_cell_length_c 16.087720
_cell_angle_alpha 90.000000
_cell_angle_beta 90.000000
_cell_angle_gamma 90.000000
_cell_volume 5550.481034
_symmetry_space_group_name_H-M "C M C M"
_symmetry_group_IT_number 63
_symmetry_cell_setting 'orthorhombic'
loop_
_space_group_symop_operation_xyz
x,y,z
-x,-y,1/2+z
x,-y,-z
-x,y,1/2-z
-x,-y,-z
x,y,1/2-z
-x,y,z
x,-y,1/2+z
1/2+x,1/2+y,z
1/2-x,1/2-y,1/2+z
1/2+x,1/2-y,-z
1/2-x,1/2+y,1/2-z
1/2-x,1/2-y,-z
1/2+x,1/2+y,1/2-z
1/2-x,1/2+y,z
1/2+x,1/2-y,1/2+z
loop_
_atom_site_type_symbol
_atom_site_label
_atom_site_fract_x
_atom_site_fract_y
_atom_site_fract_z
Si Si1 0.755873 0.944045 0.475071
Si Si2 0.115985 0.415336 0.619215
Si Si3 0.619305 0.652807 0.997822
Si Si4 0.610760 0.028392 0.659347
Si Si5 0.750902 0.822444 0.657844
Si Si6 0.381650 0.276449 0.344412
O O1 0.660483 0.925128 0.528271
O O2 0.849740 0.905634 0.481370
O O3 0.707043 0.945781 0.384061
O O4 0.796240 0.000000 0.500000
O O5 0.126050 0.467744 0.669368
O O6 0.180871 0.372164 0.664395
O O7 0.000000 0.396541 0.612351
O O8 0.500000 0.655318 0.011478
O O9 0.667979 0.674091 0.083106
O O10 0.653335 0.683530 0.915225
O O11 0.608929 0.053053 0.750000
O O12 0.500000 0.038309 0.615598
O O13 0.802850 0.816696 0.750000
O O14 0.680568 0.774437 0.638390
O O15 0.361178 0.297213 0.250000
O O16 0.500000 0.263516 0.355486
#
# Coordination Sequence:
#
# PCOD8257053 Si02
#       6
#    16  16  16  16  16  16
#     4   9  18  31  46  65  91 126 166 203 238 278
#     4   9  16  27  45  70  98 123 149 187 239 296
#     4  10  21  35  50  69  95 129 167 204 238 272
#     4   9  16  26  43  68  96 123 151 188 238 294
#     4  10  19  31  50  74  98 124 153 189 237 290
#     4   9  18  33  53  76  98 119 149 191 239 292
#
# _framework density 17.295798000000001
#
# number of rings (size 3 to 8) (size 9 to 14) (size 15 to 20)
#    0.000    2.667    0.000    2.000    0.000    5.000 
#    0.000    0.000    0.000    1.000    0.000    2.333 
#    0.000    0.000    0.000    0.000    0.000    0.000 
#
# Total GULP energy -594780.291551 kJ/mol
# GULP energy per Si atom -12391.256074 kJ/mol
# Density = 1.725643 g / cm^3
# Si number density = 17.295798 Si / 1000 Ang^3
#
#
#
# Elastic Constant Matrix: (Units=GPa)
#
#
# Indices 1 2 3 4 5 6 
#
# 1 65.8731 33.2325 47.6205 0.0000 0.0000 0.0000
# 2 33.2325 76.4635 52.2409 0.0000 0.0000 0.0000
# 3 47.6205 52.2409 119.7416 0.0000 0.0000 0.0000
# 4 0.0000 0.0000 0.0000 16.0396 0.0000 0.0000
# 5 0.0000 0.0000 0.0000 0.0000 12.5257 0.0000
# 6 0.0000 0.0000 0.0000 0.0000 0.0000 21.6794
#
#
#
# Elastic Compliance Matrix: (Units=1/GPa)
#
#
# Indices 1 2 3 4 5 6 
#
# 1 0.022705 -0.005270 -0.006731 0.000000 0.000000 0.000000
# 2 -0.005270 0.019855 -0.006567 0.000000 0.000000 0.000000
# 3 -0.006731 -0.006567 0.013893 0.000000 0.000000 0.000000
# 4 0.000000 0.000000 0.000000 0.062346 0.000000 0.000000
# 5 0.000000 0.000000 0.000000 0.000000 0.079836 0.000000
# 6 0.000000 0.000000 0.000000 0.000000 0.000000 0.046127
#
#
# Mechanical properties :
#
#
# Convention : Reuss Voigt Hill
#
# Bulk Modulus (GPa) = 51.76231 58.69623 55.22927
# Shear Modulus (GPa) = 17.34103 18.64789 17.99446
#
# Velocity S-wave (km/s) = 3.16984 3.28712 3.22901
# Velocity P-wave (km/s) = 6.58710 6.95825 6.77522
#
# Compressibility (1/GPa) = 0.01931908
#
# Stress axis : x y z
#
# Youngs Moduli (GPa) = 44.04367 50.36581 71.97932
#
# Poissons Ratio (x) = 0.26540 0.48446
# Poissons Ratio (y) = 0.23209 0.47266
# Poissons Ratio (z) = 0.29644 0.33073
#
# Static dielectric constant tensor:
#      x y z
#    x 3.005220 0.000000 0.000000 
#    y 0.000000 3.254950 0.000000 
#    z 0.000000 0.000000 3.465280 
# 
# 
# High freq. dielectric constant tensor:
#      x y z
#    x 1.648730 0.000000 0.000000 
#    y 0.000000 1.656980 0.000000 
#    z 0.000000 0.000000 1.680930 
# 
# From -- ./inp_files/42465.got.cif
#   From: 2010.03.12/outbox.cif.g09.slc.cpg/sg63_22_cif.got.tgz:42465.got - 2010.04.10 19:34:48.
