data_PCOD8257395
_publ_section_title
;
Structure prediction by ZEFSAII (Michael W. Deem and Ramdas Pophale) SiO2 
 PCOD8257395
Probable space group: C M C M
;
_chemical_formula_sum "Si O2"
_cell_formula_units_Z 128
_cell_length_a 20.184640
_cell_length_b 19.597762
_cell_length_c 18.063859
_cell_angle_alpha 90.000000
_cell_angle_beta 90.000000
_cell_angle_gamma 90.000000
_cell_volume 7145.588819
_symmetry_space_group_name_H-M "C M C M"
_symmetry_group_IT_number 63
_symmetry_cell_setting 'orthorhombic'
loop_
_space_group_symop_operation_xyz
x,y,z
-x,-y,1/2+z
x,-y,-z
-x,y,1/2-z
-x,-y,-z
x,y,1/2-z
-x,y,z
x,-y,1/2+z
1/2+x,1/2+y,z
1/2-x,1/2-y,1/2+z
1/2+x,1/2-y,-z
1/2-x,1/2+y,1/2-z
1/2-x,1/2-y,-z
1/2+x,1/2+y,1/2-z
1/2-x,1/2+y,z
1/2+x,1/2-y,1/2+z
loop_
_atom_site_type_symbol
_atom_site_label
_atom_site_fract_x
_atom_site_fract_y
_atom_site_fract_z
Si Si1 0.072955 0.728434 0.665379
Si Si2 0.821085 0.776083 0.334983
Si Si3 0.116924 0.006943 0.915571
Si Si4 0.258074 0.133474 0.163659
Si Si5 0.576195 0.351416 0.072347
Si Si6 0.227708 0.503176 0.914484
Si Si7 0.382714 0.640486 0.405961
Si Si8 0.693274 0.138139 0.837833
O O1 0.091032 0.743319 0.750000
O O2 0.070004 0.801487 0.625392
O O3 0.128601 0.678568 0.632282
O O4 0.000000 0.694974 0.656643
O O5 0.834715 0.793649 0.250000
O O6 0.808590 0.695880 0.345867
O O7 0.887014 0.794012 0.380188
O O8 0.758252 0.820198 0.362996
O O9 0.080976 0.075010 0.884845
O O10 0.194838 0.017084 0.905322
O O11 0.094989 0.935370 0.876952
O O12 0.095424 0.000000 0.000000
O O13 0.241861 0.120082 0.250000
O O14 0.291576 0.067024 0.126887
O O15 0.191870 0.154480 0.120232
O O16 0.500000 0.329769 0.062025
O O17 0.614748 0.357605 0.994805
O O18 0.189082 0.564718 0.875860
O O19 0.206419 0.500000 0.000000
O O20 0.690898 0.128513 0.750000
#
# Coordination Sequence:
#
# PCOD8257395 Si02
#       8
#    16  16  16  16  16  16  16  16
#     4  10  20  34  52  77 108 138 170 213 270 333
#     4  10  21  37  56  78 105 143 189 231 271 317
#     4   8  17  31  47  71 102 140 176 211 253 310
#     4  10  20  35  56  81 108 142 182 230 282 325
#     4  11  22  35  52  76 109 151 189 224 270 318
#     4  10  19  33  54  83 112 136 176 226 276 320
#     4  10  19  32  53  77 108 140 180 222 270 328
#     4  10  19  34  56  79 105 139 175 219 272 319
#
# _framework density 17.913150000000002
#
# number of rings (size 3 to 8) (size 9 to 14) (size 15 to 20)
#    0.000    2.125    2.500    1.875    0.000    4.500 
#    0.000    0.625    0.000    1.125    0.000    1.750 
#    0.000    0.000    0.000    0.000    0.000    0.000 
#
# Total GULP energy -793395.706961 kJ/mol
# GULP energy per Si atom -12396.807921 kJ/mol
# Density = 1.787238 g / cm^3
# Si number density = 17.913150 Si / 1000 Ang^3
#
#
#
# Elastic Constant Matrix: (Units=GPa)
#
#
# Indices 1 2 3 4 5 6 
#
# 1 76.5299 49.8799 39.9896 0.0000 0.0000 0.0000
# 2 49.8799 121.7077 49.9282 0.0000 0.0000 0.0000
# 3 39.9896 49.9282 69.1219 0.0000 0.0000 0.0000
# 4 0.0000 0.0000 0.0000 30.7489 0.0000 0.0000
# 5 0.0000 0.0000 0.0000 0.0000 16.8573 0.0000
# 6 0.0000 0.0000 0.0000 0.0000 0.0000 21.9223
#
#
#
# Elastic Compliance Matrix: (Units=1/GPa)
#
#
# Indices 1 2 3 4 5 6 
#
# 1 0.020726 -0.005081 -0.008321 0.000000 0.000000 0.000000
# 2 -0.005081 0.012922 -0.006394 0.000000 0.000000 0.000000
# 3 -0.008321 -0.006394 0.023900 0.000000 0.000000 0.000000
# 4 0.000000 0.000000 0.000000 0.032521 0.000000 0.000000
# 5 0.000000 0.000000 0.000000 0.000000 0.059321 0.000000
# 6 0.000000 0.000000 0.000000 0.000000 0.000000 0.045616
#
#
# Mechanical properties :
#
#
# Convention : Reuss Voigt Hill
#
# Bulk Modulus (GPa) = 55.69188 60.77277 58.23232
# Shear Modulus (GPa) = 20.78277 22.40983 21.59630
#
# Velocity S-wave (km/s) = 3.40986 3.54082 3.47596
# Velocity P-wave (km/s) = 6.83083 7.12156 6.97771
#
# Compressibility (1/GPa) = 0.01795594
#
# Stress axis : x y z
#
# Youngs Moduli (GPa) = 48.24781 77.38844 41.84124
#
# Poissons Ratio (x) = 0.39320 0.34816
# Poissons Ratio (y) = 0.24514 0.26754
# Poissons Ratio (z) = 0.40147 0.49484
#
# Static dielectric constant tensor:
#      x y z
#    x 3.050790 0.000000 0.000000 
#    y 0.000000 3.531100 0.000000 
#    z 0.000000 0.000000 3.211700 
# 
# 
# High freq. dielectric constant tensor:
#      x y z
#    x 1.664740 0.000000 0.000000 
#    y 0.000000 1.701840 0.000000 
#    z 0.000000 0.000000 1.679270 
# 
# From -- ./inp_files/47552.got.cif
#   From: 2010.03.12/outbox.cif.g09.slc.cpg/sg63_24_cif.got.tgz:47552.got - 2010.04.10 19:34:48.
