data_PCOD8257172
_publ_section_title
;
Structure prediction by ZEFSAII (Michael W. Deem and Ramdas Pophale) SiO2 
 PCOD8257172
Probable space group: C M C M
;
_chemical_formula_sum "Si O2"
_cell_formula_units_Z 96
_cell_length_a 12.077581
_cell_length_b 30.303925
_cell_length_c 14.853510
_cell_angle_alpha 90.000000
_cell_angle_beta 90.000000
_cell_angle_gamma 90.000000
_cell_volume 5436.356569
_symmetry_space_group_name_H-M "C M C M"
_symmetry_group_IT_number 63
_symmetry_cell_setting 'orthorhombic'
loop_
_space_group_symop_operation_xyz
x,y,z
-x,-y,1/2+z
x,-y,-z
-x,y,1/2-z
-x,-y,-z
x,y,1/2-z
-x,y,z
x,-y,1/2+z
1/2+x,1/2+y,z
1/2-x,1/2-y,1/2+z
1/2+x,1/2-y,-z
1/2-x,1/2+y,1/2-z
1/2-x,1/2-y,-z
1/2+x,1/2+y,1/2-z
1/2-x,1/2+y,z
1/2+x,1/2-y,1/2+z
loop_
_atom_site_type_symbol
_atom_site_label
_atom_site_fract_x
_atom_site_fract_y
_atom_site_fract_z
Si Si1 0.000000 0.069357 0.144563
Si Si2 0.377263 0.042102 0.847322
Si Si3 0.771384 0.029288 0.411087
Si Si4 0.307719 0.734949 0.358860
Si Si5 0.128696 0.600965 0.488616
Si Si6 0.000000 0.832034 0.644711
Si Si7 0.627792 0.201621 0.488251
O O1 0.895302 0.040637 0.115859
O O2 0.000000 0.075232 0.250000
O O3 0.000000 0.118752 0.100155
O O4 0.379974 0.064933 0.750000
O O5 0.500000 0.023948 0.874031
O O6 0.291711 0.001471 0.839951
O O7 0.341891 0.080475 0.914793
O O8 0.702560 0.074826 0.416429
O O9 0.770244 0.000000 0.500000
O O10 0.299652 0.743205 0.250000
O O11 0.390673 0.694964 0.383191
O O12 0.350345 0.778073 0.412391
O O13 0.189659 0.724254 0.403819
O O14 0.166822 0.651239 0.491988
O O15 0.000000 0.596267 0.463003
O O16 0.000000 0.838270 0.750000
O O17 0.500000 0.206146 0.463967
#
# Coordination Sequence:
#
# PCOD8257172 Si02
#       7
#     8  16  16  16  16   8  16
#     4  11  21  31  47  69  93 125 169 210 240 284
#     4   9  17  30  49  73 101 133 166 203 252 303
#     4  10  19  32  48  68  98 133 167 203 248 295
#     4  10  20  35  54  76 104 136 170 212 265 317
#     4   9  18  32  51  75 101 129 164 208 254 304
#     4   9  18  33  51  71  96 129 166 208 257 302
#     4  10  20  34  54  79 104 134 173 214 264 317
#
# _framework density 17.658885000000001
#
# number of rings (size 3 to 8) (size 9 to 14) (size 15 to 20)
#    0.000    2.333    0.833    2.250    0.000    3.000 
#    0.000    2.500    0.000    2.000    0.000    0.000 
#    0.000    0.000    0.000    0.000    0.000    0.000 
#
# Total GULP energy -594821.286634 kJ/mol
# GULP energy per Si atom -12392.110138 kJ/mol
# Density = 1.761869 g / cm^3
# Si number density = 17.658885 Si / 1000 Ang^3
#
#
#
# Elastic Constant Matrix: (Units=GPa)
#
#
# Indices 1 2 3 4 5 6 
#
# 1 80.9204 29.4054 15.1959 0.0000 0.0000 0.0000
# 2 29.4054 78.6176 6.3751 0.0000 0.0000 0.0000
# 3 15.1959 6.3751 60.8424 0.0000 0.0000 0.0000
# 4 0.0000 0.0000 0.0000 5.5176 0.0000 0.0000
# 5 0.0000 0.0000 0.0000 0.0000 19.8843 0.0000
# 6 0.0000 0.0000 0.0000 0.0000 0.0000 31.1039
#
#
#
# Elastic Compliance Matrix: (Units=1/GPa)
#
#
# Indices 1 2 3 4 5 6 
#
# 1 0.014881 -0.005310 -0.003160 0.000000 0.000000 0.000000
# 2 -0.005310 0.014723 -0.000217 0.000000 0.000000 0.000000
# 3 -0.003160 -0.000217 0.017248 0.000000 0.000000 0.000000
# 4 0.000000 0.000000 0.000000 0.181239 0.000000 0.000000
# 5 0.000000 0.000000 0.000000 0.000000 0.050291 0.000000
# 6 0.000000 0.000000 0.000000 0.000000 0.000000 0.032150
#
#
# Mechanical properties :
#
#
# Convention : Reuss Voigt Hill
#
# Bulk Modulus (GPa) = 33.92238 35.81481 34.86860
# Shear Modulus (GPa) = 14.80466 22.59476 18.69971
#
# Velocity S-wave (km/s) = 2.89860 3.58091 3.25767
# Velocity P-wave (km/s) = 5.51852 6.11741 5.82566
#
# Compressibility (1/GPa) = 0.02947906
#
# Stress axis : x y z
#
# Youngs Moduli (GPa) = 67.20111 67.91951 57.97805
#
# Poissons Ratio (x) = 0.36062 0.18322
# Poissons Ratio (y) = 0.35681 0.01256
# Poissons Ratio (z) = 0.21237 0.01471
#
# Static dielectric constant tensor:
#      x y z
#    x 3.302790 0.000000 0.000000 
#    y 0.000000 3.436450 0.000000 
#    z 0.000000 0.000000 3.134580 
# 
# 
# High freq. dielectric constant tensor:
#      x y z
#    x 1.687230 0.000000 0.000000 
#    y 0.000000 1.684190 0.000000 
#    z 0.000000 0.000000 1.670390 
# 
# From -- ./inp_files/30334.got.cif
#   From: 2010.03.12/outbox.cif.g09.slc.cpg/sg63_16_cif.got.tgz:30334.got - 2010.04.10 19:34:48.
