data_PCOD8257498
_publ_section_title
;
Structure prediction by ZEFSAII (Michael W. Deem and Ramdas Pophale) SiO2 
 PCOD8257498
Probable space group: C M C M
;
_chemical_formula_sum "Si O2"
_cell_formula_units_Z 104
_cell_length_a 22.192469
_cell_length_b 29.751588
_cell_length_c 8.749370
_cell_angle_alpha 90.000000
_cell_angle_beta 90.000000
_cell_angle_gamma 90.000000
_cell_volume 5776.869486
_symmetry_space_group_name_H-M "C M C M"
_symmetry_group_IT_number 63
_symmetry_cell_setting 'orthorhombic'
loop_
_space_group_symop_operation_xyz
x,y,z
-x,-y,1/2+z
x,-y,-z
-x,y,1/2-z
-x,-y,-z
x,y,1/2-z
-x,y,z
x,-y,1/2+z
1/2+x,1/2+y,z
1/2-x,1/2-y,1/2+z
1/2+x,1/2-y,-z
1/2-x,1/2+y,1/2-z
1/2-x,1/2-y,-z
1/2+x,1/2+y,1/2-z
1/2-x,1/2+y,z
1/2+x,1/2-y,1/2+z
loop_
_atom_site_type_symbol
_atom_site_label
_atom_site_fract_x
_atom_site_fract_y
_atom_site_fract_z
Si Si1 0.931273 0.301975 0.572082
Si Si2 0.650554 0.547146 0.069662
Si Si3 0.428404 0.288055 0.921763
Si Si4 0.000000 0.548912 0.069454
Si Si5 0.071142 0.121386 0.925052
Si Si6 0.278624 0.952542 0.069249
Si Si7 0.882605 0.602322 0.429467
O O1 0.929479 0.290807 0.750000
O O2 0.902975 0.259093 0.485364
O O3 0.891243 0.345237 0.532306
O O4 0.000000 0.311723 0.521006
O O5 0.657951 0.542006 0.250000
O O6 0.628403 0.500000 0.000000
O O7 0.601058 0.584254 0.031852
O O8 0.714125 0.561530 0.997481
O O9 0.404873 0.295095 0.750000
O O10 0.500000 0.285943 0.929211
O O11 0.405269 0.329551 0.023823
O O12 0.058875 0.575366 0.013010
O O13 0.000000 0.545474 0.250000
O O14 0.000000 0.500000 0.000000
O O15 0.089833 0.113536 0.750000
O O16 0.000000 0.117467 0.948911
O O17 0.274068 0.957266 0.250000
O O18 0.325406 0.914012 0.024462
O O19 0.300476 0.000000 0.000000
O O20 0.871759 0.594568 0.250000
#
# Coordination Sequence:
#
# PCOD8257498 Si02
#       7
#    16  16  16   8  16  16  16
#     4   9  16  29  49  72 101 138 176 217 265 316
#     4  11  22  38  59  81 107 139 175 215 256 304
#     4   9  17  29  47  74 107 140 174 214 256 305
#     4  10  20  32  46  68 100 136 172 218 271 322
#     4  10  20  35  56  83 113 143 174 208 252 306
#     4  11  22  37  55  75 100 135 179 221 262 313
#     4  10  19  33  51  73 102 136 177 222 269 317
#
# _framework density 18.002829999999999
#
# number of rings (size 3 to 8) (size 9 to 14) (size 15 to 20)
#    0.000    2.000    0.769    5.077    0.000    5.538 
#    0.000    0.000    0.000    0.923    0.000    0.000 
#    0.000    0.000    0.000    0.000    0.000    0.000 
#
# Total GULP energy -644922.715218 kJ/mol
# GULP energy per Si atom -12402.359908 kJ/mol
# Density = 1.796185 g / cm^3
# Si number density = 18.002830 Si / 1000 Ang^3
#
#
#
# Elastic Constant Matrix: (Units=GPa)
#
#
# Indices 1 2 3 4 5 6 
#
# 1 51.5401 48.5778 36.8998 0.0000 0.0000 0.0000
# 2 48.5778 129.1428 54.9173 0.0000 0.0000 0.0000
# 3 36.8998 54.9173 112.1941 0.0000 0.0000 0.0000
# 4 0.0000 0.0000 0.0000 34.4767 0.0000 0.0000
# 5 0.0000 0.0000 0.0000 0.0000 23.7762 0.0000
# 6 0.0000 0.0000 0.0000 0.0000 0.0000 16.1791
#
#
#
# Elastic Compliance Matrix: (Units=1/GPa)
#
#
# Indices 1 2 3 4 5 6 
#
# 1 0.033006 -0.009849 -0.006034 0.000000 0.000000 0.000000
# 2 -0.009849 0.012718 -0.002986 0.000000 0.000000 0.000000
# 3 -0.006034 -0.002986 0.012359 0.000000 0.000000 0.000000
# 4 0.000000 0.000000 0.000000 0.029005 0.000000 0.000000
# 5 0.000000 0.000000 0.000000 0.000000 0.042059 0.000000
# 6 0.000000 0.000000 0.000000 0.000000 0.000000 0.061808
#
#
# Mechanical properties :
#
#
# Convention : Reuss Voigt Hill
#
# Bulk Modulus (GPa) = 49.15422 63.74076 56.44749
# Shear Modulus (GPa) = 21.23364 25.05186 23.14275
#
# Velocity S-wave (km/s) = 3.43805 3.73440 3.58929
# Velocity P-wave (km/s) = 6.56682 7.35372 6.97138
#
# Compressibility (1/GPa) = 0.02034413
#
# Stress axis : x y z
#
# Youngs Moduli (GPa) = 30.29776 78.62893 80.91064
#
# Poissons Ratio (x) = 0.77444 0.48824
# Poissons Ratio (y) = 0.29841 0.24159
# Poissons Ratio (z) = 0.18283 0.23478
#
# Static dielectric constant tensor:
#      x y z
#    x 3.055810 0.000000 0.000000 
#    y 0.000000 3.419750 0.000000 
#    z 0.000000 0.000000 3.362880 
# 
# 
# High freq. dielectric constant tensor:
#      x y z
#    x 1.663580 0.000000 0.000000 
#    y 0.000000 1.706720 0.000000 
#    z 0.000000 0.000000 1.704970 
# 
# From -- ./inp_files/10811.got.cif
#   From: 2010.03.12/outbox.cif.g09.slc.cpg/sg63_6_cif.got.tgz:10811.got - 2010.04.10 19:34:48.
