data_PCOD8257170
_publ_section_title
;
Structure prediction by ZEFSAII (Michael W. Deem and Ramdas Pophale) SiO2 
 PCOD8257170
Probable space group: C M C M
;
_chemical_formula_sum "Si O2"
_cell_formula_units_Z 128
_cell_length_a 24.190941
_cell_length_b 17.843114
_cell_length_c 18.655366
_cell_angle_alpha 90.000000
_cell_angle_beta 90.000000
_cell_angle_gamma 90.000000
_cell_volume 8052.434231
_symmetry_space_group_name_H-M "C M C M"
_symmetry_group_IT_number 63
_symmetry_cell_setting 'orthorhombic'
loop_
_space_group_symop_operation_xyz
x,y,z
-x,-y,1/2+z
x,-y,-z
-x,y,1/2-z
-x,-y,-z
x,y,1/2-z
-x,y,z
x,-y,1/2+z
1/2+x,1/2+y,z
1/2-x,1/2-y,1/2+z
1/2+x,1/2-y,-z
1/2-x,1/2+y,1/2-z
1/2-x,1/2-y,-z
1/2+x,1/2+y,1/2-z
1/2-x,1/2+y,z
1/2+x,1/2-y,1/2+z
loop_
_atom_site_type_symbol
_atom_site_label
_atom_site_fract_x
_atom_site_fract_y
_atom_site_fract_z
Si Si1 0.259833 0.033464 0.923595
Si Si2 0.565217 0.118988 0.427991
Si Si3 0.301014 0.678354 0.575954
Si Si4 0.360512 0.211196 0.167168
Si Si5 0.252556 0.113145 0.167338
Si Si6 0.064629 0.521433 0.830322
Si Si7 0.190510 0.226215 0.076533
Si Si8 0.628665 0.127484 0.922027
O O1 0.212025 0.092820 0.904109
O O2 0.318003 0.075235 0.927961
O O3 0.258607 0.969537 0.864186
O O4 0.245107 0.000000 0.000000
O O5 0.500000 0.126723 0.440709
O O6 0.585729 0.186148 0.377189
O O7 0.580774 0.042631 0.386804
O O8 0.595831 0.120889 0.503580
O O9 0.341802 0.708004 0.637672
O O10 0.245953 0.726680 0.570496
O O11 0.328197 0.686602 0.497401
O O12 0.376540 0.218454 0.250000
O O13 0.311003 0.152979 0.153365
O O14 0.238600 0.105629 0.250000
O O15 0.201388 0.160145 0.133891
O O16 0.085853 0.500426 0.750000
O O17 0.091987 0.598708 0.856012
O O18 0.000000 0.534614 0.828614
O O19 0.142707 0.285957 0.096963
#
# Coordination Sequence:
#
# PCOD8257170 Si02
#       8
#    16  16  16  16  16  16  16  16
#     4  11  19  28  48  70  95 127 159 193 236 284
#     4  11  21  33  49  70  95 127 168 209 240 277
#     4   9  17  30  46  66  91 122 157 190 235 282
#     4  10  19  32  48  67  96 130 161 195 240 287
#     4  10  20  32  47  71  99 127 161 200 238 285
#     4  10  21  34  45  63  95 129 161 202 246 278
#     4   9  17  31  48  66  91 123 157 198 234 282
#     4  11  20  31  51  70  92 125 172 201 234 282
#
# _framework density 15.895815000000001
#
# number of rings (size 3 to 8) (size 9 to 14) (size 15 to 20)
#    0.000    1.875    2.500    3.375    0.000    4.250 
#    0.000    2.500    0.000    0.000    0.000    0.000 
#    0.000    5.500    0.000    1.500    0.000    0.000 
#
# Total GULP energy -793435.661232 kJ/mol
# GULP energy per Si atom -12397.432207 kJ/mol
# Density = 1.585963 g / cm^3
# Si number density = 15.895815 Si / 1000 Ang^3
#
#
#
# Elastic Constant Matrix: (Units=GPa)
#
#
# Indices 1 2 3 4 5 6 
#
# 1 42.3571 39.1284 39.3102 0.0000 0.0000 0.0000
# 2 39.1284 90.3393 49.3974 0.0000 0.0000 0.0000
# 3 39.3102 49.3974 88.2274 0.0000 0.0000 0.0000
# 4 0.0000 0.0000 0.0000 25.0383 0.0000 0.0000
# 5 0.0000 0.0000 0.0000 0.0000 17.4570 0.0000
# 6 0.0000 0.0000 0.0000 0.0000 0.0000 21.9888
#
#
#
# Elastic Compliance Matrix: (Units=1/GPa)
#
#
# Indices 1 2 3 4 5 6 
#
# 1 0.049586 -0.013542 -0.014511 0.000000 0.000000 0.000000
# 2 -0.013542 0.019652 -0.004969 0.000000 0.000000 0.000000
# 3 -0.014511 -0.004969 0.020582 0.000000 0.000000 0.000000
# 4 0.000000 0.000000 0.000000 0.039939 0.000000 0.000000
# 5 0.000000 0.000000 0.000000 0.000000 0.057284 0.000000
# 6 0.000000 0.000000 0.000000 0.000000 0.000000 0.045478
#
#
# Mechanical properties :
#
#
# Convention : Reuss Voigt Hill
#
# Bulk Modulus (GPa) = 42.06099 52.95508 47.50804
# Shear Modulus (GPa) = 16.31370 19.10268 17.70819
#
# Velocity S-wave (km/s) = 3.20705 3.47038 3.34131
# Velocity P-wave (km/s) = 6.34282 7.03166 6.69610
#
# Compressibility (1/GPa) = 0.02377500
#
# Stress axis : x y z
#
# Youngs Moduli (GPa) = 20.16681 50.88530 48.58614
#
# Poissons Ratio (x) = 0.68911 0.70505
# Poissons Ratio (y) = 0.27311 0.24142
# Poissons Ratio (z) = 0.29265 0.25285
#
# Static dielectric constant tensor:
#      x y z
#    x 2.866910 0.000000 0.000000 
#    y 0.000000 3.225750 0.000000 
#    z 0.000000 0.000000 3.170690 
# 
# 
# High freq. dielectric constant tensor:
#      x y z
#    x 1.575710 0.000000 0.000000 
#    y 0.000000 1.600850 0.000000 
#    z 0.000000 0.000000 1.621830 
# 
# From -- ./inp_files/48439.got.cif
#   From: 2010.03.12/outbox.cif.g09.slc.cpg/sg63_25_cif.got.tgz:48439.got - 2010.04.10 19:34:48.
