data_PCOD8257832
_publ_section_title
;
Structure prediction by ZEFSAII (Michael W. Deem and Ramdas Pophale) SiO2 
 PCOD8257832
Probable space group: C M C M
;
_chemical_formula_sum "Si O2"
_cell_formula_units_Z 104
_cell_length_a 27.750046
_cell_length_b 22.866426
_cell_length_c 8.729514
_cell_angle_alpha 90.000000
_cell_angle_beta 90.000000
_cell_angle_gamma 90.000000
_cell_volume 5539.263991
_symmetry_space_group_name_H-M "C M C M"
_symmetry_group_IT_number 63
_symmetry_cell_setting 'orthorhombic'
loop_
_space_group_symop_operation_xyz
x,y,z
-x,-y,1/2+z
x,-y,-z
-x,y,1/2-z
-x,-y,-z
x,y,1/2-z
-x,y,z
x,-y,1/2+z
1/2+x,1/2+y,z
1/2-x,1/2-y,1/2+z
1/2+x,1/2-y,-z
1/2-x,1/2+y,1/2-z
1/2-x,1/2-y,-z
1/2+x,1/2+y,1/2-z
1/2-x,1/2+y,z
1/2+x,1/2-y,1/2+z
loop_
_atom_site_type_symbol
_atom_site_label
_atom_site_fract_x
_atom_site_fract_y
_atom_site_fract_z
Si Si1 0.237463 0.937535 0.425683
Si Si2 0.302945 0.256604 0.570155
Si Si3 0.645430 0.633636 0.925273
Si Si4 0.554391 0.562752 0.569243
Si Si5 0.000000 0.561709 0.924220
Si Si6 0.397340 0.936112 0.069731
Si Si7 0.183275 0.639554 0.429281
O O1 0.254715 0.939917 0.250000
O O2 0.181272 0.921699 0.439318
O O3 0.266204 0.886432 0.512082
O O4 0.248121 0.000000 0.500000
O O5 0.296899 0.258595 0.750000
O O6 0.250000 0.250000 0.500000
O O7 0.334201 0.312402 0.521263
O O8 0.331150 0.198976 0.516412
O O9 0.641551 0.654621 0.750000
O O10 0.593189 0.611476 0.987328
O O11 0.567420 0.500000 0.500000
O O12 0.558723 0.556090 0.750000
O O13 0.500000 0.582026 0.520782
O O14 0.050294 0.595563 0.959152
O O15 0.000000 0.543666 0.750000
O O16 0.000000 0.500000 0.000000
O O17 0.383137 0.936370 0.250000
O O18 0.358713 0.904843 0.965882
O O19 0.400175 0.000000 0.000000
O O20 0.187824 0.651621 0.250000
#
# Coordination Sequence:
#
# PCOD8257832 Si02
#       7
#    16  16  16  16   8  16  16
#     4  11  22  35  53  79 114 149 185 228 277 333
#     4  12  24  40  61  83 108 144 188 232 279 334
#     4  10  21  37  58  83 114 152 193 235 281 335
#     4   9  18  34  58  89 123 157 193 237 288 342
#     4   8  16  30  52  78 106 140 176 218 265 320
#     4  10  19  34  55  82 113 145 182 225 277 332
#     4  12  24  38  56  79 109 146 187 231 279 332
#
# _framework density 18.775058000000001
#
# number of rings (size 3 to 8) (size 9 to 14) (size 15 to 20)
#    0.000    1.538    1.538    4.615    0.000    1.846 
#    0.000    0.000    1.692    0.000    0.000    0.000 
#    0.000    0.000    0.000    0.000    0.000    0.000 
#
# Total GULP energy -644530.443385 kJ/mol
# GULP energy per Si atom -12394.816219 kJ/mol
# Density = 1.873233 g / cm^3
# Si number density = 18.775058 Si / 1000 Ang^3
#
#
#
# Elastic Constant Matrix: (Units=GPa)
#
#
# Indices 1 2 3 4 5 6 
#
# 1 128.8828 46.0470 42.0076 0.0000 0.0000 0.0000
# 2 46.0470 99.2476 43.8756 0.0000 0.0000 0.0000
# 3 42.0076 43.8756 109.2898 0.0000 0.0000 0.0000
# 4 0.0000 0.0000 0.0000 32.0014 0.0000 0.0000
# 5 0.0000 0.0000 0.0000 0.0000 16.8865 0.0000
# 6 0.0000 0.0000 0.0000 0.0000 0.0000 19.5133
#
#
#
# Elastic Compliance Matrix: (Units=1/GPa)
#
#
# Indices 1 2 3 4 5 6 
#
# 1 0.009775 -0.003494 -0.002354 0.000000 0.000000 0.000000
# 2 -0.003494 0.013499 -0.004076 0.000000 0.000000 0.000000
# 3 -0.002354 -0.004076 0.011691 0.000000 0.000000 0.000000
# 4 0.000000 0.000000 0.000000 0.031249 0.000000 0.000000
# 5 0.000000 0.000000 0.000000 0.000000 0.059219 0.000000
# 6 0.000000 0.000000 0.000000 0.000000 0.000000 0.051247
#
#
# Mechanical properties :
#
#
# Convention : Reuss Voigt Hill
#
# Bulk Modulus (GPa) = 66.15729 66.80898 66.48313
# Shear Modulus (GPa) = 24.80552 27.37957 26.09254
#
# Velocity S-wave (km/s) = 3.63877 3.82291 3.73197
# Velocity P-wave (km/s) = 7.27788 7.42612 7.35237
#
# Compressibility (1/GPa) = 0.01511549
#
# Stress axis : x y z
#
# Youngs Moduli (GPa) = 102.30404 74.07915 85.53326
#
# Poissons Ratio (x) = 0.25886 0.20137
# Poissons Ratio (y) = 0.35748 0.34865
# Poissons Ratio (z) = 0.24085 0.30196
#
# Static dielectric constant tensor:
#      x y z
#    x 3.964400 0.000000 0.000000 
#    y 0.000000 5.211030 0.000000 
#    z 0.000000 0.000000 3.526070 
# 
# 
# High freq. dielectric constant tensor:
#      x y z
#    x 1.738370 0.000000 0.000000 
#    y 0.000000 1.710430 0.000000 
#    z 0.000000 0.000000 1.737470 
# 
# From -- ./inp_files/12573.got.cif
#   From: 2010.03.12/outbox.cif.g09.slc.cpg/sg63_7_cif.got.tgz:12573.got - 2010.04.10 19:34:48.
