data_PCOD8257281
_publ_section_title
;
Structure prediction by ZEFSAII (Michael W. Deem and Ramdas Pophale) SiO2 
 PCOD8257281
Probable space group: C M C M
;
_chemical_formula_sum "Si O2"
_cell_formula_units_Z 80
_cell_length_a 19.236642
_cell_length_b 26.066284
_cell_length_c 8.843714
_cell_angle_alpha 90.000000
_cell_angle_beta 90.000000
_cell_angle_gamma 90.000000
_cell_volume 4434.483821
_symmetry_space_group_name_H-M "C M C M"
_symmetry_group_IT_number 63
_symmetry_cell_setting 'orthorhombic'
loop_
_space_group_symop_operation_xyz
x,y,z
-x,-y,1/2+z
x,-y,-z
-x,y,1/2-z
-x,-y,-z
x,y,1/2-z
-x,y,z
x,-y,1/2+z
1/2+x,1/2+y,z
1/2-x,1/2-y,1/2+z
1/2+x,1/2-y,-z
1/2-x,1/2+y,1/2-z
1/2-x,1/2-y,-z
1/2+x,1/2+y,1/2-z
1/2-x,1/2+y,z
1/2+x,1/2-y,1/2+z
loop_
_atom_site_type_symbol
_atom_site_label
_atom_site_fract_x
_atom_site_fract_y
_atom_site_fract_z
Si Si1 0.420884 0.052800 0.570681
Si Si2 0.918623 0.053142 0.074561
Si Si3 0.324485 0.142277 0.926897
Si Si4 0.324777 0.254377 0.572747
Si Si5 0.666522 0.355803 0.070597
O O1 0.415040 0.049182 0.750000
O O2 0.500000 0.063200 0.519622
O O3 0.373778 0.098620 0.502003
O O4 0.393017 0.000000 0.500000
O O5 0.898609 0.052003 0.250000
O O6 0.000000 0.062123 0.049466
O O7 0.879125 0.098470 0.991928
O O8 0.894422 0.000000 0.000000
O O9 0.319487 0.132670 0.750000
O O10 0.359313 0.198385 0.958091
O O11 0.245730 0.137936 0.990274
O O12 0.319039 0.265574 0.750000
O O13 0.250000 0.250000 0.500000
O O14 0.364700 0.301783 0.493267
O O15 0.662113 0.354703 0.250000
#
# Coordination Sequence:
#
# PCOD8257281 Si02
#       5
#    16  16  16  16  16
#     4   9  17  31  49  67  91 124 159 195 237 282
#     4  10  21  37  55  74  98 129 164 202 246 298
#     4   8  16  30  48  71  97 127 164 203 240 283
#     4   9  16  29  48  70  98 130 165 204 248 295
#     4  10  19  32  51  74 101 130 162 202 246 295
#
# _framework density 18.040431999999999
#
# number of rings (size 3 to 8) (size 9 to 14) (size 15 to 20)
#    0.000    2.800    0.000    3.000    0.000    2.000 
#    0.000    9.000    0.000    3.600    0.000    0.000 
#    0.000    0.000    0.000    0.000    0.000    0.000 
#
# Total GULP energy -495739.375276 kJ/mol
# GULP energy per Si atom -12393.484382 kJ/mol
# Density = 1.799937 g / cm^3
# Si number density = 18.040432 Si / 1000 Ang^3
#
#
#
# Elastic Constant Matrix: (Units=GPa)
#
#
# Indices 1 2 3 4 5 6 
#
# 1 47.0130 61.7729 28.6595 0.0000 0.0000 0.0000
# 2 61.7729 192.8236 62.7551 0.0000 0.0000 0.0000
# 3 28.6595 62.7551 80.7120 0.0000 0.0000 0.0000
# 4 0.0000 0.0000 0.0000 36.1525 0.0000 0.0000
# 5 0.0000 0.0000 0.0000 0.0000 20.4203 0.0000
# 6 0.0000 0.0000 0.0000 0.0000 0.0000 -1.8276
#
#
#
# Elastic Compliance Matrix: (Units=1/GPa)
#
#
# Indices 1 2 3 4 5 6 
#
# 1 0.038448 -0.010541 -0.005456 0.000000 0.000000 0.000000
# 2 -0.010541 0.009833 -0.003902 0.000000 0.000000 0.000000
# 3 -0.005456 -0.003902 0.017361 0.000000 0.000000 0.000000
# 4 0.000000 0.000000 0.000000 0.027661 0.000000 0.000000
# 5 0.000000 0.000000 0.000000 0.000000 0.048971 0.000000
# 6 0.000000 0.000000 0.000000 0.000000 0.000000 -0.547166
#
#
# Mechanical properties :
#
#
# Convention : Reuss Voigt Hill
#
# Bulk Modulus (GPa) = 38.69594 69.65818 54.17706
# Shear Modulus (GPa) = -14.02607 22.10645 4.04019
#
# Velocity S-wave (km/s) = -2.79136 3.50435 1.49813
# Velocity P-wave (km/s) = 3.33275 7.42092 5.75227
#
# Compressibility (1/GPa) = 0.02584250
#
# Stress axis : x y z
#
# Youngs Moduli (GPa) = 26.00935 101.69654 57.59957
#
# Poissons Ratio (x) = 1.07203 0.31426
# Poissons Ratio (y) = 0.27418 0.22478
# Poissons Ratio (z) = 0.14191 0.39686
#
# Static dielectric constant tensor:
#      x y z
#    x 3.233950 0.000000 0.000000 
#    y 0.000000 3.969020 0.000000 
#    z 0.000000 0.000000 3.406010 
# 
# 
# High freq. dielectric constant tensor:
#      x y z
#    x 1.664380 0.000000 0.000000 
#    y 0.000000 1.721280 0.000000 
#    z 0.000000 0.000000 1.691170 
# 
# From -- ./inp_files/6456.got.cif
#   From: 2010.03.12/outbox.cif.g09.slc.cpg/sg63_4_cif.got.tgz:6456.got - 2010.04.10 19:34:48.
