data_PCOD8257727
_publ_section_title
;
Structure prediction by ZEFSAII (Michael W. Deem and Ramdas Pophale) SiO2 
 PCOD8257727
Probable space group: C M C M
;
_chemical_formula_sum "Si O2"
_cell_formula_units_Z 96
_cell_length_a 27.259888
_cell_length_b 9.713827
_cell_length_c 19.888816
_cell_angle_alpha 90.000000
_cell_angle_beta 90.000000
_cell_angle_gamma 90.000000
_cell_volume 5266.515439
_symmetry_space_group_name_H-M "C M C M"
_symmetry_group_IT_number 63
_symmetry_cell_setting 'orthorhombic'
loop_
_space_group_symop_operation_xyz
x,y,z
-x,-y,1/2+z
x,-y,-z
-x,y,1/2-z
-x,-y,-z
x,y,1/2-z
-x,y,z
x,-y,1/2+z
1/2+x,1/2+y,z
1/2-x,1/2-y,1/2+z
1/2+x,1/2-y,-z
1/2-x,1/2+y,1/2-z
1/2-x,1/2-y,-z
1/2+x,1/2+y,1/2-z
1/2-x,1/2+y,z
1/2+x,1/2-y,1/2+z
loop_
_atom_site_type_symbol
_atom_site_label
_atom_site_fract_x
_atom_site_fract_y
_atom_site_fract_z
Si Si1 0.318229 0.082492 0.591243
Si Si2 0.445828 0.532970 0.325173
Si Si3 0.648668 0.801580 0.546114
Si Si4 0.205359 0.959424 0.077264
Si Si5 0.944379 0.131153 0.954660
Si Si6 0.152147 0.173300 0.173214
O O1 0.324286 0.173659 0.524399
O O2 0.261374 0.047944 0.599234
O O3 0.336171 0.169056 0.655172
O O4 0.350291 0.942860 0.588608
O O5 0.440472 0.471192 0.250000
O O6 0.500000 0.598736 0.336087
O O7 0.438381 0.407530 0.376487
O O8 0.406100 0.652171 0.337379
O O9 0.678098 0.686078 0.587901
O O10 0.592602 0.756527 0.531181
O O11 0.181249 0.071033 0.125260
O O12 0.198948 0.000000 0.000000
O O13 0.000000 0.177983 0.971607
O O14 0.929437 0.000000 0.000000
O O15 0.167819 0.145528 0.250000
#
# Coordination Sequence:
#
# PCOD8257727 Si02
#       6
#    16  16  16  16  16  16
#     4  11  23  36  55  83 117 153 187 231 284 345
#     4   9  18  35  58  81 105 141 189 232 275 335
#     4  11  20  35  58  87 108 145 196 242 274 335
#     4  12  20  38  64  84 104 150 208 240 268 334
#     4  10  19  33  56  86 115 144 185 243 294 327
#     4  11  23  38  57  86 120 149 184 240 298 338
#
# _framework density 18.228372
#
# number of rings (size 3 to 8) (size 9 to 14) (size 15 to 20)
#    0.000    1.333    5.000    3.000    0.000    0.667 
#    0.000    4.167    0.000    0.000    0.000    0.000 
#    0.000    0.000    0.000    0.000    0.000    0.000 
#
# Total GULP energy -595232.123633 kJ/mol
# GULP energy per Si atom -12400.669242 kJ/mol
# Density = 1.818688 g / cm^3
# Si number density = 18.228372 Si / 1000 Ang^3
#
#
#
# Elastic Constant Matrix: (Units=GPa)
#
#
# Indices 1 2 3 4 5 6 
#
# 1 132.7711 52.5425 26.4586 0.0000 0.0000 0.0000
# 2 52.5425 103.4116 23.5301 0.0000 0.0000 0.0000
# 3 26.4586 23.5301 64.8174 0.0000 0.0000 0.0000
# 4 0.0000 0.0000 0.0000 14.5720 0.0000 0.0000
# 5 0.0000 0.0000 0.0000 0.0000 21.2323 0.0000
# 6 0.0000 0.0000 0.0000 0.0000 0.0000 11.7775
#
#
#
# Elastic Compliance Matrix: (Units=1/GPa)
#
#
# Indices 1 2 3 4 5 6 
#
# 1 0.009753 -0.004414 -0.002379 0.000000 0.000000 0.000000
# 2 -0.004414 0.012539 -0.002750 0.000000 0.000000 0.000000
# 3 -0.002379 -0.002750 0.017397 0.000000 0.000000 0.000000
# 4 0.000000 0.000000 0.000000 0.068625 0.000000 0.000000
# 5 0.000000 0.000000 0.000000 0.000000 0.047098 0.000000
# 6 0.000000 0.000000 0.000000 0.000000 0.000000 0.084908
#
#
# Mechanical properties :
#
#
# Convention : Reuss Voigt Hill
#
# Bulk Modulus (GPa) = 48.53627 56.22917 52.38272
# Shear Modulus (GPa) = 18.77782 22.74762 20.76272
#
# Velocity S-wave (km/s) = 3.21307 3.53643 3.37862
# Velocity P-wave (km/s) = 6.36000 6.89849 6.63471
#
# Compressibility (1/GPa) = 0.02060315
#
# Stress axis : x y z
#
# Youngs Moduli (GPa) = 102.53738 79.75428 57.48043
#
# Poissons Ratio (x) = 0.35203 0.13673
# Poissons Ratio (y) = 0.45259 0.15807
# Poissons Ratio (z) = 0.24390 0.21932
#
# Static dielectric constant tensor:
#      x y z
#    x 3.597950 0.000000 0.000000 
#    y 0.000000 3.318960 0.000000 
#    z 0.000000 0.000000 3.435310 
# 
# 
# High freq. dielectric constant tensor:
#      x y z
#    x 1.721400 0.000000 0.000000 
#    y 0.000000 1.685220 0.000000 
#    z 0.000000 0.000000 1.700360 
# 
# From -- ./inp_files/58096.got.cif
#   From: 2010.03.12/outbox.cif.g09.slc.cpg/sg63_30_cif.got.tgz:58096.got - 2010.04.10 19:34:48.
