data_PCOD8257941
_publ_section_title
;
Structure prediction by ZEFSAII (Michael W. Deem and Ramdas Pophale) SiO2 
 PCOD8257941
Probable space group: C M C M
;
_chemical_formula_sum "Si O2"
_cell_formula_units_Z 88
_cell_length_a 10.722150
_cell_length_b 14.045783
_cell_length_c 28.994648
_cell_angle_alpha 90.000000
_cell_angle_beta 90.000000
_cell_angle_gamma 90.000000
_cell_volume 4366.622757
_symmetry_space_group_name_H-M "C M C M"
_symmetry_group_IT_number 63
_symmetry_cell_setting 'orthorhombic'
loop_
_space_group_symop_operation_xyz
x,y,z
-x,-y,1/2+z
x,-y,-z
-x,y,1/2-z
-x,-y,-z
x,y,1/2-z
-x,y,z
x,-y,1/2+z
1/2+x,1/2+y,z
1/2-x,1/2-y,1/2+z
1/2+x,1/2-y,-z
1/2-x,1/2+y,1/2-z
1/2-x,1/2-y,-z
1/2+x,1/2+y,1/2-z
1/2-x,1/2+y,z
1/2+x,1/2-y,1/2+z
loop_
_atom_site_type_symbol
_atom_site_label
_atom_site_fract_x
_atom_site_fract_y
_atom_site_fract_z
Si Si1 0.000000 0.772179 0.801993
Si Si2 0.233989 0.691283 0.845844
Si Si3 0.635256 0.351951 0.019663
Si Si4 0.000000 0.038614 0.140406
Si Si5 0.747981 0.518929 0.592171
Si Si6 0.000000 0.852396 0.195474
Si Si7 0.277615 0.821020 0.570269
O O1 0.874455 0.709352 0.808669
O O2 0.000000 0.858816 0.836932
O O3 0.000000 0.810246 0.750000
O O4 0.201613 0.587998 0.867808
O O5 0.373956 0.696039 0.824700
O O6 0.222958 0.773277 0.883944
O O7 0.500000 0.399582 0.023191
O O8 0.733847 0.420769 0.044995
O O9 0.624869 0.250035 0.046109
O O10 0.666687 0.337485 0.966399
O O11 0.882530 0.025827 0.107561
O O12 0.000000 0.962646 0.181991
O O13 0.835550 0.425942 0.582761
O O14 0.000000 0.840298 0.250000
#
# Coordination Sequence:
#
# PCOD8257941 Si02
#       7
#     8  16  16   8  16   8  16
#     4  12  23  40  62  93 125 152 194 258 322 369
#     4  10  23  38  63  90 119 160 198 247 307 364
#     4  10  21  34  57  86 117 160 200 251 291 345
#     4  10  19  34  62  92 110 155 205 254 304 364
#     4  10  19  37  58  85 119 156 206 244 293 358
#     4  10  21  42  65  88 116 153 203 256 307 372
#     4  10  21  35  55  86 122 153 203 243 294 352
#
# _framework density 20.152874000000001
#
# number of rings (size 3 to 8) (size 9 to 14) (size 15 to 20)
#    0.000    1.818    2.727    1.364    6.364    0.727 
#    1.636    0.000    0.000    4.364    0.000    0.000 
#    0.000    0.000    0.000    0.000    0.000    0.000 
#
# Total GULP energy -545263.804493 kJ/mol
# GULP energy per Si atom -12392.359193 kJ/mol
# Density = 2.010701 g / cm^3
# Si number density = 20.152874 Si / 1000 Ang^3
#
#
#
# Elastic Constant Matrix: (Units=GPa)
#
#
# Indices 1 2 3 4 5 6 
#
# 1 76.4898 19.6463 22.0327 0.0000 0.0000 0.0000
# 2 19.6463 129.3040 34.3952 0.0000 0.0000 0.0000
# 3 22.0327 34.3952 109.6098 0.0000 0.0000 0.0000
# 4 0.0000 0.0000 0.0000 24.2804 0.0000 0.0000
# 5 0.0000 0.0000 0.0000 0.0000 4.4273 0.0000
# 6 0.0000 0.0000 0.0000 0.0000 0.0000 6.5682
#
#
#
# Elastic Compliance Matrix: (Units=1/GPa)
#
#
# Indices 1 2 3 4 5 6 
#
# 1 0.014146 -0.001520 -0.002367 0.000000 0.000000 0.000000
# 2 -0.001520 0.008601 -0.002394 0.000000 0.000000 0.000000
# 3 -0.002367 -0.002394 0.010350 0.000000 0.000000 0.000000
# 4 0.000000 0.000000 0.000000 0.041186 0.000000 0.000000
# 5 0.000000 0.000000 0.000000 0.000000 0.225873 0.000000
# 6 0.000000 0.000000 0.000000 0.000000 0.000000 0.152249
#
#
# Mechanical properties :
#
#
# Convention : Reuss Voigt Hill
#
# Bulk Modulus (GPa) = 48.69192 51.95024 50.32108
# Shear Modulus (GPa) = 10.59748 23.01046 16.80397
#
# Velocity S-wave (km/s) = 2.29564 3.38271 2.89074
# Velocity P-wave (km/s) = 5.58931 6.41023 6.01379
#
# Compressibility (1/GPa) = 0.02053729
#
# Stress axis : x y z
#
# Youngs Moduli (GPa) = 70.69305 116.26120 96.61779
#
# Poissons Ratio (x) = 0.17669 0.22865
# Poissons Ratio (y) = 0.10744 0.23126
# Poissons Ratio (z) = 0.16730 0.27828
#
# Static dielectric constant tensor:
#      x y z
#    x 3.361220 0.000000 0.000000 
#    y 0.000000 4.001110 0.000000 
#    z 0.000000 0.000000 3.619850 
# 
# 
# High freq. dielectric constant tensor:
#      x y z
#    x 1.753330 0.000000 0.000000 
#    y 0.000000 1.799870 0.000000 
#    z 0.000000 0.000000 1.790120 
# 
# From -- ./inp_files/68221.got.cif
#   From: 2010.03.12/outbox.cif.g09.slc.cpg/sg63_35_cif.got.tgz:68221.got - 2010.04.10 19:34:48.
