data_PCOD8257442
_publ_section_title
;
Structure prediction by ZEFSAII (Michael W. Deem and Ramdas Pophale) SiO2 
 PCOD8257442
Probable space group: C M C M
;
_chemical_formula_sum "Si O2"
_cell_formula_units_Z 96
_cell_length_a 16.905594
_cell_length_b 17.512909
_cell_length_c 18.269440
_cell_angle_alpha 90.000000
_cell_angle_beta 90.000000
_cell_angle_gamma 90.000000
_cell_volume 5408.962386
_symmetry_space_group_name_H-M "C M C M"
_symmetry_group_IT_number 63
_symmetry_cell_setting 'orthorhombic'
loop_
_space_group_symop_operation_xyz
x,y,z
-x,-y,1/2+z
x,-y,-z
-x,y,1/2-z
-x,-y,-z
x,y,1/2-z
-x,y,z
x,-y,1/2+z
1/2+x,1/2+y,z
1/2-x,1/2-y,1/2+z
1/2+x,1/2-y,-z
1/2-x,1/2+y,1/2-z
1/2-x,1/2-y,-z
1/2+x,1/2+y,1/2-z
1/2-x,1/2+y,z
1/2+x,1/2-y,1/2+z
loop_
_atom_site_type_symbol
_atom_site_label
_atom_site_fract_x
_atom_site_fract_y
_atom_site_fract_z
Si Si1 0.707965 0.027700 0.922648
Si Si2 0.091085 0.257372 0.665210
Si Si3 0.090938 0.364616 0.334798
Si Si4 0.780848 0.377947 0.666687
Si Si5 0.816735 0.837022 0.443376
Si Si6 0.671041 0.268431 0.592508
O O1 0.641999 0.072717 0.877226
O O2 0.789321 0.075129 0.935858
O O3 0.732655 0.952791 0.879660
O O4 0.671758 0.000000 0.000000
O O5 0.106343 0.237900 0.750000
O O6 0.139741 0.332836 0.641614
O O7 0.120090 0.183978 0.619417
O O8 0.000000 0.274459 0.648480
O O9 0.118260 0.361691 0.250000
O O10 0.100735 0.280914 0.371566
O O11 0.000000 0.389065 0.340935
O O12 0.787449 0.402888 0.750000
O O13 0.705596 0.323342 0.655113
O O14 0.736798 0.789887 0.435124
O O15 0.856583 0.818572 0.522351
#
# Coordination Sequence:
#
# PCOD8257442 Si02
#       6
#    16  16  16  16  16  16
#     4  11  21  35  53  78 113 141 174 216 260 314
#     4   9  19  34  53  79 108 138 176 221 266 312
#     4  10  22  37  53  77 109 142 176 214 259 315
#     4  10  19  32  54  79 104 140 176 213 262 312
#     4   9  18  32  53  75 104 135 177 220 259 306
#     4   9  17  33  53  75  99 136 178 223 255 302
#
# _framework density 17.748321000000001
#
# number of rings (size 3 to 8) (size 9 to 14) (size 15 to 20)
#    0.000    2.333    1.667    1.000    2.333    6.333 
#    0.000    1.667    0.000    1.500    0.000    2.333 
#    0.000    0.000    0.000    0.000    0.000    0.000 
#
# Total GULP energy -595080.145117 kJ/mol
# GULP energy per Si atom -12397.503023 kJ/mol
# Density = 1.770793 g / cm^3
# Si number density = 17.748321 Si / 1000 Ang^3
#
#
#
# Elastic Constant Matrix: (Units=GPa)
#
#
# Indices 1 2 3 4 5 6 
#
# 1 30.7004 34.7234 26.7099 0.0000 0.0000 0.0000
# 2 34.7234 93.9243 49.6879 0.0000 0.0000 0.0000
# 3 26.7099 49.6879 106.9307 0.0000 0.0000 0.0000
# 4 0.0000 0.0000 0.0000 36.5890 0.0000 0.0000
# 5 0.0000 0.0000 0.0000 0.0000 22.0738 0.0000
# 6 0.0000 0.0000 0.0000 0.0000 0.0000 16.3549
#
#
#
# Elastic Compliance Matrix: (Units=1/GPa)
#
#
# Indices 1 2 3 4 5 6 
#
# 1 0.058821 -0.018528 -0.006083 0.000000 0.000000 0.000000
# 2 -0.018528 0.019953 -0.004644 0.000000 0.000000 0.000000
# 3 -0.006083 -0.004644 0.013029 0.000000 0.000000 0.000000
# 4 0.000000 0.000000 0.000000 0.027331 0.000000 0.000000
# 5 0.000000 0.000000 0.000000 0.000000 0.045302 0.000000
# 6 0.000000 0.000000 0.000000 0.000000 0.000000 0.061144
#
#
# Mechanical properties :
#
#
# Convention : Reuss Voigt Hill
#
# Bulk Modulus (GPa) = 30.03561 50.42199 40.22880
# Shear Modulus (GPa) = 16.93837 23.03250 19.98544
#
# Velocity S-wave (km/s) = 3.09263 3.60631 3.35930
# Velocity P-wave (km/s) = 5.45090 6.76844 6.14508
#
# Compressibility (1/GPa) = 0.03329382
#
# Stress axis : x y z
#
# Youngs Moduli (GPa) = 17.00069 50.11760 76.75055
#
# Poissons Ratio (x) = 0.92856 0.46691
# Poissons Ratio (y) = 0.31498 0.35641
# Poissons Ratio (z) = 0.10342 0.23273
#
# Static dielectric constant tensor:
#      x y z
#    x 3.018980 0.000000 0.000000 
#    y 0.000000 3.354580 0.000000 
#    z 0.000000 0.000000 3.634770 
# 
# 
# High freq. dielectric constant tensor:
#      x y z
#    x 1.651590 0.000000 0.000000 
#    y 0.000000 1.680590 0.000000 
#    z 0.000000 0.000000 1.705440 
# 
# From -- ./inp_files/45753.got.cif
#   From: 2010.03.12/outbox.cif.g09.slc.cpg/sg63_23_cif.got.tgz:45753.got - 2010.04.10 19:34:48.
