data_PCOD8257807
_publ_section_title
;
Structure prediction by ZEFSAII (Michael W. Deem and Ramdas Pophale) SiO2 
 PCOD8257807
Probable space group: C M C M
;
_chemical_formula_sum "Si O2"
_cell_formula_units_Z 88
_cell_length_a 10.622271
_cell_length_b 13.810239
_cell_length_c 33.492620
_cell_angle_alpha 90.000000
_cell_angle_beta 90.000000
_cell_angle_gamma 90.000000
_cell_volume 4913.236774
_symmetry_space_group_name_H-M "C M C M"
_symmetry_group_IT_number 63
_symmetry_cell_setting 'orthorhombic'
loop_
_space_group_symop_operation_xyz
x,y,z
-x,-y,1/2+z
x,-y,-z
-x,y,1/2-z
-x,-y,-z
x,y,1/2-z
-x,y,z
x,-y,1/2+z
1/2+x,1/2+y,z
1/2-x,1/2-y,1/2+z
1/2+x,1/2-y,-z
1/2-x,1/2+y,1/2-z
1/2-x,1/2-y,-z
1/2+x,1/2+y,1/2-z
1/2-x,1/2+y,z
1/2+x,1/2-y,1/2+z
loop_
_atom_site_type_symbol
_atom_site_label
_atom_site_fract_x
_atom_site_fract_y
_atom_site_fract_z
Si Si1 0.740545 0.439295 0.141852
Si Si2 0.500000 0.696245 0.451640
Si Si3 0.852681 0.795027 0.295241
Si Si4 0.500000 0.485991 0.600742
Si Si5 0.500000 0.341780 0.041435
Si Si6 0.248487 0.272554 0.079855
Si Si7 0.357107 0.862753 0.642339
O O1 0.721269 0.381591 0.182958
O O2 0.616534 0.496372 0.129458
O O3 0.779743 0.366047 0.106932
O O4 0.845220 0.521930 0.148398
O O5 0.500000 0.622599 0.414924
O O6 0.500000 0.642719 0.494029
O O7 0.373426 0.760570 0.448242
O O8 0.803618 0.787960 0.250000
O O9 0.823307 0.692705 0.316549
O O10 0.000000 0.819194 0.297154
O O11 0.500000 0.554445 0.562152
O O12 0.373957 0.284332 0.053528
O O13 0.268396 0.177342 0.107066
O O14 0.500000 0.837622 0.630386
#
# Coordination Sequence:
#
# PCOD8257807 Si02
#       7
#    16   8  16   8   8  16  16
#     4  10  19  34  55  79 106 138 173 221 262 312
#     4  12  21  34  55  83 105 138 181 235 270 311
#     4   9  18  33  54  80 105 136 178 215 260 321
#     4  10  19  34  55  78  99 136 187 215 259 321
#     4  10  21  38  53  73 112 146 174 222 280 322
#     4  10  21  35  55  78 108 141 183 219 269 324
#     4  10  19  34  55  76 105 145 178 215 259 322
#
# _framework density 17.910799999999998
#
# number of rings (size 3 to 8) (size 9 to 14) (size 15 to 20)
#    0.000    2.000    3.636    0.818    1.273    0.727 
#    0.000    0.000    0.000    1.091    0.000    0.000 
#    0.000    0.000    0.000    0.000    0.000    0.000 
#
# Total GULP energy -545555.488552 kJ/mol
# GULP energy per Si atom -12398.988376 kJ/mol
# Density = 1.787003 g / cm^3
# Si number density = 17.910800 Si / 1000 Ang^3
#
#
#
# Elastic Constant Matrix: (Units=GPa)
#
#
# Indices 1 2 3 4 5 6 
#
# 1 80.9606 21.6757 24.7462 0.0000 0.0000 0.0000
# 2 21.6757 90.7471 21.1205 0.0000 0.0000 0.0000
# 3 24.7462 21.1205 89.2100 0.0000 0.0000 0.0000
# 4 0.0000 0.0000 0.0000 16.7962 0.0000 0.0000
# 5 0.0000 0.0000 0.0000 0.0000 20.3893 0.0000
# 6 0.0000 0.0000 0.0000 0.0000 0.0000 29.6076
#
#
#
# Elastic Compliance Matrix: (Units=1/GPa)
#
#
# Indices 1 2 3 4 5 6 
#
# 1 0.014049 -0.002592 -0.003284 0.000000 0.000000 0.000000
# 2 -0.002592 0.012140 -0.002155 0.000000 0.000000 0.000000
# 3 -0.003284 -0.002155 0.012631 0.000000 0.000000 0.000000
# 4 0.000000 0.000000 0.000000 0.059537 0.000000 0.000000
# 5 0.000000 0.000000 0.000000 0.000000 0.049045 0.000000
# 6 0.000000 0.000000 0.000000 0.000000 0.000000 0.033775
#
#
# Mechanical properties :
#
#
# Convention : Reuss Voigt Hill
#
# Bulk Modulus (GPa) = 43.93836 44.00025 43.96931
# Shear Modulus (GPa) = 24.41107 26.25030 25.33068
#
# Velocity S-wave (km/s) = 3.69579 3.83249 3.76476
# Velocity P-wave (km/s) = 6.54193 6.64858 6.59547
#
# Compressibility (1/GPa) = 0.02275916
#
# Stress axis : x y z
#
# Youngs Moduli (GPa) = 71.17857 82.37041 79.17267
#
# Poissons Ratio (x) = 0.21347 0.25997
# Poissons Ratio (y) = 0.18446 0.17064
# Poissons Ratio (z) = 0.23372 0.17754
#
# Static dielectric constant tensor:
#      x y z
#    x 3.188680 0.000000 0.000000 
#    y 0.000000 3.212860 0.000000 
#    z 0.000000 0.000000 3.220050 
# 
# 
# High freq. dielectric constant tensor:
#      x y z
#    x 1.685690 0.000000 0.000000 
#    y 0.000000 1.691570 0.000000 
#    z 0.000000 0.000000 1.685570 
# 
# From -- ./inp_files/72643.got.cif
#   From: 2010.03.12/outbox.cif.g09.slc.cpg/sg63_37_cif.got.tgz:72643.got - 2010.04.10 19:34:48.
