data_PCOD8257800
_publ_section_title
;
Structure prediction by ZEFSAII (Michael W. Deem and Ramdas Pophale) SiO2 
 PCOD8257800
Probable space group: C M C M
;
_chemical_formula_sum "Si O2"
_cell_formula_units_Z 96
_cell_length_a 23.367071
_cell_length_b 25.489952
_cell_length_c 8.939489
_cell_angle_alpha 90.000000
_cell_angle_beta 90.000000
_cell_angle_gamma 90.000000
_cell_volume 5324.587768
_symmetry_space_group_name_H-M "C M C M"
_symmetry_group_IT_number 63
_symmetry_cell_setting 'orthorhombic'
loop_
_space_group_symop_operation_xyz
x,y,z
-x,-y,1/2+z
x,-y,-z
-x,y,1/2-z
-x,-y,-z
x,y,1/2-z
-x,y,z
x,-y,1/2+z
1/2+x,1/2+y,z
1/2-x,1/2-y,1/2+z
1/2+x,1/2-y,-z
1/2-x,1/2+y,1/2-z
1/2-x,1/2-y,-z
1/2+x,1/2+y,1/2-z
1/2-x,1/2+y,z
1/2+x,1/2-y,1/2+z
loop_
_atom_site_type_symbol
_atom_site_label
_atom_site_fract_x
_atom_site_fract_y
_atom_site_fract_z
Si Si1 0.751208 0.306900 0.075080
Si Si2 0.936405 0.251328 0.927890
Si Si3 0.360990 0.152426 0.072233
Si Si4 0.065043 0.446291 0.573852
Si Si5 0.372600 0.351486 0.075779
Si Si6 0.934794 0.945353 0.574254
O O1 0.761361 0.298084 0.250000
O O2 0.693091 0.338183 0.044215
O O3 0.750000 0.250000 0.000000
O O4 0.799730 0.344154 0.006123
O O5 0.937335 0.253079 0.750000
O O6 0.898294 0.298970 0.987790
O O7 0.910287 0.196864 0.984410
O O8 0.000000 0.257242 0.993968
O O9 0.352942 0.154467 0.250000
O O10 0.392863 0.099667 0.019957
O O11 0.086513 0.500000 0.500000
O O12 0.068096 0.453159 0.750000
O O13 0.000000 0.432887 0.523841
O O14 0.384230 0.361913 0.250000
O O15 0.390609 0.402243 0.983757
O O16 0.927741 0.951459 0.750000
O O17 0.000000 0.929932 0.530547
O O18 0.917373 0.000000 0.500000
#
# Coordination Sequence:
#
# PCOD8257800 Si02
#       6
#    16  16  16  16  16  16
#     4  11  22  37  56  79 108 146 186 224 269 321
#     4   9  16  28  50  78 106 136 174 220 268 322
#     4  10  19  34  54  79 108 142 185 225 269 322
#     4   9  18  33  55  81 110 144 182 225 272 325
#     4  10  20  35  55  79 107 143 185 224 267 320
#     4  10  21  37  58  84 113 144 178 220 271 325
#
# _framework density 18.029565000000002
#
# number of rings (size 3 to 8) (size 9 to 14) (size 15 to 20)
#    0.000    2.167    1.667    2.000    0.000    5.667 
#    0.000    0.833    0.000    3.500    0.000    0.000 
#    0.000    0.000    0.000    0.000    0.000    0.000 
#
# Total GULP energy -595294.541700 kJ/mol
# GULP energy per Si atom -12401.969619 kJ/mol
# Density = 1.798853 g / cm^3
# Si number density = 18.029565 Si / 1000 Ang^3
#
#
#
# Elastic Constant Matrix: (Units=GPa)
#
#
# Indices 1 2 3 4 5 6 
#
# 1 117.7430 69.9214 43.6235 0.0000 0.0000 0.0000
# 2 69.9214 150.0949 52.4977 0.0000 0.0000 0.0000
# 3 43.6235 52.4977 57.2650 0.0000 0.0000 0.0000
# 4 0.0000 0.0000 0.0000 31.7136 0.0000 0.0000
# 5 0.0000 0.0000 0.0000 0.0000 29.2447 0.0000
# 6 0.0000 0.0000 0.0000 0.0000 0.0000 24.8164
#
#
#
# Elastic Compliance Matrix: (Units=1/GPa)
#
#
# Indices 1 2 3 4 5 6 
#
# 1 0.013205 -0.003876 -0.006506 0.000000 0.000000 0.000000
# 2 -0.003876 0.010945 -0.007081 0.000000 0.000000 0.000000
# 3 -0.006506 -0.007081 0.028910 0.000000 0.000000 0.000000
# 4 0.000000 0.000000 0.000000 0.031532 0.000000 0.000000
# 5 0.000000 0.000000 0.000000 0.000000 0.034194 0.000000
# 6 0.000000 0.000000 0.000000 0.000000 0.000000 0.040296
#
#
# Mechanical properties :
#
#
# Convention : Reuss Voigt Hill
#
# Bulk Modulus (GPa) = 55.14454 73.02092 64.08273
# Shear Modulus (GPa) = 24.99323 27.75897 26.37610
#
# Velocity S-wave (km/s) = 3.72726 3.92808 3.82898
# Velocity P-wave (km/s) = 7.01251 7.82059 7.42755
#
# Compressibility (1/GPa) = 0.01813416
#
# Stress axis : x y z
#
# Youngs Moduli (GPa) = 75.72642 91.36816 34.58955
#
# Poissons Ratio (x) = 0.35415 0.22505
# Poissons Ratio (y) = 0.29352 0.24492
# Poissons Ratio (z) = 0.49270 0.64697
#
# Static dielectric constant tensor:
#      x y z
#    x 3.467660 0.000000 0.000000 
#    y 0.000000 3.350920 0.000000 
#    z 0.000000 0.000000 3.135860 
# 
# 
# High freq. dielectric constant tensor:
#      x y z
#    x 1.701910 0.000000 0.000000 
#    y 0.000000 1.701700 0.000000 
#    z 0.000000 0.000000 1.680850 
# 
# From -- ./inp_files/8603.got.cif
#   From: 2010.03.12/outbox.cif.g09.slc.cpg/sg63_5_cif.got.tgz:8603.got - 2010.04.10 19:34:48.
