data_PCOD8257900
_publ_section_title
;
Structure prediction by ZEFSAII (Michael W. Deem and Ramdas Pophale) SiO2 
 PCOD8257900
Probable space group: C M C M
;
_chemical_formula_sum "Si O2"
_cell_formula_units_Z 96
_cell_length_a 20.526788
_cell_length_b 14.489748
_cell_length_c 17.682100
_cell_angle_alpha 90.000000
_cell_angle_beta 90.000000
_cell_angle_gamma 90.000000
_cell_volume 5259.151380
_symmetry_space_group_name_H-M "C M C M"
_symmetry_group_IT_number 63
_symmetry_cell_setting 'orthorhombic'
loop_
_space_group_symop_operation_xyz
x,y,z
-x,-y,1/2+z
x,-y,-z
-x,y,1/2-z
-x,-y,-z
x,y,1/2-z
-x,y,z
x,-y,1/2+z
1/2+x,1/2+y,z
1/2-x,1/2-y,1/2+z
1/2+x,1/2-y,-z
1/2-x,1/2+y,1/2-z
1/2-x,1/2-y,-z
1/2+x,1/2+y,1/2-z
1/2-x,1/2+y,z
1/2+x,1/2-y,1/2+z
loop_
_atom_site_type_symbol
_atom_site_label
_atom_site_fract_x
_atom_site_fract_y
_atom_site_fract_z
Si Si1 0.728004 0.186636 0.338406
Si Si2 0.624191 0.696435 0.160304
Si Si3 0.812600 0.501916 0.089124
Si Si4 0.925103 0.608212 0.661712
Si Si5 0.305656 0.608494 0.838600
Si Si6 0.428321 0.495674 0.840022
O O1 0.726390 0.162217 0.250000
O O2 0.801699 0.194372 0.368398
O O3 0.692160 0.282934 0.355816
O O4 0.691345 0.107119 0.383514
O O5 0.622405 0.695339 0.250000
O O6 0.588958 0.788625 0.130754
O O7 0.587188 0.606613 0.128311
O O8 0.881959 0.464168 0.116211
O O9 0.754524 0.439925 0.121109
O O10 0.808967 0.500000 0.000000
O O11 0.906957 0.601727 0.750000
O O12 0.000000 0.583165 0.647094
O O13 0.296435 0.588926 0.750000
O O14 0.373649 0.566833 0.869497
O O15 0.427568 0.494249 0.750000
O O16 0.500000 0.525665 0.869609
#
# Coordination Sequence:
#
# PCOD8257900 Si02
#       6
#    16  16  16  16  16  16
#     4  10  19  34  58  84 107 137 185 233 271 321
#     4   9  15  27  53  84 108 130 169 232 279 311
#     4  12  24  36  54  82 114 150 181 224 277 342
#     4  10  20  36  58  82 108 141 187 237 280 324
#     4  10  19  35  57  78 106 143 184 230 272 322
#     4   9  16  27  49  83 113 134 165 217 278 327
#
# _framework density 18.253895
#
# number of rings (size 3 to 8) (size 9 to 14) (size 15 to 20)
#    0.000    2.000    3.333    2.000    0.000    3.000 
#    0.000    0.833    0.000    3.500    0.000    0.000 
#    0.000    0.000    0.000    0.000    0.000    0.000 
#
# Total GULP energy -595202.534776 kJ/mol
# GULP energy per Si atom -12400.052808 kJ/mol
# Density = 1.821235 g / cm^3
# Si number density = 18.253895 Si / 1000 Ang^3
#
#
#
# Elastic Constant Matrix: (Units=GPa)
#
#
# Indices 1 2 3 4 5 6 
#
# 1 138.0210 73.2135 38.2877 0.0000 0.0000 0.0000
# 2 73.2135 133.2360 50.3822 0.0000 0.0000 0.0000
# 3 38.2877 50.3822 56.0462 0.0000 0.0000 0.0000
# 4 0.0000 0.0000 0.0000 -88.2376 0.0000 0.0000
# 5 0.0000 0.0000 0.0000 0.0000 9.8796 0.0000
# 6 0.0000 0.0000 0.0000 0.0000 0.0000 31.7737
#
#
#
# Elastic Compliance Matrix: (Units=1/GPa)
#
#
# Indices 1 2 3 4 5 6 
#
# 1 0.010554 -0.004656 -0.003025 0.000000 0.000000 0.000000
# 2 -0.004656 0.013424 -0.008887 0.000000 0.000000 0.000000
# 3 -0.003025 -0.008887 0.027898 0.000000 0.000000 0.000000
# 4 0.000000 0.000000 0.000000 -0.011333 0.000000 0.000000
# 5 0.000000 0.000000 0.000000 0.000000 0.101219 0.000000
# 6 0.000000 0.000000 0.000000 0.000000 0.000000 0.031473
#
#
# Mechanical properties :
#
#
# Convention : Reuss Voigt Hill
#
# Bulk Modulus (GPa) = 53.35908 72.34111 62.85010
# Shear Modulus (GPa) = 23.51646 1.71112 12.61379
#
# Velocity S-wave (km/s) = 3.59318 0.96924 2.63158
# Velocity P-wave (km/s) = 6.81980 6.40071 6.61358
#
# Compressibility (1/GPa) = 0.01874095
#
# Stress axis : x y z
#
# Youngs Moduli (GPa) = 94.75133 74.49104 35.84498
#
# Poissons Ratio (x) = 0.34680 0.10842
# Poissons Ratio (y) = 0.44113 0.31857
# Poissons Ratio (z) = 0.28660 0.66202
#
# Static dielectric constant tensor:
#      x y z
#    x 3.529790 0.000000 0.000000 
#    y 0.000000 3.546300 0.000000 
#    z 0.000000 0.000000 2.922870 
# 
# 
# High freq. dielectric constant tensor:
#      x y z
#    x 1.711930 0.000000 0.000000 
#    y 0.000000 1.717570 0.000000 
#    z 0.000000 0.000000 1.656020 
# 
# From -- ./inp_files/35330.got.cif
#   From: 2010.03.12/outbox.cif.g09.slc.cpg/sg63_18_cif.got.tgz:35330.got - 2010.04.10 19:34:48.
