data_PCOD8257407
_publ_section_title
;
Structure prediction by ZEFSAII (Michael W. Deem and Ramdas Pophale) SiO2 
 PCOD8257407
Probable space group: C M C M
;
_chemical_formula_sum "Si O2"
_cell_formula_units_Z 104
_cell_length_a 7.714875
_cell_length_b 32.105393
_cell_length_c 21.640669
_cell_angle_alpha 90.000000
_cell_angle_beta 90.000000
_cell_angle_gamma 90.000000
_cell_volume 5360.157694
_symmetry_space_group_name_H-M "C M C M"
_symmetry_group_IT_number 63
_symmetry_cell_setting 'orthorhombic'
loop_
_space_group_symop_operation_xyz
x,y,z
-x,-y,1/2+z
x,-y,-z
-x,y,1/2-z
-x,-y,-z
x,y,1/2-z
-x,y,z
x,-y,1/2+z
1/2+x,1/2+y,z
1/2-x,1/2-y,1/2+z
1/2+x,1/2-y,-z
1/2-x,1/2+y,1/2-z
1/2-x,1/2-y,-z
1/2+x,1/2+y,1/2-z
1/2-x,1/2+y,z
1/2+x,1/2-y,1/2+z
loop_
_atom_site_type_symbol
_atom_site_label
_atom_site_fract_x
_atom_site_fract_y
_atom_site_fract_z
Si Si1 0.000000 0.832399 0.584114
Si Si2 0.806791 0.806116 0.319563
Si Si3 0.701901 0.113393 0.886989
Si Si4 0.000000 0.899319 0.814183
Si Si5 0.202755 0.532535 0.819393
Si Si6 0.301670 0.879664 0.528719
Si Si7 0.197175 0.444478 0.865528
Si Si8 0.500000 0.744091 0.177603
O O1 0.176491 0.840117 0.544826
O O2 0.000000 0.869779 0.629833
O O3 0.000000 0.790969 0.624746
O O4 0.768142 0.821850 0.250000
O O5 0.796306 0.844924 0.365260
O O6 0.671218 0.770402 0.337172
O O7 0.000000 0.786897 0.324831
O O8 0.500000 0.118791 0.872570
O O9 0.782862 0.073887 0.850781
O O10 0.736934 0.106533 0.959188
O O11 0.174169 0.926557 0.814405
O O12 0.000000 0.874061 0.750000
O O13 0.280631 0.525861 0.750000
O O14 0.238742 0.493897 0.866037
O O15 0.000000 0.539444 0.813229
O O16 0.500000 0.864047 0.537314
O O17 0.268418 0.921657 0.568856
O O18 0.000000 0.436694 0.843544
O O19 0.500000 0.728596 0.250000
#
# Coordination Sequence:
#
# PCOD8257407 Si02
#       8
#     8  16  16   8  16  16  16   8
#     4  10  21  38  59  82 108 143 181 228 278 326
#     4  10  21  37  59  85 112 143 178 221 280 340
#     4  10  19  34  57  80 111 150 190 229 274 325
#     4  10  19  32  53  79 106 140 184 225 274 334
#     4   9  17  29  51  81 110 145 190 236 277 324
#     4   9  20  36  56  79 110 152 190 227 267 328
#     4   9  18  34  51  74 111 149 184 228 277 316
#     4  10  21  40  64  87 113 140 175 227 282 339
#
# _framework density 19.402414
#
# number of rings (size 3 to 8) (size 9 to 14) (size 15 to 20)
#    0.000    2.462    0.769    1.154    1.077    2.769 
#    1.385    3.846    0.000    5.538    0.000    0.000 
#    0.000    0.000    0.000    0.000    0.000    0.000 
#
# Total GULP energy -644300.041522 kJ/mol
# GULP energy per Si atom -12390.385414 kJ/mol
# Density = 1.935825 g / cm^3
# Si number density = 19.402414 Si / 1000 Ang^3
#
#
#
# Elastic Constant Matrix: (Units=GPa)
#
#
# Indices 1 2 3 4 5 6 
#
# 1 102.9245 46.9005 39.7711 0.0000 0.0000 0.0000
# 2 46.9005 109.2227 49.8558 0.0000 0.0000 0.0000
# 3 39.7711 49.8558 101.9923 0.0000 0.0000 0.0000
# 4 0.0000 0.0000 0.0000 33.9662 0.0000 0.0000
# 5 0.0000 0.0000 0.0000 0.0000 8.5734 0.0000
# 6 0.0000 0.0000 0.0000 0.0000 0.0000 19.1087
#
#
#
# Elastic Compliance Matrix: (Units=1/GPa)
#
#
# Indices 1 2 3 4 5 6 
#
# 1 0.012734 -0.004121 -0.002951 0.000000 0.000000 0.000000
# 2 -0.004121 0.013119 -0.004806 0.000000 0.000000 0.000000
# 3 -0.002951 -0.004806 0.013305 0.000000 0.000000 0.000000
# 4 0.000000 0.000000 0.000000 0.029441 0.000000 0.000000
# 5 0.000000 0.000000 0.000000 0.000000 0.116640 0.000000
# 6 0.000000 0.000000 0.000000 0.000000 0.000000 0.052332
#
#
# Mechanical properties :
#
#
# Convention : Reuss Voigt Hill
#
# Bulk Modulus (GPa) = 64.92800 65.24383 65.08591
# Shear Modulus (GPa) = 18.76448 24.17044 21.46746
#
# Velocity S-wave (km/s) = 3.11323 3.53334 3.32992
# Velocity P-wave (km/s) = 6.81612 7.09547 6.95719
#
# Compressibility (1/GPa) = 0.01540168
#
# Stress axis : x y z
#
# Youngs Moduli (GPa) = 78.52965 76.22640 75.16194
#
# Poissons Ratio (x) = 0.31413 0.22181
# Poissons Ratio (y) = 0.32362 0.36121
# Poissons Ratio (z) = 0.23175 0.36633
#
# Static dielectric constant tensor:
#      x y z
#    x 3.038200 0.000000 0.000000 
#    y 0.000000 3.430000 0.000000 
#    z 0.000000 0.000000 3.486290 
# 
# 
# High freq. dielectric constant tensor:
#      x y z
#    x 1.759930 0.000000 0.000000 
#    y 0.000000 1.733500 0.000000 
#    z 0.000000 0.000000 1.754290 
# 
# From -- ./inp_files/51551.got.cif
#   From: 2010.03.12/outbox.cif.g09.slc.cpg/sg63_26_cif.got.tgz:51551.got - 2010.04.10 19:34:48.
