data_PCOD8257928
_publ_section_title
;
Structure prediction by ZEFSAII (Michael W. Deem and Ramdas Pophale) SiO2 
 PCOD8257928
Probable space group: C M C M
;
_chemical_formula_sum "Si O2"
_cell_formula_units_Z 80
_cell_length_a 18.980082
_cell_length_b 12.399627
_cell_length_c 18.700572
_cell_angle_alpha 90.000000
_cell_angle_beta 90.000000
_cell_angle_gamma 90.000000
_cell_volume 4401.103644
_symmetry_space_group_name_H-M "C M C M"
_symmetry_group_IT_number 63
_symmetry_cell_setting 'orthorhombic'
loop_
_space_group_symop_operation_xyz
x,y,z
-x,-y,1/2+z
x,-y,-z
-x,y,1/2-z
-x,-y,-z
x,y,1/2-z
-x,y,z
x,-y,1/2+z
1/2+x,1/2+y,z
1/2-x,1/2-y,1/2+z
1/2+x,1/2-y,-z
1/2-x,1/2+y,1/2-z
1/2-x,1/2-y,-z
1/2+x,1/2+y,1/2-z
1/2-x,1/2+y,z
1/2+x,1/2-y,1/2+z
loop_
_atom_site_type_symbol
_atom_site_label
_atom_site_fract_x
_atom_site_fract_y
_atom_site_fract_z
Si Si1 0.278441 0.896509 0.952979
Si Si2 0.500000 0.743828 0.666339
Si Si3 0.000000 0.124206 0.976728
Si Si4 0.920539 0.345697 0.330785
Si Si5 0.141038 0.779074 0.541430
Si Si6 0.619116 0.915587 0.831288
O O1 0.194744 0.877816 0.945844
O O2 0.308186 0.913007 0.873979
O O3 0.321570 0.797821 0.985176
O O4 0.293843 0.000000 0.000000
O O5 0.500000 0.704239 0.750000
O O6 0.500000 0.643085 0.610097
O O7 0.431881 0.816380 0.649668
O O8 0.068127 0.179911 0.009937
O O9 0.000000 0.000000 0.000000
O O10 0.893920 0.324244 0.250000
O O11 0.869657 0.281422 0.383583
O O12 0.920909 0.472910 0.347924
O O13 0.000000 0.303393 0.340586
O O14 0.642759 0.908555 0.750000
#
# Coordination Sequence:
#
# PCOD8257928 Si02
#       6
#    16   8   8  16  16  16
#     4  11  22  37  57  85 118 148 197 245 285 344
#     4  10  20  37  61  91 119 147 190 238 294 354
#     4  12  24  41  61  83 115 155 199 243 287 349
#     4  10  19  34  59  91 120 148 188 240 294 351
#     4  11  23  37  58  82 113 160 196 237 291 342
#     4  10  19  34  60  91 121 147 182 241 300 348
#
# _framework density 18.177257999999998
#
# number of rings (size 3 to 8) (size 9 to 14) (size 15 to 20)
#    0.000    1.400    6.000    0.600    0.000    0.800 
#    0.000    4.000    0.000    3.600    0.000    0.000 
#    0.000    0.000    0.000    0.000    0.000    0.000 
#
# Total GULP energy -495946.282884 kJ/mol
# GULP energy per Si atom -12398.657072 kJ/mol
# Density = 1.813589 g / cm^3
# Si number density = 18.177258 Si / 1000 Ang^3
#
#
#
# Elastic Constant Matrix: (Units=GPa)
#
#
# Indices 1 2 3 4 5 6 
#
# 1 120.1763 30.3490 52.3999 0.0000 0.0000 0.0000
# 2 30.3490 76.3493 45.0381 0.0000 0.0000 0.0000
# 3 52.3999 45.0381 121.9376 0.0000 0.0000 0.0000
# 4 0.0000 0.0000 0.0000 28.1985 0.0000 0.0000
# 5 0.0000 0.0000 0.0000 0.0000 20.3958 0.0000
# 6 0.0000 0.0000 0.0000 0.0000 0.0000 36.9885
#
#
#
# Elastic Compliance Matrix: (Units=1/GPa)
#
#
# Indices 1 2 3 4 5 6 
#
# 1 0.010457 -0.001925 -0.003782 0.000000 0.000000 0.000000
# 2 -0.001925 0.017101 -0.005489 0.000000 0.000000 0.000000
# 3 -0.003782 -0.005489 0.011854 0.000000 0.000000 0.000000
# 4 0.000000 0.000000 0.000000 0.035463 0.000000 0.000000
# 5 0.000000 0.000000 0.000000 0.000000 0.049030 0.000000
# 6 0.000000 0.000000 0.000000 0.000000 0.000000 0.027035
#
#
# Mechanical properties :
#
#
# Convention : Reuss Voigt Hill
#
# Bulk Modulus (GPa) = 58.76154 63.78192 61.27173
# Shear Modulus (GPa) = 27.93221 29.82831 28.88026
#
# Velocity S-wave (km/s) = 3.92427 4.05528 3.99032
# Velocity P-wave (km/s) = 7.27533 7.55593 7.41696
#
# Compressibility (1/GPa) = 0.01701793
#
# Stress axis : x y z
#
# Youngs Moduli (GPa) = 95.63414 58.47640 84.36226
#
# Poissons Ratio (x) = 0.11259 0.31909
# Poissons Ratio (y) = 0.18413 0.46306
# Poissons Ratio (z) = 0.36172 0.32097
#
# Static dielectric constant tensor:
#      x y z
#    x 3.437150 0.000000 0.000000 
#    y 0.000000 3.272490 0.000000 
#    z 0.000000 0.000000 3.416600 
# 
# 
# High freq. dielectric constant tensor:
#      x y z
#    x 1.705700 0.000000 0.000000 
#    y 0.000000 1.690350 0.000000 
#    z 0.000000 0.000000 1.711920 
# 
# From -- ./inp_files/46841.got.cif
#   From: 2010.03.12/outbox.cif.g09.slc.cpg/sg63_24_cif.got.tgz:46841.got - 2010.04.10 19:34:48.
