data_PCOD8257185
_publ_section_title
;
Structure prediction by ZEFSAII (Michael W. Deem and Ramdas Pophale) SiO2 
 PCOD8257185
Probable space group: C M C M
;
_chemical_formula_sum "Si O2"
_cell_formula_units_Z 104
_cell_length_a 21.728325
_cell_length_b 29.829885
_cell_length_c 9.310596
_cell_angle_alpha 90.000000
_cell_angle_beta 90.000000
_cell_angle_gamma 90.000000
_cell_volume 6034.694789
_symmetry_space_group_name_H-M "C M C M"
_symmetry_group_IT_number 63
_symmetry_cell_setting 'orthorhombic'
loop_
_space_group_symop_operation_xyz
x,y,z
-x,-y,1/2+z
x,-y,-z
-x,y,1/2-z
-x,-y,-z
x,y,1/2-z
-x,y,z
x,-y,1/2+z
1/2+x,1/2+y,z
1/2-x,1/2-y,1/2+z
1/2+x,1/2-y,-z
1/2-x,1/2+y,1/2-z
1/2-x,1/2-y,-z
1/2+x,1/2+y,1/2-z
1/2-x,1/2+y,z
1/2+x,1/2-y,1/2+z
loop_
_atom_site_type_symbol
_atom_site_label
_atom_site_fract_x
_atom_site_fract_y
_atom_site_fract_z
Si Si1 0.073142 0.218752 0.090919
Si Si2 0.929968 0.302188 0.917431
Si Si3 0.144646 0.044352 0.916382
Si Si4 0.211415 0.455548 0.083370
Si Si5 0.927976 0.118815 0.416887
Si Si6 0.380096 0.897470 0.918027
Si Si7 0.000000 0.546229 0.082771
O O1 0.098941 0.227614 0.250000
O O2 0.093109 0.169165 0.039434
O O3 0.000000 0.220081 0.091309
O O4 0.099696 0.258107 0.990466
O O5 0.928595 0.293112 0.750000
O O6 0.890320 0.345600 0.958287
O O7 0.000000 0.310305 0.969337
O O8 0.127358 0.038348 0.750000
O O9 0.216677 0.053053 0.937684
O O10 0.109180 0.086279 0.980435
O O11 0.123325 0.000000 0.000000
O O12 0.193547 0.460924 0.250000
O O13 0.189721 0.500000 0.000000
O O14 0.176848 0.413480 0.013820
O O15 0.912428 0.109572 0.250000
O O16 0.000000 0.111674 0.444952
O O17 0.364714 0.903180 0.750000
O O18 0.440456 0.925300 0.960708
O O19 0.000000 0.535224 0.250000
O O20 0.000000 0.500000 0.000000
#
# Coordination Sequence:
#
# PCOD8257185 Si02
#       7
#    16  16  16  16  16  16   8
#     4   8  15  28  46  70 100 131 160 194 237 287
#     4   9  16  28  46  69  98 130 163 201 246 293
#     4  10  21  36  54  75 100 130 165 203 241 287
#     4  10  21  36  52  71  94 125 167 209 246 290
#     4   9  18  33  53  78 107 134 160 194 240 290
#     4  10  19  32  49  69  97 130 164 206 251 295
#     4  10  20  32  44  64  96 128 160 202 251 298
#
# _framework density 17.23368
#
# number of rings (size 3 to 8) (size 9 to 14) (size 15 to 20)
#    0.000    2.615    0.769    2.308    0.000    5.538 
#    0.000    1.538    0.000    0.923    0.000    0.000 
#    0.000    0.000    0.000    0.000    0.000    0.000 
#
# Total GULP energy -644762.017660 kJ/mol
# GULP energy per Si atom -12399.269570 kJ/mol
# Density = 1.719446 g / cm^3
# Si number density = 17.233680 Si / 1000 Ang^3
#
#
#
# Elastic Constant Matrix: (Units=GPa)
#
#
# Indices 1 2 3 4 5 6 
#
# 1 42.0897 48.4416 42.2819 0.0000 0.0000 0.0000
# 2 48.4416 161.2917 84.8420 0.0000 0.0000 0.0000
# 3 42.2819 84.8420 97.8519 0.0000 0.0000 0.0000
# 4 0.0000 0.0000 0.0000 38.8968 0.0000 0.0000
# 5 0.0000 0.0000 0.0000 0.0000 27.2658 0.0000
# 6 0.0000 0.0000 0.0000 0.0000 0.0000 17.1364
#
#
#
# Elastic Compliance Matrix: (Units=1/GPa)
#
#
# Indices 1 2 3 4 5 6 
#
# 1 0.044969 -0.006039 -0.014195 0.000000 0.000000 0.000000
# 2 -0.006039 0.012210 -0.007977 0.000000 0.000000 0.000000
# 3 -0.014195 -0.007977 0.023269 0.000000 0.000000 0.000000
# 4 0.000000 0.000000 0.000000 0.025709 0.000000 0.000000
# 5 0.000000 0.000000 0.000000 0.000000 0.036676 0.000000
# 6 0.000000 0.000000 0.000000 0.000000 0.000000 0.058355
#
#
# Mechanical properties :
#
#
# Convention : Reuss Voigt Hill
#
# Bulk Modulus (GPa) = 41.62102 72.48491 57.05296
# Shear Modulus (GPa) = 18.82398 25.03768 21.93083
#
# Velocity S-wave (km/s) = 3.30855 3.81574 3.57116
# Velocity P-wave (km/s) = 6.22886 7.84631 7.08390
#
# Compressibility (1/GPa) = 0.02402632
#
# Stress axis : x y z
#
# Youngs Moduli (GPa) = 22.23759 81.90291 42.97472
#
# Poissons Ratio (x) = 0.49460 0.61003
# Poissons Ratio (y) = 0.13429 0.34280
# Poissons Ratio (z) = 0.31566 0.65333
#
# Static dielectric constant tensor:
#      x y z
#    x 2.933290 0.000000 0.000000 
#    y 0.000000 3.413150 0.000000 
#    z 0.000000 0.000000 3.347400 
# 
# 
# High freq. dielectric constant tensor:
#      x y z
#    x 1.632480 0.000000 0.000000 
#    y 0.000000 1.675540 0.000000 
#    z 0.000000 0.000000 1.667260 
# 
# From -- ./inp_files/9139.got.cif
#   From: 2010.03.12/outbox.cif.g09.slc.cpg/sg63_5_cif.got.tgz:9139.got - 2010.04.10 19:34:48.
