data_PCOD8257780
_publ_section_title
;
Structure prediction by ZEFSAII (Michael W. Deem and Ramdas Pophale) SiO2 
 PCOD8257780
Probable space group: C M C M
;
_chemical_formula_sum "Si O2"
_cell_formula_units_Z 80
_cell_length_a 27.631240
_cell_length_b 18.220454
_cell_length_c 8.563915
_cell_angle_alpha 90.000000
_cell_angle_beta 90.000000
_cell_angle_gamma 90.000000
_cell_volume 4311.535013
_symmetry_space_group_name_H-M "C M C M"
_symmetry_group_IT_number 63
_symmetry_cell_setting 'orthorhombic'
loop_
_space_group_symop_operation_xyz
x,y,z
-x,-y,1/2+z
x,-y,-z
-x,y,1/2-z
-x,-y,-z
x,y,1/2-z
-x,y,z
x,-y,1/2+z
1/2+x,1/2+y,z
1/2-x,1/2-y,1/2+z
1/2+x,1/2-y,-z
1/2-x,1/2+y,1/2-z
1/2-x,1/2-y,-z
1/2+x,1/2+y,1/2-z
1/2-x,1/2+y,z
1/2+x,1/2-y,1/2+z
loop_
_atom_site_type_symbol
_atom_site_label
_atom_site_fract_x
_atom_site_fract_y
_atom_site_fract_z
Si Si1 0.291208 0.921728 0.066302
Si Si2 0.650649 0.214879 0.565624
Si Si3 0.094439 0.074782 0.566475
Si Si4 0.446363 0.716156 0.431859
Si Si5 0.308253 0.368444 0.566521
O O1 0.296407 0.925267 0.250000
O O2 0.327100 0.859627 0.993620
O O3 0.236573 0.901979 0.024755
O O4 0.307110 0.000000 0.000000
O O5 0.653060 0.209551 0.750000
O O6 0.594666 0.225904 0.511439
O O7 0.682814 0.284451 0.511275
O O8 0.103219 0.070229 0.750000
O O9 0.058127 0.141052 0.527953
O O10 0.145053 0.084442 0.476938
O O11 0.070897 0.000000 0.500000
O O12 0.437827 0.697548 0.250000
O O13 0.500000 0.749425 0.460791
O O14 0.298243 0.374138 0.750000
#
# Coordination Sequence:
#
# PCOD8257780 Si02
#       5
#    16  16  16  16  16
#     4  11  21  33  49  73 104 135 167 202 245 294
#     4   8  17  33  53  75  99 128 164 205 246 294
#     4  11  21  33  49  72 104 138 170 203 242 288
#     4   9  18  35  57  77  96 123 163 210 257 300
#     4  10  19  34  53  74 100 132 171 207 244 289
#
# _framework density 18.554876
#
# number of rings (size 3 to 8) (size 9 to 14) (size 15 to 20)
#    0.000    2.200    0.000    5.400    0.000    0.800 
#    0.000    9.000    0.000    0.600    0.000    0.000 
#    0.000    0.000    0.000    0.000    0.000    0.200 
#
# Total GULP energy -495927.912968 kJ/mol
# GULP energy per Si atom -12398.197824 kJ/mol
# Density = 1.851264 g / cm^3
# Si number density = 18.554876 Si / 1000 Ang^3
#
#
#
# Elastic Constant Matrix: (Units=GPa)
#
#
# Indices 1 2 3 4 5 6 
#
# 1 79.4202 33.0805 6.8801 0.0000 0.0000 0.0000
# 2 33.0805 100.5776 22.6958 0.0000 0.0000 0.0000
# 3 6.8801 22.6958 50.1823 0.0000 0.0000 0.0000
# 4 0.0000 0.0000 0.0000 22.2148 0.0000 0.0000
# 5 0.0000 0.0000 0.0000 0.0000 18.2245 0.0000
# 6 0.0000 0.0000 0.0000 0.0000 0.0000 10.5103
#
#
#
# Elastic Compliance Matrix: (Units=1/GPa)
#
#
# Indices 1 2 3 4 5 6 
#
# 1 0.014592 -0.004842 0.000189 0.000000 0.000000 0.000000
# 2 -0.004842 0.012679 -0.005071 0.000000 0.000000 0.000000
# 3 0.000189 -0.005071 0.022195 0.000000 0.000000 0.000000
# 4 0.000000 0.000000 0.000000 0.045015 0.000000 0.000000
# 5 0.000000 0.000000 0.000000 0.000000 0.054871 0.000000
# 6 0.000000 0.000000 0.000000 0.000000 0.000000 0.095145
#
#
# Mechanical properties :
#
#
# Convention : Reuss Voigt Hill
#
# Bulk Modulus (GPa) = 33.31210 39.49921 36.40566
# Shear Modulus (GPa) = 18.25150 21.35814 19.80482
#
# Velocity S-wave (km/s) = 3.13972 3.39644 3.27060
# Velocity P-wave (km/s) = 5.57997 6.05929 5.82456
#
# Compressibility (1/GPa) = 0.03001913
#
# Stress axis : x y z
#
# Youngs Moduli (GPa) = 68.53230 78.86841 45.05585
#
# Poissons Ratio (x) = 0.38188 -0.00853
# Poissons Ratio (y) = 0.33183 0.22846
# Poissons Ratio (z) = -0.01298 0.39991
#
# Static dielectric constant tensor:
#      x y z
#    x 3.478680 0.000000 0.000000 
#    y 0.000000 3.722480 0.000000 
#    z 0.000000 0.000000 3.289110 
# 
# 
# High freq. dielectric constant tensor:
#      x y z
#    x 1.711640 0.000000 0.000000 
#    y 0.000000 1.709680 0.000000 
#    z 0.000000 0.000000 1.709470 
# 
# From -- ./inp_files/11975.got.cif
#   From: 2010.03.12/outbox.cif.g09.slc.cpg/sg63_6_cif.got.tgz:11975.got - 2010.04.10 19:34:48.
