data_PCOD8257806
_publ_section_title
;
Structure prediction by ZEFSAII (Michael W. Deem and Ramdas Pophale) SiO2 
 PCOD8257806
Probable space group: C M C M
;
_chemical_formula_sum "Si O2"
_cell_formula_units_Z 96
_cell_length_a 11.098138
_cell_length_b 24.593444
_cell_length_c 19.020577
_cell_angle_alpha 90.000000
_cell_angle_beta 90.000000
_cell_angle_gamma 90.000000
_cell_volume 5191.503589
_symmetry_space_group_name_H-M "C M C M"
_symmetry_group_IT_number 63
_symmetry_cell_setting 'orthorhombic'
loop_
_space_group_symop_operation_xyz
x,y,z
-x,-y,1/2+z
x,-y,-z
-x,y,1/2-z
-x,-y,-z
x,y,1/2-z
-x,y,z
x,-y,1/2+z
1/2+x,1/2+y,z
1/2-x,1/2-y,1/2+z
1/2+x,1/2-y,-z
1/2-x,1/2+y,1/2-z
1/2-x,1/2-y,-z
1/2+x,1/2+y,1/2-z
1/2-x,1/2+y,z
1/2+x,1/2-y,1/2+z
loop_
_atom_site_type_symbol
_atom_site_label
_atom_site_fract_x
_atom_site_fract_y
_atom_site_fract_z
Si Si1 0.258232 0.843699 0.105733
Si Si2 0.500000 0.966140 0.329485
Si Si3 0.211747 0.484163 0.581341
Si Si4 0.137638 0.054418 0.670383
Si Si5 0.638031 0.128012 0.458655
Si Si6 0.000000 0.337351 0.327981
Si Si7 0.636021 0.753130 0.551731
O O1 0.215923 0.891824 0.156164
O O2 0.381536 0.816031 0.132431
O O3 0.157919 0.795492 0.107094
O O4 0.281030 0.868328 0.028566
O O5 0.500000 0.989684 0.250000
O O6 0.615558 0.985355 0.371211
O O7 0.500000 0.901934 0.327803
O O8 0.198238 0.500000 0.500000
O O9 0.336565 0.505205 0.615352
O O10 0.196411 0.419165 0.589392
O O11 0.165722 0.035192 0.750000
O O12 0.000000 0.070973 0.660486
O O13 0.500000 0.112106 0.478210
O O14 0.640843 0.185519 0.416449
O O15 0.000000 0.312959 0.250000
O O16 0.500000 0.745366 0.518831
O O17 0.750000 0.750000 0.500000
#
# Coordination Sequence:
#
# PCOD8257806 Si02
#       7
#    16   8  16  16  16   8  16
#     4  11  19  35  57  83 115 146 190 239 293 350
#     4  11  21  33  55  87 117 147 183 227 293 354
#     4  12  21  34  57  86 116 145 185 239 289 344
#     4  11  24  39  55  78 114 156 194 239 297 355
#     4  10  19  34  54  86 117 144 180 235 291 338
#     4  11  20  31  55  87 113 145 192 243 291 345
#     4   9  20  35  56  83 116 151 188 235 292 353
#
# _framework density 18.491752999999999
#
# number of rings (size 3 to 8) (size 9 to 14) (size 15 to 20)
#    0.000    1.333    5.000    1.750    1.167    0.333 
#    0.000    0.833    0.000    4.000    0.000    0.000 
#    0.000    0.000    0.000    0.000    0.000    0.000 
#
# Total GULP energy -594813.098209 kJ/mol
# GULP energy per Si atom -12391.939546 kJ/mol
# Density = 1.844966 g / cm^3
# Si number density = 18.491753 Si / 1000 Ang^3
#
#
#
# Elastic Constant Matrix: (Units=GPa)
#
#
# Indices 1 2 3 4 5 6 
#
# 1 112.9720 39.5026 30.4531 0.0000 0.0000 0.0000
# 2 39.5026 105.7626 27.7376 0.0000 0.0000 0.0000
# 3 30.4531 27.7376 85.4592 0.0000 0.0000 0.0000
# 4 0.0000 0.0000 0.0000 14.0372 0.0000 0.0000
# 5 0.0000 0.0000 0.0000 0.0000 20.6566 0.0000
# 6 0.0000 0.0000 0.0000 0.0000 0.0000 29.0954
#
#
#
# Elastic Compliance Matrix: (Units=1/GPa)
#
#
# Indices 1 2 3 4 5 6 
#
# 1 0.010746 -0.003290 -0.002762 0.000000 0.000000 0.000000
# 2 -0.003290 0.011342 -0.002509 0.000000 0.000000 0.000000
# 3 -0.002762 -0.002509 0.013500 0.000000 0.000000 0.000000
# 4 0.000000 0.000000 0.000000 0.071239 0.000000 0.000000
# 5 0.000000 0.000000 0.000000 0.000000 0.048411 0.000000
# 6 0.000000 0.000000 0.000000 0.000000 0.000000 0.034370
#
#
# Mechanical properties :
#
#
# Convention : Reuss Voigt Hill
#
# Bulk Modulus (GPa) = 54.14880 55.50894 54.82887
# Shear Modulus (GPa) = 23.48693 26.52454 25.00573
#
# Velocity S-wave (km/s) = 3.56775 3.79145 3.68130
# Velocity P-wave (km/s) = 6.80574 7.01785 6.91261
#
# Compressibility (1/GPa) = 0.01846763
#
# Stress axis : x y z
#
# Youngs Moduli (GPa) = 93.05386 88.16940 74.07404
#
# Poissons Ratio (x) = 0.29003 0.20458
# Poissons Ratio (y) = 0.30610 0.18585
# Poissons Ratio (z) = 0.25699 0.22122
#
# Static dielectric constant tensor:
#      x y z
#    x 3.850270 0.000000 0.000000 
#    y 0.000000 3.812440 0.000000 
#    z 0.000000 0.000000 3.298070 
# 
# 
# High freq. dielectric constant tensor:
#      x y z
#    x 1.729240 0.000000 0.000000 
#    y 0.000000 1.713950 0.000000 
#    z 0.000000 0.000000 1.685450 
# 
# From -- ./inp_files/42735.got.cif
#   From: 2010.03.12/outbox.cif.g09.slc.cpg/sg63_22_cif.got.tgz:42735.got - 2010.04.10 19:34:48.
