data_PCOD8257747
_publ_section_title
;
Structure prediction by ZEFSAII (Michael W. Deem and Ramdas Pophale) SiO2 
 PCOD8257747
Probable space group: C M C M
;
_chemical_formula_sum "Si O2"
_cell_formula_units_Z 72
_cell_length_a 10.362680
_cell_length_b 24.165422
_cell_length_c 14.751429
_cell_angle_alpha 90.000000
_cell_angle_beta 90.000000
_cell_angle_gamma 90.000000
_cell_volume 3694.031243
_symmetry_space_group_name_H-M "C M C M"
_symmetry_group_IT_number 63
_symmetry_cell_setting 'orthorhombic'
loop_
_space_group_symop_operation_xyz
x,y,z
-x,-y,1/2+z
x,-y,-z
-x,y,1/2-z
-x,-y,-z
x,y,1/2-z
-x,y,z
x,-y,1/2+z
1/2+x,1/2+y,z
1/2-x,1/2-y,1/2+z
1/2+x,1/2-y,-z
1/2-x,1/2+y,1/2-z
1/2-x,1/2-y,-z
1/2+x,1/2+y,1/2-z
1/2-x,1/2+y,z
1/2+x,1/2-y,1/2+z
loop_
_atom_site_type_symbol
_atom_site_label
_atom_site_fract_x
_atom_site_fract_y
_atom_site_fract_z
Si Si1 0.500000 0.125853 0.250000
Si Si2 0.239795 0.150592 0.443828
Si Si3 0.791933 0.002622 0.250000
Si Si4 0.000000 0.830153 0.426026
Si Si5 0.500000 0.796812 0.920258
Si Si6 0.711255 0.622539 0.250000
Si Si7 0.859551 0.535954 0.413864
Si Si8 0.500000 0.408198 0.250000
O O1 0.500000 0.167754 0.331828
O O2 0.359530 0.094833 0.250000
O O3 0.365556 0.187356 0.472462
O O4 0.190297 0.160987 0.338929
O O5 0.270488 0.085948 0.445618
O O6 0.126765 0.161347 0.513890
O O7 0.866179 0.063618 0.250000
O O8 0.707933 0.996850 0.159324
O O9 0.879583 0.948811 0.250000
O O10 0.000000 0.767179 0.393511
O O11 0.000000 0.870133 0.339478
O O12 0.889373 0.500000 0.500000
O O13 0.000000 0.558382 0.376824
#
# Coordination Sequence:
#
# PCOD8257747 Si02
#       8
#     4  16   8   8   8   8  16   4
#     4   8  15  32  60  88 114 140 187 254 290 340
#     4  10  20  37  60  91 117 147 193 249 295 345
#     4  10  21  35  56  76 110 152 188 226 274 353
#     4  12  25  38  59  78 118 168 199 236 292 344
#     4  10  19  38  61  87 112 151 205 250 286 338
#     4   8  18  31  59  86 113 138 182 240 305 337
#     4  10  19  33  57  88 116 147 186 237 293 345
#     4  12  27  44  50  76 126 168 201 218 280 360
#
# _framework density 19.490901999999998
#
# number of rings (size 3 to 8) (size 9 to 14) (size 15 to 20)
#    0.000    2.000    1.111    2.667    4.667    4.000 
#    0.000    5.556    0.000    1.333    0.000    0.000 
#    0.000    0.000    0.000    0.000    0.000    0.000 
#
# Total GULP energy -446023.192796 kJ/mol
# GULP energy per Si atom -12389.533133 kJ/mol
# Density = 1.944654 g / cm^3
# Si number density = 19.490902 Si / 1000 Ang^3
#
#
#
# Elastic Constant Matrix: (Units=GPa)
#
#
# Indices 1 2 3 4 5 6 
#
# 1 125.9329 53.7270 55.9577 0.0000 0.0000 0.0000
# 2 53.7270 109.5709 39.7218 0.0000 0.0000 0.0000
# 3 55.9577 39.7218 98.3918 0.0000 0.0000 0.0000
# 4 0.0000 0.0000 0.0000 -69.4165 0.0000 0.0000
# 5 0.0000 0.0000 0.0000 0.0000 40.4757 0.0000
# 6 0.0000 0.0000 0.0000 0.0000 0.0000 26.6010
#
#
#
# Elastic Compliance Matrix: (Units=1/GPa)
#
#
# Indices 1 2 3 4 5 6 
#
# 1 0.011941 -0.003975 -0.005186 0.000000 0.000000 0.000000
# 2 -0.003975 0.012014 -0.002590 0.000000 0.000000 0.000000
# 3 -0.005186 -0.002590 0.014159 0.000000 0.000000 0.000000
# 4 0.000000 0.000000 0.000000 -0.014406 0.000000 0.000000
# 5 0.000000 0.000000 0.000000 0.000000 0.024706 0.000000
# 6 0.000000 0.000000 0.000000 0.000000 0.000000 0.037593
#
#
# Mechanical properties :
#
#
# Convention : Reuss Voigt Hill
#
# Bulk Modulus (GPa) = 68.43743 70.30095 69.36919
# Shear Modulus (GPa) = 43.71388 11.83131 27.77260
#
# Velocity S-wave (km/s) = 4.74094 2.46644 3.77888
# Velocity P-wave (km/s) = 8.07202 6.65267 7.39647
#
# Compressibility (1/GPa) = 0.01461189
#
# Stress axis : x y z
#
# Youngs Moduli (GPa) = 83.74369 83.23323 70.62854
#
# Poissons Ratio (x) = 0.33086 0.36631
# Poissons Ratio (y) = 0.33288 0.18290
# Poissons Ratio (z) = 0.43433 0.21554
#
# Static dielectric constant tensor:
#      x y z
#    x 4.023500 0.000000 0.000000 
#    y 0.000000 3.412030 0.000000 
#    z 0.000000 0.000000 3.870500 
# 
# 
# High freq. dielectric constant tensor:
#      x y z
#    x 1.762960 0.000000 0.000000 
#    y 0.000000 1.747470 0.000000 
#    z 0.000000 0.000000 1.765010 
# 
# From -- ./inp_files/28025.got.cif
#   From: 2010.03.12/outbox.cif.g09.slc.cpg/sg63_15_cif.got.tgz:28025.got - 2010.04.10 19:34:48.
