data_PCOD8257174
_publ_section_title
;
Structure prediction by ZEFSAII (Michael W. Deem and Ramdas Pophale) SiO2 
 PCOD8257174
Probable space group: C M C M
;
_chemical_formula_sum "Si O2"
_cell_formula_units_Z 96
_cell_length_a 14.387441
_cell_length_b 34.642330
_cell_length_c 11.263344
_cell_angle_alpha 90.000000
_cell_angle_beta 90.000000
_cell_angle_gamma 90.000000
_cell_volume 5613.813731
_symmetry_space_group_name_H-M "C M C M"
_symmetry_group_IT_number 63
_symmetry_cell_setting 'orthorhombic'
loop_
_space_group_symop_operation_xyz
x,y,z
-x,-y,1/2+z
x,-y,-z
-x,y,1/2-z
-x,-y,-z
x,y,1/2-z
-x,y,z
x,-y,1/2+z
1/2+x,1/2+y,z
1/2-x,1/2-y,1/2+z
1/2+x,1/2-y,-z
1/2-x,1/2+y,1/2-z
1/2-x,1/2-y,-z
1/2+x,1/2+y,1/2-z
1/2-x,1/2+y,z
1/2+x,1/2-y,1/2+z
loop_
_atom_site_type_symbol
_atom_site_label
_atom_site_fract_x
_atom_site_fract_y
_atom_site_fract_z
Si Si1 0.608872 0.251186 0.250000
Si Si2 0.890029 0.836341 0.250000
Si Si3 0.772878 0.159120 0.109857
Si Si4 0.392255 0.199766 0.469661
Si Si5 0.890561 0.023538 0.885074
Si Si6 0.608990 0.390527 0.039482
Si Si7 0.897944 0.770608 0.611654
O O1 0.500000 0.256383 0.250000
O O2 0.655000 0.293670 0.250000
O O3 0.641554 0.227723 0.136261
O O4 0.857107 0.859268 0.365399
O O5 0.000000 0.835325 0.250000
O O6 0.756724 0.158250 0.250000
O O7 0.672872 0.161835 0.041648
O O8 0.829436 0.196717 0.063035
O O9 0.828983 0.120099 0.075870
O O10 0.500000 0.186628 0.461622
O O11 0.370400 0.226098 0.584633
O O12 0.853006 0.012379 0.750000
O O13 0.865340 0.067797 0.909534
O O14 0.000000 0.016703 0.882127
O O15 0.849056 0.000000 0.000000
O O16 0.500000 0.388209 0.006709
O O17 0.904795 0.775688 0.750000
O O18 0.000000 0.778066 0.552549
#
# Coordination Sequence:
#
# PCOD8257174 Si02
#       7
#     8   8  16  16  16  16  16
#     4   9  16  26  44  62  76 109 157 203 247 278
#     4   9  16  28  46  66  90 119 157 199 235 272
#     4  11  21  31  44  65  92 122 159 203 247 293
#     4  10  19  33  47  60  84 118 162 210 251 293
#     4   9  17  31  51  74 102 134 166 195 228 280
#     4  10  19  32  48  69  98 129 158 193 235 279
#     4   9  18  31  44  60  85 116 152 200 254 298
#
# _framework density 17.100674999999999
#
# number of rings (size 3 to 8) (size 9 to 14) (size 15 to 20)
#    0.000    2.333    1.667    2.000    0.000    4.333 
#    1.500    1.667    0.000    0.000    0.000    0.000 
#    0.000    0.667    0.000    0.500    0.000    0.167 
#
# Total GULP energy -594682.410234 kJ/mol
# GULP energy per Si atom -12389.216880 kJ/mol
# Density = 1.706175 g / cm^3
# Si number density = 17.100675 Si / 1000 Ang^3
#
#
#
# Elastic Constant Matrix: (Units=GPa)
#
#
# Indices 1 2 3 4 5 6 
#
# 1 54.2243 21.3994 25.6972 0.0000 0.0000 0.0000
# 2 21.3994 54.5511 26.7346 0.0000 0.0000 0.0000
# 3 25.6972 26.7346 56.7348 0.0000 0.0000 0.0000
# 4 0.0000 0.0000 0.0000 29.3239 0.0000 0.0000
# 5 0.0000 0.0000 0.0000 0.0000 18.2539 0.0000
# 6 0.0000 0.0000 0.0000 0.0000 0.0000 13.9666
#
#
#
# Elastic Compliance Matrix: (Units=1/GPa)
#
#
# Indices 1 2 3 4 5 6 
#
# 1 0.024674 -0.005464 -0.008601 0.000000 0.000000 0.000000
# 2 -0.005464 0.025046 -0.009327 0.000000 0.000000 0.000000
# 3 -0.008601 -0.009327 0.025917 0.000000 0.000000 0.000000
# 4 0.000000 0.000000 0.000000 0.034102 0.000000 0.000000
# 5 0.000000 0.000000 0.000000 0.000000 0.054783 0.000000
# 6 0.000000 0.000000 0.000000 0.000000 0.000000 0.071600
#
#
# Mechanical properties :
#
#
# Convention : Reuss Voigt Hill
#
# Bulk Modulus (GPa) = 34.65937 34.79698 34.72817
# Shear Modulus (GPa) = 17.09260 18.42081 17.75671
#
# Velocity S-wave (km/s) = 3.16496 3.28563 3.22586
# Velocity P-wave (km/s) = 5.80240 5.89799 5.85039
#
# Compressibility (1/GPa) = 0.02885223
#
# Stress axis : x y z
#
# Youngs Moduli (GPa) = 40.52781 39.92641 38.58487
#
# Poissons Ratio (x) = 0.21816 0.33187
# Poissons Ratio (y) = 0.22145 0.35990
# Poissons Ratio (z) = 0.34859 0.37241
#
# Static dielectric constant tensor:
#      x y z
#    x 3.026880 0.000000 0.000000 
#    y 0.000000 3.027370 0.000000 
#    z 0.000000 0.000000 3.426990 
# 
# 
# High freq. dielectric constant tensor:
#      x y z
#    x 1.621500 0.000000 0.000000 
#    y 0.000000 1.620530 0.000000 
#    z 0.000000 0.000000 1.673710 
# 
# From -- ./inp_files/20001.got.cif
#   From: 2010.03.12/outbox.cif.g09.slc.cpg/sg63_11_cif.got.tgz:20001.got - 2010.04.10 19:34:48.
