data_PCOD8257128
_publ_section_title
;
Structure prediction by ZEFSAII (Michael W. Deem and Ramdas Pophale) SiO2 
 PCOD8257128
Probable space group: C M C M
;
_chemical_formula_sum "Si O2"
_cell_formula_units_Z 112
_cell_length_a 23.109197
_cell_length_b 12.737504
_cell_length_c 20.112786
_cell_angle_alpha 90.000000
_cell_angle_beta 90.000000
_cell_angle_gamma 90.000000
_cell_volume 5920.268737
_symmetry_space_group_name_H-M "C M C M"
_symmetry_group_IT_number 63
_symmetry_cell_setting 'orthorhombic'
loop_
_space_group_symop_operation_xyz
x,y,z
-x,-y,1/2+z
x,-y,-z
-x,y,1/2-z
-x,-y,-z
x,y,1/2-z
-x,y,z
x,-y,1/2+z
1/2+x,1/2+y,z
1/2-x,1/2-y,1/2+z
1/2+x,1/2-y,-z
1/2-x,1/2+y,1/2-z
1/2-x,1/2-y,-z
1/2+x,1/2+y,1/2-z
1/2-x,1/2+y,z
1/2+x,1/2-y,1/2+z
loop_
_atom_site_type_symbol
_atom_site_label
_atom_site_fract_x
_atom_site_fract_y
_atom_site_fract_z
Si Si1 0.564560 0.713558 0.357327
Si Si2 0.434069 0.625086 0.500648
Si Si3 0.169456 0.654168 0.823667
Si Si4 0.437450 0.488067 0.178189
Si Si5 0.844255 0.143972 0.894616
Si Si6 0.270935 0.184286 0.173393
Si Si7 0.231519 0.512878 0.922622
O O1 0.500000 0.759305 0.353567
O O2 0.580544 0.673870 0.430300
O O3 0.604350 0.807230 0.332419
O O4 0.572453 0.611790 0.311311
O O5 0.422757 0.500000 0.500000
O O6 0.500000 0.650140 0.522402
O O7 0.387326 0.683472 0.547606
O O8 0.176310 0.602248 0.750000
O O9 0.211885 0.752230 0.828984
O O10 0.181283 0.572236 0.882342
O O11 0.443564 0.435690 0.250000
O O12 0.500000 0.470819 0.139382
O O13 0.381909 0.438612 0.145682
O O14 0.824471 0.241860 0.849419
O O15 0.789681 0.081462 0.923517
O O16 0.282196 0.144919 0.250000
O O17 0.261150 0.094521 0.118369
O O18 0.212826 0.500000 0.000000
#
# Coordination Sequence:
#
# PCOD8257128 Si02
#       7
#    16  16  16  16  16  16  16
#     4  10  20  33  55  85 114 146 182 225 280 334
#     4  10  19  32  52  83 122 154 178 219 282 340
#     4  10  22  39  60  82 112 148 185 231 282 332
#     4  10  19  31  51  83 118 148 183 228 277 337
#     4  11  21  34  58  80 113 150 190 225 280 335
#     4  10  23  40  57  81 112 149 190 233 282 331
#     4  11  25  38  57  84 112 148 191 237 278 327
#
# _framework density 18.918059
#
# number of rings (size 3 to 8) (size 9 to 14) (size 15 to 20)
#    0.000    1.714    1.429    3.000    4.000    4.857 
#    0.000    0.000    0.000    2.143    0.000    0.000 
#    0.000    0.000    0.000    0.000    0.000    0.000 
#
# Total GULP energy -693925.404074 kJ/mol
# GULP energy per Si atom -12391.525073 kJ/mol
# Density = 1.887500 g / cm^3
# Si number density = 18.918059 Si / 1000 Ang^3
#
#
#
# Elastic Constant Matrix: (Units=GPa)
#
#
# Indices 1 2 3 4 5 6 
#
# 1 87.6649 18.6183 38.3689 0.0000 0.0000 0.0000
# 2 18.6183 47.0813 38.1509 0.0000 0.0000 0.0000
# 3 38.3689 38.1509 150.9163 0.0000 0.0000 0.0000
# 4 0.0000 0.0000 0.0000 27.8496 0.0000 0.0000
# 5 0.0000 0.0000 0.0000 0.0000 27.0575 0.0000
# 6 0.0000 0.0000 0.0000 0.0000 0.0000 24.1314
#
#
#
# Elastic Compliance Matrix: (Units=1/GPa)
#
#
# Indices 1 2 3 4 5 6 
#
# 1 0.013195 -0.003144 -0.002560 0.000000 0.000000 0.000000
# 2 -0.003144 0.027461 -0.006143 0.000000 0.000000 0.000000
# 3 -0.002560 -0.006143 0.008830 0.000000 0.000000 0.000000
# 4 0.000000 0.000000 0.000000 0.035907 0.000000 0.000000
# 5 0.000000 0.000000 0.000000 0.000000 0.036958 0.000000
# 6 0.000000 0.000000 0.000000 0.000000 0.000000 0.041440
#
#
# Mechanical properties :
#
#
# Convention : Reuss Voigt Hill
#
# Bulk Modulus (GPa) = 38.77019 52.88207 45.82613
# Shear Modulus (GPa) = 25.49965 28.50933 27.00449
#
# Velocity S-wave (km/s) = 3.67536 3.88621 3.78225
# Velocity P-wave (km/s) = 6.20880 6.93907 6.58407
#
# Compressibility (1/GPa) = 0.02579301
#
# Stress axis : x y z
#
# Youngs Moduli (GPa) = 75.78518 36.41590 113.25171
#
# Poissons Ratio (x) = 0.11448 0.28993
# Poissons Ratio (y) = 0.23824 0.69567
# Poissons Ratio (z) = 0.19401 0.22369
#
# Static dielectric constant tensor:
#      x y z
#    x 3.577840 0.000000 0.000000 
#    y 0.000000 3.224430 0.000000 
#    z 0.000000 0.000000 3.822360 
# 
# 
# High freq. dielectric constant tensor:
#      x y z
#    x 1.737810 0.000000 0.000000 
#    y 0.000000 1.692290 0.000000 
#    z 0.000000 0.000000 1.758590 
# 
# From -- ./inp_files/57575.got.cif
#   From: 2010.03.12/outbox.cif.g09.slc.cpg/sg63_29_cif.got.tgz:57575.got - 2010.04.10 19:34:48.
