data_PCOD8257837
_publ_section_title
;
Structure prediction by ZEFSAII (Michael W. Deem and Ramdas Pophale) SiO2 
 PCOD8257837
Probable space group: C M C M
;
_chemical_formula_sum "Si O2"
_cell_formula_units_Z 96
_cell_length_a 22.849439
_cell_length_b 9.496447
_cell_length_c 22.816011
_cell_angle_alpha 90.000000
_cell_angle_beta 90.000000
_cell_angle_gamma 90.000000
_cell_volume 4950.811694
_symmetry_space_group_name_H-M "C M C M"
_symmetry_group_IT_number 63
_symmetry_cell_setting 'orthorhombic'
loop_
_space_group_symop_operation_xyz
x,y,z
-x,-y,1/2+z
x,-y,-z
-x,y,1/2-z
-x,-y,-z
x,y,1/2-z
-x,y,z
x,-y,1/2+z
1/2+x,1/2+y,z
1/2-x,1/2-y,1/2+z
1/2+x,1/2-y,-z
1/2-x,1/2+y,1/2-z
1/2-x,1/2-y,-z
1/2+x,1/2+y,1/2-z
1/2-x,1/2+y,z
1/2+x,1/2-y,1/2+z
loop_
_atom_site_type_symbol
_atom_site_label
_atom_site_fract_x
_atom_site_fract_y
_atom_site_fract_z
Si Si1 0.820583 0.800740 0.544528
Si Si2 0.562690 0.471600 0.681387
Si Si3 0.653281 0.691006 0.817522
Si Si4 0.066441 0.552536 0.184259
Si Si5 0.566056 0.788224 0.391399
Si Si6 0.718645 0.608335 0.924809
O O1 0.887640 0.769369 0.561662
O O2 0.784483 0.658050 0.559206
O O3 0.823513 0.826580 0.474796
O O4 0.790148 0.938080 0.575770
O O5 0.564156 0.491450 0.750000
O O6 0.500000 0.525637 0.656896
O O7 0.614558 0.564375 0.655751
O O8 0.571113 0.309632 0.665631
O O9 0.674272 0.670512 0.750000
O O10 0.614825 0.829180 0.824083
O O11 0.707885 0.683326 0.861612
O O12 0.072358 0.488733 0.250000
O O13 0.080930 0.441330 0.133565
O O14 0.000000 0.610988 0.176331
O O15 0.500000 0.783926 0.418318
#
# Coordination Sequence:
#
# PCOD8257837 Si02
#       6
#    16  16  16  16  16  16
#     4  10  22  41  63  83 110 153 195 231 278 344
#     4   9  16  28  50  78 110 149 186 223 275 340
#     4  10  19  34  55  83 115 145 187 239 286 330
#     4   9  18  32  52  81 119 160 193 227 281 346
#     4  10  19  34  56  85 116 145 187 239 286 329
#     4  10  22  41  61  84 109 151 195 231 280 344
#
# _framework density 19.390758999999999
#
# number of rings (size 3 to 8) (size 9 to 14) (size 15 to 20)
#    0.000    2.333    1.667    1.000    2.333    4.000 
#    0.000    5.833    0.000    2.000    0.000    0.000 
#    0.000    0.000    0.000    0.000    0.000    0.000 
#
# Total GULP energy -594655.309787 kJ/mol
# GULP energy per Si atom -12388.652287 kJ/mol
# Density = 1.934662 g / cm^3
# Si number density = 19.390759 Si / 1000 Ang^3
#
#
#
# Elastic Constant Matrix: (Units=GPa)
#
#
# Indices 1 2 3 4 5 6 
#
# 1 70.3066 30.0739 33.9279 0.0000 0.0000 0.0000
# 2 30.0739 71.5673 28.2079 0.0000 0.0000 0.0000
# 3 33.9279 28.2079 81.0548 0.0000 0.0000 0.0000
# 4 0.0000 0.0000 0.0000 22.9697 0.0000 0.0000
# 5 0.0000 0.0000 0.0000 0.0000 20.7650 0.0000
# 6 0.0000 0.0000 0.0000 0.0000 0.0000 24.9777
#
#
#
# Elastic Compliance Matrix: (Units=1/GPa)
#
#
# Indices 1 2 3 4 5 6 
#
# 1 0.019723 -0.005834 -0.006225 0.000000 0.000000 0.000000
# 2 -0.005834 0.017920 -0.003794 0.000000 0.000000 0.000000
# 3 -0.006225 -0.003794 0.016264 0.000000 0.000000 0.000000
# 4 0.000000 0.000000 0.000000 0.043536 0.000000 0.000000
# 5 0.000000 0.000000 0.000000 0.000000 0.048158 0.000000
# 6 0.000000 0.000000 0.000000 0.000000 0.000000 0.040036
#
#
# Mechanical properties :
#
#
# Convention : Reuss Voigt Hill
#
# Bulk Modulus (GPa) = 45.04707 45.26091 45.15399
# Shear Modulus (GPa) = 22.24758 22.45709 22.35233
#
# Velocity S-wave (km/s) = 3.39090 3.40683 3.39887
# Velocity P-wave (km/s) = 6.21390 6.23438 6.22415
#
# Compressibility (1/GPa) = 0.02219900
#
# Stress axis : x y z
#
# Youngs Moduli (GPa) = 50.70158 55.80335 61.48723
#
# Poissons Ratio (x) = 0.32558 0.38278
# Poissons Ratio (y) = 0.29581 0.23330
# Poissons Ratio (z) = 0.31563 0.21173
#
# Static dielectric constant tensor:
#      x y z
#    x 3.580610 0.000000 0.000000 
#    y 0.000000 3.608240 0.000000 
#    z 0.000000 0.000000 3.399290 
# 
# 
# High freq. dielectric constant tensor:
#      x y z
#    x 1.743690 0.000000 0.000000 
#    y 0.000000 1.757660 0.000000 
#    z 0.000000 0.000000 1.737180 
# 
# From -- ./inp_files/58106.got.cif
#   From: 2010.03.12/outbox.cif.g09.slc.cpg/sg63_30_cif.got.tgz:58106.got - 2010.04.10 19:34:48.
