data_PCOD8257382
_publ_section_title
;
Structure prediction by ZEFSAII (Michael W. Deem and Ramdas Pophale) SiO2 
 PCOD8257382
Probable space group: C M C M
;
_chemical_formula_sum "Si O2"
_cell_formula_units_Z 104
_cell_length_a 20.062498
_cell_length_b 29.463312
_cell_length_c 8.899773
_cell_angle_alpha 90.000000
_cell_angle_beta 90.000000
_cell_angle_gamma 90.000000
_cell_volume 5260.723797
_symmetry_space_group_name_H-M "C M C M"
_symmetry_group_IT_number 63
_symmetry_cell_setting 'orthorhombic'
loop_
_space_group_symop_operation_xyz
x,y,z
-x,-y,1/2+z
x,-y,-z
-x,y,1/2-z
-x,-y,-z
x,y,1/2-z
-x,y,z
x,-y,1/2+z
1/2+x,1/2+y,z
1/2-x,1/2-y,1/2+z
1/2+x,1/2-y,-z
1/2-x,1/2+y,1/2-z
1/2-x,1/2-y,-z
1/2+x,1/2+y,1/2-z
1/2-x,1/2+y,z
1/2+x,1/2-y,1/2+z
loop_
_atom_site_type_symbol
_atom_site_label
_atom_site_fract_x
_atom_site_fract_y
_atom_site_fract_z
Si Si1 0.324527 0.799268 0.925858
Si Si2 0.122257 0.395430 0.927570
Si Si3 0.500000 0.949312 0.430183
Si Si4 0.325994 0.292617 0.574126
Si Si5 0.074739 0.141483 0.577623
Si Si6 0.383017 0.455466 0.076791
Si Si7 0.270536 0.046204 0.572243
O O1 0.324237 0.790554 0.750000
O O2 0.373192 0.841600 0.964210
O O3 0.248169 0.806224 0.982763
O O4 0.353004 0.754246 0.003466
O O5 0.113344 0.404017 0.750000
O O6 0.063667 0.420525 0.016830
O O7 0.192456 0.413562 0.986833
O O8 0.500000 0.953660 0.250000
O O9 0.500000 0.000000 0.500000
O O10 0.327150 0.286348 0.750000
O O11 0.375977 0.332034 0.529338
O O12 0.098878 0.146397 0.750000
O O13 0.075672 0.088747 0.529116
O O14 0.000000 0.160122 0.557410
O O15 0.389371 0.465544 0.250000
O O16 0.306415 0.447601 0.030895
O O17 0.413563 0.500000 0.000000
O O18 0.284870 0.046982 0.750000
O O19 0.298706 0.000000 0.500000
#
# Coordination Sequence:
#
# PCOD8257382 Si02
#       7
#    16  16   8  16  16  16  16
#     4   9  20  38  61  87 115 146 180 226 287 344
#     4  11  22  38  59  84 112 146 188 231 281 341
#     4  12  26  44  62  82 114 154 196 238 287 344
#     4  10  20  36  60  89 116 144 185 235 281 332
#     4  10  21  37  55  77 110 153 192 225 273 334
#     4   9  19  34  53  79 110 145 187 233 279 328
#     4  10  19  32  52  79 110 143 181 229 281 330
#
# _framework density 19.769141999999999
#
# number of rings (size 3 to 8) (size 9 to 14) (size 15 to 20)
#    0.000    2.000    0.000    3.462    0.000    3.692 
#    1.385    0.000    0.000    0.000    0.000    0.000 
#    0.000    0.000    0.000    0.000    0.000    0.000 
#
# Total GULP energy -644774.879405 kJ/mol
# GULP energy per Si atom -12399.516912 kJ/mol
# Density = 1.972415 g / cm^3
# Si number density = 19.769142 Si / 1000 Ang^3
#
#
#
# Elastic Constant Matrix: (Units=GPa)
#
#
# Indices 1 2 3 4 5 6 
#
# 1 61.2069 39.8734 26.9001 0.0000 0.0000 0.0000
# 2 39.8734 98.3665 40.1037 0.0000 0.0000 0.0000
# 3 26.9001 40.1037 62.5878 0.0000 0.0000 0.0000
# 4 0.0000 0.0000 0.0000 38.1348 0.0000 0.0000
# 5 0.0000 0.0000 0.0000 0.0000 20.9196 0.0000
# 6 0.0000 0.0000 0.0000 0.0000 0.0000 34.8287
#
#
#
# Elastic Compliance Matrix: (Units=1/GPa)
#
#
# Indices 1 2 3 4 5 6 
#
# 1 0.023478 -0.007313 -0.005405 0.000000 0.000000 0.000000
# 2 -0.007313 0.016039 -0.007134 0.000000 0.000000 0.000000
# 3 -0.005405 -0.007134 0.022871 0.000000 0.000000 0.000000
# 4 0.000000 0.000000 0.000000 0.026223 0.000000 0.000000
# 5 0.000000 0.000000 0.000000 0.000000 0.047802 0.000000
# 6 0.000000 0.000000 0.000000 0.000000 0.000000 0.028712
#
#
# Mechanical properties :
#
#
# Convention : Reuss Voigt Hill
#
# Bulk Modulus (GPa) = 44.08279 48.43506 46.25892
# Shear Modulus (GPa) = 23.54161 26.46222 25.00192
#
# Velocity S-wave (km/s) = 3.45458 3.66261 3.56011
# Velocity P-wave (km/s) = 6.18541 6.51458 6.35213
#
# Compressibility (1/GPa) = 0.02268459
#
# Stress axis : x y z
#
# Youngs Moduli (GPa) = 42.59382 62.34790 43.72256
#
# Poissons Ratio (x) = 0.45597 0.23630
# Poissons Ratio (y) = 0.31150 0.31191
# Poissons Ratio (z) = 0.23020 0.44478
#
# Static dielectric constant tensor:
#      x y z
#    x 3.535640 0.000000 0.000000 
#    y 0.000000 3.799040 0.000000 
#    z 0.000000 0.000000 3.568990 
# 
# 
# High freq. dielectric constant tensor:
#      x y z
#    x 1.760180 0.000000 0.000000 
#    y 0.000000 1.779400 0.000000 
#    z 0.000000 0.000000 1.770800 
# 
# From -- ./inp_files/8771.got.cif
#   From: 2010.03.12/outbox.cif.g09.slc.cpg/sg63_5_cif.got.tgz:8771.got - 2010.04.10 19:34:48.
