data_PCOD8257710
_publ_section_title
;
Structure prediction by ZEFSAII (Michael W. Deem and Ramdas Pophale) SiO2 
 PCOD8257710
Probable space group: C M C M
;
_chemical_formula_sum "Si O2"
_cell_formula_units_Z 96
_cell_length_a 28.267878
_cell_length_b 19.747255
_cell_length_c 9.267008
_cell_angle_alpha 90.000000
_cell_angle_beta 90.000000
_cell_angle_gamma 90.000000
_cell_volume 5172.964292
_symmetry_space_group_name_H-M "C M C M"
_symmetry_group_IT_number 63
_symmetry_cell_setting 'orthorhombic'
loop_
_space_group_symop_operation_xyz
x,y,z
-x,-y,1/2+z
x,-y,-z
-x,y,1/2-z
-x,-y,-z
x,y,1/2-z
-x,y,z
x,-y,1/2+z
1/2+x,1/2+y,z
1/2-x,1/2-y,1/2+z
1/2+x,1/2-y,-z
1/2-x,1/2+y,1/2-z
1/2-x,1/2-y,-z
1/2+x,1/2+y,1/2-z
1/2-x,1/2+y,z
1/2+x,1/2-y,1/2+z
loop_
_atom_site_type_symbol
_atom_site_label
_atom_site_fract_x
_atom_site_fract_y
_atom_site_fract_z
Si Si1 0.098111 0.205420 0.420950
Si Si2 0.054303 0.935860 0.917610
Si Si3 0.864906 0.570755 0.420008
Si Si4 0.554049 0.173825 0.416358
Si Si5 0.693025 0.300547 0.090275
Si Si6 0.228031 0.650402 0.409069
O O1 0.099408 0.215603 0.250000
O O2 0.080919 0.131353 0.466428
O O3 0.062467 0.260152 0.487162
O O4 0.149637 0.213961 0.485805
O O5 0.060482 0.949904 0.750000
O O6 0.000000 0.926338 0.962029
O O7 0.076726 0.000000 0.000000
O O8 0.867411 0.500000 0.500000
O O9 0.864666 0.557834 0.250000
O O10 0.910873 0.614033 0.466205
O O11 0.817677 0.610593 0.469447
O O12 0.564433 0.192922 0.250000
O O13 0.500000 0.149335 0.437759
O O14 0.677717 0.326495 0.250000
O O15 0.718725 0.229511 0.108043
O O16 0.727947 0.357012 0.019498
O O17 0.241743 0.621783 0.250000
#
# Coordination Sequence:
#
# PCOD8257710 Si02
#       6
#    16  16  16  16  16  16
#     4  11  21  34  55  84 116 146 181 229 281 330
#     4   9  19  35  53  75 105 141 180 221 266 321
#     4  10  21  38  57  81 113 150 190 235 285 339
#     4  10  21  38  58  81 112 149 191 239 288 337
#     4  10  19  33  56  83 110 138 178 222 271 329
#     4   9  18  35  55  78 109 140 177 224 272 323
#
# _framework density 18.558024
#
# number of rings (size 3 to 8) (size 9 to 14) (size 15 to 20)
#    0.000    2.167    1.667    1.500    0.000    4.667 
#    0.000    2.500    0.000    0.000    0.000    0.000 
#    0.000    0.000    0.000    0.000    0.000    0.000 
#
# Total GULP energy -595157.372071 kJ/mol
# GULP energy per Si atom -12399.111918 kJ/mol
# Density = 1.851579 g / cm^3
# Si number density = 18.558024 Si / 1000 Ang^3
#
#
#
# Elastic Constant Matrix: (Units=GPa)
#
#
# Indices 1 2 3 4 5 6 
#
# 1 75.5837 25.8622 30.7088 0.0000 0.0000 0.0000
# 2 25.8622 78.2391 43.4473 0.0000 0.0000 0.0000
# 3 30.7088 43.4473 71.9631 0.0000 0.0000 0.0000
# 4 0.0000 0.0000 0.0000 32.2809 0.0000 0.0000
# 5 0.0000 0.0000 0.0000 0.0000 24.2291 0.0000
# 6 0.0000 0.0000 0.0000 0.0000 0.0000 14.3854
#
#
#
# Elastic Compliance Matrix: (Units=1/GPa)
#
#
# Indices 1 2 3 4 5 6 
#
# 1 0.016274 -0.002291 -0.005561 0.000000 0.000000 0.000000
# 2 -0.002291 0.019550 -0.010826 0.000000 0.000000 0.000000
# 3 -0.005561 -0.010826 0.022805 0.000000 0.000000 0.000000
# 4 0.000000 0.000000 0.000000 0.030978 0.000000 0.000000
# 5 0.000000 0.000000 0.000000 0.000000 0.041273 0.000000
# 6 0.000000 0.000000 0.000000 0.000000 0.000000 0.069515
#
#
# Mechanical properties :
#
#
# Convention : Reuss Voigt Hill
#
# Bulk Modulus (GPa) = 47.00780 47.31363 47.16072
# Shear Modulus (GPa) = 20.42133 22.56361 21.49247
#
# Velocity S-wave (km/s) = 3.32083 3.49067 3.40681
# Velocity P-wave (km/s) = 6.33159 6.46504 6.39866
#
# Compressibility (1/GPa) = 0.02127307
#
# Stress axis : x y z
#
# Youngs Moduli (GPa) = 61.44853 51.15000 43.84978
#
# Poissons Ratio (x) = 0.11719 0.24386
# Poissons Ratio (y) = 0.14079 0.47471
# Poissons Ratio (z) = 0.34173 0.55374
#
# Static dielectric constant tensor:
#      x y z
#    x 3.462730 0.000000 0.000000 
#    y 0.000000 3.288030 0.000000 
#    z 0.000000 0.000000 3.645270 
# 
# 
# High freq. dielectric constant tensor:
#      x y z
#    x 1.721740 0.000000 0.000000 
#    y 0.000000 1.700810 0.000000 
#    z 0.000000 0.000000 1.724410 
# 
# From -- ./inp_files/12386.got.cif
#   From: 2010.03.12/outbox.cif.g09.slc.cpg/sg63_7_cif.got.tgz:12386.got - 2010.04.10 19:34:48.
