data_PCOD8257295
_publ_section_title
;
Structure prediction by ZEFSAII (Michael W. Deem and Ramdas Pophale) SiO2 
 PCOD8257295
Probable space group: C M C M
;
_chemical_formula_sum "Si O2"
_cell_formula_units_Z 80
_cell_length_a 20.007870
_cell_length_b 24.924442
_cell_length_c 9.040745
_cell_angle_alpha 90.000000
_cell_angle_beta 90.000000
_cell_angle_gamma 90.000000
_cell_volume 4508.483878
_symmetry_space_group_name_H-M "C M C M"
_symmetry_group_IT_number 63
_symmetry_cell_setting 'orthorhombic'
loop_
_space_group_symop_operation_xyz
x,y,z
-x,-y,1/2+z
x,-y,-z
-x,y,1/2-z
-x,-y,-z
x,y,1/2-z
-x,y,z
x,-y,1/2+z
1/2+x,1/2+y,z
1/2-x,1/2-y,1/2+z
1/2+x,1/2-y,-z
1/2-x,1/2+y,1/2-z
1/2-x,1/2-y,-z
1/2+x,1/2+y,1/2-z
1/2-x,1/2+y,z
1/2+x,1/2-y,1/2+z
loop_
_atom_site_type_symbol
_atom_site_label
_atom_site_fract_x
_atom_site_fract_y
_atom_site_fract_z
Si Si1 0.352396 0.250031 0.926337
Si Si2 0.500000 0.884103 0.410026
Si Si3 0.252264 0.553289 0.417558
Si Si4 0.242588 0.834228 0.424516
Si Si5 0.594827 0.050841 0.414342
Si Si6 0.500000 0.239723 0.909947
O O1 0.350934 0.259393 0.750000
O O2 0.314769 0.193212 0.961708
O O3 0.429013 0.252632 0.990008
O O4 0.315283 0.297344 0.010072
O O5 0.500000 0.913349 0.250000
O O6 0.567248 0.897560 0.500048
O O7 0.500000 0.822383 0.380239
O O8 0.281141 0.500000 0.500000
O O9 0.281261 0.555373 0.250000
O O10 0.268982 0.607513 0.504603
O O11 0.173483 0.549477 0.412539
O O12 0.233237 0.840128 0.250000
O O13 0.565621 0.051033 0.250000
O O14 0.565054 0.000000 0.500000
O O15 0.500000 0.269119 0.750000
#
# Coordination Sequence:
#
# PCOD8257295 Si02
#       6
#    16   8  16  16  16   8
#     4   9  18  33  52  73  99 132 170 208 248 295
#     4  11  20  30  45  63  88 123 161 200 241 284
#     4  10  20  33  50  71  96 126 161 203 248 294
#     4  10  19  32  51  75 103 133 166 205 250 299
#     4  10  20  32  44  61  87 121 161 201 240 281
#     4   9  18  32  50  71  94 125 164 204 245 290
#
# _framework density 17.744325
#
# number of rings (size 3 to 8) (size 9 to 14) (size 15 to 20)
#    0.000    2.200    0.000    3.600    0.000    4.800 
#    0.000    2.500    0.000    0.000    0.000    0.700 
#    0.000    0.000    0.000    0.000    0.000    0.000 
#
# Total GULP energy -495543.771170 kJ/mol
# GULP energy per Si atom -12388.594279 kJ/mol
# Density = 1.770394 g / cm^3
# Si number density = 17.744325 Si / 1000 Ang^3
#
#
#
# Elastic Constant Matrix: (Units=GPa)
#
#
# Indices 1 2 3 4 5 6 
#
# 1 92.3153 34.5272 32.1997 0.0000 0.0000 0.0000
# 2 34.5272 117.6352 55.7000 0.0000 0.0000 0.0000
# 3 32.1997 55.7000 116.3548 0.0000 0.0000 0.0000
# 4 0.0000 0.0000 0.0000 25.3663 0.0000 0.0000
# 5 0.0000 0.0000 0.0000 0.0000 22.2347 0.0000
# 6 0.0000 0.0000 0.0000 0.0000 0.0000 22.1361
#
#
#
# Elastic Compliance Matrix: (Units=1/GPa)
#
#
# Indices 1 2 3 4 5 6 
#
# 1 0.012596 -0.002646 -0.002219 0.000000 0.000000 0.000000
# 2 -0.002646 0.011549 -0.004796 0.000000 0.000000 0.000000
# 3 -0.002219 -0.004796 0.011504 0.000000 0.000000 0.000000
# 4 0.000000 0.000000 0.000000 0.039422 0.000000 0.000000
# 5 0.000000 0.000000 0.000000 0.000000 0.044975 0.000000
# 6 0.000000 0.000000 0.000000 0.000000 0.000000 0.045175
#
#
# Mechanical properties :
#
#
# Convention : Reuss Voigt Hill
#
# Bulk Modulus (GPa) = 61.25097 63.46211 62.35654
# Shear Modulus (GPa) = 26.31767 27.53930 26.92849
#
# Velocity S-wave (km/s) = 3.85536 3.94382 3.89984
# Velocity P-wave (km/s) = 7.37645 7.52202 7.44959
#
# Compressibility (1/GPa) = 0.01632627
#
# Stress axis : x y z
#
# Youngs Moduli (GPa) = 79.38883 86.59131 86.92361
#
# Poissons Ratio (x) = 0.22916 0.19288
# Poissons Ratio (y) = 0.21010 0.41688
# Poissons Ratio (z) = 0.17616 0.41529
#
# Static dielectric constant tensor:
#      x y z
#    x 3.168050 0.000000 0.000000 
#    y 0.000000 3.261460 0.000000 
#    z 0.000000 0.000000 3.520340 
# 
# 
# High freq. dielectric constant tensor:
#      x y z
#    x 1.657890 0.000000 0.000000 
#    y 0.000000 1.675890 0.000000 
#    z 0.000000 0.000000 1.692410 
# 
# From -- ./inp_files/8090.got.cif
#   From: 2010.03.12/outbox.cif.g09.slc.cpg/sg63_5_cif.got.tgz:8090.got - 2010.04.10 19:34:48.
