data_PCOD8257513
_publ_section_title
;
Structure prediction by ZEFSAII (Michael W. Deem and Ramdas Pophale) SiO2 
 PCOD8257513
Probable space group: C M C M
;
_chemical_formula_sum "Si O2"
_cell_formula_units_Z 88
_cell_length_a 29.523893
_cell_length_b 5.033054
_cell_length_c 30.587053
_cell_angle_alpha 90.000000
_cell_angle_beta 90.000000
_cell_angle_gamma 90.000000
_cell_volume 4545.093777
_symmetry_space_group_name_H-M "C M C M"
_symmetry_group_IT_number 63
_symmetry_cell_setting 'orthorhombic'
loop_
_space_group_symop_operation_xyz
x,y,z
-x,-y,1/2+z
x,-y,-z
-x,y,1/2-z
-x,-y,-z
x,y,1/2-z
-x,y,z
x,-y,1/2+z
1/2+x,1/2+y,z
1/2-x,1/2-y,1/2+z
1/2+x,1/2-y,-z
1/2-x,1/2+y,1/2-z
1/2-x,1/2-y,-z
1/2+x,1/2+y,1/2-z
1/2-x,1/2+y,z
1/2+x,1/2-y,1/2+z
loop_
_atom_site_type_symbol
_atom_site_label
_atom_site_fract_x
_atom_site_fract_y
_atom_site_fract_z
Si Si1 0.720990 0.997288 0.549999
Si Si2 0.949704 0.151245 0.312561
Si Si3 0.000000 0.755022 0.530061
Si Si4 0.921967 0.890119 0.905788
Si Si5 0.864119 0.388071 0.892177
Si Si6 0.608045 0.161505 0.297239
O O1 0.763135 0.798773 0.558149
O O2 0.683711 0.891198 0.583741
O O3 0.702591 0.000000 0.500000
O O4 0.953485 0.080707 0.363621
O O5 0.930898 0.445727 0.305271
O O6 0.000000 0.135814 0.292348
O O7 0.916276 0.943174 0.290216
O O8 0.000000 0.500000 0.500000
O O9 0.953548 0.774353 0.556620
O O10 0.000000 0.000000 0.500000
O O11 0.882165 0.683603 0.897516
O O12 0.897898 0.174456 0.915098
O O13 0.858568 0.328636 0.839629
O O14 0.632989 0.106082 0.250000
#
# Coordination Sequence:
#
# PCOD8257513 Si02
#       6
#    16  16   8  16  16  16
#     4  10  21  38  61  88 111 133 172 229 283 338
#     4  10  19  33  52  70 103 147 186 234 275 311
#     4  12  24  36  52  76 109 148 191 238 272 304
#     4  10  21  37  52  76 108 149 192 223 265 330
#     4  10  21  37  60  79 109 150 178 222 285 335
#     4  10  21  33  50  79 108 141 185 227 273 326
#
# _framework density 19.361536999999998
#
# number of rings (size 3 to 8) (size 9 to 14) (size 15 to 20)
#    0.000    1.818    0.909    3.273    0.000    4.364 
#    0.000    0.000    0.000    1.091    0.000    0.000 
#    0.000    0.000    0.000    0.000    0.000    0.000 
#
# Total GULP energy -545231.619462 kJ/mol
# GULP energy per Si atom -12391.627715 kJ/mol
# Density = 1.931747 g / cm^3
# Si number density = 19.361537 Si / 1000 Ang^3
#
#
#
# Elastic Constant Matrix: (Units=GPa)
#
#
# Indices 1 2 3 4 5 6 
#
# 1 70.3275 11.5806 56.3032 0.0000 0.0000 0.0000
# 2 11.5806 93.5044 22.3021 0.0000 0.0000 0.0000
# 3 56.3032 22.3021 144.9499 0.0000 0.0000 0.0000
# 4 0.0000 0.0000 0.0000 11.5154 0.0000 0.0000
# 5 0.0000 0.0000 0.0000 0.0000 70.6318 0.0000
# 6 0.0000 0.0000 0.0000 0.0000 0.0000 22.1968
#
#
#
# Elastic Compliance Matrix: (Units=1/GPa)
#
#
# Indices 1 2 3 4 5 6 
#
# 1 0.020677 -0.000670 -0.007929 0.000000 0.000000 0.000000
# 2 -0.000670 0.011124 -0.001451 0.000000 0.000000 0.000000
# 3 -0.007929 -0.001451 0.010202 0.000000 0.000000 0.000000
# 4 0.000000 0.000000 0.000000 0.086840 0.000000 0.000000
# 5 0.000000 0.000000 0.000000 0.000000 0.014158 0.000000
# 6 0.000000 0.000000 0.000000 0.000000 0.000000 0.045052
#
#
# Mechanical properties :
#
#
# Convention : Reuss Voigt Hill
#
# Bulk Modulus (GPa) = 45.65513 54.35040 50.00277
# Shear Modulus (GPa) = 23.20694 35.44185 29.32440
#
# Velocity S-wave (km/s) = 3.46585 4.28311 3.89597
# Velocity P-wave (km/s) = 6.29664 7.25206 6.79117
#
# Compressibility (1/GPa) = 0.02190334
#
# Stress axis : x y z
#
# Youngs Moduli (GPa) = 48.36298 89.89735 98.02048
#
# Poissons Ratio (x) = 0.06021 0.77716
# Poissons Ratio (y) = 0.03239 0.14226
# Poissons Ratio (z) = 0.38345 0.13047
#
# Static dielectric constant tensor:
#      x y z
#    x 3.035920 0.000000 0.000000 
#    y 0.000000 3.662400 0.000000 
#    z 0.000000 0.000000 4.147550 
# 
# 
# High freq. dielectric constant tensor:
#      x y z
#    x 1.705950 0.000000 0.000000 
#    y 0.000000 1.777180 0.000000 
#    z 0.000000 0.000000 1.765660 
# 
# From -- ./inp_files/74233.got.cif
#   From: 2010.03.12/outbox.cif.g09.slc.cpg/sg63_38_cif.got.tgz:74233.got - 2010.04.10 19:34:48.
