data_PCOD8257617
_publ_section_title
;
Structure prediction by ZEFSAII (Michael W. Deem and Ramdas Pophale) SiO2 
 PCOD8257617
Probable space group: C M C M
;
_chemical_formula_sum "Si O2"
_cell_formula_units_Z 128
_cell_length_a 20.685001
_cell_length_b 19.044695
_cell_length_c 17.756740
_cell_angle_alpha 90.000000
_cell_angle_beta 90.000000
_cell_angle_gamma 90.000000
_cell_volume 6995.081901
_symmetry_space_group_name_H-M "C M C M"
_symmetry_group_IT_number 63
_symmetry_cell_setting 'orthorhombic'
loop_
_space_group_symop_operation_xyz
x,y,z
-x,-y,1/2+z
x,-y,-z
-x,y,1/2-z
-x,-y,-z
x,y,1/2-z
-x,y,z
x,-y,1/2+z
1/2+x,1/2+y,z
1/2-x,1/2-y,1/2+z
1/2+x,1/2-y,-z
1/2-x,1/2+y,1/2-z
1/2-x,1/2-y,-z
1/2+x,1/2+y,1/2-z
1/2-x,1/2+y,z
1/2+x,1/2-y,1/2+z
loop_
_atom_site_type_symbol
_atom_site_label
_atom_site_fract_x
_atom_site_fract_y
_atom_site_fract_z
Si Si1 0.261478 0.527217 0.161770
Si Si2 0.927662 0.625448 0.572980
Si Si3 0.684601 0.616625 0.663940
Si Si4 0.611774 0.004648 0.164852
Si Si5 0.070464 0.208536 0.663595
Si Si6 0.754541 0.659555 0.429502
Si Si7 0.601439 0.148175 0.098839
Si Si8 0.204353 0.309634 0.407691
O O1 0.272200 0.546195 0.250000
O O2 0.305898 0.462483 0.133224
O O3 0.187941 0.503664 0.147800
O O4 0.280301 0.592322 0.107975
O O5 0.922893 0.547672 0.607203
O O6 0.916654 0.622502 0.484119
O O7 0.871025 0.673800 0.608752
O O8 0.000000 0.655047 0.590455
O O9 0.666054 0.608453 0.750000
O O10 0.624188 0.657509 0.624906
O O11 0.750713 0.661618 0.658967
O O12 0.596664 0.980870 0.250000
O O13 0.584125 0.083178 0.153072
O O14 0.089426 0.224693 0.750000
O O15 0.063025 0.282205 0.620348
O O16 0.000000 0.171782 0.658048
O O17 0.823706 0.669475 0.390115
O O18 0.766920 0.650623 0.518580
O O19 0.708820 0.725996 0.414770
#
# Coordination Sequence:
#
# PCOD8257617 Si02
#       8
#    16  16  16  16  16  16  16  16
#     4   9  18  33  53  79 105 133 170 214 262 307
#     4  11  23  35  50  72 104 144 181 216 256 307
#     4  10  19  33  54  78 105 136 170 209 258 312
#     4  10  20  34  51  73 103 138 179 220 257 306
#     4  10  20  33  52  80 109 135 166 211 269 324
#     4   9  19  32  53  79 102 130 173 220 261 307
#     4  10  19  34  53  76 104 138 175 214 265 320
#     4  10  19  35  53  74 103 133 179 219 260 301
#
# _framework density 18.298570000000002
#
# number of rings (size 3 to 8) (size 9 to 14) (size 15 to 20)
#    0.000    2.125    2.500    1.125    0.000    3.250 
#    0.000    0.000    0.000    0.750    0.000    0.875 
#    0.000    0.000    0.000    0.000    0.000    0.000 
#
# Total GULP energy -793305.095636 kJ/mol
# GULP energy per Si atom -12395.392119 kJ/mol
# Density = 1.825692 g / cm^3
# Si number density = 18.298570 Si / 1000 Ang^3
#
#
#
# Elastic Constant Matrix: (Units=GPa)
#
#
# Indices 1 2 3 4 5 6 
#
# 1 113.4402 64.0663 19.2540 0.0000 0.0000 0.0000
# 2 64.0663 120.9941 39.7689 0.0000 0.0000 0.0000
# 3 19.2540 39.7689 53.2054 0.0000 0.0000 0.0000
# 4 0.0000 0.0000 0.0000 27.9902 0.0000 0.0000
# 5 0.0000 0.0000 0.0000 0.0000 14.4580 0.0000
# 6 0.0000 0.0000 0.0000 0.0000 0.0000 19.5823
#
#
#
# Elastic Compliance Matrix: (Units=1/GPa)
#
#
# Indices 1 2 3 4 5 6 
#
# 1 0.012589 -0.006852 0.000566 0.000000 0.000000 0.000000
# 2 -0.006852 0.014686 -0.008498 0.000000 0.000000 0.000000
# 3 0.000566 -0.008498 0.024942 0.000000 0.000000 0.000000
# 4 0.000000 0.000000 0.000000 0.035727 0.000000 0.000000
# 5 0.000000 0.000000 0.000000 0.000000 0.069166 0.000000
# 6 0.000000 0.000000 0.000000 0.000000 0.000000 0.051067
#
#
# Mechanical properties :
#
#
# Convention : Reuss Voigt Hill
#
# Bulk Modulus (GPa) = 44.15110 59.31311 51.73211
# Shear Modulus (GPa) = 20.38380 23.37612 21.87996
#
# Velocity S-wave (km/s) = 3.34122 3.57807 3.46167
# Velocity P-wave (km/s) = 6.25024 7.03950 6.65658
#
# Compressibility (1/GPa) = 0.02264949
#
# Stress axis : x y z
#
# Youngs Moduli (GPa) = 79.43605 68.09272 40.09304
#
# Poissons Ratio (x) = 0.46655 -0.02268
# Poissons Ratio (y) = 0.54427 0.34069
# Poissons Ratio (z) = -0.04494 0.57862
#
# Static dielectric constant tensor:
#      x y z
#    x 3.420430 0.000000 0.000000 
#    y 0.000000 3.398400 0.000000 
#    z 0.000000 0.000000 3.277420 
# 
# 
# High freq. dielectric constant tensor:
#      x y z
#    x 1.693060 0.000000 0.000000 
#    y 0.000000 1.701760 0.000000 
#    z 0.000000 0.000000 1.696520 
# 
# From -- ./inp_files/56957.got.cif
#   From: 2010.03.12/outbox.cif.g09.slc.cpg/sg63_29_cif.got.tgz:56957.got - 2010.04.10 19:34:48.
