data_PCOD8257949
_publ_section_title
;
Structure prediction by ZEFSAII (Michael W. Deem and Ramdas Pophale) SiO2 
 PCOD8257949
Probable space group: C M C M
;
_chemical_formula_sum "Si O2"
_cell_formula_units_Z 96
_cell_length_a 26.175145
_cell_length_b 9.407323
_cell_length_c 22.816603
_cell_angle_alpha 90.000000
_cell_angle_beta 90.000000
_cell_angle_gamma 90.000000
_cell_volume 5618.315684
_symmetry_space_group_name_H-M "C M C M"
_symmetry_group_IT_number 63
_symmetry_cell_setting 'orthorhombic'
loop_
_space_group_symop_operation_xyz
x,y,z
-x,-y,1/2+z
x,-y,-z
-x,y,1/2-z
-x,-y,-z
x,y,1/2-z
-x,y,z
x,-y,1/2+z
1/2+x,1/2+y,z
1/2-x,1/2-y,1/2+z
1/2+x,1/2-y,-z
1/2-x,1/2+y,1/2-z
1/2-x,1/2-y,-z
1/2+x,1/2+y,1/2-z
1/2-x,1/2+y,z
1/2+x,1/2-y,1/2+z
loop_
_atom_site_type_symbol
_atom_site_label
_atom_site_fract_x
_atom_site_fract_y
_atom_site_fract_z
Si Si1 0.202107 0.206610 0.622842
Si Si2 0.637385 0.350121 0.473905
Si Si3 0.296797 0.134305 0.541439
Si Si4 0.270785 0.732426 0.750000
Si Si5 0.358810 0.017063 0.372375
Si Si6 0.442047 0.121111 0.048657
Si Si7 0.680158 0.037047 0.750000
O O1 0.155086 0.120802 0.593293
O O2 0.253952 0.175644 0.588295
O O3 0.205207 0.162829 0.691290
O O4 0.187942 0.372849 0.618248
O O5 0.623459 0.500000 0.500000
O O6 0.687325 0.271190 0.502426
O O7 0.586455 0.257164 0.478366
O O8 0.347078 0.104936 0.580368
O O9 0.281867 0.000000 0.500000
O O10 0.211160 0.686005 0.750000
O O11 0.279928 0.903153 0.750000
O O12 0.358158 0.965258 0.305388
O O13 0.414333 0.077737 0.390248
O O14 0.500000 0.161318 0.064294
O O15 0.439578 0.000000 0.000000
#
# Coordination Sequence:
#
# PCOD8257949 Si02
#       7
#    16  16  16   8  16  16   8
#     4  10  21  31  48  71 106 138 176 208 244 304
#     4  11  22  32  49  79 105 131 169 216 259 314
#     4  12  19  32  50  71 106 140 170 204 258 311
#     4  10  20  32  46  68  96 150 170 202 244 290
#     4  10  19  35  52  76 101 137 174 214 248 306
#     4  10  19  37  58  75  98 132 171 215 267 311
#     4  10  20  34  51  70 110 134 179 206 242 296
#
# _framework density 17.086970999999998
#
# number of rings (size 3 to 8) (size 9 to 14) (size 15 to 20)
#    0.000    1.500    6.667    1.000    2.333    0.333 
#    0.000    0.417    0.000    0.000    0.000    0.000 
#    0.000    0.000    0.000    0.000    0.000    0.000 
#
# Total GULP energy -594736.041451 kJ/mol
# GULP energy per Si atom -12390.334197 kJ/mol
# Density = 1.704808 g / cm^3
# Si number density = 17.086971 Si / 1000 Ang^3
#
#
#
# Elastic Constant Matrix: (Units=GPa)
#
#
# Indices 1 2 3 4 5 6 
#
# 1 86.7873 25.7093 42.7007 0.0000 0.0000 0.0000
# 2 25.7093 59.4527 28.1349 0.0000 0.0000 0.0000
# 3 42.7007 28.1349 123.8513 0.0000 0.0000 0.0000
# 4 0.0000 0.0000 0.0000 12.3476 0.0000 0.0000
# 5 0.0000 0.0000 0.0000 0.0000 19.7903 0.0000
# 6 0.0000 0.0000 0.0000 0.0000 0.0000 18.1080
#
#
#
# Elastic Compliance Matrix: (Units=1/GPa)
#
#
# Indices 1 2 3 4 5 6 
#
# 1 0.014873 -0.004487 -0.004109 0.000000 0.000000 0.000000
# 2 -0.004487 0.020200 -0.003042 0.000000 0.000000 0.000000
# 3 -0.004109 -0.003042 0.010182 0.000000 0.000000 0.000000
# 4 0.000000 0.000000 0.000000 0.080987 0.000000 0.000000
# 5 0.000000 0.000000 0.000000 0.000000 0.050530 0.000000
# 6 0.000000 0.000000 0.000000 0.000000 0.000000 0.055224
#
#
# Mechanical properties :
#
#
# Convention : Reuss Voigt Hill
#
# Bulk Modulus (GPa) = 45.49633 51.46457 48.48045
# Shear Modulus (GPa) = 19.04052 21.61893 20.32973
#
# Velocity S-wave (km/s) = 3.34178 3.56086 3.45306
# Velocity P-wave (km/s) = 6.44780 6.86228 6.65827
#
# Compressibility (1/GPa) = 0.02197979
#
# Stress axis : x y z
#
# Youngs Moduli (GPa) = 67.23503 49.50495 98.21572
#
# Poissons Ratio (x) = 0.22215 0.40352
# Poissons Ratio (y) = 0.30171 0.29874
# Poissons Ratio (z) = 0.27624 0.15058
#
# Static dielectric constant tensor:
#      x y z
#    x 3.036420 0.000000 0.000000 
#    y 0.000000 3.109630 0.000000 
#    z 0.000000 0.000000 3.543000 
# 
# 
# High freq. dielectric constant tensor:
#      x y z
#    x 1.627770 0.000000 0.000000 
#    y 0.000000 1.645140 0.000000 
#    z 0.000000 0.000000 1.671840 
# 
# From -- ./inp_files/65380.got.cif
#   From: 2010.03.12/outbox.cif.g09.slc.cpg/sg63_33_cif.got.tgz:65380.got - 2010.04.10 19:34:48.
