data_PCOD8257797
_publ_section_title
;
Structure prediction by ZEFSAII (Michael W. Deem and Ramdas Pophale) SiO2 
 PCOD8257797
Probable space group: C M C M
;
_chemical_formula_sum "Si O2"
_cell_formula_units_Z 88
_cell_length_a 22.827576
_cell_length_b 16.165073
_cell_length_c 13.471629
_cell_angle_alpha 90.000000
_cell_angle_beta 90.000000
_cell_angle_gamma 90.000000
_cell_volume 4971.158172
_symmetry_space_group_name_H-M "C M C M"
_symmetry_group_IT_number 63
_symmetry_cell_setting 'orthorhombic'
loop_
_space_group_symop_operation_xyz
x,y,z
-x,-y,1/2+z
x,-y,-z
-x,y,1/2-z
-x,-y,-z
x,y,1/2-z
-x,y,z
x,-y,1/2+z
1/2+x,1/2+y,z
1/2-x,1/2-y,1/2+z
1/2+x,1/2-y,-z
1/2-x,1/2+y,1/2-z
1/2-x,1/2-y,-z
1/2+x,1/2+y,1/2-z
1/2-x,1/2+y,z
1/2+x,1/2-y,1/2+z
loop_
_atom_site_type_symbol
_atom_site_label
_atom_site_fract_x
_atom_site_fract_y
_atom_site_fract_z
Si Si1 0.836241 0.500000 0.500000
Si Si2 0.432587 0.295988 0.635475
Si Si3 0.277974 0.307938 0.134715
Si Si4 0.762795 0.380159 0.864593
Si Si5 0.350103 0.594931 0.023906
Si Si6 0.854655 0.638782 0.864081
O O1 0.796176 0.449030 0.574583
O O2 0.875245 0.562277 0.566336
O O3 0.423111 0.322032 0.750000
O O4 0.500000 0.276487 0.613312
O O5 0.411783 0.368174 0.561195
O O6 0.395129 0.215423 0.608692
O O7 0.292911 0.318976 0.250000
O O8 0.282229 0.211914 0.103184
O O9 0.212994 0.341214 0.111390
O O10 0.325551 0.359507 0.073813
O O11 0.775587 0.395652 0.750000
O O12 0.694034 0.391341 0.884517
O O13 0.360904 0.500000 0.000000
O O14 0.862841 0.613184 0.750000
#
# Coordination Sequence:
#
# PCOD8257797 Si02
#       6
#     8  16  16  16  16  16
#     4  12  20  30  49  82 113 140 160 214 268 328
#     4  10  22  40  59  75  97 139 188 226 258 300
#     4  10  20  34  53  79 112 145 175 206 259 325
#     4  11  20  31  48  76 113 145 171 205 257 320
#     4  12  21  33  54  81 111 137 169 218 271 318
#     4  10  19  34  54  77 108 141 176 216 257 311
#
# _framework density 17.702112
#
# number of rings (size 3 to 8) (size 9 to 14) (size 15 to 20)
#    0.000    1.273    4.545    2.727    0.000    3.273 
#    0.000    0.455    0.000    0.545    0.000    0.000 
#    0.000    0.000    0.000    0.000    0.000    0.000 
#
# Total GULP energy -545667.842899 kJ/mol
# GULP energy per Si atom -12401.541884 kJ/mol
# Density = 1.766182 g / cm^3
# Si number density = 17.702112 Si / 1000 Ang^3
#
#
#
# Elastic Constant Matrix: (Units=GPa)
#
#
# Indices 1 2 3 4 5 6 
#
# 1 66.4429 37.4650 30.2344 0.0000 0.0000 0.0000
# 2 37.4650 137.5757 71.2367 0.0000 0.0000 0.0000
# 3 30.2344 71.2367 84.1882 0.0000 0.0000 0.0000
# 4 0.0000 0.0000 0.0000 36.4302 0.0000 0.0000
# 5 0.0000 0.0000 0.0000 0.0000 9.0072 0.0000
# 6 0.0000 0.0000 0.0000 0.0000 0.0000 5.7259
#
#
#
# Elastic Compliance Matrix: (Units=1/GPa)
#
#
# Indices 1 2 3 4 5 6 
#
# 1 0.018602 -0.002859 -0.004261 0.000000 0.000000 0.000000
# 2 -0.002859 0.013376 -0.010292 0.000000 0.000000 0.000000
# 3 -0.004261 -0.010292 0.022117 0.000000 0.000000 0.000000
# 4 0.000000 0.000000 0.000000 0.027450 0.000000 0.000000
# 5 0.000000 0.000000 0.000000 0.000000 0.111023 0.000000
# 6 0.000000 0.000000 0.000000 0.000000 0.000000 0.174645
#
#
# Mechanical properties :
#
#
# Convention : Reuss Voigt Hill
#
# Bulk Modulus (GPa) = 51.89161 62.89766 57.39463
# Shear Modulus (GPa) = 12.24110 20.18402 16.21256
#
# Velocity S-wave (km/s) = 2.63250 3.38035 3.02959
# Velocity P-wave (km/s) = 6.21430 7.13050 6.68811
#
# Compressibility (1/GPa) = 0.01927094
#
# Stress axis : x y z
#
# Youngs Moduli (GPa) = 53.75842 74.75812 45.21440
#
# Poissons Ratio (x) = 0.21376 0.19266
# Poissons Ratio (y) = 0.15371 0.46534
# Poissons Ratio (z) = 0.22906 0.76939
#
# Static dielectric constant tensor:
#      x y z
#    x 2.937440 0.000000 0.000000 
#    y 0.000000 3.513050 0.000000 
#    z 0.000000 0.000000 3.601910 
# 
# 
# High freq. dielectric constant tensor:
#      x y z
#    x 1.636780 0.000000 0.000000 
#    y 0.000000 1.699620 0.000000 
#    z 0.000000 0.000000 1.701120 
# 
# From -- ./inp_files/35235.got.cif
#   From: 2010.03.12/outbox.cif.g09.slc.cpg/sg63_18_cif.got.tgz:35235.got - 2010.04.10 19:34:48.
