data_PCOD8257516
_publ_section_title
;
Structure prediction by ZEFSAII (Michael W. Deem and Ramdas Pophale) SiO2 
 PCOD8257516
Probable space group: C M C M
;
_chemical_formula_sum "Si O2"
_cell_formula_units_Z 96
_cell_length_a 9.022418
_cell_length_b 23.402190
_cell_length_c 25.782265
_cell_angle_alpha 90.000000
_cell_angle_beta 90.000000
_cell_angle_gamma 90.000000
_cell_volume 5443.779335
_symmetry_space_group_name_H-M "C M C M"
_symmetry_group_IT_number 63
_symmetry_cell_setting 'orthorhombic'
loop_
_space_group_symop_operation_xyz
x,y,z
-x,-y,1/2+z
x,-y,-z
-x,y,1/2-z
-x,-y,-z
x,y,1/2-z
-x,y,z
x,-y,1/2+z
1/2+x,1/2+y,z
1/2-x,1/2-y,1/2+z
1/2+x,1/2-y,-z
1/2-x,1/2+y,1/2-z
1/2-x,1/2-y,-z
1/2+x,1/2+y,1/2-z
1/2-x,1/2+y,z
1/2+x,1/2-y,1/2+z
loop_
_atom_site_type_symbol
_atom_site_label
_atom_site_fract_x
_atom_site_fract_y
_atom_site_fract_z
Si Si1 0.824967 0.811071 0.498481
Si Si2 0.827666 0.622228 0.907493
Si Si3 0.824241 0.686216 0.806880
Si Si4 0.671451 0.995874 0.558626
Si Si5 0.324777 0.614228 0.096495
Si Si6 0.823938 0.814115 0.692360
O O1 0.750000 0.750000 0.500000
O O2 0.771606 0.845614 0.448889
O O3 0.774767 0.845803 0.549149
O O4 0.000000 0.802943 0.496311
O O5 0.771128 0.642017 0.850786
O O6 0.801803 0.554828 0.911386
O O7 0.000000 0.637992 0.916874
O O8 0.764629 0.666792 0.750000
O O9 0.765200 0.750067 0.819654
O O10 0.000000 0.687922 0.805330
O O11 0.500000 0.978546 0.556336
O O12 0.756848 0.948301 0.590988
O O13 0.734574 0.000000 0.500000
O O14 0.500000 0.607615 0.098268
O O15 0.261028 0.642263 0.149421
O O16 0.771853 0.833334 0.750000
O O17 0.000000 0.813771 0.689209
#
# Coordination Sequence:
#
# PCOD8257516 Si02
#       6
#    16  16  16  16  16  16
#     4  11  22  33  49  75 104 131 163 206 257 305
#     4  10  19  33  52  73 100 132 170 210 250 301
#     4   8  14  27  50  76  99 126 164 210 254 296
#     4  10  20  34  50  70 101 140 171 203 254 301
#     4  10  20  33  51  74  98 128 170 211 243 293
#     4   8  14  27  48  73  98 123 156 203 255 298
#
# _framework density 17.634806000000001
#
# number of rings (size 3 to 8) (size 9 to 14) (size 15 to 20)
#    0.000    2.500    1.667    2.500    0.000    4.333 
#    0.000    0.833    0.000    2.000    0.000    2.333 
#    0.000    0.000    0.000    0.000    0.000    0.000 
#
# Total GULP energy -595101.905046 kJ/mol
# GULP energy per Si atom -12397.956355 kJ/mol
# Density = 1.759467 g / cm^3
# Si number density = 17.634806 Si / 1000 Ang^3
#
#
#
# Elastic Constant Matrix: (Units=GPa)
#
#
# Indices 1 2 3 4 5 6 
#
# 1 24.9776 29.6032 24.8829 0.0000 0.0000 0.0000
# 2 29.6032 123.6430 84.5661 0.0000 0.0000 0.0000
# 3 24.8829 84.5661 166.1541 0.0000 0.0000 0.0000
# 4 0.0000 0.0000 0.0000 24.1773 0.0000 0.0000
# 5 0.0000 0.0000 0.0000 0.0000 16.6304 0.0000
# 6 0.0000 0.0000 0.0000 0.0000 0.0000 26.1053
#
#
#
# Elastic Compliance Matrix: (Units=1/GPa)
#
#
# Indices 1 2 3 4 5 6 
#
# 1 0.056525 -0.011879 -0.002419 0.000000 0.000000 0.000000
# 2 -0.011879 0.014903 -0.005806 0.000000 0.000000 0.000000
# 3 -0.002419 -0.005806 0.009336 0.000000 0.000000 0.000000
# 4 0.000000 0.000000 0.000000 0.041361 0.000000 0.000000
# 5 0.000000 0.000000 0.000000 0.000000 0.060131 0.000000
# 6 0.000000 0.000000 0.000000 0.000000 0.000000 0.038306
#
#
# Mechanical properties :
#
#
# Convention : Reuss Voigt Hill
#
# Bulk Modulus (GPa) = 24.65766 65.87547 45.26657
# Shear Modulus (GPa) = 18.22898 25.09744 21.66321
#
# Velocity S-wave (km/s) = 3.21860 3.77659 3.50871
# Velocity P-wave (km/s) = 5.27496 7.51354 6.49148
#
# Compressibility (1/GPa) = 0.04055534
#
# Stress axis : x y z
#
# Youngs Moduli (GPa) = 17.69140 67.10060 107.11361
#
# Poissons Ratio (x) = 0.79708 0.25912
# Poissons Ratio (y) = 0.21015 0.62191
# Poissons Ratio (z) = 0.04280 0.38959
#
# Static dielectric constant tensor:
#      x y z
#    x 2.923090 0.000000 0.000000 
#    y 0.000000 2.730470 0.000000 
#    z 0.000000 0.000000 3.673850 
# 
# 
# High freq. dielectric constant tensor:
#      x y z
#    x 1.644030 0.000000 0.000000 
#    y 0.000000 1.682930 0.000000 
#    z 0.000000 0.000000 1.690750 
# 
# From -- ./inp_files/59845.got.cif
#   From: 2010.03.12/outbox.cif.g09.slc.cpg/sg63_30_cif.got.tgz:59845.got - 2010.04.10 19:34:48.
