data_PCOD8257106
_publ_section_title
;
Structure prediction by ZEFSAII (Michael W. Deem and Ramdas Pophale) SiO2 
 PCOD8257106
Probable space group: C M C M
;
_chemical_formula_sum "Si O2"
_cell_formula_units_Z 96
_cell_length_a 23.200585
_cell_length_b 25.538117
_cell_length_c 8.999394
_cell_angle_alpha 90.000000
_cell_angle_beta 90.000000
_cell_angle_gamma 90.000000
_cell_volume 5332.134233
_symmetry_space_group_name_H-M "C M C M"
_symmetry_group_IT_number 63
_symmetry_cell_setting 'orthorhombic'
loop_
_space_group_symop_operation_xyz
x,y,z
-x,-y,1/2+z
x,-y,-z
-x,y,1/2-z
-x,-y,-z
x,y,1/2-z
-x,y,z
x,-y,1/2+z
1/2+x,1/2+y,z
1/2-x,1/2-y,1/2+z
1/2+x,1/2-y,-z
1/2-x,1/2+y,1/2-z
1/2-x,1/2-y,-z
1/2+x,1/2+y,1/2-z
1/2-x,1/2+y,z
1/2+x,1/2-y,1/2+z
loop_
_atom_site_type_symbol
_atom_site_label
_atom_site_fract_x
_atom_site_fract_y
_atom_site_fract_z
Si Si1 0.933443 0.746414 0.920266
Si Si2 0.365927 0.346717 0.574795
Si Si3 0.122104 0.651321 0.425315
Si Si4 0.245140 0.305695 0.576117
Si Si5 0.933632 0.445588 0.076416
Si Si6 0.066320 0.053504 0.424795
O O1 0.915577 0.734079 0.750000
O O2 0.897997 0.795211 0.987370
O O3 0.000000 0.761344 0.930811
O O4 0.921184 0.696014 0.019927
O O5 0.375614 0.347708 0.750000
O O6 0.298689 0.343018 0.530268
O O7 0.394336 0.399527 0.509126
O O8 0.115296 0.644417 0.250000
O O9 0.187070 0.665421 0.473267
O O10 0.107270 0.597482 0.505026
O O11 0.245932 0.294584 0.750000
O O12 0.250000 0.250000 0.500000
O O13 0.920574 0.450183 0.250000
O O14 0.000000 0.430313 0.046580
O O15 0.917883 0.500000 0.000000
O O16 0.074716 0.047096 0.250000
O O17 0.000000 0.065759 0.465360
O O18 0.087377 0.000000 0.500000
#
# Coordination Sequence:
#
# PCOD8257106 Si02
#       6
#    16  16  16  16  16  16
#     4  10  19  31  51  77 102 133 175 219 264 317
#     4   9  17  32  53  74 100 134 174 218 259 306
#     4  11  22  34  51  78 110 142 176 215 264 321
#     4  10  20  35  54  75 102 141 181 218 261 311
#     4  10  21  38  60  83 107 139 178 220 268 320
#     4   9  17  31  52  76 101 131 167 208 257 308
#
# _framework density 18.004048000000001
#
# number of rings (size 3 to 8) (size 9 to 14) (size 15 to 20)
#    0.000    2.167    1.667    2.000    0.000    6.000 
#    0.000    2.500    0.000    4.000    0.000    0.000 
#    0.000    0.000    0.000    0.000    0.000    0.000 
#
# Total GULP energy -595295.300304 kJ/mol
# GULP energy per Si atom -12401.985423 kJ/mol
# Density = 1.796307 g / cm^3
# Si number density = 18.004048 Si / 1000 Ang^3
#
#
#
# Elastic Constant Matrix: (Units=GPa)
#
#
# Indices 1 2 3 4 5 6 
#
# 1 105.5723 67.8415 38.6362 0.0000 0.0000 0.0000
# 2 67.8415 151.0957 52.7607 0.0000 0.0000 0.0000
# 3 38.6362 52.7607 57.5809 0.0000 0.0000 0.0000
# 4 0.0000 0.0000 0.0000 32.9331 0.0000 0.0000
# 5 0.0000 0.0000 0.0000 0.0000 21.5582 0.0000
# 6 0.0000 0.0000 0.0000 0.0000 0.0000 28.6318
#
#
#
# Elastic Compliance Matrix: (Units=1/GPa)
#
#
# Indices 1 2 3 4 5 6 
#
# 1 0.014408 -0.004549 -0.005500 0.000000 0.000000 0.000000
# 2 -0.004549 0.011168 -0.007181 0.000000 0.000000 0.000000
# 3 -0.005500 -0.007181 0.027637 0.000000 0.000000 0.000000
# 4 0.000000 0.000000 0.000000 0.030365 0.000000 0.000000
# 5 0.000000 0.000000 0.000000 0.000000 0.046386 0.000000
# 6 0.000000 0.000000 0.000000 0.000000 0.000000 0.034926
#
#
# Mechanical properties :
#
#
# Convention : Reuss Voigt Hill
#
# Bulk Modulus (GPa) = 53.32145 70.30288 61.81217
# Shear Modulus (GPa) = 24.31900 26.95866 25.63883
#
# Velocity S-wave (km/s) = 3.67924 3.87378 3.77776
# Velocity P-wave (km/s) = 6.90867 7.69034 7.30996
#
# Compressibility (1/GPa) = 0.01875418
#
# Stress axis : x y z
#
# Youngs Moduli (GPa) = 69.40631 89.53950 36.18325
#
# Poissons Ratio (x) = 0.40729 0.19900
# Poissons Ratio (y) = 0.31571 0.25984
# Poissons Ratio (z) = 0.38171 0.64300
#
# Static dielectric constant tensor:
#      x y z
#    x 3.509600 0.000000 0.000000 
#    y 0.000000 3.427350 0.000000 
#    z 0.000000 0.000000 3.185380 
# 
# 
# High freq. dielectric constant tensor:
#      x y z
#    x 1.698490 0.000000 0.000000 
#    y 0.000000 1.700750 0.000000 
#    z 0.000000 0.000000 1.681090 
# 
# From -- ./inp_files/8606.got.cif
#   From: 2010.03.12/outbox.cif.g09.slc.cpg/sg63_5_cif.got.tgz:8606.got - 2010.04.10 19:34:48.
