data_PCOD8257737
_publ_section_title
;
Structure prediction by ZEFSAII (Michael W. Deem and Ramdas Pophale) SiO2 
 PCOD8257737
Probable space group: C M C M
;
_chemical_formula_sum "Si O2"
_cell_formula_units_Z 64
_cell_length_a 18.424014
_cell_length_b 24.095888
_cell_length_c 7.643970
_cell_angle_alpha 90.000000
_cell_angle_beta 90.000000
_cell_angle_gamma 90.000000
_cell_volume 3393.486804
_symmetry_space_group_name_H-M "C M C M"
_symmetry_group_IT_number 63
_symmetry_cell_setting 'orthorhombic'
loop_
_space_group_symop_operation_xyz
x,y,z
-x,-y,1/2+z
x,-y,-z
-x,y,1/2-z
-x,-y,-z
x,y,1/2-z
-x,y,z
x,-y,1/2+z
1/2+x,1/2+y,z
1/2-x,1/2-y,1/2+z
1/2+x,1/2-y,-z
1/2-x,1/2+y,1/2-z
1/2-x,1/2-y,-z
1/2+x,1/2+y,1/2-z
1/2-x,1/2+y,z
1/2+x,1/2-y,1/2+z
loop_
_atom_site_type_symbol
_atom_site_label
_atom_site_fract_x
_atom_site_fract_y
_atom_site_fract_z
Si Si1 0.413835 0.867032 0.750000
Si Si2 0.313881 0.560235 0.452468
Si Si3 0.084607 0.838902 0.950172
Si Si4 0.414208 0.742419 0.750000
Si Si5 0.846579 0.562341 0.554309
O O1 0.500000 0.868547 0.750000
O O2 0.382230 0.804382 0.750000
O O3 0.385632 0.895592 0.574953
O O4 0.346484 0.500000 0.500000
O O5 0.293365 0.563212 0.250000
O O6 0.373649 0.605357 0.504703
O O7 0.239896 0.571304 0.556533
O O8 0.100973 0.821584 0.750000
O O9 0.000000 0.851372 0.979039
O O10 0.112200 0.789458 0.075248
O O11 0.500000 0.746075 0.750000
O O12 0.866601 0.500000 0.500000
O O13 0.875637 0.573698 0.750000
#
# Coordination Sequence:
#
# PCOD8257737 Si02
#       5
#     8  16  16   8  16
#     4  11  24  42  61  86 111 139 187 234 279 346
#     4  10  19  33  57  84 117 155 187 227 278 332
#     4   9  19  35  56  83 115 152 194 234 268 316
#     4   9  20  38  59  78 110 153 187 226 282 332
#     4  11  21  39  61  84 116 149 178 224 287 343
#
# _framework density 18.859658
#
# number of rings (size 3 to 8) (size 9 to 14) (size 15 to 20)
#    0.000    2.000    2.500    2.250    3.500    2.500 
#    0.000    3.750    0.000    0.000    0.000    0.000 
#    0.000    0.000    0.000    0.000    0.000    0.000 
#
# Total GULP energy -396843.452062 kJ/mol
# GULP energy per Si atom -12401.357877 kJ/mol
# Density = 1.881673 g / cm^3
# Si number density = 18.859658 Si / 1000 Ang^3
#
#
#
# Elastic Constant Matrix: (Units=GPa)
#
#
# Indices 1 2 3 4 5 6 
#
# 1 52.4170 60.4327 36.4379 0.0000 0.0000 0.0000
# 2 60.4327 175.0750 87.2420 0.0000 0.0000 0.0000
# 3 36.4379 87.2420 151.9291 0.0000 0.0000 0.0000
# 4 0.0000 0.0000 0.0000 35.3403 0.0000 0.0000
# 5 0.0000 0.0000 0.0000 0.0000 23.2504 0.0000
# 6 0.0000 0.0000 0.0000 0.0000 0.0000 1.1549
#
#
#
# Elastic Compliance Matrix: (Units=1/GPa)
#
#
# Indices 1 2 3 4 5 6 
#
# 1 0.032064 -0.010136 -0.001869 0.000000 0.000000 0.000000
# 2 -0.010136 0.011206 -0.004004 0.000000 0.000000 0.000000
# 3 -0.001869 -0.004004 0.009329 0.000000 0.000000 0.000000
# 4 0.000000 0.000000 0.000000 0.028296 0.000000 0.000000
# 5 0.000000 0.000000 0.000000 0.000000 0.043010 0.000000
# 6 0.000000 0.000000 0.000000 0.000000 0.000000 0.865876
#
#
# Mechanical properties :
#
#
# Convention : Reuss Voigt Hill
#
# Bulk Modulus (GPa) = 48.59060 83.07180 65.83120
# Shear Modulus (GPa) = 4.86069 24.96968 14.91519
#
# Velocity S-wave (km/s) = 1.60714 3.64259 2.81526
# Velocity P-wave (km/s) = 5.40963 7.86348 6.74901
#
# Compressibility (1/GPa) = 0.02058011
#
# Stress axis : x y z
#
# Youngs Moduli (GPa) = 31.18799 89.24010 107.18821
#
# Poissons Ratio (x) = 0.90455 0.20039
# Poissons Ratio (y) = 0.31613 0.42914
# Poissons Ratio (z) = 0.05831 0.35728
#
# Static dielectric constant tensor:
#      x y z
#    x 3.226960 0.000000 0.000000 
#    y 0.000000 3.631160 0.000000 
#    z 0.000000 0.000000 3.603760 
# 
# 
# High freq. dielectric constant tensor:
#      x y z
#    x 1.710600 0.000000 0.000000 
#    y 0.000000 1.729810 0.000000 
#    z 0.000000 0.000000 1.751180 
# 
# From -- ./inp_files/5787.got.cif
#   From: 2010.03.12/outbox.cif.g09.slc.cpg/sg63_3_cif.got.tgz:5787.got - 2010.04.10 19:34:48.
