data_PCOD8257062
_publ_section_title
;
Structure prediction by ZEFSAII (Michael W. Deem and Ramdas Pophale) SiO2 
 PCOD8257062
Probable space group: C M C M
;
_chemical_formula_sum "Si O2"
_cell_formula_units_Z 96
_cell_length_a 8.768374
_cell_length_b 26.828844
_cell_length_c 22.910188
_cell_angle_alpha 90.000000
_cell_angle_beta 90.000000
_cell_angle_gamma 90.000000
_cell_volume 5389.514924
_symmetry_space_group_name_H-M "C M C M"
_symmetry_group_IT_number 63
_symmetry_cell_setting 'orthorhombic'
loop_
_space_group_symop_operation_xyz
x,y,z
-x,-y,1/2+z
x,-y,-z
-x,y,1/2-z
-x,-y,-z
x,y,1/2-z
-x,y,z
x,-y,1/2+z
1/2+x,1/2+y,z
1/2-x,1/2-y,1/2+z
1/2+x,1/2-y,-z
1/2-x,1/2+y,1/2-z
1/2-x,1/2-y,-z
1/2+x,1/2+y,1/2-z
1/2-x,1/2+y,z
1/2+x,1/2-y,1/2+z
loop_
_atom_site_type_symbol
_atom_site_label
_atom_site_fract_x
_atom_site_fract_y
_atom_site_fract_z
Si Si1 0.832128 0.554906 0.009314
Si Si2 0.181378 0.195658 0.503045
Si Si3 0.830287 0.375127 0.404217
Si Si4 0.174120 0.120066 0.093796
Si Si5 0.821987 0.051978 0.681813
Si Si6 0.179114 0.552165 0.316218
O O1 0.845126 0.578633 0.946556
O O2 0.000000 0.558790 0.040620
O O3 0.777826 0.500000 0.000000
O O4 0.694923 0.576545 0.046966
O O5 0.250000 0.250000 0.500000
O O6 0.242255 0.169179 0.561968
O O7 0.233046 0.168975 0.441901
O O8 0.000000 0.196847 0.506991
O O9 0.744037 0.397724 0.348070
O O10 0.000000 0.355994 0.386312
O O11 0.269696 0.102893 0.150302
O O12 0.000000 0.126266 0.112938
O O13 0.785240 0.057879 0.750000
O O14 0.000000 0.049629 0.668398
O O15 0.750812 0.999452 0.658849
O O16 0.233664 0.560016 0.250000
O O17 0.000000 0.546429 0.321194
#
# Coordination Sequence:
#
# PCOD8257062 Si02
#       6
#    16  16  16  16  16  16
#     4   9  17  28  43  66  97 130 162 197 239 291
#     4  10  21  37  56  78 102 129 165 211 263 314
#     4  10  19  31  50  75 102 133 168 207 252 302
#     4  10  20  32  49  73  99 128 163 205 252 300
#     4  10  20  33  50  74 106 142 176 210 248 291
#     4  10  20  33  50  73 103 140 177 208 242 291
#
# _framework density 17.812363000000001
#
# number of rings (size 3 to 8) (size 9 to 14) (size 15 to 20)
#    0.000    2.167    0.000    3.500    0.000    6.333 
#    0.000    0.000    0.000    1.000    0.000    4.667 
#    0.000    0.000    0.000    0.000    0.000    0.000 
#
# Total GULP energy -594705.497079 kJ/mol
# GULP energy per Si atom -12389.697856 kJ/mol
# Density = 1.777182 g / cm^3
# Si number density = 17.812363 Si / 1000 Ang^3
#
#
#
# Elastic Constant Matrix: (Units=GPa)
#
#
# Indices 1 2 3 4 5 6 
#
# 1 83.6831 44.3304 33.5313 0.0000 0.0000 0.0000
# 2 44.3304 129.6547 46.8835 0.0000 0.0000 0.0000
# 3 33.5313 46.8835 79.6811 0.0000 0.0000 0.0000
# 4 0.0000 0.0000 0.0000 25.8649 0.0000 0.0000
# 5 0.0000 0.0000 0.0000 0.0000 28.8421 0.0000
# 6 0.0000 0.0000 0.0000 0.0000 0.0000 21.2459
#
#
#
# Elastic Compliance Matrix: (Units=1/GPa)
#
#
# Indices 1 2 3 4 5 6 
#
# 1 0.015713 -0.003787 -0.004384 0.000000 0.000000 0.000000
# 2 -0.003787 0.010710 -0.004708 0.000000 0.000000 0.000000
# 3 -0.004384 -0.004708 0.017165 0.000000 0.000000 0.000000
# 4 0.000000 0.000000 0.000000 0.038662 0.000000 0.000000
# 5 0.000000 0.000000 0.000000 0.000000 0.034671 0.000000
# 6 0.000000 0.000000 0.000000 0.000000 0.000000 0.047068
#
#
# Mechanical properties :
#
#
# Convention : Reuss Voigt Hill
#
# Bulk Modulus (GPa) = 56.08617 60.27882 58.18250
# Shear Modulus (GPa) = 25.55051 26.40882 25.97966
#
# Velocity S-wave (km/s) = 3.79149 3.85465 3.82320
# Velocity P-wave (km/s) = 7.12199 7.32977 7.22663
#
# Compressibility (1/GPa) = 0.01782971
#
# Stress axis : x y z
#
# Youngs Moduli (GPa) = 63.64313 93.36996 58.25807
#
# Poissons Ratio (x) = 0.35360 0.25540
# Poissons Ratio (y) = 0.24102 0.27428
# Poissons Ratio (z) = 0.27900 0.43959
#
# Static dielectric constant tensor:
#      x y z
#    x 3.468560 0.000000 0.000000 
#    y 0.000000 3.208110 0.000000 
#    z 0.000000 0.000000 3.328380 
# 
# 
# High freq. dielectric constant tensor:
#      x y z
#    x 1.701190 0.000000 0.000000 
#    y 0.000000 1.666160 0.000000 
#    z 0.000000 0.000000 1.681320 
# 
# From -- ./inp_files/51329.got.cif
#   From: 2010.03.12/outbox.cif.g09.slc.cpg/sg63_26_cif.got.tgz:51329.got - 2010.04.10 19:34:48.
