data_PCOD8257624
_publ_section_title
;
Structure prediction by ZEFSAII (Michael W. Deem and Ramdas Pophale) SiO2 
 PCOD8257624
Probable space group: C M C M
;
_chemical_formula_sum "Si O2"
_cell_formula_units_Z 104
_cell_length_a 19.950174
_cell_length_b 32.193275
_cell_length_c 8.856030
_cell_angle_alpha 90.000000
_cell_angle_beta 90.000000
_cell_angle_gamma 90.000000
_cell_volume 5687.886562
_symmetry_space_group_name_H-M "C M C M"
_symmetry_group_IT_number 63
_symmetry_cell_setting 'orthorhombic'
loop_
_space_group_symop_operation_xyz
x,y,z
-x,-y,1/2+z
x,-y,-z
-x,y,1/2-z
-x,-y,-z
x,y,1/2-z
-x,y,z
x,-y,1/2+z
1/2+x,1/2+y,z
1/2-x,1/2-y,1/2+z
1/2+x,1/2-y,-z
1/2-x,1/2+y,1/2-z
1/2-x,1/2-y,-z
1/2+x,1/2+y,1/2-z
1/2-x,1/2+y,z
1/2+x,1/2-y,1/2+z
loop_
_atom_site_type_symbol
_atom_site_label
_atom_site_fract_x
_atom_site_fract_y
_atom_site_fract_z
Si Si1 0.077483 0.318035 0.576348
Si Si2 0.076429 0.769582 0.926670
Si Si3 0.770682 0.543330 0.077222
Si Si4 0.674703 0.334297 0.075505
Si Si5 0.187070 0.628429 0.572466
Si Si6 0.500000 0.543289 0.425127
Si Si7 0.134909 0.084948 0.422544
O O1 0.099959 0.319168 0.750000
O O2 0.092456 0.272475 0.513803
O O3 0.117963 0.352174 0.483325
O O4 0.000000 0.329586 0.556508
O O5 0.083741 0.761036 0.750000
O O6 0.000000 0.785047 0.963845
O O7 0.133437 0.802012 0.974653
O O8 0.794265 0.541172 0.250000
O O9 0.690603 0.549015 0.063928
O O10 0.791983 0.500000 0.000000
O O11 0.805575 0.583338 0.002985
O O12 0.665243 0.322203 0.250000
O O13 0.753529 0.338502 0.030710
O O14 0.646206 0.379570 0.044203
O O15 0.185631 0.620994 0.750000
O O16 0.500000 0.500000 0.500000
O O17 0.500000 0.535517 0.250000
O O18 0.564744 0.567793 0.477370
O O19 0.133145 0.102329 0.250000
#
# Coordination Sequence:
#
# PCOD8257624 Si02
#       7
#    16  16  16  16  16   8  16
#     4  10  21  38  60  85 111 139 174 217 265 320
#     4  10  21  36  55  78 107 146 187 225 268 321
#     4  10  19  33  54  78 106 140 178 222 269 318
#     4  10  21  35  52  77 107 140 182 228 271 314
#     4  10  21  37  57  82 111 143 180 220 266 322
#     4  10  20  32  46  66  94 130 176 224 272 322
#     4   9  19  33  48  69 100 138 178 223 272 321
#
# _framework density 18.284471
#
# number of rings (size 3 to 8) (size 9 to 14) (size 15 to 20)
#    0.000    2.154    0.000    2.769    1.077    5.538 
#    0.000    0.000    0.000    0.462    0.000    0.000 
#    0.000    0.000    0.000    0.000    0.000    0.000 
#
# Total GULP energy -644691.818922 kJ/mol
# GULP energy per Si atom -12397.919595 kJ/mol
# Density = 1.824285 g / cm^3
# Si number density = 18.284471 Si / 1000 Ang^3
#
#
#
# Elastic Constant Matrix: (Units=GPa)
#
#
# Indices 1 2 3 4 5 6 
#
# 1 80.0534 49.2561 40.4129 0.0000 0.0000 0.0000
# 2 49.2561 83.5885 41.0203 0.0000 0.0000 0.0000
# 3 40.4129 41.0203 76.3608 0.0000 0.0000 0.0000
# 4 0.0000 0.0000 0.0000 39.2037 0.0000 0.0000
# 5 0.0000 0.0000 0.0000 0.0000 27.6379 0.0000
# 6 0.0000 0.0000 0.0000 0.0000 0.0000 73.0432
#
#
#
# Elastic Compliance Matrix: (Units=1/GPa)
#
#
# Indices 1 2 3 4 5 6 
#
# 1 0.021581 -0.009658 -0.006233 0.000000 0.000000 0.000000
# 2 -0.009658 0.020568 -0.005938 0.000000 0.000000 0.000000
# 3 -0.006233 -0.005938 0.019584 0.000000 0.000000 0.000000
# 4 0.000000 0.000000 0.000000 0.025508 0.000000 0.000000
# 5 0.000000 0.000000 0.000000 0.000000 0.036182 0.000000
# 6 0.000000 0.000000 0.000000 0.000000 0.000000 0.013691
#
#
# Mechanical properties :
#
#
# Convention : Reuss Voigt Hill
#
# Bulk Modulus (GPa) = 55.32325 55.70901 55.51613
# Shear Modulus (GPa) = 26.76702 35.26454 31.01578
#
# Velocity S-wave (km/s) = 3.83027 4.39642 4.12307
# Velocity P-wave (km/s) = 7.06286 7.50369 7.28661
#
# Compressibility (1/GPa) = 0.01807558
#
# Stress axis : x y z
#
# Youngs Moduli (GPa) = 46.33757 48.61811 51.06147
#
# Poissons Ratio (x) = 0.46955 0.31827
# Poissons Ratio (y) = 0.44753 0.30319
# Poissons Ratio (z) = 0.28883 0.28868
#
# Static dielectric constant tensor:
#      x y z
#    x 3.645200 0.000000 0.000000 
#    y 0.000000 3.198930 0.000000 
#    z 0.000000 0.000000 3.421430 
# 
# 
# High freq. dielectric constant tensor:
#      x y z
#    x 1.701250 0.000000 0.000000 
#    y 0.000000 1.701830 0.000000 
#    z 0.000000 0.000000 1.721640 
# 
# From -- ./inp_files/9128.got.cif
#   From: 2010.03.12/outbox.cif.g09.slc.cpg/sg63_5_cif.got.tgz:9128.got - 2010.04.10 19:34:48.
