data_PCOD8257630
_publ_section_title
;
Structure prediction by ZEFSAII (Michael W. Deem and Ramdas Pophale) SiO2 
 PCOD8257630
Probable space group: C M C M
;
_chemical_formula_sum "Si O2"
_cell_formula_units_Z 72
_cell_length_a 17.987547
_cell_length_b 23.606702
_cell_length_c 8.842337
_cell_angle_alpha 90.000000
_cell_angle_beta 90.000000
_cell_angle_gamma 90.000000
_cell_volume 3754.692042
_symmetry_space_group_name_H-M "C M C M"
_symmetry_group_IT_number 63
_symmetry_cell_setting 'orthorhombic'
loop_
_space_group_symop_operation_xyz
x,y,z
-x,-y,1/2+z
x,-y,-z
-x,y,1/2-z
-x,-y,-z
x,y,1/2-z
-x,y,z
x,-y,1/2+z
1/2+x,1/2+y,z
1/2-x,1/2-y,1/2+z
1/2+x,1/2-y,-z
1/2-x,1/2+y,1/2-z
1/2-x,1/2-y,-z
1/2+x,1/2+y,1/2-z
1/2-x,1/2+y,z
1/2+x,1/2-y,1/2+z
loop_
_atom_site_type_symbol
_atom_site_label
_atom_site_fract_x
_atom_site_fract_y
_atom_site_fract_z
Si Si1 0.000000 0.060954 0.927156
Si Si2 0.917501 0.242656 0.570672
Si Si3 0.279917 0.939196 0.570983
Si Si4 0.416937 0.867845 0.929771
Si Si5 0.852620 0.872542 0.071307
O O1 0.072999 0.094789 0.978313
O O2 0.000000 0.052595 0.750000
O O3 0.000000 0.000000 0.000000
O O4 0.922254 0.241764 0.750000
O O5 0.891871 0.304997 0.513962
O O6 0.861250 0.193163 0.519326
O O7 0.000000 0.230000 0.506395
O O8 0.279473 0.945195 0.750000
O O9 0.358322 0.914080 0.509974
O O10 0.215659 0.896818 0.521693
O O11 0.265811 0.000000 0.500000
O O12 0.417620 0.868254 0.750000
O O13 0.500000 0.882425 0.990503
O O14 0.837816 0.878600 0.250000
#
# Coordination Sequence:
#
# PCOD8257630 Si02
#       5
#     8  16  16  16  16
#     4  10  20  32  48  72 100 136 179 212 242 292
#     4   8  13  27  53  81 106 133 169 211 254 308
#     4  11  23  37  52  75 106 139 177 219 262 308
#     4   8  16  32  55  80 104 133 171 215 262 313
#     4  10  19  33  54  79 106 137 173 212 256 306
#
# _framework density 19.176006000000001
#
# number of rings (size 3 to 8) (size 9 to 14) (size 15 to 20)
#    0.000    2.667    1.111    2.667    0.000    4.000 
#    0.000    0.000    0.000    3.333    0.000    6.222 
#    0.000    0.000    0.000    0.000    0.000    0.000 
#
# Total GULP energy -446194.725411 kJ/mol
# GULP energy per Si atom -12394.297928 kJ/mol
# Density = 1.913236 g / cm^3
# Si number density = 19.176006 Si / 1000 Ang^3
#
#
#
# Elastic Constant Matrix: (Units=GPa)
#
#
# Indices 1 2 3 4 5 6 
#
# 1 112.0222 35.1760 24.0230 0.0000 0.0000 0.0000
# 2 35.1760 68.5097 15.9730 0.0000 0.0000 0.0000
# 3 24.0230 15.9730 28.3655 0.0000 0.0000 0.0000
# 4 0.0000 0.0000 0.0000 9.8488 0.0000 0.0000
# 5 0.0000 0.0000 0.0000 0.0000 19.0608 0.0000
# 6 0.0000 0.0000 0.0000 0.0000 0.0000 35.3215
#
#
#
# Elastic Compliance Matrix: (Units=1/GPa)
#
#
# Indices 1 2 3 4 5 6 
#
# 1 0.011933 -0.004341 -0.007662 0.000000 0.000000 0.000000
# 2 -0.004341 0.018381 -0.006675 0.000000 0.000000 0.000000
# 3 -0.007662 -0.006675 0.045502 0.000000 0.000000 0.000000
# 4 0.000000 0.000000 0.000000 0.101535 0.000000 0.000000
# 5 0.000000 0.000000 0.000000 0.000000 0.052464 0.000000
# 6 0.000000 0.000000 0.000000 0.000000 0.000000 0.028311
#
#
# Mechanical properties :
#
#
# Convention : Reuss Voigt Hill
#
# Bulk Modulus (GPa) = 25.99997 39.91569 32.95783
# Shear Modulus (GPa) = 16.21794 21.76125 18.98960
#
# Velocity S-wave (km/s) = 2.91132 3.37236 3.15028
# Velocity P-wave (km/s) = 4.98889 6.00203 5.51876
#
# Compressibility (1/GPa) = 0.03846159
#
# Stress axis : x y z
#
# Youngs Moduli (GPa) = 83.80241 54.40308 21.97729
#
# Poissons Ratio (x) = 0.23614 0.16839
# Poissons Ratio (y) = 0.36375 0.14669
# Poissons Ratio (z) = 0.64208 0.36313
#
# Static dielectric constant tensor:
#      x y z
#    x 3.724800 0.000000 0.000000 
#    y 0.000000 3.838470 0.000000 
#    z 0.000000 0.000000 3.001870 
# 
# 
# High freq. dielectric constant tensor:
#      x y z
#    x 1.746760 0.000000 0.000000 
#    y 0.000000 1.761360 0.000000 
#    z 0.000000 0.000000 1.695560 
# 
# From -- ./inp_files/4656.got.cif
#   From: 2010.03.12/outbox.cif.g09.slc.cpg/sg63_3_cif.got.tgz:4656.got - 2010.04.10 19:34:48.
