data_PCOD8257319
_publ_section_title
;
Structure prediction by ZEFSAII (Michael W. Deem and Ramdas Pophale) SiO2 
 PCOD8257319
Probable space group: C M C M
;
_chemical_formula_sum "Si O2"
_cell_formula_units_Z 112
_cell_length_a 13.995983
_cell_length_b 18.304923
_cell_length_c 24.990530
_cell_angle_alpha 90.000000
_cell_angle_beta 90.000000
_cell_angle_gamma 90.000000
_cell_volume 6402.458608
_symmetry_space_group_name_H-M "C M C M"
_symmetry_group_IT_number 63
_symmetry_cell_setting 'orthorhombic'
loop_
_space_group_symop_operation_xyz
x,y,z
-x,-y,1/2+z
x,-y,-z
-x,y,1/2-z
-x,-y,-z
x,y,1/2-z
-x,y,z
x,-y,1/2+z
1/2+x,1/2+y,z
1/2-x,1/2-y,1/2+z
1/2+x,1/2-y,-z
1/2-x,1/2+y,1/2-z
1/2-x,1/2-y,-z
1/2+x,1/2+y,1/2-z
1/2-x,1/2+y,z
1/2+x,1/2-y,1/2+z
loop_
_atom_site_type_symbol
_atom_site_label
_atom_site_fract_x
_atom_site_fract_y
_atom_site_fract_z
Si Si1 0.888292 0.679340 0.585531
Si Si2 0.110438 0.037829 0.872241
Si Si3 0.106206 0.884511 0.656599
Si Si4 0.104319 0.816751 0.311685
Si Si5 0.392581 0.666329 0.462646
Si Si6 0.244225 0.069655 0.966403
Si Si7 0.201101 0.745395 0.689613
O O1 0.867505 0.748440 0.547171
O O2 0.832667 0.609170 0.562819
O O3 0.857885 0.698119 0.646670
O O4 0.000000 0.660095 0.586530
O O5 0.133224 0.969059 0.833093
O O6 0.000000 0.035411 0.889531
O O7 0.137412 0.110495 0.841148
O O8 0.173051 0.032432 0.924930
O O9 0.111158 0.875233 0.593127
O O10 0.177511 0.831141 0.687359
O O11 0.000000 0.866003 0.677643
O O12 0.097479 0.836852 0.250000
O O13 0.185517 0.757149 0.323579
O O14 0.000000 0.788834 0.332137
O O15 0.500000 0.659606 0.487285
O O16 0.314149 0.631179 0.501222
O O17 0.283312 0.000000 0.000000
O O18 0.180777 0.715884 0.750000
#
# Coordination Sequence:
#
# PCOD8257319 Si02
#       7
#    16  16  16  16  16  16  16
#     4  10  22  38  52  74 107 137 173 223 262 299
#     4  10  19  32  51  79 110 134 167 215 262 311
#     4   9  18  31  49  77 109 133 163 212 260 298
#     4   9  18  33  53  78 106 133 163 207 262 313
#     4   9  18  33  52  75 104 134 167 213 260 302
#     4  12  21  32  54  77 102 144 180 208 255 315
#     4  10  19  34  57  80 101 133 172 209 261 318
#
# _framework density 17.493279000000001
#
# number of rings (size 3 to 8) (size 9 to 14) (size 15 to 20)
#    0.000    2.143    2.857    2.143    0.000    2.571 
#    0.000    1.429    0.000    0.857    0.000    0.000 
#    0.000    0.000    0.000    0.000    0.000    0.000 
#
# Total GULP energy -694103.118893 kJ/mol
# GULP energy per Si atom -12394.698552 kJ/mol
# Density = 1.745346 g / cm^3
# Si number density = 17.493279 Si / 1000 Ang^3
#
#
#
# Elastic Constant Matrix: (Units=GPa)
#
#
# Indices 1 2 3 4 5 6 
#
# 1 105.9691 65.6517 48.6746 0.0000 0.0000 0.0000
# 2 65.6517 100.2477 37.4536 0.0000 0.0000 0.0000
# 3 48.6746 37.4536 57.6739 0.0000 0.0000 0.0000
# 4 0.0000 0.0000 0.0000 18.9984 0.0000 0.0000
# 5 0.0000 0.0000 0.0000 0.0000 22.0950 0.0000
# 6 0.0000 0.0000 0.0000 0.0000 0.0000 26.6572
#
#
#
# Elastic Compliance Matrix: (Units=1/GPa)
#
#
# Indices 1 2 3 4 5 6 
#
# 1 0.020151 -0.009035 -0.011139 0.000000 0.000000 0.000000
# 2 -0.009035 0.017222 -0.003559 0.000000 0.000000 0.000000
# 3 -0.011139 -0.003559 0.029051 0.000000 0.000000 0.000000
# 4 0.000000 0.000000 0.000000 0.052636 0.000000 0.000000
# 5 0.000000 0.000000 0.000000 0.000000 0.045259 0.000000
# 6 0.000000 0.000000 0.000000 0.000000 0.000000 0.037513
#
#
# Mechanical properties :
#
#
# Convention : Reuss Voigt Hill
#
# Bulk Modulus (GPa) = 52.74861 63.05004 57.89932
# Shear Modulus (GPa) = 19.56052 21.02416 20.29234
#
# Velocity S-wave (km/s) = 3.34754 3.47052 3.40958
# Velocity P-wave (km/s) = 6.72015 7.22357 6.97641
#
# Compressibility (1/GPa) = 0.01895785
#
# Stress axis : x y z
#
# Youngs Moduli (GPa) = 49.62608 58.06598 34.42223
#
# Poissons Ratio (x) = 0.52462 0.38343
# Poissons Ratio (y) = 0.44837 0.12250
# Poissons Ratio (z) = 0.55279 0.20664
#
# Static dielectric constant tensor:
#      x y z
#    x 3.309040 0.000000 0.000000 
#    y 0.000000 3.289200 0.000000 
#    z 0.000000 0.000000 3.167980 
# 
# 
# High freq. dielectric constant tensor:
#      x y z
#    x 1.669960 0.000000 0.000000 
#    y 0.000000 1.669630 0.000000 
#    z 0.000000 0.000000 1.669740 
# 
# From -- ./inp_files/61767.got.cif
#   From: 2010.03.12/outbox.cif.g09.slc.cpg/sg63_31_cif.got.tgz:61767.got - 2010.04.10 19:34:48.
