data_PCOD8257620
_publ_section_title
;
Structure prediction by ZEFSAII (Michael W. Deem and Ramdas Pophale) SiO2 
 PCOD8257620
Probable space group: C M C M
;
_chemical_formula_sum "Si O2"
_cell_formula_units_Z 80
_cell_length_a 26.652795
_cell_length_b 18.249776
_cell_length_c 8.931919
_cell_angle_alpha 90.000000
_cell_angle_beta 90.000000
_cell_angle_gamma 90.000000
_cell_volume 4344.552735
_symmetry_space_group_name_H-M "C M C M"
_symmetry_group_IT_number 63
_symmetry_cell_setting 'orthorhombic'
loop_
_space_group_symop_operation_xyz
x,y,z
-x,-y,1/2+z
x,-y,-z
-x,y,1/2-z
-x,-y,-z
x,y,1/2-z
-x,y,z
x,-y,1/2+z
1/2+x,1/2+y,z
1/2-x,1/2-y,1/2+z
1/2+x,1/2-y,-z
1/2-x,1/2+y,1/2-z
1/2-x,1/2-y,-z
1/2+x,1/2+y,1/2-z
1/2-x,1/2+y,z
1/2+x,1/2-y,1/2+z
loop_
_atom_site_type_symbol
_atom_site_label
_atom_site_fract_x
_atom_site_fract_y
_atom_site_fract_z
Si Si1 0.443072 0.364960 0.923004
Si Si2 0.104366 0.288899 0.423829
Si Si3 0.650903 0.426519 0.425688
Si Si4 0.698623 0.274302 0.073171
Si Si5 0.559473 0.927714 0.918932
O O1 0.434377 0.384933 0.750000
O O2 0.500000 0.381346 0.972961
O O3 0.432161 0.279602 0.951694
O O4 0.406240 0.414792 0.020836
O O5 0.117093 0.299190 0.250000
O O6 0.155982 0.279651 0.513052
O O7 0.076172 0.359043 0.484697
O O8 0.673305 0.500000 0.500000
O O9 0.650639 0.437186 0.250000
O O10 0.685530 0.357891 0.473956
O O11 0.702338 0.266215 0.250000
O O12 0.750000 0.250000 0.000000
O O13 0.580962 0.923473 0.750000
O O14 0.500000 0.929961 0.915171
O O15 0.580950 0.000000 0.000000
#
# Coordination Sequence:
#
# PCOD8257620 Si02
#       5
#    16  16  16  16  16
#     4   9  18  32  51  76 106 141 178 213 252 301
#     4  10  19  33  54  78 105 137 175 219 265 315
#     4  10  21  36  55  79 107 138 172 211 256 306
#     4  10  21  38  59  82 105 133 173 218 266 317
#     4  10  20  33  50  74 106 143 180 219 264 314
#
# _framework density 18.413862999999999
#
# number of rings (size 3 to 8) (size 9 to 14) (size 15 to 20)
#    0.000    2.200    0.000    3.000    0.000    6.000 
#    0.000    1.000    0.000    2.400    0.000    0.000 
#    0.000    0.000    0.000    0.000    0.000    0.000 
#
# Total GULP energy -496105.018616 kJ/mol
# GULP energy per Si atom -12402.625465 kJ/mol
# Density = 1.837195 g / cm^3
# Si number density = 18.413863 Si / 1000 Ang^3
#
#
#
# Elastic Constant Matrix: (Units=GPa)
#
#
# Indices 1 2 3 4 5 6 
#
# 1 71.4580 12.9133 32.0605 0.0000 0.0000 0.0000
# 2 12.9133 91.7173 40.5118 0.0000 0.0000 0.0000
# 3 32.0605 40.5118 83.3883 0.0000 0.0000 0.0000
# 4 0.0000 0.0000 0.0000 35.9273 0.0000 0.0000
# 5 0.0000 0.0000 0.0000 0.0000 33.0440 0.0000
# 6 0.0000 0.0000 0.0000 0.0000 0.0000 15.3970
#
#
#
# Elastic Compliance Matrix: (Units=1/GPa)
#
#
# Indices 1 2 3 4 5 6 
#
# 1 0.016940 0.000626 -0.006817 0.000000 0.000000 0.000000
# 2 0.000626 0.013905 -0.006996 0.000000 0.000000 0.000000
# 3 -0.006817 -0.006996 0.018012 0.000000 0.000000 0.000000
# 4 0.000000 0.000000 0.000000 0.027834 0.000000 0.000000
# 5 0.000000 0.000000 0.000000 0.000000 0.030263 0.000000
# 6 0.000000 0.000000 0.000000 0.000000 0.000000 0.064948
#
#
# Mechanical properties :
#
#
# Convention : Reuss Voigt Hill
#
# Bulk Modulus (GPa) = 44.47884 46.39275 45.43580
# Shear Modulus (GPa) = 24.29906 27.61219 25.95563
#
# Velocity S-wave (km/s) = 3.63658 3.87658 3.75850
# Velocity P-wave (km/s) = 6.46842 6.72951 6.60026
#
# Compressibility (1/GPa) = 0.02248260
#
# Stress axis : x y z
#
# Youngs Moduli (GPa) = 59.03317 71.91600 55.51888
#
# Poissons Ratio (x) = -0.04502 0.37847
# Poissons Ratio (y) = -0.03696 0.38842
# Poissons Ratio (z) = 0.40243 0.50313
#
# Static dielectric constant tensor:
#      x y z
#    x 3.344180 0.000000 0.000000 
#    y 0.000000 3.478090 0.000000 
#    z 0.000000 0.000000 3.549830 
# 
# 
# High freq. dielectric constant tensor:
#      x y z
#    x 1.694750 0.000000 0.000000 
#    y 0.000000 1.719420 0.000000 
#    z 0.000000 0.000000 1.728450 
# 
# From -- ./inp_files/11977.got.cif
#   From: 2010.03.12/outbox.cif.g09.slc.cpg/sg63_6_cif.got.tgz:11977.got - 2010.04.10 19:34:48.
