data_PCOD8257444
_publ_section_title
;
Structure prediction by ZEFSAII (Michael W. Deem and Ramdas Pophale) SiO2 
 PCOD8257444
Probable space group: C M C M
;
_chemical_formula_sum "Si O2"
_cell_formula_units_Z 112
_cell_length_a 14.501964
_cell_length_b 16.595163
_cell_length_c 23.884419
_cell_angle_alpha 90.000000
_cell_angle_beta 90.000000
_cell_angle_gamma 90.000000
_cell_volume 5748.082946
_symmetry_space_group_name_H-M "C M C M"
_symmetry_group_IT_number 63
_symmetry_cell_setting 'orthorhombic'
loop_
_space_group_symop_operation_xyz
x,y,z
-x,-y,1/2+z
x,-y,-z
-x,y,1/2-z
-x,-y,-z
x,y,1/2-z
-x,y,z
x,-y,1/2+z
1/2+x,1/2+y,z
1/2-x,1/2-y,1/2+z
1/2+x,1/2-y,-z
1/2-x,1/2+y,1/2-z
1/2-x,1/2-y,-z
1/2+x,1/2+y,1/2-z
1/2-x,1/2+y,z
1/2+x,1/2-y,1/2+z
loop_
_atom_site_type_symbol
_atom_site_label
_atom_site_fract_x
_atom_site_fract_y
_atom_site_fract_z
Si Si1 0.208204 0.192889 0.814934
Si Si2 0.214574 0.053698 0.896272
Si Si3 0.603894 0.605162 0.399806
Si Si4 0.100113 0.241749 0.313137
Si Si5 0.606491 0.198199 0.099391
Si Si6 0.105441 0.483544 0.934331
Si Si7 0.605796 0.342820 0.021270
O O1 0.176643 0.193765 0.750000
O O2 0.181755 0.108549 0.843965
O O3 0.318848 0.194228 0.821654
O O4 0.163048 0.269339 0.846743
O O5 0.173451 0.091140 0.952711
O O6 0.173378 0.966198 0.888626
O O7 0.325511 0.044061 0.901860
O O8 0.500000 0.571093 0.402622
O O9 0.620082 0.663511 0.348687
O O10 0.626585 0.656732 0.455385
O O11 0.099930 0.210225 0.250000
O O12 0.000000 0.280502 0.328821
O O13 0.500000 0.202692 0.116682
O O14 0.634081 0.108040 0.081546
O O15 0.627396 0.254227 0.045502
O O16 0.000000 0.501205 0.915599
O O17 0.116470 0.500000 0.000000
O O18 0.500000 0.367113 0.034270
#
# Coordination Sequence:
#
# PCOD8257444 Si02
#       7
#    16  16  16  16  16  16  16
#     4  10  22  38  56  77 102 139 184 227 269 313
#     4  11  21  33  51  77 110 142 173 215 265 317
#     4  10  19  32  54  81 106 134 167 210 269 326
#     4   9  19  36  55  74  98 131 173 218 260 306
#     4   9  19  37  58  80 107 139 179 225 267 315
#     4  10  21  36  54  79 113 149 181 216 264 323
#     4   9  18  33  54  80 108 137 171 212 262 320
#
# _framework density 19.484756999999998
#
# number of rings (size 3 to 8) (size 9 to 14) (size 15 to 20)
#    0.000    2.286    0.000    2.571    0.000    4.286 
#    0.000    7.143    0.000    0.857    0.000    0.000 
#    0.000    0.000    0.000    0.000    0.000    0.000 
#
# Total GULP energy -694229.359001 kJ/mol
# GULP energy per Si atom -12396.952839 kJ/mol
# Density = 1.944041 g / cm^3
# Si number density = 19.484757 Si / 1000 Ang^3
#
#
#
# Elastic Constant Matrix: (Units=GPa)
#
#
# Indices 1 2 3 4 5 6 
#
# 1 79.1104 31.9094 34.9386 0.0000 0.0000 0.0000
# 2 31.9094 66.1761 40.2472 0.0000 0.0000 0.0000
# 3 34.9386 40.2472 99.8709 0.0000 0.0000 0.0000
# 4 0.0000 0.0000 0.0000 21.5600 0.0000 0.0000
# 5 0.0000 0.0000 0.0000 0.0000 25.5193 0.0000
# 6 0.0000 0.0000 0.0000 0.0000 0.0000 30.6620
#
#
#
# Elastic Compliance Matrix: (Units=1/GPa)
#
#
# Indices 1 2 3 4 5 6 
#
# 1 0.016522 -0.005897 -0.003404 0.000000 0.000000 0.000000
# 2 -0.005897 0.022122 -0.006852 0.000000 0.000000 0.000000
# 3 -0.003404 -0.006852 0.013965 0.000000 0.000000 0.000000
# 4 0.000000 0.000000 0.000000 0.046382 0.000000 0.000000
# 5 0.000000 0.000000 0.000000 0.000000 0.039186 0.000000
# 6 0.000000 0.000000 0.000000 0.000000 0.000000 0.032614
#
#
# Mechanical properties :
#
#
# Convention : Reuss Voigt Hill
#
# Bulk Modulus (GPa) = 49.25130 51.03865 50.14497
# Shear Modulus (GPa) = 23.82494 24.75240 24.28867
#
# Velocity S-wave (km/s) = 3.50057 3.56806 3.53448
# Velocity P-wave (km/s) = 6.45526 6.57463 6.51522
#
# Compressibility (1/GPa) = 0.02030403
#
# Stress axis : x y z
#
# Youngs Moduli (GPa) = 60.52429 45.20425 71.60751
#
# Poissons Ratio (x) = 0.26656 0.24374
# Poissons Ratio (y) = 0.35690 0.49066
# Poissons Ratio (z) = 0.20601 0.30974
#
# Static dielectric constant tensor:
#      x y z
#    x 3.866510 0.000000 0.000000 
#    y 0.000000 3.409010 0.000000 
#    z 0.000000 0.000000 3.473940 
# 
# 
# High freq. dielectric constant tensor:
#      x y z
#    x 1.775050 0.000000 0.000000 
#    y 0.000000 1.745670 0.000000 
#    z 0.000000 0.000000 1.749520 
# 
# From -- ./inp_files/62968.got.cif
#   From: 2010.03.12/outbox.cif.g09.slc.cpg/sg63_32_cif.got.tgz:62968.got - 2010.04.10 19:34:48.
