data_PCOD8257656
_publ_section_title
;
Structure prediction by ZEFSAII (Michael W. Deem and Ramdas Pophale) SiO2 
 PCOD8257656
Probable space group: C M C M
;
_chemical_formula_sum "Si O2"
_cell_formula_units_Z 80
_cell_length_a 20.398764
_cell_length_b 13.541350
_cell_length_c 14.202933
_cell_angle_alpha 90.000000
_cell_angle_beta 90.000000
_cell_angle_gamma 90.000000
_cell_volume 3923.230774
_symmetry_space_group_name_H-M "C M C M"
_symmetry_group_IT_number 63
_symmetry_cell_setting 'orthorhombic'
loop_
_space_group_symop_operation_xyz
x,y,z
-x,-y,1/2+z
x,-y,-z
-x,y,1/2-z
-x,-y,-z
x,y,1/2-z
-x,y,z
x,-y,1/2+z
1/2+x,1/2+y,z
1/2-x,1/2-y,1/2+z
1/2+x,1/2-y,-z
1/2-x,1/2+y,1/2-z
1/2-x,1/2-y,-z
1/2+x,1/2+y,1/2-z
1/2-x,1/2+y,z
1/2+x,1/2-y,1/2+z
loop_
_atom_site_type_symbol
_atom_site_label
_atom_site_fract_x
_atom_site_fract_y
_atom_site_fract_z
Si Si1 0.118027 0.434897 0.643000
Si Si2 0.573773 0.749805 0.965714
Si Si3 0.235146 0.974190 0.642125
Si Si4 0.424239 0.143318 0.647180
Si Si5 0.295172 0.654691 0.978883
O O1 0.092553 0.430476 0.750000
O O2 0.077177 0.354390 0.586302
O O3 0.195590 0.417516 0.637417
O O4 0.106366 0.544395 0.602247
O O5 0.500000 0.705672 0.949200
O O6 0.633335 0.679847 0.933131
O O7 0.587824 0.766184 0.076732
O O8 0.209379 0.979288 0.750000
O O9 0.189901 0.906051 0.575324
O O10 0.240043 0.085080 0.598867
O O11 0.392825 0.167949 0.750000
O O12 0.500000 0.122220 0.659174
O O13 0.250000 0.750000 0.000000
#
# Coordination Sequence:
#
# PCOD8257656 Si02
#       5
#    16  16  16  16  16
#     4  10  19  33  54  82 116 150 190 242 304 362
#     4  11  22  35  57  87 119 155 195 244 301 356
#     4  10  23  40  60  87 116 156 207 253 297 351
#     4   9  18  31  49  78 115 153 190 231 291 363
#     4  11  22  39  63  87 121 158 202 251 298 357
#
# _framework density 20.391355999999998
#
# number of rings (size 3 to 8) (size 9 to 14) (size 15 to 20)
#    0.000    1.800    2.000    2.400    2.800    5.200 
#    0.000    2.000    0.000    1.200    0.000    0.000 
#    0.000    0.000    0.000    0.000    0.000    0.000 
#
# Total GULP energy -495725.844235 kJ/mol
# GULP energy per Si atom -12393.146106 kJ/mol
# Density = 2.034494 g / cm^3
# Si number density = 20.391356 Si / 1000 Ang^3
#
#
#
# Elastic Constant Matrix: (Units=GPa)
#
#
# Indices 1 2 3 4 5 6 
#
# 1 80.2697 23.6232 10.4910 0.0000 0.0000 0.0000
# 2 23.6232 67.1944 27.7305 0.0000 0.0000 0.0000
# 3 10.4910 27.7305 87.2476 0.0000 0.0000 0.0000
# 4 0.0000 0.0000 0.0000 19.6330 0.0000 0.0000
# 5 0.0000 0.0000 0.0000 0.0000 22.7894 0.0000
# 6 0.0000 0.0000 0.0000 0.0000 0.0000 31.1276
#
#
#
# Elastic Compliance Matrix: (Units=1/GPa)
#
#
# Indices 1 2 3 4 5 6 
#
# 1 0.013897 -0.004830 -0.000136 0.000000 0.000000 0.000000
# 2 -0.004830 0.018807 -0.005397 0.000000 0.000000 0.000000
# 3 -0.000136 -0.005397 0.013193 0.000000 0.000000 0.000000
# 4 0.000000 0.000000 0.000000 0.050935 0.000000 0.000000
# 5 0.000000 0.000000 0.000000 0.000000 0.043880 0.000000
# 6 0.000000 0.000000 0.000000 0.000000 0.000000 0.032126
#
#
# Mechanical properties :
#
#
# Convention : Reuss Voigt Hill
#
# Bulk Modulus (GPa) = 39.72556 39.82232 39.77394
# Shear Modulus (GPa) = 24.75808 26.23448 25.49628
#
# Velocity S-wave (km/s) = 3.48824 3.59074 3.53986
# Velocity P-wave (km/s) = 5.97893 6.06322 6.02122
#
# Compressibility (1/GPa) = 0.02517271
#
# Stress axis : x y z
#
# Youngs Moduli (GPa) = 71.95736 53.17063 75.79582
#
# Poissons Ratio (x) = 0.25679 0.01031
# Poissons Ratio (y) = 0.34753 0.40907
# Poissons Ratio (z) = 0.00979 0.28696
#
# Static dielectric constant tensor:
#      x y z
#    x 3.594840 0.000000 0.000000 
#    y 0.000000 3.460130 0.000000 
#    z 0.000000 0.000000 3.986720 
# 
# 
# High freq. dielectric constant tensor:
#      x y z
#    x 1.783620 0.000000 0.000000 
#    y 0.000000 1.766520 0.000000 
#    z 0.000000 0.000000 1.804490 
# 
# From -- ./inp_files/35100.got.cif
#   From: 2010.03.12/outbox.cif.g09.slc.cpg/sg63_18_cif.got.tgz:35100.got - 2010.04.10 19:34:48.
