data_PCOD8257050
_publ_section_title
;
Structure prediction by ZEFSAII (Michael W. Deem and Ramdas Pophale) SiO2 
 PCOD8257050
Probable space group: C M C M
;
_chemical_formula_sum "Si O2"
_cell_formula_units_Z 96
_cell_length_a 8.842638
_cell_length_b 23.463188
_cell_length_c 25.947253
_cell_angle_alpha 90.000000
_cell_angle_beta 90.000000
_cell_angle_gamma 90.000000
_cell_volume 5383.444661
_symmetry_space_group_name_H-M "C M C M"
_symmetry_group_IT_number 63
_symmetry_cell_setting 'orthorhombic'
loop_
_space_group_symop_operation_xyz
x,y,z
-x,-y,1/2+z
x,-y,-z
-x,y,1/2-z
-x,-y,-z
x,y,1/2-z
-x,y,z
x,-y,1/2+z
1/2+x,1/2+y,z
1/2-x,1/2-y,1/2+z
1/2+x,1/2-y,-z
1/2-x,1/2+y,1/2-z
1/2-x,1/2-y,-z
1/2+x,1/2+y,1/2-z
1/2-x,1/2+y,z
1/2+x,1/2-y,1/2+z
loop_
_atom_site_type_symbol
_atom_site_label
_atom_site_fract_x
_atom_site_fract_y
_atom_site_fract_z
Si Si1 0.829750 0.924776 0.467309
Si Si2 0.830349 0.173351 0.888520
Si Si3 0.674471 0.999468 0.615920
Si Si4 0.676970 0.731408 0.446164
Si Si5 0.322182 0.420537 0.190713
Si Si6 0.172557 0.386581 0.565526
O O1 0.828652 0.863569 0.440291
O O2 0.716972 0.922589 0.515163
O O3 0.000000 0.939527 0.485424
O O4 0.774269 0.973460 0.429118
O O5 0.724545 0.227548 0.898951
O O6 0.768293 0.135613 0.840707
O O7 0.000000 0.194848 0.876388
O O8 0.500000 0.017203 0.608792
O O9 0.692048 0.930575 0.613510
O O10 0.735412 0.023246 0.670478
O O11 0.500000 0.734282 0.454273
O O12 0.750000 0.750000 0.500000
O O13 0.721691 0.668097 0.428354
O O14 0.280756 0.411060 0.250000
O O15 0.500000 0.430023 0.181551
O O16 0.000000 0.365764 0.560533
#
# Coordination Sequence:
#
# PCOD8257050 Si02
#       6
#    16  16  16  16  16  16
#     4  10  19  31  50  74 104 142 178 214 257 309
#     4   9  18  33  52  77 107 137 175 218 261 312
#     4  10  21  34  50  76 107 138 174 218 265 313
#     4  12  23  34  51  74 105 145 184 220 261 311
#     4   9  19  37  61  84 105 133 171 218 271 323
#     4  11  22  34  49  71 105 145 181 216 257 308
#
# _framework density 17.832450000000001
#
# number of rings (size 3 to 8) (size 9 to 14) (size 15 to 20)
#    0.000    1.833    1.667    4.500    0.000    7.667 
#    0.000    0.000    0.000    1.000    0.000    2.333 
#    0.000    0.000    0.000    0.000    0.000    0.000 
#
# Total GULP energy -595178.050496 kJ/mol
# GULP energy per Si atom -12399.542719 kJ/mol
# Density = 1.779186 g / cm^3
# Si number density = 17.832450 Si / 1000 Ang^3
#
#
#
# Elastic Constant Matrix: (Units=GPa)
#
#
# Indices 1 2 3 4 5 6 
#
# 1 102.9739 49.1630 32.2350 0.0000 0.0000 0.0000
# 2 49.1630 102.2610 44.4720 0.0000 0.0000 0.0000
# 3 32.2350 44.4720 87.1403 0.0000 0.0000 0.0000
# 4 0.0000 0.0000 0.0000 12.9082 0.0000 0.0000
# 5 0.0000 0.0000 0.0000 0.0000 23.1598 0.0000
# 6 0.0000 0.0000 0.0000 0.0000 0.0000 29.2244
#
#
#
# Elastic Compliance Matrix: (Units=1/GPa)
#
#
# Indices 1 2 3 4 5 6 
#
# 1 0.012887 -0.005298 -0.002063 0.000000 0.000000 0.000000
# 2 -0.005298 0.014747 -0.005566 0.000000 0.000000 0.000000
# 3 -0.002063 -0.005566 0.015080 0.000000 0.000000 0.000000
# 4 0.000000 0.000000 0.000000 0.077470 0.000000 0.000000
# 5 0.000000 0.000000 0.000000 0.000000 0.043178 0.000000
# 6 0.000000 0.000000 0.000000 0.000000 0.000000 0.034218
#
#
# Mechanical properties :
#
#
# Convention : Reuss Voigt Hill
#
# Bulk Modulus (GPa) = 59.31837 60.45724 59.88781
# Shear Modulus (GPa) = 21.82899 24.15881 22.99390
#
# Velocity S-wave (km/s) = 3.50253 3.68471 3.59477
# Velocity P-wave (km/s) = 7.04936 7.21660 7.13347
#
# Compressibility (1/GPa) = 0.01685818
#
# Stress axis : x y z
#
# Youngs Moduli (GPa) = 77.60041 67.81215 66.31492
#
# Poissons Ratio (x) = 0.35928 0.13681
# Poissons Ratio (y) = 0.41114 0.36911
# Poissons Ratio (z) = 0.16010 0.37745
#
# Static dielectric constant tensor:
#      x y z
#    x 3.410440 0.000000 0.000000 
#    y 0.000000 3.425630 0.000000 
#    z 0.000000 0.000000 3.119790 
# 
# 
# High freq. dielectric constant tensor:
#      x y z
#    x 1.699150 0.000000 0.000000 
#    y 0.000000 1.691760 0.000000 
#    z 0.000000 0.000000 1.651070 
# 
# From -- ./inp_files/67003.got.cif
#   From: 2010.03.12/outbox.cif.g09.slc.cpg/sg63_34_cif.got.tgz:67003.got - 2010.04.10 19:34:48.
