data_PCOD8257888
_publ_section_title
;
Structure prediction by ZEFSAII (Michael W. Deem and Ramdas Pophale) SiO2 
 PCOD8257888
Probable space group: C M C M
;
_chemical_formula_sum "Si O2"
_cell_formula_units_Z 88
_cell_length_a 19.404463
_cell_length_b 24.313020
_cell_length_c 9.043073
_cell_angle_alpha 90.000000
_cell_angle_beta 90.000000
_cell_angle_gamma 90.000000
_cell_volume 4266.350900
_symmetry_space_group_name_H-M "C M C M"
_symmetry_group_IT_number 63
_symmetry_cell_setting 'orthorhombic'
loop_
_space_group_symop_operation_xyz
x,y,z
-x,-y,1/2+z
x,-y,-z
-x,y,1/2-z
-x,-y,-z
x,y,1/2-z
-x,y,z
x,-y,1/2+z
1/2+x,1/2+y,z
1/2-x,1/2-y,1/2+z
1/2+x,1/2-y,-z
1/2-x,1/2+y,1/2-z
1/2-x,1/2-y,-z
1/2+x,1/2+y,1/2-z
1/2-x,1/2+y,z
1/2+x,1/2-y,1/2+z
loop_
_atom_site_type_symbol
_atom_site_label
_atom_site_fract_x
_atom_site_fract_y
_atom_site_fract_z
Si Si1 0.153618 0.237521 0.077976
Si Si2 0.420883 0.344648 0.412022
Si Si3 0.500000 0.943608 0.080499
Si Si4 0.651792 0.939718 0.425756
Si Si5 0.785053 0.337275 0.923819
Si Si6 0.917671 0.947295 0.914764
O O1 0.145996 0.250128 0.250000
O O2 0.211557 0.191254 0.043249
O O3 0.085220 0.210492 0.009418
O O4 0.160865 0.294848 0.993936
O O5 0.385788 0.338172 0.250000
O O6 0.500000 0.358775 0.389634
O O7 0.386498 0.395124 0.500162
O O8 0.500000 0.958970 0.250000
O O9 0.426167 0.914858 0.042427
O O10 0.500000 0.000000 0.000000
O O11 0.665612 0.944593 0.250000
O O12 0.705933 0.896569 0.497552
O O13 0.661426 0.000000 0.500000
O O14 0.798381 0.344044 0.750000
O O15 0.886729 0.947016 0.750000
O O16 0.000000 0.946917 0.908403
O O17 0.889258 0.000000 0.000000
#
# Coordination Sequence:
#
# PCOD8257888 Si02
#       6
#    16  16   8  16  16  16
#     4  10  21  38  59  80 105 142 186 229 275 328
#     4  10  20  34  53  78 108 139 174 221 275 327
#     4   8  16  30  50  78 112 148 182 216 263 324
#     4  10  19  34  57  85 117 151 187 228 278 331
#     4  10  21  38  59  82 108 142 185 228 273 328
#     4   9  16  27  45  69  98 133 171 209 255 312
#
# _framework density 20.626528
#
# number of rings (size 3 to 8) (size 9 to 14) (size 15 to 20)
#    0.000    2.364    0.000    2.727    0.000    6.182 
#    1.636    0.909    0.000    4.364    0.000    0.000 
#    0.000    0.000    0.000    0.000    0.000    0.000 
#
# Total GULP energy -545169.735074 kJ/mol
# GULP energy per Si atom -12390.221252 kJ/mol
# Density = 2.057958 g / cm^3
# Si number density = 20.626528 Si / 1000 Ang^3
#
#
#
# Elastic Constant Matrix: (Units=GPa)
#
#
# Indices 1 2 3 4 5 6 
#
# 1 14.6888 15.3301 20.6872 0.0000 0.0000 0.0000
# 2 15.3301 125.5041 60.2813 0.0000 0.0000 0.0000
# 3 20.6872 60.2813 134.6816 0.0000 0.0000 0.0000
# 4 0.0000 0.0000 0.0000 44.2615 0.0000 0.0000
# 5 0.0000 0.0000 0.0000 0.0000 22.5173 0.0000
# 6 0.0000 0.0000 0.0000 0.0000 0.0000 22.8604
#
#
#
# Elastic Compliance Matrix: (Units=1/GPa)
#
#
# Indices 1 2 3 4 5 6 
#
# 1 0.089790 -0.005533 -0.011315 0.000000 0.000000 0.000000
# 2 -0.005533 0.010491 -0.003846 0.000000 0.000000 0.000000
# 3 -0.011315 -0.003846 0.010884 0.000000 0.000000 0.000000
# 4 0.000000 0.000000 0.000000 0.022593 0.000000 0.000000
# 5 0.000000 0.000000 0.000000 0.000000 0.044410 0.000000
# 6 0.000000 0.000000 0.000000 0.000000 0.000000 0.043744
#
#
# Mechanical properties :
#
#
# Convention : Reuss Voigt Hill
#
# Bulk Modulus (GPa) = 14.33132 51.94128 33.13630
# Shear Modulus (GPa) = 17.44842 29.83289 23.64066
#
# Velocity S-wave (km/s) = 2.91163 3.80720 3.38913
# Velocity P-wave (km/s) = 4.27394 6.67554 5.60488
#
# Compressibility (1/GPa) = 0.06977724
#
# Stress axis : x y z
#
# Youngs Moduli (GPa) = 11.13711 95.32155 91.87580
#
# Poissons Ratio (x) = 0.52738 1.03962
# Poissons Ratio (y) = 0.06162 0.35333
# Poissons Ratio (z) = 0.12602 0.36658
#
# Static dielectric constant tensor:
#      x y z
#    x 3.734930 0.000000 0.000000 
#    y 0.000000 3.648140 0.000000 
#    z 0.000000 0.000000 3.956910 
# 
# 
# High freq. dielectric constant tensor:
#      x y z
#    x 1.774920 0.000000 0.000000 
#    y 0.000000 1.800540 0.000000 
#    z 0.000000 0.000000 1.826600 
# 
# From -- ./inp_files/8177.got.cif
#   From: 2010.03.12/outbox.cif.g09.slc.cpg/sg63_5_cif.got.tgz:8177.got - 2010.04.10 19:34:48.
