data_PCOD8257529
_publ_section_title
;
Structure prediction by ZEFSAII (Michael W. Deem and Ramdas Pophale) SiO2 
 PCOD8257529
Probable space group: C M C M
;
_chemical_formula_sum "Si O2"
_cell_formula_units_Z 80
_cell_length_a 25.907853
_cell_length_b 11.593463
_cell_length_c 13.884860
_cell_angle_alpha 90.000000
_cell_angle_beta 90.000000
_cell_angle_gamma 90.000000
_cell_volume 4170.480642
_symmetry_space_group_name_H-M "C M C M"
_symmetry_group_IT_number 63
_symmetry_cell_setting 'orthorhombic'
loop_
_space_group_symop_operation_xyz
x,y,z
-x,-y,1/2+z
x,-y,-z
-x,y,1/2-z
-x,-y,-z
x,y,1/2-z
-x,y,z
x,-y,1/2+z
1/2+x,1/2+y,z
1/2-x,1/2-y,1/2+z
1/2+x,1/2-y,-z
1/2-x,1/2+y,1/2-z
1/2-x,1/2-y,-z
1/2+x,1/2+y,1/2-z
1/2-x,1/2+y,z
1/2+x,1/2-y,1/2+z
loop_
_atom_site_type_symbol
_atom_site_label
_atom_site_fract_x
_atom_site_fract_y
_atom_site_fract_z
Si Si1 0.837519 0.009156 0.138299
Si Si2 0.939872 0.458235 0.359367
Si Si3 0.804759 0.190790 0.509105
Si Si4 0.404996 0.178170 0.034273
Si Si5 0.942841 0.896105 0.360085
O O1 0.824931 0.017619 0.250000
O O2 0.804917 0.902461 0.095336
O O3 0.898680 0.990203 0.116021
O O4 0.820542 0.128440 0.090235
O O5 0.924477 0.426924 0.250000
O O6 0.909447 0.571191 0.393302
O O7 0.925297 0.351044 0.427292
O O8 0.000000 0.486244 0.369096
O O9 0.750000 0.250000 0.500000
O O10 0.844701 0.292397 0.531305
O O11 0.438049 0.285329 0.072203
O O12 0.935869 0.854432 0.250000
O O13 0.000000 0.950844 0.375989
#
# Coordination Sequence:
#
# PCOD8257529 Si02
#       5
#    16  16  16  16  16
#     4   9  20  38  57  81 109 134 169 216 261 310
#     4  10  20  33  50  77 111 141 173 214 256 306
#     4  10  22  39  56  77 105 137 176 222 263 303
#     4  10  19  33  52  75 104 140 178 215 259 308
#     4   9  16  30  55  82 107 137 170 206 255 314
#
# _framework density 19.182441000000001
#
# number of rings (size 3 to 8) (size 9 to 14) (size 15 to 20)
#    0.000    2.400    0.000    3.000    0.000    7.200 
#    0.000   12.000    0.000    2.400    0.000    0.000 
#    0.000    0.000    0.000    0.000    0.000    0.000 
#
# Total GULP energy -496028.151245 kJ/mol
# GULP energy per Si atom -12400.703781 kJ/mol
# Density = 1.913878 g / cm^3
# Si number density = 19.182441 Si / 1000 Ang^3
#
#
#
# Elastic Constant Matrix: (Units=GPa)
#
#
# Indices 1 2 3 4 5 6 
#
# 1 147.0774 58.6354 41.4871 0.0000 0.0000 0.0000
# 2 58.6354 84.0493 45.5041 0.0000 0.0000 0.0000
# 3 41.4871 45.5041 135.1499 0.0000 0.0000 0.0000
# 4 0.0000 0.0000 0.0000 26.2755 0.0000 0.0000
# 5 0.0000 0.0000 0.0000 0.0000 22.6176 0.0000
# 6 0.0000 0.0000 0.0000 0.0000 0.0000 24.0535
#
#
#
# Elastic Compliance Matrix: (Units=1/GPa)
#
#
# Indices 1 2 3 4 5 6 
#
# 1 0.009496 -0.006171 -0.000837 0.000000 0.000000 0.000000
# 2 -0.006171 0.018561 -0.004355 0.000000 0.000000 0.000000
# 3 -0.000837 -0.004355 0.009122 0.000000 0.000000 0.000000
# 4 0.000000 0.000000 0.000000 0.038058 0.000000 0.000000
# 5 0.000000 0.000000 0.000000 0.000000 0.044213 0.000000
# 6 0.000000 0.000000 0.000000 0.000000 0.000000 0.041574
#
#
# Mechanical properties :
#
#
# Convention : Reuss Voigt Hill
#
# Bulk Modulus (GPa) = 69.19281 73.05887 71.12584
# Shear Modulus (GPa) = 26.51561 29.29930 27.90746
#
# Velocity S-wave (km/s) = 3.72194 3.91244 3.81838
# Velocity P-wave (km/s) = 7.39051 7.65366 7.52324
#
# Compressibility (1/GPa) = 0.01445237
#
# Stress axis : x y z
#
# Youngs Moduli (GPa) = 105.31271 53.87717 109.62012
#
# Poissons Ratio (x) = 0.33249 0.09176
# Poissons Ratio (y) = 0.64991 0.47739
# Poissons Ratio (z) = 0.08815 0.23463
#
# Static dielectric constant tensor:
#      x y z
#    x 3.442710 0.000000 0.000000 
#    y 0.000000 3.335330 0.000000 
#    z 0.000000 0.000000 3.696830 
# 
# 
# High freq. dielectric constant tensor:
#      x y z
#    x 1.738390 0.000000 0.000000 
#    y 0.000000 1.733050 0.000000 
#    z 0.000000 0.000000 1.758380 
# 
# From -- ./inp_files/36461.got.cif
#   From: 2010.03.12/outbox.cif.g09.slc.cpg/sg63_19_cif.got.tgz:36461.got - 2010.04.10 19:34:48.
