data_PCOD8257013
_publ_section_title
;
Structure prediction by ZEFSAII (Michael W. Deem and Ramdas Pophale) SiO2 
 PCOD8257013
Probable space group: C M C M
;
_chemical_formula_sum "Si O2"
_cell_formula_units_Z 80
_cell_length_a 8.906070
_cell_length_b 27.467378
_cell_length_c 18.100604
_cell_angle_alpha 90.000000
_cell_angle_beta 90.000000
_cell_angle_gamma 90.000000
_cell_volume 4427.885435
_symmetry_space_group_name_H-M "C M C M"
_symmetry_group_IT_number 63
_symmetry_cell_setting 'orthorhombic'
loop_
_space_group_symop_operation_xyz
x,y,z
-x,-y,1/2+z
x,-y,-z
-x,y,1/2-z
-x,-y,-z
x,y,1/2-z
-x,y,z
x,-y,1/2+z
1/2+x,1/2+y,z
1/2-x,1/2-y,1/2+z
1/2+x,1/2-y,-z
1/2-x,1/2+y,1/2-z
1/2-x,1/2-y,-z
1/2+x,1/2+y,1/2-z
1/2-x,1/2+y,z
1/2+x,1/2-y,1/2+z
loop_
_atom_site_type_symbol
_atom_site_label
_atom_site_fract_x
_atom_site_fract_y
_atom_site_fract_z
Si Si1 0.677237 0.356271 0.953874
Si Si2 0.324903 0.946352 0.472082
Si Si3 0.176304 0.193125 0.897553
Si Si4 0.323744 0.592610 0.833599
Si Si5 0.322165 0.206323 0.164943
O O1 0.500000 0.360526 0.945407
O O2 0.748933 0.339041 0.877265
O O3 0.739741 0.409162 0.974249
O O4 0.722568 0.317517 0.017765
O O5 0.500000 0.934102 0.474040
O O6 0.265642 0.942957 0.388092
O O7 0.289059 0.000000 0.500000
O O8 0.230751 0.148158 0.846796
O O9 0.247245 0.243541 0.868525
O O10 0.000000 0.198259 0.889180
O O11 0.286946 0.577177 0.750000
O O12 0.500000 0.588295 0.851493
O O13 0.274908 0.202629 0.250000
O O14 0.500000 0.203748 0.155058
#
# Coordination Sequence:
#
# PCOD8257013 Si02
#       5
#    16  16  16  16  16
#     4  10  20  34  53  75 100 131 169 213 255 299
#     4  10  21  37  56  76  99 130 169 212 257 306
#     4   8  15  29  50  75 102 134 168 201 244 298
#     4   9  17  31  53  81 109 133 162 205 255 304
#     4  10  19  31  49  73 104 141 174 203 241 293
#
# _framework density 18.067314
#
# number of rings (size 3 to 8) (size 9 to 14) (size 15 to 20)
#    0.000    2.600    0.000    3.600    0.000    4.800 
#    0.000    5.000    0.000    6.000    0.000    0.000 
#    0.000    0.000    0.000    0.000    0.000    0.000 
#
# Total GULP energy -495980.647439 kJ/mol
# GULP energy per Si atom -12399.516186 kJ/mol
# Density = 1.802619 g / cm^3
# Si number density = 18.067314 Si / 1000 Ang^3
#
#
#
# Elastic Constant Matrix: (Units=GPa)
#
#
# Indices 1 2 3 4 5 6 
#
# 1 48.3914 42.4403 54.2673 0.0000 0.0000 0.0000
# 2 42.4403 101.7977 77.8159 0.0000 0.0000 0.0000
# 3 54.2673 77.8159 135.8525 0.0000 0.0000 0.0000
# 4 0.0000 0.0000 0.0000 20.8028 0.0000 0.0000
# 5 0.0000 0.0000 0.0000 0.0000 30.0150 0.0000
# 6 0.0000 0.0000 0.0000 0.0000 0.0000 23.7756
#
#
#
# Elastic Compliance Matrix: (Units=1/GPa)
#
#
# Indices 1 2 3 4 5 6 
#
# 1 0.040882 -0.008113 -0.011684 0.000000 0.000000 0.000000
# 2 -0.008113 0.019085 -0.007691 0.000000 0.000000 0.000000
# 3 -0.011684 -0.007691 0.016433 0.000000 0.000000 0.000000
# 4 0.000000 0.000000 0.000000 0.048070 0.000000 0.000000
# 5 0.000000 0.000000 0.000000 0.000000 0.033317 0.000000
# 6 0.000000 0.000000 0.000000 0.000000 0.000000 0.042060
#
#
# Mechanical properties :
#
#
# Convention : Reuss Voigt Hill
#
# Bulk Modulus (GPa) = 46.67350 70.56538 58.61944
# Shear Modulus (GPa) = 19.08651 22.35321 20.71986
#
# Velocity S-wave (km/s) = 3.25377 3.52123 3.39014
# Velocity P-wave (km/s) = 6.32497 7.46149 6.91661
#
# Compressibility (1/GPa) = 0.02142543
#
# Stress axis : x y z
#
# Youngs Moduli (GPa) = 24.46037 52.39747 60.85164
#
# Poissons Ratio (x) = 0.42510 0.71097
# Poissons Ratio (y) = 0.19845 0.46801
# Poissons Ratio (z) = 0.28579 0.40299
#
# Static dielectric constant tensor:
#      x y z
#    x 3.130340 0.000000 0.000000 
#    y 0.000000 3.287700 0.000000 
#    z 0.000000 0.000000 3.444930 
# 
# 
# High freq. dielectric constant tensor:
#      x y z
#    x 1.682970 0.000000 0.000000 
#    y 0.000000 1.688950 0.000000 
#    z 0.000000 0.000000 1.702330 
# 
# From -- ./inp_files/40532.got.cif
#   From: 2010.03.12/outbox.cif.g09.slc.cpg/sg63_21_cif.got.tgz:40532.got - 2010.04.10 19:34:48.
