data_PCOD8257474
_publ_section_title
;
Structure prediction by ZEFSAII (Michael W. Deem and Ramdas Pophale) SiO2 
 PCOD8257474
Probable space group: C M C M
;
_chemical_formula_sum "Si O2"
_cell_formula_units_Z 96
_cell_length_a 20.640087
_cell_length_b 13.795102
_cell_length_c 17.841589
_cell_angle_alpha 90.000000
_cell_angle_beta 90.000000
_cell_angle_gamma 90.000000
_cell_volume 5080.073201
_symmetry_space_group_name_H-M "C M C M"
_symmetry_group_IT_number 63
_symmetry_cell_setting 'orthorhombic'
loop_
_space_group_symop_operation_xyz
x,y,z
-x,-y,1/2+z
x,-y,-z
-x,y,1/2-z
-x,-y,-z
x,y,1/2-z
-x,y,z
x,-y,1/2+z
1/2+x,1/2+y,z
1/2-x,1/2-y,1/2+z
1/2+x,1/2-y,-z
1/2-x,1/2+y,1/2-z
1/2-x,1/2-y,-z
1/2+x,1/2+y,1/2-z
1/2-x,1/2+y,z
1/2+x,1/2-y,1/2+z
loop_
_atom_site_type_symbol
_atom_site_label
_atom_site_fract_x
_atom_site_fract_y
_atom_site_fract_z
Si Si1 0.193008 0.432793 0.662664
Si Si2 0.690892 0.242993 0.056950
Si Si3 0.930139 0.945833 0.920696
Si Si4 0.573201 0.940116 0.335700
Si Si5 0.195012 0.962194 0.084921
Si Si6 0.072994 0.722723 0.955195
O O1 0.203058 0.415243 0.750000
O O2 0.207895 0.331272 0.622759
O O3 0.120908 0.471431 0.644128
O O4 0.242523 0.514392 0.634040
O O5 0.680124 0.348788 0.090529
O O6 0.750000 0.250000 0.000000
O O7 0.625458 0.202240 0.019194
O O8 0.919322 0.832175 0.928438
O O9 0.000000 0.965692 0.880914
O O10 0.868117 0.987195 0.876453
O O11 0.929994 0.000000 0.000000
O O12 0.583523 0.907025 0.250000
O O13 0.500000 0.977567 0.349505
O O14 0.588718 0.846607 0.385576
O O15 0.206345 0.000000 0.000000
O O16 0.000000 0.704161 0.985988
#
# Coordination Sequence:
#
# PCOD8257474 Si02
#       6
#    16  16  16  16  16  16
#     4  11  25  41  59  84 117 157 196 241 297 355
#     4  12  22  36  59  86 116 148 193 242 292 344
#     4   9  16  31  54  84 116 146 182 231 289 337
#     4   9  20  39  59  82 120 163 197 239 294 344
#     4  11  20  37  61  84 113 155 191 239 289 344
#     4  10  19  32  58  92 116 146 199 244 280 342
#
# _framework density 18.897364
#
# number of rings (size 3 to 8) (size 9 to 14) (size 15 to 20)
#    0.000    1.667    5.000    1.000    0.000    1.333 
#    0.000    6.667    0.000    1.500    0.000    2.333 
#    0.000    0.000    0.000    0.000    0.000    0.000 
#
# Total GULP energy -595049.242277 kJ/mol
# GULP energy per Si atom -12396.859214 kJ/mol
# Density = 1.885435 g / cm^3
# Si number density = 18.897364 Si / 1000 Ang^3
#
#
#
# Elastic Constant Matrix: (Units=GPa)
#
#
# Indices 1 2 3 4 5 6 
#
# 1 133.3542 31.1236 54.3050 0.0000 0.0000 0.0000
# 2 31.1236 97.1310 53.5035 0.0000 0.0000 0.0000
# 3 54.3050 53.5035 77.2781 0.0000 0.0000 0.0000
# 4 0.0000 0.0000 0.0000 27.2895 0.0000 0.0000
# 5 0.0000 0.0000 0.0000 0.0000 27.0020 0.0000
# 6 0.0000 0.0000 0.0000 0.0000 0.0000 31.4745
#
#
#
# Elastic Compliance Matrix: (Units=1/GPa)
#
#
# Indices 1 2 3 4 5 6 
#
# 1 0.010583 0.001140 -0.008226 0.000000 0.000000 0.000000
# 2 0.001140 0.016765 -0.012409 0.000000 0.000000 0.000000
# 3 -0.008226 -0.012409 0.027312 0.000000 0.000000 0.000000
# 4 0.000000 0.000000 0.000000 0.036644 0.000000 0.000000
# 5 0.000000 0.000000 0.000000 0.000000 0.037034 0.000000
# 6 0.000000 0.000000 0.000000 0.000000 0.000000 0.031772
#
#
# Mechanical properties :
#
#
# Convention : Reuss Voigt Hill
#
# Bulk Modulus (GPa) = 63.81265 65.06972 64.44119
# Shear Modulus (GPa) = 24.47111 28.40862 26.43987
#
# Velocity S-wave (km/s) = 3.60244 3.88146 3.74455
# Velocity P-wave (km/s) = 7.15156 7.38889 7.27119
#
# Compressibility (1/GPa) = 0.01567087
#
# Stress axis : x y z
#
# Youngs Moduli (GPa) = 94.49518 59.64741 36.61380
#
# Poissons Ratio (x) = -0.06802 0.30119
# Poissons Ratio (y) = -0.10775 0.45433
# Poissons Ratio (z) = 0.77732 0.74015
#
# Static dielectric constant tensor:
#      x y z
#    x 4.133150 0.000000 0.000000 
#    y 0.000000 3.614990 0.000000 
#    z 0.000000 0.000000 3.143200 
# 
# 
# High freq. dielectric constant tensor:
#      x y z
#    x 1.762270 0.000000 0.000000 
#    y 0.000000 1.740540 0.000000 
#    z 0.000000 0.000000 1.691340 
# 
# From -- ./inp_files/35320.got.cif
#   From: 2010.03.12/outbox.cif.g09.slc.cpg/sg63_18_cif.got.tgz:35320.got - 2010.04.10 19:34:48.
