data_PCOD8257946
_publ_section_title
;
Structure prediction by ZEFSAII (Michael W. Deem and Ramdas Pophale) SiO2 
 PCOD8257946
Probable space group: C M C M
;
_chemical_formula_sum "Si O2"
_cell_formula_units_Z 96
_cell_length_a 17.421895
_cell_length_b 14.666372
_cell_length_c 21.882073
_cell_angle_alpha 90.000000
_cell_angle_beta 90.000000
_cell_angle_gamma 90.000000
_cell_volume 5591.219612
_symmetry_space_group_name_H-M "C M C M"
_symmetry_group_IT_number 63
_symmetry_cell_setting 'orthorhombic'
loop_
_space_group_symop_operation_xyz
x,y,z
-x,-y,1/2+z
x,-y,-z
-x,y,1/2-z
-x,-y,-z
x,y,1/2-z
-x,y,z
x,-y,1/2+z
1/2+x,1/2+y,z
1/2-x,1/2-y,1/2+z
1/2+x,1/2-y,-z
1/2-x,1/2+y,1/2-z
1/2-x,1/2-y,-z
1/2+x,1/2+y,1/2-z
1/2-x,1/2+y,z
1/2+x,1/2-y,1/2+z
loop_
_atom_site_type_symbol
_atom_site_label
_atom_site_fract_x
_atom_site_fract_y
_atom_site_fract_z
Si Si1 0.168375 0.439596 0.123207
Si Si2 0.343698 0.874818 0.820935
Si Si3 0.754338 0.500000 0.000000
Si Si4 0.500000 0.925842 0.409359
Si Si5 0.000000 0.749464 0.993340
Si Si6 0.000000 0.370061 0.893735
Si Si7 0.259796 0.726539 0.604154
Si Si8 0.659426 0.674543 0.490737
O O1 0.187341 0.523063 0.168203
O O2 0.188874 0.466161 0.053120
O O3 0.222873 0.355906 0.143525
O O4 0.078378 0.412527 0.129677
O O5 0.349957 0.852764 0.750000
O O6 0.426114 0.863131 0.851107
O O7 0.281941 0.806421 0.850117
O O8 0.697441 0.422258 0.974571
O O9 0.500000 0.848571 0.460478
O O10 0.500000 0.032969 0.430985
O O11 0.000000 0.718305 0.063524
O O12 0.930333 0.816588 0.976569
O O13 0.332302 0.695326 0.563310
O O14 0.197017 0.751009 0.553108
#
# Coordination Sequence:
#
# PCOD8257946 Si02
#       8
#    16  16   8   8   8   8  16  16
#     4  10  21  33  54  80 111 135 181 219 270 320
#     4  11  22  37  55  77 108 147 182 220 265 319
#     4  10  20  34  52  78 110 140 170 236 272 308
#     4  10  21  27  50  83 109 141 160 213 277 331
#     4  12  19  32  53  82 110 140 175 214 276 341
#     4  10  22  34  49  79 113 138 178 215 268 327
#     4  10  19  35  51  79 109 140 175 225 269 317
#     4  10  20  32  53  78 110 137 176 221 273 323
#
# _framework density 17.169778999999998
#
# number of rings (size 3 to 8) (size 9 to 14) (size 15 to 20)
#    0.000    1.667    5.000    0.500    4.667    1.000 
#    0.000    0.000    0.000    0.000    0.000    0.583 
#    0.000    0.000    0.000    0.000    0.000    0.000 
#
# Total GULP energy -594893.601845 kJ/mol
# GULP energy per Si atom -12393.616705 kJ/mol
# Density = 1.713070 g / cm^3
# Si number density = 17.169779 Si / 1000 Ang^3
#
#
#
# Elastic Constant Matrix: (Units=GPa)
#
#
# Indices 1 2 3 4 5 6 
#
# 1 106.9683 45.7922 23.2273 0.0000 0.0000 0.0000
# 2 45.7922 87.1946 25.9167 0.0000 0.0000 0.0000
# 3 23.2273 25.9167 56.9834 0.0000 0.0000 0.0000
# 4 0.0000 0.0000 0.0000 17.1746 0.0000 0.0000
# 5 0.0000 0.0000 0.0000 0.0000 9.6236 0.0000
# 6 0.0000 0.0000 0.0000 0.0000 0.0000 27.6232
#
#
#
# Elastic Compliance Matrix: (Units=1/GPa)
#
#
# Indices 1 2 3 4 5 6 
#
# 1 0.012339 -0.005764 -0.002408 0.000000 0.000000 0.000000
# 2 -0.005764 0.015954 -0.004906 0.000000 0.000000 0.000000
# 3 -0.002408 -0.004906 0.020762 0.000000 0.000000 0.000000
# 4 0.000000 0.000000 0.000000 0.058226 0.000000 0.000000
# 5 0.000000 0.000000 0.000000 0.000000 0.103912 0.000000
# 6 0.000000 0.000000 0.000000 0.000000 0.000000 0.036201
#
#
# Mechanical properties :
#
#
# Convention : Reuss Voigt Hill
#
# Bulk Modulus (GPa) = 43.67249 49.00208 46.33729
# Shear Modulus (GPa) = 17.78194 21.29828 19.54011
#
# Velocity S-wave (km/s) = 3.22165 3.52583 3.37716
# Velocity P-wave (km/s) = 6.27133 6.72138 6.50025
#
# Compressibility (1/GPa) = 0.02289771
#
# Stress axis : x y z
#
# Youngs Moduli (GPa) = 81.04288 62.67901 48.16497
#
# Poissons Ratio (x) = 0.36131 0.11597
# Poissons Ratio (y) = 0.46717 0.23632
# Poissons Ratio (z) = 0.19514 0.30753
#
# Static dielectric constant tensor:
#      x y z
#    x 3.240740 0.000000 0.000000 
#    y 0.000000 3.285600 0.000000 
#    z 0.000000 0.000000 2.848260 
# 
# 
# High freq. dielectric constant tensor:
#      x y z
#    x 1.666090 0.000000 0.000000 
#    y 0.000000 1.665820 0.000000 
#    z 0.000000 0.000000 1.623610 
# 
# From -- ./inp_files/54295.got.cif
#   From: 2010.03.12/outbox.cif.g09.slc.cpg/sg63_28_cif.got.tgz:54295.got - 2010.04.10 19:34:48.
