data_PCOD8257751
_publ_section_title
;
Structure prediction by ZEFSAII (Michael W. Deem and Ramdas Pophale) SiO2 
 PCOD8257751
Probable space group: C M C M
;
_chemical_formula_sum "Si O2"
_cell_formula_units_Z 88
_cell_length_a 14.367755
_cell_length_b 17.533669
_cell_length_c 18.767326
_cell_angle_alpha 90.000000
_cell_angle_beta 90.000000
_cell_angle_gamma 90.000000
_cell_volume 4727.854640
_symmetry_space_group_name_H-M "C M C M"
_symmetry_group_IT_number 63
_symmetry_cell_setting 'orthorhombic'
loop_
_space_group_symop_operation_xyz
x,y,z
-x,-y,1/2+z
x,-y,-z
-x,y,1/2-z
-x,-y,-z
x,y,1/2-z
-x,y,z
x,-y,1/2+z
1/2+x,1/2+y,z
1/2-x,1/2-y,1/2+z
1/2+x,1/2-y,-z
1/2-x,1/2+y,1/2-z
1/2-x,1/2-y,-z
1/2+x,1/2+y,1/2-z
1/2-x,1/2+y,z
1/2+x,1/2-y,1/2+z
loop_
_atom_site_type_symbol
_atom_site_label
_atom_site_fract_x
_atom_site_fract_y
_atom_site_fract_z
Si Si1 0.607479 0.863136 0.169468
Si Si2 0.163391 0.534258 0.331434
Si Si3 0.301624 0.567550 0.448780
Si Si4 0.000000 0.753195 0.045229
Si Si5 0.179904 0.687230 0.524785
Si Si6 0.500000 0.589032 0.021833
Si Si7 0.500000 0.146731 0.166998
O O1 0.641720 0.842513 0.250000
O O2 0.500000 0.839638 0.160244
O O3 0.670790 0.819549 0.111054
O O4 0.615202 0.953202 0.155651
O O5 0.191696 0.545369 0.250000
O O6 0.260157 0.541214 0.373747
O O7 0.090963 0.598968 0.355647
O O8 0.330912 0.500000 0.500000
O O9 0.220601 0.610445 0.491555
O O10 0.403225 0.608080 0.435159
O O11 0.000000 0.845906 0.041186
O O12 0.000000 0.728839 0.128194
O O13 0.082906 0.710303 0.006975
O O14 0.250000 0.750000 0.500000
O O15 0.500000 0.500000 0.000000
O O16 0.500000 0.164347 0.250000
#
# Coordination Sequence:
#
# PCOD8257751 Si02
#       7
#    16  16  16   8  16   8   8
#     4  10  20  36  59  90 128 163 193 242 312 379
#     4  10  19  33  57  92 128 158 188 233 302 379
#     4  11  21  37  60  85 116 157 205 247 301 356
#     4  12  22  37  61  89 120 151 203 255 300 362
#     4  12  23  36  59  90 120 153 203 256 306 360
#     4  10  24  42  60  78 109 157 210 257 289 338
#     4  10  20  33  55  95 135 156 176 233 315 378
#
# _framework density 18.613092999999999
#
# number of rings (size 3 to 8) (size 9 to 14) (size 15 to 20)
#    0.000    1.273    7.273    0.000    0.000    0.000 
#    0.000    5.000    0.000    5.455    0.000    0.000 
#    0.000    0.000    0.000    0.000    0.000    0.000 
#
# Total GULP energy -545113.477185 kJ/mol
# GULP energy per Si atom -12388.942663 kJ/mol
# Density = 1.857073 g / cm^3
# Si number density = 18.613093 Si / 1000 Ang^3
#
#
#
# Elastic Constant Matrix: (Units=GPa)
#
#
# Indices 1 2 3 4 5 6 
#
# 1 137.3623 28.4197 57.1942 0.0000 0.0000 0.0000
# 2 28.4197 81.9479 43.2626 0.0000 0.0000 0.0000
# 3 57.1942 43.2626 119.5293 0.0000 0.0000 0.0000
# 4 0.0000 0.0000 0.0000 31.9480 0.0000 0.0000
# 5 0.0000 0.0000 0.0000 0.0000 5.9389 0.0000
# 6 0.0000 0.0000 0.0000 0.0000 0.0000 31.4885
#
#
#
# Elastic Compliance Matrix: (Units=1/GPa)
#
#
# Indices 1 2 3 4 5 6 
#
# 1 0.009166 -0.001067 -0.004000 0.000000 0.000000 0.000000
# 2 -0.001067 0.015210 -0.004994 0.000000 0.000000 0.000000
# 3 -0.004000 -0.004994 0.012088 0.000000 0.000000 0.000000
# 4 0.000000 0.000000 0.000000 0.031301 0.000000 0.000000
# 5 0.000000 0.000000 0.000000 0.000000 0.168382 0.000000
# 6 0.000000 0.000000 0.000000 0.000000 0.000000 0.031758
#
#
# Mechanical properties :
#
#
# Convention : Reuss Voigt Hill
#
# Bulk Modulus (GPa) = 61.19617 66.28805 63.74211
# Shear Modulus (GPa) = 17.03732 27.87262 22.45497
#
# Velocity S-wave (km/s) = 3.02874 3.87392 3.47711
# Velocity P-wave (km/s) = 6.72164 7.46329 7.10215
#
# Compressibility (1/GPa) = 0.01634089
#
# Stress axis : x y z
#
# Youngs Moduli (GPa) = 109.09645 65.74772 82.72928
#
# Poissons Ratio (x) = 0.07017 0.33089
# Poissons Ratio (y) = 0.11644 0.41317
# Poissons Ratio (z) = 0.43635 0.32836
#
# Static dielectric constant tensor:
#      x y z
#    x 3.499680 0.000000 0.000000 
#    y 0.000000 3.302780 0.000000 
#    z 0.000000 0.000000 3.347820 
# 
# 
# High freq. dielectric constant tensor:
#      x y z
#    x 1.734310 0.000000 0.000000 
#    y 0.000000 1.714640 0.000000 
#    z 0.000000 0.000000 1.708930 
# 
# From -- ./inp_files/44144.got.cif
#   From: 2010.03.12/outbox.cif.g09.slc.cpg/sg63_23_cif.got.tgz:44144.got - 2010.04.10 19:34:48.
