data_PCOD8257278
_publ_section_title
;
Structure prediction by ZEFSAII (Michael W. Deem and Ramdas Pophale) SiO2 
 PCOD8257278
Probable space group: C M C M
;
_chemical_formula_sum "Si O2"
_cell_formula_units_Z 96
_cell_length_a 21.804717
_cell_length_b 25.669772
_cell_length_c 9.258766
_cell_angle_alpha 90.000000
_cell_angle_beta 90.000000
_cell_angle_gamma 90.000000
_cell_volume 5182.336078
_symmetry_space_group_name_H-M "C M C M"
_symmetry_group_IT_number 63
_symmetry_cell_setting 'orthorhombic'
loop_
_space_group_symop_operation_xyz
x,y,z
-x,-y,1/2+z
x,-y,-z
-x,y,1/2-z
-x,-y,-z
x,y,1/2-z
-x,y,z
x,-y,1/2+z
1/2+x,1/2+y,z
1/2-x,1/2-y,1/2+z
1/2+x,1/2-y,-z
1/2-x,1/2+y,1/2-z
1/2-x,1/2-y,-z
1/2+x,1/2+y,1/2-z
1/2-x,1/2+y,z
1/2+x,1/2-y,1/2+z
loop_
_atom_site_type_symbol
_atom_site_label
_atom_site_fract_x
_atom_site_fract_y
_atom_site_fract_z
Si Si1 0.868240 0.450217 0.920816
Si Si2 0.500000 0.197248 0.420920
Si Si3 0.655784 0.351617 0.920440
Si Si4 0.570466 0.552563 0.081211
Si Si5 0.795633 0.649494 0.079698
Si Si6 0.500000 0.917597 0.920481
Si Si7 0.873452 0.253685 0.921362
O O1 0.859481 0.456287 0.750000
O O2 0.835250 0.398505 0.980885
O O3 0.939300 0.447948 0.969215
O O4 0.838520 0.500000 0.000000
O O5 0.500000 0.192558 0.250000
O O6 0.500000 0.139851 0.490637
O O7 0.560310 0.226915 0.473054
O O8 0.649710 0.342625 0.750000
O O9 0.614596 0.400623 0.970505
O O10 0.725972 0.360385 0.967927
O O11 0.633592 0.300918 0.001702
O O12 0.578934 0.541970 0.250000
O O13 0.500000 0.567411 0.044239
O O14 0.590420 0.500000 0.000000
O O15 0.803139 0.650262 0.250000
O O16 0.822316 0.704733 0.022595
O O17 0.500000 0.910710 0.750000
O O18 0.869141 0.245805 0.750000
#
# Coordination Sequence:
#
# PCOD8257278 Si02
#       7
#    16   8  16  16  16   8  16
#     4  10  19  32  51  74 100 132 173 214 253 295
#     4   9  16  29  52  78  99 129 172 211 241 286
#     4  10  21  35  53  77 105 134 164 202 254 306
#     4   9  19  36  55  74  99 130 163 202 249 299
#     4   9  18  34  53  72 100 139 173 203 244 300
#     4   9  15  29  52  72  96 135 173 207 250 298
#     4  10  19  33  54  78 102 131 172 210 243 290
#
# _framework density 18.524463999999998
#
# number of rings (size 3 to 8) (size 9 to 14) (size 15 to 20)
#    0.000    2.500    1.667    0.750    1.167    1.333 
#    0.000    1.667    0.000    1.000    0.000    0.000 
#    0.000    0.000    0.000    0.000    0.000    0.000 
#
# Total GULP energy -595079.071644 kJ/mol
# GULP energy per Si atom -12397.480659 kJ/mol
# Density = 1.848230 g / cm^3
# Si number density = 18.524464 Si / 1000 Ang^3
#
#
#
# Elastic Constant Matrix: (Units=GPa)
#
#
# Indices 1 2 3 4 5 6 
#
# 1 124.4653 77.5435 26.8861 0.0000 0.0000 0.0000
# 2 77.5435 177.4540 42.4125 0.0000 0.0000 0.0000
# 3 26.8861 42.4125 25.9123 0.0000 0.0000 0.0000
# 4 0.0000 0.0000 0.0000 34.2514 0.0000 0.0000
# 5 0.0000 0.0000 0.0000 0.0000 13.2267 0.0000
# 6 0.0000 0.0000 0.0000 0.0000 0.0000 23.1467
#
#
#
# Elastic Compliance Matrix: (Units=1/GPa)
#
#
# Indices 1 2 3 4 5 6 
#
# 1 0.011607 -0.003603 -0.006145 0.000000 0.000000 0.000000
# 2 -0.003603 0.010375 -0.013243 0.000000 0.000000 0.000000
# 3 -0.006145 -0.013243 0.066643 0.000000 0.000000 0.000000
# 4 0.000000 0.000000 0.000000 0.029196 0.000000 0.000000
# 5 0.000000 0.000000 0.000000 0.000000 0.075605 0.000000
# 6 0.000000 0.000000 0.000000 0.000000 0.000000 0.043203
#
#
# Mechanical properties :
#
#
# Convention : Reuss Voigt Hill
#
# Bulk Modulus (GPa) = 23.45081 69.05732 46.25407
# Shear Modulus (GPa) = 16.84496 26.19092 21.51794
#
# Velocity S-wave (km/s) = 3.01879 3.76421 3.41192
# Velocity P-wave (km/s) = 4.98374 7.50015 6.36749
#
# Compressibility (1/GPa) = 0.04264245
#
# Stress axis : x y z
#
# Youngs Moduli (GPa) = 86.15796 96.38724 15.00522
#
# Poissons Ratio (x) = 0.34729 0.09221
# Poissons Ratio (y) = 0.31043 0.19871
# Poissons Ratio (z) = 0.52947 1.27643
#
# Static dielectric constant tensor:
#      x y z
#    x 3.888650 0.000000 0.000000 
#    y 0.000000 3.485980 0.000000 
#    z 0.000000 0.000000 2.877050 
# 
# 
# High freq. dielectric constant tensor:
#      x y z
#    x 1.727780 0.000000 0.000000 
#    y 0.000000 1.731640 0.000000 
#    z 0.000000 0.000000 1.674310 
# 
# From -- ./inp_files/10566.got.cif
#   From: 2010.03.12/outbox.cif.g09.slc.cpg/sg63_6_cif.got.tgz:10566.got - 2010.04.10 19:34:48.
