data_PCOD8257409
_publ_section_title
;
Structure prediction by ZEFSAII (Michael W. Deem and Ramdas Pophale) SiO2 
 PCOD8257409
Probable space group: C M C M
;
_chemical_formula_sum "Si O2"
_cell_formula_units_Z 96
_cell_length_a 18.975087
_cell_length_b 15.108329
_cell_length_c 17.388890
_cell_angle_alpha 90.000000
_cell_angle_beta 90.000000
_cell_angle_gamma 90.000000
_cell_volume 4985.079280
_symmetry_space_group_name_H-M "C M C M"
_symmetry_group_IT_number 63
_symmetry_cell_setting 'orthorhombic'
loop_
_space_group_symop_operation_xyz
x,y,z
-x,-y,1/2+z
x,-y,-z
-x,y,1/2-z
-x,-y,-z
x,y,1/2-z
-x,y,z
x,-y,1/2+z
1/2+x,1/2+y,z
1/2-x,1/2-y,1/2+z
1/2+x,1/2-y,-z
1/2-x,1/2+y,1/2-z
1/2-x,1/2-y,-z
1/2+x,1/2+y,1/2-z
1/2-x,1/2+y,z
1/2+x,1/2-y,1/2+z
loop_
_atom_site_type_symbol
_atom_site_label
_atom_site_fract_x
_atom_site_fract_y
_atom_site_fract_z
Si Si1 0.421946 0.286895 0.893856
Si Si2 0.191552 0.865490 0.161611
Si Si3 0.298087 0.978497 0.661780
Si Si4 0.078369 0.594518 0.661070
Si Si5 0.270717 0.692967 0.161049
Si Si6 0.920241 0.091821 0.537133
O O1 0.500000 0.313579 0.859040
O O2 0.416190 0.180666 0.892741
O O3 0.354538 0.323474 0.848046
O O4 0.416223 0.325630 0.979105
O O5 0.169380 0.848477 0.250000
O O6 0.241158 0.785969 0.128863
O O7 0.121841 0.876931 0.111710
O O8 0.234312 0.954666 0.152650
O O9 0.315410 0.959422 0.750000
O O10 0.273587 0.887060 0.620915
O O11 0.369277 0.020450 0.625940
O O12 0.099113 0.620269 0.750000
O O13 0.000000 0.554546 0.658609
O O14 0.254585 0.689245 0.250000
O O15 0.000000 0.074028 0.564192
O O16 0.890661 0.000000 0.500000
#
# Coordination Sequence:
#
# PCOD8257409 Si02
#       6
#    16  16  16  16  16  16
#     4  10  19  32  53  79 108 143 183 231 284 332
#     4  10  20  36  57  80 109 146 187 231 281 336
#     4   9  17  31  50  76 110 143 179 228 279 326
#     4   9  16  29  51  77 106 141 181 228 281 330
#     4  10  19  32  53  83 116 149 186 230 280 336
#     4  10  22  39  56  78 111 148 187 234 286 337
#
# _framework density 19.257466000000001
#
# number of rings (size 3 to 8) (size 9 to 14) (size 15 to 20)
#    0.000    2.333    1.667    1.500    0.000    2.000 
#    0.000    1.667    0.000   12.000    0.000    3.500 
#    0.000    0.000    0.000    0.000    0.000    0.000 
#
# Total GULP energy -594712.340550 kJ/mol
# GULP energy per Si atom -12389.840428 kJ/mol
# Density = 1.921364 g / cm^3
# Si number density = 19.257466 Si / 1000 Ang^3
#
#
#
# Elastic Constant Matrix: (Units=GPa)
#
#
# Indices 1 2 3 4 5 6 
#
# 1 124.2583 53.0218 39.9387 0.0000 0.0000 0.0000
# 2 53.0218 90.9032 33.0483 0.0000 0.0000 0.0000
# 3 39.9387 33.0483 44.3212 0.0000 0.0000 0.0000
# 4 0.0000 0.0000 0.0000 16.5973 0.0000 0.0000
# 5 0.0000 0.0000 0.0000 0.0000 27.0123 0.0000
# 6 0.0000 0.0000 0.0000 0.0000 0.0000 27.9437
#
#
#
# Elastic Compliance Matrix: (Units=1/GPa)
#
#
# Indices 1 2 3 4 5 6 
#
# 1 0.012482 -0.004378 -0.007983 0.000000 0.000000 0.000000
# 2 -0.004378 0.016628 -0.008453 0.000000 0.000000 0.000000
# 3 -0.007983 -0.008453 0.036060 0.000000 0.000000 0.000000
# 4 0.000000 0.000000 0.000000 0.060251 0.000000 0.000000
# 5 0.000000 0.000000 0.000000 0.000000 0.037020 0.000000
# 6 0.000000 0.000000 0.000000 0.000000 0.000000 0.035786
#
#
# Mechanical properties :
#
#
# Convention : Reuss Voigt Hill
#
# Bulk Modulus (GPa) = 42.48079 56.83338 49.65708
# Shear Modulus (GPa) = 20.18557 23.20891 21.69724
#
# Velocity S-wave (km/s) = 3.24110 3.47535 3.36027
# Velocity P-wave (km/s) = 6.00945 6.75874 6.39508
#
# Compressibility (1/GPa) = 0.02354005
#
# Stress axis : x y z
#
# Youngs Moduli (GPa) = 80.11667 60.14105 27.73194
#
# Poissons Ratio (x) = 0.26330 0.22139
# Poissons Ratio (y) = 0.35076 0.23443
# Poissons Ratio (z) = 0.63958 0.50839
#
# Static dielectric constant tensor:
#      x y z
#    x 3.750360 0.000000 0.000000 
#    y 0.000000 3.966380 0.000000 
#    z 0.000000 0.000000 3.102420 
# 
# 
# High freq. dielectric constant tensor:
#      x y z
#    x 1.760950 0.000000 0.000000 
#    y 0.000000 1.752070 0.000000 
#    z 0.000000 0.000000 1.699830 
# 
# From -- ./inp_files/35386.got.cif
#   From: 2010.03.12/outbox.cif.g09.slc.cpg/sg63_18_cif.got.tgz:35386.got - 2010.04.10 19:34:48.
