data_PCOD8257724
_publ_section_title
;
Structure prediction by ZEFSAII (Michael W. Deem and Ramdas Pophale) SiO2 
 PCOD8257724
Probable space group: C M C M
;
_chemical_formula_sum "Si O2"
_cell_formula_units_Z 96
_cell_length_a 8.969739
_cell_length_b 20.307670
_cell_length_c 27.740859
_cell_angle_alpha 90.000000
_cell_angle_beta 90.000000
_cell_angle_gamma 90.000000
_cell_volume 5053.122290
_symmetry_space_group_name_H-M "C M C M"
_symmetry_group_IT_number 63
_symmetry_cell_setting 'orthorhombic'
loop_
_space_group_symop_operation_xyz
x,y,z
-x,-y,1/2+z
x,-y,-z
-x,y,1/2-z
-x,-y,-z
x,y,1/2-z
-x,y,z
x,-y,1/2+z
1/2+x,1/2+y,z
1/2-x,1/2-y,1/2+z
1/2+x,1/2-y,-z
1/2-x,1/2+y,1/2-z
1/2-x,1/2-y,-z
1/2+x,1/2+y,1/2-z
1/2-x,1/2+y,z
1/2+x,1/2-y,1/2+z
loop_
_atom_site_type_symbol
_atom_site_label
_atom_site_fract_x
_atom_site_fract_y
_atom_site_fract_z
Si Si1 0.171633 0.247086 0.305921
Si Si2 0.327852 0.013731 0.805934
Si Si3 0.170566 0.311055 0.946243
Si Si4 0.827347 0.324942 0.053475
Si Si5 0.171902 0.375221 0.847653
Si Si6 0.175698 0.866971 0.143077
O O1 0.192044 0.263373 0.250000
O O2 0.227517 0.173623 0.316418
O O3 0.269527 0.297598 0.336242
O O4 0.000000 0.253769 0.321513
O O5 0.295894 0.000817 0.750000
O O6 0.500000 0.031489 0.815035
O O7 0.229488 0.074104 0.823506
O O8 0.279001 0.949212 0.835426
O O9 0.278631 0.250042 0.936643
O O10 0.197028 0.364971 0.904800
O O11 0.000000 0.284966 0.945902
O O12 0.206594 0.344326 0.997945
O O13 0.738103 0.374359 0.088578
O O14 0.000000 0.331621 0.066072
O O15 0.000000 0.363693 0.832988
O O16 0.000000 0.866886 0.141606
#
# Coordination Sequence:
#
# PCOD8257724 Si02
#       6
#    16  16  16  16  16  16
#     4  11  23  37  56  84 115 146 186 237 290 344
#     4  10  22  40  60  82 113 153 192 233 288 348
#     4   9  18  33  56  88 119 149 186 230 283 345
#     4  10  19  33  56  85 118 152 187 232 288 340
#     4  10  20  37  61  88 116 148 188 233 284 343
#     4  12  24  38  57  82 112 150 197 242 287 338
#
# _framework density 18.998155000000001
#
# number of rings (size 3 to 8) (size 9 to 14) (size 15 to 20)
#    0.000    1.667    1.667    3.500    0.000    5.667 
#    0.000    0.833    0.000    5.000    0.000    0.000 
#    0.000    0.000    0.000    0.000    0.000    0.000 
#
# Total GULP energy -595384.700071 kJ/mol
# GULP energy per Si atom -12403.847918 kJ/mol
# Density = 1.895491 g / cm^3
# Si number density = 18.998155 Si / 1000 Ang^3
#
#
#
# Elastic Constant Matrix: (Units=GPa)
#
#
# Indices 1 2 3 4 5 6 
#
# 1 110.8552 41.1208 51.0891 0.0000 0.0000 0.0000
# 2 41.1208 68.8308 31.6207 0.0000 0.0000 0.0000
# 3 51.0891 31.6207 106.5924 0.0000 0.0000 0.0000
# 4 0.0000 0.0000 0.0000 34.8140 0.0000 0.0000
# 5 0.0000 0.0000 0.0000 0.0000 28.3295 0.0000
# 6 0.0000 0.0000 0.0000 0.0000 0.0000 29.8770
#
#
#
# Elastic Compliance Matrix: (Units=1/GPa)
#
#
# Indices 1 2 3 4 5 6 
#
# 1 0.013328 -0.005821 -0.004661 0.000000 0.000000 0.000000
# 2 -0.005821 0.019363 -0.002954 0.000000 0.000000 0.000000
# 3 -0.004661 -0.002954 0.012492 0.000000 0.000000 0.000000
# 4 0.000000 0.000000 0.000000 0.028724 0.000000 0.000000
# 5 0.000000 0.000000 0.000000 0.000000 0.035299 0.000000
# 6 0.000000 0.000000 0.000000 0.000000 0.000000 0.033471
#
#
# Mechanical properties :
#
#
# Convention : Reuss Voigt Hill
#
# Bulk Modulus (GPa) = 54.61386 59.32661 56.97023
# Shear Modulus (GPa) = 28.46513 29.43396 28.94955
#
# Velocity S-wave (km/s) = 3.87500 3.94039 3.90783
# Velocity P-wave (km/s) = 6.98786 7.21094 7.10027
#
# Compressibility (1/GPa) = 0.01831037
#
# Stress axis : x y z
#
# Youngs Moduli (GPa) = 75.02822 51.64457 80.05132
#
# Poissons Ratio (x) = 0.30063 0.37314
# Poissons Ratio (y) = 0.43675 0.23647
# Poissons Ratio (z) = 0.34973 0.15256
#
# Static dielectric constant tensor:
#      x y z
#    x 3.512740 0.000000 0.000000 
#    y 0.000000 3.237580 0.000000 
#    z 0.000000 0.000000 3.816880 
# 
# 
# High freq. dielectric constant tensor:
#      x y z
#    x 1.740920 0.000000 0.000000 
#    y 0.000000 1.712210 0.000000 
#    z 0.000000 0.000000 1.759130 
# 
# From -- ./inp_files/66968.got.cif
#   From: 2010.03.12/outbox.cif.g09.slc.cpg/sg63_34_cif.got.tgz:66968.got - 2010.04.10 19:34:48.
