data_PCOD8257430
_publ_section_title
;
Structure prediction by ZEFSAII (Michael W. Deem and Ramdas Pophale) SiO2 
 PCOD8257430
Probable space group: C M C M
;
_chemical_formula_sum "Si O2"
_cell_formula_units_Z 56
_cell_length_a 22.238838
_cell_length_b 14.332643
_cell_length_c 8.861351
_cell_angle_alpha 90.000000
_cell_angle_beta 90.000000
_cell_angle_gamma 90.000000
_cell_volume 2824.478766
_symmetry_space_group_name_H-M "C M C M"
_symmetry_group_IT_number 63
_symmetry_cell_setting 'orthorhombic'
loop_
_space_group_symop_operation_xyz
x,y,z
-x,-y,1/2+z
x,-y,-z
-x,y,1/2-z
-x,-y,-z
x,y,1/2-z
-x,y,z
x,-y,1/2+z
1/2+x,1/2+y,z
1/2-x,1/2-y,1/2+z
1/2+x,1/2-y,-z
1/2-x,1/2+y,1/2-z
1/2-x,1/2-y,-z
1/2+x,1/2+y,1/2-z
1/2-x,1/2+y,z
1/2+x,1/2-y,1/2+z
loop_
_atom_site_type_symbol
_atom_site_label
_atom_site_fract_x
_atom_site_fract_y
_atom_site_fract_z
Si Si1 0.779361 0.594308 0.574417
Si Si2 0.394996 0.210637 0.922544
Si Si3 0.346825 0.595076 0.426531
Si Si4 0.500000 0.101094 0.426195
O O1 0.805009 0.500000 0.500000
O O2 0.767507 0.576719 0.750000
O O3 0.827858 0.674571 0.546276
O O4 0.717050 0.623305 0.497346
O O5 0.414192 0.190865 0.750000
O O6 0.394191 0.321525 0.956543
O O7 0.441394 0.159664 0.030525
O O8 0.372426 0.500000 0.500000
O O9 0.337178 0.578981 0.250000
O O10 0.500000 0.084500 0.250000
O O11 0.500000 0.000000 0.500000
#
# Coordination Sequence:
#
# PCOD8257430 Si02
#       4
#    16  16  16   8
#     4  10  19  32  53  82 114 148 184 226 277 333
#     4  10  22  39  58  81 112 149 189 232 278 326
#     4  10  20  35  56  83 115 149 184 229 279 329
#     4  12  26  42  63  86 111 144 183 228 276 328
#
# _framework density 19.826665999999999
#
# number of rings (size 3 to 8) (size 9 to 14) (size 15 to 20)
#    0.000    1.714    0.000    6.429    0.000    6.857 
#    0.000    0.714    0.000    0.000    0.000    0.000 
#    0.000    0.000    0.000    0.000    0.000    0.000 
#
# Total GULP energy -347239.622830 kJ/mol
# GULP energy per Si atom -12401.415101 kJ/mol
# Density = 1.978154 g / cm^3
# Si number density = 19.826666 Si / 1000 Ang^3
#
#
#
# Elastic Constant Matrix: (Units=GPa)
#
#
# Indices 1 2 3 4 5 6 
#
# 1 65.8260 56.7928 51.2378 0.0000 0.0000 0.0000
# 2 56.7928 143.4587 73.6479 0.0000 0.0000 0.0000
# 3 51.2378 73.6479 153.2856 0.0000 0.0000 0.0000
# 4 0.0000 0.0000 0.0000 32.2597 0.0000 0.0000
# 5 0.0000 0.0000 0.0000 0.0000 33.2161 0.0000
# 6 0.0000 0.0000 0.0000 0.0000 0.0000 29.6964
#
#
#
# Elastic Compliance Matrix: (Units=1/GPa)
#
#
# Indices 1 2 3 4 5 6 
#
# 1 0.025562 -0.007610 -0.004888 0.000000 0.000000 0.000000
# 2 -0.007610 0.011519 -0.002990 0.000000 0.000000 0.000000
# 3 -0.004888 -0.002990 0.009594 0.000000 0.000000 0.000000
# 4 0.000000 0.000000 0.000000 0.030998 0.000000 0.000000
# 5 0.000000 0.000000 0.000000 0.000000 0.030106 0.000000
# 6 0.000000 0.000000 0.000000 0.000000 0.000000 0.033674
#
#
# Mechanical properties :
#
#
# Convention : Reuss Voigt Hill
#
# Bulk Modulus (GPa) = 63.70313 80.65861 72.18087
# Shear Modulus (GPa) = 28.14300 31.09388 29.61844
#
# Velocity S-wave (km/s) = 3.77165 3.96446 3.86925
# Velocity P-wave (km/s) = 7.15310 7.85659 7.51309
#
# Compressibility (1/GPa) = 0.01569782
#
# Stress axis : x y z
#
# Youngs Moduli (GPa) = 39.12009 86.81592 104.22659
#
# Poissons Ratio (x) = 0.66069 0.50947
# Poissons Ratio (y) = 0.29771 0.31168
# Poissons Ratio (z) = 0.19122 0.25962
#
# Static dielectric constant tensor:
#      x y z
#    x 3.327120 0.000000 0.000000 
#    y 0.000000 3.793290 0.000000 
#    z 0.000000 0.000000 3.684690 
# 
# 
# High freq. dielectric constant tensor:
#      x y z
#    x 1.748900 0.000000 0.000000 
#    y 0.000000 1.789340 0.000000 
#    z 0.000000 0.000000 1.782800 
# 
# From -- ./inp_files/7292.got.cif
#   From: 2010.03.12/outbox.cif.g09.slc.cpg/sg63_4_cif.got.tgz:7292.got - 2010.04.10 19:34:48.
