data_PCOD8257417
_publ_section_title
;
Structure prediction by ZEFSAII (Michael W. Deem and Ramdas Pophale) SiO2 
 PCOD8257417
Probable space group: C M C M
;
_chemical_formula_sum "Si O2"
_cell_formula_units_Z 64
_cell_length_a 14.000432
_cell_length_b 13.088539
_cell_length_c 14.265773
_cell_angle_alpha 90.000000
_cell_angle_beta 90.000000
_cell_angle_gamma 90.000000
_cell_volume 2614.134430
_symmetry_space_group_name_H-M "C M C M"
_symmetry_group_IT_number 63
_symmetry_cell_setting 'orthorhombic'
loop_
_space_group_symop_operation_xyz
x,y,z
-x,-y,1/2+z
x,-y,-z
-x,y,1/2-z
-x,-y,-z
x,y,1/2-z
-x,y,z
x,-y,1/2+z
1/2+x,1/2+y,z
1/2-x,1/2-y,1/2+z
1/2+x,1/2-y,-z
1/2-x,1/2+y,1/2-z
1/2-x,1/2-y,-z
1/2+x,1/2+y,1/2-z
1/2-x,1/2+y,z
1/2+x,1/2-y,1/2+z
loop_
_atom_site_type_symbol
_atom_site_label
_atom_site_fract_x
_atom_site_fract_y
_atom_site_fract_z
Si Si1 0.610656 0.258099 0.354247
Si Si2 0.389348 0.852928 0.464685
Si Si3 0.266723 0.456535 0.140573
Si Si4 0.391575 0.353590 0.859880
O O1 0.637085 0.218479 0.250000
O O2 0.500000 0.288414 0.362162
O O3 0.634995 0.166157 0.425673
O O4 0.666787 0.359808 0.380462
O O5 0.500000 0.881009 0.449812
O O6 0.329449 0.946468 0.421352
O O7 0.360099 0.750115 0.409831
O O8 0.240456 0.463714 0.250000
O O9 0.322583 0.556416 0.105095
O O10 0.380452 0.335236 0.750000
O O11 0.500000 0.382978 0.886210
#
# Coordination Sequence:
#
# PCOD8257417 Si02
#       4
#    16  16  16  16
#     4   9  18  33  53  79 111 147 189 237 286 333
#     4  10  20  34  56  84 113 148 189 233 282 339
#     4  10  19  32  53  80 113 150 185 229 285 340
#     4   9  18  33  54  83 116 148 187 234 281 333
#
# _framework density 24.482291
#
# number of rings (size 3 to 8) (size 9 to 14) (size 15 to 20)
#    0.000    2.500    0.000    2.250    0.000    5.500 
#    0.000    3.750    0.000    4.500    0.000   12.250 
#    0.000    0.000    0.000    0.000    0.000    0.500 
#
# Total GULP energy -396959.141219 kJ/mol
# GULP energy per Si atom -12404.973163 kJ/mol
# Density = 2.442657 g / cm^3
# Si number density = 24.482291 Si / 1000 Ang^3
#
#
#
# Elastic Constant Matrix: (Units=GPa)
#
#
# Indices 1 2 3 4 5 6 
#
# 1 95.4356 46.3284 41.0386 0.0000 0.0000 0.0000
# 2 46.3284 82.9969 50.2777 0.0000 0.0000 0.0000
# 3 41.0386 50.2777 81.5434 0.0000 0.0000 0.0000
# 4 0.0000 0.0000 0.0000 15.2415 0.0000 0.0000
# 5 0.0000 0.0000 0.0000 0.0000 32.1147 0.0000
# 6 0.0000 0.0000 0.0000 0.0000 0.0000 36.0847
#
#
#
# Elastic Compliance Matrix: (Units=1/GPa)
#
#
# Indices 1 2 3 4 5 6 
#
# 1 0.015087 -0.006101 -0.003832 0.000000 0.000000 0.000000
# 2 -0.006101 0.021699 -0.010309 0.000000 0.000000 0.000000
# 3 -0.003832 -0.010309 0.020548 0.000000 0.000000 0.000000
# 4 0.000000 0.000000 0.000000 0.065610 0.000000 0.000000
# 5 0.000000 0.000000 0.000000 0.000000 0.031138 0.000000
# 6 0.000000 0.000000 0.000000 0.000000 0.000000 0.027713
#
#
# Mechanical properties :
#
#
# Convention : Reuss Voigt Hill
#
# Bulk Modulus (GPa) = 59.33928 59.47393 59.40660
# Shear Modulus (GPa) = 21.94000 24.84358 23.39179
#
# Velocity S-wave (km/s) = 2.99684 3.18898 3.09440
# Velocity P-wave (km/s) = 6.02204 6.15669 6.08974
#
# Compressibility (1/GPa) = 0.01685224
#
# Stress axis : x y z
#
# Youngs Moduli (GPa) = 66.28046 46.08568 48.66695
#
# Poissons Ratio (x) = 0.28115 0.18647
# Poissons Ratio (y) = 0.40435 0.50169
# Poissons Ratio (z) = 0.25396 0.47508
#
# Static dielectric constant tensor:
#      x y z
#    x 4.490920 0.000000 0.000000 
#    y 0.000000 4.152390 0.000000 
#    z 0.000000 0.000000 4.635770 
# 
# 
# High freq. dielectric constant tensor:
#      x y z
#    x 1.983870 0.000000 0.000000 
#    y 0.000000 1.959940 0.000000 
#    z 0.000000 0.000000 1.985950 
# 
# From -- ./inp_files/31113.got.cif
#   From: 2010.03.12/outbox.cif.g09.slc.cpg/sg63_16_cif.got.tgz:31113.got - 2010.04.10 19:34:48.
