data_PCOD8257628
_publ_section_title
;
Structure prediction by ZEFSAII (Michael W. Deem and Ramdas Pophale) SiO2 
 PCOD8257628
Probable space group: C M C M
;
_chemical_formula_sum "Si O2"
_cell_formula_units_Z 80
_cell_length_a 17.569028
_cell_length_b 10.278989
_cell_length_c 25.534614
_cell_angle_alpha 90.000000
_cell_angle_beta 90.000000
_cell_angle_gamma 90.000000
_cell_volume 4611.343068
_symmetry_space_group_name_H-M "C M C M"
_symmetry_group_IT_number 63
_symmetry_cell_setting 'orthorhombic'
loop_
_space_group_symop_operation_xyz
x,y,z
-x,-y,1/2+z
x,-y,-z
-x,y,1/2-z
-x,-y,-z
x,y,1/2-z
-x,y,z
x,-y,1/2+z
1/2+x,1/2+y,z
1/2-x,1/2-y,1/2+z
1/2+x,1/2-y,-z
1/2-x,1/2+y,1/2-z
1/2-x,1/2-y,-z
1/2+x,1/2+y,1/2-z
1/2-x,1/2+y,z
1/2+x,1/2-y,1/2+z
loop_
_atom_site_type_symbol
_atom_site_label
_atom_site_fract_x
_atom_site_fract_y
_atom_site_fract_z
Si Si1 0.587351 0.549487 0.310402
Si Si2 0.586718 0.045261 0.555296
Si Si3 0.151870 0.694900 0.857721
Si Si4 0.312932 0.694963 0.690187
Si Si5 0.585743 0.067204 0.339141
O O1 0.603288 0.582994 0.250000
O O2 0.500000 0.511227 0.319891
O O3 0.608531 0.673116 0.344785
O O4 0.637961 0.427832 0.328698
O O5 0.500000 0.094114 0.546742
O O6 0.636369 0.163280 0.580530
O O7 0.587711 0.925105 0.597013
O O8 0.622519 0.000000 0.500000
O O9 0.241288 0.709653 0.847803
O O10 0.117566 0.576032 0.822807
O O11 0.285498 0.678343 0.750000
O O12 0.363017 0.824030 0.686983
O O13 0.500000 0.083073 0.317782
#
# Coordination Sequence:
#
# PCOD8257628 Si02
#       5
#    16  16  16  16  16
#     4  10  20  33  49  71 103 141 174 207 255 312
#     4   8  16  34  59  81 100 130 175 227 274 306
#     4  10  19  33  54  79 100 133 175 216 260 309
#     4  11  22  34  49  74 113 146 167 209 268 312
#     4   9  19  35  56  78 100 137 183 219 251 310
#
# _framework density 17.348524999999999
#
# number of rings (size 3 to 8) (size 9 to 14) (size 15 to 20)
#    1.200    1.200    0.000    3.600    0.000    4.400 
#    0.000    1.000    0.000    0.000    0.000    5.600 
#    0.000    0.000    0.000    0.000    0.000    0.000 
#
# Total GULP energy -495717.995827 kJ/mol
# GULP energy per Si atom -12392.949896 kJ/mol
# Density = 1.730904 g / cm^3
# Si number density = 17.348525 Si / 1000 Ang^3
#
#
#
# Elastic Constant Matrix: (Units=GPa)
#
#
# Indices 1 2 3 4 5 6 
#
# 1 91.3719 11.6586 7.7540 0.0000 0.0000 0.0000
# 2 11.6586 71.3578 0.7615 0.0000 0.0000 0.0000
# 3 7.7540 0.7615 39.9739 0.0000 0.0000 0.0000
# 4 0.0000 0.0000 0.0000 15.1430 0.0000 0.0000
# 5 0.0000 0.0000 0.0000 0.0000 31.5645 0.0000
# 6 0.0000 0.0000 0.0000 0.0000 0.0000 31.5813
#
#
#
# Elastic Compliance Matrix: (Units=1/GPa)
#
#
# Indices 1 2 3 4 5 6 
#
# 1 0.011362 -0.001833 -0.002169 0.000000 0.000000 0.000000
# 2 -0.001833 0.014313 0.000083 0.000000 0.000000 0.000000
# 3 -0.002169 0.000083 0.025435 0.000000 0.000000 0.000000
# 4 0.000000 0.000000 0.000000 0.066037 0.000000 0.000000
# 5 0.000000 0.000000 0.000000 0.000000 0.031681 0.000000
# 6 0.000000 0.000000 0.000000 0.000000 0.000000 0.031664
#
#
# Mechanical properties :
#
#
# Convention : Reuss Voigt Hill
#
# Bulk Modulus (GPa) = 23.10987 27.00573 25.05780
# Shear Modulus (GPa) = 24.66023 27.82638 26.24331
#
# Velocity S-wave (km/s) = 3.77432 4.00929 3.89358
# Velocity P-wave (km/s) = 5.68716 6.08547 5.88969
#
# Compressibility (1/GPa) = 0.04327155
#
# Stress axis : x y z
#
# Youngs Moduli (GPa) = 88.01058 69.86894 39.31517
#
# Poissons Ratio (x) = 0.12809 0.08528
# Poissons Ratio (y) = 0.16134 -0.00326
# Poissons Ratio (z) = 0.19090 -0.00580
#
# Static dielectric constant tensor:
#      x y z
#    x 3.267670 0.000000 0.000000 
#    y 0.000000 3.082530 0.000000 
#    z 0.000000 0.000000 3.061100 
# 
# 
# High freq. dielectric constant tensor:
#      x y z
#    x 1.677670 0.000000 0.000000 
#    y 0.000000 1.661400 0.000000 
#    z 0.000000 0.000000 1.639490 
# 
# From -- ./inp_files/73268.got.cif
#   From: 2010.03.12/outbox.cif.g09.slc.cpg/sg63_37_cif.got.tgz:73268.got - 2010.04.10 19:34:48.
