data_PCOD8257414
_publ_section_title
;
Structure prediction by ZEFSAII (Michael W. Deem and Ramdas Pophale) SiO2 
 PCOD8257414
Probable space group: C M C M
;
_chemical_formula_sum "Si O2"
_cell_formula_units_Z 96
_cell_length_a 9.261874
_cell_length_b 29.355864
_cell_length_c 18.811732
_cell_angle_alpha 90.000000
_cell_angle_beta 90.000000
_cell_angle_gamma 90.000000
_cell_volume 5114.727712
_symmetry_space_group_name_H-M "C M C M"
_symmetry_group_IT_number 63
_symmetry_cell_setting 'orthorhombic'
loop_
_space_group_symop_operation_xyz
x,y,z
-x,-y,1/2+z
x,-y,-z
-x,y,1/2-z
-x,-y,-z
x,y,1/2-z
-x,y,z
x,-y,1/2+z
1/2+x,1/2+y,z
1/2-x,1/2-y,1/2+z
1/2+x,1/2-y,-z
1/2-x,1/2+y,1/2-z
1/2-x,1/2-y,-z
1/2+x,1/2+y,1/2-z
1/2-x,1/2+y,z
1/2+x,1/2-y,1/2+z
loop_
_atom_site_type_symbol
_atom_site_label
_atom_site_fract_x
_atom_site_fract_y
_atom_site_fract_z
Si Si1 0.333353 0.413867 0.052526
Si Si2 0.665334 0.512995 0.831914
Si Si3 0.671031 0.063688 0.414944
Si Si4 0.665810 0.689312 0.553179
Si Si5 0.663703 0.847668 0.669578
Si Si6 0.165831 0.771325 0.897580
O O1 0.500000 0.413987 0.027723
O O2 0.311579 0.439511 0.126965
O O3 0.278392 0.362222 0.062846
O O4 0.241126 0.440005 0.992756
O O5 0.706072 0.521529 0.750000
O O6 0.500000 0.496342 0.839956
O O7 0.770144 0.475377 0.863965
O O8 0.500000 0.058202 0.421260
O O9 0.716740 0.111988 0.381508
O O10 0.500000 0.694159 0.576419
O O11 0.759922 0.721820 0.603664
O O12 0.689363 0.703737 0.472214
O O13 0.676000 0.865525 0.750000
O O14 0.500000 0.833891 0.650514
O O15 0.762357 0.803258 0.661445
O O16 0.000000 0.764309 0.878208
#
# Coordination Sequence:
#
# PCOD8257414 Si02
#       6
#    16  16  16  16  16  16
#     4  10  20  37  59  83 111 145 189 234 273 325
#     4  10  22  39  58  80 109 147 187 228 276 331
#     4  11  22  36  57  84 113 144 184 232 283 336
#     4   9  18  33  54  79 109 142 178 223 273 321
#     4  10  21  36  53  76 110 149 185 225 277 335
#     4  10  19  32  53  80 109 141 180 224 272 324
#
# _framework density 18.769328000000002
#
# number of rings (size 3 to 8) (size 9 to 14) (size 15 to 20)
#    0.000    2.000    1.667    2.000    0.000    6.000 
#    0.000    0.833    0.000    3.000    0.000    0.000 
#    0.000    0.000    0.000    0.000    0.000    0.000 
#
# Total GULP energy -595400.854367 kJ/mol
# GULP energy per Si atom -12404.184466 kJ/mol
# Density = 1.872661 g / cm^3
# Si number density = 18.769328 Si / 1000 Ang^3
#
#
#
# Elastic Constant Matrix: (Units=GPa)
#
#
# Indices 1 2 3 4 5 6 
#
# 1 84.3075 58.2691 41.6599 0.0000 0.0000 0.0000
# 2 58.2691 114.4449 53.2766 0.0000 0.0000 0.0000
# 3 41.6599 53.2766 94.1351 0.0000 0.0000 0.0000
# 4 0.0000 0.0000 0.0000 26.0568 0.0000 0.0000
# 5 0.0000 0.0000 0.0000 0.0000 20.3053 0.0000
# 6 0.0000 0.0000 0.0000 0.0000 0.0000 33.3273
#
#
#
# Elastic Compliance Matrix: (Units=1/GPa)
#
#
# Indices 1 2 3 4 5 6 
#
# 1 0.019382 -0.007977 -0.004063 0.000000 0.000000 0.000000
# 2 -0.007977 0.015146 -0.005042 0.000000 0.000000 0.000000
# 3 -0.004063 -0.005042 0.015275 0.000000 0.000000 0.000000
# 4 0.000000 0.000000 0.000000 0.038378 0.000000 0.000000
# 5 0.000000 0.000000 0.000000 0.000000 0.049248 0.000000
# 6 0.000000 0.000000 0.000000 0.000000 0.000000 0.030005
#
#
# Mechanical properties :
#
#
# Convention : Reuss Voigt Hill
#
# Bulk Modulus (GPa) = 63.94124 66.58872 65.26498
# Shear Modulus (GPa) = 24.17650 25.24999 24.71324
#
# Velocity S-wave (km/s) = 3.59288 3.67178 3.63255
# Velocity P-wave (km/s) = 7.16607 7.31645 7.24165
#
# Compressibility (1/GPa) = 0.01563936
#
# Stress axis : x y z
#
# Youngs Moduli (GPa) = 51.59321 66.02212 65.46748
#
# Poissons Ratio (x) = 0.52666 0.26600
# Poissons Ratio (y) = 0.41156 0.33009
# Poissons Ratio (z) = 0.20963 0.33288
#
# Static dielectric constant tensor:
#      x y z
#    x 3.430300 0.000000 0.000000 
#    y 0.000000 3.506140 0.000000 
#    z 0.000000 0.000000 3.277670 
# 
# 
# High freq. dielectric constant tensor:
#      x y z
#    x 1.728860 0.000000 0.000000 
#    y 0.000000 1.733900 0.000000 
#    z 0.000000 0.000000 1.713020 
# 
# From -- ./inp_files/51291.got.cif
#   From: 2010.03.12/outbox.cif.g09.slc.cpg/sg63_26_cif.got.tgz:51291.got - 2010.04.10 19:34:48.
