data_PCOD8257167
_publ_section_title
;
Structure prediction by ZEFSAII (Michael W. Deem and Ramdas Pophale) SiO2 
 PCOD8257167
Probable space group: C M C M
;
_chemical_formula_sum "Si O2"
_cell_formula_units_Z 72
_cell_length_a 33.087186
_cell_length_b 14.614784
_cell_length_c 8.924549
_cell_angle_alpha 90.000000
_cell_angle_beta 90.000000
_cell_angle_gamma 90.000000
_cell_volume 4315.573447
_symmetry_space_group_name_H-M "C M C M"
_symmetry_group_IT_number 63
_symmetry_cell_setting 'orthorhombic'
loop_
_space_group_symop_operation_xyz
x,y,z
-x,-y,1/2+z
x,-y,-z
-x,y,1/2-z
-x,-y,-z
x,y,1/2-z
-x,y,z
x,-y,1/2+z
1/2+x,1/2+y,z
1/2-x,1/2-y,1/2+z
1/2+x,1/2-y,-z
1/2-x,1/2+y,1/2-z
1/2-x,1/2-y,-z
1/2+x,1/2+y,1/2-z
1/2-x,1/2+y,z
1/2+x,1/2-y,1/2+z
loop_
_atom_site_type_symbol
_atom_site_label
_atom_site_fract_x
_atom_site_fract_y
_atom_site_fract_z
Si Si1 0.587745 0.400054 0.573081
Si Si2 0.684377 0.909935 0.922956
Si Si3 0.342213 0.286868 0.426100
Si Si4 0.000000 0.094823 0.421342
Si Si5 0.276421 0.406468 0.572149
O O1 0.592674 0.500000 0.500000
O O2 0.596563 0.408425 0.750000
O O3 0.618221 0.329587 0.498928
O O4 0.542806 0.356226 0.540259
O O5 0.685564 0.932918 0.750000
O O6 0.656757 0.821973 0.957766
O O7 0.730162 0.891286 0.978166
O O8 0.665625 0.000000 0.000000
O O9 0.340866 0.308178 0.250000
O O10 0.301875 0.324188 0.502970
O O11 0.000000 0.068696 0.250000
O O12 0.000000 0.000000 0.500000
O O13 0.293332 0.500000 0.500000
O O14 0.282304 0.409226 0.750000
#
# Coordination Sequence:
#
# PCOD8257167 Si02
#       5
#    16  16  16   8  16
#     4  10  19  32  49  71  97 126 154 185 223 269
#     4   9  20  35  50  66  88 119 158 198 236 273
#     4  11  21  32  46  69  96 122 153 192 231 273
#     4   8  16  30  48  68  93 122 153 182 217 266
#     4  10  19  32  48  67  91 123 157 192 231 273
#
# _framework density 16.683762000000002
#
# number of rings (size 3 to 8) (size 9 to 14) (size 15 to 20)
#    0.000    2.222    0.000    3.333    0.000    3.556 
#    0.000    0.000    0.000    0.000    0.000    0.778 
#    0.000    0.000    0.000    0.000    0.000    0.000 
#
# Total GULP energy -446194.392803 kJ/mol
# GULP energy per Si atom -12394.288689 kJ/mol
# Density = 1.664579 g / cm^3
# Si number density = 16.683762 Si / 1000 Ang^3
#
#
#
# Elastic Constant Matrix: (Units=GPa)
#
#
# Indices 1 2 3 4 5 6 
#
# 1 95.9562 55.5834 44.3041 0.0000 0.0000 0.0000
# 2 55.5834 100.9230 51.5743 0.0000 0.0000 0.0000
# 3 44.3041 51.5743 85.7572 0.0000 0.0000 0.0000
# 4 0.0000 0.0000 0.0000 27.6761 0.0000 0.0000
# 5 0.0000 0.0000 0.0000 0.0000 20.6389 0.0000
# 6 0.0000 0.0000 0.0000 0.0000 0.0000 26.6796
#
#
#
# Elastic Compliance Matrix: (Units=1/GPa)
#
#
# Indices 1 2 3 4 5 6 
#
# 1 0.016370 -0.006777 -0.004382 0.000000 0.000000 0.000000
# 2 -0.006777 0.017110 -0.006789 0.000000 0.000000 0.000000
# 3 -0.004382 -0.006789 0.018007 0.000000 0.000000 0.000000
# 4 0.000000 0.000000 0.000000 0.036132 0.000000 0.000000
# 5 0.000000 0.000000 0.000000 0.000000 0.048452 0.000000
# 6 0.000000 0.000000 0.000000 0.000000 0.000000 0.037482
#
#
# Mechanical properties :
#
#
# Convention : Reuss Voigt Hill
#
# Bulk Modulus (GPa) = 64.13192 65.06222 64.59707
# Shear Modulus (GPa) = 23.29419 23.74390 23.51905
#
# Velocity S-wave (km/s) = 3.74066 3.77659 3.75867
# Velocity P-wave (km/s) = 7.56174 7.62226 7.59206
#
# Compressibility (1/GPa) = 0.01559286
#
# Stress axis : x y z
#
# Youngs Moduli (GPa) = 61.08792 58.44476 55.53268
#
# Poissons Ratio (x) = 0.39606 0.24332
# Poissons Ratio (y) = 0.41397 0.37702
# Poissons Ratio (z) = 0.26766 0.39679
#
# Static dielectric constant tensor:
#      x y z
#    x 2.716190 0.000000 0.000000 
#    y 0.000000 3.015850 0.000000 
#    z 0.000000 0.000000 3.266150 
# 
# 
# High freq. dielectric constant tensor:
#      x y z
#    x 1.630840 0.000000 0.000000 
#    y 0.000000 1.620880 0.000000 
#    z 0.000000 0.000000 1.658670 
# 
# From -- ./inp_files/13892.got.cif
#   From: 2010.03.12/outbox.cif.g09.slc.cpg/sg63_7_cif.got.tgz:13892.got - 2010.04.10 19:34:48.
