data_PCOD8257019
_publ_section_title
;
Structure prediction by ZEFSAII (Michael W. Deem and Ramdas Pophale) SiO2 
 PCOD8257019
Probable space group: C M C M
;
_chemical_formula_sum "Si O2"
_cell_formula_units_Z 80
_cell_length_a 25.423005
_cell_length_b 20.118223
_cell_length_c 8.920330
_cell_angle_alpha 90.000000
_cell_angle_beta 90.000000
_cell_angle_gamma 90.000000
_cell_volume 4562.442684
_symmetry_space_group_name_H-M "C M C M"
_symmetry_group_IT_number 63
_symmetry_cell_setting 'orthorhombic'
loop_
_space_group_symop_operation_xyz
x,y,z
-x,-y,1/2+z
x,-y,-z
-x,y,1/2-z
-x,-y,-z
x,y,1/2-z
-x,y,z
x,-y,1/2+z
1/2+x,1/2+y,z
1/2-x,1/2-y,1/2+z
1/2+x,1/2-y,-z
1/2-x,1/2+y,1/2-z
1/2-x,1/2-y,-z
1/2+x,1/2+y,1/2-z
1/2-x,1/2+y,z
1/2+x,1/2-y,1/2+z
loop_
_atom_site_type_symbol
_atom_site_label
_atom_site_fract_x
_atom_site_fract_y
_atom_site_fract_z
Si Si1 0.687319 0.567510 0.425704
Si Si2 0.393427 0.319694 0.927653
Si Si3 0.387585 0.178790 0.070063
Si Si4 0.500000 0.325784 0.416397
Si Si5 0.500000 0.831521 0.587021
Si Si6 0.806619 0.567801 0.073471
O O1 0.666271 0.500000 0.500000
O O2 0.684644 0.556555 0.250000
O O3 0.651413 0.628606 0.476543
O O4 0.747006 0.582874 0.477903
O O5 0.398647 0.312258 0.750000
O O6 0.375699 0.249704 0.997160
O O7 0.448200 0.347695 0.992810
O O8 0.390074 0.187319 0.250000
O O9 0.444332 0.150037 0.008240
O O10 0.342564 0.128494 0.016873
O O11 0.500000 0.358532 0.250000
O O12 0.500000 0.247427 0.398346
O O13 0.500000 0.865760 0.750000
O O14 0.811346 0.559615 0.250000
O O15 0.827449 0.500000 0.000000
#
# Coordination Sequence:
#
# PCOD8257019 Si02
#       6
#    16  16  16   8   8  16
#     4   9  19  34  50  69  95 127 162 201 245 290
#     4  10  19  31  49  74 100 123 155 201 244 283
#     4   9  17  30  49  71  96 128 165 200 237 287
#     4   9  17  31  50  71  96 127 159 189 233 291
#     4   7  12  25  44  65  89 119 153 187 224 271
#     4   9  18  33  50  68  94 129 166 203 244 288
#
# _framework density 17.534466999999999
#
# number of rings (size 3 to 8) (size 9 to 14) (size 15 to 20)
#    0.000    3.000    0.000    2.100    0.000    3.200 
#    0.000    1.000    0.000    0.000    0.000    0.000 
#    0.000    0.000    0.000    0.000    0.000    0.000 
#
# Total GULP energy -495746.434219 kJ/mol
# GULP energy per Si atom -12393.660855 kJ/mol
# Density = 1.749456 g / cm^3
# Si number density = 17.534467 Si / 1000 Ang^3
#
#
#
# Elastic Constant Matrix: (Units=GPa)
#
#
# Indices 1 2 3 4 5 6 
#
# 1 135.2712 89.7782 39.9150 0.0000 0.0000 0.0000
# 2 89.7782 118.4552 40.4835 0.0000 0.0000 0.0000
# 3 39.9150 40.4835 45.9195 0.0000 0.0000 0.0000
# 4 0.0000 0.0000 0.0000 27.6488 0.0000 0.0000
# 5 0.0000 0.0000 0.0000 0.0000 21.3395 0.0000
# 6 0.0000 0.0000 0.0000 0.0000 0.0000 9.4806
#
#
#
# Elastic Compliance Matrix: (Units=1/GPa)
#
#
# Indices 1 2 3 4 5 6 
#
# 1 0.015487 -0.010215 -0.004456 0.000000 0.000000 0.000000
# 2 -0.010215 0.018820 -0.007713 0.000000 0.000000 0.000000
# 3 -0.004456 -0.007713 0.032451 0.000000 0.000000 0.000000
# 4 0.000000 0.000000 0.000000 0.036168 0.000000 0.000000
# 5 0.000000 0.000000 0.000000 0.000000 0.046861 0.000000
# 6 0.000000 0.000000 0.000000 0.000000 0.000000 0.105479
#
#
# Mechanical properties :
#
#
# Convention : Reuss Voigt Hill
#
# Bulk Modulus (GPa) = 45.47612 71.11105 58.29359
# Shear Modulus (GPa) = 16.26741 20.32506 18.29623
#
# Velocity S-wave (km/s) = 3.04919 3.40832 3.23374
# Velocity P-wave (km/s) = 6.19583 7.49212 6.87460
#
# Compressibility (1/GPa) = 0.02198956
#
# Stress axis : x y z
#
# Youngs Moduli (GPa) = 64.57091 53.13572 30.81587
#
# Poissons Ratio (x) = 0.54276 0.13733
# Poissons Ratio (y) = 0.65957 0.23768
# Poissons Ratio (z) = 0.28775 0.40983
#
# Static dielectric constant tensor:
#      x y z
#    x 3.732100 0.000000 0.000000 
#    y 0.000000 3.063380 0.000000 
#    z 0.000000 0.000000 3.160610 
# 
# 
# High freq. dielectric constant tensor:
#      x y z
#    x 1.691210 0.000000 0.000000 
#    y 0.000000 1.653060 0.000000 
#    z 0.000000 0.000000 1.666460 
# 
# From -- ./inp_files/10115.got.cif
#   From: 2010.03.12/outbox.cif.g09.slc.cpg/sg63_6_cif.got.tgz:10115.got - 2010.04.10 19:34:48.
