data_PCOD8257226
_publ_section_title
;
Structure prediction by ZEFSAII (Michael W. Deem and Ramdas Pophale) SiO2 
 PCOD8257226
Probable space group: C M C M
;
_chemical_formula_sum "Si O2"
_cell_formula_units_Z 96
_cell_length_a 8.836895
_cell_length_b 23.416874
_cell_length_c 26.208718
_cell_angle_alpha 90.000000
_cell_angle_beta 90.000000
_cell_angle_gamma 90.000000
_cell_volume 5423.434404
_symmetry_space_group_name_H-M "C M C M"
_symmetry_group_IT_number 63
_symmetry_cell_setting 'orthorhombic'
loop_
_space_group_symop_operation_xyz
x,y,z
-x,-y,1/2+z
x,-y,-z
-x,y,1/2-z
-x,-y,-z
x,y,1/2-z
-x,y,z
x,-y,1/2+z
1/2+x,1/2+y,z
1/2-x,1/2-y,1/2+z
1/2+x,1/2-y,-z
1/2-x,1/2+y,1/2-z
1/2-x,1/2-y,-z
1/2+x,1/2+y,1/2-z
1/2-x,1/2+y,z
1/2+x,1/2-y,1/2+z
loop_
_atom_site_type_symbol
_atom_site_label
_atom_site_fract_x
_atom_site_fract_y
_atom_site_fract_z
Si Si1 0.678779 0.909753 0.691316
Si Si2 0.328363 0.916648 0.961507
Si Si3 0.321910 0.330419 0.611399
Si Si4 0.177279 0.233043 0.553819
Si Si5 0.670784 0.989433 0.120908
Si Si6 0.824627 0.101363 0.563756
O O1 0.727151 0.909562 0.750000
O O2 0.500000 0.902907 0.683136
O O3 0.757956 0.856316 0.663963
O O4 0.732116 0.969806 0.666439
O O5 0.500000 0.892794 0.960778
O O6 0.217616 0.870503 0.936302
O O7 0.320277 0.975949 0.931862
O O8 0.273091 0.926538 0.018649
O O9 0.500000 0.323301 0.616085
O O10 0.247539 0.269086 0.600382
O O11 0.250000 0.250000 0.500000
O O12 0.213095 0.167948 0.568659
O O13 0.000000 0.244682 0.549593
O O14 0.500000 0.969956 0.132946
O O15 0.773896 0.932720 0.115052
O O16 0.000000 0.090666 0.553234
#
# Coordination Sequence:
#
# PCOD8257226 Si02
#       6
#    16  16  16  16  16  16
#     4   9  19  38  62  83 104 134 172 217 270 323
#     4  10  19  32  50  71 102 142 179 214 254 308
#     4  11  21  33  52  80 109 138 177 222 267 313
#     4  11  22  35  51  73 105 146 187 222 262 312
#     4   9  19  33  50  75 103 135 173 211 260 317
#     4  11  22  32  47  73 105 141 179 216 258 308
#
# _framework density 17.700962000000001
#
# number of rings (size 3 to 8) (size 9 to 14) (size 15 to 20)
#    0.000    1.833    1.667    4.500    0.000    7.667 
#    0.000    0.000    0.000    1.000    0.000    4.667 
#    0.000    0.000    0.000    0.000    0.000    0.000 
#
# Total GULP energy -595220.804316 kJ/mol
# GULP energy per Si atom -12400.433423 kJ/mol
# Density = 1.766067 g / cm^3
# Si number density = 17.700962 Si / 1000 Ang^3
#
#
#
# Elastic Constant Matrix: (Units=GPa)
#
#
# Indices 1 2 3 4 5 6 
#
# 1 96.4096 58.6291 46.0842 0.0000 0.0000 0.0000
# 2 58.6291 108.5800 60.5640 0.0000 0.0000 0.0000
# 3 46.0842 60.5640 108.6375 0.0000 0.0000 0.0000
# 4 0.0000 0.0000 0.0000 15.7985 0.0000 0.0000
# 5 0.0000 0.0000 0.0000 0.0000 22.5409 0.0000
# 6 0.0000 0.0000 0.0000 0.0000 0.0000 30.3543
#
#
#
# Elastic Compliance Matrix: (Units=1/GPa)
#
#
# Indices 1 2 3 4 5 6 
#
# 1 0.016036 -0.007060 -0.002867 0.000000 0.000000 0.000000
# 2 -0.007060 0.016474 -0.006189 0.000000 0.000000 0.000000
# 3 -0.002867 -0.006189 0.013871 0.000000 0.000000 0.000000
# 4 0.000000 0.000000 0.000000 0.063297 0.000000 0.000000
# 5 0.000000 0.000000 0.000000 0.000000 0.044364 0.000000
# 6 0.000000 0.000000 0.000000 0.000000 0.000000 0.032944
#
#
# Mechanical properties :
#
#
# Convention : Reuss Voigt Hill
#
# Bulk Modulus (GPa) = 70.67223 71.57572 71.12398
# Shear Modulus (GPa) = 22.32791 23.62873 22.97832
#
# Velocity S-wave (km/s) = 3.55547 3.65757 3.60688
# Velocity P-wave (km/s) = 7.54105 7.63943 7.59040
#
# Compressibility (1/GPa) = 0.01414983
#
# Stress axis : x y z
#
# Youngs Moduli (GPa) = 62.35983 60.70128 72.09044
#
# Poissons Ratio (x) = 0.42854 0.20666
# Poissons Ratio (y) = 0.44025 0.44619
# Poissons Ratio (z) = 0.17877 0.37570
#
# Static dielectric constant tensor:
#      x y z
#    x 3.295300 0.000000 0.000000 
#    y 0.000000 3.357960 0.000000 
#    z 0.000000 0.000000 3.093590 
# 
# 
# High freq. dielectric constant tensor:
#      x y z
#    x 1.691560 0.000000 0.000000 
#    y 0.000000 1.685720 0.000000 
#    z 0.000000 0.000000 1.651520 
# 
# From -- ./inp_files/66908.got.cif
#   From: 2010.03.12/outbox.cif.g09.slc.cpg/sg63_34_cif.got.tgz:66908.got - 2010.04.10 19:34:48.
