data_PCOD8257976
_publ_section_title
;
Structure prediction by ZEFSAII (Michael W. Deem and Ramdas Pophale) SiO2 
 PCOD8257976
Probable space group: C M C M
;
_chemical_formula_sum "Si O2"
_cell_formula_units_Z 96
_cell_length_a 8.992545
_cell_length_b 30.251810
_cell_length_c 19.124590
_cell_angle_alpha 90.000000
_cell_angle_beta 90.000000
_cell_angle_gamma 90.000000
_cell_volume 5202.668051
_symmetry_space_group_name_H-M "C M C M"
_symmetry_group_IT_number 63
_symmetry_cell_setting 'orthorhombic'
loop_
_space_group_symop_operation_xyz
x,y,z
-x,-y,1/2+z
x,-y,-z
-x,y,1/2-z
-x,-y,-z
x,y,1/2-z
-x,y,z
x,-y,1/2+z
1/2+x,1/2+y,z
1/2-x,1/2-y,1/2+z
1/2+x,1/2-y,-z
1/2-x,1/2+y,1/2-z
1/2-x,1/2-y,-z
1/2+x,1/2+y,1/2-z
1/2-x,1/2+y,z
1/2+x,1/2-y,1/2+z
loop_
_atom_site_type_symbol
_atom_site_label
_atom_site_fract_x
_atom_site_fract_y
_atom_site_fract_z
Si Si1 0.176159 0.867722 0.435620
Si Si2 0.325755 0.032788 0.169455
Si Si3 0.823999 0.887425 0.908096
Si Si4 0.826607 0.230636 0.932419
Si Si5 0.328255 0.191838 0.169207
Si Si6 0.826326 0.058576 0.830160
O O1 0.231730 0.881418 0.512528
O O2 0.235400 0.818610 0.417168
O O3 0.237806 0.902031 0.378256
O O4 0.000000 0.868270 0.432588
O O5 0.289359 0.044093 0.250000
O O6 0.500000 0.033197 0.155057
O O7 0.248481 0.068392 0.120784
O O8 0.262277 0.985194 0.148881
O O9 0.774670 0.845530 0.863242
O O10 0.000000 0.891839 0.903219
O O11 0.792133 0.261073 0.865768
O O12 0.000000 0.228441 0.949467
O O13 0.750000 0.250000 0.000000
O O14 0.288602 0.196861 0.250000
O O15 0.500000 0.178320 0.157872
O O16 0.796621 0.071957 0.750000
O O17 0.000000 0.049662 0.843762
#
# Coordination Sequence:
#
# PCOD8257976 Si02
#       6
#    16  16  16  16  16  16
#     4   9  19  34  54  81 109 137 174 222 269 312
#     4  10  21  37  55  76 107 142 176 220 270 318
#     4  11  21  34  54  79 109 143 179 219 265 320
#     4  10  19  35  56  77 107 144 180 217 265 318
#     4  10  21  35  53  80 111 142 179 224 269 314
#     4   9  18  35  58  80 103 136 179 222 265 317
#
# _framework density 18.452072000000001
#
# number of rings (size 3 to 8) (size 9 to 14) (size 15 to 20)
#    0.000    2.167    1.667    1.500    0.000    4.667 
#    0.000    9.167    0.000    0.000    0.000    2.333 
#    0.000    0.000    0.000    0.000    0.000    0.000 
#
# Total GULP energy -595295.572803 kJ/mol
# GULP energy per Si atom -12401.991100 kJ/mol
# Density = 1.841007 g / cm^3
# Si number density = 18.452072 Si / 1000 Ang^3
#
#
#
# Elastic Constant Matrix: (Units=GPa)
#
#
# Indices 1 2 3 4 5 6 
#
# 1 51.6084 52.4820 41.2632 0.0000 0.0000 0.0000
# 2 52.4820 178.0459 99.0333 0.0000 0.0000 0.0000
# 3 41.2632 99.0333 133.8267 0.0000 0.0000 0.0000
# 4 0.0000 0.0000 0.0000 43.5110 0.0000 0.0000
# 5 0.0000 0.0000 0.0000 0.0000 22.7581 0.0000
# 6 0.0000 0.0000 0.0000 0.0000 0.0000 28.0056
#
#
#
# Elastic Compliance Matrix: (Units=1/GPa)
#
#
# Indices 1 2 3 4 5 6 
#
# 1 0.029165 -0.006110 -0.004471 0.000000 0.000000 0.000000
# 2 -0.006110 0.010826 -0.006127 0.000000 0.000000 0.000000
# 3 -0.004471 -0.006127 0.013385 0.000000 0.000000 0.000000
# 4 0.000000 0.000000 0.000000 0.022983 0.000000 0.000000
# 5 0.000000 0.000000 0.000000 0.000000 0.043940 0.000000
# 6 0.000000 0.000000 0.000000 0.000000 0.000000 0.035707
#
#
# Mechanical properties :
#
#
# Convention : Reuss Voigt Hill
#
# Bulk Modulus (GPa) = 50.10212 83.22642 66.66427
# Shear Modulus (GPa) = 25.50040 30.23510 27.86775
#
# Velocity S-wave (km/s) = 3.72153 4.05232 3.89045
# Velocity P-wave (km/s) = 6.75854 8.19128 7.50916
#
# Compressibility (1/GPa) = 0.01995923
#
# Stress axis : x y z
#
# Youngs Moduli (GPa) = 34.28781 92.37356 74.70976
#
# Poissons Ratio (x) = 0.56439 0.33404
# Poissons Ratio (y) = 0.20950 0.45776
# Poissons Ratio (z) = 0.15330 0.56599
#
# Static dielectric constant tensor:
#      x y z
#    x 3.276930 0.000000 0.000000 
#    y 0.000000 3.445870 0.000000 
#    z 0.000000 0.000000 2.498370 
# 
# 
# High freq. dielectric constant tensor:
#      x y z
#    x 1.699050 0.000000 0.000000 
#    y 0.000000 1.729800 0.000000 
#    z 0.000000 0.000000 1.719060 
# 
# From -- ./inp_files/51414.got.cif
#   From: 2010.03.12/outbox.cif.g09.slc.cpg/sg63_26_cif.got.tgz:51414.got - 2010.04.10 19:34:48.
