data_PCOD8257287
_publ_section_title
;
Structure prediction by ZEFSAII (Michael W. Deem and Ramdas Pophale) SiO2 
 PCOD8257287
Probable space group: C M C M
;
_chemical_formula_sum "Si O2"
_cell_formula_units_Z 96
_cell_length_a 16.660287
_cell_length_b 16.718331
_cell_length_c 19.238948
_cell_angle_alpha 90.000000
_cell_angle_beta 90.000000
_cell_angle_gamma 90.000000
_cell_volume 5358.666370
_symmetry_space_group_name_H-M "C M C M"
_symmetry_group_IT_number 63
_symmetry_cell_setting 'orthorhombic'
loop_
_space_group_symop_operation_xyz
x,y,z
-x,-y,1/2+z
x,-y,-z
-x,y,1/2-z
-x,-y,-z
x,y,1/2-z
-x,y,z
x,-y,1/2+z
1/2+x,1/2+y,z
1/2-x,1/2-y,1/2+z
1/2+x,1/2-y,-z
1/2-x,1/2+y,1/2-z
1/2-x,1/2-y,-z
1/2+x,1/2+y,1/2-z
1/2-x,1/2+y,z
1/2+x,1/2-y,1/2+z
loop_
_atom_site_type_symbol
_atom_site_label
_atom_site_fract_x
_atom_site_fract_y
_atom_site_fract_z
Si Si1 0.410313 0.439528 0.329059
Si Si2 0.765929 0.689601 0.061698
Si Si3 0.179496 0.474773 0.168806
Si Si4 0.908139 0.562454 0.060291
Si Si5 0.729228 0.677553 0.670860
Si Si6 0.821926 0.039262 0.075240
O O1 0.389516 0.466875 0.250000
O O2 0.500000 0.405476 0.333413
O O3 0.349880 0.370502 0.354077
O O4 0.402636 0.513792 0.383446
O O5 0.848151 0.638283 0.053358
O O6 0.767149 0.739155 0.132101
O O7 0.686725 0.633909 0.064074
O O8 0.750000 0.750000 0.000000
O O9 0.179965 0.497967 0.250000
O O10 0.100435 0.511778 0.132475
O O11 0.191563 0.378554 0.159811
O O12 0.251753 0.515842 0.128159
O O13 0.000000 0.593148 0.054935
O O14 0.886127 0.500000 0.000000
O O15 0.719591 0.702223 0.750000
O O16 0.814935 0.000000 0.000000
#
# Coordination Sequence:
#
# PCOD8257287 Si02
#       6
#    16  16  16  16  16  16
#     4   9  18  34  53  72  99 133 166 203 249 300
#     4  11  20  32  51  74 102 133 165 207 255 304
#     4   9  17  33  54  73  97 129 167 205 244 299
#     4  10  21  36  53  73 100 135 173 213 254 296
#     4   9  18  31  50  75  99 127 160 200 253 304
#     4  10  19  32  51  74  98 131 174 210 242 291
#
# _framework density 17.914905999999998
#
# number of rings (size 3 to 8) (size 9 to 14) (size 15 to 20)
#    0.000    2.333    0.000    6.500    0.000    4.667 
#    0.000    0.833    0.000    1.000    0.000    0.000 
#    0.000    0.000    0.000    0.000    0.000    0.000 
#
# Total GULP energy -594685.224079 kJ/mol
# GULP energy per Si atom -12389.275502 kJ/mol
# Density = 1.787413 g / cm^3
# Si number density = 17.914906 Si / 1000 Ang^3
#
#
#
# Elastic Constant Matrix: (Units=GPa)
#
#
# Indices 1 2 3 4 5 6 
#
# 1 61.4468 37.3714 29.5760 0.0000 0.0000 0.0000
# 2 37.3714 123.9731 60.2601 0.0000 0.0000 0.0000
# 3 29.5760 60.2601 120.8792 0.0000 0.0000 0.0000
# 4 0.0000 0.0000 0.0000 40.1737 0.0000 0.0000
# 5 0.0000 0.0000 0.0000 0.0000 19.7433 0.0000
# 6 0.0000 0.0000 0.0000 0.0000 0.0000 20.3504
#
#
#
# Elastic Compliance Matrix: (Units=1/GPa)
#
#
# Indices 1 2 3 4 5 6 
#
# 1 0.020509 -0.004940 -0.002555 0.000000 0.000000 0.000000
# 2 -0.004940 0.011836 -0.004692 0.000000 0.000000 0.000000
# 3 -0.002555 -0.004692 0.011237 0.000000 0.000000 0.000000
# 4 0.000000 0.000000 0.000000 0.024892 0.000000 0.000000
# 5 0.000000 0.000000 0.000000 0.000000 0.050650 0.000000
# 6 0.000000 0.000000 0.000000 0.000000 0.000000 0.049139
#
#
# Mechanical properties :
#
#
# Convention : Reuss Voigt Hill
#
# Bulk Modulus (GPa) = 52.06358 62.30157 57.18258
# Shear Modulus (GPa) = 25.12067 27.99292 26.55679
#
# Velocity S-wave (km/s) = 3.74869 3.95720 3.85435
# Velocity P-wave (km/s) = 6.91821 7.46533 7.19697
#
# Compressibility (1/GPa) = 0.01920728
#
# Stress axis : x y z
#
# Youngs Moduli (GPa) = 48.75960 84.48788 88.99367
#
# Poissons Ratio (x) = 0.41740 0.22739
# Poissons Ratio (y) = 0.24089 0.41753
# Poissons Ratio (z) = 0.12459 0.39639
#
# Static dielectric constant tensor:
#      x y z
#    x 3.500300 0.000000 0.000000 
#    y 0.000000 3.585280 0.000000 
#    z 0.000000 0.000000 3.826120 
# 
# 
# High freq. dielectric constant tensor:
#      x y z
#    x 1.668540 0.000000 0.000000 
#    y 0.000000 1.681110 0.000000 
#    z 0.000000 0.000000 1.714150 
# 
# From -- ./inp_files/45725.got.cif
#   From: 2010.03.12/outbox.cif.g09.slc.cpg/sg63_23_cif.got.tgz:45725.got - 2010.04.10 19:34:48.
