data_PCOD8257323
_publ_section_title
;
Structure prediction by ZEFSAII (Michael W. Deem and Ramdas Pophale) SiO2 
 PCOD8257323
Probable space group: C M C M
;
_chemical_formula_sum "Si O2"
_cell_formula_units_Z 64
_cell_length_a 18.943172
_cell_length_b 22.829069
_cell_length_c 8.861011
_cell_angle_alpha 90.000000
_cell_angle_beta 90.000000
_cell_angle_gamma 90.000000
_cell_volume 3831.988341
_symmetry_space_group_name_H-M "C M C M"
_symmetry_group_IT_number 63
_symmetry_cell_setting 'orthorhombic'
loop_
_space_group_symop_operation_xyz
x,y,z
-x,-y,1/2+z
x,-y,-z
-x,y,1/2-z
-x,-y,-z
x,y,1/2-z
-x,y,z
x,-y,1/2+z
1/2+x,1/2+y,z
1/2-x,1/2-y,1/2+z
1/2+x,1/2-y,-z
1/2-x,1/2+y,1/2-z
1/2-x,1/2-y,-z
1/2+x,1/2+y,1/2-z
1/2-x,1/2+y,z
1/2+x,1/2-y,1/2+z
loop_
_atom_site_type_symbol
_atom_site_label
_atom_site_fract_x
_atom_site_fract_y
_atom_site_fract_z
Si Si1 0.919052 0.250320 0.574925
Si Si2 0.336406 0.155200 0.571943
Si Si3 0.198776 0.177762 0.422206
Si Si4 0.761151 0.440862 0.580431
O O1 0.899947 0.255809 0.750000
O O2 0.905299 0.313059 0.495229
O O3 0.872350 0.199639 0.499538
O O4 0.000000 0.232807 0.549636
O O5 0.340909 0.151960 0.750000
O O6 0.269583 0.195841 0.517085
O O7 0.328185 0.089387 0.505003
O O8 0.203924 0.201525 0.250000
O O9 0.196789 0.106175 0.422233
O O10 0.736398 0.500000 0.500000
O O11 0.784571 0.455804 0.750000
#
# Coordination Sequence:
#
# PCOD8257323 Si02
#       4
#    16  16  16  16
#     4  11  22  34  49  72 103 135 167 205 249 298
#     4  10  19  32  52  74 101 132 165 205 247 295
#     4   9  19  33  51  74 101 130 165 206 247 294
#     4   9  18  31  51  77 101 127 163 208 248 289
#
# _framework density 16.701512000000001
#
# number of rings (size 3 to 8) (size 9 to 14) (size 15 to 20)
#    1.500    0.750    0.000    4.500    0.000    2.000 
#    0.000    0.000    0.000    1.500    0.000    0.000 
#    0.000    0.000    0.000    0.000    0.000    0.000 
#
# Total GULP energy -396503.366472 kJ/mol
# GULP energy per Si atom -12390.730202 kJ/mol
# Density = 1.666350 g / cm^3
# Si number density = 16.701512 Si / 1000 Ang^3
#
#
#
# Elastic Constant Matrix: (Units=GPa)
#
#
# Indices 1 2 3 4 5 6 
#
# 1 54.0620 14.7287 40.5978 0.0000 0.0000 0.0000
# 2 14.7287 52.2334 34.9828 0.0000 0.0000 0.0000
# 3 40.5978 34.9828 164.1585 0.0000 0.0000 0.0000
# 4 0.0000 0.0000 0.0000 31.5662 0.0000 0.0000
# 5 0.0000 0.0000 0.0000 0.0000 24.6056 0.0000
# 6 0.0000 0.0000 0.0000 0.0000 0.0000 7.3448
#
#
#
# Elastic Compliance Matrix: (Units=1/GPa)
#
#
# Indices 1 2 3 4 5 6 
#
# 1 0.023150 -0.003142 -0.005056 0.000000 0.000000 0.000000
# 2 -0.003142 0.022759 -0.004073 0.000000 0.000000 0.000000
# 3 -0.005056 -0.004073 0.008210 0.000000 0.000000 0.000000
# 4 0.000000 0.000000 0.000000 0.031679 0.000000 0.000000
# 5 0.000000 0.000000 0.000000 0.000000 0.040641 0.000000
# 6 0.000000 0.000000 0.000000 0.000000 0.000000 0.136150
#
#
# Mechanical properties :
#
#
# Convention : Reuss Voigt Hill
#
# Bulk Modulus (GPa) = 33.80943 50.11919 41.96431
# Shear Modulus (GPa) = 16.83566 24.71298 20.77432
#
# Velocity S-wave (km/s) = 3.17840 3.85084 3.53066
# Velocity P-wave (km/s) = 5.81007 7.06016 6.46540
#
# Compressibility (1/GPa) = 0.02957755
#
# Stress axis : x y z
#
# Youngs Moduli (GPa) = 43.19706 43.93948 121.80378
#
# Poissons Ratio (x) = 0.13805 0.61579
# Poissons Ratio (y) = 0.13572 0.49610
# Poissons Ratio (z) = 0.21839 0.17896
#
# Static dielectric constant tensor:
#      x y z
#    x 2.764440 0.000000 0.000000 
#    y 0.000000 3.045510 0.000000 
#    z 0.000000 0.000000 3.237700 
# 
# 
# High freq. dielectric constant tensor:
#      x y z
#    x 1.598220 0.000000 0.000000 
#    y 0.000000 1.636390 0.000000 
#    z 0.000000 0.000000 1.668500 
# 
# From -- ./inp_files/5739.got.cif
#   From: 2010.03.12/outbox.cif.g09.slc.cpg/sg63_3_cif.got.tgz:5739.got - 2010.04.10 19:34:48.
