data_PCOD8257538
_publ_section_title
;
Structure prediction by ZEFSAII (Michael W. Deem and Ramdas Pophale) SiO2 
 PCOD8257538
Probable space group: C M C M
;
_chemical_formula_sum "Si O2"
_cell_formula_units_Z 96
_cell_length_a 23.514495
_cell_length_b 25.738943
_cell_length_c 8.896032
_cell_angle_alpha 90.000000
_cell_angle_beta 90.000000
_cell_angle_gamma 90.000000
_cell_volume 5384.218808
_symmetry_space_group_name_H-M "C M C M"
_symmetry_group_IT_number 63
_symmetry_cell_setting 'orthorhombic'
loop_
_space_group_symop_operation_xyz
x,y,z
-x,-y,1/2+z
x,-y,-z
-x,y,1/2-z
-x,-y,-z
x,y,1/2-z
-x,y,z
x,-y,1/2+z
1/2+x,1/2+y,z
1/2-x,1/2-y,1/2+z
1/2+x,1/2-y,-z
1/2-x,1/2+y,1/2-z
1/2-x,1/2-y,-z
1/2+x,1/2+y,1/2-z
1/2-x,1/2+y,z
1/2+x,1/2-y,1/2+z
loop_
_atom_site_type_symbol
_atom_site_label
_atom_site_fract_x
_atom_site_fract_y
_atom_site_fract_z
Si Si1 0.436665 0.248616 0.570997
Si Si2 0.862908 0.651804 0.571804
Si Si3 0.869404 0.153100 0.072251
Si Si4 0.435424 0.946527 0.427216
Si Si5 0.065141 0.946609 0.572797
Si Si6 0.252049 0.193072 0.427945
O O1 0.438270 0.250095 0.750000
O O2 0.500000 0.246210 0.504382
O O3 0.403076 0.198182 0.516066
O O4 0.405815 0.299350 0.504666
O O5 0.853134 0.653564 0.750000
O O6 0.892814 0.598606 0.519405
O O7 0.803006 0.657904 0.489318
O O8 0.876666 0.153401 0.250000
O O9 0.894581 0.099164 0.008409
O O10 0.804069 0.160857 0.025906
O O11 0.433149 0.952770 0.250000
O O12 0.500000 0.933292 0.478884
O O13 0.414119 0.000000 0.500000
O O14 0.071231 0.952116 0.750000
O O15 0.000000 0.934350 0.527189
O O16 0.086426 0.000000 0.500000
O O17 0.256552 0.200352 0.250000
O O18 0.250000 0.250000 0.500000
#
# Coordination Sequence:
#
# PCOD8257538 Si02
#       6
#    16  16  16  16  16  16
#     4   9  15  25  47  76 100 123 159 209 255 297
#     4  10  19  33  52  77 104 132 172 215 257 306
#     4   9  17  30  49  74  99 127 168 208 243 294
#     4   9  18  33  54  79 106 137 173 215 262 312
#     4   9  17  31  52  76 100 127 161 202 248 295
#     4  11  21  35  53  74 102 138 174 211 256 306
#
# _framework density 17.829884
#
# number of rings (size 3 to 8) (size 9 to 14) (size 15 to 20)
#    0.000    2.500    1.667    1.500    0.000    4.667 
#    0.000    2.500    0.000    5.500    0.000    0.000 
#    0.000    0.000    0.000    0.000    0.000    0.000 
#
# Total GULP energy -595152.637336 kJ/mol
# GULP energy per Si atom -12399.013278 kJ/mol
# Density = 1.778930 g / cm^3
# Si number density = 17.829884 Si / 1000 Ang^3
#
#
#
# Elastic Constant Matrix: (Units=GPa)
#
#
# Indices 1 2 3 4 5 6 
#
# 1 158.0100 100.3686 31.9779 0.0000 0.0000 0.0000
# 2 100.3686 181.4851 32.9896 0.0000 0.0000 0.0000
# 3 31.9779 32.9896 26.0804 0.0000 0.0000 0.0000
# 4 0.0000 0.0000 0.0000 27.1994 0.0000 0.0000
# 5 0.0000 0.0000 0.0000 0.0000 25.3660 0.0000
# 6 0.0000 0.0000 0.0000 0.0000 0.0000 31.3590
#
#
#
# Elastic Compliance Matrix: (Units=1/GPa)
#
#
# Indices 1 2 3 4 5 6 
#
# 1 0.010740 -0.004605 -0.007344 0.000000 0.000000 0.000000
# 2 -0.004605 0.009130 -0.005902 0.000000 0.000000 0.000000
# 3 -0.007344 -0.005902 0.054814 0.000000 0.000000 0.000000
# 4 0.000000 0.000000 0.000000 0.036766 0.000000 0.000000
# 5 0.000000 0.000000 0.000000 0.000000 0.039423 0.000000
# 6 0.000000 0.000000 0.000000 0.000000 0.000000 0.031889
#
#
# Mechanical properties :
#
#
# Convention : Reuss Voigt Hill
#
# Bulk Modulus (GPa) = 25.65335 77.36084 51.50710
# Shear Modulus (GPa) = 21.60241 30.13417 25.86829
#
# Velocity S-wave (km/s) = 3.48456 4.11553 3.81312
# Velocity P-wave (km/s) = 5.53250 8.12810 6.95250
#
# Compressibility (1/GPa) = 0.03898126
#
# Stress axis : x y z
#
# Youngs Moduli (GPa) = 93.11126 109.53471 18.24364
#
# Poissons Ratio (x) = 0.50436 0.13398
# Poissons Ratio (y) = 0.42874 0.10768
# Poissons Ratio (z) = 0.68381 0.64651
#
# Static dielectric constant tensor:
#      x y z
#    x 3.473360 0.000000 0.000000 
#    y 0.000000 3.456230 0.000000 
#    z 0.000000 0.000000 2.940600 
# 
# 
# High freq. dielectric constant tensor:
#      x y z
#    x 1.694120 0.000000 0.000000 
#    y 0.000000 1.695990 0.000000 
#    z 0.000000 0.000000 1.652580 
# 
# From -- ./inp_files/10726.got.cif
#   From: 2010.03.12/outbox.cif.g09.slc.cpg/sg63_6_cif.got.tgz:10726.got - 2010.04.10 19:34:48.
