data_PCOD8257689
_publ_section_title
;
Structure prediction by ZEFSAII (Michael W. Deem and Ramdas Pophale) SiO2 
 PCOD8257689
Probable space group: C M C M
;
_chemical_formula_sum "Si O2"
_cell_formula_units_Z 112
_cell_length_a 21.709353
_cell_length_b 12.332720
_cell_length_c 21.340594
_cell_angle_alpha 90.000000
_cell_angle_beta 90.000000
_cell_angle_gamma 90.000000
_cell_volume 5713.631872
_symmetry_space_group_name_H-M "C M C M"
_symmetry_group_IT_number 63
_symmetry_cell_setting 'orthorhombic'
loop_
_space_group_symop_operation_xyz
x,y,z
-x,-y,1/2+z
x,-y,-z
-x,y,1/2-z
-x,-y,-z
x,y,1/2-z
-x,y,z
x,-y,1/2+z
1/2+x,1/2+y,z
1/2-x,1/2-y,1/2+z
1/2+x,1/2-y,-z
1/2-x,1/2+y,1/2-z
1/2-x,1/2-y,-z
1/2+x,1/2+y,1/2-z
1/2-x,1/2+y,z
1/2+x,1/2-y,1/2+z
loop_
_atom_site_type_symbol
_atom_site_label
_atom_site_fract_x
_atom_site_fract_y
_atom_site_fract_z
Si Si1 0.662637 0.045454 0.323692
Si Si2 0.071579 0.071533 0.910088
Si Si3 0.567730 0.236981 0.320835
Si Si4 0.566815 0.871987 0.178025
Si Si5 0.156655 0.807424 0.998308
Si Si6 0.430532 0.671250 0.394008
Si Si7 0.783608 0.403500 0.952383
O O1 0.687087 0.037850 0.250000
O O2 0.624939 0.939922 0.346822
O O3 0.616705 0.144387 0.331261
O O4 0.714654 0.060130 0.378241
O O5 0.087791 0.155454 0.856185
O O6 0.000000 0.077529 0.931471
O O7 0.089018 0.953184 0.883073
O O8 0.116470 0.100669 0.966971
O O9 0.565267 0.274542 0.250000
O O10 0.500000 0.195634 0.342870
O O11 0.562433 0.900507 0.250000
O O12 0.500000 0.904888 0.147472
O O13 0.577106 0.742887 0.168878
O O14 0.113454 0.766402 0.942453
O O15 0.215342 0.867532 0.969762
O O16 0.172354 0.701663 0.039540
O O17 0.500000 0.675010 0.419812
O O18 0.803913 0.500000 0.000000
#
# Coordination Sequence:
#
# PCOD8257689 Si02
#       7
#    16  16  16  16  16  16  16
#     4  10  19  36  59  82 113 150 192 238 286 344
#     4  10  19  33  55  82 114 149 189 235 286 343
#     4   9  17  30  52  82 113 145 182 228 286 345
#     4   9  18  33  55  83 114 148 183 224 282 347
#     4  11  22  38  56  79 111 147 191 237 288 345
#     4  10  20  34  54  80 110 145 184 229 282 340
#     4  11  23  38  59  83 112 152 197 241 292 351
#
# _framework density 19.602243000000001
#
# number of rings (size 3 to 8) (size 9 to 14) (size 15 to 20)
#    0.000    2.000    1.429    3.000    0.000    3.429 
#    0.000    3.571    0.000    9.429    0.000    0.000 
#    0.000    0.000    0.000    0.000    0.000    0.000 
#
# Total GULP energy -693735.618345 kJ/mol
# GULP energy per Si atom -12388.136042 kJ/mol
# Density = 1.955763 g / cm^3
# Si number density = 19.602243 Si / 1000 Ang^3
#
#
#
# Elastic Constant Matrix: (Units=GPa)
#
#
# Indices 1 2 3 4 5 6 
#
# 1 59.9694 39.3493 26.2592 0.0000 0.0000 0.0000
# 2 39.3493 110.7658 37.2906 0.0000 0.0000 0.0000
# 3 26.2592 37.2906 82.2294 0.0000 0.0000 0.0000
# 4 0.0000 0.0000 0.0000 34.4206 0.0000 0.0000
# 5 0.0000 0.0000 0.0000 0.0000 17.1608 0.0000
# 6 0.0000 0.0000 0.0000 0.0000 0.0000 36.7796
#
#
#
# Elastic Compliance Matrix: (Units=1/GPa)
#
#
# Indices 1 2 3 4 5 6 
#
# 1 0.022956 -0.006712 -0.004287 0.000000 0.000000 0.000000
# 2 -0.006712 0.012617 -0.003578 0.000000 0.000000 0.000000
# 3 -0.004287 -0.003578 0.015153 0.000000 0.000000 0.000000
# 4 0.000000 0.000000 0.000000 0.029052 0.000000 0.000000
# 5 0.000000 0.000000 0.000000 0.000000 0.058272 0.000000
# 6 0.000000 0.000000 0.000000 0.000000 0.000000 0.027189
#
#
# Mechanical properties :
#
#
# Convention : Reuss Voigt Hill
#
# Bulk Modulus (GPa) = 46.35716 50.97366 48.66541
# Shear Modulus (GPa) = 24.80334 27.67657 26.23996
#
# Velocity S-wave (km/s) = 3.56101 3.76161 3.66269
# Velocity P-wave (km/s) = 6.37244 6.70274 6.53968
#
# Compressibility (1/GPa) = 0.02157164
#
# Stress axis : x y z
#
# Youngs Moduli (GPa) = 43.56070 79.25703 65.99380
#
# Poissons Ratio (x) = 0.53197 0.28292
# Poissons Ratio (y) = 0.29238 0.23615
# Poissons Ratio (z) = 0.18675 0.28361
#
# Static dielectric constant tensor:
#      x y z
#    x 3.649590 0.000000 0.000000 
#    y 0.000000 3.748330 0.000000 
#    z 0.000000 0.000000 3.624560 
# 
# 
# High freq. dielectric constant tensor:
#      x y z
#    x 1.753290 0.000000 0.000000 
#    y 0.000000 1.774520 0.000000 
#    z 0.000000 0.000000 1.751920 
# 
# From -- ./inp_files/57618.got.cif
#   From: 2010.03.12/outbox.cif.g09.slc.cpg/sg63_29_cif.got.tgz:57618.got - 2010.04.10 19:34:48.
