data_PCOD8257663
_publ_section_title
;
Structure prediction by ZEFSAII (Michael W. Deem and Ramdas Pophale) SiO2 
 PCOD8257663
Probable space group: C M C M
;
_chemical_formula_sum "Si O2"
_cell_formula_units_Z 96
_cell_length_a 8.870996
_cell_length_b 20.712162
_cell_length_c 26.893943
_cell_angle_alpha 90.000000
_cell_angle_beta 90.000000
_cell_angle_gamma 90.000000
_cell_volume 4941.426020
_symmetry_space_group_name_H-M "C M C M"
_symmetry_group_IT_number 63
_symmetry_cell_setting 'orthorhombic'
loop_
_space_group_symop_operation_xyz
x,y,z
-x,-y,1/2+z
x,-y,-z
-x,y,1/2-z
-x,-y,-z
x,y,1/2-z
-x,y,z
x,-y,1/2+z
1/2+x,1/2+y,z
1/2-x,1/2-y,1/2+z
1/2+x,1/2-y,-z
1/2-x,1/2+y,1/2-z
1/2-x,1/2-y,-z
1/2+x,1/2+y,1/2-z
1/2-x,1/2+y,z
1/2+x,1/2-y,1/2+z
loop_
_atom_site_type_symbol
_atom_site_label
_atom_site_fract_x
_atom_site_fract_y
_atom_site_fract_z
Si Si1 0.821542 0.311413 0.974304
Si Si2 0.822905 0.815818 0.632264
Si Si3 0.179390 0.439027 0.030269
Si Si4 0.326391 0.556490 0.307374
Si Si5 0.321341 0.936552 0.142124
Si Si6 0.679300 0.807566 0.305832
O O1 0.769964 0.317780 0.918022
O O2 0.000000 0.305283 0.976667
O O3 0.750000 0.250000 0.000000
O O4 0.763736 0.374025 0.004032
O O5 0.782363 0.879524 0.662888
O O6 0.765682 0.754674 0.663809
O O7 0.000000 0.810539 0.620438
O O8 0.243941 0.441481 0.086271
O O9 0.000000 0.441613 0.030903
O O10 0.245063 0.500000 0.000000
O O11 0.290851 0.570090 0.250000
O O12 0.500000 0.538321 0.315731
O O13 0.226085 0.497761 0.325920
O O14 0.500000 0.933706 0.140594
O O15 0.257050 0.871694 0.167520
O O16 0.745164 0.804277 0.250000
O O17 0.500000 0.808986 0.303903
#
# Coordination Sequence:
#
# PCOD8257663 Si02
#       6
#    16  16  16  16  16  16
#     4  11  22  37  58  82 109 140 175 219 269 320
#     4  10  20  36  57  79 105 139 180 222 263 313
#     4   9  18  33  53  77 105 138 176 217 261 309
#     4  10  21  36  54  79 112 146 176 213 268 325
#     4  10  19  33  55  79 102 134 179 224 260 303
#     4   9  17  31  53  78 102 135 182 227 262 305
#
# _framework density 19.427591
#
# number of rings (size 3 to 8) (size 9 to 14) (size 15 to 20)
#    0.000    2.167    0.000    3.500    0.000    7.667 
#    0.000    4.167    0.000    7.000    0.000    0.000 
#    0.000    0.000    0.000    0.000    0.000    0.000 
#
# Total GULP energy -595331.619445 kJ/mol
# GULP energy per Si atom -12402.742072 kJ/mol
# Density = 1.938337 g / cm^3
# Si number density = 19.427591 Si / 1000 Ang^3
#
#
#
# Elastic Constant Matrix: (Units=GPa)
#
#
# Indices 1 2 3 4 5 6 
#
# 1 27.7151 27.7424 25.0727 0.0000 0.0000 0.0000
# 2 27.7424 156.6234 54.4678 0.0000 0.0000 0.0000
# 3 25.0727 54.4678 137.1552 0.0000 0.0000 0.0000
# 4 0.0000 0.0000 0.0000 46.8554 0.0000 0.0000
# 5 0.0000 0.0000 0.0000 0.0000 25.0144 0.0000
# 6 0.0000 0.0000 0.0000 0.0000 0.0000 27.5779
#
#
#
# Elastic Compliance Matrix: (Units=1/GPa)
#
#
# Indices 1 2 3 4 5 6 
#
# 1 0.048104 -0.006338 -0.006277 0.000000 0.000000 0.000000
# 2 -0.006338 0.008243 -0.002115 0.000000 0.000000 0.000000
# 3 -0.006277 -0.002115 0.009278 0.000000 0.000000 0.000000
# 4 0.000000 0.000000 0.000000 0.021342 0.000000 0.000000
# 5 0.000000 0.000000 0.000000 0.000000 0.039977 0.000000
# 6 0.000000 0.000000 0.000000 0.000000 0.000000 0.036261
#
#
# Mechanical properties :
#
#
# Convention : Reuss Voigt Hill
#
# Bulk Modulus (GPa) = 27.65014 59.56216 43.60615
# Shear Modulus (GPa) = 24.42373 34.17026 29.29699
#
# Velocity S-wave (km/s) = 3.54950 4.19842 3.88752
# Velocity P-wave (km/s) = 5.57332 7.36392 6.53029
#
# Compressibility (1/GPa) = 0.03616618
#
# Stress axis : x y z
#
# Youngs Moduli (GPa) = 20.78842 121.31804 107.77842
#
# Poissons Ratio (x) = 0.76888 0.67650
# Poissons Ratio (y) = 0.13175 0.22794
# Poissons Ratio (z) = 0.13048 0.25657
#
# Static dielectric constant tensor:
#      x y z
#    x 3.120200 0.000000 0.000000 
#    y 0.000000 3.746290 0.000000 
#    z 0.000000 0.000000 3.806270 
# 
# 
# High freq. dielectric constant tensor:
#      x y z
#    x 1.712170 0.000000 0.000000 
#    y 0.000000 1.776360 0.000000 
#    z 0.000000 0.000000 1.777880 
# 
# From -- ./inp_files/66926.got.cif
#   From: 2010.03.12/outbox.cif.g09.slc.cpg/sg63_34_cif.got.tgz:66926.got - 2010.04.10 19:34:48.
