data_PCOD8257140
_publ_section_title
;
Structure prediction by ZEFSAII (Michael W. Deem and Ramdas Pophale) SiO2 
 PCOD8257140
Probable space group: C M C M
;
_chemical_formula_sum "Si O2"
_cell_formula_units_Z 64
_cell_length_a 14.449329
_cell_length_b 12.481375
_cell_length_c 14.274002
_cell_angle_alpha 90.000000
_cell_angle_beta 90.000000
_cell_angle_gamma 90.000000
_cell_volume 2574.280486
_symmetry_space_group_name_H-M "C M C M"
_symmetry_group_IT_number 63
_symmetry_cell_setting 'orthorhombic'
loop_
_space_group_symop_operation_xyz
x,y,z
-x,-y,1/2+z
x,-y,-z
-x,y,1/2-z
-x,-y,-z
x,y,1/2-z
-x,y,z
x,-y,1/2+z
1/2+x,1/2+y,z
1/2-x,1/2-y,1/2+z
1/2+x,1/2-y,-z
1/2-x,1/2+y,1/2-z
1/2-x,1/2-y,-z
1/2+x,1/2+y,1/2-z
1/2-x,1/2+y,z
1/2+x,1/2-y,1/2+z
loop_
_atom_site_type_symbol
_atom_site_label
_atom_site_fract_x
_atom_site_fract_y
_atom_site_fract_z
Si Si1 0.605879 0.138062 0.645679
Si Si2 0.786804 0.427762 0.642528
Si Si3 0.394759 0.749425 0.962832
Si Si4 0.896491 0.964435 0.143304
O O1 0.637980 0.175206 0.750000
O O2 0.500000 0.099807 0.647478
O O3 0.619470 0.237777 0.574856
O O4 0.665059 0.037672 0.608793
O O5 0.812393 0.407333 0.750000
O O6 0.821525 0.326934 0.585384
O O7 0.676344 0.440393 0.626716
O O8 0.500000 0.780648 0.934098
O O9 0.373410 0.629351 0.930178
O O10 0.887967 0.919997 0.250000
O O11 0.000000 0.010257 0.125056
#
# Coordination Sequence:
#
# PCOD8257140 Si02
#       4
#    16  16  16  16
#     4   9  18  32  51  79 113 145 181 231 288 337
#     4  10  19  31  52  81 112 145 182 230 284 333
#     4  10  19  33  57  84 109 144 189 233 278 334
#     4   9  19  35  54  79 111 147 189 232 274 330
#
# _framework density 24.861317
#
# number of rings (size 3 to 8) (size 9 to 14) (size 15 to 20)
#    0.000    2.500    0.000    2.250    0.000    5.500 
#    0.000    0.000    0.000    7.500    0.000   10.500 
#    0.000    0.000    0.000    0.000    0.000    0.500 
#
# Total GULP energy -396836.020090 kJ/mol
# GULP energy per Si atom -12401.125628 kJ/mol
# Density = 2.480473 g / cm^3
# Si number density = 24.861317 Si / 1000 Ang^3
#
#
#
# Elastic Constant Matrix: (Units=GPa)
#
#
# Indices 1 2 3 4 5 6 
#
# 1 126.8606 44.1264 36.1648 0.0000 0.0000 0.0000
# 2 44.1264 40.7671 16.6477 0.0000 0.0000 0.0000
# 3 36.1648 16.6477 69.9832 0.0000 0.0000 0.0000
# 4 0.0000 0.0000 0.0000 14.5935 0.0000 0.0000
# 5 0.0000 0.0000 0.0000 0.0000 22.3447 0.0000
# 6 0.0000 0.0000 0.0000 0.0000 0.0000 33.3663
#
#
#
# Elastic Compliance Matrix: (Units=1/GPa)
#
#
# Indices 1 2 3 4 5 6 
#
# 1 0.013534 -0.013062 -0.003887 0.000000 0.000000 0.000000
# 2 -0.013062 0.039776 -0.002712 0.000000 0.000000 0.000000
# 3 -0.003887 -0.002712 0.016943 0.000000 0.000000 0.000000
# 4 0.000000 0.000000 0.000000 0.068524 0.000000 0.000000
# 5 0.000000 0.000000 0.000000 0.000000 0.044753 0.000000
# 6 0.000000 0.000000 0.000000 0.000000 0.000000 0.029970
#
#
# Mechanical properties :
#
#
# Convention : Reuss Voigt Hill
#
# Bulk Modulus (GPa) = 32.32999 47.94321 40.13660
# Shear Modulus (GPa) = 19.00190 23.43904 21.22047
#
# Velocity S-wave (km/s) = 2.76763 3.07382 2.92473
# Velocity P-wave (km/s) = 4.82134 5.65013 5.25211
#
# Compressibility (1/GPa) = 0.03093104
#
# Stress axis : x y z
#
# Youngs Moduli (GPa) = 73.88708 25.14102 59.02237
#
# Poissons Ratio (x) = 0.32840 0.22940
# Poissons Ratio (y) = 0.96513 0.16006
# Poissons Ratio (z) = 0.28718 0.06818
#
# Static dielectric constant tensor:
#      x y z
#    x 4.796740 0.000000 0.000000 
#    y 0.000000 3.872900 0.000000 
#    z 0.000000 0.000000 4.789710 
# 
# 
# High freq. dielectric constant tensor:
#      x y z
#    x 2.007080 0.000000 0.000000 
#    y 0.000000 1.956180 0.000000 
#    z 0.000000 0.000000 2.002510 
# 
# From -- ./inp_files/31088.got.cif
#   From: 2010.03.12/outbox.cif.g09.slc.cpg/sg63_16_cif.got.tgz:31088.got - 2010.04.10 19:34:48.
