data_PCOD8257222
_publ_section_title
;
Structure prediction by ZEFSAII (Michael W. Deem and Ramdas Pophale) SiO2 
 PCOD8257222
Probable space group: C M C M
;
_chemical_formula_sum "Si O2"
_cell_formula_units_Z 96
_cell_length_a 9.513189
_cell_length_b 29.427794
_cell_length_c 20.369313
_cell_angle_alpha 90.000000
_cell_angle_beta 90.000000
_cell_angle_gamma 90.000000
_cell_volume 5702.433298
_symmetry_space_group_name_H-M "C M C M"
_symmetry_group_IT_number 63
_symmetry_cell_setting 'orthorhombic'
loop_
_space_group_symop_operation_xyz
x,y,z
-x,-y,1/2+z
x,-y,-z
-x,y,1/2-z
-x,-y,-z
x,y,1/2-z
-x,y,z
x,-y,1/2+z
1/2+x,1/2+y,z
1/2-x,1/2-y,1/2+z
1/2+x,1/2-y,-z
1/2-x,1/2+y,1/2-z
1/2-x,1/2-y,-z
1/2+x,1/2+y,1/2-z
1/2-x,1/2+y,z
1/2+x,1/2-y,1/2+z
loop_
_atom_site_type_symbol
_atom_site_label
_atom_site_fract_x
_atom_site_fract_y
_atom_site_fract_z
Si Si1 0.342031 0.885227 0.976187
Si Si2 0.160769 0.531743 0.941121
Si Si3 0.332176 0.783345 0.951893
Si Si4 0.835948 0.197089 0.176432
Si Si5 0.840525 0.001236 0.821751
Si Si6 0.158339 0.097101 0.358826
O O1 0.500000 0.888054 0.949880
O O2 0.300685 0.832523 0.984200
O O3 0.250365 0.910575 0.922734
O O4 0.323731 0.914446 0.042567
O O5 0.242134 0.524806 0.874105
O O6 0.000000 0.518090 0.928564
O O7 0.220448 0.500000 0.000000
O O8 0.500000 0.772738 0.948375
O O9 0.264356 0.779896 0.878606
O O10 0.250000 0.750000 0.000000
O O11 0.802349 0.216128 0.250000
O O12 0.802691 0.143228 0.179447
O O13 0.000000 0.206331 0.158929
O O14 0.807538 0.022041 0.750000
O O15 0.000000 0.011597 0.842841
O O16 0.817230 0.946984 0.814297
O O17 0.000000 0.100559 0.384179
#
# Coordination Sequence:
#
# PCOD8257222 Si02
#       6
#    16  16  16  16  16  16
#     4   9  18  32  49  71  97 126 161 203 244 285
#     4  10  19  32  50  70  96 129 167 203 237 284
#     4  10  20  34  53  75 101 129 163 206 252 299
#     4   9  17  30  49  73 102 133 162 195 241 298
#     4  10  20  31  44  67 100 134 168 206 245 286
#     4   9  16  27  45  69  98 131 163 193 234 289
#
# _framework density 16.834918999999999
#
# number of rings (size 3 to 8) (size 9 to 14) (size 15 to 20)
#    0.000    2.500    1.667    1.000    0.000    4.333 
#    0.000    0.000    0.000    4.000    0.000    2.333 
#    0.000    0.000    0.000    0.000    0.000    0.000 
#
# Total GULP energy -594833.038201 kJ/mol
# GULP energy per Si atom -12392.354963 kJ/mol
# Density = 1.679660 g / cm^3
# Si number density = 16.834919 Si / 1000 Ang^3
#
#
#
# Elastic Constant Matrix: (Units=GPa)
#
#
# Indices 1 2 3 4 5 6 
#
# 1 79.2396 35.1755 65.3196 0.0000 0.0000 0.0000
# 2 35.1755 59.2669 45.8153 0.0000 0.0000 0.0000
# 3 65.3196 45.8153 120.2392 0.0000 0.0000 0.0000
# 4 0.0000 0.0000 0.0000 20.1310 0.0000 0.0000
# 5 0.0000 0.0000 0.0000 0.0000 -31.4086 0.0000
# 6 0.0000 0.0000 0.0000 0.0000 0.0000 23.3281
#
#
#
# Elastic Compliance Matrix: (Units=1/GPa)
#
#
# Indices 1 2 3 4 5 6 
#
# 1 0.024258 -0.005968 -0.010904 0.000000 0.000000 0.000000
# 2 -0.005968 0.025386 -0.006431 0.000000 0.000000 0.000000
# 3 -0.010904 -0.006431 0.016691 0.000000 0.000000 0.000000
# 4 0.000000 0.000000 0.000000 0.049675 0.000000 0.000000
# 5 0.000000 0.000000 0.000000 0.000000 -0.031838 0.000000
# 6 0.000000 0.000000 0.000000 0.000000 0.000000 0.042867
#
#
# Mechanical properties :
#
#
# Convention : Reuss Voigt Hill
#
# Bulk Modulus (GPa) = 50.68721 61.26295 55.97508
# Shear Modulus (GPa) = 27.74393 9.90577 18.82485
#
# Velocity S-wave (km/s) = 4.06396 2.42834 3.34758
# Velocity P-wave (km/s) = 7.22459 6.65822 6.94718
#
# Compressibility (1/GPa) = 0.01972884
#
# Stress axis : x y z
#
# Youngs Moduli (GPa) = 41.22407 39.39137 59.91388
#
# Poissons Ratio (x) = 0.23509 0.65329
# Poissons Ratio (y) = 0.24603 0.38530
# Poissons Ratio (z) = 0.44950 0.25332
#
# Static dielectric constant tensor:
#      x y z
#    x 3.226850 0.000000 0.000000 
#    y 0.000000 3.067560 0.000000 
#    z 0.000000 0.000000 3.159600 
# 
# 
# High freq. dielectric constant tensor:
#      x y z
#    x 1.652550 0.000000 0.000000 
#    y 0.000000 1.624820 0.000000 
#    z 0.000000 0.000000 1.638110 
# 
# From -- ./inp_files/51308.got.cif
#   From: 2010.03.12/outbox.cif.g09.slc.cpg/sg63_26_cif.got.tgz:51308.got - 2010.04.10 19:34:48.
