data_PCOD8257420
_publ_section_title
;
Structure prediction by ZEFSAII (Michael W. Deem and Ramdas Pophale) SiO2 
 PCOD8257420
Probable space group: C M C M
;
_chemical_formula_sum "Si O2"
_cell_formula_units_Z 96
_cell_length_a 19.727463
_cell_length_b 28.595308
_cell_length_c 9.014947
_cell_angle_alpha 90.000000
_cell_angle_beta 90.000000
_cell_angle_gamma 90.000000
_cell_volume 5085.447720
_symmetry_space_group_name_H-M "C M C M"
_symmetry_group_IT_number 63
_symmetry_cell_setting 'orthorhombic'
loop_
_space_group_symop_operation_xyz
x,y,z
-x,-y,1/2+z
x,-y,-z
-x,y,1/2-z
-x,-y,-z
x,y,1/2-z
-x,y,z
x,-y,1/2+z
1/2+x,1/2+y,z
1/2-x,1/2-y,1/2+z
1/2+x,1/2-y,-z
1/2-x,1/2+y,1/2-z
1/2-x,1/2-y,-z
1/2+x,1/2+y,1/2-z
1/2-x,1/2+y,z
1/2+x,1/2-y,1/2+z
loop_
_atom_site_type_symbol
_atom_site_label
_atom_site_fract_x
_atom_site_fract_y
_atom_site_fract_z
Si Si1 0.574761 0.953075 0.421840
Si Si2 0.828535 0.950969 0.572867
Si Si3 0.649726 0.273448 0.913596
Si Si4 0.076799 0.866106 0.926239
Si Si5 0.707009 0.098702 0.923182
Si Si6 0.700042 0.193194 0.413153
O O1 0.573081 0.964773 0.250000
O O2 0.500000 0.936922 0.477364
O O3 0.628920 0.913188 0.457908
O O4 0.598972 0.000000 0.500000
O O5 0.826707 0.955956 0.750000
O O6 0.882233 0.911672 0.518981
O O7 0.754691 0.936273 0.514973
O O8 0.850578 0.000000 0.500000
O O9 0.618530 0.262689 0.750000
O O10 0.612021 0.318469 0.985749
O O11 0.729115 0.281121 0.893158
O O12 0.642605 0.228141 0.019949
O O13 0.078844 0.864968 0.750000
O O14 0.000000 0.869088 0.986755
O O15 0.725164 0.094248 0.750000
O O16 0.715486 0.151314 0.975495
O O17 0.675191 0.176130 0.250000
#
# Coordination Sequence:
#
# PCOD8257420 Si02
#       6
#    16  16  16  16  16  16
#     4   9  19  35  53  74 101 135 176 217 260 314
#     4  11  22  37  55  81 112 144 185 233 280 328
#     4   9  17  33  54  79 104 136 177 217 263 317
#     4   9  18  35  58  80 107 145 187 230 277 328
#     4  11  21  34  55  82 109 143 180 223 272 322
#     4  10  19  32  53  81 109 138 171 218 267 315
#
# _framework density 18.877393999999999
#
# number of rings (size 3 to 8) (size 9 to 14) (size 15 to 20)
#    0.000    2.167    1.667    2.000    0.000    3.667 
#    0.000    0.833    0.000    9.000    0.000    0.000 
#    0.000    0.000    0.000    0.000    0.000    0.000 
#
# Total GULP energy -595029.796480 kJ/mol
# GULP energy per Si atom -12396.454093 kJ/mol
# Density = 1.883443 g / cm^3
# Si number density = 18.877394 Si / 1000 Ang^3
#
#
#
# Elastic Constant Matrix: (Units=GPa)
#
#
# Indices 1 2 3 4 5 6 
#
# 1 76.3194 30.6137 30.6614 0.0000 0.0000 0.0000
# 2 30.6137 84.5407 29.6026 0.0000 0.0000 0.0000
# 3 30.6614 29.6026 65.9372 0.0000 0.0000 0.0000
# 4 0.0000 0.0000 0.0000 32.6396 0.0000 0.0000
# 5 0.0000 0.0000 0.0000 0.0000 15.3320 0.0000
# 6 0.0000 0.0000 0.0000 0.0000 0.0000 18.8926
#
#
#
# Elastic Compliance Matrix: (Units=1/GPa)
#
#
# Indices 1 2 3 4 5 6 
#
# 1 0.017218 -0.004072 -0.006179 0.000000 0.000000 0.000000
# 2 -0.004072 0.014998 -0.004840 0.000000 0.000000 0.000000
# 3 -0.006179 -0.004840 0.020212 0.000000 0.000000 0.000000
# 4 0.000000 0.000000 0.000000 0.030638 0.000000 0.000000
# 5 0.000000 0.000000 0.000000 0.000000 0.065223 0.000000
# 6 0.000000 0.000000 0.000000 0.000000 0.000000 0.052931
#
#
# Mechanical properties :
#
#
# Convention : Reuss Voigt Hill
#
# Bulk Modulus (GPa) = 44.94863 45.39473 45.17168
# Shear Modulus (GPa) = 20.93662 22.43415 21.68539
#
# Velocity S-wave (km/s) = 3.33390 3.45108 3.39300
# Velocity P-wave (km/s) = 6.21952 6.32292 6.27143
#
# Compressibility (1/GPa) = 0.02224762
#
# Stress axis : x y z
#
# Youngs Moduli (GPa) = 58.07754 66.67669 49.47551
#
# Poissons Ratio (x) = 0.27148 0.30570
# Poissons Ratio (y) = 0.23646 0.23946
# Poissons Ratio (z) = 0.35885 0.32271
#
# Static dielectric constant tensor:
#      x y z
#    x 3.522180 0.000000 0.000000 
#    y 0.000000 3.551850 0.000000 
#    z 0.000000 0.000000 3.548340 
# 
# 
# High freq. dielectric constant tensor:
#      x y z
#    x 1.715430 0.000000 0.000000 
#    y 0.000000 1.733660 0.000000 
#    z 0.000000 0.000000 1.724810 
# 
# From -- ./inp_files/8663.got.cif
#   From: 2010.03.12/outbox.cif.g09.slc.cpg/sg63_5_cif.got.tgz:8663.got - 2010.04.10 19:34:48.
