data_PCOD8257383
_publ_section_title
;
Structure prediction by ZEFSAII (Michael W. Deem and Ramdas Pophale) SiO2 
 PCOD8257383
Probable space group: C M C M
;
_chemical_formula_sum "Si O2"
_cell_formula_units_Z 112
_cell_length_a 12.990946
_cell_length_b 22.475896
_cell_length_c 20.494960
_cell_angle_alpha 90.000000
_cell_angle_beta 90.000000
_cell_angle_gamma 90.000000
_cell_volume 5984.183005
_symmetry_space_group_name_H-M "C M C M"
_symmetry_group_IT_number 63
_symmetry_cell_setting 'orthorhombic'
loop_
_space_group_symop_operation_xyz
x,y,z
-x,-y,1/2+z
x,-y,-z
-x,y,1/2-z
-x,-y,-z
x,y,1/2-z
-x,y,z
x,-y,1/2+z
1/2+x,1/2+y,z
1/2-x,1/2-y,1/2+z
1/2+x,1/2-y,-z
1/2-x,1/2+y,1/2-z
1/2-x,1/2-y,-z
1/2+x,1/2+y,1/2-z
1/2-x,1/2+y,z
1/2+x,1/2-y,1/2+z
loop_
_atom_site_type_symbol
_atom_site_label
_atom_site_fract_x
_atom_site_fract_y
_atom_site_fract_z
Si Si1 0.614277 0.040806 0.822411
Si Si2 0.243868 0.742457 0.421650
Si Si3 0.774562 0.371446 0.418450
Si Si4 0.879785 0.829349 0.676238
Si Si5 0.754287 0.058523 0.362062
Si Si6 0.381434 0.863476 0.949262
Si Si7 0.387697 0.534059 0.566453
O O1 0.607038 0.066384 0.750000
O O2 0.500000 0.031910 0.852131
O O3 0.674099 0.090828 0.861970
O O4 0.670424 0.976734 0.819226
O O5 0.250000 0.750000 0.500000
O O6 0.231207 0.808286 0.391351
O O7 0.340877 0.713551 0.382473
O O8 0.146792 0.698207 0.411295
O O9 0.859862 0.358419 0.473706
O O10 0.677329 0.406578 0.446964
O O11 0.866533 0.802265 0.750000
O O12 0.814203 0.890289 0.676559
O O13 0.000000 0.842591 0.662289
O O14 0.691317 0.083754 0.423810
O O15 0.837091 0.009536 0.381808
O O16 0.500000 0.878346 0.936323
O O17 0.399780 0.500000 0.500000
O O18 0.500000 0.552947 0.592937
#
# Coordination Sequence:
#
# PCOD8257383 Si02
#       7
#    16  16  16  16  16  16  16
#     4  10  21  34  52  78 108 147 187 223 270 328
#     4   9  21  37  53  79 111 145 184 232 284 340
#     4  10  20  36  52  77 109 140 178 225 274 326
#     4  10  21  37  60  87 113 147 191 241 293 340
#     4  10  19  35  53  80 114 144 178 231 274 334
#     4  10  19  33  54  78 103 139 179 222 274 327
#     4  10  19  32  52  79 110 144 178 217 273 334
#
# _framework density 18.716006
#
# number of rings (size 3 to 8) (size 9 to 14) (size 15 to 20)
#    0.000    2.143    1.429    1.714    0.000    4.000 
#    0.000    3.571    0.000    7.714    0.000    8.000 
#    0.000    0.000    0.000    0.000    0.000    0.000 
#
# Total GULP energy -693842.762753 kJ/mol
# GULP energy per Si atom -12390.049335 kJ/mol
# Density = 1.867341 g / cm^3
# Si number density = 18.716006 Si / 1000 Ang^3
#
#
#
# Elastic Constant Matrix: (Units=GPa)
#
#
# Indices 1 2 3 4 5 6 
#
# 1 133.8176 54.3614 32.9766 0.0000 0.0000 0.0000
# 2 54.3614 124.1720 29.2052 0.0000 0.0000 0.0000
# 3 32.9766 29.2052 73.8283 0.0000 0.0000 0.0000
# 4 0.0000 0.0000 0.0000 21.5889 0.0000 0.0000
# 5 0.0000 0.0000 0.0000 0.0000 26.6333 0.0000
# 6 0.0000 0.0000 0.0000 0.0000 0.0000 16.9253
#
#
#
# Elastic Compliance Matrix: (Units=1/GPa)
#
#
# Indices 1 2 3 4 5 6 
#
# 1 0.009622 -0.003530 -0.002901 0.000000 0.000000 0.000000
# 2 -0.003530 0.010175 -0.002448 0.000000 0.000000 0.000000
# 3 -0.002901 -0.002448 0.015809 0.000000 0.000000 0.000000
# 4 0.000000 0.000000 0.000000 0.046320 0.000000 0.000000
# 5 0.000000 0.000000 0.000000 0.000000 0.037547 0.000000
# 6 0.000000 0.000000 0.000000 0.000000 0.000000 0.059083
#
#
# Mechanical properties :
#
#
# Convention : Reuss Voigt Hill
#
# Bulk Modulus (GPa) = 56.03259 62.76713 59.39986
# Shear Modulus (GPa) = 24.72020 27.38116 26.05068
#
# Velocity S-wave (km/s) = 3.63823 3.82904 3.73486
# Velocity P-wave (km/s) = 6.90306 7.29096 7.09966
#
# Compressibility (1/GPa) = 0.01784676
#
# Stress axis : x y z
#
# Youngs Moduli (GPa) = 103.93038 98.28463 63.25381
#
# Poissons Ratio (x) = 0.34694 0.18352
# Poissons Ratio (y) = 0.36687 0.15486
# Poissons Ratio (z) = 0.30154 0.24062
#
# Static dielectric constant tensor:
#      x y z
#    x 3.659660 0.000000 0.000000 
#    y 0.000000 3.678190 0.000000 
#    z 0.000000 0.000000 3.273560 
# 
# 
# High freq. dielectric constant tensor:
#      x y z
#    x 1.728070 0.000000 0.000000 
#    y 0.000000 1.730270 0.000000 
#    z 0.000000 0.000000 1.709870 
# 
# From -- ./inp_files/53177.got.cif
#   From: 2010.03.12/outbox.cif.g09.slc.cpg/sg63_27_cif.got.tgz:53177.got - 2010.04.10 19:34:48.
