data_PCOD8257269
_publ_section_title
;
Structure prediction by ZEFSAII (Michael W. Deem and Ramdas Pophale) SiO2 
 PCOD8257269
Probable space group: C M C M
;
_chemical_formula_sum "Si O2"
_cell_formula_units_Z 80
_cell_length_a 9.053972
_cell_length_b 31.525018
_cell_length_c 14.363710
_cell_angle_alpha 90.000000
_cell_angle_beta 90.000000
_cell_angle_gamma 90.000000
_cell_volume 4099.785343
_symmetry_space_group_name_H-M "C M C M"
_symmetry_group_IT_number 63
_symmetry_cell_setting 'orthorhombic'
loop_
_space_group_symop_operation_xyz
x,y,z
-x,-y,1/2+z
x,-y,-z
-x,y,1/2-z
-x,-y,-z
x,y,1/2-z
-x,y,z
x,-y,1/2+z
1/2+x,1/2+y,z
1/2-x,1/2-y,1/2+z
1/2+x,1/2-y,-z
1/2-x,1/2+y,1/2-z
1/2-x,1/2-y,-z
1/2+x,1/2+y,1/2-z
1/2-x,1/2+y,z
1/2+x,1/2-y,1/2+z
loop_
_atom_site_type_symbol
_atom_site_label
_atom_site_fract_x
_atom_site_fract_y
_atom_site_fract_z
Si Si1 0.828303 0.767251 0.357944
Si Si2 0.834456 0.520897 0.100542
Si Si3 0.174601 0.899917 0.535836
Si Si4 0.333781 0.557013 0.650190
Si Si5 0.327985 0.186099 0.018762
O O1 0.775978 0.767275 0.250000
O O2 0.737824 0.801532 0.417841
O O3 0.798330 0.721395 0.402844
O O4 0.000000 0.779418 0.365053
O O5 0.760524 0.485633 0.165172
O O6 0.000000 0.530979 0.134965
O O7 0.833748 0.500000 0.000000
O O8 0.740354 0.564243 0.104089
O O9 0.222648 0.911454 0.429850
O O10 0.248216 0.855243 0.559404
O O11 0.000000 0.896698 0.550133
O O12 0.328032 0.581180 0.750000
O O13 0.500000 0.542923 0.624176
O O14 0.500000 0.177001 0.004928
#
# Coordination Sequence:
#
# PCOD8257269 Si02
#       5
#    16  16  16  16  16
#     4   9  19  37  58  77 102 138 174 209 258 321
#     4   9  17  30  48  69  94 126 163 203 247 293
#     4  10  19  32  51  73 100 136 172 207 251 304
#     4   9  18  32  49  70  97 130 169 210 252 303
#     4  10  20  34  54  81 108 134 171 219 265 310
#
# _framework density 19.513216
#
# number of rings (size 3 to 8) (size 9 to 14) (size 15 to 20)
#    0.000    2.600    0.000    1.800    0.000    5.600 
#    0.000    3.000    0.000    3.600    0.000    0.000 
#    0.000    0.000    0.000    0.000    0.000    0.000 
#
# Total GULP energy -495857.564160 kJ/mol
# GULP energy per Si atom -12396.439104 kJ/mol
# Density = 1.946880 g / cm^3
# Si number density = 19.513216 Si / 1000 Ang^3
#
#
#
# Elastic Constant Matrix: (Units=GPa)
#
#
# Indices 1 2 3 4 5 6 
#
# 1 91.0248 37.1640 5.0478 0.0000 0.0000 0.0000
# 2 37.1640 78.6036 -11.2878 0.0000 0.0000 0.0000
# 3 5.0478 -11.2878 54.8322 0.0000 0.0000 0.0000
# 4 0.0000 0.0000 0.0000 14.5746 0.0000 0.0000
# 5 0.0000 0.0000 0.0000 0.0000 17.0000 0.0000
# 6 0.0000 0.0000 0.0000 0.0000 0.0000 39.4311
#
#
#
# Elastic Compliance Matrix: (Units=1/GPa)
#
#
# Indices 1 2 3 4 5 6 
#
# 1 0.014000 -0.007012 -0.002732 0.000000 0.000000 0.000000
# 2 -0.007012 0.016621 0.004067 0.000000 0.000000 0.000000
# 3 -0.002732 0.004067 0.019326 0.000000 0.000000 0.000000
# 4 0.000000 0.000000 0.000000 0.068612 0.000000 0.000000
# 5 0.000000 0.000000 0.000000 0.000000 0.058824 0.000000
# 6 0.000000 0.000000 0.000000 0.000000 0.000000 0.025361
#
#
# Mechanical properties :
#
#
# Convention : Reuss Voigt Hill
#
# Bulk Modulus (GPa) = 25.91068 31.81206 28.86137
# Shear Modulus (GPa) = 22.03001 27.10358 24.56679
#
# Velocity S-wave (km/s) = 3.36367 3.73095 3.55206
# Velocity P-wave (km/s) = 5.32852 5.90747 5.62545
#
# Compressibility (1/GPa) = 0.03859413
#
# Stress axis : x y z
#
# Youngs Moduli (GPa) = 71.42681 60.16372 51.74303
#
# Poissons Ratio (x) = 0.42185 0.14138
# Poissons Ratio (y) = 0.50083 -0.21045
# Poissons Ratio (z) = 0.19516 -0.24470
#
# Static dielectric constant tensor:
#      x y z
#    x 3.655270 0.000000 0.000000 
#    y 0.000000 3.440210 0.000000 
#    z 0.000000 0.000000 3.427990 
# 
# 
# High freq. dielectric constant tensor:
#      x y z
#    x 1.764480 0.000000 0.000000 
#    y 0.000000 1.749580 0.000000 
#    z 0.000000 0.000000 1.747280 
# 
# From -- ./inp_files/40731.got.cif
#   From: 2010.03.12/outbox.cif.g09.slc.cpg/sg63_21_cif.got.tgz:40731.got - 2010.04.10 19:34:48.
