data_PCOD8257597
_publ_section_title
;
Structure prediction by ZEFSAII (Michael W. Deem and Ramdas Pophale) SiO2 
 PCOD8257597
Probable space group: C M C M
;
_chemical_formula_sum "Si O2"
_cell_formula_units_Z 96
_cell_length_a 7.797236
_cell_length_b 30.917206
_cell_length_c 21.381938
_cell_angle_alpha 90.000000
_cell_angle_beta 90.000000
_cell_angle_gamma 90.000000
_cell_volume 5154.517101
_symmetry_space_group_name_H-M "C M C M"
_symmetry_group_IT_number 63
_symmetry_cell_setting 'orthorhombic'
loop_
_space_group_symop_operation_xyz
x,y,z
-x,-y,1/2+z
x,-y,-z
-x,y,1/2-z
-x,-y,-z
x,y,1/2-z
-x,y,z
x,-y,1/2+z
1/2+x,1/2+y,z
1/2-x,1/2-y,1/2+z
1/2+x,1/2-y,-z
1/2-x,1/2+y,1/2-z
1/2-x,1/2-y,-z
1/2+x,1/2+y,1/2-z
1/2-x,1/2+y,z
1/2+x,1/2-y,1/2+z
loop_
_atom_site_type_symbol
_atom_site_label
_atom_site_fract_x
_atom_site_fract_y
_atom_site_fract_z
Si Si1 0.500000 0.468870 0.940030
Si Si2 0.808232 0.585666 0.482601
Si Si3 0.195236 0.241673 0.586233
Si Si4 0.301011 0.914391 0.127497
Si Si5 0.500000 0.470532 0.321881
Si Si6 0.194898 0.179990 0.477934
Si Si7 0.299533 0.823162 0.180562
O O1 0.329008 0.439712 0.940997
O O2 0.500000 0.491276 0.872540
O O3 0.500000 0.500000 0.000000
O O4 0.767806 0.575660 0.554995
O O5 0.803620 0.636719 0.468179
O O6 0.000000 0.569325 0.465892
O O7 0.271970 0.207124 0.536360
O O8 0.292461 0.287870 0.582115
O O9 0.213489 0.220426 0.654233
O O10 0.000000 0.251148 0.569382
O O11 0.500000 0.923228 0.146656
O O12 0.251199 0.864531 0.138782
O O13 0.174067 0.943208 0.168792
O O14 0.500000 0.487786 0.250000
O O15 0.000000 0.165601 0.489883
O O16 0.227508 0.830968 0.250000
O O17 0.500000 0.815255 0.181366
#
# Coordination Sequence:
#
# PCOD8257597 Si02
#       7
#     8  16  16  16   8  16  16
#     4  12  24  42  62  90 124 150 200 256 302 364
#     4  11  21  36  63  90 121 158 192 244 307 358
#     4  10  20  30  49  78 112 150 193 236 276 332
#     4  10  21  37  59  88 122 159 195 238 298 369
#     4  12  26  42  64  88 120 160 202 246 302 370
#     4  10  19  33  53  79 115 150 187 236 289 337
#     4  10  20  33  49  74 114 157 193 232 287 349
#
# _framework density 18.62444
#
# number of rings (size 3 to 8) (size 9 to 14) (size 15 to 20)
#    0.000    1.500    4.167    1.500    1.167    3.667 
#    0.000    0.000    0.000    1.000    0.000    0.000 
#    0.000    0.000    0.000    0.000    0.000    0.000 
#
# Total GULP energy -595183.387773 kJ/mol
# GULP energy per Si atom -12399.653912 kJ/mol
# Density = 1.858205 g / cm^3
# Si number density = 18.624440 Si / 1000 Ang^3
#
#
#
# Elastic Constant Matrix: (Units=GPa)
#
#
# Indices 1 2 3 4 5 6 
#
# 1 92.2941 39.1812 36.8771 0.0000 0.0000 0.0000
# 2 39.1812 85.1991 39.1484 0.0000 0.0000 0.0000
# 3 36.8771 39.1484 85.0271 0.0000 0.0000 0.0000
# 4 0.0000 0.0000 0.0000 26.9743 0.0000 0.0000
# 5 0.0000 0.0000 0.0000 0.0000 18.0064 0.0000
# 6 0.0000 0.0000 0.0000 0.0000 0.0000 28.2860
#
#
#
# Elastic Compliance Matrix: (Units=1/GPa)
#
#
# Indices 1 2 3 4 5 6 
#
# 1 0.014501 -0.004793 -0.004082 0.000000 0.000000 0.000000
# 2 -0.004793 0.016471 -0.005505 0.000000 0.000000 0.000000
# 3 -0.004082 -0.005505 0.016066 0.000000 0.000000 0.000000
# 4 0.000000 0.000000 0.000000 0.037072 0.000000 0.000000
# 5 0.000000 0.000000 0.000000 0.000000 0.055536 0.000000
# 6 0.000000 0.000000 0.000000 0.000000 0.000000 0.035353
#
#
# Mechanical properties :
#
#
# Convention : Reuss Voigt Hill
#
# Bulk Modulus (GPa) = 54.71188 54.77040 54.74114
# Shear Modulus (GPa) = 23.82638 24.47425 24.15032
#
# Velocity S-wave (km/s) = 3.58062 3.62897 3.60488
# Velocity P-wave (km/s) = 6.82163 6.85791 6.83979
#
# Compressibility (1/GPa) = 0.01827757
#
# Stress axis : x y z
#
# Youngs Moduli (GPa) = 68.96206 60.71384 62.24288
#
# Poissons Ratio (x) = 0.29098 0.25410
# Poissons Ratio (y) = 0.33052 0.34264
# Poissons Ratio (z) = 0.28153 0.33422
#
# Static dielectric constant tensor:
#      x y z
#    x 3.486970 0.000000 0.000000 
#    y 0.000000 3.350200 0.000000 
#    z 0.000000 0.000000 3.262470 
# 
# 
# High freq. dielectric constant tensor:
#      x y z
#    x 1.737000 0.000000 0.000000 
#    y 0.000000 1.711210 0.000000 
#    z 0.000000 0.000000 1.687310 
# 
# From -- ./inp_files/60287.got.cif
#   From: 2010.03.12/outbox.cif.g09.slc.cpg/sg63_31_cif.got.tgz:60287.got - 2010.04.10 19:34:48.
