data_PCOD8257833
_publ_section_title
;
Structure prediction by ZEFSAII (Michael W. Deem and Ramdas Pophale) SiO2 
 PCOD8257833
Probable space group: C M C M
;
_chemical_formula_sum "Si O2"
_cell_formula_units_Z 104
_cell_length_a 27.639985
_cell_length_b 22.827816
_cell_length_c 8.588135
_cell_angle_alpha 90.000000
_cell_angle_beta 90.000000
_cell_angle_gamma 90.000000
_cell_volume 5418.773883
_symmetry_space_group_name_H-M "C M C M"
_symmetry_group_IT_number 63
_symmetry_cell_setting 'orthorhombic'
loop_
_space_group_symop_operation_xyz
x,y,z
-x,-y,1/2+z
x,-y,-z
-x,y,1/2-z
-x,-y,-z
x,y,1/2-z
-x,y,z
x,-y,1/2+z
1/2+x,1/2+y,z
1/2-x,1/2-y,1/2+z
1/2+x,1/2-y,-z
1/2-x,1/2+y,1/2-z
1/2-x,1/2-y,-z
1/2+x,1/2+y,1/2-z
1/2-x,1/2+y,z
1/2+x,1/2-y,1/2+z
loop_
_atom_site_type_symbol
_atom_site_label
_atom_site_fract_x
_atom_site_fract_y
_atom_site_fract_z
Si Si1 0.684759 0.139792 0.431159
Si Si2 0.354506 0.623435 0.065124
Si Si3 0.266781 0.561974 0.934211
Si Si4 0.500000 0.937307 0.072101
Si Si5 0.603027 0.064531 0.933215
Si Si6 0.696516 0.257858 0.933023
Si Si7 0.555381 0.436368 0.066468
O O1 0.693300 0.150698 0.250000
O O2 0.734587 0.115104 0.501031
O O3 0.642112 0.095139 0.460693
O O4 0.668203 0.199787 0.514184
O O5 0.353064 0.619126 0.250000
O O6 0.333596 0.685991 0.004957
O O7 0.321440 0.572373 0.991454
O O8 0.409327 0.612936 0.006606
O O9 0.263460 0.560602 0.750000
O O10 0.247711 0.500000 0.000000
O O11 0.500000 0.953421 0.250000
O O12 0.550565 0.903848 0.034632
O O13 0.500000 0.000000 0.000000
O O14 0.617302 0.065690 0.750000
O O15 0.599948 0.000000 0.000000
O O16 0.700644 0.262161 0.750000
O O17 0.750000 0.250000 0.000000
O O18 0.562841 0.437875 0.250000
O O19 0.500000 0.419904 0.022293
O O20 0.568896 0.500000 0.000000
#
# Coordination Sequence:
#
# PCOD8257833 Si02
#       7
#    16  16  16   8  16  16  16
#     4  12  24  38  56  81 113 149 191 236 284 339
#     4  11  23  39  61  88 118 152 195 240 290 350
#     4  12  24  38  57  82 117 153 189 233 285 342
#     4   8  16  30  52  78 106 140 178 222 269 330
#     4  10  19  34  55  82 113 146 185 229 284 340
#     4  11  23  40  62  85 112 150 194 238 282 337
#     4  10  21  38  62  92 125 160 198 243 297 355
#
# _framework density 19.192533999999998
#
# number of rings (size 3 to 8) (size 9 to 14) (size 15 to 20)
#    0.000    1.231    1.538    5.538    0.000    3.385 
#    0.000    0.000    1.692    0.000    0.000    0.000 
#    0.000    0.000    0.000    0.000    0.000    0.000 
#
# Total GULP energy -644654.398793 kJ/mol
# GULP energy per Si atom -12397.199977 kJ/mol
# Density = 1.914885 g / cm^3
# Si number density = 19.192534 Si / 1000 Ang^3
#
#
#
# Elastic Constant Matrix: (Units=GPa)
#
#
# Indices 1 2 3 4 5 6 
#
# 1 121.3086 43.7663 34.2270 0.0000 0.0000 0.0000
# 2 43.7663 98.2199 32.6924 0.0000 0.0000 0.0000
# 3 34.2270 32.6924 93.3048 0.0000 0.0000 0.0000
# 4 0.0000 0.0000 0.0000 30.8529 0.0000 0.0000
# 5 0.0000 0.0000 0.0000 0.0000 26.0908 0.0000
# 6 0.0000 0.0000 0.0000 0.0000 0.0000 20.7117
#
#
#
# Elastic Compliance Matrix: (Units=1/GPa)
#
#
# Indices 1 2 3 4 5 6 
#
# 1 0.010297 -0.003771 -0.002456 0.000000 0.000000 0.000000
# 2 -0.003771 0.012906 -0.003139 0.000000 0.000000 0.000000
# 3 -0.002456 -0.003139 0.012718 0.000000 0.000000 0.000000
# 4 0.000000 0.000000 0.000000 0.032412 0.000000 0.000000
# 5 0.000000 0.000000 0.000000 0.000000 0.038328 0.000000
# 6 0.000000 0.000000 0.000000 0.000000 0.000000 0.048282
#
#
# Mechanical properties :
#
#
# Convention : Reuss Voigt Hill
#
# Bulk Modulus (GPa) = 58.17294 59.35606 58.76450
# Shear Modulus (GPa) = 27.87006 29.00760 28.43883
#
# Velocity S-wave (km/s) = 3.81482 3.89189 3.85355
# Velocity P-wave (km/s) = 7.05548 7.15469 7.10525
#
# Compressibility (1/GPa) = 0.01719012
#
# Stress axis : x y z
#
# Youngs Moduli (GPa) = 97.11737 77.48189 78.62687
#
# Poissons Ratio (x) = 0.29216 0.19311
# Poissons Ratio (y) = 0.36621 0.24680
# Poissons Ratio (z) = 0.23852 0.24321
#
# Static dielectric constant tensor:
#      x y z
#    x 3.927720 0.000000 0.000000 
#    y 0.000000 3.737450 0.000000 
#    z 0.000000 0.000000 3.582090 
# 
# 
# High freq. dielectric constant tensor:
#      x y z
#    x 1.753690 0.000000 0.000000 
#    y 0.000000 1.728970 0.000000 
#    z 0.000000 0.000000 1.761650 
# 
# From -- ./inp_files/12609.got.cif
#   From: 2010.03.12/outbox.cif.g09.slc.cpg/sg63_7_cif.got.tgz:12609.got - 2010.04.10 19:34:48.
