data_PCOD8257492
_publ_section_title
;
Structure prediction by ZEFSAII (Michael W. Deem and Ramdas Pophale) SiO2 
 PCOD8257492
Probable space group: C M C M
;
_chemical_formula_sum "Si O2"
_cell_formula_units_Z 96
_cell_length_a 24.167453
_cell_length_b 8.524098
_cell_length_c 25.636284
_cell_angle_alpha 90.000000
_cell_angle_beta 90.000000
_cell_angle_gamma 90.000000
_cell_volume 5281.221599
_symmetry_space_group_name_H-M "C M C M"
_symmetry_group_IT_number 63
_symmetry_cell_setting 'orthorhombic'
loop_
_space_group_symop_operation_xyz
x,y,z
-x,-y,1/2+z
x,-y,-z
-x,y,1/2-z
-x,-y,-z
x,y,1/2-z
-x,y,z
x,-y,1/2+z
1/2+x,1/2+y,z
1/2-x,1/2-y,1/2+z
1/2+x,1/2-y,-z
1/2-x,1/2+y,1/2-z
1/2-x,1/2-y,-z
1/2+x,1/2+y,1/2-z
1/2-x,1/2+y,z
1/2+x,1/2-y,1/2+z
loop_
_atom_site_type_symbol
_atom_site_label
_atom_site_fract_x
_atom_site_fract_y
_atom_site_fract_z
Si Si1 0.682210 0.701521 0.308523
Si Si2 0.561468 0.813284 0.498395
Si Si3 0.769759 0.901869 0.549277
Si Si4 0.214234 0.890944 0.351943
Si Si5 0.846076 0.673045 0.076210
Si Si6 0.863487 0.686981 0.908006
O O1 0.665452 0.750574 0.250000
O O2 0.738462 0.788180 0.325320
O O3 0.690497 0.513659 0.309966
O O4 0.633143 0.749551 0.348563
O O5 0.500000 0.744195 0.507776
O O6 0.603414 0.751844 0.543123
O O7 0.582769 0.759633 0.441163
O O8 0.561072 0.000000 0.500000
O O9 0.708830 0.827496 0.538844
O O10 0.810239 0.759926 0.563246
O O11 0.791777 0.000000 0.500000
O O12 0.761394 0.013323 0.599248
O O13 0.164815 0.778640 0.372569
O O14 0.860829 0.499568 0.094551
#
# Coordination Sequence:
#
# PCOD8257492 Si02
#       6
#    16  16  16  16  16  16
#     4  11  21  34  49  70 102 135 172 213 256 299
#     4   9  19  32  51  78 106 135 167 204 247 297
#     4  11  19  28  47  78 107 137 164 197 244 314
#     4  11  20  32  47  73 104 139 166 202 251 309
#     4  11  18  30  51  74 106 137 167 197 251 310
#     4  10  19  33  50  74 105 138 170 207 250 300
#
# _framework density 18.177613000000001
#
# number of rings (size 3 to 8) (size 9 to 14) (size 15 to 20)
#    0.000    1.500    5.000    3.000    0.000    2.000 
#    0.000    0.833    0.000   13.000    0.000    0.000 
#    0.000    4.667    0.000    0.000    0.000    0.000 
#
# Total GULP energy -594970.325323 kJ/mol
# GULP energy per Si atom -12395.215111 kJ/mol
# Density = 1.813624 g / cm^3
# Si number density = 18.177613 Si / 1000 Ang^3
#
#
#
# Elastic Constant Matrix: (Units=GPa)
#
#
# Indices 1 2 3 4 5 6 
#
# 1 88.8666 19.8706 35.3877 0.0000 0.0000 0.0000
# 2 19.8706 72.6473 29.8446 0.0000 0.0000 0.0000
# 3 35.3877 29.8446 127.4037 0.0000 0.0000 0.0000
# 4 0.0000 0.0000 0.0000 21.9108 0.0000 0.0000
# 5 0.0000 0.0000 0.0000 0.0000 13.5317 0.0000
# 6 0.0000 0.0000 0.0000 0.0000 0.0000 12.5452
#
#
#
# Elastic Compliance Matrix: (Units=1/GPa)
#
#
# Indices 1 2 3 4 5 6 
#
# 1 0.012988 -0.002291 -0.003071 0.000000 0.000000 0.000000
# 2 -0.002291 0.015635 -0.003026 0.000000 0.000000 0.000000
# 3 -0.003071 -0.003026 0.009411 0.000000 0.000000 0.000000
# 4 0.000000 0.000000 0.000000 0.045640 0.000000 0.000000
# 5 0.000000 0.000000 0.000000 0.000000 0.073901 0.000000
# 6 0.000000 0.000000 0.000000 0.000000 0.000000 0.079712
#
#
# Mechanical properties :
#
#
# Convention : Reuss Voigt Hill
#
# Bulk Modulus (GPa) = 47.04150 51.01371 49.02760
# Shear Modulus (GPa) = 19.14626 23.18520 21.16573
#
# Velocity S-wave (km/s) = 3.24896 3.57526 3.41601
# Velocity P-wave (km/s) = 6.32529 6.72074 6.52601
#
# Compressibility (1/GPa) = 0.02125783
#
# Stress axis : x y z
#
# Youngs Moduli (GPa) = 76.99456 63.95928 106.25952
#
# Poissons Ratio (x) = 0.14653 0.32631
# Poissons Ratio (y) = 0.17639 0.32156
# Poissons Ratio (z) = 0.23644 0.19355
#
# Static dielectric constant tensor:
#      x y z
#    x 3.295670 0.000000 0.000000 
#    y 0.000000 3.541880 0.000000 
#    z 0.000000 0.000000 3.449630 
# 
# 
# High freq. dielectric constant tensor:
#      x y z
#    x 1.654820 0.000000 0.000000 
#    y 0.000000 1.714250 0.000000 
#    z 0.000000 0.000000 1.690770 
# 
# From -- ./inp_files/70629.got.cif
#   From: 2010.03.12/outbox.cif.g09.slc.cpg/sg63_36_cif.got.tgz:70629.got - 2010.04.10 19:34:48.
