data_PCOD8257719
_publ_section_title
;
Structure prediction by ZEFSAII (Michael W. Deem and Ramdas Pophale) SiO2 
 PCOD8257719
Probable space group: C M C M
;
_chemical_formula_sum "Si O2"
_cell_formula_units_Z 112
_cell_length_a 23.499052
_cell_length_b 13.813462
_cell_length_c 17.047602
_cell_angle_alpha 90.000000
_cell_angle_beta 90.000000
_cell_angle_gamma 90.000000
_cell_volume 5533.707216
_symmetry_space_group_name_H-M "C M C M"
_symmetry_group_IT_number 63
_symmetry_cell_setting 'orthorhombic'
loop_
_space_group_symop_operation_xyz
x,y,z
-x,-y,1/2+z
x,-y,-z
-x,y,1/2-z
-x,-y,-z
x,y,1/2-z
-x,y,z
x,-y,1/2+z
1/2+x,1/2+y,z
1/2-x,1/2-y,1/2+z
1/2+x,1/2-y,-z
1/2-x,1/2+y,1/2-z
1/2-x,1/2-y,-z
1/2+x,1/2+y,1/2-z
1/2-x,1/2+y,z
1/2+x,1/2-y,1/2+z
loop_
_atom_site_type_symbol
_atom_site_label
_atom_site_fract_x
_atom_site_fract_y
_atom_site_fract_z
Si Si1 0.565270 0.483715 0.591270
Si Si2 0.371660 0.869598 0.658864
Si Si3 0.161849 0.347941 0.158476
Si Si4 0.664585 0.627329 0.158087
Si Si5 0.729905 0.018646 0.408478
Si Si6 0.434916 0.036154 0.587396
Si Si7 0.936660 0.185043 0.657594
O O1 0.573616 0.500000 0.500000
O O2 0.500000 0.460550 0.613038
O O3 0.602687 0.394520 0.621747
O O4 0.587288 0.580567 0.634432
O O5 0.354860 0.863378 0.750000
O O6 0.421220 0.948970 0.647305
O O7 0.394405 0.767488 0.625174
O O8 0.316095 0.898048 0.609731
O O9 0.147366 0.360299 0.250000
O O10 0.180330 0.238457 0.138971
O O11 0.213567 0.419424 0.136195
O O12 0.105579 0.373486 0.108041
O O13 0.663328 0.608155 0.250000
O O14 0.709038 0.554285 0.119444
O O15 0.731802 0.000000 0.500000
O O16 0.500000 0.069050 0.596891
O O17 0.421215 0.000000 0.500000
O O18 0.940349 0.195603 0.750000
O O19 0.000000 0.198883 0.620915
#
# Coordination Sequence:
#
# PCOD8257719 Si02
#       7
#    16  16  16  16  16  16  16
#     4  10  22  39  59  85 117 151 188 234 285 337
#     4  10  19  33  56  84 113 147 188 235 287 341
#     4  10  22  39  59  85 116 151 195 243 287 340
#     4  11  24  41  61  84 112 150 194 237 285 343
#     4  11  23  40  61  85 116 150 187 237 291 343
#     4  10  20  34  54  82 117 155 191 231 284 342
#     4   9  18  33  55  84 115 150 195 241 283 333
#
# _framework density 20.239595999999999
#
# number of rings (size 3 to 8) (size 9 to 14) (size 15 to 20)
#    0.000    1.857    0.000    5.571    0.000    7.143 
#    0.000    5.714    0.000    0.000    0.000    0.000 
#    0.000    0.000    0.000    0.000    0.000    0.000 
#
# Total GULP energy -694533.897890 kJ/mol
# GULP energy per Si atom -12402.391034 kJ/mol
# Density = 2.019353 g / cm^3
# Si number density = 20.239596 Si / 1000 Ang^3
#
#
#
# Elastic Constant Matrix: (Units=GPa)
#
#
# Indices 1 2 3 4 5 6 
#
# 1 115.2140 59.3295 47.9832 0.0000 0.0000 0.0000
# 2 59.3295 115.1241 32.9077 0.0000 0.0000 0.0000
# 3 47.9832 32.9077 86.5126 0.0000 0.0000 0.0000
# 4 0.0000 0.0000 0.0000 17.9664 0.0000 0.0000
# 5 0.0000 0.0000 0.0000 0.0000 134.1927 0.0000
# 6 0.0000 0.0000 0.0000 0.0000 0.0000 28.6007
#
#
#
# Elastic Compliance Matrix: (Units=1/GPa)
#
#
# Indices 1 2 3 4 5 6 
#
# 1 0.013859 -0.005548 -0.005576 0.000000 0.000000 0.000000
# 2 -0.005548 0.011967 -0.001475 0.000000 0.000000 0.000000
# 3 -0.005576 -0.001475 0.015213 0.000000 0.000000 0.000000
# 4 0.000000 0.000000 0.000000 0.055659 0.000000 0.000000
# 5 0.000000 0.000000 0.000000 0.000000 0.007452 0.000000
# 6 0.000000 0.000000 0.000000 0.000000 0.000000 0.034964
#
#
# Mechanical properties :
#
#
# Convention : Reuss Voigt Hill
#
# Bulk Modulus (GPa) = 63.13026 66.36573 64.74799
# Shear Modulus (GPa) = 29.48230 47.92731 38.70481
#
# Velocity S-wave (km/s) = 3.82077 4.87149 4.37776
# Velocity P-wave (km/s) = 7.12205 8.03138 7.59034
#
# Compressibility (1/GPa) = 0.01584026
#
# Stress axis : x y z
#
# Youngs Moduli (GPa) = 72.15566 83.56191 65.73425
#
# Poissons Ratio (x) = 0.46363 0.36655
# Poissons Ratio (y) = 0.40034 0.09694
# Poissons Ratio (z) = 0.40236 0.12324
#
# Static dielectric constant tensor:
#      x y z
#    x 3.685120 0.000000 0.000000 
#    y 0.000000 3.890530 0.000000 
#    z 0.000000 0.000000 3.680090 
# 
# 
# High freq. dielectric constant tensor:
#      x y z
#    x 1.787010 0.000000 0.000000 
#    y 0.000000 1.788920 0.000000 
#    z 0.000000 0.000000 1.795230 
# 
# From -- ./inp_files/36914.got.cif
#   From: 2010.03.12/outbox.cif.g09.slc.cpg/sg63_19_cif.got.tgz:36914.got - 2010.04.10 19:34:48.
