data_PCOD8257585
_publ_section_title
;
Structure prediction by ZEFSAII (Michael W. Deem and Ramdas Pophale) SiO2 
 PCOD8257585
Probable space group: C M C M
;
_chemical_formula_sum "Si O2"
_cell_formula_units_Z 112
_cell_length_a 13.721380
_cell_length_b 23.472197
_cell_length_c 18.578091
_cell_angle_alpha 90.000000
_cell_angle_beta 90.000000
_cell_angle_gamma 90.000000
_cell_volume 5983.463129
_symmetry_space_group_name_H-M "C M C M"
_symmetry_group_IT_number 63
_symmetry_cell_setting 'orthorhombic'
loop_
_space_group_symop_operation_xyz
x,y,z
-x,-y,1/2+z
x,-y,-z
-x,y,1/2-z
-x,-y,-z
x,y,1/2-z
-x,y,z
x,-y,1/2+z
1/2+x,1/2+y,z
1/2-x,1/2-y,1/2+z
1/2+x,1/2-y,-z
1/2-x,1/2+y,1/2-z
1/2-x,1/2-y,-z
1/2+x,1/2+y,1/2-z
1/2-x,1/2+y,z
1/2+x,1/2-y,1/2+z
loop_
_atom_site_type_symbol
_atom_site_label
_atom_site_fract_x
_atom_site_fract_y
_atom_site_fract_z
Si Si1 0.389414 0.316453 0.665078
Si Si2 0.773393 0.074897 0.167479
Si Si3 0.231826 0.948043 0.168099
Si Si4 0.274763 0.242722 0.417117
Si Si5 0.612794 0.661696 0.833276
Si Si6 0.610475 0.947351 0.048493
Si Si7 0.110174 0.628545 0.418688
O O1 0.379980 0.307273 0.750000
O O2 0.500000 0.309111 0.638843
O O3 0.354477 0.379766 0.641509
O O4 0.325033 0.268928 0.625700
O O5 0.748950 0.086287 0.250000
O O6 0.672013 0.082680 0.125959
O O7 0.812818 0.011013 0.154020
O O8 0.269427 0.942651 0.250000
O O9 0.146253 0.903146 0.152693
O O10 0.324374 0.936867 0.118081
O O11 0.250000 0.250000 0.500000
O O12 0.323982 0.298820 0.385200
O O13 0.350023 0.191533 0.406322
O O14 0.628964 0.679313 0.750000
O O15 0.500000 0.666363 0.854781
O O16 0.500000 0.960183 0.073693
O O17 0.615354 0.889125 0.002364
O O18 0.648872 0.000000 0.000000
O O19 0.000000 0.626287 0.389755
#
# Coordination Sequence:
#
# PCOD8257585 Si02
#       7
#    16  16  16  16  16  16  16
#     4   9  19  36  57  80 107 139 176 220 274 332
#     4   9  18  32  52  80 109 137 174 221 272 324
#     4  10  20  35  56  81 111 146 185 227 273 329
#     4  11  22  37  58  81 110 144 183 236 280 330
#     4  10  22  40  60  82 111 150 192 232 277 330
#     4  10  19  33  53  77 111 150 182 219 274 333
#     4  10  20  34  53  78 106 142 183 223 276 332
#
# _framework density 18.718257000000001
#
# number of rings (size 3 to 8) (size 9 to 14) (size 15 to 20)
#    0.000    2.143    1.429    1.714    0.000    2.857 
#    0.000    5.000    0.000    1.286    0.000    0.000 
#    0.000    0.000    0.000    0.000    0.000    0.000 
#
# Total GULP energy -694453.715392 kJ/mol
# GULP energy per Si atom -12400.959203 kJ/mol
# Density = 1.867565 g / cm^3
# Si number density = 18.718257 Si / 1000 Ang^3
#
#
#
# Elastic Constant Matrix: (Units=GPa)
#
#
# Indices 1 2 3 4 5 6 
#
# 1 143.5952 58.0055 59.8351 0.0000 0.0000 0.0000
# 2 58.0055 107.8261 39.1378 0.0000 0.0000 0.0000
# 3 59.8351 39.1378 75.0403 0.0000 0.0000 0.0000
# 4 0.0000 0.0000 0.0000 27.1813 0.0000 0.0000
# 5 0.0000 0.0000 0.0000 0.0000 28.6531 0.0000
# 6 0.0000 0.0000 0.0000 0.0000 0.0000 24.5718
#
#
#
# Elastic Compliance Matrix: (Units=1/GPa)
#
#
# Indices 1 2 3 4 5 6 
#
# 1 0.011407 -0.003497 -0.007271 0.000000 0.000000 0.000000
# 2 -0.003497 0.012512 -0.003737 0.000000 0.000000 0.000000
# 3 -0.007271 -0.003737 0.021074 0.000000 0.000000 0.000000
# 4 0.000000 0.000000 0.000000 0.036790 0.000000 0.000000
# 5 0.000000 0.000000 0.000000 0.000000 0.034900 0.000000
# 6 0.000000 0.000000 0.000000 0.000000 0.000000 0.040697
#
#
# Mechanical properties :
#
#
# Convention : Reuss Voigt Hill
#
# Bulk Modulus (GPa) = 62.57602 71.15759 66.86680
# Shear Modulus (GPa) = 26.08004 27.38011 26.73007
#
# Velocity S-wave (km/s) = 3.73673 3.82874 3.78302
# Velocity P-wave (km/s) = 7.21946 7.59232 7.40823
#
# Compressibility (1/GPa) = 0.01598056
#
# Stress axis : x y z
#
# Youngs Moduli (GPa) = 87.66887 79.92386 47.45295
#
# Poissons Ratio (x) = 0.27948 0.34505
# Poissons Ratio (y) = 0.30657 0.17735
# Poissons Ratio (z) = 0.63748 0.29870
#
# Static dielectric constant tensor:
#      x y z
#    x 3.380380 0.000000 0.000000 
#    y 0.000000 3.593700 0.000000 
#    z 0.000000 0.000000 3.387030 
# 
# 
# High freq. dielectric constant tensor:
#      x y z
#    x 1.720400 0.000000 0.000000 
#    y 0.000000 1.734460 0.000000 
#    z 0.000000 0.000000 1.721910 
# 
# From -- ./inp_files/32335.got.cif
#   From: 2010.03.12/outbox.cif.g09.slc.cpg/sg63_17_cif.got.tgz:32335.got - 2010.04.10 19:34:48.
