data_PCOD8257955
_publ_section_title
;
Structure prediction by ZEFSAII (Michael W. Deem and Ramdas Pophale) SiO2 
 PCOD8257955
Probable space group: C M C M
;
_chemical_formula_sum "Si O2"
_cell_formula_units_Z 88
_cell_length_a 23.995054
_cell_length_b 8.730369
_cell_length_c 22.332628
_cell_angle_alpha 90.000000
_cell_angle_beta 90.000000
_cell_angle_gamma 90.000000
_cell_volume 4678.365664
_symmetry_space_group_name_H-M "C M C M"
_symmetry_group_IT_number 63
_symmetry_cell_setting 'orthorhombic'
loop_
_space_group_symop_operation_xyz
x,y,z
-x,-y,1/2+z
x,-y,-z
-x,y,1/2-z
-x,-y,-z
x,y,1/2-z
-x,y,z
x,-y,1/2+z
1/2+x,1/2+y,z
1/2-x,1/2-y,1/2+z
1/2+x,1/2-y,-z
1/2-x,1/2+y,1/2-z
1/2-x,1/2-y,-z
1/2+x,1/2+y,1/2-z
1/2-x,1/2+y,z
1/2+x,1/2-y,1/2+z
loop_
_atom_site_type_symbol
_atom_site_label
_atom_site_fract_x
_atom_site_fract_y
_atom_site_fract_z
Si Si1 0.000000 0.391304 0.682697
Si Si2 0.688553 0.697406 0.560048
Si Si3 0.000000 0.987025 0.568672
Si Si4 0.000000 0.723599 0.850579
Si Si5 0.695116 0.663074 0.425788
Si Si6 0.617253 0.649075 0.184406
Si Si7 0.090540 0.835134 0.361412
O O1 0.000000 0.540233 0.640128
O O2 0.054934 0.290465 0.673403
O O3 0.000000 0.454284 0.750000
O O4 0.676366 0.736170 0.489898
O O5 0.696112 0.517885 0.568995
O O6 0.742310 0.782188 0.586479
O O7 0.637501 0.754975 0.600953
O O8 0.000000 0.806932 0.584998
O O9 0.000000 0.000000 0.500000
O O10 0.054940 0.068776 0.591485
O O11 0.944587 0.778909 0.816303
O O12 0.654938 0.714244 0.370692
O O13 0.642860 0.692039 0.250000
O O14 0.615021 0.463026 0.183397
#
# Coordination Sequence:
#
# PCOD8257955 Si02
#       7
#     8  16   8   8  16  16  16
#     4  11  21  37  52  77 113 145 176 224 281 331
#     4   9  18  35  54  76 103 135 182 220 273 326
#     4   9  19  33  58  80 109 142 182 228 266 326
#     4  10  22  34  55  81 108 145 177 218 276 325
#     4   9  19  33  55  75 101 139 172 224 271 320
#     4  10  19  35  54  78 103 140 188 223 262 334
#     4   9  20  33  55  79 104 144 183 222 274 328
#
# _framework density 18.809988000000001
#
# number of rings (size 3 to 8) (size 9 to 14) (size 15 to 20)
#    0.000    2.545    0.000    1.909    7.636    1.455 
#    0.000    6.364    0.000    0.000    0.000    0.000 
#    0.000    0.000    0.000    0.000    0.000    0.000 
#
# Total GULP energy -545316.458143 kJ/mol
# GULP energy per Si atom -12393.555867 kJ/mol
# Density = 1.876718 g / cm^3
# Si number density = 18.809988 Si / 1000 Ang^3
#
#
#
# Elastic Constant Matrix: (Units=GPa)
#
#
# Indices 1 2 3 4 5 6 
#
# 1 118.7527 19.7196 58.3445 0.0000 0.0000 0.0000
# 2 19.7196 57.7300 22.7221 0.0000 0.0000 0.0000
# 3 58.3445 22.7221 123.3140 0.0000 0.0000 0.0000
# 4 0.0000 0.0000 0.0000 16.6223 0.0000 0.0000
# 5 0.0000 0.0000 0.0000 0.0000 17.9769 0.0000
# 6 0.0000 0.0000 0.0000 0.0000 0.0000 17.8886
#
#
#
# Elastic Compliance Matrix: (Units=1/GPa)
#
#
# Indices 1 2 3 4 5 6 
#
# 1 0.011155 -0.001869 -0.004934 0.000000 0.000000 0.000000
# 2 -0.001869 0.018990 -0.002615 0.000000 0.000000 0.000000
# 3 -0.004934 -0.002615 0.010925 0.000000 0.000000 0.000000
# 4 0.000000 0.000000 0.000000 0.060160 0.000000 0.000000
# 5 0.000000 0.000000 0.000000 0.000000 0.055627 0.000000
# 6 0.000000 0.000000 0.000000 0.000000 0.000000 0.055902
#
#
# Mechanical properties :
#
#
# Convention : Reuss Voigt Hill
#
# Bulk Modulus (GPa) = 44.97240 55.70768 50.34004
# Shear Modulus (GPa) = 20.92006 23.76491 22.34248
#
# Velocity S-wave (km/s) = 3.33855 3.55832 3.45018
# Velocity P-wave (km/s) = 6.23072 6.82367 6.53393
#
# Compressibility (1/GPa) = 0.02223586
#
# Stress axis : x y z
#
# Youngs Moduli (GPa) = 89.64535 52.66060 91.52915
#
# Poissons Ratio (x) = 0.09840 0.45157
# Poissons Ratio (y) = 0.16751 0.23934
# Poissons Ratio (z) = 0.44227 0.13771
#
# Static dielectric constant tensor:
#      x y z
#    x 3.653050 0.000000 0.000000 
#    y 0.000000 3.243740 0.000000 
#    z 0.000000 0.000000 3.507540 
# 
# 
# High freq. dielectric constant tensor:
#      x y z
#    x 1.729160 0.000000 0.000000 
#    y 0.000000 1.709390 0.000000 
#    z 0.000000 0.000000 1.729010 
# 
# From -- ./inp_files/57375.got.cif
#   From: 2010.03.12/outbox.cif.g09.slc.cpg/sg63_29_cif.got.tgz:57375.got - 2010.04.10 19:34:48.
