data_PCOD8257502
_publ_section_title
;
Structure prediction by ZEFSAII (Michael W. Deem and Ramdas Pophale) SiO2 
 PCOD8257502
Probable space group: C M C M
;
_chemical_formula_sum "Si O2"
_cell_formula_units_Z 88
_cell_length_a 22.177043
_cell_length_b 24.503582
_cell_length_c 8.984395
_cell_angle_alpha 90.000000
_cell_angle_beta 90.000000
_cell_angle_gamma 90.000000
_cell_volume 4882.272903
_symmetry_space_group_name_H-M "C M C M"
_symmetry_group_IT_number 63
_symmetry_cell_setting 'orthorhombic'
loop_
_space_group_symop_operation_xyz
x,y,z
-x,-y,1/2+z
x,-y,-z
-x,y,1/2-z
-x,-y,-z
x,y,1/2-z
-x,y,z
x,-y,1/2+z
1/2+x,1/2+y,z
1/2-x,1/2-y,1/2+z
1/2+x,1/2-y,-z
1/2-x,1/2+y,1/2-z
1/2-x,1/2-y,-z
1/2+x,1/2+y,1/2-z
1/2-x,1/2+y,z
1/2+x,1/2-y,1/2+z
loop_
_atom_site_type_symbol
_atom_site_label
_atom_site_fract_x
_atom_site_fract_y
_atom_site_fract_z
Si Si1 0.644488 0.943639 0.574231
Si Si2 0.430097 0.262184 0.076496
Si Si3 0.388259 0.367890 0.924562
Si Si4 0.281661 0.445101 0.577114
Si Si5 0.000000 0.058271 0.424570
Si Si6 0.570888 0.150881 0.578296
O O1 0.635861 0.948483 0.750000
O O2 0.713561 0.930554 0.529464
O O3 0.603236 0.896083 0.512731
O O4 0.623390 0.000000 0.500000
O O5 0.417553 0.253241 0.250000
O O6 0.500000 0.274592 0.043749
O O7 0.390981 0.312251 0.016595
O O8 0.408723 0.208530 0.989456
O O9 0.393879 0.354465 0.750000
O O10 0.324468 0.394920 0.967048
O O11 0.441277 0.408373 0.975775
O O12 0.304972 0.500000 0.500000
O O13 0.286177 0.457356 0.750000
O O14 0.000000 0.048358 0.250000
O O15 0.000000 0.000000 0.500000
O O16 0.590391 0.148716 0.750000
O O17 0.500000 0.142335 0.558281
#
# Coordination Sequence:
#
# PCOD8257502 Si02
#       6
#    16  16  16  16   8  16
#     4  10  20  36  57  81 109 140 174 213 259 312
#     4  10  20  34  53  78 106 138 176 219 265 314
#     4  10  19  33  51  74 104 141 181 219 264 312
#     4   9  19  34  53  76 105 141 179 219 262 311
#     4  10  20  30  46  72 104 138 175 222 267 306
#     4  10  21  37  58  82 107 136 170 212 263 317
#
# _framework density 18.024391999999999
#
# number of rings (size 3 to 8) (size 9 to 14) (size 15 to 20)
#    0.000    2.182    0.909    2.182    0.000    4.364 
#    0.000    0.909    0.000    0.000    0.000    0.000 
#    0.000    0.000    0.000    0.000    0.000    0.000 
#
# Total GULP energy -545772.616150 kJ/mol
# GULP energy per Si atom -12403.923094 kJ/mol
# Density = 1.798337 g / cm^3
# Si number density = 18.024392 Si / 1000 Ang^3
#
#
#
# Elastic Constant Matrix: (Units=GPa)
#
#
# Indices 1 2 3 4 5 6 
#
# 1 57.0665 57.3036 34.9145 0.0000 0.0000 0.0000
# 2 57.3036 150.3364 61.9425 0.0000 0.0000 0.0000
# 3 34.9145 61.9425 80.2314 0.0000 0.0000 0.0000
# 4 0.0000 0.0000 0.0000 41.7378 0.0000 0.0000
# 5 0.0000 0.0000 0.0000 0.0000 22.8771 0.0000
# 6 0.0000 0.0000 0.0000 0.0000 0.0000 28.8369
#
#
#
# Elastic Compliance Matrix: (Units=1/GPa)
#
#
# Indices 1 2 3 4 5 6 
#
# 1 0.030406 -0.009001 -0.006282 0.000000 0.000000 0.000000
# 2 -0.009001 0.012419 -0.005671 0.000000 0.000000 0.000000
# 3 -0.006282 -0.005671 0.019576 0.000000 0.000000 0.000000
# 4 0.000000 0.000000 0.000000 0.023959 0.000000 0.000000
# 5 0.000000 0.000000 0.000000 0.000000 0.043712 0.000000
# 6 0.000000 0.000000 0.000000 0.000000 0.000000 0.034678
#
#
# Mechanical properties :
#
#
# Convention : Reuss Voigt Hill
#
# Bulk Modulus (GPa) = 48.80017 66.21729 57.50873
# Shear Modulus (GPa) = 23.42023 27.58861 25.50442
#
# Velocity S-wave (km/s) = 3.60858 3.91657 3.76572
# Velocity P-wave (km/s) = 6.67051 7.56770 7.13322
#
# Compressibility (1/GPa) = 0.02049173
#
# Stress axis : x y z
#
# Youngs Moduli (GPa) = 32.88858 80.51875 51.08184
#
# Poissons Ratio (x) = 0.72476 0.32092
# Poissons Ratio (y) = 0.29604 0.28970
# Poissons Ratio (z) = 0.20662 0.45665
#
# Static dielectric constant tensor:
#      x y z
#    x 3.356350 0.000000 0.000000 
#    y 0.000000 3.364660 0.000000 
#    z 0.000000 0.000000 2.871470 
# 
# 
# High freq. dielectric constant tensor:
#      x y z
#    x 1.686790 0.000000 0.000000 
#    y 0.000000 1.703520 0.000000 
#    z 0.000000 0.000000 1.704930 
# 
# From -- ./inp_files/10210.got.cif
#   From: 2010.03.12/outbox.cif.g09.slc.cpg/sg63_6_cif.got.tgz:10210.got - 2010.04.10 19:34:48.
