data_PCOD8257165
_publ_section_title
;
Structure prediction by ZEFSAII (Michael W. Deem and Ramdas Pophale) SiO2 
 PCOD8257165
Probable space group: C M C M
;
_chemical_formula_sum "Si O2"
_cell_formula_units_Z 96
_cell_length_a 22.665577
_cell_length_b 14.750909
_cell_length_c 19.898617
_cell_angle_alpha 90.000000
_cell_angle_beta 90.000000
_cell_angle_gamma 90.000000
_cell_volume 6652.861100
_symmetry_space_group_name_H-M "C M C M"
_symmetry_group_IT_number 63
_symmetry_cell_setting 'orthorhombic'
loop_
_space_group_symop_operation_xyz
x,y,z
-x,-y,1/2+z
x,-y,-z
-x,y,1/2-z
-x,-y,-z
x,y,1/2-z
-x,y,z
x,-y,1/2+z
1/2+x,1/2+y,z
1/2-x,1/2-y,1/2+z
1/2+x,1/2-y,-z
1/2-x,1/2+y,1/2-z
1/2-x,1/2-y,-z
1/2+x,1/2+y,1/2-z
1/2-x,1/2+y,z
1/2+x,1/2-y,1/2+z
loop_
_atom_site_type_symbol
_atom_site_label
_atom_site_fract_x
_atom_site_fract_y
_atom_site_fract_z
Si Si1 0.638661 0.285126 0.509412
Si Si2 0.067818 0.936372 0.562237
Si Si3 0.284894 0.355026 0.102712
Si Si4 0.315891 0.900229 0.997301
Si Si5 0.261601 0.331029 0.886167
Si Si6 0.662728 0.522452 0.174105
O O1 0.579748 0.332791 0.537982
O O2 0.655723 0.322749 0.435814
O O3 0.633340 0.175487 0.511212
O O4 0.693181 0.313240 0.554552
O O5 0.106732 0.963195 0.626135
O O6 0.000000 0.946614 0.582996
O O7 0.085403 0.000000 0.500000
O O8 0.236634 0.395845 0.051764
O O9 0.259238 0.266823 0.142519
O O10 0.302432 0.431050 0.156111
O O11 0.292227 0.883601 0.921785
O O12 0.344971 0.000000 0.000000
O O13 0.291629 0.393162 0.829552
O O14 0.639263 0.515671 0.250000
#
# Coordination Sequence:
#
# PCOD8257165 Si02
#       6
#    16  16  16  16  16  16
#     4   8  15  25  42  64  80 104 144 179 205 240
#     4  10  19  32  48  60  78 111 148 181 211 253
#     4   9  15  26  39  60  89 113 138 167 201 247
#     4   9  13  22  44  65  83 109 140 170 198 245
#     4   8  16  25  39  59  86 117 139 163 198 250
#     4  11  20  28  42  63  89 115 139 175 210 244
#
# _framework density 14.429881
#
# number of rings (size 3 to 8) (size 9 to 14) (size 15 to 20)
#    0.000    2.833    3.333    2.000    0.000    1.000 
#    0.000    0.000    0.000    0.500    0.000    0.000 
#    0.000    0.000    0.000    0.000    6.333    0.000 
#
# Total GULP energy -594711.626744 kJ/mol
# GULP energy per Si atom -12389.825557 kJ/mol
# Density = 1.439704 g / cm^3
# Si number density = 14.429881 Si / 1000 Ang^3
#
#
#
# Elastic Constant Matrix: (Units=GPa)
#
#
# Indices 1 2 3 4 5 6 
#
# 1 46.8109 35.2746 31.7066 0.0000 0.0000 0.0000
# 2 35.2746 129.8534 38.3849 0.0000 0.0000 0.0000
# 3 31.7066 38.3849 75.5658 0.0000 0.0000 0.0000
# 4 0.0000 0.0000 0.0000 12.5645 0.0000 0.0000
# 5 0.0000 0.0000 0.0000 0.0000 10.8214 0.0000
# 6 0.0000 0.0000 0.0000 0.0000 0.0000 15.0730
#
#
#
# Elastic Compliance Matrix: (Units=1/GPa)
#
#
# Indices 1 2 3 4 5 6 
#
# 1 0.033137 -0.005756 -0.010980 0.000000 0.000000 0.000000
# 2 -0.005756 0.010061 -0.002696 0.000000 0.000000 0.000000
# 3 -0.010980 -0.002696 0.019210 0.000000 0.000000 0.000000
# 4 0.000000 0.000000 0.000000 0.079589 0.000000 0.000000
# 5 0.000000 0.000000 0.000000 0.000000 0.092410 0.000000
# 6 0.000000 0.000000 0.000000 0.000000 0.000000 0.066344
#
#
# Mechanical properties :
#
#
# Convention : Reuss Voigt Hill
#
# Bulk Modulus (GPa) = 42.47199 51.44024 46.95612
# Shear Modulus (GPa) = 14.39002 17.48272 15.93637
#
# Velocity S-wave (km/s) = 3.16133 3.48453 3.32686
# Velocity P-wave (km/s) = 6.54390 7.20521 6.88250
#
# Compressibility (1/GPa) = 0.02354493
#
# Stress axis : x y z
#
# Youngs Moduli (GPa) = 30.17761 99.38914 52.05618
#
# Poissons Ratio (x) = 0.57208 0.57159
# Poissons Ratio (y) = 0.17370 0.14033
# Poissons Ratio (z) = 0.33135 0.26793
#
# Static dielectric constant tensor:
#      x y z
#    x 2.542250 0.000000 0.000000 
#    y 0.000000 3.216180 0.000000 
#    z 0.000000 0.000000 2.561540 
# 
# 
# High freq. dielectric constant tensor:
#      x y z
#    x 1.505460 0.000000 0.000000 
#    y 0.000000 1.567490 0.000000 
#    z 0.000000 0.000000 1.521950 
# 
# From -- ./inp_files/56700.got.cif
#   From: 2010.03.12/outbox.cif.g09.slc.cpg/sg63_29_cif.got.tgz:56700.got - 2010.04.10 19:34:48.
