data_PCOD8257058
_publ_section_title
;
Structure prediction by ZEFSAII (Michael W. Deem and Ramdas Pophale) SiO2 
 PCOD8257058
Probable space group: C M C M
;
_chemical_formula_sum "Si O2"
_cell_formula_units_Z 80
_cell_length_a 13.065159
_cell_length_b 25.041167
_cell_length_c 13.689778
_cell_angle_alpha 90.000000
_cell_angle_beta 90.000000
_cell_angle_gamma 90.000000
_cell_volume 4478.841250
_symmetry_space_group_name_H-M "C M C M"
_symmetry_group_IT_number 63
_symmetry_cell_setting 'orthorhombic'
loop_
_space_group_symop_operation_xyz
x,y,z
-x,-y,1/2+z
x,-y,-z
-x,y,1/2-z
-x,-y,-z
x,y,1/2-z
-x,y,z
x,-y,1/2+z
1/2+x,1/2+y,z
1/2-x,1/2-y,1/2+z
1/2+x,1/2-y,-z
1/2-x,1/2+y,1/2-z
1/2-x,1/2-y,-z
1/2+x,1/2+y,1/2-z
1/2-x,1/2+y,z
1/2+x,1/2-y,1/2+z
loop_
_atom_site_type_symbol
_atom_site_label
_atom_site_fract_x
_atom_site_fract_y
_atom_site_fract_z
Si Si1 0.308523 0.581433 0.458220
Si Si2 0.380987 0.477328 0.361096
Si Si3 0.383909 0.698532 0.461407
Si Si4 0.883756 0.375324 0.637419
Si Si5 0.194018 0.258703 0.861566
O O1 0.359684 0.538923 0.385774
O O2 0.314189 0.561230 0.569874
O O3 0.370458 0.635828 0.443747
O O4 0.189359 0.589474 0.431294
O O5 0.349198 0.465653 0.250000
O O6 0.500000 0.465106 0.379418
O O7 0.500000 0.714805 0.439156
O O8 0.313220 0.732459 0.387855
O O9 0.354033 0.711823 0.573214
O O10 0.857217 0.387738 0.750000
O O11 0.868375 0.312698 0.616852
O O12 0.000000 0.390913 0.612247
O O13 0.184284 0.240296 0.750000
#
# Coordination Sequence:
#
# PCOD8257058 Si02
#       5
#    16  16  16  16  16
#     4  10  19  33  51  73  99 125 163 207 243 287
#     4  10  20  34  51  71  99 132 161 197 249 299
#     4  10  19  31  50  75 100 128 164 203 241 283
#     4   9  17  31  52  75  99 131 166 197 236 285
#     4   9  19  33  48  71 103 134 163 197 238 286
#
# _framework density 17.861761999999999
#
# number of rings (size 3 to 8) (size 9 to 14) (size 15 to 20)
#    0.000    2.400    0.000    3.600    0.000    3.200 
#    0.000    2.000    0.000    1.800    0.000    0.000 
#    0.000    0.000    0.000    0.000    0.000    0.000 
#
# Total GULP energy -496081.871929 kJ/mol
# GULP energy per Si atom -12402.046798 kJ/mol
# Density = 1.782111 g / cm^3
# Si number density = 17.861762 Si / 1000 Ang^3
#
#
#
# Elastic Constant Matrix: (Units=GPa)
#
#
# Indices 1 2 3 4 5 6 
#
# 1 119.8852 29.4220 44.0937 0.0000 0.0000 0.0000
# 2 29.4220 38.7937 10.6833 0.0000 0.0000 0.0000
# 3 44.0937 10.6833 86.9306 0.0000 0.0000 0.0000
# 4 0.0000 0.0000 0.0000 23.3806 0.0000 0.0000
# 5 0.0000 0.0000 0.0000 0.0000 27.3222 0.0000
# 6 0.0000 0.0000 0.0000 0.0000 0.0000 19.4668
#
#
#
# Elastic Compliance Matrix: (Units=1/GPa)
#
#
# Indices 1 2 3 4 5 6 
#
# 1 0.012173 -0.007796 -0.005217 0.000000 0.000000 0.000000
# 2 -0.007796 0.031673 0.000062 0.000000 0.000000 0.000000
# 3 -0.005217 0.000062 0.014142 0.000000 0.000000 0.000000
# 4 0.000000 0.000000 0.000000 0.042771 0.000000 0.000000
# 5 0.000000 0.000000 0.000000 0.000000 0.036600 0.000000
# 6 0.000000 0.000000 0.000000 0.000000 0.000000 0.051369
#
#
# Mechanical properties :
#
#
# Convention : Reuss Voigt Hill
#
# Bulk Modulus (GPa) = 31.16542 46.00084 38.58313
# Shear Modulus (GPa) = 22.19018 24.79461 23.49240
#
# Velocity S-wave (km/s) = 3.52849 3.72982 3.63055
# Velocity P-wave (km/s) = 5.83835 6.66021 6.26278
#
# Compressibility (1/GPa) = 0.03208685
#
# Stress axis : x y z
#
# Youngs Moduli (GPa) = 82.14765 31.57275 70.71231
#
# Poissons Ratio (x) = 0.24614 0.36887
# Poissons Ratio (y) = 0.64041 -0.00438
# Poissons Ratio (z) = 0.42853 -0.00195
#
# Static dielectric constant tensor:
#      x y z
#    x 3.328100 0.000000 0.000000 
#    y 0.000000 3.156690 0.000000 
#    z 0.000000 0.000000 3.339320 
# 
# 
# High freq. dielectric constant tensor:
#      x y z
#    x 1.690690 0.000000 0.000000 
#    y 0.000000 1.677420 0.000000 
#    z 0.000000 0.000000 1.690020 
# 
# From -- ./inp_files/29698.got.cif
#   From: 2010.03.12/outbox.cif.g09.slc.cpg/sg63_15_cif.got.tgz:29698.got - 2010.04.10 19:34:48.
