data_PCOD8257820
_publ_section_title
;
Structure prediction by ZEFSAII (Michael W. Deem and Ramdas Pophale) SiO2 
 PCOD8257820
Probable space group: C M C M
;
_chemical_formula_sum "Si O2"
_cell_formula_units_Z 96
_cell_length_a 8.836763
_cell_length_b 25.054794
_cell_length_c 23.417427
_cell_angle_alpha 90.000000
_cell_angle_beta 90.000000
_cell_angle_gamma 90.000000
_cell_volume 5184.695067
_symmetry_space_group_name_H-M "C M C M"
_symmetry_group_IT_number 63
_symmetry_cell_setting 'orthorhombic'
loop_
_space_group_symop_operation_xyz
x,y,z
-x,-y,1/2+z
x,-y,-z
-x,y,1/2-z
-x,-y,-z
x,y,1/2-z
-x,y,z
x,-y,1/2+z
1/2+x,1/2+y,z
1/2-x,1/2-y,1/2+z
1/2+x,1/2-y,-z
1/2-x,1/2+y,1/2-z
1/2-x,1/2-y,-z
1/2+x,1/2+y,1/2-z
1/2-x,1/2+y,z
1/2+x,1/2-y,1/2+z
loop_
_atom_site_type_symbol
_atom_site_label
_atom_site_fract_x
_atom_site_fract_y
_atom_site_fract_z
Si Si1 0.320322 0.932764 0.750000
Si Si2 0.678925 0.405333 0.866124
Si Si3 0.179068 0.993095 0.063446
Si Si4 0.820721 0.445616 0.250000
Si Si5 0.174971 0.313653 0.561627
Si Si6 0.676445 0.901213 0.131154
Si Si7 0.673983 0.795648 0.432118
O O1 0.500000 0.931020 0.750000
O O2 0.258724 0.901546 0.804928
O O3 0.258478 0.993779 0.750000
O O4 0.500000 0.406053 0.857507
O O5 0.738854 0.458799 0.897099
O O6 0.722759 0.354929 0.904200
O O7 0.000000 0.992903 0.062319
O O8 0.236286 0.936931 0.085980
O O9 0.245297 0.000000 0.000000
O O10 0.760997 0.413918 0.305490
O O11 0.000000 0.446734 0.250000
O O12 0.218617 0.254095 0.581420
O O13 0.209680 0.320365 0.494375
O O14 0.000000 0.324005 0.575823
O O15 0.500000 0.914955 0.126314
O O16 0.708120 0.839681 0.116156
O O17 0.500000 0.776569 0.430096
#
# Coordination Sequence:
#
# PCOD8257820 Si02
#       7
#     8  16  16   8  16  16  16
#     4  11  21  37  58  79 108 145 186 226 269 323
#     4  11  22  36  55  80 111 145 184 226 274 329
#     4  10  21  34  50  77 111 142 173 218 274 326
#     4   9  18  33  54  79 106 139 176 220 267 313
#     4  10  20  35  56  81 109 145 186 229 280 331
#     4  10  19  34  55  79 106 139 181 222 269 326
#     4   9  19  35  56  81 110 145 185 230 279 333
#
# _framework density 18.516034999999999
#
# number of rings (size 3 to 8) (size 9 to 14) (size 15 to 20)
#    0.000    2.000    1.667    2.250    0.000    2.333 
#    0.000    1.250    0.000    2.000    0.000    0.000 
#    0.000    0.000    0.000    0.000    0.000    0.000 
#
# Total GULP energy -595374.375472 kJ/mol
# GULP energy per Si atom -12403.632822 kJ/mol
# Density = 1.847389 g / cm^3
# Si number density = 18.516035 Si / 1000 Ang^3
#
#
#
# Elastic Constant Matrix: (Units=GPa)
#
#
# Indices 1 2 3 4 5 6 
#
# 1 38.7486 20.0030 28.7275 0.0000 0.0000 0.0000
# 2 20.0030 69.9451 26.2956 0.0000 0.0000 0.0000
# 3 28.7275 26.2956 83.9374 0.0000 0.0000 0.0000
# 4 0.0000 0.0000 0.0000 26.3653 0.0000 0.0000
# 5 0.0000 0.0000 0.0000 0.0000 21.8651 0.0000
# 6 0.0000 0.0000 0.0000 0.0000 0.0000 31.0529
#
#
#
# Elastic Compliance Matrix: (Units=1/GPa)
#
#
# Indices 1 2 3 4 5 6 
#
# 1 0.037099 -0.006615 -0.010625 0.000000 0.000000 0.000000
# 2 -0.006615 0.017385 -0.003182 0.000000 0.000000 0.000000
# 3 -0.010625 -0.003182 0.016547 0.000000 0.000000 0.000000
# 4 0.000000 0.000000 0.000000 0.037929 0.000000 0.000000
# 5 0.000000 0.000000 0.000000 0.000000 0.045735 0.000000
# 6 0.000000 0.000000 0.000000 0.000000 0.000000 0.032203
#
#
# Mechanical properties :
#
#
# Convention : Reuss Voigt Hill
#
# Bulk Modulus (GPa) = 33.12729 38.07593 35.60161
# Shear Modulus (GPa) = 21.02559 23.69700 22.36130
#
# Velocity S-wave (km/s) = 3.37342 3.58132 3.47893
# Velocity P-wave (km/s) = 5.75355 6.14081 5.95033
#
# Compressibility (1/GPa) = 0.03018659
#
# Stress axis : x y z
#
# Youngs Moduli (GPa) = 26.95456 57.52035 60.43424
#
# Poissons Ratio (x) = 0.38052 0.64210
# Poissons Ratio (y) = 0.17832 0.19232
# Poissons Ratio (z) = 0.28639 0.18304
#
# Static dielectric constant tensor:
#      x y z
#    x 3.257450 0.000000 0.000000 
#    y 0.000000 3.327530 0.000000 
#    z 0.000000 0.000000 3.576970 
# 
# 
# High freq. dielectric constant tensor:
#      x y z
#    x 1.710530 0.000000 0.000000 
#    y 0.000000 1.714910 0.000000 
#    z 0.000000 0.000000 1.720980 
# 
# From -- ./inp_files/60069.got.cif
#   From: 2010.03.12/outbox.cif.g09.slc.cpg/sg63_31_cif.got.tgz:60069.got - 2010.04.10 19:34:48.
