data_PCOD8257472
_publ_section_title
;
Structure prediction by ZEFSAII (Michael W. Deem and Ramdas Pophale) SiO2 
 PCOD8257472
Probable space group: C M C M
;
_chemical_formula_sum "Si O2"
_cell_formula_units_Z 96
_cell_length_a 24.412077
_cell_length_b 11.325413
_cell_length_c 17.304188
_cell_angle_alpha 90.000000
_cell_angle_beta 90.000000
_cell_angle_gamma 90.000000
_cell_volume 4784.207463
_symmetry_space_group_name_H-M "C M C M"
_symmetry_group_IT_number 63
_symmetry_cell_setting 'orthorhombic'
loop_
_space_group_symop_operation_xyz
x,y,z
-x,-y,1/2+z
x,-y,-z
-x,y,1/2-z
-x,-y,-z
x,y,1/2-z
-x,y,z
x,-y,1/2+z
1/2+x,1/2+y,z
1/2-x,1/2-y,1/2+z
1/2+x,1/2-y,-z
1/2-x,1/2+y,1/2-z
1/2-x,1/2-y,-z
1/2+x,1/2+y,1/2-z
1/2-x,1/2+y,z
1/2+x,1/2-y,1/2+z
loop_
_atom_site_type_symbol
_atom_site_label
_atom_site_fract_x
_atom_site_fract_y
_atom_site_fract_z
Si Si1 0.790381 0.138875 0.514330
Si Si2 0.562349 0.078642 0.661120
Si Si3 0.853808 0.155377 0.835797
Si Si4 0.399514 0.269321 0.942532
Si Si5 0.059764 0.959067 0.663514
Si Si6 0.561175 0.821219 0.894642
O O1 0.750000 0.250000 0.500000
O O2 0.803856 0.152586 0.604843
O O3 0.842333 0.165432 0.460027
O O4 0.770046 0.000000 0.500000
O O5 0.579509 0.057476 0.750000
O O6 0.500000 0.128971 0.656921
O O7 0.606495 0.164556 0.620293
O O8 0.565658 0.960618 0.611277
O O9 0.829023 0.142718 0.750000
O O10 0.891453 0.271666 0.839039
O O11 0.894318 0.051240 0.859327
O O12 0.440049 0.360402 0.901725
O O13 0.428144 0.219653 0.018313
O O14 0.070725 0.907104 0.750000
O O15 0.000000 0.020073 0.661225
O O16 0.500000 0.780560 0.869134
#
# Coordination Sequence:
#
# PCOD8257472 Si02
#       6
#    16  16  16  16  16  16
#     4  11  25  47  68  90 119 159 211 276 336 379
#     4  10  20  34  53  84 127 169 207 248 303 378
#     4  10  21  39  61  89 125 161 203 252 312 380
#     4  11  21  36  59  86 120 158 211 259 319 374
#     4  10  19  32  57  93 132 167 199 242 307 387
#     4  10  20  32  53  85 128 171 207 246 297 375
#
# _framework density 20.066020000000002
#
# number of rings (size 3 to 8) (size 9 to 14) (size 15 to 20)
#    0.000    1.667    1.667    3.500    0.000    7.000 
#    0.000    5.000    0.000    0.000    0.000    0.000 
#    0.000    0.000    0.000    0.000    0.000    0.000 
#
# Total GULP energy -594720.778163 kJ/mol
# GULP energy per Si atom -12390.016212 kJ/mol
# Density = 2.002035 g / cm^3
# Si number density = 20.066020 Si / 1000 Ang^3
#
#
#
# Elastic Constant Matrix: (Units=GPa)
#
#
# Indices 1 2 3 4 5 6 
#
# 1 65.3676 39.9590 37.1174 0.0000 0.0000 0.0000
# 2 39.9590 113.2984 48.5931 0.0000 0.0000 0.0000
# 3 37.1174 48.5931 110.3977 0.0000 0.0000 0.0000
# 4 0.0000 0.0000 0.0000 35.0899 0.0000 0.0000
# 5 0.0000 0.0000 0.0000 0.0000 28.4348 0.0000
# 6 0.0000 0.0000 0.0000 0.0000 0.0000 36.1197
#
#
#
# Elastic Compliance Matrix: (Units=1/GPa)
#
#
# Indices 1 2 3 4 5 6 
#
# 1 0.021360 -0.005490 -0.004765 0.000000 0.000000 0.000000
# 2 -0.005490 0.012291 -0.003564 0.000000 0.000000 0.000000
# 3 -0.004765 -0.003564 0.012229 0.000000 0.000000 0.000000
# 4 0.000000 0.000000 0.000000 0.028498 0.000000 0.000000
# 5 0.000000 0.000000 0.000000 0.000000 0.035168 0.000000
# 6 0.000000 0.000000 0.000000 0.000000 0.000000 0.027686
#
#
# Mechanical properties :
#
#
# Convention : Reuss Voigt Hill
#
# Bulk Modulus (GPa) = 54.81941 60.04474 57.43207
# Shear Modulus (GPa) = 29.24819 30.82184 30.03502
#
# Velocity S-wave (km/s) = 3.82199 3.92346 3.87306
# Velocity P-wave (km/s) = 6.84512 7.10727 6.97743
#
# Compressibility (1/GPa) = 0.01824172
#
# Stress axis : x y z
#
# Youngs Moduli (GPa) = 46.81733 81.35959 81.77151
#
# Poissons Ratio (x) = 0.44663 0.38965
# Poissons Ratio (y) = 0.25701 0.29147
# Poissons Ratio (z) = 0.22309 0.29000
#
# Static dielectric constant tensor:
#      x y z
#    x 3.547090 0.000000 0.000000 
#    y 0.000000 3.889500 0.000000 
#    z 0.000000 0.000000 3.782270 
# 
# 
# High freq. dielectric constant tensor:
#      x y z
#    x 1.743320 0.000000 0.000000 
#    y 0.000000 1.794240 0.000000 
#    z 0.000000 0.000000 1.797280 
# 
# From -- ./inp_files/48004.got.cif
#   From: 2010.03.12/outbox.cif.g09.slc.cpg/sg63_25_cif.got.tgz:48004.got - 2010.04.10 19:34:48.
