data_PCOD8257196
_publ_section_title
;
Structure prediction by ZEFSAII (Michael W. Deem and Ramdas Pophale) SiO2 
 PCOD8257196
Probable space group: C M C M
;
_chemical_formula_sum "Si O2"
_cell_formula_units_Z 88
_cell_length_a 19.940058
_cell_length_b 27.197046
_cell_length_c 9.007847
_cell_angle_alpha 90.000000
_cell_angle_beta 90.000000
_cell_angle_gamma 90.000000
_cell_volume 4885.051584
_symmetry_space_group_name_H-M "C M C M"
_symmetry_group_IT_number 63
_symmetry_cell_setting 'orthorhombic'
loop_
_space_group_symop_operation_xyz
x,y,z
-x,-y,1/2+z
x,-y,-z
-x,y,1/2-z
-x,-y,-z
x,y,1/2-z
-x,y,z
x,-y,1/2+z
1/2+x,1/2+y,z
1/2-x,1/2-y,1/2+z
1/2+x,1/2-y,-z
1/2-x,1/2+y,1/2-z
1/2-x,1/2-y,-z
1/2+x,1/2+y,1/2-z
1/2-x,1/2+y,z
1/2+x,1/2-y,1/2+z
loop_
_atom_site_type_symbol
_atom_site_label
_atom_site_fract_x
_atom_site_fract_y
_atom_site_fract_z
Si Si1 0.500000 0.449326 0.419460
Si Si2 0.634118 0.284999 0.425550
Si Si3 0.500000 0.167984 0.915685
Si Si4 0.500000 0.284994 0.580998
Si Si5 0.224903 0.862378 0.923206
Si Si6 0.629905 0.827614 0.919639
Si Si7 0.645604 0.446814 0.425392
O O1 0.500000 0.500000 0.500000
O O2 0.500000 0.464304 0.250000
O O3 0.571030 0.422551 0.456218
O O4 0.633150 0.294133 0.250000
O O5 0.564786 0.305184 0.494606
O O6 0.694656 0.314680 0.498026
O O7 0.645399 0.228256 0.469352
O O8 0.500000 0.147552 0.750000
O O9 0.500000 0.226487 0.924005
O O10 0.567877 0.148397 0.992021
O O11 0.500000 0.304621 0.750000
O O12 0.205742 0.861729 0.750000
O O13 0.304877 0.860808 0.946316
O O14 0.200000 0.912005 0.999605
O O15 0.607266 0.826894 0.750000
O O16 0.651651 0.500000 0.500000
O O17 0.659914 0.451038 0.250000
#
# Coordination Sequence:
#
# PCOD8257196 Si02
#       7
#     8  16   8   8  16  16  16
#     4   8  16  31  52  73  94 123 161 201 244 287
#     4  10  19  32  49  70  98 134 172 211 250 292
#     4   9  17  29  50  74  96 125 165 208 248 293
#     4   9  17  30  46  67  96 132 170 209 250 294
#     4  11  22  34  49  73 102 134 169 206 250 300
#     4   9  19  34  51  71 100 135 169 204 247 297
#     4  10  20  36  55  75  99 129 166 210 254 299
#
# _framework density 18.014139
#
# number of rings (size 3 to 8) (size 9 to 14) (size 15 to 20)
#    0.000    2.364    0.000    2.727    0.000    5.818 
#    0.000    2.727    0.000    0.000    0.000    0.636 
#    0.000    0.000    0.000    0.000    0.000    0.000 
#
# Total GULP energy -545430.086837 kJ/mol
# GULP energy per Si atom -12396.138337 kJ/mol
# Density = 1.797314 g / cm^3
# Si number density = 18.014139 Si / 1000 Ang^3
#
#
#
# Elastic Constant Matrix: (Units=GPa)
#
#
# Indices 1 2 3 4 5 6 
#
# 1 121.8122 43.0525 64.9209 0.0000 0.0000 0.0000
# 2 43.0525 58.3116 36.8532 0.0000 0.0000 0.0000
# 3 64.9209 36.8532 113.0581 0.0000 0.0000 0.0000
# 4 0.0000 0.0000 0.0000 25.4039 0.0000 0.0000
# 5 0.0000 0.0000 0.0000 0.0000 33.0391 0.0000
# 6 0.0000 0.0000 0.0000 0.0000 0.0000 13.8830
#
#
#
# Elastic Compliance Matrix: (Units=1/GPa)
#
#
# Indices 1 2 3 4 5 6 
#
# 1 0.013480 -0.006374 -0.005663 0.000000 0.000000 0.000000
# 2 -0.006374 0.024612 -0.004363 0.000000 0.000000 0.000000
# 3 -0.005663 -0.004363 0.013519 0.000000 0.000000 0.000000
# 4 0.000000 0.000000 0.000000 0.039364 0.000000 0.000000
# 5 0.000000 0.000000 0.000000 0.000000 0.030267 0.000000
# 6 0.000000 0.000000 0.000000 0.000000 0.000000 0.072030
#
#
# Mechanical properties :
#
#
# Convention : Reuss Voigt Hill
#
# Bulk Modulus (GPa) = 53.15637 64.75944 58.95791
# Shear Modulus (GPa) = 21.51987 24.35555 22.93771
#
# Velocity S-wave (km/s) = 3.46006 3.68098 3.57223
# Velocity P-wave (km/s) = 6.74796 7.35482 7.05791
#
# Compressibility (1/GPa) = 0.01881242
#
# Stress axis : x y z
#
# Youngs Moduli (GPa) = 74.18293 40.62994 73.96945
#
# Poissons Ratio (x) = 0.25896 0.41890
# Poissons Ratio (y) = 0.47281 0.32273
# Poissons Ratio (z) = 0.42011 0.17727
#
# Static dielectric constant tensor:
#      x y z
#    x 3.565250 0.000000 0.000000 
#    y 0.000000 2.865700 0.000000 
#    z 0.000000 0.000000 3.447550 
# 
# 
# High freq. dielectric constant tensor:
#      x y z
#    x 1.704790 0.000000 0.000000 
#    y 0.000000 1.649080 0.000000 
#    z 0.000000 0.000000 1.713130 
# 
# From -- ./inp_files/6938.got.cif
#   From: 2010.03.12/outbox.cif.g09.slc.cpg/sg63_4_cif.got.tgz:6938.got - 2010.04.10 19:34:48.
