data_PCOD8257664
_publ_section_title
;
Structure prediction by ZEFSAII (Michael W. Deem and Ramdas Pophale) SiO2 
 PCOD8257664
Probable space group: C M C M
;
_chemical_formula_sum "Si O2"
_cell_formula_units_Z 112
_cell_length_a 15.455118
_cell_length_b 28.339792
_cell_length_c 13.275058
_cell_angle_alpha 90.000000
_cell_angle_beta 90.000000
_cell_angle_gamma 90.000000
_cell_volume 5814.406765
_symmetry_space_group_name_H-M "C M C M"
_symmetry_group_IT_number 63
_symmetry_cell_setting 'orthorhombic'
loop_
_space_group_symop_operation_xyz
x,y,z
-x,-y,1/2+z
x,-y,-z
-x,y,1/2-z
-x,-y,-z
x,y,1/2-z
-x,y,z
x,-y,1/2+z
1/2+x,1/2+y,z
1/2-x,1/2-y,1/2+z
1/2+x,1/2-y,-z
1/2-x,1/2+y,1/2-z
1/2-x,1/2-y,-z
1/2+x,1/2+y,1/2-z
1/2-x,1/2+y,z
1/2+x,1/2-y,1/2+z
loop_
_atom_site_type_symbol
_atom_site_label
_atom_site_fract_x
_atom_site_fract_y
_atom_site_fract_z
Si Si1 0.600582 0.553912 0.980735
Si Si2 0.816790 0.189842 0.507386
Si Si3 0.599831 0.873854 0.640783
Si Si4 0.753430 0.896520 0.133207
Si Si5 0.672474 0.224830 0.131243
Si Si6 0.401232 0.375171 0.641120
Si Si7 0.897917 0.554606 0.973122
O O1 0.500000 0.565069 0.954009
O O2 0.661620 0.572203 0.890815
O O3 0.617619 0.500000 0.000000
O O4 0.630666 0.577340 0.086225
O O5 0.757561 0.151857 0.567867
O O6 0.763841 0.217713 0.422300
O O7 0.864035 0.226244 0.584146
O O8 0.890368 0.165959 0.440448
O O9 0.645633 0.880261 0.750000
O O10 0.500000 0.883556 0.652648
O O11 0.613259 0.820176 0.603162
O O12 0.635817 0.913501 0.566233
O O13 0.755118 0.882474 0.250000
O O14 0.665140 0.927119 0.115471
O O15 0.682939 0.231451 0.250000
O O16 0.352400 0.368261 0.750000
O O17 0.500000 0.379445 0.667662
O O18 0.000000 0.562982 0.946257
O O19 0.881723 0.500000 0.000000
#
# Coordination Sequence:
#
# PCOD8257664 Si02
#       7
#    16  16  16  16  16  16  16
#     4   9  19  36  56  80 112 146 186 233 280 325
#     4  10  20  34  52  78 108 142 176 223 271 331
#     4   9  18  34  56  81 106 135 180 235 284 333
#     4  11  22  36  54  81 115 151 189 226 274 338
#     4  10  19  33  55  79 102 137 178 222 277 331
#     4   9  18  33  53  76 104 140 180 221 267 323
#     4  10  21  38  58  81 112 148 189 238 286 334
#
# _framework density 19.262498000000001
#
# number of rings (size 3 to 8) (size 9 to 14) (size 15 to 20)
#    0.000    2.286    1.429    1.286    0.000    2.286 
#    0.000    2.857    0.000    2.571    0.000    0.000 
#    0.000    0.000    0.000    0.000    0.000    0.000 
#
# Total GULP energy -693739.437469 kJ/mol
# GULP energy per Si atom -12388.204241 kJ/mol
# Density = 1.921866 g / cm^3
# Si number density = 19.262498 Si / 1000 Ang^3
#
#
#
# Elastic Constant Matrix: (Units=GPa)
#
#
# Indices 1 2 3 4 5 6 
#
# 1 46.0604 16.4098 25.7808 0.0000 0.0000 0.0000
# 2 16.4098 135.0331 61.3961 0.0000 0.0000 0.0000
# 3 25.7808 61.3961 129.5463 0.0000 0.0000 0.0000
# 4 0.0000 0.0000 0.0000 24.8785 0.0000 0.0000
# 5 0.0000 0.0000 0.0000 0.0000 19.8042 0.0000
# 6 0.0000 0.0000 0.0000 0.0000 0.0000 27.2504
#
#
#
# Elastic Compliance Matrix: (Units=1/GPa)
#
#
# Indices 1 2 3 4 5 6 
#
# 1 0.024531 -0.000971 -0.004422 0.000000 0.000000 0.000000
# 2 -0.000971 0.009478 -0.004299 0.000000 0.000000 0.000000
# 3 -0.004422 -0.004299 0.010637 0.000000 0.000000 0.000000
# 4 0.000000 0.000000 0.000000 0.040195 0.000000 0.000000
# 5 0.000000 0.000000 0.000000 0.000000 0.050494 0.000000
# 6 0.000000 0.000000 0.000000 0.000000 0.000000 0.036697
#
#
# Mechanical properties :
#
#
# Convention : Reuss Voigt Hill
#
# Bulk Modulus (GPa) = 39.58297 57.53479 48.55888
# Shear Modulus (GPa) = 25.02046 28.19016 26.60531
#
# Velocity S-wave (km/s) = 3.60796 3.82969 3.72048
# Velocity P-wave (km/s) = 6.16039 7.03484 6.61209
#
# Compressibility (1/GPa) = 0.02526339
#
# Stress axis : x y z
#
# Youngs Moduli (GPa) = 40.76396 105.50630 94.01491
#
# Poissons Ratio (x) = 0.10240 0.41573
# Poissons Ratio (y) = 0.03957 0.40415
# Poissons Ratio (z) = 0.18026 0.45355
#
# Static dielectric constant tensor:
#      x y z
#    x 3.338490 0.000000 0.000000 
#    y 0.000000 3.790590 0.000000 
#    z 0.000000 0.000000 3.932370 
# 
# 
# High freq. dielectric constant tensor:
#      x y z
#    x 1.732620 0.000000 0.000000 
#    y 0.000000 1.757560 0.000000 
#    z 0.000000 0.000000 1.750910 
# 
# From -- ./inp_files/20068.got.cif
#   From: 2010.03.12/outbox.cif.g09.slc.cpg/sg63_11_cif.got.tgz:20068.got - 2010.04.10 19:34:48.
