data_PCOD8257636
_publ_section_title
;
Structure prediction by ZEFSAII (Michael W. Deem and Ramdas Pophale) SiO2 
 PCOD8257636
Probable space group: C M C M
;
_chemical_formula_sum "Si O2"
_cell_formula_units_Z 120
_cell_length_a 22.765262
_cell_length_b 11.836629
_cell_length_c 23.644719
_cell_angle_alpha 90.000000
_cell_angle_beta 90.000000
_cell_angle_gamma 90.000000
_cell_volume 6371.399624
_symmetry_space_group_name_H-M "C M C M"
_symmetry_group_IT_number 63
_symmetry_cell_setting 'orthorhombic'
loop_
_space_group_symop_operation_xyz
x,y,z
-x,-y,1/2+z
x,-y,-z
-x,y,1/2-z
-x,-y,-z
x,y,1/2-z
-x,y,z
x,-y,1/2+z
1/2+x,1/2+y,z
1/2-x,1/2-y,1/2+z
1/2+x,1/2-y,-z
1/2-x,1/2+y,1/2-z
1/2-x,1/2-y,-z
1/2+x,1/2+y,1/2-z
1/2-x,1/2+y,z
1/2+x,1/2-y,1/2+z
loop_
_atom_site_type_symbol
_atom_site_label
_atom_site_fract_x
_atom_site_fract_y
_atom_site_fract_z
Si Si1 0.139887 0.138064 0.813361
Si Si2 0.647998 0.000000 0.000000
Si Si3 0.358538 0.899715 0.687142
Si Si4 0.230231 0.591348 0.686845
Si Si5 0.563901 0.900969 0.912240
Si Si6 0.824962 0.127499 0.991003
Si Si7 0.786786 0.313192 0.429393
Si Si8 0.935215 0.139584 0.583836
O O1 0.113837 0.122938 0.750000
O O2 0.155437 0.269199 0.825632
O O3 0.200450 0.070001 0.820251
O O4 0.093939 0.088017 0.859005
O O5 0.686992 0.923940 0.040828
O O6 0.606371 0.082594 0.035062
O O7 0.384151 0.915708 0.750000
O O8 0.407133 0.950703 0.644719
O O9 0.298265 0.968244 0.679119
O O10 0.216578 0.641142 0.750000
O O11 0.206063 0.676786 0.638443
O O12 0.500000 0.959193 0.921451
O O13 0.554587 0.769546 0.903898
O O14 0.782793 0.189830 0.945244
O O15 0.892267 0.122592 0.969669
O O16 0.819503 0.199165 0.049422
O O17 0.802827 0.000000 0.000000
O O18 0.000000 0.084107 0.572689
#
# Coordination Sequence:
#
# PCOD8257636 Si02
#       8
#    16   8  16  16  16  16  16  16
#     4   9  18  32  51  77 107 138 175 220 275 329
#     4  12  19  34  54  82 109 138 172 228 272 328
#     4   9  18  31  50  76 107 140 174 216 269 327
#     4  10  19  33  54  79 110 141 176 223 272 328
#     4  10  20  32  51  75 106 141 176 220 269 325
#     4  11  23  37  55  82 110 147 183 225 280 336
#     4  11  22  35  57  85 111 142 182 228 278 338
#     4  10  20  35  52  74 106 141 184 227 266 323
#
# _framework density 18.834164999999999
#
# number of rings (size 3 to 8) (size 9 to 14) (size 15 to 20)
#    0.000    1.867    4.667    0.200    0.000    1.867 
#    0.000    2.667    0.000    0.000    0.000    0.000 
#    0.000    0.000    0.000    0.000    0.000    0.000 
#
# Total GULP energy -743705.602907 kJ/mol
# GULP energy per Si atom -12395.093382 kJ/mol
# Density = 1.879130 g / cm^3
# Si number density = 18.834165 Si / 1000 Ang^3
#
#
#
# Elastic Constant Matrix: (Units=GPa)
#
#
# Indices 1 2 3 4 5 6 
#
# 1 117.5759 12.8406 45.2085 0.0000 0.0000 0.0000
# 2 12.8406 39.4540 15.0161 0.0000 0.0000 0.0000
# 3 45.2085 15.0161 109.0778 0.0000 0.0000 0.0000
# 4 0.0000 0.0000 0.0000 15.9419 0.0000 0.0000
# 5 0.0000 0.0000 0.0000 0.0000 16.0018 0.0000
# 6 0.0000 0.0000 0.0000 0.0000 0.0000 19.5386
#
#
#
# Elastic Compliance Matrix: (Units=1/GPa)
#
#
# Indices 1 2 3 4 5 6 
#
# 1 0.010239 -0.001812 -0.003994 0.000000 0.000000 0.000000
# 2 -0.001812 0.027068 -0.002975 0.000000 0.000000 0.000000
# 3 -0.003994 -0.002975 0.011233 0.000000 0.000000 0.000000
# 4 0.000000 0.000000 0.000000 0.062728 0.000000 0.000000
# 5 0.000000 0.000000 0.000000 0.000000 0.062493 0.000000
# 6 0.000000 0.000000 0.000000 0.000000 0.000000 0.051181
#
#
# Mechanical properties :
#
#
# Convention : Reuss Voigt Hill
#
# Bulk Modulus (GPa) = 32.28236 45.80422 39.04329
# Shear Modulus (GPa) = 19.77616 23.16597 21.47107
#
# Velocity S-wave (km/s) = 3.24391 3.51094 3.38006
# Velocity P-wave (km/s) = 5.58642 6.38812 6.00068
#
# Compressibility (1/GPa) = 0.03097667
#
# Stress axis : x y z
#
# Youngs Moduli (GPa) = 97.66762 36.94386 89.02536
#
# Poissons Ratio (x) = 0.06695 0.35558
# Poissons Ratio (y) = 0.17699 0.26487
# Poissons Ratio (z) = 0.39010 0.10992
#
# Static dielectric constant tensor:
#      x y z
#    x 3.710210 0.000000 0.000000 
#    y 0.000000 3.129640 0.000000 
#    z 0.000000 0.000000 3.654560 
# 
# 
# High freq. dielectric constant tensor:
#      x y z
#    x 1.726040 0.000000 0.000000 
#    y 0.000000 1.691770 0.000000 
#    z 0.000000 0.000000 1.740780 
# 
# From -- ./inp_files/64733.got.cif
#   From: 2010.03.12/outbox.cif.g09.slc.cpg/sg63_33_cif.got.tgz:64733.got - 2010.04.10 19:34:48.
