data_PCOD8257753
_publ_section_title
;
Structure prediction by ZEFSAII (Michael W. Deem and Ramdas Pophale) SiO2 
 PCOD8257753
Probable space group: C M C M
;
_chemical_formula_sum "Si O2"
_cell_formula_units_Z 96
_cell_length_a 18.313774
_cell_length_b 12.149904
_cell_length_c 23.160797
_cell_angle_alpha 90.000000
_cell_angle_beta 90.000000
_cell_angle_gamma 90.000000
_cell_volume 5153.522744
_symmetry_space_group_name_H-M "C M C M"
_symmetry_group_IT_number 63
_symmetry_cell_setting 'orthorhombic'
loop_
_space_group_symop_operation_xyz
x,y,z
-x,-y,1/2+z
x,-y,-z
-x,y,1/2-z
-x,-y,-z
x,y,1/2-z
-x,y,z
x,-y,1/2+z
1/2+x,1/2+y,z
1/2-x,1/2-y,1/2+z
1/2+x,1/2-y,-z
1/2-x,1/2+y,1/2-z
1/2-x,1/2-y,-z
1/2+x,1/2+y,1/2-z
1/2-x,1/2+y,z
1/2+x,1/2-y,1/2+z
loop_
_atom_site_type_symbol
_atom_site_label
_atom_site_fract_x
_atom_site_fract_y
_atom_site_fract_z
Si Si1 0.799043 0.997623 0.684271
Si Si2 0.676425 0.285851 0.112357
Si Si3 0.334374 0.300180 0.607292
Si Si4 0.636242 0.909094 0.685763
Si Si5 0.418615 0.135811 0.684043
Si Si6 0.415155 0.629415 0.505199
O O1 0.829472 0.996949 0.750000
O O2 0.843562 0.910451 0.645414
O O3 0.715701 0.962864 0.683247
O O4 0.807356 0.118835 0.658267
O O5 0.751109 0.228593 0.090308
O O6 0.627208 0.192955 0.142881
O O7 0.630399 0.330724 0.059593
O O8 0.363045 0.198102 0.643543
O O9 0.382991 0.310764 0.550560
O O10 0.619507 0.865244 0.750000
O O11 0.580724 0.006118 0.668048
O O12 0.391764 0.150638 0.750000
O O13 0.500000 0.182684 0.675666
O O14 0.404253 0.500000 0.500000
O O15 0.500000 0.661210 0.512192
#
# Coordination Sequence:
#
# PCOD8257753 Si02
#       6
#    16  16  16  16  16  16
#     4  10  19  33  58  90 120 145 187 242 288 340
#     4  11  21  37  61  88 114 152 195 243 289 340
#     4  11  21  38  61  88 113 151 199 243 287 339
#     4   9  19  34  55  86 120 153 184 227 291 349
#     4  10  20  35  57  86 122 157 188 230 288 351
#     4  11  24  42  60  79 113 156 197 244 296 342
#
# _framework density 18.628035000000001
#
# number of rings (size 3 to 8) (size 9 to 14) (size 15 to 20)
#    0.000    1.667    3.333    2.000    0.000    2.000 
#    0.000    0.833    0.000    4.500    0.000    0.000 
#    0.000    0.000    0.000    0.000    0.000    0.000 
#
# Total GULP energy -595227.999219 kJ/mol
# GULP energy per Si atom -12400.583317 kJ/mol
# Density = 1.858564 g / cm^3
# Si number density = 18.628035 Si / 1000 Ang^3
#
#
#
# Elastic Constant Matrix: (Units=GPa)
#
#
# Indices 1 2 3 4 5 6 
#
# 1 63.5862 23.9158 30.1384 0.0000 0.0000 0.0000
# 2 23.9158 85.6229 40.8529 0.0000 0.0000 0.0000
# 3 30.1384 40.8529 90.0611 0.0000 0.0000 0.0000
# 4 0.0000 0.0000 0.0000 31.7953 0.0000 0.0000
# 5 0.0000 0.0000 0.0000 0.0000 16.9224 0.0000
# 6 0.0000 0.0000 0.0000 0.0000 0.0000 20.9618
#
#
#
# Elastic Compliance Matrix: (Units=1/GPa)
#
#
# Indices 1 2 3 4 5 6 
#
# 1 0.019254 -0.002940 -0.005110 0.000000 0.000000 0.000000
# 2 -0.002940 0.015354 -0.005981 0.000000 0.000000 0.000000
# 3 -0.005110 -0.005981 0.015527 0.000000 0.000000 0.000000
# 4 0.000000 0.000000 0.000000 0.031451 0.000000 0.000000
# 5 0.000000 0.000000 0.000000 0.000000 0.059093 0.000000
# 6 0.000000 0.000000 0.000000 0.000000 0.000000 0.047706
#
#
# Mechanical properties :
#
#
# Convention : Reuss Voigt Hill
#
# Bulk Modulus (GPa) = 45.30311 47.67602 46.48957
# Shear Modulus (GPa) = 22.34095 23.56011 22.95053
#
# Velocity S-wave (km/s) = 3.46688 3.56021 3.51385
# Velocity P-wave (km/s) = 6.35596 6.52299 6.44002
#
# Compressibility (1/GPa) = 0.02207354
#
# Stress axis : x y z
#
# Youngs Moduli (GPa) = 51.93630 65.12978 64.40595
#
# Poissons Ratio (x) = 0.19149 0.32910
# Poissons Ratio (y) = 0.15270 0.38520
# Poissons Ratio (z) = 0.26538 0.38953
#
# Static dielectric constant tensor:
#      x y z
#    x 3.357750 0.000000 0.000000 
#    y 0.000000 3.534130 0.000000 
#    z 0.000000 0.000000 3.460400 
# 
# 
# High freq. dielectric constant tensor:
#      x y z
#    x 1.713320 0.000000 0.000000 
#    y 0.000000 1.731330 0.000000 
#    z 0.000000 0.000000 1.722390 
# 
# From -- ./inp_files/56526.got.cif
#   From: 2010.03.12/outbox.cif.g09.slc.cpg/sg63_29_cif.got.tgz:56526.got - 2010.04.10 19:34:48.
