data_PCOD8257944
_publ_section_title
;
Structure prediction by ZEFSAII (Michael W. Deem and Ramdas Pophale) SiO2 
 PCOD8257944
Probable space group: C M C M
;
_chemical_formula_sum "Si O2"
_cell_formula_units_Z 80
_cell_length_a 22.899891
_cell_length_b 25.457412
_cell_length_c 7.776358
_cell_angle_alpha 90.000000
_cell_angle_beta 90.000000
_cell_angle_gamma 90.000000
_cell_volume 4533.398664
_symmetry_space_group_name_H-M "C M C M"
_symmetry_group_IT_number 63
_symmetry_cell_setting 'orthorhombic'
loop_
_space_group_symop_operation_xyz
x,y,z
-x,-y,1/2+z
x,-y,-z
-x,y,1/2-z
-x,-y,-z
x,y,1/2-z
-x,y,z
x,-y,1/2+z
1/2+x,1/2+y,z
1/2-x,1/2-y,1/2+z
1/2+x,1/2-y,-z
1/2-x,1/2+y,1/2-z
1/2-x,1/2-y,-z
1/2+x,1/2+y,1/2-z
1/2-x,1/2+y,z
1/2+x,1/2-y,1/2+z
loop_
_atom_site_type_symbol
_atom_site_label
_atom_site_fract_x
_atom_site_fract_y
_atom_site_fract_z
Si Si1 0.745257 0.170016 0.455244
Si Si2 0.653368 0.747125 0.445666
Si Si3 0.064148 0.883491 0.250000
Si Si4 0.108714 0.945061 0.939123
Si Si5 0.934121 0.760556 0.250000
Si Si6 0.745591 0.445086 0.564160
O O1 0.737052 0.172065 0.250000
O O2 0.694534 0.201857 0.548627
O O3 0.808398 0.195900 0.499913
O O4 0.742033 0.110302 0.533248
O O5 0.629507 0.741085 0.250000
O O6 0.600016 0.756369 0.577018
O O7 0.096563 0.900047 0.423764
O O8 0.060002 0.822125 0.250000
O O9 0.000000 0.909083 0.250000
O O10 0.083856 0.929461 0.750000
O O11 0.177093 0.953555 0.925071
O O12 0.079916 0.000000 0.000000
O O13 0.000000 0.735947 0.250000
O O14 0.774249 0.500000 0.500000
O O15 0.773413 0.436722 0.750000
#
# Coordination Sequence:
#
# PCOD8257944 Si02
#       6
#    16  16   8  16   8  16
#     4   9  17  32  52  79 110 137 171 218 263 310
#     4  10  20  35  56  80 103 137 179 218 264 311
#     4  11  24  36  50  69  86 124 172 216 268 300
#     4  10  19  35  50  68  94 127 171 211 253 305
#     4  11  24  40  54  73 106 138 173 220 266 316
#     4   9  18  29  46  71 104 138 163 196 248 311
#
# _framework density 17.646805000000001
#
# number of rings (size 3 to 8) (size 9 to 14) (size 15 to 20)
#    0.000    2.200    2.000    1.200    2.800    4.400 
#    0.000    2.000    0.000    0.000    0.000    0.000 
#    0.000    0.800    0.400    0.000    0.000    0.000 
#
# Total GULP energy -495537.902273 kJ/mol
# GULP energy per Si atom -12388.447557 kJ/mol
# Density = 1.760664 g / cm^3
# Si number density = 17.646805 Si / 1000 Ang^3
#
#
#
# Elastic Constant Matrix: (Units=GPa)
#
#
# Indices 1 2 3 4 5 6 
#
# 1 63.9702 17.5540 38.1000 0.0000 0.0000 0.0000
# 2 17.5540 115.3848 20.4075 0.0000 0.0000 0.0000
# 3 38.1000 20.4075 111.3524 0.0000 0.0000 0.0000
# 4 0.0000 0.0000 0.0000 17.5613 0.0000 0.0000
# 5 0.0000 0.0000 0.0000 0.0000 13.2075 0.0000
# 6 0.0000 0.0000 0.0000 0.0000 0.0000 14.0179
#
#
#
# Elastic Compliance Matrix: (Units=1/GPa)
#
#
# Indices 1 2 3 4 5 6 
#
# 1 0.020027 -0.001896 -0.006505 0.000000 0.000000 0.000000
# 2 -0.001896 0.009137 -0.001026 0.000000 0.000000 0.000000
# 3 -0.006505 -0.001026 0.011394 0.000000 0.000000 0.000000
# 4 0.000000 0.000000 0.000000 0.056943 0.000000 0.000000
# 5 0.000000 0.000000 0.000000 0.000000 0.075715 0.000000
# 6 0.000000 0.000000 0.000000 0.000000 0.000000 0.071337
#
#
# Mechanical properties :
#
#
# Convention : Reuss Voigt Hill
#
# Bulk Modulus (GPa) = 46.07425 49.20335 47.63880
# Shear Modulus (GPa) = 18.47467 23.26707 20.87087
#
# Velocity S-wave (km/s) = 3.23911 3.63504 3.44277
# Velocity P-wave (km/s) = 6.33679 6.74987 6.54659
#
# Compressibility (1/GPa) = 0.02170409
#
# Stress axis : x y z
#
# Youngs Moduli (GPa) = 49.93305 109.45065 87.76461
#
# Poissons Ratio (x) = 0.20755 0.57089
# Poissons Ratio (y) = 0.09469 0.09001
# Poissons Ratio (z) = 0.32480 0.11225
#
# Static dielectric constant tensor:
#      x y z
#    x 3.015420 0.000000 0.000000 
#    y 0.000000 3.424230 0.000000 
#    z 0.000000 0.000000 3.556520 
# 
# 
# High freq. dielectric constant tensor:
#      x y z
#    x 1.623810 0.000000 0.000000 
#    y 0.000000 1.680880 0.000000 
#    z 0.000000 0.000000 1.692140 
# 
# From -- ./inp_files/10380.got.cif
#   From: 2010.03.12/outbox.cif.g09.slc.cpg/sg63_6_cif.got.tgz:10380.got - 2010.04.10 19:34:48.
