data_PCOD8257441
_publ_section_title
;
Structure prediction by ZEFSAII (Michael W. Deem and Ramdas Pophale) SiO2 
 PCOD8257441
Probable space group: C M C M
;
_chemical_formula_sum "Si O2"
_cell_formula_units_Z 88
_cell_length_a 13.990224
_cell_length_b 12.941753
_cell_length_c 24.244174
_cell_angle_alpha 90.000000
_cell_angle_beta 90.000000
_cell_angle_gamma 90.000000
_cell_volume 4389.602224
_symmetry_space_group_name_H-M "C M C M"
_symmetry_group_IT_number 63
_symmetry_cell_setting 'orthorhombic'
loop_
_space_group_symop_operation_xyz
x,y,z
-x,-y,1/2+z
x,-y,-z
-x,y,1/2-z
-x,-y,-z
x,y,1/2-z
-x,y,z
x,-y,1/2+z
1/2+x,1/2+y,z
1/2-x,1/2-y,1/2+z
1/2+x,1/2-y,-z
1/2-x,1/2+y,1/2-z
1/2-x,1/2-y,-z
1/2+x,1/2+y,1/2-z
1/2-x,1/2+y,z
1/2+x,1/2-y,1/2+z
loop_
_atom_site_type_symbol
_atom_site_label
_atom_site_fract_x
_atom_site_fract_y
_atom_site_fract_z
Si Si1 0.889491 0.111781 0.579203
Si Si2 0.107417 0.341672 0.541505
Si Si3 0.602716 0.880904 0.188266
Si Si4 0.300306 0.314905 0.312710
Si Si5 0.893957 0.388907 0.834749
Si Si6 0.754255 0.000000 0.500000
O O1 0.869672 0.220100 0.547913
O O2 0.869073 0.124526 0.644807
O O3 0.822889 0.022624 0.552604
O O4 0.000000 0.078812 0.572928
O O5 0.113637 0.398414 0.599835
O O6 0.187284 0.398481 0.504880
O O7 0.000000 0.355754 0.516611
O O8 0.590624 0.839697 0.250000
O O9 0.500000 0.863127 0.157013
O O10 0.692558 0.822011 0.161777
O O11 0.630110 0.001129 0.190728
O O12 0.307297 0.361213 0.250000
O O13 0.321858 0.193883 0.309686
O O14 0.000000 0.352252 0.817713
#
# Coordination Sequence:
#
# PCOD8257441 Si02
#       6
#    16  16  16  16  16   8
#     4  10  22  37  52  76 108 139 174 216 261 312
#     4   9  19  34  53  79 105 129 168 217 255 298
#     4   9  17  29  47  73 102 131 166 207 253 308
#     4  10  19  32  54  79 102 134 176 219 261 305
#     4   9  17  31  51  75 103 133 166 207 255 303
#     4  12  20  34  58  78 104 144 174 206 262 318
#
# _framework density 20.047374999999999
#
# number of rings (size 3 to 8) (size 9 to 14) (size 15 to 20)
#    0.000    2.364    0.000    4.364    0.000    2.182 
#    0.000    0.909    0.000   15.273    0.000   10.182 
#    0.000    0.000    0.000    0.000    0.000    0.000 
#
# Total GULP energy -545221.708170 kJ/mol
# GULP energy per Si atom -12391.402458 kJ/mol
# Density = 2.000175 g / cm^3
# Si number density = 20.047375 Si / 1000 Ang^3
#
#
#
# Elastic Constant Matrix: (Units=GPa)
#
#
# Indices 1 2 3 4 5 6 
#
# 1 158.2227 60.5243 30.4986 0.0000 0.0000 0.0000
# 2 60.5243 49.9070 11.9152 0.0000 0.0000 0.0000
# 3 30.4986 11.9152 56.7749 0.0000 0.0000 0.0000
# 4 0.0000 0.0000 0.0000 22.1921 0.0000 0.0000
# 5 0.0000 0.0000 0.0000 0.0000 17.8285 0.0000
# 6 0.0000 0.0000 0.0000 0.0000 0.0000 35.5788
#
#
#
# Elastic Compliance Matrix: (Units=1/GPa)
#
#
# Indices 1 2 3 4 5 6 
#
# 1 0.012493 -0.014263 -0.003718 0.000000 0.000000 0.000000
# 2 -0.014263 0.037378 -0.000183 0.000000 0.000000 0.000000
# 3 -0.003718 -0.000183 0.019649 0.000000 0.000000 0.000000
# 4 0.000000 0.000000 0.000000 0.045061 0.000000 0.000000
# 5 0.000000 0.000000 0.000000 0.000000 0.056090 0.000000
# 6 0.000000 0.000000 0.000000 0.000000 0.000000 0.028107
#
#
# Mechanical properties :
#
#
# Convention : Reuss Voigt Hill
#
# Bulk Modulus (GPa) = 30.12645 52.30897 41.21771
# Shear Modulus (GPa) = 20.31134 25.91766 23.11450
#
# Velocity S-wave (km/s) = 3.18648 3.59948 3.39926
# Velocity P-wave (km/s) = 5.34775 6.58972 6.00095
#
# Compressibility (1/GPa) = 0.03319342
#
# Stress axis : x y z
#
# Youngs Moduli (GPa) = 80.04658 26.75363 50.89372
#
# Poissons Ratio (x) = 0.38158 0.18920
# Poissons Ratio (y) = 1.14170 0.00929
# Poissons Ratio (z) = 0.29758 0.00489
#
# Static dielectric constant tensor:
#      x y z
#    x 4.042830 0.000000 0.000000 
#    y 0.000000 3.320850 0.000000 
#    z 0.000000 0.000000 3.238490 
# 
# 
# High freq. dielectric constant tensor:
#      x y z
#    x 1.797430 0.000000 0.000000 
#    y 0.000000 1.752650 0.000000 
#    z 0.000000 0.000000 1.764110 
# 
# From -- ./inp_files/61239.got.cif
#   From: 2010.03.12/outbox.cif.g09.slc.cpg/sg63_31_cif.got.tgz:61239.got - 2010.04.10 19:34:48.
