data_PCOD8257808
_publ_section_title
;
Structure prediction by ZEFSAII (Michael W. Deem and Ramdas Pophale) SiO2 
 PCOD8257808
Probable space group: C M C M
;
_chemical_formula_sum "Si O2"
_cell_formula_units_Z 104
_cell_length_a 22.786552
_cell_length_b 9.787986
_cell_length_c 27.101388
_cell_angle_alpha 90.000000
_cell_angle_beta 90.000000
_cell_angle_gamma 90.000000
_cell_volume 6044.543220
_symmetry_space_group_name_H-M "C M C M"
_symmetry_group_IT_number 63
_symmetry_cell_setting 'orthorhombic'
loop_
_space_group_symop_operation_xyz
x,y,z
-x,-y,1/2+z
x,-y,-z
-x,y,1/2-z
-x,-y,-z
x,y,1/2-z
-x,y,z
x,-y,1/2+z
1/2+x,1/2+y,z
1/2-x,1/2-y,1/2+z
1/2+x,1/2-y,-z
1/2-x,1/2+y,1/2-z
1/2-x,1/2-y,-z
1/2+x,1/2+y,1/2-z
1/2-x,1/2+y,z
1/2+x,1/2-y,1/2+z
loop_
_atom_site_type_symbol
_atom_site_label
_atom_site_fract_x
_atom_site_fract_y
_atom_site_fract_z
Si Si1 0.325441 0.168068 0.693070
Si Si2 0.881935 0.422352 0.855731
Si Si3 0.500000 0.817978 0.692548
Si Si4 0.564957 0.895952 0.541813
Si Si5 0.888410 0.946599 0.806091
Si Si6 0.306831 0.297969 0.306992
Si Si7 0.500000 0.531510 0.855092
Si Si8 0.000000 0.135607 0.966508
O O1 0.333303 0.122953 0.750000
O O2 0.345231 0.322144 0.684099
O O3 0.257841 0.155992 0.676551
O O4 0.365996 0.076627 0.658133
O O5 0.888516 0.406527 0.914342
O O6 0.827531 0.330178 0.838836
O O7 0.942277 0.384297 0.829719
O O8 0.500000 0.846804 0.750000
O O9 0.500000 0.657105 0.682862
O O10 0.500000 0.946327 0.559610
O O11 0.557131 0.735364 0.524368
O O12 0.587974 0.000000 0.500000
O O13 0.912060 0.944904 0.750000
O O14 0.851909 0.081673 0.817091
O O15 0.942810 0.940026 0.843943
O O16 0.305891 0.252513 0.250000
O O17 0.500000 0.585549 0.910423
O O18 0.000000 0.000000 0.000000
#
# Coordination Sequence:
#
# PCOD8257808 Si02
#       8
#    16  16   8  16  16  16   8   8
#     4  10  22  35  49  79 114 151 193 224 263 325
#     4  12  20  35  58  82 111 147 193 235 276 343
#     4  12  20  30  53  84 113 144 178 223 281 342
#     4   9  19  38  56  80 112 141 177 236 297 344
#     4  10  20  33  49  72 110 145 175 218 272 323
#     4  10  19  34  55  76 108 153 193 228 262 320
#     4  12  20  34  51  79 109 139 173 218 274 343
#     4  10  19  34  55  77 103 135 180 225 267 341
#
# _framework density 17.205601000000001
#
# number of rings (size 3 to 8) (size 9 to 14) (size 15 to 20)
#    0.462    1.077    3.846    3.000    0.000    4.308 
#    0.000    0.769    0.000    0.923    0.000    2.154 
#    0.000    0.000    0.000    0.000    0.000    0.000 
#
# Total GULP energy -644705.104306 kJ/mol
# GULP energy per Si atom -12398.175083 kJ/mol
# Density = 1.716644 g / cm^3
# Si number density = 17.205601 Si / 1000 Ang^3
#
#
#
# Elastic Constant Matrix: (Units=GPa)
#
#
# Indices 1 2 3 4 5 6 
#
# 1 78.3662 13.6125 28.9892 0.0000 0.0000 0.0000
# 2 13.6125 70.1288 43.1119 0.0000 0.0000 0.0000
# 3 28.9892 43.1119 82.1891 0.0000 0.0000 0.0000
# 4 0.0000 0.0000 0.0000 25.2210 0.0000 0.0000
# 5 0.0000 0.0000 0.0000 0.0000 11.9527 0.0000
# 6 0.0000 0.0000 0.0000 0.0000 0.0000 16.3517
#
#
#
# Elastic Compliance Matrix: (Units=1/GPa)
#
#
# Indices 1 2 3 4 5 6 
#
# 1 0.014687 0.000493 -0.005439 0.000000 0.000000 0.000000
# 2 0.000493 0.021063 -0.011222 0.000000 0.000000 0.000000
# 3 -0.005439 -0.011222 0.019972 0.000000 0.000000 0.000000
# 4 0.000000 0.000000 0.000000 0.039649 0.000000 0.000000
# 5 0.000000 0.000000 0.000000 0.000000 0.083663 0.000000
# 6 0.000000 0.000000 0.000000 0.000000 0.000000 0.061156
#
#
# Mechanical properties :
#
#
# Convention : Reuss Voigt Hill
#
# Bulk Modulus (GPa) = 42.76221 44.67904 43.72062
# Shear Modulus (GPa) = 17.83670 20.36979 19.10325
#
# Velocity S-wave (km/s) = 3.22324 3.44452 3.33572
# Velocity P-wave (km/s) = 6.22575 6.46868 6.34838
#
# Compressibility (1/GPa) = 0.02338514
#
# Stress axis : x y z
#
# Youngs Moduli (GPa) = 68.08795 47.47745 50.07061
#
# Poissons Ratio (x) = -0.02339 0.27232
# Poissons Ratio (y) = -0.03354 0.56189
# Poissons Ratio (z) = 0.37031 0.53279
#
# Static dielectric constant tensor:
#      x y z
#    x 3.268060 0.000000 0.000000 
#    y 0.000000 3.270170 0.000000 
#    z 0.000000 0.000000 3.073070 
# 
# 
# High freq. dielectric constant tensor:
#      x y z
#    x 1.656700 0.000000 0.000000 
#    y 0.000000 1.671100 0.000000 
#    z 0.000000 0.000000 1.636740 
# 
# From -- ./inp_files/74308.got.cif
#   From: 2010.03.12/outbox.cif.g09.slc.cpg/sg63_38_cif.got.tgz:74308.got - 2010.04.10 19:34:48.
