data_PCOD8257576
_publ_section_title
;
Structure prediction by ZEFSAII (Michael W. Deem and Ramdas Pophale) SiO2 
 PCOD8257576
Probable space group: C M C M
;
_chemical_formula_sum "Si O2"
_cell_formula_units_Z 80
_cell_length_a 8.830227
_cell_length_b 19.895596
_cell_length_c 25.308486
_cell_angle_alpha 90.000000
_cell_angle_beta 90.000000
_cell_angle_gamma 90.000000
_cell_volume 4446.261356
_symmetry_space_group_name_H-M "C M C M"
_symmetry_group_IT_number 63
_symmetry_cell_setting 'orthorhombic'
loop_
_space_group_symop_operation_xyz
x,y,z
-x,-y,1/2+z
x,-y,-z
-x,y,1/2-z
-x,-y,-z
x,y,1/2-z
-x,y,z
x,-y,1/2+z
1/2+x,1/2+y,z
1/2-x,1/2-y,1/2+z
1/2+x,1/2-y,-z
1/2-x,1/2+y,1/2-z
1/2-x,1/2-y,-z
1/2+x,1/2+y,1/2-z
1/2-x,1/2+y,z
1/2+x,1/2-y,1/2+z
loop_
_atom_site_type_symbol
_atom_site_label
_atom_site_fract_x
_atom_site_fract_y
_atom_site_fract_z
Si Si1 0.824996 0.176186 0.939437
Si Si2 0.167668 0.578269 0.250000
Si Si3 0.674656 0.313935 0.939026
Si Si4 0.180662 0.428394 0.137039
Si Si5 0.165197 0.580980 0.750000
Si Si6 0.322168 0.428775 0.642983
O O1 0.776067 0.250682 0.922065
O O2 0.726576 0.121769 0.908778
O O3 0.000000 0.165600 0.925508
O O4 0.790782 0.164604 0.001034
O O5 0.151486 0.498914 0.250000
O O6 0.257591 0.600999 0.302263
O O7 0.000000 0.611251 0.250000
O O8 0.500000 0.292962 0.932378
O O9 0.718925 0.376069 0.902488
O O10 0.245405 0.400173 0.194134
O O11 0.248053 0.501405 0.125098
O O12 0.000000 0.435204 0.140481
O O13 0.000000 0.615136 0.750000
O O14 0.500000 0.439798 0.649272
#
# Coordination Sequence:
#
# PCOD8257576 Si02
#       6
#    16   8  16  16   8  16
#     4  10  20  35  54  75 101 134 172 213 258 309
#     4   9  17  31  50  75 106 135 165 205 255 303
#     4   9  20  37  54  73 101 136 171 211 259 307
#     4  10  19  33  53  77 105 135 170 212 257 302
#     4   7  14  29  48  69  96 131 163 197 243 293
#     4  10  19  33  54  78 103 134 173 211 250 300
#
# _framework density 17.992645
#
# number of rings (size 3 to 8) (size 9 to 14) (size 15 to 20)
#    0.000    2.600    0.000    3.300    0.000    3.200 
#    0.000    6.500    0.000    2.400    0.000    0.000 
#    0.000    0.000    0.000    0.000    0.000    0.000 
#
# Total GULP energy -495844.712248 kJ/mol
# GULP energy per Si atom -12396.117806 kJ/mol
# Density = 1.795169 g / cm^3
# Si number density = 17.992645 Si / 1000 Ang^3
#
#
#
# Elastic Constant Matrix: (Units=GPa)
#
#
# Indices 1 2 3 4 5 6 
#
# 1 85.7245 46.9880 50.7815 0.0000 0.0000 0.0000
# 2 46.9880 89.7471 73.5077 0.0000 0.0000 0.0000
# 3 50.7815 73.5077 119.3378 0.0000 0.0000 0.0000
# 4 0.0000 0.0000 0.0000 -4.4405 0.0000 0.0000
# 5 0.0000 0.0000 0.0000 0.0000 30.0523 0.0000
# 6 0.0000 0.0000 0.0000 0.0000 0.0000 29.4731
#
#
#
# Elastic Compliance Matrix: (Units=1/GPa)
#
#
# Indices 1 2 3 4 5 6 
#
# 1 0.017075 -0.006031 -0.003551 0.000000 0.000000 0.000000
# 2 -0.006031 0.024618 -0.012597 0.000000 0.000000 0.000000
# 3 -0.003551 -0.012597 0.017650 0.000000 0.000000 0.000000
# 4 0.000000 0.000000 0.000000 -0.225199 0.000000 0.000000
# 5 0.000000 0.000000 0.000000 0.000000 0.033275 0.000000
# 6 0.000000 0.000000 0.000000 0.000000 0.000000 0.033929
#
#
# Mechanical properties :
#
#
# Convention : Reuss Voigt Hill
#
# Bulk Modulus (GPa) = 66.73799 70.81820 68.77810
# Shear Modulus (GPa) = -101.42364 19.25245 -41.08560
#
# Velocity S-wave (km/s) = -7.51611 3.27466 -4.78375
# Velocity P-wave (km/s) = 6.17658 7.33095 2.79219
#
# Compressibility (1/GPa) = 0.01498397
#
# Stress axis : x y z
#
# Youngs Moduli (GPa) = 58.56665 40.62052 56.65756
#
# Poissons Ratio (x) = 0.24500 0.20116
# Poissons Ratio (y) = 0.35324 0.71373
# Poissons Ratio (z) = 0.20794 0.51171
#
# Static dielectric constant tensor:
#      x y z
#    x 3.367870 0.000000 0.000000 
#    y 0.000000 3.047870 0.000000 
#    z 0.000000 0.000000 3.670630 
# 
# 
# High freq. dielectric constant tensor:
#      x y z
#    x 1.699340 0.000000 0.000000 
#    y 0.000000 1.670610 0.000000 
#    z 0.000000 0.000000 1.709620 
# 
# From -- ./inp_files/59517.got.cif
#   From: 2010.03.12/outbox.cif.g09.slc.cpg/sg63_30_cif.got.tgz:59517.got - 2010.04.10 19:34:48.
