data_PCOD8257730
_publ_section_title
;
Structure prediction by ZEFSAII (Michael W. Deem and Ramdas Pophale) SiO2 
 PCOD8257730
Probable space group: C M C M
;
_chemical_formula_sum "Si O2"
_cell_formula_units_Z 96
_cell_length_a 22.244224
_cell_length_b 24.329075
_cell_length_c 9.075035
_cell_angle_alpha 90.000000
_cell_angle_beta 90.000000
_cell_angle_gamma 90.000000
_cell_volume 4911.240092
_symmetry_space_group_name_H-M "C M C M"
_symmetry_group_IT_number 63
_symmetry_cell_setting 'orthorhombic'
loop_
_space_group_symop_operation_xyz
x,y,z
-x,-y,1/2+z
x,-y,-z
-x,y,1/2-z
-x,-y,-z
x,y,1/2-z
-x,y,z
x,-y,1/2+z
1/2+x,1/2+y,z
1/2-x,1/2-y,1/2+z
1/2+x,1/2-y,-z
1/2-x,1/2+y,1/2-z
1/2-x,1/2-y,-z
1/2+x,1/2+y,1/2-z
1/2-x,1/2+y,z
1/2+x,1/2-y,1/2+z
loop_
_atom_site_type_symbol
_atom_site_label
_atom_site_fract_x
_atom_site_fract_y
_atom_site_fract_z
Si Si1 0.226455 0.300323 0.085969
Si Si2 0.149164 0.448383 0.581847
Si Si3 0.269346 0.583027 0.917508
Si Si4 0.000000 0.253968 0.920807
Si Si5 0.500000 0.635710 0.428664
Si Si6 0.595055 0.443406 0.426882
Si Si7 0.388183 0.830441 0.582912
O O1 0.220494 0.279803 0.250000
O O2 0.271970 0.351057 0.069294
O O3 0.250000 0.250000 0.000000
O O4 0.160911 0.314793 0.033554
O O5 0.118592 0.500000 0.500000
O O6 0.157917 0.464265 0.750000
O O7 0.216738 0.439712 0.520389
O O8 0.104047 0.396457 0.563819
O O9 0.255121 0.565269 0.750000
O O10 0.334623 0.561939 0.967406
O O11 0.054778 0.294250 0.957754
O O12 0.000000 0.235380 0.750000
O O13 0.000000 0.199826 0.022355
O O14 0.500000 0.632245 0.250000
O O15 0.558903 0.606521 0.497203
O O16 0.571474 0.500000 0.500000
O O17 0.584191 0.443094 0.250000
O O18 0.366987 0.818071 0.750000
#
# Coordination Sequence:
#
# PCOD8257730 Si02
#       7
#    16  16  16   8   8  16  16
#     4  10  20  34  54  83 117 152 189 234 284 341
#     4  10  19  33  56  86 119 152 188 230 283 342
#     4   9  20  36  56  83 115 151 190 229 280 339
#     4  10  22  43  66  83 111 152 198 244 289 344
#     4  12  27  43  60  85 112 146 192 240 291 346
#     4  11  23  41  62  85 114 151 191 237 286 339
#     4   9  20  38  59  83 111 151 194 237 288 340
#
# _framework density 19.546997999999999
#
# number of rings (size 3 to 8) (size 9 to 14) (size 15 to 20)
#    0.000    2.000    0.000    3.000    2.333    4.667 
#    0.000    0.417    0.000    0.000    0.000    0.000 
#    0.000    0.000    0.000    0.000    0.000    0.000 
#
# Total GULP energy -594967.041775 kJ/mol
# GULP energy per Si atom -12395.146704 kJ/mol
# Density = 1.950251 g / cm^3
# Si number density = 19.546998 Si / 1000 Ang^3
#
#
#
# Elastic Constant Matrix: (Units=GPa)
#
#
# Indices 1 2 3 4 5 6 
#
# 1 63.0775 46.1123 32.8092 0.0000 0.0000 0.0000
# 2 46.1123 144.8178 77.4449 0.0000 0.0000 0.0000
# 3 32.8092 77.4449 130.2045 0.0000 0.0000 0.0000
# 4 0.0000 0.0000 0.0000 40.0251 0.0000 0.0000
# 5 0.0000 0.0000 0.0000 0.0000 12.4377 0.0000
# 6 0.0000 0.0000 0.0000 0.0000 0.0000 15.1839
#
#
#
# Elastic Compliance Matrix: (Units=1/GPa)
#
#
# Indices 1 2 3 4 5 6 
#
# 1 0.020988 -0.005653 -0.001926 0.000000 0.000000 0.000000
# 2 -0.005653 0.011649 -0.005504 0.000000 0.000000 0.000000
# 3 -0.001926 -0.005504 0.011439 0.000000 0.000000 0.000000
# 4 0.000000 0.000000 0.000000 0.024984 0.000000 0.000000
# 5 0.000000 0.000000 0.000000 0.000000 0.080401 0.000000
# 6 0.000000 0.000000 0.000000 0.000000 0.000000 0.065859
#
#
# Mechanical properties :
#
#
# Convention : Reuss Voigt Hill
#
# Bulk Modulus (GPa) = 55.83628 72.31475 64.07551
# Shear Modulus (GPa) = 20.20558 25.64491 22.92525
#
# Velocity S-wave (km/s) = 3.21860 3.62603 3.42837
# Velocity P-wave (km/s) = 6.51457 7.38962 6.96585
#
# Compressibility (1/GPa) = 0.01790950
#
# Stress axis : x y z
#
# Youngs Moduli (GPa) = 47.64657 85.84706 87.41660
#
# Poissons Ratio (x) = 0.48527 0.16840
# Poissons Ratio (y) = 0.26933 0.48115
# Poissons Ratio (z) = 0.09179 0.47252
#
# Static dielectric constant tensor:
#      x y z
#    x 3.270650 0.000000 0.000000 
#    y 0.000000 3.785960 0.000000 
#    z 0.000000 0.000000 3.694610 
# 
# 
# High freq. dielectric constant tensor:
#      x y z
#    x 1.742280 0.000000 0.000000 
#    y 0.000000 1.779390 0.000000 
#    z 0.000000 0.000000 1.770610 
# 
# From -- ./inp_files/10521.got.cif
#   From: 2010.03.12/outbox.cif.g09.slc.cpg/sg63_6_cif.got.tgz:10521.got - 2010.04.10 19:34:48.
