data_PCOD8257072
_publ_section_title
;
Structure prediction by ZEFSAII (Michael W. Deem and Ramdas Pophale) SiO2 
 PCOD8257072
Probable space group: C M C M
;
_chemical_formula_sum "Si O2"
_cell_formula_units_Z 80
_cell_length_a 9.203089
_cell_length_b 26.677228
_cell_length_c 18.431956
_cell_angle_alpha 90.000000
_cell_angle_beta 90.000000
_cell_angle_gamma 90.000000
_cell_volume 4525.283036
_symmetry_space_group_name_H-M "C M C M"
_symmetry_group_IT_number 63
_symmetry_cell_setting 'orthorhombic'
loop_
_space_group_symop_operation_xyz
x,y,z
-x,-y,1/2+z
x,-y,-z
-x,y,1/2-z
-x,-y,-z
x,y,1/2-z
-x,y,z
x,-y,1/2+z
1/2+x,1/2+y,z
1/2-x,1/2-y,1/2+z
1/2+x,1/2-y,-z
1/2-x,1/2+y,1/2-z
1/2-x,1/2-y,-z
1/2+x,1/2+y,1/2-z
1/2-x,1/2+y,z
1/2+x,1/2-y,1/2+z
loop_
_atom_site_type_symbol
_atom_site_label
_atom_site_fract_x
_atom_site_fract_y
_atom_site_fract_z
Si Si1 0.169524 0.321226 0.042614
Si Si2 0.666614 0.522976 0.113341
Si Si3 0.672432 0.062456 0.250000
Si Si4 0.166441 0.921549 0.467320
Si Si5 0.830079 0.731456 0.393254
Si Si6 0.172492 0.324307 0.750000
O O1 0.230192 0.376455 0.055895
O O2 0.245612 0.283563 0.098719
O O3 0.000000 0.320979 0.059353
O O4 0.204359 0.305022 0.960385
O O5 0.500000 0.532171 0.136280
O O6 0.772256 0.533872 0.179425
O O7 0.689226 0.465480 0.090731
O O8 0.709686 0.559095 0.047006
O O9 0.500000 0.061421 0.250000
O O10 0.733624 0.119212 0.250000
O O11 0.000000 0.903209 0.467121
O O12 0.770650 0.704275 0.321298
O O13 0.000000 0.743732 0.387928
O O14 0.000000 0.326113 0.750000
#
# Coordination Sequence:
#
# PCOD8257072 Si02
#       6
#    16  16   8  16  16   8
#     4  10  19  31  50  76 103 129 162 207 253 296
#     4   9  19  35  53  75 102 133 171 208 243 295
#     4  11  21  33  52  79 108 133 160 203 256 301
#     4   9  18  34  55  75  98 132 172 210 247 292
#     4   9  18  33  51  71  98 132 168 202 241 296
#     4   9  18  33  52  73  98 129 164 201 244 295
#
# _framework density 17.678452
#
# number of rings (size 3 to 8) (size 9 to 14) (size 15 to 20)
#    0.000    2.600    0.000    3.300    0.000    4.000 
#    0.000    5.500    0.000    2.400    0.000    0.000 
#    0.000    0.000    0.000    0.000    0.000    0.000 
#
# Total GULP energy -496103.628161 kJ/mol
# GULP energy per Si atom -12402.590704 kJ/mol
# Density = 1.763821 g / cm^3
# Si number density = 17.678452 Si / 1000 Ang^3
#
#
#
# Elastic Constant Matrix: (Units=GPa)
#
#
# Indices 1 2 3 4 5 6 
#
# 1 70.4126 53.4369 42.9488 0.0000 0.0000 0.0000
# 2 53.4369 118.9889 47.7701 0.0000 0.0000 0.0000
# 3 42.9488 47.7701 109.5563 0.0000 0.0000 0.0000
# 4 0.0000 0.0000 0.0000 20.2178 0.0000 0.0000
# 5 0.0000 0.0000 0.0000 0.0000 22.2200 0.0000
# 6 0.0000 0.0000 0.0000 0.0000 0.0000 30.6644
#
#
#
# Elastic Compliance Matrix: (Units=1/GPa)
#
#
# Indices 1 2 3 4 5 6 
#
# 1 0.024212 -0.008561 -0.005759 0.000000 0.000000 0.000000
# 2 -0.008561 0.013215 -0.002406 0.000000 0.000000 0.000000
# 3 -0.005759 -0.002406 0.012434 0.000000 0.000000 0.000000
# 4 0.000000 0.000000 0.000000 0.049461 0.000000 0.000000
# 5 0.000000 0.000000 0.000000 0.000000 0.045004 0.000000
# 6 0.000000 0.000000 0.000000 0.000000 0.000000 0.032611
#
#
# Mechanical properties :
#
#
# Convention : Reuss Voigt Hill
#
# Bulk Modulus (GPa) = 60.94109 65.25217 63.09663
# Shear Modulus (GPa) = 23.16321 24.94057 24.05189
#
# Velocity S-wave (km/s) = 3.62367 3.76012 3.69252
# Velocity P-wave (km/s) = 7.21490 7.47275 7.34496
#
# Compressibility (1/GPa) = 0.01640929
#
# Stress axis : x y z
#
# Youngs Moduli (GPa) = 41.30203 75.67235 80.42306
#
# Poissons Ratio (x) = 0.64787 0.46312
# Poissons Ratio (y) = 0.35361 0.19348
# Poissons Ratio (z) = 0.23784 0.18205
#
# Static dielectric constant tensor:
#      x y z
#    x 3.129150 0.000000 0.000000 
#    y 0.000000 3.272880 0.000000 
#    z 0.000000 0.000000 3.215060 
# 
# 
# High freq. dielectric constant tensor:
#      x y z
#    x 1.675750 0.000000 0.000000 
#    y 0.000000 1.689050 0.000000 
#    z 0.000000 0.000000 1.674200 
# 
# From -- ./inp_files/40582.got.cif
#   From: 2010.03.12/outbox.cif.g09.slc.cpg/sg63_21_cif.got.tgz:40582.got - 2010.04.10 19:34:48.
