data_PCOD8257113
_publ_section_title
;
Structure prediction by ZEFSAII (Michael W. Deem and Ramdas Pophale) SiO2 
 PCOD8257113
Probable space group: C M C M
;
_chemical_formula_sum "Si O2"
_cell_formula_units_Z 80
_cell_length_a 8.827360
_cell_length_b 27.482335
_cell_length_c 18.163160
_cell_angle_alpha 90.000000
_cell_angle_beta 90.000000
_cell_angle_gamma 90.000000
_cell_volume 4406.318404
_symmetry_space_group_name_H-M "C M C M"
_symmetry_group_IT_number 63
_symmetry_cell_setting 'orthorhombic'
loop_
_space_group_symop_operation_xyz
x,y,z
-x,-y,1/2+z
x,-y,-z
-x,y,1/2-z
-x,-y,-z
x,y,1/2-z
-x,y,z
x,-y,1/2+z
1/2+x,1/2+y,z
1/2-x,1/2-y,1/2+z
1/2+x,1/2-y,-z
1/2-x,1/2+y,1/2-z
1/2-x,1/2-y,-z
1/2+x,1/2+y,1/2-z
1/2-x,1/2+y,z
1/2+x,1/2-y,1/2+z
loop_
_atom_site_type_symbol
_atom_site_label
_atom_site_fract_x
_atom_site_fract_y
_atom_site_fract_z
Si Si1 0.673665 0.963506 0.834165
Si Si2 0.821463 0.152921 0.670207
Si Si3 0.825290 0.605750 0.462889
Si Si4 0.320275 0.699473 0.977144
Si Si5 0.822741 0.945014 0.405561
O O1 0.721274 0.953113 0.750000
O O2 0.500000 0.981123 0.839518
O O3 0.696570 0.913743 0.879840
O O4 0.779380 0.004581 0.868494
O O5 0.749294 0.166356 0.750000
O O6 0.761976 0.188550 0.606031
O O7 0.777827 0.097587 0.651157
O O8 0.000000 0.158085 0.674940
O O9 0.733894 0.656109 0.469628
O O10 0.764535 0.564005 0.517968
O O11 0.000000 0.616112 0.480938
O O12 0.500000 0.702282 0.981626
O O13 0.250000 0.750000 0.000000
O O14 0.000000 0.944558 0.423880
#
# Coordination Sequence:
#
# PCOD8257113 Si02
#       5
#    16  16  16  16  16
#     4  10  21  35  50  72 104 141 179 215 251 294
#     4   8  15  29  49  74 100 125 159 203 248 295
#     4  10  20  35  54  74 100 135 173 214 257 303
#     4  10  20  35  56  78 100 129 166 210 259 311
#     4  10  19  31  51  78 106 136 170 209 256 310
#
# _framework density 18.155746000000001
#
# number of rings (size 3 to 8) (size 9 to 14) (size 15 to 20)
#    0.000    2.400    0.000    4.200    0.000    5.200 
#    0.000    1.000    0.000   18.000    0.000    0.000 
#    0.000    0.000    0.000    0.000    0.000    0.000 
#
# Total GULP energy -495929.567211 kJ/mol
# GULP energy per Si atom -12398.239180 kJ/mol
# Density = 1.811442 g / cm^3
# Si number density = 18.155746 Si / 1000 Ang^3
#
#
#
# Elastic Constant Matrix: (Units=GPa)
#
#
# Indices 1 2 3 4 5 6 
#
# 1 74.0542 41.6402 35.3746 0.0000 0.0000 0.0000
# 2 41.6402 114.3595 68.9050 0.0000 0.0000 0.0000
# 3 35.3746 68.9050 119.6316 0.0000 0.0000 0.0000
# 4 0.0000 0.0000 0.0000 19.0631 0.0000 0.0000
# 5 0.0000 0.0000 0.0000 0.0000 21.7142 0.0000
# 6 0.0000 0.0000 0.0000 0.0000 0.0000 33.0323
#
#
#
# Elastic Compliance Matrix: (Units=1/GPa)
#
#
# Indices 1 2 3 4 5 6 
#
# 1 0.017380 -0.004949 -0.002288 0.000000 0.000000 0.000000
# 2 -0.004949 0.014801 -0.007062 0.000000 0.000000 0.000000
# 3 -0.002288 -0.007062 0.013103 0.000000 0.000000 0.000000
# 4 0.000000 0.000000 0.000000 0.052457 0.000000 0.000000
# 5 0.000000 0.000000 0.000000 0.000000 0.046053 0.000000
# 6 0.000000 0.000000 0.000000 0.000000 0.000000 0.030273
#
#
# Mechanical properties :
#
#
# Convention : Reuss Voigt Hill
#
# Bulk Modulus (GPa) = 59.93354 66.65389 63.29371
# Shear Modulus (GPa) = 24.01204 25.57027 24.79116
#
# Velocity S-wave (km/s) = 3.64065 3.75692 3.69924
# Velocity P-wave (km/s) = 7.12424 7.45729 7.29267
#
# Compressibility (1/GPa) = 0.01668515
#
# Stress axis : x y z
#
# Youngs Moduli (GPa) = 57.53804 67.56084 76.31802
#
# Poissons Ratio (x) = 0.33439 0.17464
# Poissons Ratio (y) = 0.28478 0.53894
# Poissons Ratio (z) = 0.13167 0.47710
#
# Static dielectric constant tensor:
#      x y z
#    x 3.284190 0.000000 0.000000 
#    y 0.000000 3.204760 0.000000 
#    z 0.000000 0.000000 3.705090 
# 
# 
# High freq. dielectric constant tensor:
#      x y z
#    x 1.697130 0.000000 0.000000 
#    y 0.000000 1.688300 0.000000 
#    z 0.000000 0.000000 1.708590 
# 
# From -- ./inp_files/40465.got.cif
#   From: 2010.03.12/outbox.cif.g09.slc.cpg/sg63_21_cif.got.tgz:40465.got - 2010.04.10 19:34:48.
