data_PCOD8257978
_publ_section_title
;
Structure prediction by ZEFSAII (Michael W. Deem and Ramdas Pophale) SiO2 
 PCOD8257978
Probable space group: C M C M
;
_chemical_formula_sum "Si O2"
_cell_formula_units_Z 96
_cell_length_a 16.900971
_cell_length_b 17.794538
_cell_length_c 17.568857
_cell_angle_alpha 90.000000
_cell_angle_beta 90.000000
_cell_angle_gamma 90.000000
_cell_volume 5283.745384
_symmetry_space_group_name_H-M "C M C M"
_symmetry_group_IT_number 63
_symmetry_cell_setting 'orthorhombic'
loop_
_space_group_symop_operation_xyz
x,y,z
-x,-y,1/2+z
x,-y,-z
-x,y,1/2-z
-x,-y,-z
x,y,1/2-z
-x,y,z
x,-y,1/2+z
1/2+x,1/2+y,z
1/2-x,1/2-y,1/2+z
1/2+x,1/2-y,-z
1/2-x,1/2+y,1/2-z
1/2-x,1/2-y,-z
1/2+x,1/2+y,1/2-z
1/2-x,1/2+y,z
1/2+x,1/2-y,1/2+z
loop_
_atom_site_type_symbol
_atom_site_label
_atom_site_fract_x
_atom_site_fract_y
_atom_site_fract_z
Si Si1 0.186693 0.836751 0.573812
Si Si2 0.090864 0.283200 0.520006
Si Si3 0.909760 0.042969 0.339036
Si Si4 0.789959 0.085801 0.835483
Si Si5 0.179851 0.741425 0.336118
Si Si6 0.815498 0.581127 0.525593
O O1 0.146063 0.781774 0.513593
O O2 0.120218 0.883809 0.616920
O O3 0.235155 0.787821 0.634970
O O4 0.243727 0.892342 0.527995
O O5 0.110174 0.290421 0.609996
O O6 0.111013 0.361831 0.479159
O O7 0.000000 0.263535 0.506429
O O8 0.902392 0.059804 0.250000
O O9 0.000000 0.027157 0.362891
O O10 0.859419 0.970027 0.362846
O O11 0.762689 0.065750 0.750000
O O12 0.824301 0.169052 0.839618
O O13 0.713151 0.075952 0.887556
O O14 0.165837 0.712571 0.250000
O O15 0.846326 0.500000 0.500000
#
# Coordination Sequence:
#
# PCOD8257978 Si02
#       6
#    16  16  16  16  16  16
#     4  11  19  36  58  80 110 142 183 226 271 328
#     4  11  23  37  55  83 116 144 182 233 279 328
#     4  10  21  34  51  82 116 143 174 218 281 340
#     4  10  19  35  56  80 110 145 182 225 268 326
#     4  10  20  36  59  81 107 145 187 228 272 326
#     4  11  20  38  59  79 105 146 191 229 266 326
#
# _framework density 18.16893
#
# number of rings (size 3 to 8) (size 9 to 14) (size 15 to 20)
#    0.000    1.500    5.000    2.000    0.000    1.333 
#    0.000    2.500    0.000    1.500    0.000    0.000 
#    0.000    0.000    0.000    0.000    0.000    0.000 
#
# Total GULP energy -595346.761531 kJ/mol
# GULP energy per Si atom -12403.057532 kJ/mol
# Density = 1.812758 g / cm^3
# Si number density = 18.168930 Si / 1000 Ang^3
#
#
#
# Elastic Constant Matrix: (Units=GPa)
#
#
# Indices 1 2 3 4 5 6 
#
# 1 66.2536 24.9389 31.8918 0.0000 0.0000 0.0000
# 2 24.9389 92.1241 32.7172 0.0000 0.0000 0.0000
# 3 31.8918 32.7172 86.0222 0.0000 0.0000 0.0000
# 4 0.0000 0.0000 0.0000 23.9661 0.0000 0.0000
# 5 0.0000 0.0000 0.0000 0.0000 20.8228 0.0000
# 6 0.0000 0.0000 0.0000 0.0000 0.0000 24.9120
#
#
#
# Elastic Compliance Matrix: (Units=1/GPa)
#
#
# Indices 1 2 3 4 5 6 
#
# 1 0.019095 -0.003070 -0.005912 0.000000 0.000000 0.000000
# 2 -0.003070 0.013044 -0.003823 0.000000 0.000000 0.000000
# 3 -0.005912 -0.003823 0.015271 0.000000 0.000000 0.000000
# 4 0.000000 0.000000 0.000000 0.041726 0.000000 0.000000
# 5 0.000000 0.000000 0.000000 0.000000 0.048024 0.000000
# 6 0.000000 0.000000 0.000000 0.000000 0.000000 0.040141
#
#
# Mechanical properties :
#
#
# Convention : Reuss Voigt Hill
#
# Bulk Modulus (GPa) = 45.87065 47.05508 46.46286
# Shear Modulus (GPa) = 23.78969 24.26363 24.02666
#
# Velocity S-wave (km/s) = 3.62243 3.65834 3.64043
# Velocity P-wave (km/s) = 6.54199 6.61812 6.58016
#
# Compressibility (1/GPa) = 0.02180043
#
# Stress axis : x y z
#
# Youngs Moduli (GPa) = 52.37083 76.66610 65.48548
#
# Poissons Ratio (x) = 0.23534 0.38713
# Poissons Ratio (y) = 0.16076 0.25034
# Poissons Ratio (z) = 0.30960 0.29309
#
# Static dielectric constant tensor:
#      x y z
#    x 3.125070 0.000000 0.000000 
#    y 0.000000 3.409060 0.000000 
#    z 0.000000 0.000000 3.570590 
# 
# 
# High freq. dielectric constant tensor:
#      x y z
#    x 1.678010 0.000000 0.000000 
#    y 0.000000 1.712290 0.000000 
#    z 0.000000 0.000000 1.713450 
# 
# From -- ./inp_files/45711.got.cif
#   From: 2010.03.12/outbox.cif.g09.slc.cpg/sg63_23_cif.got.tgz:45711.got - 2010.04.10 19:34:48.
