data_PCOD8257764
_publ_section_title
;
Structure prediction by ZEFSAII (Michael W. Deem and Ramdas Pophale) SiO2 
 PCOD8257764
Probable space group: C M C M
;
_chemical_formula_sum "Si O2"
_cell_formula_units_Z 112
_cell_length_a 18.250972
_cell_length_b 17.955646
_cell_length_c 19.369096
_cell_angle_alpha 90.000000
_cell_angle_beta 90.000000
_cell_angle_gamma 90.000000
_cell_volume 6347.407565
_symmetry_space_group_name_H-M "C M C M"
_symmetry_group_IT_number 63
_symmetry_cell_setting 'orthorhombic'
loop_
_space_group_symop_operation_xyz
x,y,z
-x,-y,1/2+z
x,-y,-z
-x,y,1/2-z
-x,-y,-z
x,y,1/2-z
-x,y,z
x,-y,1/2+z
1/2+x,1/2+y,z
1/2-x,1/2-y,1/2+z
1/2+x,1/2-y,-z
1/2-x,1/2+y,1/2-z
1/2-x,1/2-y,-z
1/2+x,1/2+y,1/2-z
1/2-x,1/2+y,z
1/2+x,1/2-y,1/2+z
loop_
_atom_site_type_symbol
_atom_site_label
_atom_site_fract_x
_atom_site_fract_y
_atom_site_fract_z
Si Si1 0.192200 0.242139 0.172987
Si Si2 0.183865 0.004173 0.169141
Si Si3 0.195710 0.388642 0.828089
Si Si4 0.668856 0.335700 0.329322
Si Si5 0.083462 0.771927 0.550842
Si Si6 0.085882 0.708966 0.406066
Si Si7 0.084639 0.940297 0.944964
O O1 0.158114 0.247139 0.250000
O O2 0.235132 0.165400 0.163767
O O3 0.248646 0.308644 0.160062
O O4 0.129266 0.251461 0.117136
O O5 0.167111 0.014686 0.250000
O O6 0.268643 0.030438 0.154303
O O7 0.127064 0.054564 0.127228
O O8 0.169703 0.920171 0.144066
O O9 0.164487 0.385767 0.750000
O O10 0.130077 0.363561 0.878678
O O11 0.645063 0.330693 0.250000
O O12 0.610517 0.285202 0.369421
O O13 0.103191 0.717831 0.487170
O O14 0.097181 0.856979 0.526411
O O15 0.000000 0.761316 0.573210
O O16 0.000000 0.696426 0.392233
O O17 0.000000 0.957384 0.929842
O O18 0.115891 0.000000 0.000000
#
# Coordination Sequence:
#
# PCOD8257764 Si02
#       7
#    16  16  16  16  16  16  16
#     4   9  17  33  51  71  98 126 166 217 255 292
#     4  10  19  34  51  73 104 135 170 209 251 306
#     4   9  18  32  52  75 100 131 169 214 254 297
#     4   9  19  32  51  75 100 132 166 205 255 305
#     4  10  20  32  49  72  98 133 169 205 249 298
#     4  10  20  34  51  74 105 136 170 211 256 306
#     4  10  20  33  47  70 107 140 167 203 247 299
#
# _framework density 17.644998999999999
#
# number of rings (size 3 to 8) (size 9 to 14) (size 15 to 20)
#    0.000    2.429    1.429    2.143    0.000    5.714 
#    2.571    2.857    0.000    0.857    0.000    6.000 
#    0.000    0.000    0.000    0.000    0.000    0.000 
#
# Total GULP energy -694191.733234 kJ/mol
# GULP energy per Si atom -12396.280951 kJ/mol
# Density = 1.760484 g / cm^3
# Si number density = 17.644999 Si / 1000 Ang^3
#
#
#
# Elastic Constant Matrix: (Units=GPa)
#
#
# Indices 1 2 3 4 5 6 
#
# 1 78.0509 15.8063 55.6114 0.0000 0.0000 0.0000
# 2 15.8063 26.5686 10.4920 0.0000 0.0000 0.0000
# 3 55.6114 10.4920 90.3691 0.0000 0.0000 0.0000
# 4 0.0000 0.0000 0.0000 19.9125 0.0000 0.0000
# 5 0.0000 0.0000 0.0000 0.0000 34.0152 0.0000
# 6 0.0000 0.0000 0.0000 0.0000 0.0000 23.1028
#
#
#
# Elastic Compliance Matrix: (Units=1/GPa)
#
#
# Indices 1 2 3 4 5 6 
#
# 1 0.024765 -0.009134 -0.014179 0.000000 0.000000 0.000000
# 2 -0.009134 0.042816 0.000650 0.000000 0.000000 0.000000
# 3 -0.014179 0.000650 0.019716 0.000000 0.000000 0.000000
# 4 0.000000 0.000000 0.000000 0.050220 0.000000 0.000000
# 5 0.000000 0.000000 0.000000 0.000000 0.029399 0.000000
# 6 0.000000 0.000000 0.000000 0.000000 0.000000 0.043285
#
#
# Mechanical properties :
#
#
# Convention : Reuss Voigt Hill
#
# Bulk Modulus (GPa) = 23.82667 39.86757 31.84712
# Shear Modulus (GPa) = 18.55181 22.94469 20.74825
#
# Velocity S-wave (km/s) = 3.24604 3.60995 3.43282
# Velocity P-wave (km/s) = 5.25182 6.32605 5.81380
#
# Compressibility (1/GPa) = 0.04196978
#
# Stress axis : x y z
#
# Youngs Moduli (GPa) = 40.38026 23.35597 50.72042
#
# Poissons Ratio (x) = 0.21333 0.71918
# Poissons Ratio (y) = 0.36882 -0.03295
# Poissons Ratio (z) = 0.57256 -0.01517
#
# Static dielectric constant tensor:
#      x y z
#    x 3.102240 0.000000 0.000000 
#    y 0.000000 3.445520 0.000000 
#    z 0.000000 0.000000 3.253520 
# 
# 
# High freq. dielectric constant tensor:
#      x y z
#    x 1.666160 0.000000 0.000000 
#    y 0.000000 1.669450 0.000000 
#    z 0.000000 0.000000 1.684920 
# 
# From -- ./inp_files/46089.got.cif
#   From: 2010.03.12/outbox.cif.g09.slc.cpg/sg63_24_cif.got.tgz:46089.got - 2010.04.10 19:34:48.
