data_PCOD8257009
_publ_section_title
;
Structure prediction by ZEFSAII (Michael W. Deem and Ramdas Pophale) SiO2 
 PCOD8257009
Probable space group: C M C M
;
_chemical_formula_sum "Si O2"
_cell_formula_units_Z 96
_cell_length_a 8.904622
_cell_length_b 32.336711
_cell_length_c 18.498471
_cell_angle_alpha 90.000000
_cell_angle_beta 90.000000
_cell_angle_gamma 90.000000
_cell_volume 5326.564212
_symmetry_space_group_name_H-M "C M C M"
_symmetry_group_IT_number 63
_symmetry_cell_setting 'orthorhombic'
loop_
_space_group_symop_operation_xyz
x,y,z
-x,-y,1/2+z
x,-y,-z
-x,y,1/2-z
-x,-y,-z
x,y,1/2-z
-x,y,z
x,-y,1/2+z
1/2+x,1/2+y,z
1/2-x,1/2-y,1/2+z
1/2+x,1/2-y,-z
1/2-x,1/2+y,1/2-z
1/2-x,1/2-y,-z
1/2+x,1/2+y,1/2-z
1/2-x,1/2+y,z
1/2+x,1/2-y,1/2+z
loop_
_atom_site_type_symbol
_atom_site_label
_atom_site_fract_x
_atom_site_fract_y
_atom_site_fract_z
Si Si1 0.676571 0.622908 0.959456
Si Si2 0.826841 0.761118 0.833100
Si Si3 0.327236 0.166203 0.666528
Si Si4 0.678242 0.044738 0.473932
Si Si5 0.677043 0.085075 0.170697
Si Si6 0.676179 0.833843 0.911399
O O1 0.500000 0.619684 0.968290
O O2 0.719266 0.636456 0.878706
O O3 0.747580 0.578180 0.973880
O O4 0.740523 0.657448 0.013605
O O5 0.786117 0.769637 0.750000
O O6 0.792978 0.713778 0.852850
O O7 0.721867 0.789050 0.882961
O O8 0.000000 0.771978 0.847903
O O9 0.292294 0.157615 0.750000
O O10 0.500000 0.155949 0.648791
O O11 0.500000 0.049631 0.480388
O O12 0.731158 0.052482 0.390632
O O13 0.733520 0.000000 0.500000
O O14 0.749084 0.075445 0.250000
O O15 0.500000 0.082335 0.177670
O O16 0.724097 0.131261 0.146740
O O17 0.500000 0.835086 0.926833
#
# Coordination Sequence:
#
# PCOD8257009 Si02
#       6
#    16  16  16  16  16  16
#     4  11  22  35  53  76 102 132 168 212 261 309
#     4   9  18  32  50  74 104 136 171 214 261 302
#     4   9  19  37  57  74  98 135 176 216 256 300
#     4   9  18  34  55  77 103 134 168 207 254 313
#     4   8  14  26  46  72  99 127 163 206 246 287
#     4  10  19  31  49  73 102 136 174 213 254 306
#
# _framework density 18.022874999999999
#
# number of rings (size 3 to 8) (size 9 to 14) (size 15 to 20)
#    0.000    2.667    0.000    4.500    0.000    3.000 
#    0.000    2.500    0.000    7.500    0.000    0.000 
#    0.000    0.000    0.000    0.000    0.000    0.000 
#
# Total GULP energy -595143.741762 kJ/mol
# GULP energy per Si atom -12398.827953 kJ/mol
# Density = 1.798185 g / cm^3
# Si number density = 18.022875 Si / 1000 Ang^3
#
#
#
# Elastic Constant Matrix: (Units=GPa)
#
#
# Indices 1 2 3 4 5 6 
#
# 1 57.8265 39.7044 33.2874 0.0000 0.0000 0.0000
# 2 39.7044 101.7805 68.3043 0.0000 0.0000 0.0000
# 3 33.2874 68.3043 110.4322 0.0000 0.0000 0.0000
# 4 0.0000 0.0000 0.0000 26.9936 0.0000 0.0000
# 5 0.0000 0.0000 0.0000 0.0000 19.1034 0.0000
# 6 0.0000 0.0000 0.0000 0.0000 0.0000 25.3930
#
#
#
# Elastic Compliance Matrix: (Units=1/GPa)
#
#
# Indices 1 2 3 4 5 6 
#
# 1 0.024007 -0.007708 -0.002469 0.000000 0.000000 0.000000
# 2 -0.007708 0.019272 -0.009597 0.000000 0.000000 0.000000
# 3 -0.002469 -0.009597 0.015735 0.000000 0.000000 0.000000
# 4 0.000000 0.000000 0.000000 0.037046 0.000000 0.000000
# 5 0.000000 0.000000 0.000000 0.000000 0.052347 0.000000
# 6 0.000000 0.000000 0.000000 0.000000 0.000000 0.039381
#
#
# Mechanical properties :
#
#
# Convention : Reuss Voigt Hill
#
# Bulk Modulus (GPa) = 51.36910 61.40349 56.38629
# Shear Modulus (GPa) = 21.38355 22.88087 22.13221
#
# Velocity S-wave (km/s) = 3.44825 3.56693 3.50809
# Velocity P-wave (km/s) = 6.66468 7.14897 6.91107
#
# Compressibility (1/GPa) = 0.01946696
#
# Stress axis : x y z
#
# Youngs Moduli (GPa) = 41.65485 51.88746 63.55162
#
# Poissons Ratio (x) = 0.39997 0.15688
# Poissons Ratio (y) = 0.32109 0.60990
# Poissons Ratio (z) = 0.10283 0.49796
#
# Static dielectric constant tensor:
#      x y z
#    x 3.084160 0.000000 0.000000 
#    y 0.000000 3.237930 0.000000 
#    z 0.000000 0.000000 3.509410 
# 
# 
# High freq. dielectric constant tensor:
#      x y z
#    x 1.678470 0.000000 0.000000 
#    y 0.000000 1.685320 0.000000 
#    z 0.000000 0.000000 1.702390 
# 
# From -- ./inp_files/51398.got.cif
#   From: 2010.03.12/outbox.cif.g09.slc.cpg/sg63_26_cif.got.tgz:51398.got - 2010.04.10 19:34:48.
