data_PCOD8257865
_publ_section_title
;
Structure prediction by ZEFSAII (Michael W. Deem and Ramdas Pophale) SiO2 
 PCOD8257865
Probable space group: C M C M
;
_chemical_formula_sum "Si O2"
_cell_formula_units_Z 96
_cell_length_a 20.044108
_cell_length_b 10.188554
_cell_length_c 24.911512
_cell_angle_alpha 90.000000
_cell_angle_beta 90.000000
_cell_angle_gamma 90.000000
_cell_volume 5087.440857
_symmetry_space_group_name_H-M "C M C M"
_symmetry_group_IT_number 63
_symmetry_cell_setting 'orthorhombic'
loop_
_space_group_symop_operation_xyz
x,y,z
-x,-y,1/2+z
x,-y,-z
-x,y,1/2-z
-x,-y,-z
x,y,1/2-z
-x,y,z
x,-y,1/2+z
1/2+x,1/2+y,z
1/2-x,1/2-y,1/2+z
1/2+x,1/2-y,-z
1/2-x,1/2+y,1/2-z
1/2-x,1/2-y,-z
1/2+x,1/2+y,1/2-z
1/2-x,1/2+y,z
1/2+x,1/2-y,1/2+z
loop_
_atom_site_type_symbol
_atom_site_label
_atom_site_fract_x
_atom_site_fract_y
_atom_site_fract_z
Si Si1 0.782135 0.174297 0.310963
Si Si2 0.105380 0.967349 0.415282
Si Si3 0.255179 0.583013 0.872299
Si Si4 0.425999 0.703742 0.489268
Si Si5 0.927323 0.090211 0.310047
Si Si6 0.300788 0.859435 0.021842
O O1 0.765107 0.139719 0.250000
O O2 0.746933 0.311694 0.324362
O O3 0.862886 0.183439 0.319838
O O4 0.748831 0.062021 0.347731
O O5 0.178975 0.909140 0.408873
O O6 0.065213 0.869453 0.453616
O O7 0.105369 0.110229 0.443407
O O8 0.073439 0.976812 0.355571
O O9 0.197309 0.625698 0.913447
O O10 0.500000 0.750962 0.471973
O O11 0.376325 0.826230 0.495801
O O12 0.920994 0.027679 0.250000
O O13 0.000000 0.163523 0.314289
O O14 0.250000 0.750000 0.000000
O O15 0.278011 0.000000 0.000000
#
# Coordination Sequence:
#
# PCOD8257865 Si02
#       6
#    16  16  16  16  16  16
#     4  10  21  36  56  85 115 147 188 243 297 346
#     4  10  19  34  56  83 117 148 194 234 293 350
#     4  11  21  35  57  82 114 152 192 236 292 346
#     4  11  22  36  58  86 118 156 194 245 295 352
#     4   9  17  31  53  81 111 144 187 239 289 343
#     4  12  23  38  58  84 119 156 197 239 289 355
#
# _framework density 18.869997999999999
#
# number of rings (size 3 to 8) (size 9 to 14) (size 15 to 20)
#    0.000    1.500    1.667    6.500    0.000    1.000 
#    0.000    0.000    0.000    0.000    0.000    0.000 
#    0.000    8.000    0.000    0.000    0.000    0.000 
#
# Total GULP energy -594807.631594 kJ/mol
# GULP energy per Si atom -12391.825658 kJ/mol
# Density = 1.882705 g / cm^3
# Si number density = 18.869998 Si / 1000 Ang^3
#
#
#
# Elastic Constant Matrix: (Units=GPa)
#
#
# Indices 1 2 3 4 5 6 
#
# 1 106.7111 42.0984 29.0821 0.0000 0.0000 0.0000
# 2 42.0984 92.5634 24.2131 0.0000 0.0000 0.0000
# 3 29.0821 24.2131 108.8861 0.0000 0.0000 0.0000
# 4 0.0000 0.0000 0.0000 27.4569 0.0000 0.0000
# 5 0.0000 0.0000 0.0000 0.0000 22.5849 0.0000
# 6 0.0000 0.0000 0.0000 0.0000 0.0000 18.4725
#
#
#
# Elastic Compliance Matrix: (Units=1/GPa)
#
#
# Indices 1 2 3 4 5 6 
#
# 1 0.011851 -0.004844 -0.002088 0.000000 0.000000 0.000000
# 2 -0.004844 0.013450 -0.001697 0.000000 0.000000 0.000000
# 3 -0.002088 -0.001697 0.010119 0.000000 0.000000 0.000000
# 4 0.000000 0.000000 0.000000 0.036421 0.000000 0.000000
# 5 0.000000 0.000000 0.000000 0.000000 0.044277 0.000000
# 6 0.000000 0.000000 0.000000 0.000000 0.000000 0.054134
#
#
# Mechanical properties :
#
#
# Convention : Reuss Voigt Hill
#
# Bulk Modulus (GPa) = 55.05952 55.43864 55.24908
# Shear Modulus (GPa) = 25.83106 27.88732 26.85919
#
# Velocity S-wave (km/s) = 3.70387 3.84847 3.77686
# Velocity P-wave (km/s) = 6.89444 7.01361 6.95428
#
# Compressibility (1/GPa) = 0.01816216
#
# Stress axis : x y z
#
# Youngs Moduli (GPa) = 84.38055 74.34761 98.82342
#
# Poissons Ratio (x) = 0.36012 0.20636
# Poissons Ratio (y) = 0.40871 0.16773
# Poissons Ratio (z) = 0.17620 0.12619
#
# Static dielectric constant tensor:
#      x y z
#    x 3.526170 0.000000 0.000000 
#    y 0.000000 3.097600 0.000000 
#    z 0.000000 0.000000 3.735590 
# 
# 
# High freq. dielectric constant tensor:
#      x y z
#    x 1.731550 0.000000 0.000000 
#    y 0.000000 1.688220 0.000000 
#    z 0.000000 0.000000 1.756800 
# 
# From -- ./inp_files/70286.got.cif
#   From: 2010.03.12/outbox.cif.g09.slc.cpg/sg63_36_cif.got.tgz:70286.got - 2010.04.10 19:34:48.
