data_PCOD8257879
_publ_section_title
;
Structure prediction by ZEFSAII (Michael W. Deem and Ramdas Pophale) SiO2 
 PCOD8257879
Probable space group: C M C M
;
_chemical_formula_sum "Si O2"
_cell_formula_units_Z 80
_cell_length_a 18.759834
_cell_length_b 13.015583
_cell_length_c 17.905528
_cell_angle_alpha 90.000000
_cell_angle_beta 90.000000
_cell_angle_gamma 90.000000
_cell_volume 4371.995932
_symmetry_space_group_name_H-M "C M C M"
_symmetry_group_IT_number 63
_symmetry_cell_setting 'orthorhombic'
loop_
_space_group_symop_operation_xyz
x,y,z
-x,-y,1/2+z
x,-y,-z
-x,y,1/2-z
-x,-y,-z
x,y,1/2-z
-x,y,z
x,-y,1/2+z
1/2+x,1/2+y,z
1/2-x,1/2-y,1/2+z
1/2+x,1/2-y,-z
1/2-x,1/2+y,1/2-z
1/2-x,1/2-y,-z
1/2+x,1/2+y,1/2-z
1/2-x,1/2+y,z
1/2+x,1/2-y,1/2+z
loop_
_atom_site_type_symbol
_atom_site_label
_atom_site_fract_x
_atom_site_fract_y
_atom_site_fract_z
Si Si1 0.144379 0.741657 0.428260
Si Si2 0.716728 0.451784 0.419024
Si Si3 0.500000 0.909430 0.404972
Si Si4 0.648407 0.180891 0.597857
Si Si5 0.500000 0.138248 0.420684
Si Si6 0.766876 0.146594 0.165193
O O1 0.161078 0.858959 0.405984
O O2 0.147164 0.734201 0.517205
O O3 0.067659 0.706921 0.397843
O O4 0.202247 0.666506 0.391805
O O5 0.706162 0.500000 0.500000
O O6 0.797938 0.414996 0.407016
O O7 0.699199 0.536916 0.356502
O O8 0.571502 0.856977 0.373356
O O9 0.500000 0.893034 0.493245
O O10 0.500000 0.028466 0.378797
O O11 0.673899 0.264877 0.657541
O O12 0.739243 0.144558 0.250000
#
# Coordination Sequence:
#
# PCOD8257879 Si02
#       6
#    16  16   8  16   8  16
#     4  10  19  35  57  80 109 143 180 224 270 322
#     4  11  18  32  56  79 110 146 184 219 270 320
#     4   9  18  30  56  84 110 133 178 221 276 321
#     4  10  19  34  57  82 108 143 178 224 270 327
#     4   9  18  32  53  85 109 136 176 227 266 321
#     4  11  22  35  54  81 110 141 184 228 271 323
#
# _framework density 18.298278
#
# number of rings (size 3 to 8) (size 9 to 14) (size 15 to 20)
#    0.000    1.800    4.000    2.400    2.800    3.200 
#    0.000    2.500    0.000    1.200    0.000    0.000 
#    0.000    0.000    0.000    0.000    0.000    0.000 
#
# Total GULP energy -496003.488816 kJ/mol
# GULP energy per Si atom -12400.087220 kJ/mol
# Density = 1.825663 g / cm^3
# Si number density = 18.298278 Si / 1000 Ang^3
#
#
#
# Elastic Constant Matrix: (Units=GPa)
#
#
# Indices 1 2 3 4 5 6 
#
# 1 136.2046 59.3104 7.2548 0.0000 0.0000 0.0000
# 2 59.3104 127.0928 20.4606 0.0000 0.0000 0.0000
# 3 7.2548 20.4606 48.8977 0.0000 0.0000 0.0000
# 4 0.0000 0.0000 0.0000 15.6408 0.0000 0.0000
# 5 0.0000 0.0000 0.0000 0.0000 3.4187 0.0000
# 6 0.0000 0.0000 0.0000 0.0000 0.0000 18.7689
#
#
#
# Elastic Compliance Matrix: (Units=1/GPa)
#
#
# Indices 1 2 3 4 5 6 
#
# 1 0.009224 -0.004379 0.000464 0.000000 0.000000 0.000000
# 2 -0.004379 0.010516 -0.003750 0.000000 0.000000 0.000000
# 3 0.000464 -0.003750 0.021951 0.000000 0.000000 0.000000
# 4 0.000000 0.000000 0.000000 0.063935 0.000000 0.000000
# 5 0.000000 0.000000 0.000000 0.000000 0.292505 0.000000
# 6 0.000000 0.000000 0.000000 0.000000 0.000000 0.053280
#
#
# Mechanical properties :
#
#
# Convention : Reuss Voigt Hill
#
# Bulk Modulus (GPa) = 37.93688 54.02743 45.98216
# Shear Modulus (GPa) = 10.51461 22.57698 16.54579
#
# Velocity S-wave (km/s) = 2.39973 3.51640 3.01030
# Velocity P-wave (km/s) = 5.33439 6.78799 6.10461
#
# Compressibility (1/GPa) = 0.02635957
#
# Stress axis : x y z
#
# Youngs Moduli (GPa) = 108.41089 95.09547 45.55526
#
# Poissons Ratio (x) = 0.41645 -0.02113
# Poissons Ratio (y) = 0.47477 0.17085
# Poissons Ratio (z) = -0.05029 0.35665
#
# Static dielectric constant tensor:
#      x y z
#    x 3.420570 0.000000 0.000000 
#    y 0.000000 3.568900 0.000000 
#    z 0.000000 0.000000 2.978310 
# 
# 
# High freq. dielectric constant tensor:
#      x y z
#    x 1.696770 0.000000 0.000000 
#    y 0.000000 1.724290 0.000000 
#    z 0.000000 0.000000 1.674820 
# 
# From -- ./inp_files/46817.got.cif
#   From: 2010.03.12/outbox.cif.g09.slc.cpg/sg63_24_cif.got.tgz:46817.got - 2010.04.10 19:34:48.
