data_PCOD8257571
_publ_section_title
;
Structure prediction by ZEFSAII (Michael W. Deem and Ramdas Pophale) SiO2 
 PCOD8257571
Probable space group: C M C M
;
_chemical_formula_sum "Si O2"
_cell_formula_units_Z 96
_cell_length_a 21.818940
_cell_length_b 12.837221
_cell_length_c 19.473128
_cell_angle_alpha 90.000000
_cell_angle_beta 90.000000
_cell_angle_gamma 90.000000
_cell_volume 5454.317117
_symmetry_space_group_name_H-M "C M C M"
_symmetry_group_IT_number 63
_symmetry_cell_setting 'orthorhombic'
loop_
_space_group_symop_operation_xyz
x,y,z
-x,-y,1/2+z
x,-y,-z
-x,y,1/2-z
-x,-y,-z
x,y,1/2-z
-x,y,z
x,-y,1/2+z
1/2+x,1/2+y,z
1/2-x,1/2-y,1/2+z
1/2+x,1/2-y,-z
1/2-x,1/2+y,1/2-z
1/2-x,1/2-y,-z
1/2+x,1/2+y,1/2-z
1/2-x,1/2+y,z
1/2+x,1/2-y,1/2+z
loop_
_atom_site_type_symbol
_atom_site_label
_atom_site_fract_x
_atom_site_fract_y
_atom_site_fract_z
Si Si1 0.855742 0.593367 0.326272
Si Si2 0.067680 0.591433 0.456921
Si Si3 0.069514 0.239402 0.430107
Si Si4 0.268373 0.239624 0.397691
Si Si5 0.844097 0.350549 0.171609
Si Si6 0.178373 0.877296 0.508934
O O1 0.882381 0.614367 0.250000
O O2 0.904802 0.619906 0.383908
O O3 0.799131 0.671037 0.338090
O O4 0.836762 0.473861 0.333394
O O5 0.102963 0.500000 0.500000
O O6 0.067242 0.695031 0.500746
O O7 0.000000 0.548736 0.440993
O O8 0.095227 0.308966 0.367299
O O9 0.116156 0.145446 0.447575
O O10 0.000000 0.200573 0.412050
O O11 0.216707 0.308930 0.363391
O O12 0.239092 0.157686 0.450639
O O13 0.317832 0.314458 0.436462
O O14 0.849378 0.312506 0.250000
O O15 0.181277 0.000000 0.500000
#
# Coordination Sequence:
#
# PCOD8257571 Si02
#       6
#    16  16  16  16  16  16
#     4  11  21  33  53  79 107 139 174 215 264 320
#     4  10  19  33  53  76 106 138 170 213 263 311
#     4  10  20  35  54  77 104 136 172 217 266 306
#     4  10  20  35  51  75 110 142 169 216 272 316
#     4  10  21  34  51  78 107 137 175 214 258 317
#     4  10  20  33  55  81 103 136 182 223 260 313
#
# _framework density 17.600736000000001
#
# number of rings (size 3 to 8) (size 9 to 14) (size 15 to 20)
#    0.000    1.833    3.333    1.500    0.000    1.667 
#    0.000    1.667    0.000    1.000    0.000    0.000 
#    0.000    0.000    0.000    0.000    0.000    0.000 
#
# Total GULP energy -594977.722604 kJ/mol
# GULP energy per Si atom -12395.369221 kJ/mol
# Density = 1.756068 g / cm^3
# Si number density = 17.600736 Si / 1000 Ang^3
#
#
#
# Elastic Constant Matrix: (Units=GPa)
#
#
# Indices 1 2 3 4 5 6 
#
# 1 77.4859 21.4279 30.6089 0.0000 0.0000 0.0000
# 2 21.4279 84.7690 24.2335 0.0000 0.0000 0.0000
# 3 30.6089 24.2335 113.4871 0.0000 0.0000 0.0000
# 4 0.0000 0.0000 0.0000 21.1478 0.0000 0.0000
# 5 0.0000 0.0000 0.0000 0.0000 0.0944 0.0000
# 6 0.0000 0.0000 0.0000 0.0000 0.0000 17.8602
#
#
#
# Elastic Compliance Matrix: (Units=1/GPa)
#
#
# Indices 1 2 3 4 5 6 
#
# 1 0.015050 -0.002816 -0.003458 0.000000 0.000000 0.000000
# 2 -0.002816 0.013091 -0.002036 0.000000 0.000000 0.000000
# 3 -0.003458 -0.002036 0.010179 0.000000 0.000000 0.000000
# 4 0.000000 0.000000 0.000000 0.047286 0.000000 0.000000
# 5 0.000000 0.000000 0.000000 0.000000 10.596399 0.000000
# 6 0.000000 0.000000 0.000000 0.000000 0.000000 0.055990
#
#
# Mechanical properties :
#
#
# Convention : Reuss Voigt Hill
#
# Bulk Modulus (GPa) = 46.08191 47.58695 46.83443
# Shear Modulus (GPa) = 0.46460 21.11858 10.79159
#
# Velocity S-wave (km/s) = 0.51434 3.46767 2.47884
# Velocity P-wave (km/s) = 5.15668 6.56724 5.90423
#
# Compressibility (1/GPa) = 0.02170049
#
# Stress axis : x y z
#
# Youngs Moduli (GPa) = 66.44408 76.39095 98.24192
#
# Poissons Ratio (x) = 0.21511 0.33972
# Poissons Ratio (y) = 0.18710 0.20000
# Poissons Ratio (z) = 0.22976 0.15552
#
# Static dielectric constant tensor:
#      x y z
#    x 3.384850 0.000000 0.000000 
#    y 0.000000 3.154960 0.000000 
#    z 0.000000 0.000000 3.458550 
# 
# 
# High freq. dielectric constant tensor:
#      x y z
#    x 1.673820 0.000000 0.000000 
#    y 0.000000 1.670390 0.000000 
#    z 0.000000 0.000000 1.683780 
# 
# From -- ./inp_files/48007.got.cif
#   From: 2010.03.12/outbox.cif.g09.slc.cpg/sg63_25_cif.got.tgz:48007.got - 2010.04.10 19:34:48.
