data_PCOD8257551
_publ_section_title
;
Structure prediction by ZEFSAII (Michael W. Deem and Ramdas Pophale) SiO2 
 PCOD8257551
Probable space group: C M C M
;
_chemical_formula_sum "Si O2"
_cell_formula_units_Z 112
_cell_length_a 20.834177
_cell_length_b 13.301848
_cell_length_c 22.725785
_cell_angle_alpha 90.000000
_cell_angle_beta 90.000000
_cell_angle_gamma 90.000000
_cell_volume 6298.066239
_symmetry_space_group_name_H-M "C M C M"
_symmetry_group_IT_number 63
_symmetry_cell_setting 'orthorhombic'
loop_
_space_group_symop_operation_xyz
x,y,z
-x,-y,1/2+z
x,-y,-z
-x,y,1/2-z
-x,-y,-z
x,y,1/2-z
-x,y,z
x,-y,1/2+z
1/2+x,1/2+y,z
1/2-x,1/2-y,1/2+z
1/2+x,1/2-y,-z
1/2-x,1/2+y,1/2-z
1/2-x,1/2-y,-z
1/2+x,1/2+y,1/2-z
1/2-x,1/2+y,z
1/2+x,1/2-y,1/2+z
loop_
_atom_site_type_symbol
_atom_site_label
_atom_site_fract_x
_atom_site_fract_y
_atom_site_fract_z
Si Si1 0.926205 0.182882 0.878317
Si Si2 0.667609 0.228976 0.036046
Si Si3 0.707845 0.179957 0.584357
Si Si4 0.928786 0.615688 0.181861
Si Si5 0.193474 0.155968 0.180967
Si Si6 0.073765 0.019523 0.318109
Si Si7 0.691361 0.047368 0.381212
O O1 0.896243 0.218996 0.939635
O O2 0.911050 0.267507 0.829292
O O3 0.000000 0.170464 0.891510
O O4 0.900515 0.076282 0.854827
O O5 0.723355 0.305368 0.054366
O O6 0.683998 0.120279 0.063151
O O7 0.657647 0.216871 0.965817
O O8 0.698016 0.240501 0.644817
O O9 0.703091 0.063320 0.596424
O O10 0.928611 0.593838 0.250000
O O11 0.875942 0.544062 0.153348
O O12 0.000000 0.592156 0.155714
O O13 0.202456 0.179953 0.250000
O O14 0.123019 0.109664 0.168448
O O15 0.250081 0.081201 0.160758
O O16 0.076813 0.988726 0.250000
O O17 0.000000 0.050034 0.334619
#
# Coordination Sequence:
#
# PCOD8257551 Si02
#       7
#    16  16  16  16  16  16  16
#     4   9  16  29  51  76 100 126 160 205 251 289
#     4   9  19  34  52  75  98 125 163 204 246 293
#     4  10  20  35  53  71  98 132 163 199 246 297
#     4   9  17  29  46  72 103 130 160 200 245 291
#     4  10  21  34  50  75 101 126 163 207 245 288
#     4   9  17  31  51  74 102 135 166 198 243 296
#     4  10  19  33  53  74  97 129 167 206 244 287
#
# _framework density 17.783237
#
# number of rings (size 3 to 8) (size 9 to 14) (size 15 to 20)
#    0.000    2.571    0.000    2.143    0.000    2.857 
#    0.000    7.857    0.000    6.857    0.000    0.000 
#    0.000    0.000    0.000    0.000    0.000    0.000 
#
# Total GULP energy -694187.240499 kJ/mol
# GULP energy per Si atom -12396.200723 kJ/mol
# Density = 1.774276 g / cm^3
# Si number density = 17.783237 Si / 1000 Ang^3
#
#
#
# Elastic Constant Matrix: (Units=GPa)
#
#
# Indices 1 2 3 4 5 6 
#
# 1 65.0947 21.7717 23.6704 0.0000 0.0000 0.0000
# 2 21.7717 39.8722 10.1268 0.0000 0.0000 0.0000
# 3 23.6704 10.1268 84.1533 0.0000 0.0000 0.0000
# 4 0.0000 0.0000 0.0000 17.7522 0.0000 0.0000
# 5 0.0000 0.0000 0.0000 0.0000 26.3690 0.0000
# 6 0.0000 0.0000 0.0000 0.0000 0.0000 21.9980
#
#
#
# Elastic Compliance Matrix: (Units=1/GPa)
#
#
# Indices 1 2 3 4 5 6 
#
# 1 0.020336 -0.009956 -0.004522 0.000000 0.000000 0.000000
# 2 -0.009956 0.030745 -0.000899 0.000000 0.000000 0.000000
# 3 -0.004522 -0.000899 0.013263 0.000000 0.000000 0.000000
# 4 0.000000 0.000000 0.000000 0.056331 0.000000 0.000000
# 5 0.000000 0.000000 0.000000 0.000000 0.037923 0.000000
# 6 0.000000 0.000000 0.000000 0.000000 0.000000 0.045459
#
#
# Mechanical properties :
#
#
# Convention : Reuss Voigt Hill
#
# Bulk Modulus (GPa) = 29.77100 33.36201 31.56650
# Shear Modulus (GPa) = 20.32445 22.12726 21.22586
#
# Velocity S-wave (km/s) = 3.38435 3.53126 3.45858
# Velocity P-wave (km/s) = 5.66120 5.95210 5.80847
#
# Compressibility (1/GPa) = 0.03358973
#
# Stress axis : x y z
#
# Youngs Moduli (GPa) = 49.17269 32.52581 75.39620
#
# Poissons Ratio (x) = 0.32382 0.34095
# Poissons Ratio (y) = 0.48956 0.06781
# Poissons Ratio (z) = 0.22236 0.02925
#
# Static dielectric constant tensor:
#      x y z
#    x 3.517070 0.000000 0.000000 
#    y 0.000000 3.112670 0.000000 
#    z 0.000000 0.000000 3.383280 
# 
# 
# High freq. dielectric constant tensor:
#      x y z
#    x 1.690990 0.000000 0.000000 
#    y 0.000000 1.676160 0.000000 
#    z 0.000000 0.000000 1.683610 
# 
# From -- ./inp_files/57613.got.cif
#   From: 2010.03.12/outbox.cif.g09.slc.cpg/sg63_29_cif.got.tgz:57613.got - 2010.04.10 19:34:48.
