data_PCOD8257568
_publ_section_title
;
Structure prediction by ZEFSAII (Michael W. Deem and Ramdas Pophale) SiO2 
 PCOD8257568
Probable space group: C M C M
;
_chemical_formula_sum "Si O2"
_cell_formula_units_Z 104
_cell_length_a 27.986140
_cell_length_b 22.867231
_cell_length_c 9.044682
_cell_angle_alpha 90.000000
_cell_angle_beta 90.000000
_cell_angle_gamma 90.000000
_cell_volume 5788.284693
_symmetry_space_group_name_H-M "C M C M"
_symmetry_group_IT_number 63
_symmetry_cell_setting 'orthorhombic'
loop_
_space_group_symop_operation_xyz
x,y,z
-x,-y,1/2+z
x,-y,-z
-x,y,1/2-z
-x,-y,-z
x,y,1/2-z
-x,y,z
x,-y,1/2+z
1/2+x,1/2+y,z
1/2-x,1/2-y,1/2+z
1/2+x,1/2-y,-z
1/2-x,1/2+y,1/2-z
1/2-x,1/2-y,-z
1/2+x,1/2+y,1/2-z
1/2-x,1/2+y,z
1/2+x,1/2-y,1/2+z
loop_
_atom_site_type_symbol
_atom_site_label
_atom_site_fract_x
_atom_site_fract_y
_atom_site_fract_z
Si Si1 0.299093 0.239585 0.917200
Si Si2 0.946047 0.561891 0.924396
Si Si3 0.000000 0.940346 0.417447
Si Si4 0.262802 0.939041 0.421664
Si Si5 0.855584 0.630021 0.920196
Si Si6 0.102397 0.062450 0.922994
Si Si7 0.816150 0.130001 0.082123
O O1 0.286655 0.219480 0.750000
O O2 0.333331 0.189650 0.991941
O O3 0.326174 0.301006 0.919513
O O4 0.250000 0.250000 0.000000
O O5 0.938997 0.552809 0.750000
O O6 0.906900 0.608936 0.986539
O O7 0.000000 0.584127 0.960582
O O8 0.936319 0.500000 0.000000
O O9 0.049973 0.907321 0.451200
O O10 0.000000 0.960499 0.250000
O O11 0.000000 0.000000 0.500000
O O12 0.248738 0.944085 0.250000
O O13 0.318312 0.923070 0.442308
O O14 0.232247 0.887490 0.496977
O O15 0.250912 0.000000 0.500000
O O16 0.864424 0.644406 0.750000
O O17 0.113900 0.055303 0.750000
O O18 0.139304 0.104751 0.997275
O O19 0.105920 0.000000 0.000000
O O20 0.812915 0.106560 0.250000
#
# Coordination Sequence:
#
# PCOD8257568 Si02
#       7
#    16  16   8  16  16  16  16
#     4  10  20  36  55  73  98 131 174 216 251 298
#     4   9  17  31  53  80 108 137 168 207 258 313
#     4   8  16  30  50  74  96 126 162 200 243 294
#     4  11  21  33  50  72 103 135 166 206 253 304
#     4   9  18  33  53  75 101 134 170 210 254 303
#     4  10  19  33  53  76 103 132 166 206 254 305
#     4  11  22  34  50  73 101 133 170 211 253 302
#
# _framework density 17.967326
#
# number of rings (size 3 to 8) (size 9 to 14) (size 15 to 20)
#    0.000    2.154    1.538    2.308    0.000    1.231 
#    0.000    1.538    1.692    0.000    0.000    0.000 
#    0.000    0.000    0.000    0.000    0.000    0.000 
#
# Total GULP energy -644359.686496 kJ/mol
# GULP energy per Si atom -12391.532433 kJ/mol
# Density = 1.792643 g / cm^3
# Si number density = 17.967326 Si / 1000 Ang^3
#
#
#
# Elastic Constant Matrix: (Units=GPa)
#
#
# Indices 1 2 3 4 5 6 
#
# 1 151.2897 54.4778 44.5401 0.0000 0.0000 0.0000
# 2 54.4778 92.2157 30.0616 0.0000 0.0000 0.0000
# 3 44.5401 30.0616 80.7437 0.0000 0.0000 0.0000
# 4 0.0000 0.0000 0.0000 20.1428 0.0000 0.0000
# 5 0.0000 0.0000 0.0000 0.0000 19.3007 0.0000
# 6 0.0000 0.0000 0.0000 0.0000 0.0000 20.9091
#
#
#
# Elastic Compliance Matrix: (Units=1/GPa)
#
#
# Indices 1 2 3 4 5 6 
#
# 1 0.009175 -0.004291 -0.003463 0.000000 0.000000 0.000000
# 2 -0.004291 0.014349 -0.002975 0.000000 0.000000 0.000000
# 3 -0.003463 -0.002975 0.015403 0.000000 0.000000 0.000000
# 4 0.000000 0.000000 0.000000 0.049645 0.000000 0.000000
# 5 0.000000 0.000000 0.000000 0.000000 0.051812 0.000000
# 6 0.000000 0.000000 0.000000 0.000000 0.000000 0.047826
#
#
# Mechanical properties :
#
#
# Convention : Reuss Voigt Hill
#
# Bulk Modulus (GPa) = 57.24930 64.71201 60.98065
# Shear Modulus (GPa) = 23.20278 25.08183 24.14231
#
# Velocity S-wave (km/s) = 3.59749 3.74032 3.66960
# Velocity P-wave (km/s) = 7.01342 7.39919 7.20889
#
# Compressibility (1/GPa) = 0.01746746
#
# Stress axis : x y z
#
# Youngs Moduli (GPa) = 108.99654 69.69114 64.92221
#
# Poissons Ratio (x) = 0.29905 0.22485
# Poissons Ratio (y) = 0.46771 0.19316
# Poissons Ratio (z) = 0.37749 0.20735
#
# Static dielectric constant tensor:
#      x y z
#    x 3.912360 0.000000 0.000000 
#    y 0.000000 3.366520 0.000000 
#    z 0.000000 0.000000 3.343330 
# 
# 
# High freq. dielectric constant tensor:
#      x y z
#    x 1.704820 0.000000 0.000000 
#    y 0.000000 1.677840 0.000000 
#    z 0.000000 0.000000 1.688790 
# 
# From -- ./inp_files/12867.got.cif
#   From: 2010.03.12/outbox.cif.g09.slc.cpg/sg63_7_cif.got.tgz:12867.got - 2010.04.10 19:34:48.
