data_PCOD8257843
_publ_section_title
;
Structure prediction by ZEFSAII (Michael W. Deem and Ramdas Pophale) SiO2 
 PCOD8257843
Probable space group: C M C M
;
_chemical_formula_sum "Si O2"
_cell_formula_units_Z 96
_cell_length_a 9.201883
_cell_length_b 20.390281
_cell_length_c 28.101883
_cell_angle_alpha 90.000000
_cell_angle_beta 90.000000
_cell_angle_gamma 90.000000
_cell_volume 5272.727646
_symmetry_space_group_name_H-M "C M C M"
_symmetry_group_IT_number 63
_symmetry_cell_setting 'orthorhombic'
loop_
_space_group_symop_operation_xyz
x,y,z
-x,-y,1/2+z
x,-y,-z
-x,y,1/2-z
-x,-y,-z
x,y,1/2-z
-x,y,z
x,-y,1/2+z
1/2+x,1/2+y,z
1/2-x,1/2-y,1/2+z
1/2+x,1/2-y,-z
1/2-x,1/2+y,1/2-z
1/2-x,1/2-y,-z
1/2+x,1/2+y,1/2-z
1/2-x,1/2+y,z
1/2+x,1/2-y,1/2+z
loop_
_atom_site_type_symbol
_atom_site_label
_atom_site_fract_x
_atom_site_fract_y
_atom_site_fract_z
Si Si1 0.668793 0.502304 0.899820
Si Si2 0.168253 0.136212 0.950595
Si Si3 0.330097 0.762647 0.892071
Si Si4 0.169251 0.199013 0.303476
Si Si5 0.827746 0.050580 0.198574
Si Si6 0.328055 0.111371 0.452391
O O1 0.500000 0.482109 0.904105
O O2 0.694321 0.577168 0.913832
O O3 0.726053 0.493930 0.845424
O O4 0.758768 0.456281 0.935004
O O5 0.219032 0.202521 0.925005
O O6 0.000000 0.139435 0.966628
O O7 0.269285 0.127537 0.995768
O O8 0.500000 0.759738 0.882633
O O9 0.252819 0.755668 0.841084
O O10 0.282299 0.830059 0.917235
O O11 0.200779 0.224568 0.250000
O O12 0.227690 0.124724 0.309039
O O13 0.000000 0.202733 0.315268
O O14 0.768702 0.024145 0.250000
O O15 0.000000 0.051502 0.200761
O O16 0.500000 0.103030 0.455195
#
# Coordination Sequence:
#
# PCOD8257843 Si02
#       6
#    16  16  16  16  16  16
#     4  10  19  34  56  78 102 134 171 214 258 302
#     4  10  22  37  52  74 105 139 175 213 257 309
#     4  10  21  36  52  76 108 138 171 212 259 308
#     4   9  17  31  54  81 104 131 171 213 252 301
#     4   8  14  27  50  78 101 123 161 209 249 292
#     4  11  22  35  53  76 102 137 177 216 258 305
#
# _framework density 18.206896
#
# number of rings (size 3 to 8) (size 9 to 14) (size 15 to 20)
#    0.000    2.333    1.667    2.500    0.000    4.333 
#    0.000    0.833    0.000    3.500    0.000    0.000 
#    0.000    0.000    0.000    0.000    0.000    0.000 
#
# Total GULP energy -595165.824764 kJ/mol
# GULP energy per Si atom -12399.288016 kJ/mol
# Density = 1.816546 g / cm^3
# Si number density = 18.206896 Si / 1000 Ang^3
#
#
#
# Elastic Constant Matrix: (Units=GPa)
#
#
# Indices 1 2 3 4 5 6 
#
# 1 44.3797 24.1736 41.5272 0.0000 0.0000 0.0000
# 2 24.1736 53.9331 18.0431 0.0000 0.0000 0.0000
# 3 41.5272 18.0431 125.5017 0.0000 0.0000 0.0000
# 4 0.0000 0.0000 0.0000 1.8412 0.0000 0.0000
# 5 0.0000 0.0000 0.0000 0.0000 30.9916 0.0000
# 6 0.0000 0.0000 0.0000 0.0000 0.0000 18.8149
#
#
#
# Elastic Compliance Matrix: (Units=1/GPa)
#
#
# Indices 1 2 3 4 5 6 
#
# 1 0.041349 -0.014661 -0.011574 0.000000 0.000000 0.000000
# 2 -0.014661 0.024677 0.001303 0.000000 0.000000 0.000000
# 3 -0.011574 0.001303 0.011610 0.000000 0.000000 0.000000
# 4 0.000000 0.000000 0.000000 0.543129 0.000000 0.000000
# 5 0.000000 0.000000 0.000000 0.000000 0.032267 0.000000
# 6 0.000000 0.000000 0.000000 0.000000 0.000000 0.053149
#
#
# Mechanical properties :
#
#
# Convention : Reuss Voigt Hill
#
# Bulk Modulus (GPa) = 36.00678 43.47802 39.74240
# Shear Modulus (GPa) = 6.53337 19.66759 13.10048
#
# Velocity S-wave (km/s) = 1.89636 3.29025 2.68532
# Velocity P-wave (km/s) = 4.96128 6.19404 5.61161
#
# Compressibility (1/GPa) = 0.02777254
#
# Stress axis : x y z
#
# Youngs Moduli (GPa) = 24.18443 40.52401 86.12981
#
# Poissons Ratio (x) = 0.59413 0.99688
# Poissons Ratio (y) = 0.35457 -0.11227
# Poissons Ratio (z) = 0.27991 -0.05282
#
# Static dielectric constant tensor:
#      x y z
#    x 3.106250 0.000000 0.000000 
#    y 0.000000 3.314590 0.000000 
#    z 0.000000 0.000000 3.758820 
# 
# 
# High freq. dielectric constant tensor:
#      x y z
#    x 1.683210 0.000000 0.000000 
#    y 0.000000 1.689300 0.000000 
#    z 0.000000 0.000000 1.722570 
# 
# From -- ./inp_files/66964.got.cif
#   From: 2010.03.12/outbox.cif.g09.slc.cpg/sg63_34_cif.got.tgz:66964.got - 2010.04.10 19:34:48.
