data_PCOD8257802
_publ_section_title
;
Structure prediction by ZEFSAII (Michael W. Deem and Ramdas Pophale) SiO2 
 PCOD8257802
Probable space group: C M C M
;
_chemical_formula_sum "Si O2"
_cell_formula_units_Z 72
_cell_length_a 25.460230
_cell_length_b 17.106430
_cell_length_c 9.025581
_cell_angle_alpha 90.000000
_cell_angle_beta 90.000000
_cell_angle_gamma 90.000000
_cell_volume 3930.944167
_symmetry_space_group_name_H-M "C M C M"
_symmetry_group_IT_number 63
_symmetry_cell_setting 'orthorhombic'
loop_
_space_group_symop_operation_xyz
x,y,z
-x,-y,1/2+z
x,-y,-z
-x,y,1/2-z
-x,-y,-z
x,y,1/2-z
-x,y,z
x,-y,1/2+z
1/2+x,1/2+y,z
1/2-x,1/2-y,1/2+z
1/2+x,1/2-y,-z
1/2-x,1/2+y,1/2-z
1/2-x,1/2-y,-z
1/2+x,1/2+y,1/2-z
1/2-x,1/2+y,z
1/2+x,1/2-y,1/2+z
loop_
_atom_site_type_symbol
_atom_site_label
_atom_site_fract_x
_atom_site_fract_y
_atom_site_fract_z
Si Si1 0.193985 0.244187 0.925993
Si Si2 0.406600 0.799458 0.424659
Si Si3 0.340290 0.426388 0.415967
Si Si4 0.500000 0.084704 0.925187
Si Si5 0.942181 0.850896 0.416670
O O1 0.197010 0.256928 0.750000
O O2 0.178481 0.156995 0.974254
O O3 0.250000 0.250000 0.000000
O O4 0.150342 0.304534 0.992455
O O5 0.396236 0.802445 0.250000
O O6 0.446850 0.868619 0.473286
O O7 0.433955 0.718013 0.466062
O O8 0.315410 0.500000 0.500000
O O9 0.321699 0.438990 0.250000
O O10 0.403285 0.424210 0.438717
O O11 0.500000 0.073498 0.750000
O O12 0.500000 0.000000 0.000000
O O13 0.932675 0.816170 0.250000
O O14 0.000000 0.885682 0.435465
#
# Coordination Sequence:
#
# PCOD8257802 Si02
#       5
#    16  16  16   8  16
#     4  10  21  38  59  83 106 139 184 228 274 330
#     4  10  19  34  54  80 110 140 180 228 272 325
#     4   9  19  33  49  74 106 136 171 212 259 310
#     4  10  22  36  54  82 115 148 187 234 287 338
#     4   9  17  30  49  73 103 141 178 212 253 306
#
# _framework density 18.316210000000002
#
# number of rings (size 3 to 8) (size 9 to 14) (size 15 to 20)
#    0.000    2.444    1.111    2.667    0.000    6.667 
#    0.000    1.111    0.000    0.000    0.000    0.000 
#    0.000    0.000    0.000    0.000    0.000    0.000 
#
# Total GULP energy -446018.330963 kJ/mol
# GULP energy per Si atom -12389.398082 kJ/mol
# Density = 1.827452 g / cm^3
# Si number density = 18.316210 Si / 1000 Ang^3
#
#
#
# Elastic Constant Matrix: (Units=GPa)
#
#
# Indices 1 2 3 4 5 6 
#
# 1 141.1464 36.8315 51.8396 0.0000 0.0000 0.0000
# 2 36.8315 84.8133 39.2579 0.0000 0.0000 0.0000
# 3 51.8396 39.2579 72.9182 0.0000 0.0000 0.0000
# 4 0.0000 0.0000 0.0000 31.1949 0.0000 0.0000
# 5 0.0000 0.0000 0.0000 0.0000 29.6986 0.0000
# 6 0.0000 0.0000 0.0000 0.0000 0.0000 12.6660
#
#
#
# Elastic Compliance Matrix: (Units=1/GPa)
#
#
# Indices 1 2 3 4 5 6 
#
# 1 0.009705 -0.001360 -0.006167 0.000000 0.000000 0.000000
# 2 -0.001360 0.015895 -0.007591 0.000000 0.000000 0.000000
# 3 -0.006167 -0.007591 0.022185 0.000000 0.000000 0.000000
# 4 0.000000 0.000000 0.000000 0.032056 0.000000 0.000000
# 5 0.000000 0.000000 0.000000 0.000000 0.033672 0.000000
# 6 0.000000 0.000000 0.000000 0.000000 0.000000 0.078951
#
#
# Mechanical properties :
#
#
# Convention : Reuss Voigt Hill
#
# Bulk Modulus (GPa) = 56.98309 61.63731 59.31020
# Shear Modulus (GPa) = 21.87709 26.10850 23.99280
#
# Velocity S-wave (km/s) = 3.45978 3.77958 3.62321
# Velocity P-wave (km/s) = 6.86574 7.26442 7.06789
#
# Compressibility (1/GPa) = 0.01754907
#
# Stress axis : x y z
#
# Youngs Moduli (GPa) = 103.04208 62.91428 45.07502
#
# Poissons Ratio (x) = 0.08555 0.27799
# Poissons Ratio (y) = 0.14011 0.34215
# Poissons Ratio (z) = 0.63549 0.47756
#
# Static dielectric constant tensor:
#      x y z
#    x 3.619440 0.000000 0.000000 
#    y 0.000000 3.254920 0.000000 
#    z 0.000000 0.000000 3.383960 
# 
# 
# High freq. dielectric constant tensor:
#      x y z
#    x 1.715150 0.000000 0.000000 
#    y 0.000000 1.682520 0.000000 
#    z 0.000000 0.000000 1.713020 
# 
# From -- ./inp_files/11668.got.cif
#   From: 2010.03.12/outbox.cif.g09.slc.cpg/sg63_6_cif.got.tgz:11668.got - 2010.04.10 19:34:48.
