data_PCOD8257712
_publ_section_title
;
Structure prediction by ZEFSAII (Michael W. Deem and Ramdas Pophale) SiO2 
 PCOD8257712
Probable space group: C M C M
;
_chemical_formula_sum "Si O2"
_cell_formula_units_Z 104
_cell_length_a 22.193706
_cell_length_b 28.062751
_cell_length_c 9.044804
_cell_angle_alpha 90.000000
_cell_angle_beta 90.000000
_cell_angle_gamma 90.000000
_cell_volume 5633.252675
_symmetry_space_group_name_H-M "C M C M"
_symmetry_group_IT_number 63
_symmetry_cell_setting 'orthorhombic'
loop_
_space_group_symop_operation_xyz
x,y,z
-x,-y,1/2+z
x,-y,-z
-x,y,1/2-z
-x,-y,-z
x,y,1/2-z
-x,y,z
x,-y,1/2+z
1/2+x,1/2+y,z
1/2-x,1/2-y,1/2+z
1/2+x,1/2-y,-z
1/2-x,1/2+y,1/2-z
1/2-x,1/2-y,-z
1/2+x,1/2+y,1/2-z
1/2-x,1/2+y,z
1/2+x,1/2-y,1/2+z
loop_
_atom_site_type_symbol
_atom_site_label
_atom_site_fract_x
_atom_site_fract_y
_atom_site_fract_z
Si Si1 0.071051 0.546189 0.416478
Si Si2 0.174096 0.198093 0.924061
Si Si3 0.157395 0.393308 0.081953
Si Si4 0.620527 0.606996 0.077857
Si Si5 0.689120 0.210669 0.583712
Si Si6 0.739417 0.550414 0.076556
Si Si7 0.500000 0.551980 0.074747
O O1 0.096452 0.500000 0.500000
O O2 0.096195 0.545636 0.250000
O O3 0.095556 0.590776 0.506381
O O4 0.000000 0.548240 0.418864
O O5 0.165082 0.194543 0.750000
O O6 0.244209 0.195188 0.972706
O O7 0.133608 0.156450 0.994100
O O8 0.154697 0.250320 0.983178
O O9 0.163198 0.411766 0.250000
O O10 0.150071 0.336738 0.077229
O O11 0.214322 0.411702 0.990144
O O12 0.617558 0.619604 0.250000
O O13 0.672525 0.568967 0.042546
O O14 0.558267 0.582669 0.024296
O O15 0.694161 0.231085 0.750000
O O16 0.751399 0.545119 0.250000
O O17 0.748972 0.500000 0.000000
O O18 0.500000 0.543611 0.250000
O O19 0.500000 0.500000 0.000000
#
# Coordination Sequence:
#
# PCOD8257712 Si02
#       7
#    16  16  16  16  16  16   8
#     4  10  21  37  56  78 106 142 182 221 262 314
#     4  10  19  33  56  83 110 141 178 221 269 326
#     4  11  21  35  55  80 110 142 178 222 269 323
#     4  10  21  37  57  80 110 147 187 231 282 336
#     4   9  19  34  53  81 113 143 176 217 269 325
#     4  11  22  34  51  77 110 145 179 222 274 327
#     4  10  22  40  60  84 112 150 196 242 289 340
#
# _framework density 18.461801999999999
#
# number of rings (size 3 to 8) (size 9 to 14) (size 15 to 20)
#    0.000    1.846    1.538    2.769    0.000    4.000 
#    0.000    0.000    1.692    0.000    0.000    0.000 
#    0.000    0.000    0.000    0.000    0.000    0.000 
#
# Total GULP energy -644764.204859 kJ/mol
# GULP energy per Si atom -12399.311632 kJ/mol
# Density = 1.841978 g / cm^3
# Si number density = 18.461802 Si / 1000 Ang^3
#
#
#
# Elastic Constant Matrix: (Units=GPa)
#
#
# Indices 1 2 3 4 5 6 
#
# 1 46.3014 44.2531 33.4152 0.0000 0.0000 0.0000
# 2 44.2531 128.0019 64.4418 0.0000 0.0000 0.0000
# 3 33.4152 64.4418 106.2342 0.0000 0.0000 0.0000
# 4 0.0000 0.0000 0.0000 34.4174 0.0000 0.0000
# 5 0.0000 0.0000 0.0000 0.0000 24.4281 0.0000
# 6 0.0000 0.0000 0.0000 0.0000 0.0000 31.1523
#
#
#
# Elastic Compliance Matrix: (Units=1/GPa)
#
#
# Indices 1 2 3 4 5 6 
#
# 1 0.034105 -0.009200 -0.005147 0.000000 0.000000 0.000000
# 2 -0.009200 0.013729 -0.005434 0.000000 0.000000 0.000000
# 3 -0.005147 -0.005434 0.014328 0.000000 0.000000 0.000000
# 4 0.000000 0.000000 0.000000 0.029055 0.000000 0.000000
# 5 0.000000 0.000000 0.000000 0.000000 0.040936 0.000000
# 6 0.000000 0.000000 0.000000 0.000000 0.000000 0.032100
#
#
# Mechanical properties :
#
#
# Convention : Reuss Voigt Hill
#
# Bulk Modulus (GPa) = 44.24676 62.75087 53.49882
# Shear Modulus (GPa) = 23.65760 27.22806 25.44283
#
# Velocity S-wave (km/s) = 3.58360 3.84452 3.71635
# Velocity P-wave (km/s) = 6.41417 7.33284 6.88883
#
# Compressibility (1/GPa) = 0.02260052
#
# Stress axis : x y z
#
# Youngs Moduli (GPa) = 29.32144 72.84009 69.79110
#
# Poissons Ratio (x) = 0.67010 0.35921
# Poissons Ratio (y) = 0.26975 0.37926
# Poissons Ratio (z) = 0.15092 0.39583
#
# Static dielectric constant tensor:
#      x y z
#    x 3.279510 0.000000 0.000000 
#    y 0.000000 3.132910 0.000000 
#    z 0.000000 0.000000 3.570180 
# 
# 
# High freq. dielectric constant tensor:
#      x y z
#    x 1.695790 0.000000 0.000000 
#    y 0.000000 1.721960 0.000000 
#    z 0.000000 0.000000 1.726760 
# 
# From -- ./inp_files/10820.got.cif
#   From: 2010.03.12/outbox.cif.g09.slc.cpg/sg63_6_cif.got.tgz:10820.got - 2010.04.10 19:34:48.
