data_PCOD8257104
_publ_section_title
;
Structure prediction by ZEFSAII (Michael W. Deem and Ramdas Pophale) SiO2 
 PCOD8257104
Probable space group: C M C M
;
_chemical_formula_sum "Si O2"
_cell_formula_units_Z 80
_cell_length_a 8.608238
_cell_length_b 20.613069
_cell_length_c 23.329410
_cell_angle_alpha 90.000000
_cell_angle_beta 90.000000
_cell_angle_gamma 90.000000
_cell_volume 4139.621925
_symmetry_space_group_name_H-M "C M C M"
_symmetry_group_IT_number 63
_symmetry_cell_setting 'orthorhombic'
loop_
_space_group_symop_operation_xyz
x,y,z
-x,-y,1/2+z
x,-y,-z
-x,y,1/2-z
-x,-y,-z
x,y,1/2-z
-x,y,z
x,-y,1/2+z
1/2+x,1/2+y,z
1/2-x,1/2-y,1/2+z
1/2+x,1/2-y,-z
1/2-x,1/2+y,1/2-z
1/2-x,1/2-y,-z
1/2+x,1/2+y,1/2-z
1/2-x,1/2+y,z
1/2+x,1/2-y,1/2+z
loop_
_atom_site_type_symbol
_atom_site_label
_atom_site_fract_x
_atom_site_fract_y
_atom_site_fract_z
Si Si1 0.315124 0.002152 0.686487
Si Si2 0.816320 0.627062 0.618777
Si Si3 0.684396 0.926121 0.998320
Si Si4 0.683979 0.748528 0.815371
Si Si5 0.314906 0.876624 0.622288
O O1 0.246747 0.007339 0.750000
O O2 0.500000 0.000170 0.686610
O O3 0.249378 0.937000 0.658279
O O4 0.255995 0.063897 0.651797
O O5 0.763826 0.616525 0.553022
O O6 0.732826 0.687867 0.646697
O O7 0.000000 0.636569 0.624517
O O8 0.500000 0.932367 0.996920
O O9 0.745165 0.886522 0.942865
O O10 0.751902 0.000000 0.000000
O O11 0.750205 0.744750 0.750000
O O12 0.500000 0.752302 0.812498
O O13 0.751688 0.811599 0.848307
O O14 0.500000 0.875245 0.623226
#
# Coordination Sequence:
#
# PCOD8257104 Si02
#       5
#    16  16  16  16  16
#     4   9  15  24  43  71  96 120 160 210 248 279
#     4  10  19  31  51  77 102 128 160 204 255 296
#     4   9  15  27  48  76 104 125 156 209 258 289
#     4  10  21  35  49  69 101 137 168 201 244 295
#     4   9  16  28  47  70  97 129 165 204 244 287
#
# _framework density 19.325437000000001
#
# number of rings (size 3 to 8) (size 9 to 14) (size 15 to 20)
#    0.000    2.600    2.000    1.200    0.000    4.400 
#    0.000    0.000    0.000    1.800    0.000    0.000 
#    0.000    0.000    0.000    0.000    0.000    0.000 
#
# Total GULP energy -495813.577468 kJ/mol
# GULP energy per Si atom -12395.339437 kJ/mol
# Density = 1.928145 g / cm^3
# Si number density = 19.325437 Si / 1000 Ang^3
#
#
#
# Elastic Constant Matrix: (Units=GPa)
#
#
# Indices 1 2 3 4 5 6 
#
# 1 5.1701 7.9912 8.6568 0.0000 0.0000 0.0000
# 2 7.9912 157.9677 74.9873 0.0000 0.0000 0.0000
# 3 8.6568 74.9873 178.1626 0.0000 0.0000 0.0000
# 4 0.0000 0.0000 0.0000 41.8768 0.0000 0.0000
# 5 0.0000 0.0000 0.0000 0.0000 13.6814 0.0000
# 6 0.0000 0.0000 0.0000 0.0000 0.0000 19.2769
#
#
#
# Elastic Compliance Matrix: (Units=1/GPa)
#
#
# Indices 1 2 3 4 5 6 
#
# 1 0.217396 -0.007477 -0.007416 0.000000 0.000000 0.000000
# 2 -0.007477 0.008168 -0.003075 0.000000 0.000000 0.000000
# 3 -0.007416 -0.003075 0.007267 0.000000 0.000000 0.000000
# 4 0.000000 0.000000 0.000000 0.023880 0.000000 0.000000
# 5 0.000000 0.000000 0.000000 0.000000 0.073092 0.000000
# 6 0.000000 0.000000 0.000000 0.000000 0.000000 0.051875
#
#
# Mechanical properties :
#
#
# Convention : Reuss Voigt Hill
#
# Bulk Modulus (GPa) = 5.07882 58.28568 31.68225
# Shear Modulus (GPa) = 10.34669 31.61137 20.97903
#
# Velocity S-wave (km/s) = 2.31637 4.04881 3.29837
# Velocity P-wave (km/s) = 3.12855 7.21684 5.56195
#
# Compressibility (1/GPa) = 0.19689595
#
# Stress axis : x y z
#
# Youngs Moduli (GPa) = 4.59990 122.42631 137.60322
#
# Poissons Ratio (x) = 0.91540 1.02047
# Poissons Ratio (y) = 0.03439 0.42308
# Poissons Ratio (z) = 0.03411 0.37641
#
# Static dielectric constant tensor:
#      x y z
#    x 2.784390 0.000000 0.000000 
#    y 0.000000 3.667650 0.000000 
#    z 0.000000 0.000000 4.010120 
# 
# 
# High freq. dielectric constant tensor:
#      x y z
#    x 1.676030 0.000000 0.000000 
#    y 0.000000 1.760400 0.000000 
#    z 0.000000 0.000000 1.775640 
# 
# From -- ./inp_files/61090.got.cif
#   From: 2010.03.12/outbox.cif.g09.slc.cpg/sg63_31_cif.got.tgz:61090.got - 2010.04.10 19:34:48.
