data_PCOD8257439
_publ_section_title
;
Structure prediction by ZEFSAII (Michael W. Deem and Ramdas Pophale) SiO2 
 PCOD8257439
Probable space group: C M C M
;
_chemical_formula_sum "Si O2"
_cell_formula_units_Z 96
_cell_length_a 25.038181
_cell_length_b 14.598913
_cell_length_c 14.175308
_cell_angle_alpha 90.000000
_cell_angle_beta 90.000000
_cell_angle_gamma 90.000000
_cell_volume 5181.503538
_symmetry_space_group_name_H-M "C M C M"
_symmetry_group_IT_number 63
_symmetry_cell_setting 'orthorhombic'
loop_
_space_group_symop_operation_xyz
x,y,z
-x,-y,1/2+z
x,-y,-z
-x,y,1/2-z
-x,-y,-z
x,y,1/2-z
-x,y,z
x,-y,1/2+z
1/2+x,1/2+y,z
1/2-x,1/2-y,1/2+z
1/2+x,1/2-y,-z
1/2-x,1/2+y,1/2-z
1/2-x,1/2-y,-z
1/2+x,1/2+y,1/2-z
1/2-x,1/2+y,z
1/2+x,1/2-y,1/2+z
loop_
_atom_site_type_symbol
_atom_site_label
_atom_site_fract_x
_atom_site_fract_y
_atom_site_fract_z
Si Si1 0.244169 0.110962 0.852761
Si Si2 0.826288 0.595959 0.008418
Si Si3 0.136815 0.208592 0.470060
Si Si4 0.372748 0.416645 0.356542
Si Si5 0.755059 0.179834 0.140676
Si Si6 0.939787 0.908607 0.638752
O O1 0.271146 0.101153 0.750000
O O2 0.189295 0.053076 0.855780
O O3 0.231575 0.218215 0.871906
O O4 0.283307 0.071726 0.928752
O O5 0.792980 0.614525 0.104818
O O6 0.859930 0.500000 0.000000
O O7 0.863115 0.681412 0.979898
O O8 0.121757 0.167493 0.571867
O O9 0.192452 0.170826 0.425729
O O10 0.088768 0.182056 0.400530
O O11 0.390284 0.386953 0.250000
O O12 0.407915 0.500911 0.394394
O O13 0.768692 0.156457 0.250000
O O14 0.939246 0.901071 0.750000
O O15 0.000000 0.914595 0.599571
#
# Coordination Sequence:
#
# PCOD8257439 Si02
#       6
#    16  16  16  16  16  16
#     4   9  17  32  49  71 103 141 181 218 265 318
#     4  11  22  33  49  76 108 146 188 226 260 313
#     4  11  20  36  54  77 108 145 185 222 273 322
#     4  10  19  32  54  78 105 140 180 220 270 330
#     4  10  19  33  51  73 102 145 188 225 264 319
#     4  10  23  40  59  85 111 137 176 226 280 337
#
# _framework density 18.527441
#
# number of rings (size 3 to 8) (size 9 to 14) (size 15 to 20)
#    0.000    1.833    3.333    2.000    2.333    2.667 
#    0.000    0.000    0.000    0.500    0.000    0.000 
#    0.000    2.667    0.000    0.000    0.000    0.000 
#
# Total GULP energy -594866.973777 kJ/mol
# GULP energy per Si atom -12393.061954 kJ/mol
# Density = 1.848527 g / cm^3
# Si number density = 18.527441 Si / 1000 Ang^3
#
#
#
# Elastic Constant Matrix: (Units=GPa)
#
#
# Indices 1 2 3 4 5 6 
#
# 1 87.8833 47.0146 26.5398 0.0000 0.0000 0.0000
# 2 47.0146 127.5670 38.8319 0.0000 0.0000 0.0000
# 3 26.5398 38.8319 74.8358 0.0000 0.0000 0.0000
# 4 0.0000 0.0000 0.0000 19.9414 0.0000 0.0000
# 5 0.0000 0.0000 0.0000 0.0000 21.1680 0.0000
# 6 0.0000 0.0000 0.0000 0.0000 0.0000 23.2658
#
#
#
# Elastic Compliance Matrix: (Units=1/GPa)
#
#
# Indices 1 2 3 4 5 6 
#
# 1 0.014666 -0.004539 -0.002846 0.000000 0.000000 0.000000
# 2 -0.004539 0.010714 -0.003950 0.000000 0.000000 0.000000
# 3 -0.002846 -0.003950 0.016421 0.000000 0.000000 0.000000
# 4 0.000000 0.000000 0.000000 0.050147 0.000000 0.000000
# 5 0.000000 0.000000 0.000000 0.000000 0.047241 0.000000
# 6 0.000000 0.000000 0.000000 0.000000 0.000000 0.042982
#
#
# Mechanical properties :
#
#
# Convention : Reuss Voigt Hill
#
# Bulk Modulus (GPa) = 52.26749 57.22876 54.74813
# Shear Modulus (GPa) = 23.67212 24.73501 24.20356
#
# Velocity S-wave (km/s) = 3.57834 3.65779 3.61829
# Velocity P-wave (km/s) = 6.73385 6.98534 6.86075
#
# Compressibility (1/GPa) = 0.01913235
#
# Stress axis : x y z
#
# Youngs Moduli (GPa) = 68.18315 93.33430 60.89591
#
# Poissons Ratio (x) = 0.42364 0.17331
# Poissons Ratio (y) = 0.30948 0.24053
# Poissons Ratio (z) = 0.19405 0.36866
#
# Static dielectric constant tensor:
#      x y z
#    x 3.213190 0.000000 0.000000 
#    y 0.000000 3.432130 0.000000 
#    z 0.000000 0.000000 3.641030 
# 
# 
# High freq. dielectric constant tensor:
#      x y z
#    x 1.663660 0.000000 0.000000 
#    y 0.000000 1.712160 0.000000 
#    z 0.000000 0.000000 1.741950 
# 
# From -- ./inp_files/35299.got.cif
#   From: 2010.03.12/outbox.cif.g09.slc.cpg/sg63_18_cif.got.tgz:35299.got - 2010.04.10 19:34:48.
