data_PCOD8257397
_publ_section_title
;
Structure prediction by ZEFSAII (Michael W. Deem and Ramdas Pophale) SiO2 
 PCOD8257397
Probable space group: C M C M
;
_chemical_formula_sum "Si O2"
_cell_formula_units_Z 88
_cell_length_a 19.056636
_cell_length_b 27.256742
_cell_length_c 9.191726
_cell_angle_alpha 90.000000
_cell_angle_beta 90.000000
_cell_angle_gamma 90.000000
_cell_volume 4774.382964
_symmetry_space_group_name_H-M "C M C M"
_symmetry_group_IT_number 63
_symmetry_cell_setting 'orthorhombic'
loop_
_space_group_symop_operation_xyz
x,y,z
-x,-y,1/2+z
x,-y,-z
-x,y,1/2-z
-x,-y,-z
x,y,1/2-z
-x,y,z
x,-y,1/2+z
1/2+x,1/2+y,z
1/2-x,1/2-y,1/2+z
1/2+x,1/2-y,-z
1/2-x,1/2+y,1/2-z
1/2-x,1/2-y,-z
1/2+x,1/2+y,1/2-z
1/2-x,1/2+y,z
1/2+x,1/2-y,1/2+z
loop_
_atom_site_type_symbol
_atom_site_label
_atom_site_fract_x
_atom_site_fract_y
_atom_site_fract_z
Si Si1 0.322652 0.352887 0.082640
Si Si2 0.678705 0.807670 0.080944
Si Si3 0.642109 0.099597 0.084990
Si Si4 0.079815 0.767763 0.081308
Si Si5 0.000000 0.548161 0.413626
Si Si6 0.284935 0.550194 0.081563
O O1 0.311335 0.369059 0.250000
O O2 0.261370 0.313372 0.039059
O O3 0.396185 0.324428 0.060405
O O4 0.323647 0.402011 0.985519
O O5 0.668169 0.797338 0.250000
O O6 0.646835 0.859361 0.036435
O O7 0.636833 0.765645 0.997891
O O8 0.646104 0.120884 0.250000
O O9 0.567554 0.078605 0.046685
O O10 0.701571 0.058152 0.064610
O O11 0.081397 0.753119 0.250000
O O12 0.000000 0.761805 0.020536
O O13 0.000000 0.500000 0.500000
O O14 0.000000 0.531102 0.250000
O O15 0.307309 0.545543 0.250000
O O16 0.306806 0.500000 0.000000
#
# Coordination Sequence:
#
# PCOD8257397 Si02
#       6
#    16  16  16  16   8  16
#     4   9  19  36  55  77 105 137 173 213 258 307
#     4  10  20  33  52  77 104 135 172 215 257 301
#     4   9  19  33  48  69  99 135 174 211 252 304
#     4  10  21  36  55  77 104 139 174 211 259 314
#     4  10  20  32  46  64  92 132 172 212 255 298
#     4  10  19  32  53  78 103 132 169 214 260 307
#
# _framework density 18.431699999999999
#
# number of rings (size 3 to 8) (size 9 to 14) (size 15 to 20)
#    0.000    2.364    0.000    2.182    1.273    3.273 
#    0.000    0.000    0.000    0.545    0.000    0.000 
#    0.000    0.000    0.000    0.000    0.000    0.000 
#
# Total GULP energy -545317.502393 kJ/mol
# GULP energy per Si atom -12393.579600 kJ/mol
# Density = 1.838975 g / cm^3
# Si number density = 18.431700 Si / 1000 Ang^3
#
#
#
# Elastic Constant Matrix: (Units=GPa)
#
#
# Indices 1 2 3 4 5 6 
#
# 1 58.5453 43.6208 35.1435 0.0000 0.0000 0.0000
# 2 43.6208 89.9465 50.3597 0.0000 0.0000 0.0000
# 3 35.1435 50.3597 68.3630 0.0000 0.0000 0.0000
# 4 0.0000 0.0000 0.0000 37.2208 0.0000 0.0000
# 5 0.0000 0.0000 0.0000 0.0000 19.0466 0.0000
# 6 0.0000 0.0000 0.0000 0.0000 0.0000 4.7666
#
#
#
# Elastic Compliance Matrix: (Units=1/GPa)
#
#
# Indices 1 2 3 4 5 6 
#
# 1 0.028961 -0.009717 -0.007730 0.000000 0.000000 0.000000
# 2 -0.009717 0.022182 -0.011345 0.000000 0.000000 0.000000
# 3 -0.007730 -0.011345 0.026959 0.000000 0.000000 0.000000
# 4 0.000000 0.000000 0.000000 0.026867 0.000000 0.000000
# 5 0.000000 0.000000 0.000000 0.000000 0.052503 0.000000
# 6 0.000000 0.000000 0.000000 0.000000 0.000000 0.209792
#
#
# Mechanical properties :
#
#
# Convention : Reuss Voigt Hill
#
# Bulk Modulus (GPa) = 48.73856 52.78919 50.76387
# Shear Modulus (GPa) = 11.58245 18.05553 14.81899
#
# Velocity S-wave (km/s) = 2.50951 3.13324 2.83856
# Velocity P-wave (km/s) = 5.90737 6.46469 6.19230
#
# Compressibility (1/GPa) = 0.02051763
#
# Stress axis : x y z
#
# Youngs Moduli (GPa) = 34.52934 45.08116 37.09346
#
# Poissons Ratio (x) = 0.43806 0.28672
# Poissons Ratio (y) = 0.33553 0.42083
# Poissons Ratio (z) = 0.26690 0.51146
#
# Static dielectric constant tensor:
#      x y z
#    x 3.246460 0.000000 0.000000 
#    y 0.000000 3.222100 0.000000 
#    z 0.000000 0.000000 3.396530 
# 
# 
# High freq. dielectric constant tensor:
#      x y z
#    x 1.700360 0.000000 0.000000 
#    y 0.000000 1.711050 0.000000 
#    z 0.000000 0.000000 1.716560 
# 
# From -- ./inp_files/8242.got.cif
#   From: 2010.03.12/outbox.cif.g09.slc.cpg/sg63_5_cif.got.tgz:8242.got - 2010.04.10 19:34:48.
