data_PCOD8257267
_publ_section_title
;
Structure prediction by ZEFSAII (Michael W. Deem and Ramdas Pophale) SiO2 
 PCOD8257267
Probable space group: C M C M
;
_chemical_formula_sum "Si O2"
_cell_formula_units_Z 128
_cell_length_a 24.056523
_cell_length_b 11.666939
_cell_length_c 25.510263
_cell_angle_alpha 90.000000
_cell_angle_beta 90.000000
_cell_angle_gamma 90.000000
_cell_volume 7159.863128
_symmetry_space_group_name_H-M "C M C M"
_symmetry_group_IT_number 63
_symmetry_cell_setting 'orthorhombic'
loop_
_space_group_symop_operation_xyz
x,y,z
-x,-y,1/2+z
x,-y,-z
-x,y,1/2-z
-x,-y,-z
x,y,1/2-z
-x,y,z
x,-y,1/2+z
1/2+x,1/2+y,z
1/2-x,1/2-y,1/2+z
1/2+x,1/2-y,-z
1/2-x,1/2+y,1/2-z
1/2-x,1/2-y,-z
1/2+x,1/2+y,1/2-z
1/2-x,1/2+y,z
1/2+x,1/2-y,1/2+z
loop_
_atom_site_type_symbol
_atom_site_label
_atom_site_fract_x
_atom_site_fract_y
_atom_site_fract_z
Si Si1 0.112829 0.936607 0.448338
Si Si2 0.143057 0.237386 0.190709
Si Si3 0.734233 0.853739 0.690702
Si Si4 0.436218 0.776098 0.498634
Si Si5 0.190430 0.561665 0.631967
Si Si6 0.835550 0.411922 0.959346
Si Si7 0.790410 0.796450 0.402667
Si Si8 0.563710 0.648895 0.105719
O O1 0.072151 0.833726 0.464323
O O2 0.163321 0.892556 0.412437
O O3 0.137350 0.000000 0.500000
O O4 0.075630 0.021932 0.414734
O O5 0.121706 0.247813 0.250000
O O6 0.200629 0.170002 0.187378
O O7 0.148804 0.364491 0.167031
O O8 0.098160 0.168091 0.158042
O O9 0.711946 0.839949 0.750000
O O10 0.700877 0.763406 0.654180
O O11 0.726936 0.983792 0.671097
O O12 0.500000 0.817449 0.503575
O O13 0.395187 0.876439 0.517135
O O14 0.421132 0.742556 0.438840
O O15 0.153866 0.480863 0.594431
O O16 0.230165 0.643419 0.596426
O O17 0.795595 0.302106 0.948013
O O18 0.806089 0.500000 0.000000
O O19 0.500000 0.658544 0.121309
#
# Coordination Sequence:
#
# PCOD8257267 Si02
#       8
#    16  16  16  16  16  16  16  16
#     4   9  17  31  51  75 100 126 157 192 238 292
#     4  10  20  33  50  71  96 126 159 198 239 281
#     4   9  18  33  53  74  95 123 160 201 244 288
#     4   9  18  33  52  73  96 123 159 202 242 281
#     4  10  19  33  50  70  98 128 161 196 236 286
#     4  10  20  32  47  70  99 129 162 196 234 284
#     4   9  19  32  48  72 101 128 159 197 237 286
#     4  10  19  32  51  72  96 126 159 198 241 284
#
# _framework density 17.877435999999999
#
# number of rings (size 3 to 8) (size 9 to 14) (size 15 to 20)
#    0.000    2.500    0.000    2.250    0.000    3.500 
#    0.000    3.750    0.000    0.000    0.000    0.000 
#    0.000   24.500    0.000    0.500    0.000    0.750 
#
# Total GULP energy -793480.383019 kJ/mol
# GULP energy per Si atom -12398.130985 kJ/mol
# Density = 1.783675 g / cm^3
# Si number density = 17.877436 Si / 1000 Ang^3
#
#
#
# Elastic Constant Matrix: (Units=GPa)
#
#
# Indices 1 2 3 4 5 6 
#
# 1 51.8157 17.7258 42.8441 0.0000 0.0000 0.0000
# 2 17.7258 76.4257 37.0632 0.0000 0.0000 0.0000
# 3 42.8441 37.0632 108.3627 0.0000 0.0000 0.0000
# 4 0.0000 0.0000 0.0000 25.5565 0.0000 0.0000
# 5 0.0000 0.0000 0.0000 0.0000 26.3038 0.0000
# 6 0.0000 0.0000 0.0000 0.0000 0.0000 14.7300
#
#
#
# Elastic Compliance Matrix: (Units=1/GPa)
#
#
# Indices 1 2 3 4 5 6 
#
# 1 0.028795 -0.001388 -0.010910 0.000000 0.000000 0.000000
# 2 -0.001388 0.015753 -0.004840 0.000000 0.000000 0.000000
# 3 -0.010910 -0.004840 0.015197 0.000000 0.000000 0.000000
# 4 0.000000 0.000000 0.000000 0.039129 0.000000 0.000000
# 5 0.000000 0.000000 0.000000 0.000000 0.038017 0.000000
# 6 0.000000 0.000000 0.000000 0.000000 0.000000 0.067889
#
#
# Mechanical properties :
#
#
# Convention : Reuss Voigt Hill
#
# Bulk Modulus (GPa) = 39.26048 47.98560 43.62304
# Shear Modulus (GPa) = 20.19830 22.58281 21.39055
#
# Velocity S-wave (km/s) = 3.36493 3.55801 3.46282
# Velocity P-wave (km/s) = 6.09143 6.61657 6.35942
#
# Compressibility (1/GPa) = 0.02547091
#
# Stress axis : x y z
#
# Youngs Moduli (GPa) = 34.72818 63.47846 65.80161
#
# Poissons Ratio (x) = 0.08808 0.71792
# Poissons Ratio (y) = 0.04819 0.31845
# Poissons Ratio (z) = 0.37890 0.30720
#
# Static dielectric constant tensor:
#      x y z
#    x 3.013390 0.000000 0.000000 
#    y 0.000000 3.476820 0.000000 
#    z 0.000000 0.000000 3.443270 
# 
# 
# High freq. dielectric constant tensor:
#      x y z
#    x 1.662580 0.000000 0.000000 
#    y 0.000000 1.704460 0.000000 
#    z 0.000000 0.000000 1.690460 
# 
# From -- ./inp_files/65176.got.cif
#   From: 2010.03.12/outbox.cif.g09.slc.cpg/sg63_33_cif.got.tgz:65176.got - 2010.04.10 19:34:48.
