data_PCOD8257129
_publ_section_title
;
Structure prediction by ZEFSAII (Michael W. Deem and Ramdas Pophale) SiO2 
 PCOD8257129
Probable space group: C M C M
;
_chemical_formula_sum "Si O2"
_cell_formula_units_Z 104
_cell_length_a 26.138865
_cell_length_b 22.335242
_cell_length_c 8.789245
_cell_angle_alpha 90.000000
_cell_angle_beta 90.000000
_cell_angle_gamma 90.000000
_cell_volume 5131.318342
_symmetry_space_group_name_H-M "C M C M"
_symmetry_group_IT_number 63
_symmetry_cell_setting 'orthorhombic'
loop_
_space_group_symop_operation_xyz
x,y,z
-x,-y,1/2+z
x,-y,-z
-x,y,1/2-z
-x,-y,-z
x,y,1/2-z
-x,y,z
x,-y,1/2+z
1/2+x,1/2+y,z
1/2-x,1/2-y,1/2+z
1/2+x,1/2-y,-z
1/2-x,1/2+y,1/2-z
1/2-x,1/2-y,-z
1/2+x,1/2+y,1/2-z
1/2-x,1/2+y,z
1/2+x,1/2-y,1/2+z
loop_
_atom_site_type_symbol
_atom_site_label
_atom_site_fract_x
_atom_site_fract_y
_atom_site_fract_z
Si Si1 0.000000 0.565734 0.430955
Si Si2 0.058242 0.226240 0.917130
Si Si3 0.152051 0.941226 0.072011
Si Si4 0.295710 0.329062 0.574480
Si Si5 0.308911 0.805506 0.425506
Si Si6 0.419207 0.848219 0.427202
Si Si7 0.558968 0.392529 0.571778
O O1 0.000000 0.500000 0.500000
O O2 0.051996 0.598788 0.484098
O O3 0.000000 0.562595 0.250000
O O4 0.085170 0.232843 0.750000
O O5 0.000000 0.209416 0.887921
O O6 0.059393 0.285860 0.014844
O O7 0.081139 0.171518 0.014264
O O8 0.153140 0.948143 0.250000
O O9 0.180246 0.880605 0.026648
O O10 0.093439 0.941581 0.012365
O O11 0.179216 0.000000 0.000000
O O12 0.302589 0.346150 0.750000
O O13 0.321888 0.264429 0.538045
O O14 0.235539 0.326995 0.536461
O O15 0.291098 0.810558 0.250000
O O16 0.358089 0.847717 0.456581
O O17 0.431978 0.855158 0.250000
O O18 0.568741 0.395415 0.750000
O O19 0.500000 0.404291 0.530398
#
# Coordination Sequence:
#
# PCOD8257129 Si02
#       7
#     8  16  16  16  16  16  16
#     4  12  26  44  62  84 118 160 207 256 309 374
#     4  10  19  31  51  83 119 154 193 238 286 339
#     4  12  25  41  61  83 114 156 201 246 293 352
#     4  10  20  38  63  92 124 157 197 245 300 358
#     4   9  20  37  61  93 125 156 193 242 301 361
#     4  11  21  36  60  88 120 159 200 243 298 361
#     4  10  21  37  57  83 117 155 197 245 294 345
#
# _framework density 20.267696000000001
#
# number of rings (size 3 to 8) (size 9 to 14) (size 15 to 20)
#    0.000    1.538    0.769    4.846    0.000    4.923 
#    0.000    0.769    0.000    3.692    0.000    0.000 
#    0.000    0.000    0.000    0.000    0.000    0.000 
#
# Total GULP energy -644733.536461 kJ/mol
# GULP energy per Si atom -12398.721855 kJ/mol
# Density = 2.022157 g / cm^3
# Si number density = 20.267696 Si / 1000 Ang^3
#
#
#
# Elastic Constant Matrix: (Units=GPa)
#
#
# Indices 1 2 3 4 5 6 
#
# 1 72.6057 41.8566 35.5246 0.0000 0.0000 0.0000
# 2 41.8566 110.2067 48.4399 0.0000 0.0000 0.0000
# 3 35.5246 48.4399 135.9482 0.0000 0.0000 0.0000
# 4 0.0000 0.0000 0.0000 35.5965 0.0000 0.0000
# 5 0.0000 0.0000 0.0000 0.0000 33.7877 0.0000
# 6 0.0000 0.0000 0.0000 0.0000 0.0000 20.8450
#
#
#
# Elastic Compliance Matrix: (Units=1/GPa)
#
#
# Indices 1 2 3 4 5 6 
#
# 1 0.018467 -0.005801 -0.002759 0.000000 0.000000 0.000000
# 2 -0.005801 0.012581 -0.002967 0.000000 0.000000 0.000000
# 3 -0.002759 -0.002967 0.009134 0.000000 0.000000 0.000000
# 4 0.000000 0.000000 0.000000 0.028093 0.000000 0.000000
# 5 0.000000 0.000000 0.000000 0.000000 0.029597 0.000000
# 6 0.000000 0.000000 0.000000 0.000000 0.000000 0.047973
#
#
# Mechanical properties :
#
#
# Convention : Reuss Voigt Hill
#
# Bulk Modulus (GPa) = 58.38212 63.37808 60.88010
# Shear Modulus (GPa) = 28.63561 30.90847 29.77204
#
# Velocity S-wave (km/s) = 3.76289 3.90938 3.83683
# Velocity P-wave (km/s) = 6.90993 7.19138 7.05206
#
# Compressibility (1/GPa) = 0.01712853
#
# Stress axis : x y z
#
# Youngs Moduli (GPa) = 54.15010 79.48311 109.48439
#
# Poissons Ratio (x) = 0.46111 0.30202
# Poissons Ratio (y) = 0.31414 0.32483
# Poissons Ratio (z) = 0.14938 0.23582
#
# Static dielectric constant tensor:
#      x y z
#    x 3.805240 0.000000 0.000000 
#    y 0.000000 3.775400 0.000000 
#    z 0.000000 0.000000 3.829360 
# 
# 
# High freq. dielectric constant tensor:
#      x y z
#    x 1.787370 0.000000 0.000000 
#    y 0.000000 1.778620 0.000000 
#    z 0.000000 0.000000 1.806270 
# 
# From -- ./inp_files/12534.got.cif
#   From: 2010.03.12/outbox.cif.g09.slc.cpg/sg63_7_cif.got.tgz:12534.got - 2010.04.10 19:34:48.
