data_PCOD8257217
_publ_section_title
;
Structure prediction by ZEFSAII (Michael W. Deem and Ramdas Pophale) SiO2 
 PCOD8257217
Probable space group: C M C M
;
_chemical_formula_sum "Si O2"
_cell_formula_units_Z 112
_cell_length_a 13.765469
_cell_length_b 16.689233
_cell_length_c 27.870610
_cell_angle_alpha 90.000000
_cell_angle_beta 90.000000
_cell_angle_gamma 90.000000
_cell_volume 6402.857919
_symmetry_space_group_name_H-M "C M C M"
_symmetry_group_IT_number 63
_symmetry_cell_setting 'orthorhombic'
loop_
_space_group_symop_operation_xyz
x,y,z
-x,-y,1/2+z
x,-y,-z
-x,y,1/2-z
-x,-y,-z
x,y,1/2-z
-x,y,z
x,-y,1/2+z
1/2+x,1/2+y,z
1/2-x,1/2-y,1/2+z
1/2+x,1/2-y,-z
1/2-x,1/2+y,1/2-z
1/2-x,1/2-y,-z
1/2+x,1/2+y,1/2-z
1/2-x,1/2+y,z
1/2+x,1/2-y,1/2+z
loop_
_atom_site_type_symbol
_atom_site_label
_atom_site_fract_x
_atom_site_fract_y
_atom_site_fract_z
Si Si1 0.612271 0.090928 0.984537
Si Si2 0.615441 0.404524 0.802997
Si Si3 0.114865 0.274840 0.305406
Si Si4 0.892861 0.041338 0.868748
Si Si5 0.261228 0.193656 0.455582
Si Si6 0.393493 0.440466 0.962094
Si Si7 0.771975 0.337998 0.393077
O O1 0.500000 0.107982 0.973322
O O2 0.672290 0.116058 0.936509
O O3 0.643428 0.140920 0.032303
O O4 0.631112 0.000000 0.000000
O O5 0.655541 0.417469 0.750000
O O6 0.500000 0.410023 0.805491
O O7 0.646224 0.315697 0.820113
O O8 0.659687 0.478186 0.832973
O O9 0.147428 0.293690 0.250000
O O10 0.162847 0.333061 0.344923
O O11 0.000000 0.285665 0.309045
O O12 0.824800 0.116413 0.877741
O O13 0.000000 0.071117 0.850726
O O14 0.909843 0.991032 0.915572
O O15 0.250000 0.250000 0.500000
O O16 0.167318 0.138026 0.451394
O O17 0.265356 0.249351 0.408502
O O18 0.500000 0.413400 0.981899
O O19 0.340699 0.500000 0.000000
#
# Coordination Sequence:
#
# PCOD8257217 Si02
#       7
#    16  16  16  16  16  16  16
#     4  10  21  36  51  68  96 135 176 213 248 296
#     4   8  15  30  51  72  95 124 158 199 247 296
#     4   9  18  33  53  78 105 130 162 206 253 302
#     4  10  20  32  48  71  98 128 163 202 244 293
#     4  10  20  31  46  70  97 126 161 202 247 298
#     4  10  19  32  50  69  93 125 160 201 245 288
#     4  11  21  32  51  76 103 134 167 206 256 308
#
# _framework density 17.492189
#
# number of rings (size 3 to 8) (size 9 to 14) (size 15 to 20)
#    0.000    2.286    0.000    5.143    0.000    5.143 
#    0.000    0.000    0.000    0.000    0.000    0.000 
#    0.000    2.286    0.000    0.000    0.000    0.000 
#
# Total GULP energy -693735.575664 kJ/mol
# GULP energy per Si atom -12388.135280 kJ/mol
# Density = 1.745238 g / cm^3
# Si number density = 17.492189 Si / 1000 Ang^3
#
#
#
# Elastic Constant Matrix: (Units=GPa)
#
#
# Indices 1 2 3 4 5 6 
#
# 1 75.2633 47.5491 36.8756 0.0000 0.0000 0.0000
# 2 47.5491 103.1388 43.6751 0.0000 0.0000 0.0000
# 3 36.8756 43.6751 86.3966 0.0000 0.0000 0.0000
# 4 0.0000 0.0000 0.0000 36.2640 0.0000 0.0000
# 5 0.0000 0.0000 0.0000 0.0000 24.7762 0.0000
# 6 0.0000 0.0000 0.0000 0.0000 0.0000 29.7081
#
#
#
# Elastic Compliance Matrix: (Units=1/GPa)
#
#
# Indices 1 2 3 4 5 6 
#
# 1 0.020319 -0.007246 -0.005009 0.000000 0.000000 0.000000
# 2 -0.007246 0.014921 -0.004450 0.000000 0.000000 0.000000
# 3 -0.005009 -0.004450 0.015962 0.000000 0.000000 0.000000
# 4 0.000000 0.000000 0.000000 0.027576 0.000000 0.000000
# 5 0.000000 0.000000 0.000000 0.000000 0.040361 0.000000
# 6 0.000000 0.000000 0.000000 0.000000 0.000000 0.033661
#
#
# Mechanical properties :
#
#
# Convention : Reuss Voigt Hill
#
# Bulk Modulus (GPa) = 56.20876 57.88871 57.04874
# Shear Modulus (GPa) = 26.02261 27.26294 26.64277
#
# Velocity S-wave (km/s) = 3.86122 3.95217 3.90696
# Velocity P-wave (km/s) = 7.21679 7.34793 7.28265
#
# Compressibility (1/GPa) = 0.01779082
#
# Stress axis : x y z
#
# Youngs Moduli (GPa) = 49.21502 67.02114 62.64832
#
# Poissons Ratio (x) = 0.48565 0.31383
# Poissons Ratio (y) = 0.35662 0.27878
# Poissons Ratio (z) = 0.24654 0.29824
#
# Static dielectric constant tensor:
#      x y z
#    x 3.175550 0.000000 0.000000 
#    y 0.000000 3.229050 0.000000 
#    z 0.000000 0.000000 3.500890 
# 
# 
# High freq. dielectric constant tensor:
#      x y z
#    x 1.654000 0.000000 0.000000 
#    y 0.000000 1.678290 0.000000 
#    z 0.000000 0.000000 1.674590 
# 
# From -- ./inp_files/69388.got.cif
#   From: 2010.03.12/outbox.cif.g09.slc.cpg/sg63_35_cif.got.tgz:69388.got - 2010.04.10 19:34:48.
