data_PCOD8257897
_publ_section_title
;
Structure prediction by ZEFSAII (Michael W. Deem and Ramdas Pophale) SiO2 
 PCOD8257897
Probable space group: C M C M
;
_chemical_formula_sum "Si O2"
_cell_formula_units_Z 96
_cell_length_a 16.218960
_cell_length_b 11.052834
_cell_length_c 26.454772
_cell_angle_alpha 90.000000
_cell_angle_beta 90.000000
_cell_angle_gamma 90.000000
_cell_volume 4742.427203
_symmetry_space_group_name_H-M "C M C M"
_symmetry_group_IT_number 63
_symmetry_cell_setting 'orthorhombic'
loop_
_space_group_symop_operation_xyz
x,y,z
-x,-y,1/2+z
x,-y,-z
-x,y,1/2-z
-x,-y,-z
x,y,1/2-z
-x,y,z
x,-y,1/2+z
1/2+x,1/2+y,z
1/2-x,1/2-y,1/2+z
1/2+x,1/2-y,-z
1/2-x,1/2+y,1/2-z
1/2-x,1/2-y,-z
1/2+x,1/2+y,1/2-z
1/2-x,1/2+y,z
1/2+x,1/2-y,1/2+z
loop_
_atom_site_type_symbol
_atom_site_label
_atom_site_fract_x
_atom_site_fract_y
_atom_site_fract_z
Si Si1 0.098403 0.737532 0.840827
Si Si2 0.685886 0.151764 0.250000
Si Si3 0.902543 0.994443 0.807195
Si Si4 0.402036 0.137808 0.445702
Si Si5 0.186246 0.626323 0.750000
Si Si6 0.901679 0.247339 0.655889
Si Si7 0.402073 0.134209 0.944570
O O1 0.135263 0.870383 0.828679
O O2 0.130854 0.640728 0.800279
O O3 0.132423 0.709130 0.897017
O O4 0.000000 0.734902 0.838056
O O5 0.749677 0.262845 0.250000
O O6 0.630840 0.164521 0.199643
O O7 0.722146 0.012658 0.250000
O O8 0.874035 0.011089 0.750000
O O9 0.000000 0.987251 0.811643
O O10 0.868353 0.110407 0.837127
O O11 0.500000 0.137942 0.442532
O O12 0.366531 0.214979 0.399047
O O13 0.374336 0.190311 0.500897
O O14 0.368393 0.001912 0.440326
O O15 0.000000 0.252098 0.658629
O O16 0.500000 0.132720 0.941907
#
# Coordination Sequence:
#
# PCOD8257897 Si02
#       7
#    16   8  16  16   8  16  16
#     4  10  19  34  58  82 107 140 186 225 267 324
#     4  12  27  39  54  80 112 145 180 229 281 325
#     4   9  16  28  49  77 105 143 176 213 269 317
#     4   8  14  26  47  77 109 135 165 218 279 321
#     4  12  27  39  54  80 112 145 180 229 281 325
#     4  10  19  34  58  82 107 140 186 225 267 324
#     4   8  14  26  47  77 109 135 165 218 279 321
#
# _framework density 20.242799000000002
#
# number of rings (size 3 to 8) (size 9 to 14) (size 15 to 20)
#    0.000    2.500    1.667    2.500    2.333    2.667 
#    0.000    0.833    0.000    6.000    0.000    0.000 
#    0.000    0.000    0.000    0.000    0.000    0.000 
#
# Total GULP energy -594739.183647 kJ/mol
# GULP energy per Si atom -12390.399659 kJ/mol
# Density = 2.019673 g / cm^3
# Si number density = 20.242799 Si / 1000 Ang^3
#
#
#
# Elastic Constant Matrix: (Units=GPa)
#
#
# Indices 1 2 3 4 5 6 
#
# 1 15.3225 6.6342 -7.3853 0.0000 0.0000 0.0000
# 2 6.6342 108.2614 25.2944 0.0000 0.0000 0.0000
# 3 -7.3853 25.2944 120.1270 0.0000 0.0000 0.0000
# 4 0.0000 0.0000 0.0000 41.4316 0.0000 0.0000
# 5 0.0000 0.0000 0.0000 0.0000 2.8336 0.0000
# 6 0.0000 0.0000 0.0000 0.0000 0.0000 16.5716
#
#
#
# Elastic Compliance Matrix: (Units=1/GPa)
#
#
# Indices 1 2 3 4 5 6 
#
# 1 0.070339 -0.005596 0.005503 0.000000 0.000000 0.000000
# 2 -0.005596 0.010160 -0.002483 0.000000 0.000000 0.000000
# 3 0.005503 -0.002483 0.009186 0.000000 0.000000 0.000000
# 4 0.000000 0.000000 0.000000 0.024136 0.000000 0.000000
# 5 0.000000 0.000000 0.000000 0.000000 0.352903 0.000000
# 6 0.000000 0.000000 0.000000 0.000000 0.000000 0.060344
#
#
# Mechanical properties :
#
#
# Convention : Reuss Voigt Hill
#
# Bulk Modulus (GPa) = 11.82995 32.53304 22.18150
# Shear Modulus (GPa) = 8.92223 26.77854 17.85038
#
# Velocity S-wave (km/s) = 2.10171 3.64107 2.97276
# Velocity P-wave (km/s) = 3.42729 5.81230 4.77122
#
# Compressibility (1/GPa) = 0.08453119
#
# Stress axis : x y z
#
# Youngs Moduli (GPa) = 14.21692 98.42484 108.86443
#
# Poissons Ratio (x) = 0.55078 -0.59905
# Poissons Ratio (y) = 0.07956 0.27035
# Poissons Ratio (z) = -0.07823 0.24443
#
# Static dielectric constant tensor:
#      x y z
#    x 3.154850 0.000000 0.000000 
#    y 0.000000 3.915580 0.000000 
#    z 0.000000 0.000000 4.202450 
# 
# 
# High freq. dielectric constant tensor:
#      x y z
#    x 1.744070 0.000000 0.000000 
#    y 0.000000 1.785940 0.000000 
#    z 0.000000 0.000000 1.802350 
# 
# From -- ./inp_files/63775.got.cif
#   From: 2010.03.12/outbox.cif.g09.slc.cpg/sg63_32_cif.got.tgz:63775.got - 2010.04.10 19:34:48.
