data_PCOD8257819
_publ_section_title
;
Structure prediction by ZEFSAII (Michael W. Deem and Ramdas Pophale) SiO2 
 PCOD8257819
Probable space group: C M C M
;
_chemical_formula_sum "Si O2"
_cell_formula_units_Z 88
_cell_length_a 19.154890
_cell_length_b 27.859744
_cell_length_c 8.588028
_cell_angle_alpha 90.000000
_cell_angle_beta 90.000000
_cell_angle_gamma 90.000000
_cell_volume 4583.003991
_symmetry_space_group_name_H-M "C M C M"
_symmetry_group_IT_number 63
_symmetry_cell_setting 'orthorhombic'
loop_
_space_group_symop_operation_xyz
x,y,z
-x,-y,1/2+z
x,-y,-z
-x,y,1/2-z
-x,-y,-z
x,y,1/2-z
-x,y,z
x,-y,1/2+z
1/2+x,1/2+y,z
1/2-x,1/2-y,1/2+z
1/2+x,1/2-y,-z
1/2-x,1/2+y,1/2-z
1/2-x,1/2-y,-z
1/2+x,1/2+y,1/2-z
1/2-x,1/2+y,z
1/2+x,1/2-y,1/2+z
loop_
_atom_site_type_symbol
_atom_site_label
_atom_site_fract_x
_atom_site_fract_y
_atom_site_fract_z
Si Si1 0.277624 0.450187 0.933874
Si Si2 0.000000 0.552063 0.432895
Si Si3 0.140369 0.586107 0.930102
Si Si4 0.324205 0.651508 0.070804
Si Si5 0.174568 0.316497 0.930077
Si Si6 0.419405 0.266288 0.565222
O O1 0.283878 0.452039 0.750000
O O2 0.315327 0.401935 0.005804
O O3 0.310103 0.500000 0.000000
O O4 0.196662 0.446921 0.982026
O O5 0.000000 0.500000 0.500000
O O6 0.933757 0.579708 0.493616
O O7 0.000000 0.550423 0.250000
O O8 0.140608 0.571682 0.750000
O O9 0.153309 0.642155 0.951369
O O10 0.332121 0.639362 0.250000
O O11 0.258329 0.687672 0.044900
O O12 0.393091 0.680289 0.014324
O O13 0.158918 0.329988 0.750000
O O14 0.130721 0.269865 0.974314
O O15 0.410719 0.258853 0.750000
O O16 0.500000 0.260047 0.514039
#
# Coordination Sequence:
#
# PCOD8257819 Si02
#       6
#    16   8  16  16  16  16
#     4  10  19  34  55  79 105 134 173 218 267 318
#     4  12  24  38  52  70 100 140 180 220 267 314
#     4  11  22  36  53  75 103 136 178 221 263 312
#     4   8  17  34  54  77 105 139 178 220 265 318
#     4  10  20  35  54  76 105 141 179 220 266 317
#     4  10  20  34  54  79 107 139 178 223 271 323
#
# _framework density 19.201378999999999
#
# number of rings (size 3 to 8) (size 9 to 14) (size 15 to 20)
#    0.000    2.000    0.000    5.727    1.273    0.364 
#    0.000    4.545    0.000    0.545    0.000    0.000 
#    0.000    0.000    0.000    0.000    0.000    0.727 
#
# Total GULP energy -545225.372024 kJ/mol
# GULP energy per Si atom -12391.485728 kJ/mol
# Density = 1.915768 g / cm^3
# Si number density = 19.201379 Si / 1000 Ang^3
#
#
#
# Elastic Constant Matrix: (Units=GPa)
#
#
# Indices 1 2 3 4 5 6 
#
# 1 59.2218 38.6198 16.1710 0.0000 0.0000 0.0000
# 2 38.6198 114.4670 23.0901 0.0000 0.0000 0.0000
# 3 16.1710 23.0901 71.6107 0.0000 0.0000 0.0000
# 4 0.0000 0.0000 0.0000 27.5784 0.0000 0.0000
# 5 0.0000 0.0000 0.0000 0.0000 16.9121 0.0000
# 6 0.0000 0.0000 0.0000 0.0000 0.0000 17.1124
#
#
#
# Elastic Compliance Matrix: (Units=1/GPa)
#
#
# Indices 1 2 3 4 5 6 
#
# 1 0.022152 -0.006914 -0.002773 0.000000 0.000000 0.000000
# 2 -0.006914 0.011502 -0.002147 0.000000 0.000000 0.000000
# 3 -0.002773 -0.002147 0.015283 0.000000 0.000000 0.000000
# 4 0.000000 0.000000 0.000000 0.036260 0.000000 0.000000
# 5 0.000000 0.000000 0.000000 0.000000 0.059129 0.000000
# 6 0.000000 0.000000 0.000000 0.000000 0.000000 0.058437
#
#
# Mechanical properties :
#
#
# Convention : Reuss Voigt Hill
#
# Bulk Modulus (GPa) = 39.57612 44.56237 42.06924
# Shear Modulus (GPa) = 21.28971 23.48183 22.38577
#
# Velocity S-wave (km/s) = 3.33342 3.50083 3.41815
# Velocity P-wave (km/s) = 5.95579 6.29280 6.12661
#
# Compressibility (1/GPa) = 0.02526776
#
# Stress axis : x y z
#
# Youngs Moduli (GPa) = 45.14299 86.94030 65.43252
#
# Poissons Ratio (x) = 0.60114 0.18143
# Poissons Ratio (y) = 0.31214 0.14051
# Poissons Ratio (z) = 0.12517 0.18669
#
# Static dielectric constant tensor:
#      x y z
#    x 3.409160 0.000000 0.000000 
#    y 0.000000 3.857290 0.000000 
#    z 0.000000 0.000000 3.404210 
# 
# 
# High freq. dielectric constant tensor:
#      x y z
#    x 1.724380 0.000000 0.000000 
#    y 0.000000 1.756110 0.000000 
#    z 0.000000 0.000000 1.736790 
# 
# From -- ./inp_files/6779.got.cif
#   From: 2010.03.12/outbox.cif.g09.slc.cpg/sg63_4_cif.got.tgz:6779.got - 2010.04.10 19:34:48.
