data_PCOD8257265
_publ_section_title
;
Structure prediction by ZEFSAII (Michael W. Deem and Ramdas Pophale) SiO2 
 PCOD8257265
Probable space group: C M C M
;
_chemical_formula_sum "Si O2"
_cell_formula_units_Z 96
_cell_length_a 12.458678
_cell_length_b 21.159839
_cell_length_c 20.558785
_cell_angle_alpha 90.000000
_cell_angle_beta 90.000000
_cell_angle_gamma 90.000000
_cell_volume 5419.781338
_symmetry_space_group_name_H-M "C M C M"
_symmetry_group_IT_number 63
_symmetry_cell_setting 'orthorhombic'
loop_
_space_group_symop_operation_xyz
x,y,z
-x,-y,1/2+z
x,-y,-z
-x,y,1/2-z
-x,-y,-z
x,y,1/2-z
-x,y,z
x,-y,1/2+z
1/2+x,1/2+y,z
1/2-x,1/2-y,1/2+z
1/2+x,1/2-y,-z
1/2-x,1/2+y,1/2-z
1/2-x,1/2-y,-z
1/2+x,1/2+y,1/2-z
1/2-x,1/2+y,z
1/2+x,1/2-y,1/2+z
loop_
_atom_site_type_symbol
_atom_site_label
_atom_site_fract_x
_atom_site_fract_y
_atom_site_fract_z
Si Si1 0.800851 0.098263 0.021757
Si Si2 0.379275 0.482629 0.409401
Si Si3 0.274573 0.394207 0.177290
Si Si4 0.878770 0.359077 0.069471
Si Si5 0.208000 0.228251 0.069220
Si Si6 0.375060 0.259599 0.175430
O O1 0.848905 0.159751 0.059572
O O2 0.797876 0.039232 0.071466
O O3 0.872275 0.076213 0.960309
O O4 0.683097 0.119560 0.996350
O O5 0.500000 0.509320 0.408805
O O6 0.346899 0.455653 0.339162
O O7 0.231299 0.399747 0.250000
O O8 0.171428 0.395309 0.130813
O O9 0.349442 0.333397 0.166863
O O10 0.874844 0.284052 0.087420
O O11 0.000000 0.380913 0.060152
O O12 0.301312 0.221330 0.124206
O O13 0.250000 0.250000 0.000000
O O14 0.350370 0.238250 0.250000
O O15 0.500000 0.247973 0.158601
#
# Coordination Sequence:
#
# PCOD8257265 Si02
#       6
#    16  16  16  16  16  16
#     4   9  18  32  46  70 100 125 155 195 237 280
#     4  10  19  32  51  72  95 124 154 190 245 296
#     4   9  18  32  49  72  97 119 155 202 237 277
#     4   9  18  31  48  69  94 128 162 193 236 282
#     4   9  18  30  47  74 102 125 158 201 241 284
#     4   9  17  31  52  75  99 127 157 196 248 295
#
# _framework density 17.712892
#
# number of rings (size 3 to 8) (size 9 to 14) (size 15 to 20)
#    0.000    2.833    0.000    2.500    0.000    5.333 
#    0.000   10.000    0.000    0.000    0.000    2.333 
#    0.000    0.000    0.000    0.000    0.000    0.000 
#
# Total GULP energy -594724.920822 kJ/mol
# GULP energy per Si atom -12390.102517 kJ/mol
# Density = 1.767258 g / cm^3
# Si number density = 17.712892 Si / 1000 Ang^3
#
#
#
# Elastic Constant Matrix: (Units=GPa)
#
#
# Indices 1 2 3 4 5 6 
#
# 1 89.7659 30.9792 22.5899 0.0000 0.0000 0.0000
# 2 30.9792 102.2733 36.6312 0.0000 0.0000 0.0000
# 3 22.5899 36.6312 77.6203 0.0000 0.0000 0.0000
# 4 0.0000 0.0000 0.0000 26.8308 0.0000 0.0000
# 5 0.0000 0.0000 0.0000 0.0000 20.0843 0.0000
# 6 0.0000 0.0000 0.0000 0.0000 0.0000 13.2416
#
#
#
# Elastic Compliance Matrix: (Units=1/GPa)
#
#
# Indices 1 2 3 4 5 6 
#
# 1 0.012766 -0.003052 -0.002275 0.000000 0.000000 0.000000
# 2 -0.003052 0.012496 -0.005009 0.000000 0.000000 0.000000
# 3 -0.002275 -0.005009 0.015909 0.000000 0.000000 0.000000
# 4 0.000000 0.000000 0.000000 0.037271 0.000000 0.000000
# 5 0.000000 0.000000 0.000000 0.000000 0.049790 0.000000
# 6 0.000000 0.000000 0.000000 0.000000 0.000000 0.075520
#
#
# Mechanical properties :
#
#
# Convention : Reuss Voigt Hill
#
# Bulk Modulus (GPa) = 48.78224 50.00667 49.39446
# Shear Modulus (GPa) = 21.62094 23.99528 22.80811
#
# Velocity S-wave (km/s) = 3.49755 3.68459 3.59229
# Velocity P-wave (km/s) = 6.62652 6.81136 6.71958
#
# Compressibility (1/GPa) = 0.02049926
#
# Stress axis : x y z
#
# Youngs Moduli (GPa) = 78.33385 80.02350 62.85651
#
# Poissons Ratio (x) = 0.24424 0.14299
# Poissons Ratio (y) = 0.23908 0.31486
# Poissons Ratio (z) = 0.17820 0.40085
#
# Static dielectric constant tensor:
#      x y z
#    x 3.028840 0.000000 0.000000 
#    y 0.000000 3.553470 0.000000 
#    z 0.000000 0.000000 3.412030 
# 
# 
# High freq. dielectric constant tensor:
#      x y z
#    x 1.658080 0.000000 0.000000 
#    y 0.000000 1.672620 0.000000 
#    z 0.000000 0.000000 1.677880 
# 
# From -- ./inp_files/52847.got.cif
#   From: 2010.03.12/outbox.cif.g09.slc.cpg/sg63_27_cif.got.tgz:52847.got - 2010.04.10 19:34:48.
