data_PCOD8257235
_publ_section_title
;
Structure prediction by ZEFSAII (Michael W. Deem and Ramdas Pophale) SiO2 
 PCOD8257235
Probable space group: C M C M
;
_chemical_formula_sum "Si O2"
_cell_formula_units_Z 72
_cell_length_a 15.698622
_cell_length_b 28.652952
_cell_length_c 9.046724
_cell_angle_alpha 90.000000
_cell_angle_beta 90.000000
_cell_angle_gamma 90.000000
_cell_volume 4069.323773
_symmetry_space_group_name_H-M "C M C M"
_symmetry_group_IT_number 63
_symmetry_cell_setting 'orthorhombic'
loop_
_space_group_symop_operation_xyz
x,y,z
-x,-y,1/2+z
x,-y,-z
-x,y,1/2-z
-x,-y,-z
x,y,1/2-z
-x,y,z
x,-y,1/2+z
1/2+x,1/2+y,z
1/2-x,1/2-y,1/2+z
1/2+x,1/2-y,-z
1/2-x,1/2+y,1/2-z
1/2-x,1/2-y,-z
1/2+x,1/2+y,1/2-z
1/2-x,1/2+y,z
1/2+x,1/2-y,1/2+z
loop_
_atom_site_type_symbol
_atom_site_label
_atom_site_fract_x
_atom_site_fract_y
_atom_site_fract_z
Si Si1 0.667162 0.615949 0.422431
Si Si2 0.671697 0.724401 0.075583
Si Si3 0.000000 0.774417 0.081673
Si Si4 0.000000 0.548278 0.420559
Si Si5 0.500000 0.614655 0.915619
Si Si6 0.183706 0.549849 0.076136
O O1 0.652249 0.608691 0.250000
O O2 0.683325 0.669872 0.459405
O O3 0.583886 0.595859 0.503136
O O4 0.747338 0.586670 0.482826
O O5 0.669946 0.734580 0.250000
O O6 0.750000 0.750000 0.000000
O O7 0.584021 0.743614 0.003819
O O8 0.000000 0.829825 0.080390
O O9 0.000000 0.755145 0.250000
O O10 0.000000 0.500000 0.500000
O O11 0.090118 0.573051 0.461165
O O12 0.000000 0.536302 0.250000
O O13 0.500000 0.595077 0.750000
O O14 0.194426 0.541961 0.250000
O O15 0.196922 0.500000 0.000000
#
# Coordination Sequence:
#
# PCOD8257235 Si02
#       6
#    16  16   8   8   8  16
#     4   9  18  32  49  69  95 126 158 192 235 284
#     4  10  19  32  50  72  98 128 161 199 241 287
#     4   9  17  31  50  71  94 124 162 200 239 288
#     4   8  14  26  45  66  89 117 150 184 219 266
#     4   9  17  29  48  71  92 119 158 198 235 278
#     4   9  17  30  48  70  94 122 156 193 233 278
#
# _framework density 17.693359000000001
#
# number of rings (size 3 to 8) (size 9 to 14) (size 15 to 20)
#    0.000    2.889    0.000    1.333    0.000    4.444 
#    0.000    1.667    0.000    4.000    0.000    3.111 
#    0.000    0.000    0.000    0.000    0.000    0.000 
#
# Total GULP energy -446125.678133 kJ/mol
# GULP energy per Si atom -12392.379948 kJ/mol
# Density = 1.765309 g / cm^3
# Si number density = 17.693359 Si / 1000 Ang^3
#
#
#
# Elastic Constant Matrix: (Units=GPa)
#
#
# Indices 1 2 3 4 5 6 
#
# 1 217.8041 61.9982 75.7863 0.0000 0.0000 0.0000
# 2 61.9982 45.8967 32.6332 0.0000 0.0000 0.0000
# 3 75.7863 32.6332 77.9633 0.0000 0.0000 0.0000
# 4 0.0000 0.0000 0.0000 19.9361 0.0000 0.0000
# 5 0.0000 0.0000 0.0000 0.0000 31.5555 0.0000
# 6 0.0000 0.0000 0.0000 0.0000 0.0000 31.2841
#
#
#
# Elastic Compliance Matrix: (Units=1/GPa)
#
#
# Indices 1 2 3 4 5 6 
#
# 1 0.008643 -0.008117 -0.005004 0.000000 0.000000 0.000000
# 2 -0.008117 0.038643 -0.008284 0.000000 0.000000 0.000000
# 3 -0.005004 -0.008284 0.021159 0.000000 0.000000 0.000000
# 4 0.000000 0.000000 0.000000 0.050160 0.000000 0.000000
# 5 0.000000 0.000000 0.000000 0.000000 0.031690 0.000000
# 6 0.000000 0.000000 0.000000 0.000000 0.000000 0.031965
#
#
# Mechanical properties :
#
#
# Convention : Reuss Voigt Hill
#
# Bulk Modulus (GPa) = 39.01152 75.83329 57.42241
# Shear Modulus (GPa) = 21.40259 27.97156 24.68707
#
# Velocity S-wave (km/s) = 3.48176 3.98038 3.73939
# Velocity P-wave (km/s) = 6.18547 8.00483 7.15323
#
# Compressibility (1/GPa) = 0.02563345
#
# Stress axis : x y z
#
# Youngs Moduli (GPa) = 115.69968 25.87764 47.26226
#
# Poissons Ratio (x) = 0.21006 0.23650
# Poissons Ratio (y) = 0.93917 0.39154
# Poissons Ratio (z) = 0.57897 0.21438
#
# Static dielectric constant tensor:
#      x y z
#    x 4.010170 0.000000 0.000000 
#    y 0.000000 2.896100 0.000000 
#    z 0.000000 0.000000 3.144310 
# 
# 
# High freq. dielectric constant tensor:
#      x y z
#    x 1.709780 0.000000 0.000000 
#    y 0.000000 1.634480 0.000000 
#    z 0.000000 0.000000 1.689130 
# 
# From -- ./inp_files/4965.got.cif
#   From: 2010.03.12/outbox.cif.g09.slc.cpg/sg63_3_cif.got.tgz:4965.got - 2010.04.10 19:34:48.
