data_PCOD8257580
_publ_section_title
;
Structure prediction by ZEFSAII (Michael W. Deem and Ramdas Pophale) SiO2 
 PCOD8257580
Probable space group: C M C M
;
_chemical_formula_sum "Si O2"
_cell_formula_units_Z 96
_cell_length_a 9.238729
_cell_length_b 20.645462
_cell_length_c 27.982376
_cell_angle_alpha 90.000000
_cell_angle_beta 90.000000
_cell_angle_gamma 90.000000
_cell_volume 5337.297634
_symmetry_space_group_name_H-M "C M C M"
_symmetry_group_IT_number 63
_symmetry_cell_setting 'orthorhombic'
loop_
_space_group_symop_operation_xyz
x,y,z
-x,-y,1/2+z
x,-y,-z
-x,y,1/2-z
-x,-y,-z
x,y,1/2-z
-x,y,z
x,-y,1/2+z
1/2+x,1/2+y,z
1/2-x,1/2-y,1/2+z
1/2+x,1/2-y,-z
1/2-x,1/2+y,1/2-z
1/2-x,1/2-y,-z
1/2+x,1/2+y,1/2-z
1/2-x,1/2+y,z
1/2+x,1/2-y,1/2+z
loop_
_atom_site_type_symbol
_atom_site_label
_atom_site_fract_x
_atom_site_fract_y
_atom_site_fract_z
Si Si1 0.670471 0.490059 0.890976
Si Si2 0.170475 0.123156 0.941116
Si Si3 0.167779 0.740354 0.896500
Si Si4 0.164407 0.187296 0.303413
Si Si5 0.669202 0.056666 0.195614
Si Si6 0.828370 0.132172 0.451348
O O1 0.500000 0.485946 0.881620
O O2 0.712636 0.553390 0.920694
O O3 0.751131 0.493009 0.839930
O O4 0.729623 0.428342 0.920595
O O5 0.241944 0.177193 0.908280
O O6 0.000000 0.134577 0.940412
O O7 0.232691 0.128061 0.994877
O O8 0.195405 0.755279 0.840610
O O9 0.224569 0.800868 0.927904
O O10 0.000000 0.726986 0.907241
O O11 0.187233 0.215114 0.250000
O O12 0.271165 0.128427 0.313793
O O13 0.000000 0.161493 0.310636
O O14 0.701493 0.034834 0.250000
O O15 0.500000 0.056858 0.184621
O O16 0.000000 0.127946 0.452066
#
# Coordination Sequence:
#
# PCOD8257580 Si02
#       6
#    16  16  16  16  16  16
#     4  10  19  35  56  77 103 139 179 214 252 306
#     4  10  21  34  52  77 107 140 174 216 261 303
#     4  10  19  33  53  77 107 139 172 212 258 312
#     4   9  17  32  55  79 101 132 175 215 253 305
#     4  10  20  33  52  80 108 132 164 214 268 308
#     4   9  17  33  55  78 101 135 181 219 253 300
#
# _framework density 17.986630000000002
#
# number of rings (size 3 to 8) (size 9 to 14) (size 15 to 20)
#    0.000    2.333    1.667    1.500    0.000    4.333 
#    0.000    1.667    0.000    5.000    0.000    0.000 
#    0.000    0.000    0.000    0.000    0.000    0.000 
#
# Total GULP energy -595249.750307 kJ/mol
# GULP energy per Si atom -12401.036465 kJ/mol
# Density = 1.794569 g / cm^3
# Si number density = 17.986630 Si / 1000 Ang^3
#
#
#
# Elastic Constant Matrix: (Units=GPa)
#
#
# Indices 1 2 3 4 5 6 
#
# 1 43.3370 32.6475 39.8176 0.0000 0.0000 0.0000
# 2 32.6475 86.0139 42.4365 0.0000 0.0000 0.0000
# 3 39.8176 42.4365 130.6492 0.0000 0.0000 0.0000
# 4 0.0000 0.0000 0.0000 15.6778 0.0000 0.0000
# 5 0.0000 0.0000 0.0000 0.0000 24.8706 0.0000
# 6 0.0000 0.0000 0.0000 0.0000 0.0000 28.2763
#
#
#
# Elastic Compliance Matrix: (Units=1/GPa)
#
#
# Indices 1 2 3 4 5 6 
#
# 1 0.038728 -0.010570 -0.008370 0.000000 0.000000 0.000000
# 2 -0.010570 0.016730 -0.002213 0.000000 0.000000 0.000000
# 3 -0.008370 -0.002213 0.010924 0.000000 0.000000 0.000000
# 4 0.000000 0.000000 0.000000 0.063784 0.000000 0.000000
# 5 0.000000 0.000000 0.000000 0.000000 0.040208 0.000000
# 6 0.000000 0.000000 0.000000 0.000000 0.000000 0.035365
#
#
# Mechanical properties :
#
#
# Convention : Reuss Voigt Hill
#
# Bulk Modulus (GPa) = 41.53473 54.42260 47.97866
# Shear Modulus (GPa) = 19.52596 23.43818 21.48207
#
# Velocity S-wave (km/s) = 3.29839 3.61375 3.45966
# Velocity P-wave (km/s) = 6.13579 6.90906 6.53388
#
# Compressibility (1/GPa) = 0.02407624
#
# Stress axis : x y z
#
# Youngs Moduli (GPa) = 25.82111 59.77401 91.54536
#
# Poissons Ratio (x) = 0.63183 0.76621
# Poissons Ratio (y) = 0.27294 0.20255
# Poissons Ratio (z) = 0.21611 0.13225
#
# Static dielectric constant tensor:
#      x y z
#    x 3.119150 0.000000 0.000000 
#    y 0.000000 3.139700 0.000000 
#    z 0.000000 0.000000 3.688370 
# 
# 
# High freq. dielectric constant tensor:
#      x y z
#    x 1.673820 0.000000 0.000000 
#    y 0.000000 1.678390 0.000000 
#    z 0.000000 0.000000 1.715160 
# 
# From -- ./inp_files/66892.got.cif
#   From: 2010.03.12/outbox.cif.g09.slc.cpg/sg63_34_cif.got.tgz:66892.got - 2010.04.10 19:34:48.
