data_PCOD8257736
_publ_section_title
;
Structure prediction by ZEFSAII (Michael W. Deem and Ramdas Pophale) SiO2 
 PCOD8257736
Probable space group: C M C M
;
_chemical_formula_sum "Si O2"
_cell_formula_units_Z 88
_cell_length_a 10.743796
_cell_length_b 30.458198
_cell_length_c 13.955992
_cell_angle_alpha 90.000000
_cell_angle_beta 90.000000
_cell_angle_gamma 90.000000
_cell_volume 4566.912291
_symmetry_space_group_name_H-M "C M C M"
_symmetry_group_IT_number 63
_symmetry_cell_setting 'orthorhombic'
loop_
_space_group_symop_operation_xyz
x,y,z
-x,-y,1/2+z
x,-y,-z
-x,y,1/2-z
-x,-y,-z
x,y,1/2-z
-x,y,z
x,-y,1/2+z
1/2+x,1/2+y,z
1/2-x,1/2-y,1/2+z
1/2+x,1/2-y,-z
1/2-x,1/2+y,1/2-z
1/2-x,1/2-y,-z
1/2+x,1/2+y,1/2-z
1/2-x,1/2+y,z
1/2+x,1/2-y,1/2+z
loop_
_atom_site_type_symbol
_atom_site_label
_atom_site_fract_x
_atom_site_fract_y
_atom_site_fract_z
Si Si1 0.000000 0.860680 0.497751
Si Si2 0.770899 0.272521 0.137449
Si Si3 0.856760 0.013400 0.359408
Si Si4 0.208371 0.069562 0.527763
Si Si5 0.855994 0.633875 0.641188
Si Si6 0.000000 0.784392 0.636512
Si Si7 0.500000 0.718409 0.861497
O O1 0.119986 0.890402 0.494628
O O2 0.000000 0.833396 0.596427
O O3 0.000000 0.829361 0.406746
O O4 0.793924 0.272558 0.250000
O O5 0.787024 0.322550 0.101022
O O6 0.876238 0.240079 0.094501
O O7 0.629473 0.256270 0.110621
O O8 0.810822 0.017826 0.250000
O O9 0.768936 0.043474 0.427643
O O10 0.000000 0.029013 0.370134
O O11 0.848993 0.963112 0.393121
O O12 0.331448 0.091742 0.572823
O O13 0.812615 0.622913 0.750000
O O14 0.000000 0.645047 0.639051
O O15 0.000000 0.787369 0.750000
O O16 0.500000 0.708987 0.750000
#
# Coordination Sequence:
#
# PCOD8257736 Si02
#       7
#     8  16  16  16  16   8   8
#     4  12  22  31  54  86 110 140 183 232 287 338
#     4   9  17  33  54  76 109 149 190 234 284 331
#     4  10  20  35  57  81 114 151 178 223 289 353
#     4  11  20  36  53  85 117 137 185 237 279 342
#     4  10  19  33  57  83 111 152 194 233 280 336
#     4  10  22  38  53  74 111 158 198 233 277 343
#     4  10  20  32  51  82 111 137 179 246 294 324
#
# _framework density 19.269036
#
# number of rings (size 3 to 8) (size 9 to 14) (size 15 to 20)
#    0.000    1.818    4.545    1.091    0.000    2.182 
#    0.000    1.818    0.000    1.636    0.000    0.000 
#    0.000    0.000    0.000    0.000    0.000    0.000 
#
# Total GULP energy -545249.705305 kJ/mol
# GULP energy per Si atom -12392.038757 kJ/mol
# Density = 1.922518 g / cm^3
# Si number density = 19.269036 Si / 1000 Ang^3
#
#
#
# Elastic Constant Matrix: (Units=GPa)
#
#
# Indices 1 2 3 4 5 6 
#
# 1 108.0611 34.3848 18.7139 0.0000 0.0000 0.0000
# 2 34.3848 72.2287 24.6336 0.0000 0.0000 0.0000
# 3 18.7139 24.6336 96.5294 0.0000 0.0000 0.0000
# 4 0.0000 0.0000 0.0000 31.6287 0.0000 0.0000
# 5 0.0000 0.0000 0.0000 0.0000 11.4042 0.0000
# 6 0.0000 0.0000 0.0000 0.0000 0.0000 125.7701
#
#
#
# Elastic Compliance Matrix: (Units=1/GPa)
#
#
# Indices 1 2 3 4 5 6 
#
# 1 0.010972 -0.004927 -0.000870 0.000000 0.000000 0.000000
# 2 -0.004927 0.017377 -0.003479 0.000000 0.000000 0.000000
# 3 -0.000870 -0.003479 0.011416 0.000000 0.000000 0.000000
# 4 0.000000 0.000000 0.000000 0.031617 0.000000 0.000000
# 5 0.000000 0.000000 0.000000 0.000000 0.087687 0.000000
# 6 0.000000 0.000000 0.000000 0.000000 0.000000 0.007951
#
#
# Mechanical properties :
#
#
# Convention : Reuss Voigt Hill
#
# Bulk Modulus (GPa) = 47.14005 48.03155 47.58580
# Shear Modulus (GPa) = 25.95465 47.03306 36.49385
#
# Velocity S-wave (km/s) = 3.67408 4.94587 4.35663
# Velocity P-wave (km/s) = 6.52041 7.58923 7.07503
#
# Compressibility (1/GPa) = 0.02121338
#
# Stress axis : x y z
#
# Youngs Moduli (GPa) = 91.13812 57.54749 87.59571
#
# Poissons Ratio (x) = 0.28352 0.07620
# Poissons Ratio (y) = 0.44902 0.30477
# Poissons Ratio (z) = 0.07928 0.20023
#
# Static dielectric constant tensor:
#      x y z
#    x 3.607350 0.000000 0.000000 
#    y 0.000000 3.456760 0.000000 
#    z 0.000000 0.000000 3.488740 
# 
# 
# High freq. dielectric constant tensor:
#      x y z
#    x 1.736070 0.000000 0.000000 
#    y 0.000000 1.737860 0.000000 
#    z 0.000000 0.000000 1.747070 
# 
# From -- ./inp_files/30155.got.cif
#   From: 2010.03.12/outbox.cif.g09.slc.cpg/sg63_16_cif.got.tgz:30155.got - 2010.04.10 19:34:48.
