data_PCOD8257232
_publ_section_title
;
Structure prediction by ZEFSAII (Michael W. Deem and Ramdas Pophale) SiO2 
 PCOD8257232
Probable space group: C M C M
;
_chemical_formula_sum "Si O2"
_cell_formula_units_Z 96
_cell_length_a 8.954137
_cell_length_b 23.399511
_cell_length_c 23.693612
_cell_angle_alpha 90.000000
_cell_angle_beta 90.000000
_cell_angle_gamma 90.000000
_cell_volume 4964.343096
_symmetry_space_group_name_H-M "C M C M"
_symmetry_group_IT_number 63
_symmetry_cell_setting 'orthorhombic'
loop_
_space_group_symop_operation_xyz
x,y,z
-x,-y,1/2+z
x,-y,-z
-x,y,1/2-z
-x,-y,-z
x,y,1/2-z
-x,y,z
x,-y,1/2+z
1/2+x,1/2+y,z
1/2-x,1/2-y,1/2+z
1/2+x,1/2-y,-z
1/2-x,1/2+y,1/2-z
1/2-x,1/2-y,-z
1/2+x,1/2+y,1/2-z
1/2-x,1/2+y,z
1/2+x,1/2-y,1/2+z
loop_
_atom_site_type_symbol
_atom_site_label
_atom_site_fract_x
_atom_site_fract_y
_atom_site_fract_z
Si Si1 0.677666 0.435657 0.314079
Si Si2 0.167653 0.661501 0.314572
Si Si3 0.675278 0.378950 0.969179
Si Si4 0.176838 0.769028 0.596429
Si Si5 0.176587 0.148510 0.590150
Si Si6 0.177766 0.055343 0.137176
O O1 0.740250 0.429196 0.250000
O O2 0.500000 0.436523 0.312742
O O3 0.734205 0.383430 0.353396
O O4 0.737139 0.493528 0.343429
O O5 0.160600 0.678562 0.250000
O O6 0.260973 0.712265 0.342983
O O7 0.250373 0.601113 0.321013
O O8 0.000000 0.657745 0.339874
O O9 0.500000 0.376929 0.962870
O O10 0.733979 0.316933 0.948155
O O11 0.731111 0.429770 0.927309
O O12 0.719547 0.389418 0.034542
O O13 0.244471 0.708379 0.580784
O O14 0.000000 0.763684 0.598705
O O15 0.000000 0.158458 0.593224
O O16 0.000000 0.058817 0.143144
#
# Coordination Sequence:
#
# PCOD8257232 Si02
#       6
#    16  16  16  16  16  16
#     4   9  18  31  49  74 102 134 169 204 246 297
#     4  10  20  33  51  76 102 129 165 209 256 303
#     4   8  16  30  50  76  99 125 165 212 258 300
#     4  10  20  34  51  73 101 132 170 211 255 306
#     4  10  19  32  50  72 102 137 171 208 250 298
#     4   9  17  32  53  75 100 129 165 208 253 301
#
# _framework density 19.337907000000001
#
# number of rings (size 3 to 8) (size 9 to 14) (size 15 to 20)
#    0.000    2.667    0.000    3.000    0.000    3.333 
#    0.000    9.167    0.000    1.000    0.000    5.833 
#    0.000    0.000    0.000    0.000    0.000    0.000 
#
# Total GULP energy -594858.728138 kJ/mol
# GULP energy per Si atom -12392.890170 kJ/mol
# Density = 1.929389 g / cm^3
# Si number density = 19.337907 Si / 1000 Ang^3
#
#
#
# Elastic Constant Matrix: (Units=GPa)
#
#
# Indices 1 2 3 4 5 6 
#
# 1 42.1885 13.4974 23.7369 0.0000 0.0000 0.0000
# 2 13.4974 71.9157 52.8316 0.0000 0.0000 0.0000
# 3 23.7369 52.8316 145.1670 0.0000 0.0000 0.0000
# 4 0.0000 0.0000 0.0000 21.3524 0.0000 0.0000
# 5 0.0000 0.0000 0.0000 0.0000 15.6793 0.0000
# 6 0.0000 0.0000 0.0000 0.0000 0.0000 20.1516
#
#
#
# Elastic Compliance Matrix: (Units=1/GPa)
#
#
# Indices 1 2 3 4 5 6 
#
# 1 0.026414 -0.002436 -0.003433 0.000000 0.000000 0.000000
# 2 -0.002436 0.019204 -0.006591 0.000000 0.000000 0.000000
# 3 -0.003433 -0.006591 0.009849 0.000000 0.000000 0.000000
# 4 0.000000 0.000000 0.000000 0.046833 0.000000 0.000000
# 5 0.000000 0.000000 0.000000 0.000000 0.063779 0.000000
# 6 0.000000 0.000000 0.000000 0.000000 0.000000 0.049624
#
#
# Mechanical properties :
#
#
# Convention : Reuss Voigt Hill
#
# Bulk Modulus (GPa) = 32.73524 48.82257 40.77891
# Shear Modulus (GPa) = 19.93598 22.71700 21.32649
#
# Velocity S-wave (km/s) = 3.21429 3.43117 3.32450
# Velocity P-wave (km/s) = 5.54439 6.40305 5.98913
#
# Compressibility (1/GPa) = 0.03054812
#
# Stress axis : x y z
#
# Youngs Moduli (GPa) = 37.85913 52.07203 101.53793
#
# Poissons Ratio (x) = 0.12684 0.34853
# Poissons Ratio (y) = 0.09222 0.66922
# Poissons Ratio (z) = 0.12995 0.34320
#
# Static dielectric constant tensor:
#      x y z
#    x 3.248940 0.000000 0.000000 
#    y 0.000000 3.498990 0.000000 
#    z 0.000000 0.000000 3.888480 
# 
# 
# High freq. dielectric constant tensor:
#      x y z
#    x 1.715090 0.000000 0.000000 
#    y 0.000000 1.743850 0.000000 
#    z 0.000000 0.000000 1.763550 
# 
# From -- ./inp_files/59934.got.cif
#   From: 2010.03.12/outbox.cif.g09.slc.cpg/sg63_30_cif.got.tgz:59934.got - 2010.04.10 19:34:48.
