data_PCOD8257042
_publ_section_title
;
Structure prediction by ZEFSAII (Michael W. Deem and Ramdas Pophale) SiO2 
 PCOD8257042
Probable space group: C M C M
;
_chemical_formula_sum "Si O2"
_cell_formula_units_Z 104
_cell_length_a 13.750161
_cell_length_b 18.829357
_cell_length_c 22.636400
_cell_angle_alpha 90.000000
_cell_angle_beta 90.000000
_cell_angle_gamma 90.000000
_cell_volume 5860.715404
_symmetry_space_group_name_H-M "C M C M"
_symmetry_group_IT_number 63
_symmetry_cell_setting 'orthorhombic'
loop_
_space_group_symop_operation_xyz
x,y,z
-x,-y,1/2+z
x,-y,-z
-x,y,1/2-z
-x,-y,-z
x,y,1/2-z
-x,y,z
x,-y,1/2+z
1/2+x,1/2+y,z
1/2-x,1/2-y,1/2+z
1/2+x,1/2-y,-z
1/2-x,1/2+y,1/2-z
1/2-x,1/2-y,-z
1/2+x,1/2+y,1/2-z
1/2-x,1/2+y,z
1/2+x,1/2-y,1/2+z
loop_
_atom_site_type_symbol
_atom_site_label
_atom_site_fract_x
_atom_site_fract_y
_atom_site_fract_z
Si Si1 0.705364 0.732591 0.682104
Si Si2 0.114726 0.290188 0.483755
Si Si3 0.500000 0.203680 0.315955
Si Si4 0.000000 0.427618 0.318681
Si Si5 0.500000 0.066024 0.395735
Si Si6 0.686308 0.114121 0.619985
Si Si7 0.231819 0.179578 0.079088
Si Si8 0.205609 0.470519 0.936699
O O1 0.740054 0.734247 0.750000
O O2 0.591191 0.744884 0.675765
O O3 0.727608 0.656795 0.651817
O O4 0.763564 0.793993 0.646836
O O5 0.156979 0.353797 0.443556
O O6 0.138140 0.214404 0.452903
O O7 0.169420 0.294389 0.546324
O O8 0.000000 0.298387 0.494388
O O9 0.500000 0.170005 0.250000
O O10 0.500000 0.140940 0.363052
O O11 0.000000 0.504652 0.347578
O O12 0.093137 0.382037 0.337654
O O13 0.000000 0.440083 0.250000
O O14 0.405261 0.058989 0.437112
O O15 0.720617 0.032877 0.611174
O O16 0.222287 0.094302 0.079339
O O17 0.234346 0.500000 0.000000
#
# Coordination Sequence:
#
# PCOD8257042 Si02
#       8
#    16  16   8   8   8  16  16  16
#     4  10  21  37  53  76 107 140 184 225 263 316
#     4  10  20  35  55  81 112 137 179 223 264 315
#     4  10  19  33  53  74 101 136 181 228 260 303
#     4  10  19  31  49  76 110 143 173 213 269 330
#     4  10  20  30  46  78 106 143 168 215 269 329
#     4  10  20  34  53  78 108 144 174 220 269 325
#     4  10  21  34  55  82 105 149 176 218 271 318
#     4  11  20  32  51  77 112 138 175 214 270 327
#
# _framework density 17.745273999999998
#
# number of rings (size 3 to 8) (size 9 to 14) (size 15 to 20)
#    0.000    1.846    3.846    0.923    2.154    0.000 
#    0.000    0.769    1.692    0.462    0.000    0.000 
#    0.000    0.000    0.000    0.000    0.000    0.000 
#
# Total GULP energy -644851.782460 kJ/mol
# GULP energy per Si atom -12400.995817 kJ/mol
# Density = 1.770488 g / cm^3
# Si number density = 17.745274 Si / 1000 Ang^3
#
#
#
# Elastic Constant Matrix: (Units=GPa)
#
#
# Indices 1 2 3 4 5 6 
#
# 1 43.2645 23.9627 9.2729 0.0000 0.0000 0.0000
# 2 23.9627 112.1630 16.6624 0.0000 0.0000 0.0000
# 3 9.2729 16.6624 76.1276 0.0000 0.0000 0.0000
# 4 0.0000 0.0000 0.0000 16.5834 0.0000 0.0000
# 5 0.0000 0.0000 0.0000 0.0000 20.7154 0.0000
# 6 0.0000 0.0000 0.0000 0.0000 0.0000 21.3117
#
#
#
# Elastic Compliance Matrix: (Units=1/GPa)
#
#
# Indices 1 2 3 4 5 6 
#
# 1 0.026524 -0.005361 -0.002057 0.000000 0.000000 0.000000
# 2 -0.005361 0.010299 -0.001601 0.000000 0.000000 0.000000
# 3 -0.002057 -0.001601 0.013737 0.000000 0.000000 0.000000
# 4 0.000000 0.000000 0.000000 0.060301 0.000000 0.000000
# 5 0.000000 0.000000 0.000000 0.000000 0.048273 0.000000
# 6 0.000000 0.000000 0.000000 0.000000 0.000000 0.046923
#
#
# Mechanical properties :
#
#
# Convention : Reuss Voigt Hill
#
# Bulk Modulus (GPa) = 30.74984 36.81679 33.78332
# Shear Modulus (GPa) = 21.28241 23.83258 22.55749
#
# Velocity S-wave (km/s) = 3.46689 3.66872 3.56923
# Velocity P-wave (km/s) = 5.77857 6.22402 6.00543
#
# Compressibility (1/GPa) = 0.03252049
#
# Stress axis : x y z
#
# Youngs Moduli (GPa) = 37.70185 97.09882 72.79668
#
# Poissons Ratio (x) = 0.52054 0.14977
# Poissons Ratio (y) = 0.20212 0.11656
# Poissons Ratio (z) = 0.07757 0.15547
#
# Static dielectric constant tensor:
#      x y z
#    x 3.188240 0.000000 0.000000 
#    y 0.000000 3.449860 0.000000 
#    z 0.000000 0.000000 3.347280 
# 
# 
# High freq. dielectric constant tensor:
#      x y z
#    x 1.653570 0.000000 0.000000 
#    y 0.000000 1.689700 0.000000 
#    z 0.000000 0.000000 1.694570 
# 
# From -- ./inp_files/63179.got.cif
#   From: 2010.03.12/outbox.cif.g09.slc.cpg/sg63_32_cif.got.tgz:63179.got - 2010.04.10 19:34:48.
