data_PCOD8257141
_publ_section_title
;
Structure prediction by ZEFSAII (Michael W. Deem and Ramdas Pophale) SiO2 
 PCOD8257141
Probable space group: C M C M
;
_chemical_formula_sum "Si O2"
_cell_formula_units_Z 104
_cell_length_a 21.529690
_cell_length_b 26.475525
_cell_length_c 9.037018
_cell_angle_alpha 90.000000
_cell_angle_beta 90.000000
_cell_angle_gamma 90.000000
_cell_volume 5151.189237
_symmetry_space_group_name_H-M "C M C M"
_symmetry_group_IT_number 63
_symmetry_cell_setting 'orthorhombic'
loop_
_space_group_symop_operation_xyz
x,y,z
-x,-y,1/2+z
x,-y,-z
-x,y,1/2-z
-x,-y,-z
x,y,1/2-z
-x,y,z
x,-y,1/2+z
1/2+x,1/2+y,z
1/2-x,1/2-y,1/2+z
1/2+x,1/2-y,-z
1/2-x,1/2+y,1/2-z
1/2-x,1/2-y,-z
1/2+x,1/2+y,1/2-z
1/2-x,1/2+y,z
1/2+x,1/2-y,1/2+z
loop_
_atom_site_type_symbol
_atom_site_label
_atom_site_fract_x
_atom_site_fract_y
_atom_site_fract_z
Si Si1 0.896076 0.113078 0.421481
Si Si2 0.756295 0.201355 0.592222
Si Si3 0.500000 0.447273 0.424044
Si Si4 0.772941 0.948335 0.576629
Si Si5 0.072555 0.324212 0.922544
Si Si6 0.103232 0.789309 0.412576
Si Si7 0.173505 0.387168 0.073525
O O1 0.913158 0.105467 0.250000
O O2 0.824316 0.096120 0.449454
O O3 0.917552 0.170539 0.463852
O O4 0.937307 0.079364 0.526889
O O5 0.723306 0.210463 0.750000
O O6 0.750000 0.250000 0.500000
O O7 0.827866 0.191111 0.615074
O O8 0.721072 0.155534 0.516213
O O9 0.500000 0.500000 0.500000
O O10 0.500000 0.453156 0.250000
O O11 0.763046 0.957924 0.750000
O O12 0.705021 0.935685 0.504074
O O13 0.796777 0.000000 0.500000
O O14 0.086803 0.332008 0.750000
O O15 0.096260 0.268242 0.972376
O O16 0.000000 0.328744 0.958724
O O17 0.106370 0.369557 0.011956
O O18 0.069139 0.793008 0.250000
O O19 0.170215 0.395560 0.250000
#
# Coordination Sequence:
#
# PCOD8257141 Si02
#       7
#    16  16   8  16  16  16  16
#     4  11  24  40  60  89 122 160 205 252 302 357
#     4  10  19  31  52  81 114 152 192 236 286 343
#     4  12  26  44  64  82 112 158 208 258 305 356
#     4  11  24  41  64  91 121 154 195 250 310 367
#     4  10  22  39  59  85 121 165 210 250 299 362
#     4  10  20  35  55  83 119 160 201 243 294 350
#     4  11  22  37  59  88 121 156 199 249 306 365
#
# _framework density 20.189513000000002
#
# number of rings (size 3 to 8) (size 9 to 14) (size 15 to 20)
#    0.000    1.385    3.077    2.538    1.077    5.231 
#    0.000    0.000    0.000    0.462    0.000    0.000 
#    0.000    0.000    0.000    0.000    0.000    0.000 
#
# Total GULP energy -644218.488117 kJ/mol
# GULP energy per Si atom -12388.817079 kJ/mol
# Density = 2.014356 g / cm^3
# Si number density = 20.189513 Si / 1000 Ang^3
#
#
#
# Elastic Constant Matrix: (Units=GPa)
#
#
# Indices 1 2 3 4 5 6 
#
# 1 89.6594 16.1964 36.2875 0.0000 0.0000 0.0000
# 2 16.1964 61.2020 39.6917 0.0000 0.0000 0.0000
# 3 36.2875 39.6917 121.5025 0.0000 0.0000 0.0000
# 4 0.0000 0.0000 0.0000 36.2841 0.0000 0.0000
# 5 0.0000 0.0000 0.0000 0.0000 29.7114 0.0000
# 6 0.0000 0.0000 0.0000 0.0000 0.0000 26.2978
#
#
#
# Elastic Compliance Matrix: (Units=1/GPa)
#
#
# Indices 1 2 3 4 5 6 
#
# 1 0.012750 -0.001148 -0.003433 0.000000 0.000000 0.000000
# 2 -0.001148 0.020835 -0.006463 0.000000 0.000000 0.000000
# 3 -0.003433 -0.006463 0.011367 0.000000 0.000000 0.000000
# 4 0.000000 0.000000 0.000000 0.027560 0.000000 0.000000
# 5 0.000000 0.000000 0.000000 0.000000 0.033657 0.000000
# 6 0.000000 0.000000 0.000000 0.000000 0.000000 0.038026
#
#
# Mechanical properties :
#
#
# Convention : Reuss Voigt Hill
#
# Bulk Modulus (GPa) = 43.73758 50.74612 47.24185
# Shear Modulus (GPa) = 28.75139 30.47122 29.61131
#
# Velocity S-wave (km/s) = 3.77779 3.88913 3.83386
# Velocity P-wave (km/s) = 6.38275 6.73473 6.56110
#
# Compressibility (1/GPa) = 0.02286363
#
# Stress axis : x y z
#
# Youngs Moduli (GPa) = 78.43095 47.99661 87.97413
#
# Poissons Ratio (x) = 0.05509 0.30201
# Poissons Ratio (y) = 0.09002 0.56861
# Poissons Ratio (z) = 0.26925 0.31022
#
# Static dielectric constant tensor:
#      x y z
#    x 3.428960 0.000000 0.000000 
#    y 0.000000 3.550340 0.000000 
#    z 0.000000 0.000000 3.718810 
# 
# 
# High freq. dielectric constant tensor:
#      x y z
#    x 1.777660 0.000000 0.000000 
#    y 0.000000 1.774790 0.000000 
#    z 0.000000 0.000000 1.794060 
# 
# From -- ./inp_files/8774.got.cif
#   From: 2010.03.12/outbox.cif.g09.slc.cpg/sg63_5_cif.got.tgz:8774.got - 2010.04.10 19:34:48.
