data_PCOD8257652
_publ_section_title
;
Structure prediction by ZEFSAII (Michael W. Deem and Ramdas Pophale) SiO2 
 PCOD8257652
Probable space group: C M C M
;
_chemical_formula_sum "Si O2"
_cell_formula_units_Z 96
_cell_length_a 23.525561
_cell_length_b 13.988291
_cell_length_c 15.489201
_cell_angle_alpha 90.000000
_cell_angle_beta 90.000000
_cell_angle_gamma 90.000000
_cell_volume 5097.223334
_symmetry_space_group_name_H-M "C M C M"
_symmetry_group_IT_number 63
_symmetry_cell_setting 'orthorhombic'
loop_
_space_group_symop_operation_xyz
x,y,z
-x,-y,1/2+z
x,-y,-z
-x,y,1/2-z
-x,-y,-z
x,y,1/2-z
-x,y,z
x,-y,1/2+z
1/2+x,1/2+y,z
1/2-x,1/2-y,1/2+z
1/2+x,1/2-y,-z
1/2-x,1/2+y,1/2-z
1/2-x,1/2-y,-z
1/2+x,1/2+y,1/2-z
1/2-x,1/2+y,z
1/2+x,1/2-y,1/2+z
loop_
_atom_site_type_symbol
_atom_site_label
_atom_site_fract_x
_atom_site_fract_y
_atom_site_fract_z
Si Si1 0.500000 0.735720 0.652030
Si Si2 0.500000 0.490803 0.348759
Si Si3 0.284987 0.413969 0.845242
Si Si4 0.885897 0.755903 0.064888
Si Si5 0.892682 0.081313 0.439101
Si Si6 0.797591 0.387197 0.504109
Si Si7 0.781321 0.139953 0.847716
O O1 0.500000 0.766594 0.750000
O O2 0.500000 0.622034 0.639688
O O3 0.558183 0.780875 0.614638
O O4 0.500000 0.522100 0.250000
O O5 0.445674 0.534186 0.393656
O O6 0.268188 0.377181 0.750000
O O7 0.347773 0.378795 0.869915
O O8 0.241030 0.366745 0.911758
O O9 0.289219 0.527311 0.848441
O O10 0.857322 0.665274 0.018088
O O11 0.840455 0.809253 0.126847
O O12 0.911452 0.828276 0.994751
O O13 0.863314 0.000000 0.500000
O O14 0.809182 0.500000 0.500000
O O15 0.767762 0.340649 0.419264
O O16 0.763721 0.172723 0.750000
#
# Coordination Sequence:
#
# PCOD8257652 Si02
#       7
#     8   8  16  16  16  16  16
#     4  11  23  37  56  87 118 147 189 234 286 350
#     4  11  22  36  54  82 119 155 184 223 286 353
#     4  10  19  33  54  81 117 155 189 229 283 343
#     4  12  22  36  58  83 113 156 192 239 287 342
#     4  12  19  33  53  80 116 152 188 225 282 346
#     4  10  22  41  57  82 116 154 197 243 288 337
#     4  10  19  34  57  86 117 148 186 235 292 349
#
# _framework density 18.833784000000001
#
# number of rings (size 3 to 8) (size 9 to 14) (size 15 to 20)
#    0.000    1.167    5.000    2.750    0.000    4.000 
#    0.000    1.250    0.000    0.000    0.000    1.167 
#    0.000    0.000    0.000    0.000    0.000    0.000 
#
# Total GULP energy -595055.418590 kJ/mol
# GULP energy per Si atom -12396.987887 kJ/mol
# Density = 1.879092 g / cm^3
# Si number density = 18.833784 Si / 1000 Ang^3
#
#
#
# Elastic Constant Matrix: (Units=GPa)
#
#
# Indices 1 2 3 4 5 6 
#
# 1 117.2305 23.7677 58.2530 0.0000 0.0000 0.0000
# 2 23.7677 29.1877 21.7821 0.0000 0.0000 0.0000
# 3 58.2530 21.7821 150.8755 0.0000 0.0000 0.0000
# 4 0.0000 0.0000 0.0000 9.2914 0.0000 0.0000
# 5 0.0000 0.0000 0.0000 0.0000 45.3680 0.0000
# 6 0.0000 0.0000 0.0000 0.0000 0.0000 32.4399
#
#
#
# Elastic Compliance Matrix: (Units=1/GPa)
#
#
# Indices 1 2 3 4 5 6 
#
# 1 0.011671 -0.006882 -0.003513 0.000000 0.000000 0.000000
# 2 -0.006882 0.042457 -0.003472 0.000000 0.000000 0.000000
# 3 -0.003513 -0.003472 0.008485 0.000000 0.000000 0.000000
# 4 0.000000 0.000000 0.000000 0.107627 0.000000 0.000000
# 5 0.000000 0.000000 0.000000 0.000000 0.022042 0.000000
# 6 0.000000 0.000000 0.000000 0.000000 0.000000 0.030826
#
#
# Mechanical properties :
#
#
# Convention : Reuss Voigt Hill
#
# Bulk Modulus (GPa) = 28.67081 56.09991 42.38536
# Shear Modulus (GPa) = 19.04990 30.31925 24.68457
#
# Velocity S-wave (km/s) = 3.18382 4.01663 3.62422
# Velocity P-wave (km/s) = 5.36393 7.16677 6.32986
#
# Compressibility (1/GPa) = 0.03487868
#
# Stress axis : x y z
#
# Youngs Moduli (GPa) = 85.68262 23.55349 117.84861
#
# Poissons Ratio (x) = 0.16210 0.41395
# Poissons Ratio (y) = 0.58970 0.40920
# Poissons Ratio (z) = 0.30096 0.08178
#
# Static dielectric constant tensor:
#      x y z
#    x 3.323810 0.000000 0.000000 
#    y 0.000000 3.260040 0.000000 
#    z 0.000000 0.000000 4.004640 
# 
# 
# High freq. dielectric constant tensor:
#      x y z
#    x 1.717840 0.000000 0.000000 
#    y 0.000000 1.708810 0.000000 
#    z 0.000000 0.000000 1.747110 
# 
# From -- ./inp_files/36826.got.cif
#   From: 2010.03.12/outbox.cif.g09.slc.cpg/sg63_19_cif.got.tgz:36826.got - 2010.04.10 19:34:48.
