data_PCOD8257343
_publ_section_title
;
Structure prediction by ZEFSAII (Michael W. Deem and Ramdas Pophale) SiO2 
 PCOD8257343
Probable space group: C M C M
;
_chemical_formula_sum "Si O2"
_cell_formula_units_Z 96
_cell_length_a 9.360673
_cell_length_b 24.781022
_cell_length_c 21.993925
_cell_angle_alpha 90.000000
_cell_angle_beta 90.000000
_cell_angle_gamma 90.000000
_cell_volume 5101.865758
_symmetry_space_group_name_H-M "C M C M"
_symmetry_group_IT_number 63
_symmetry_cell_setting 'orthorhombic'
loop_
_space_group_symop_operation_xyz
x,y,z
-x,-y,1/2+z
x,-y,-z
-x,y,1/2-z
-x,-y,-z
x,y,1/2-z
-x,y,z
x,-y,1/2+z
1/2+x,1/2+y,z
1/2-x,1/2-y,1/2+z
1/2+x,1/2-y,-z
1/2-x,1/2+y,1/2-z
1/2-x,1/2-y,-z
1/2+x,1/2+y,1/2-z
1/2-x,1/2+y,z
1/2+x,1/2-y,1/2+z
loop_
_atom_site_type_symbol
_atom_site_label
_atom_site_fract_x
_atom_site_fract_y
_atom_site_fract_z
Si Si1 0.163933 0.544346 0.144114
Si Si2 0.331391 0.155233 0.582975
Si Si3 0.668853 0.073234 0.681091
Si Si4 0.344042 0.591641 0.250000
Si Si5 0.334229 0.867426 0.949472
Si Si6 0.829170 0.772634 0.618104
Si Si7 0.844777 0.782388 0.750000
O O1 0.209999 0.481798 0.145469
O O2 0.259234 0.576754 0.190412
O O3 0.187355 0.572529 0.078438
O O4 0.000000 0.549756 0.164980
O O5 0.500000 0.150323 0.588357
O O6 0.265810 0.121612 0.639919
O O7 0.279544 0.130172 0.518999
O O8 0.284646 0.217742 0.584018
O O9 0.733442 0.074098 0.750000
O O10 0.500000 0.078805 0.686294
O O11 0.500000 0.563310 0.250000
O O12 0.365797 0.654450 0.250000
O O13 0.500000 0.849906 0.946305
O O14 0.243824 0.823148 0.913622
O O15 0.767501 0.765713 0.687145
O O16 0.000000 0.782325 0.618810
O O17 0.000000 0.753484 0.750000
#
# Coordination Sequence:
#
# PCOD8257343 Si02
#       7
#    16  16  16   8  16  16   8
#     4  10  19  32  52  76 104 133 165 205 252 303
#     4   9  19  32  49  74 102 134 170 208 247 295
#     4   9  17  30  50  76 102 130 167 209 252 293
#     4  11  19  31  50  75 105 131 165 209 254 297
#     4  10  20  33  50  76 105 133 166 205 254 302
#     4  10  19  33  52  74 102 132 168 210 252 298
#     4   9  18  29  46  75  99 123 163 209 250 287
#
# _framework density 18.816645999999999
#
# number of rings (size 3 to 8) (size 9 to 14) (size 15 to 20)
#    0.000    2.333    2.500    0.750    1.167    0.667 
#    0.000    3.750    0.000    2.000    0.000    2.333 
#    0.000    0.000    0.000    0.000    0.000    0.000 
#
# Total GULP energy -594826.803726 kJ/mol
# GULP energy per Si atom -12392.225078 kJ/mol
# Density = 1.877382 g / cm^3
# Si number density = 18.816646 Si / 1000 Ang^3
#
#
#
# Elastic Constant Matrix: (Units=GPa)
#
#
# Indices 1 2 3 4 5 6 
#
# 1 29.6342 14.1833 18.7427 0.0000 0.0000 0.0000
# 2 14.1833 88.0552 54.0873 0.0000 0.0000 0.0000
# 3 18.7427 54.0873 140.2311 0.0000 0.0000 0.0000
# 4 0.0000 0.0000 0.0000 30.7232 0.0000 0.0000
# 5 0.0000 0.0000 0.0000 0.0000 14.7898 0.0000
# 6 0.0000 0.0000 0.0000 0.0000 0.0000 15.3392
#
#
#
# Elastic Compliance Matrix: (Units=1/GPa)
#
#
# Indices 1 2 3 4 5 6 
#
# 1 0.037865 -0.003919 -0.003549 0.000000 0.000000 0.000000
# 2 -0.003919 0.015288 -0.005373 0.000000 0.000000 0.000000
# 3 -0.003549 -0.005373 0.009678 0.000000 0.000000 0.000000
# 4 0.000000 0.000000 0.000000 0.032549 0.000000 0.000000
# 5 0.000000 0.000000 0.000000 0.000000 0.067614 0.000000
# 6 0.000000 0.000000 0.000000 0.000000 0.000000 0.065193
#
#
# Mechanical properties :
#
#
# Convention : Reuss Voigt Hill
#
# Bulk Modulus (GPa) = 26.91869 47.99411 37.45640
# Shear Modulus (GPa) = 18.77923 23.56425 21.17174
#
# Velocity S-wave (km/s) = 3.16256 3.54264 3.35798
# Velocity P-wave (km/s) = 5.26047 6.50348 5.91472
#
# Compressibility (1/GPa) = 0.03714891
#
# Stress axis : x y z
#
# Youngs Moduli (GPa) = 26.40937 65.41098 103.32941
#
# Poissons Ratio (x) = 0.25634 0.36676
# Poissons Ratio (y) = 0.10349 0.55517
# Poissons Ratio (z) = 0.09374 0.35144
#
# Static dielectric constant tensor:
#      x y z
#    x 3.084010 0.000000 0.000000 
#    y 0.000000 3.555330 0.000000 
#    z 0.000000 0.000000 3.733980 
# 
# 
# High freq. dielectric constant tensor:
#      x y z
#    x 1.674780 0.000000 0.000000 
#    y 0.000000 1.733040 0.000000 
#    z 0.000000 0.000000 1.744520 
# 
# From -- ./inp_files/60092.got.cif
#   From: 2010.03.12/outbox.cif.g09.slc.cpg/sg63_31_cif.got.tgz:60092.got - 2010.04.10 19:34:48.
