data_PCOD8257348
_publ_section_title
;
Structure prediction by ZEFSAII (Michael W. Deem and Ramdas Pophale) SiO2 
 PCOD8257348
Probable space group: C M C M
;
_chemical_formula_sum "Si O2"
_cell_formula_units_Z 80
_cell_length_a 9.538041
_cell_length_b 19.965765
_cell_length_c 22.936187
_cell_angle_alpha 90.000000
_cell_angle_beta 90.000000
_cell_angle_gamma 90.000000
_cell_volume 4367.836376
_symmetry_space_group_name_H-M "C M C M"
_symmetry_group_IT_number 63
_symmetry_cell_setting 'orthorhombic'
loop_
_space_group_symop_operation_xyz
x,y,z
-x,-y,1/2+z
x,-y,-z
-x,y,1/2-z
-x,-y,-z
x,y,1/2-z
-x,y,z
x,-y,1/2+z
1/2+x,1/2+y,z
1/2-x,1/2-y,1/2+z
1/2+x,1/2-y,-z
1/2-x,1/2+y,1/2-z
1/2-x,1/2-y,-z
1/2+x,1/2+y,1/2-z
1/2-x,1/2+y,z
1/2+x,1/2-y,1/2+z
loop_
_atom_site_type_symbol
_atom_site_label
_atom_site_fract_x
_atom_site_fract_y
_atom_site_fract_z
Si Si1 0.832370 0.171733 0.250000
Si Si2 0.666361 0.823386 0.250000
Si Si3 0.158843 0.764739 0.944666
Si Si4 0.165461 0.981730 0.065891
Si Si5 0.666365 0.386251 0.630152
Si Si6 0.340596 0.868836 0.125982
O O1 0.772140 0.247624 0.250000
O O2 0.774331 0.130848 0.194187
O O3 0.000000 0.173661 0.250000
O O4 0.500000 0.816664 0.250000
O O5 0.715143 0.864772 0.307225
O O6 0.222337 0.831332 0.915392
O O7 0.166477 0.706185 0.897622
O O8 0.000000 0.776445 0.965705
O O9 0.250000 0.750000 0.000000
O O10 0.242815 0.915019 0.086421
O O11 0.000000 0.968891 0.069641
O O12 0.215640 0.040787 0.109121
O O13 0.209343 0.000000 0.000000
O O14 0.500000 0.381761 0.631078
O O15 0.500000 0.896149 0.123448
#
# Coordination Sequence:
#
# PCOD8257348 Si02
#       6
#     8   8  16  16  16  16
#     4   9  14  27  52  77  99 126 173 226 256 294
#     4   9  16  31  53  79 107 132 167 222 272 308
#     4  10  19  32  52  77 101 130 172 216 257 303
#     4  10  21  36  52  75 111 146 174 214 266 313
#     4   9  17  30  50  74  99 132 173 214 254 298
#     4  10  20  34  55  80 105 137 176 217 265 318
#
# _framework density 18.315704
#
# number of rings (size 3 to 8) (size 9 to 14) (size 15 to 20)
#    0.000    2.400    2.000    1.200    0.000    3.600 
#    0.000    2.500    0.000    0.000    0.000    2.100 
#    0.000    0.000    0.000    0.000    0.000    0.000 
#
# Total GULP energy -495940.733907 kJ/mol
# GULP energy per Si atom -12398.518348 kJ/mol
# Density = 1.827402 g / cm^3
# Si number density = 18.315704 Si / 1000 Ang^3
#
#
#
# Elastic Constant Matrix: (Units=GPa)
#
#
# Indices 1 2 3 4 5 6 
#
# 1 32.4233 16.1402 25.4760 0.0000 0.0000 0.0000
# 2 16.1402 61.9462 8.3392 0.0000 0.0000 0.0000
# 3 25.4760 8.3392 111.1313 0.0000 0.0000 0.0000
# 4 0.0000 0.0000 0.0000 36.7991 0.0000 0.0000
# 5 0.0000 0.0000 0.0000 0.0000 17.7077 0.0000
# 6 0.0000 0.0000 0.0000 0.0000 0.0000 21.7422
#
#
#
# Elastic Compliance Matrix: (Units=1/GPa)
#
#
# Indices 1 2 3 4 5 6 
#
# 1 0.042952 -0.009966 -0.009099 0.000000 0.000000 0.000000
# 2 -0.009966 0.018620 0.000887 0.000000 0.000000 0.000000
# 3 -0.009099 0.000887 0.011018 0.000000 0.000000 0.000000
# 4 0.000000 0.000000 0.000000 0.027175 0.000000 0.000000
# 5 0.000000 0.000000 0.000000 0.000000 0.056473 0.000000
# 6 0.000000 0.000000 0.000000 0.000000 0.000000 0.045993
#
#
# Mechanical properties :
#
#
# Convention : Reuss Voigt Hill
#
# Bulk Modulus (GPa) = 27.59758 33.93462 30.76610
# Shear Modulus (GPa) = 19.94697 25.61949 22.78323
#
# Velocity S-wave (km/s) = 3.30368 3.74407 3.53075
# Velocity P-wave (km/s) = 5.44544 6.10398 5.78409
#
# Compressibility (1/GPa) = 0.03623506
#
# Stress axis : x y z
#
# Youngs Moduli (GPa) = 23.28157 53.70470 90.76415
#
# Poissons Ratio (x) = 0.53525 0.82583
# Poissons Ratio (y) = 0.23204 -0.08055
# Poissons Ratio (z) = 0.21183 -0.04766
#
# Static dielectric constant tensor:
#      x y z
#    x 2.960360 0.000000 0.000000 
#    y 0.000000 3.445820 0.000000 
#    z 0.000000 0.000000 3.311340 
# 
# 
# High freq. dielectric constant tensor:
#      x y z
#    x 1.656040 0.000000 0.000000 
#    y 0.000000 1.714470 0.000000 
#    z 0.000000 0.000000 1.728840 
# 
# From -- ./inp_files/52456.got.cif
#   From: 2010.03.12/outbox.cif.g09.slc.cpg/sg63_27_cif.got.tgz:52456.got - 2010.04.10 19:34:48.
