data_PCOD8257404
_publ_section_title
;
Structure prediction by ZEFSAII (Michael W. Deem and Ramdas Pophale) SiO2 
 PCOD8257404
Probable space group: C M C M
;
_chemical_formula_sum "Si O2"
_cell_formula_units_Z 64
_cell_length_a 7.689448
_cell_length_b 18.401059
_cell_length_c 24.054327
_cell_angle_alpha 90.000000
_cell_angle_beta 90.000000
_cell_angle_gamma 90.000000
_cell_volume 3403.542616
_symmetry_space_group_name_H-M "C M C M"
_symmetry_group_IT_number 63
_symmetry_cell_setting 'orthorhombic'
loop_
_space_group_symop_operation_xyz
x,y,z
-x,-y,1/2+z
x,-y,-z
-x,y,1/2-z
-x,-y,-z
x,y,1/2-z
-x,y,z
x,-y,1/2+z
1/2+x,1/2+y,z
1/2-x,1/2-y,1/2+z
1/2+x,1/2-y,-z
1/2-x,1/2+y,1/2-z
1/2-x,1/2-y,-z
1/2+x,1/2+y,1/2-z
1/2-x,1/2+y,z
1/2+x,1/2-y,1/2+z
loop_
_atom_site_type_symbol
_atom_site_label
_atom_site_fract_x
_atom_site_fract_y
_atom_site_fract_z
Si Si1 0.807536 0.334011 0.610543
Si Si2 0.296997 0.416854 0.504381
Si Si3 0.799764 0.833705 0.107162
Si Si4 0.500000 0.835007 0.311855
Si Si5 0.500000 0.662601 0.311865
O O1 0.805565 0.380413 0.554585
O O2 0.764774 0.250889 0.594793
O O3 0.671127 0.364722 0.655500
O O4 0.000000 0.339763 0.637012
O O5 0.238132 0.500000 0.500000
O O6 0.500000 0.409275 0.517166
O O7 0.245961 0.377077 0.447659
O O8 0.674592 0.861290 0.156631
O O9 0.000000 0.848811 0.124184
O O10 0.500000 0.869190 0.250000
O O11 0.500000 0.748717 0.307475
O O12 0.500000 0.628313 0.250000
#
# Coordination Sequence:
#
# PCOD8257404 Si02
#       5
#    16  16  16   8   8
#     4  10  19  32  53  79 105 135 169 212 260 305
#     4  10  20  34  52  77 106 142 171 209 260 311
#     4   9  19  33  51  78 106 134 169 212 257 306
#     4   9  18  32  53  78 102 134 171 210 258 303
#     4   9  18  34  53  76 106 134 169 214 254 303
#
# _framework density 18.803937000000001
#
# number of rings (size 3 to 8) (size 9 to 14) (size 15 to 20)
#    0.000    2.500    1.250    0.750    1.750    1.500 
#    0.000    5.000    0.000    1.500    0.000    0.000 
#    0.000    0.000    0.000    0.000    0.000    0.000 
#
# Total GULP energy -396820.115364 kJ/mol
# GULP energy per Si atom -12400.628605 kJ/mol
# Density = 1.876114 g / cm^3
# Si number density = 18.803937 Si / 1000 Ang^3
#
#
#
# Elastic Constant Matrix: (Units=GPa)
#
#
# Indices 1 2 3 4 5 6 
#
# 1 122.3920 31.6359 81.3187 0.0000 0.0000 0.0000
# 2 31.6359 60.7373 44.4833 0.0000 0.0000 0.0000
# 3 81.3187 44.4833 161.9685 0.0000 0.0000 0.0000
# 4 0.0000 0.0000 0.0000 -0.9381 0.0000 0.0000
# 5 0.0000 0.0000 0.0000 0.0000 29.4404 0.0000
# 6 0.0000 0.0000 0.0000 0.0000 0.0000 13.8383
#
#
#
# Elastic Compliance Matrix: (Units=1/GPa)
#
#
# Indices 1 2 3 4 5 6 
#
# 1 0.012534 -0.002403 -0.005633 0.000000 0.000000 0.000000
# 2 -0.002403 0.021071 -0.004580 0.000000 0.000000 0.000000
# 3 -0.005633 -0.004580 0.010260 0.000000 0.000000 0.000000
# 4 0.000000 0.000000 0.000000 -1.066004 0.000000 0.000000
# 5 0.000000 0.000000 0.000000 0.000000 0.033967 0.000000
# 6 0.000000 0.000000 0.000000 0.000000 0.000000 0.072263
#
#
# Mechanical properties :
#
#
# Convention : Reuss Voigt Hill
#
# Bulk Modulus (GPa) = 53.67089 73.33041 63.50065
# Shear Modulus (GPa) = -5.65313 20.97879 7.66283
#
# Velocity S-wave (km/s) = -1.73577 3.34377 2.02088
# Velocity P-wave (km/s) = 4.95854 7.34777 6.26805
#
# Compressibility (1/GPa) = 0.01863207
#
# Stress axis : x y z
#
# Youngs Moduli (GPa) = 79.78127 47.45943 97.46446
#
# Poissons Ratio (x) = 0.11405 0.54902
# Poissons Ratio (y) = 0.19172 0.44642
# Poissons Ratio (z) = 0.44941 0.21738
#
# Static dielectric constant tensor:
#      x y z
#    x 3.556290 0.000000 0.000000 
#    y 0.000000 3.143550 0.000000 
#    z 0.000000 0.000000 3.517290 
# 
# 
# High freq. dielectric constant tensor:
#      x y z
#    x 1.743630 0.000000 0.000000 
#    y 0.000000 1.693750 0.000000 
#    z 0.000000 0.000000 1.722660 
# 
# From -- ./inp_files/50347.got.cif
#   From: 2010.03.12/outbox.cif.g09.slc.cpg/sg63_26_cif.got.tgz:50347.got - 2010.04.10 19:34:48.
