data_PCOD8257119
_publ_section_title
;
Structure prediction by ZEFSAII (Michael W. Deem and Ramdas Pophale) SiO2 
 PCOD8257119
Probable space group: C M C M
;
_chemical_formula_sum "Si O2"
_cell_formula_units_Z 96
_cell_length_a 14.936536
_cell_length_b 22.741972
_cell_length_c 14.875626
_cell_angle_alpha 90.000000
_cell_angle_beta 90.000000
_cell_angle_gamma 90.000000
_cell_volume 5053.046111
_symmetry_space_group_name_H-M "C M C M"
_symmetry_group_IT_number 63
_symmetry_cell_setting 'orthorhombic'
loop_
_space_group_symop_operation_xyz
x,y,z
-x,-y,1/2+z
x,-y,-z
-x,y,1/2-z
-x,-y,-z
x,y,1/2-z
-x,y,z
x,-y,1/2+z
1/2+x,1/2+y,z
1/2-x,1/2-y,1/2+z
1/2+x,1/2-y,-z
1/2-x,1/2+y,1/2-z
1/2-x,1/2-y,-z
1/2+x,1/2+y,1/2-z
1/2-x,1/2+y,z
1/2+x,1/2-y,1/2+z
loop_
_atom_site_type_symbol
_atom_site_label
_atom_site_fract_x
_atom_site_fract_y
_atom_site_fract_z
Si Si1 0.646499 0.102483 0.151400
Si Si2 0.600324 0.882328 0.455868
Si Si3 0.785331 0.527666 0.651360
Si Si4 0.402062 0.480743 0.899361
Si Si5 0.158003 0.143767 0.149022
Si Si6 0.895021 0.269061 0.149417
O O1 0.599558 0.113326 0.250000
O O2 0.735741 0.140466 0.148722
O O3 0.665696 0.033887 0.140926
O O4 0.590051 0.121749 0.064272
O O5 0.500000 0.896952 0.418834
O O6 0.673539 0.930787 0.425796
O O7 0.637685 0.821049 0.416229
O O8 0.805580 0.554898 0.750000
O O9 0.677990 0.517218 0.647199
O O10 0.500000 0.493229 0.853912
O O11 0.384917 0.410821 0.902833
O O12 0.405864 0.500000 0.000000
O O13 0.119448 0.141292 0.250000
O O14 0.132155 0.206463 0.105339
O O15 0.852836 0.276231 0.250000
O O16 0.000000 0.272308 0.157207
#
# Coordination Sequence:
#
# PCOD8257119 Si02
#       6
#    16  16  16  16  16  16
#     4   9  19  34  51  73 100 134 177 218 262 321
#     4  11  22  35  52  75 106 142 179 223 268 306
#     4  10  20  34  52  74 104 139 175 219 267 316
#     4  10  19  31  51  79 109 140 172 210 261 320
#     4   9  17  32  54  77 103 133 168 217 269 314
#     4   9  18  32  51  77 104 131 171 219 265 313
#
# _framework density 18.998441
#
# number of rings (size 3 to 8) (size 9 to 14) (size 15 to 20)
#    0.000    2.333    0.000    5.000    0.000    5.333 
#    0.000    1.667    0.000    0.000    0.000    1.167 
#    0.000   14.667    0.000    0.167    0.000    0.000 
#
# Total GULP energy -594701.503218 kJ/mol
# GULP energy per Si atom -12389.614650 kJ/mol
# Density = 1.895520 g / cm^3
# Si number density = 18.998441 Si / 1000 Ang^3
#
#
#
# Elastic Constant Matrix: (Units=GPa)
#
#
# Indices 1 2 3 4 5 6 
#
# 1 71.7923 40.4099 24.0514 0.0000 0.0000 0.0000
# 2 40.4099 114.6585 51.3399 0.0000 0.0000 0.0000
# 3 24.0514 51.3399 106.6214 0.0000 0.0000 0.0000
# 4 0.0000 0.0000 0.0000 29.7197 0.0000 0.0000
# 5 0.0000 0.0000 0.0000 0.0000 8.0561 0.0000
# 6 0.0000 0.0000 0.0000 0.0000 0.0000 21.0330
#
#
#
# Elastic Compliance Matrix: (Units=1/GPa)
#
#
# Indices 1 2 3 4 5 6 
#
# 1 0.017505 -0.005611 -0.001247 0.000000 0.000000 0.000000
# 2 -0.005611 0.012917 -0.004954 0.000000 0.000000 0.000000
# 3 -0.001247 -0.004954 0.012046 0.000000 0.000000 0.000000
# 4 0.000000 0.000000 0.000000 0.033648 0.000000 0.000000
# 5 0.000000 0.000000 0.000000 0.000000 0.124130 0.000000
# 6 0.000000 0.000000 0.000000 0.000000 0.000000 0.047544
#
#
# Mechanical properties :
#
#
# Convention : Reuss Voigt Hill
#
# Bulk Modulus (GPa) = 53.06771 58.29720 55.68245
# Shear Modulus (GPa) = 18.00529 23.57981 20.79255
#
# Velocity S-wave (km/s) = 3.08185 3.52681 3.31181
# Velocity P-wave (km/s) = 6.37629 6.88014 6.63300
#
# Compressibility (1/GPa) = 0.01884385
#
# Stress axis : x y z
#
# Youngs Moduli (GPa) = 57.12597 77.41466 83.01657
#
# Poissons Ratio (x) = 0.43439 0.10351
# Poissons Ratio (y) = 0.32054 0.41128
# Poissons Ratio (z) = 0.07123 0.38353
#
# Static dielectric constant tensor:
#      x y z
#    x 3.640750 0.000000 0.000000 
#    y 0.000000 3.525540 0.000000 
#    z 0.000000 0.000000 7.705770 
# 
# 
# High freq. dielectric constant tensor:
#      x y z
#    x 1.727670 0.000000 0.000000 
#    y 0.000000 1.724930 0.000000 
#    z 0.000000 0.000000 1.736690 
# 
# From -- ./inp_files/31913.got.cif
#   From: 2010.03.12/outbox.cif.g09.slc.cpg/sg63_16_cif.got.tgz:31913.got - 2010.04.10 19:34:48.
