data_PCOD8257683
_publ_section_title
;
Structure prediction by ZEFSAII (Michael W. Deem and Ramdas Pophale) SiO2 
 PCOD8257683
Probable space group: C M C M
;
_chemical_formula_sum "Si O2"
_cell_formula_units_Z 96
_cell_length_a 8.969218
_cell_length_b 23.361178
_cell_length_c 23.196954
_cell_angle_alpha 90.000000
_cell_angle_beta 90.000000
_cell_angle_gamma 90.000000
_cell_volume 4860.492526
_symmetry_space_group_name_H-M "C M C M"
_symmetry_group_IT_number 63
_symmetry_cell_setting 'orthorhombic'
loop_
_space_group_symop_operation_xyz
x,y,z
-x,-y,1/2+z
x,-y,-z
-x,y,1/2-z
-x,-y,-z
x,y,1/2-z
-x,y,z
x,-y,1/2+z
1/2+x,1/2+y,z
1/2-x,1/2-y,1/2+z
1/2+x,1/2-y,-z
1/2-x,1/2+y,1/2-z
1/2-x,1/2-y,-z
1/2+x,1/2+y,1/2-z
1/2-x,1/2+y,z
1/2+x,1/2-y,1/2+z
loop_
_atom_site_type_symbol
_atom_site_label
_atom_site_fract_x
_atom_site_fract_y
_atom_site_fract_z
Si Si1 0.321913 0.348277 0.750000
Si Si2 0.175758 0.159381 0.475971
Si Si3 0.825825 0.460303 0.143805
Si Si4 0.162839 0.033918 0.442838
Si Si5 0.674302 0.718667 0.361664
Si Si6 0.173991 0.338808 0.096957
Si Si7 0.323972 0.480234 0.750000
O O1 0.500000 0.345755 0.750000
O O2 0.257108 0.315305 0.806700
O O3 0.264980 0.414246 0.750000
O O4 0.223071 0.095904 0.458458
O O5 0.238387 0.197825 0.423354
O O6 0.250887 0.175962 0.536109
O O7 0.000000 0.166104 0.484749
O O8 0.793393 0.503592 0.092185
O O9 0.766456 0.397086 0.126338
O O10 0.732917 0.483842 0.196516
O O11 0.000000 0.459355 0.158858
O O12 0.000000 0.037364 0.410193
O O13 0.133144 0.000000 0.500000
O O14 0.500000 0.705355 0.361547
O O15 0.706521 0.786836 0.358231
O O16 0.000000 0.345057 0.084170
O O17 0.500000 0.479170 0.750000
#
# Coordination Sequence:
#
# PCOD8257683 Si02
#       7
#     8  16  16  16  16  16   8
#     4   9  18  36  61  83 103 133 182 235 278 326
#     4  10  19  33  55  82 112 145 187 233 277 325
#     4  11  23  37  55  83 118 151 185 226 280 338
#     4  10  19  33  55  82 111 146 189 232 275 325
#     4   9  18  33  55  81 107 141 183 228 275 328
#     4  10  21  35  53  81 115 147 182 222 274 336
#     4  11  23  40  63  85 109 143 188 235 280 332
#
# _framework density 19.751085
#
# number of rings (size 3 to 8) (size 9 to 14) (size 15 to 20)
#    0.000    2.000    1.667    2.250    0.000    5.000 
#    0.000    2.500    0.000    2.000    0.000    0.000 
#    0.000    0.000    0.000    0.000    0.000    0.000 
#
# Total GULP energy -594976.286960 kJ/mol
# GULP energy per Si atom -12395.339312 kJ/mol
# Density = 1.970613 g / cm^3
# Si number density = 19.751085 Si / 1000 Ang^3
#
#
#
# Elastic Constant Matrix: (Units=GPa)
#
#
# Indices 1 2 3 4 5 6 
#
# 1 33.6386 19.7285 29.1122 0.0000 0.0000 0.0000
# 2 19.7285 109.4857 65.6031 0.0000 0.0000 0.0000
# 3 29.1122 65.6031 133.3175 0.0000 0.0000 0.0000
# 4 0.0000 0.0000 0.0000 54.5839 0.0000 0.0000
# 5 0.0000 0.0000 0.0000 0.0000 29.5032 0.0000
# 6 0.0000 0.0000 0.0000 0.0000 0.0000 23.4739
#
#
#
# Elastic Compliance Matrix: (Units=1/GPa)
#
#
# Indices 1 2 3 4 5 6 
#
# 1 0.037170 -0.002601 -0.006837 0.000000 0.000000 0.000000
# 2 -0.002601 0.013135 -0.005895 0.000000 0.000000 0.000000
# 3 -0.006837 -0.005895 0.011895 0.000000 0.000000 0.000000
# 4 0.000000 0.000000 0.000000 0.018320 0.000000 0.000000
# 5 0.000000 0.000000 0.000000 0.000000 0.033895 0.000000
# 6 0.000000 0.000000 0.000000 0.000000 0.000000 0.042600
#
#
# Mechanical properties :
#
#
# Convention : Reuss Voigt Hill
#
# Bulk Modulus (GPa) = 31.71280 56.14773 43.93026
# Shear Modulus (GPa) = 25.22795 32.31208 28.77002
#
# Velocity S-wave (km/s) = 3.57780 4.04909 3.82072
# Velocity P-wave (km/s) = 5.75836 7.09575 6.46174
#
# Compressibility (1/GPa) = 0.03153301
#
# Stress axis : x y z
#
# Youngs Moduli (GPa) = 26.90335 76.13368 84.07037
#
# Poissons Ratio (x) = 0.19804 0.57476
# Poissons Ratio (y) = 0.06998 0.49562
# Poissons Ratio (z) = 0.18393 0.44883
#
# Static dielectric constant tensor:
#      x y z
#    x 3.268520 0.000000 0.000000 
#    y 0.000000 3.791960 0.000000 
#    z 0.000000 0.000000 3.775150 
# 
# 
# High freq. dielectric constant tensor:
#      x y z
#    x 1.731970 0.000000 0.000000 
#    y 0.000000 1.789710 0.000000 
#    z 0.000000 0.000000 1.770410 
# 
# From -- ./inp_files/60004.got.cif
#   From: 2010.03.12/outbox.cif.g09.slc.cpg/sg63_31_cif.got.tgz:60004.got - 2010.04.10 19:34:48.
