data_PCOD8257012
_publ_section_title
;
Structure prediction by ZEFSAII (Michael W. Deem and Ramdas Pophale) SiO2 
 PCOD8257012
Probable space group: C M C M
;
_chemical_formula_sum "Si O2"
_cell_formula_units_Z 104
_cell_length_a 25.879789
_cell_length_b 21.633461
_cell_length_c 9.341207
_cell_angle_alpha 90.000000
_cell_angle_beta 90.000000
_cell_angle_gamma 90.000000
_cell_volume 5229.856015
_symmetry_space_group_name_H-M "C M C M"
_symmetry_group_IT_number 63
_symmetry_cell_setting 'orthorhombic'
loop_
_space_group_symop_operation_xyz
x,y,z
-x,-y,1/2+z
x,-y,-z
-x,y,1/2-z
-x,-y,-z
x,y,1/2-z
-x,y,z
x,-y,1/2+z
1/2+x,1/2+y,z
1/2-x,1/2-y,1/2+z
1/2+x,1/2-y,-z
1/2-x,1/2+y,1/2-z
1/2-x,1/2-y,-z
1/2+x,1/2+y,1/2-z
1/2-x,1/2+y,z
1/2+x,1/2-y,1/2+z
loop_
_atom_site_type_symbol
_atom_site_label
_atom_site_fract_x
_atom_site_fract_y
_atom_site_fract_z
Si Si1 0.205021 0.139159 0.086067
Si Si2 0.700419 0.941706 0.582924
Si Si3 0.362416 0.250783 0.916022
Si Si4 0.058042 0.827761 0.410454
Si Si5 0.111565 0.385012 0.081647
Si Si6 0.373644 0.559770 0.911263
Si Si7 0.500000 0.935636 0.416372
O O1 0.188629 0.125198 0.250000
O O2 0.264941 0.120672 0.062901
O O3 0.191717 0.211946 0.051639
O O4 0.173758 0.096001 0.980052
O O5 0.693695 0.957652 0.750000
O O6 0.644494 0.933542 0.510100
O O7 0.726734 0.000000 0.500000
O O8 0.373902 0.248097 0.750000
O O9 0.366072 0.180985 0.973483
O O10 0.408962 0.287787 0.983016
O O11 0.063933 0.800976 0.250000
O O12 0.075228 0.898825 0.413082
O O13 0.000000 0.824381 0.465846
O O14 0.121933 0.395003 0.250000
O O15 0.050843 0.394828 0.045267
O O16 0.357502 0.541693 0.750000
O O17 0.387787 0.500000 0.000000
O O18 0.500000 0.952928 0.250000
O O19 0.500000 0.000000 0.500000
#
# Coordination Sequence:
#
# PCOD8257012 Si02
#       7
#    16  16  16  16  16  16   8
#     4   9  19  36  56  81 112 146 183 227 276 331
#     4  11  23  38  58  84 115 148 188 231 278 334
#     4   9  19  36  58  83 111 144 185 229 277 333
#     4   9  19  34  50  72 105 142 181 231 283 332
#     4  10  22  39  60  86 116 147 185 232 282 334
#     4  10  19  31  49  73 103 141 185 231 280 334
#     4  10  22  40  60  84 114 148 185 230 279 330
#
# _framework density 19.885824
#
# number of rings (size 3 to 8) (size 9 to 14) (size 15 to 20)
#    0.000    2.308    0.000    1.846    1.077    6.769 
#    0.000    0.000    0.000    0.000    0.000    0.000 
#    0.000    0.000    0.000    0.000    0.000    0.000 
#
# Total GULP energy -644488.954386 kJ/mol
# GULP energy per Si atom -12394.018354 kJ/mol
# Density = 1.984056 g / cm^3
# Si number density = 19.885824 Si / 1000 Ang^3
#
#
#
# Elastic Constant Matrix: (Units=GPa)
#
#
# Indices 1 2 3 4 5 6 
#
# 1 101.0750 37.3426 28.4299 0.0000 0.0000 0.0000
# 2 37.3426 110.6053 42.9072 0.0000 0.0000 0.0000
# 3 28.4299 42.9072 52.4548 0.0000 0.0000 0.0000
# 4 0.0000 0.0000 0.0000 29.1231 0.0000 0.0000
# 5 0.0000 0.0000 0.0000 0.0000 25.2596 0.0000
# 6 0.0000 0.0000 0.0000 0.0000 0.0000 21.7400
#
#
#
# Elastic Compliance Matrix: (Units=1/GPa)
#
#
# Indices 1 2 3 4 5 6 
#
# 1 0.012043 -0.002247 -0.004689 0.000000 0.000000 0.000000
# 2 -0.002247 0.013663 -0.009958 0.000000 0.000000 0.000000
# 3 -0.004689 -0.009958 0.029751 0.000000 0.000000 0.000000
# 4 0.000000 0.000000 0.000000 0.034337 0.000000 0.000000
# 5 0.000000 0.000000 0.000000 0.000000 0.039589 0.000000
# 6 0.000000 0.000000 0.000000 0.000000 0.000000 0.045998
#
#
# Mechanical properties :
#
#
# Convention : Reuss Voigt Hill
#
# Bulk Modulus (GPa) = 46.15033 53.49939 49.82486
# Shear Modulus (GPa) = 23.10622 25.58822 24.34722
#
# Velocity S-wave (km/s) = 3.41243 3.59103 3.50287
# Velocity P-wave (km/s) = 6.22770 6.64498 6.43972
#
# Compressibility (1/GPa) = 0.02166832
#
# Stress axis : x y z
#
# Youngs Moduli (GPa) = 83.03804 73.19124 33.61211
#
# Poissons Ratio (x) = 0.16445 0.15761
# Poissons Ratio (y) = 0.18657 0.33472
# Poissons Ratio (z) = 0.38938 0.72886
#
# Static dielectric constant tensor:
#      x y z
#    x 3.561650 0.000000 0.000000 
#    y 0.000000 3.833870 0.000000 
#    z 0.000000 0.000000 3.639670 
# 
# 
# High freq. dielectric constant tensor:
#      x y z
#    x 1.768800 0.000000 0.000000 
#    y 0.000000 1.776490 0.000000 
#    z 0.000000 0.000000 1.777880 
# 
# From -- ./inp_files/12519.got.cif
#   From: 2010.03.12/outbox.cif.g09.slc.cpg/sg63_7_cif.got.tgz:12519.got - 2010.04.10 19:34:48.
