data_PCOD8257433
_publ_section_title
;
Structure prediction by ZEFSAII (Michael W. Deem and Ramdas Pophale) SiO2 
 PCOD8257433
Probable space group: C M C M
;
_chemical_formula_sum "Si O2"
_cell_formula_units_Z 104
_cell_length_a 22.144317
_cell_length_b 28.258516
_cell_length_c 8.822610
_cell_angle_alpha 90.000000
_cell_angle_beta 90.000000
_cell_angle_gamma 90.000000
_cell_volume 5520.885278
_symmetry_space_group_name_H-M "C M C M"
_symmetry_group_IT_number 63
_symmetry_cell_setting 'orthorhombic'
loop_
_space_group_symop_operation_xyz
x,y,z
-x,-y,1/2+z
x,-y,-z
-x,y,1/2-z
-x,-y,-z
x,y,1/2-z
-x,y,z
x,-y,1/2+z
1/2+x,1/2+y,z
1/2-x,1/2-y,1/2+z
1/2+x,1/2-y,-z
1/2-x,1/2+y,1/2-z
1/2-x,1/2-y,-z
1/2+x,1/2+y,1/2-z
1/2-x,1/2+y,z
1/2+x,1/2-y,1/2+z
loop_
_atom_site_type_symbol
_atom_site_label
_atom_site_fract_x
_atom_site_fract_y
_atom_site_fract_z
Si Si1 0.874192 0.098031 0.572775
Si Si2 0.313623 0.799994 0.578220
Si Si3 0.761721 0.050258 0.429412
Si Si4 0.342243 0.111056 0.925487
Si Si5 0.928791 0.546838 0.420046
Si Si6 0.187819 0.805546 0.423327
Si Si7 0.000000 0.052194 0.571642
O O1 0.864744 0.087973 0.750000
O O2 0.828423 0.065093 0.480931
O O3 0.861223 0.153733 0.536246
O O4 0.941559 0.083016 0.521214
O O5 0.322284 0.817444 0.750000
O O6 0.349727 0.833622 0.463757
O O7 0.243077 0.806020 0.539154
O O8 0.340385 0.746979 0.559962
O O9 0.759669 0.046221 0.250000
O O10 0.714315 0.089401 0.484806
O O11 0.743786 0.000000 0.500000
O O12 0.331592 0.102315 0.750000
O O13 0.405300 0.089758 0.980013
O O14 0.903966 0.500000 0.500000
O O15 0.902440 0.548658 0.250000
O O16 0.000000 0.548775 0.418527
O O17 0.211228 0.812911 0.250000
O O18 0.000000 0.044530 0.750000
O O19 0.000000 0.000000 0.500000
#
# Coordination Sequence:
#
# PCOD8257433 Si02
#       7
#    16  16  16  16  16  16   8
#     4  10  20  37  58  82 111 147 188 233 284 340
#     4  10  19  32  53  83 114 144 182 225 276 334
#     4  12  24  37  54  80 112 146 182 229 281 336
#     4  12  23  36  55  81 113 149 184 227 277 329
#     4  10  21  38  59  82 110 145 185 226 269 325
#     4   9  18  33  55  80 111 145 181 226 278 336
#     4  10  22  38  58  82 112 150 194 238 285 344
#
# _framework density 18.837558000000001
#
# number of rings (size 3 to 8) (size 9 to 14) (size 15 to 20)
#    0.000    1.538    1.538    4.615    0.000    3.385 
#    0.000    0.000    1.692    0.000    0.000    0.000 
#    0.000    0.000    0.000    0.000    0.000    0.000 
#
# Total GULP energy -644729.635101 kJ/mol
# GULP energy per Si atom -12398.646829 kJ/mol
# Density = 1.879468 g / cm^3
# Si number density = 18.837558 Si / 1000 Ang^3
#
#
#
# Elastic Constant Matrix: (Units=GPa)
#
#
# Indices 1 2 3 4 5 6 
#
# 1 45.5994 36.7728 27.1893 0.0000 0.0000 0.0000
# 2 36.7728 128.9572 44.3533 0.0000 0.0000 0.0000
# 3 27.1893 44.3533 110.5426 0.0000 0.0000 0.0000
# 4 0.0000 0.0000 0.0000 32.6703 0.0000 0.0000
# 5 0.0000 0.0000 0.0000 0.0000 25.1265 0.0000
# 6 0.0000 0.0000 0.0000 0.0000 0.0000 119.8109
#
#
#
# Elastic Compliance Matrix: (Units=1/GPa)
#
#
# Indices 1 2 3 4 5 6 
#
# 1 0.030400 -0.007073 -0.004639 0.000000 0.000000 0.000000
# 2 -0.007073 0.010642 -0.002530 0.000000 0.000000 0.000000
# 3 -0.004639 -0.002530 0.011203 0.000000 0.000000 0.000000
# 4 0.000000 0.000000 0.000000 0.030609 0.000000 0.000000
# 5 0.000000 0.000000 0.000000 0.000000 0.039799 0.000000
# 6 0.000000 0.000000 0.000000 0.000000 0.000000 0.008346
#
#
# Mechanical properties :
#
#
# Convention : Reuss Voigt Hill
#
# Bulk Modulus (GPa) = 42.08857 55.74779 48.91818
# Shear Modulus (GPa) = 29.86796 47.30715 38.58755
#
# Velocity S-wave (km/s) = 3.98622 5.01674 4.53088
# Velocity P-wave (km/s) = 6.60136 7.95080 7.30730
#
# Compressibility (1/GPa) = 0.02375942
#
# Stress axis : x y z
#
# Youngs Moduli (GPa) = 32.89431 93.97053 89.26561
#
# Poissons Ratio (x) = 0.66467 0.41414
# Poissons Ratio (y) = 0.23267 0.22585
# Poissons Ratio (z) = 0.15261 0.23775
#
# Static dielectric constant tensor:
#      x y z
#    x 3.261940 0.000000 0.000000 
#    y 0.000000 3.620070 0.000000 
#    z 0.000000 0.000000 3.719270 
# 
# 
# High freq. dielectric constant tensor:
#      x y z
#    x 1.702940 0.000000 0.000000 
#    y 0.000000 1.745130 0.000000 
#    z 0.000000 0.000000 1.740400 
# 
# From -- ./inp_files/10848.got.cif
#   From: 2010.03.12/outbox.cif.g09.slc.cpg/sg63_6_cif.got.tgz:10848.got - 2010.04.10 19:34:48.
