data_PCOD8257856
_publ_section_title
;
Structure prediction by ZEFSAII (Michael W. Deem and Ramdas Pophale) SiO2 
 PCOD8257856
Probable space group: C M C M
;
_chemical_formula_sum "Si O2"
_cell_formula_units_Z 80
_cell_length_a 17.788573
_cell_length_b 14.884166
_cell_length_c 16.805325
_cell_angle_alpha 90.000000
_cell_angle_beta 90.000000
_cell_angle_gamma 90.000000
_cell_volume 4449.513524
_symmetry_space_group_name_H-M "C M C M"
_symmetry_group_IT_number 63
_symmetry_cell_setting 'orthorhombic'
loop_
_space_group_symop_operation_xyz
x,y,z
-x,-y,1/2+z
x,-y,-z
-x,y,1/2-z
-x,-y,-z
x,y,1/2-z
-x,y,z
x,-y,1/2+z
1/2+x,1/2+y,z
1/2-x,1/2-y,1/2+z
1/2+x,1/2-y,-z
1/2-x,1/2+y,1/2-z
1/2-x,1/2-y,-z
1/2+x,1/2+y,1/2-z
1/2-x,1/2+y,z
1/2+x,1/2-y,1/2+z
loop_
_atom_site_type_symbol
_atom_site_label
_atom_site_fract_x
_atom_site_fract_y
_atom_site_fract_z
Si Si1 0.415660 0.441128 0.423039
Si Si2 0.792855 0.285514 0.077463
Si Si3 0.585519 0.232959 0.036646
Si Si4 0.266184 0.541054 0.841338
Si Si5 0.301172 0.849422 0.840793
O O1 0.397397 0.500000 0.500000
O O2 0.500000 0.461489 0.391497
O O3 0.406875 0.337249 0.443901
O O4 0.355804 0.467106 0.355349
O O5 0.769457 0.385850 0.100131
O O6 0.770177 0.217719 0.148212
O O7 0.750000 0.250000 0.000000
O O8 0.880574 0.284545 0.052149
O O9 0.500000 0.199981 0.035537
O O10 0.628713 0.176296 0.103936
O O11 0.252535 0.567989 0.750000
O O12 0.225684 0.448607 0.863077
O O13 0.328406 0.842976 0.750000
#
# Coordination Sequence:
#
# PCOD8257856 Si02
#       5
#    16  16  16  16  16
#     4  10  20  34  56  86 118 147 183 233 290 350
#     4  10  19  34  56  81 109 145 190 236 280 344
#     4  10  21  36  56  84 111 147 189 236 288 334
#     4  11  22  35  56  84 115 152 193 238 289 339
#     4  10  21  36  56  83 114 152 192 236 283 340
#
# _framework density 17.979493000000002
#
# number of rings (size 3 to 8) (size 9 to 14) (size 15 to 20)
#    0.000    1.800    4.000    1.800    2.800    0.800 
#    0.000    4.000    0.000    4.800    0.000    0.000 
#    0.000    0.000    0.000    0.000    0.000    0.000 
#
# Total GULP energy -495886.004799 kJ/mol
# GULP energy per Si atom -12397.150120 kJ/mol
# Density = 1.793857 g / cm^3
# Si number density = 17.979493 Si / 1000 Ang^3
#
#
#
# Elastic Constant Matrix: (Units=GPa)
#
#
# Indices 1 2 3 4 5 6 
#
# 1 143.3374 53.0564 57.0945 0.0000 0.0000 0.0000
# 2 53.0564 119.3756 48.2079 0.0000 0.0000 0.0000
# 3 57.0945 48.2079 57.5420 0.0000 0.0000 0.0000
# 4 0.0000 0.0000 0.0000 32.9954 0.0000 0.0000
# 5 0.0000 0.0000 0.0000 0.0000 25.4963 0.0000
# 6 0.0000 0.0000 0.0000 0.0000 0.0000 30.3982
#
#
#
# Elastic Compliance Matrix: (Units=1/GPa)
#
#
# Indices 1 2 3 4 5 6 
#
# 1 0.011582 -0.000766 -0.010850 0.000000 0.000000 0.000000
# 2 -0.000766 0.012711 -0.009889 0.000000 0.000000 0.000000
# 3 -0.010850 -0.009889 0.036429 0.000000 0.000000 0.000000
# 4 0.000000 0.000000 0.000000 0.030307 0.000000 0.000000
# 5 0.000000 0.000000 0.000000 0.000000 0.039221 0.000000
# 6 0.000000 0.000000 0.000000 0.000000 0.000000 0.032897
#
#
# Mechanical properties :
#
#
# Convention : Reuss Voigt Hill
#
# Bulk Modulus (GPa) = 56.45941 70.77472 63.61707
# Shear Modulus (GPa) = 23.57804 28.57105 26.07455
#
# Velocity S-wave (km/s) = 3.62523 3.99066 3.81233
# Velocity P-wave (km/s) = 6.99953 7.78996 7.40530
#
# Compressibility (1/GPa) = 0.01771184
#
# Stress axis : x y z
#
# Youngs Moduli (GPa) = 86.34143 78.67288 27.45041
#
# Poissons Ratio (x) = 0.06026 0.29784
# Poissons Ratio (y) = 0.06613 0.27146
# Poissons Ratio (z) = 0.93682 0.77800
#
# Static dielectric constant tensor:
#      x y z
#    x 3.752660 0.000000 0.000000 
#    y 0.000000 3.403330 0.000000 
#    z 0.000000 0.000000 3.402390 
# 
# 
# High freq. dielectric constant tensor:
#      x y z
#    x 1.689030 0.000000 0.000000 
#    y 0.000000 1.705770 0.000000 
#    z 0.000000 0.000000 1.687510 
# 
# From -- ./inp_files/35125.got.cif
#   From: 2010.03.12/outbox.cif.g09.slc.cpg/sg63_18_cif.got.tgz:35125.got - 2010.04.10 19:34:48.
