data_PCOD8257175
_publ_section_title
;
Structure prediction by ZEFSAII (Michael W. Deem and Ramdas Pophale) SiO2 
 PCOD8257175
Probable space group: C M C M
;
_chemical_formula_sum "Si O2"
_cell_formula_units_Z 112
_cell_length_a 13.529441
_cell_length_b 26.966181
_cell_length_c 18.283065
_cell_angle_alpha 90.000000
_cell_angle_beta 90.000000
_cell_angle_gamma 90.000000
_cell_volume 6670.345073
_symmetry_space_group_name_H-M "C M C M"
_symmetry_group_IT_number 63
_symmetry_cell_setting 'orthorhombic'
loop_
_space_group_symop_operation_xyz
x,y,z
-x,-y,1/2+z
x,-y,-z
-x,y,1/2-z
-x,-y,-z
x,y,1/2-z
-x,y,z
x,-y,1/2+z
1/2+x,1/2+y,z
1/2-x,1/2-y,1/2+z
1/2+x,1/2-y,-z
1/2-x,1/2+y,1/2-z
1/2-x,1/2-y,-z
1/2+x,1/2+y,1/2-z
1/2-x,1/2+y,z
1/2+x,1/2-y,1/2+z
loop_
_atom_site_type_symbol
_atom_site_label
_atom_site_fract_x
_atom_site_fract_y
_atom_site_fract_z
Si Si1 0.886769 0.105634 0.536988
Si Si2 0.112243 0.624839 0.833142
Si Si3 0.707014 0.556763 0.664388
Si Si4 0.384601 0.792774 0.045367
Si Si5 0.786889 0.812282 0.549274
Si Si6 0.391031 0.634215 0.167720
Si Si7 0.388659 0.465479 0.906474
O O1 0.864852 0.095004 0.622010
O O2 0.835858 0.157460 0.517229
O O3 0.854440 0.059039 0.484211
O O4 0.000000 0.115146 0.522020
O O5 0.127474 0.644456 0.750000
O O6 0.181288 0.576727 0.846706
O O7 0.137435 0.669667 0.887956
O O8 0.000000 0.606634 0.845569
O O9 0.677693 0.553652 0.750000
O O10 0.692025 0.504690 0.622661
O O11 0.500000 0.788789 0.028173
O O12 0.338208 0.740043 0.065244
O O13 0.329211 0.809228 0.970625
O O14 0.800844 0.842572 0.623295
O O15 0.368687 0.647848 0.250000
O O16 0.500000 0.655019 0.144192
O O17 0.391797 0.575564 0.156512
O O18 0.500000 0.489163 0.914232
#
# Coordination Sequence:
#
# PCOD8257175 Si02
#       7
#    16  16  16  16  16  16  16
#     4  10  19  32  48  72 103 131 161 200 244 293
#     4   9  19  35  52  71  97 128 167 214 252 283
#     4  11  20  30  47  71  97 132 168 198 239 293
#     4  10  19  33  53  73  95 128 167 203 245 295
#     4  10  19  32  51  76  98 126 160 203 248 294
#     4   9  17  30  49  75 102 125 157 204 251 291
#     4   9  18  31  48  70 100 133 162 195 241 295
#
# _framework density 16.790735000000002
#
# number of rings (size 3 to 8) (size 9 to 14) (size 15 to 20)
#    0.000    2.286    1.429    3.429    0.000    3.429 
#    0.000    1.429    0.000    5.571    0.000    0.000 
#    0.000    0.000    0.000    0.000    0.000    0.000 
#
# Total GULP energy -693865.473242 kJ/mol
# GULP energy per Si atom -12390.454879 kJ/mol
# Density = 1.675252 g / cm^3
# Si number density = 16.790735 Si / 1000 Ang^3
#
#
#
# Elastic Constant Matrix: (Units=GPa)
#
#
# Indices 1 2 3 4 5 6 
#
# 1 93.1497 47.9886 50.1268 0.0000 0.0000 0.0000
# 2 47.9886 73.0153 33.7607 0.0000 0.0000 0.0000
# 3 50.1268 33.7607 87.6934 0.0000 0.0000 0.0000
# 4 0.0000 0.0000 0.0000 13.2669 0.0000 0.0000
# 5 0.0000 0.0000 0.0000 0.0000 24.0393 0.0000
# 6 0.0000 0.0000 0.0000 0.0000 0.0000 28.4963
#
#
#
# Elastic Compliance Matrix: (Units=1/GPa)
#
#
# Indices 1 2 3 4 5 6 
#
# 1 0.019692 -0.009414 -0.007632 0.000000 0.000000 0.000000
# 2 -0.009414 0.021162 -0.002766 0.000000 0.000000 0.000000
# 3 -0.007632 -0.002766 0.016831 0.000000 0.000000 0.000000
# 4 0.000000 0.000000 0.000000 0.075375 0.000000 0.000000
# 5 0.000000 0.000000 0.000000 0.000000 0.041599 0.000000
# 6 0.000000 0.000000 0.000000 0.000000 0.000000 0.035092
#
#
# Mechanical properties :
#
#
# Convention : Reuss Voigt Hill
#
# Bulk Modulus (GPa) = 55.36739 57.51230 56.43984
# Shear Modulus (GPa) = 19.57752 21.29266 20.43509
#
# Velocity S-wave (km/s) = 3.41834 3.56493 3.49240
# Velocity P-wave (km/s) = 6.97328 7.16043 7.06747
#
# Compressibility (1/GPa) = 0.01806117
#
# Stress axis : x y z
#
# Youngs Moduli (GPa) = 50.78153 47.25527 59.41432
#
# Poissons Ratio (x) = 0.44484 0.45347
# Poissons Ratio (y) = 0.47803 0.16434
# Poissons Ratio (z) = 0.38758 0.13071
#
# Static dielectric constant tensor:
#      x y z
#    x 3.143910 0.000000 0.000000 
#    y 0.000000 3.175370 0.000000 
#    z 0.000000 0.000000 3.275120 
# 
# 
# High freq. dielectric constant tensor:
#      x y z
#    x 1.629500 0.000000 0.000000 
#    y 0.000000 1.645980 0.000000 
#    z 0.000000 0.000000 1.649970 
# 
# From -- ./inp_files/53368.got.cif
#   From: 2010.03.12/outbox.cif.g09.slc.cpg/sg63_27_cif.got.tgz:53368.got - 2010.04.10 19:34:48.
