data_PCOD8257605
_publ_section_title
;
Structure prediction by ZEFSAII (Michael W. Deem and Ramdas Pophale) SiO2 
 PCOD8257605
Probable space group: C M C M
;
_chemical_formula_sum "Si O2"
_cell_formula_units_Z 88
_cell_length_a 23.845558
_cell_length_b 20.115130
_cell_length_c 9.438269
_cell_angle_alpha 90.000000
_cell_angle_beta 90.000000
_cell_angle_gamma 90.000000
_cell_volume 4527.127066
_symmetry_space_group_name_H-M "C M C M"
_symmetry_group_IT_number 63
_symmetry_cell_setting 'orthorhombic'
loop_
_space_group_symop_operation_xyz
x,y,z
-x,-y,1/2+z
x,-y,-z
-x,y,1/2-z
-x,-y,-z
x,y,1/2-z
-x,y,z
x,-y,1/2+z
1/2+x,1/2+y,z
1/2-x,1/2-y,1/2+z
1/2+x,1/2-y,-z
1/2-x,1/2+y,1/2-z
1/2-x,1/2-y,-z
1/2+x,1/2+y,1/2-z
1/2-x,1/2+y,z
1/2+x,1/2-y,1/2+z
loop_
_atom_site_type_symbol
_atom_site_label
_atom_site_fract_x
_atom_site_fract_y
_atom_site_fract_z
Si Si1 0.719801 0.308455 0.917532
Si Si2 0.936383 0.677610 0.910045
Si Si3 0.500000 0.571146 0.079810
Si Si4 0.397805 0.059388 0.407558
Si Si5 0.907796 0.823379 0.917044
Si Si6 0.232465 0.443984 0.903616
O O1 0.721714 0.293120 0.750000
O O2 0.656535 0.324162 0.969777
O O3 0.756205 0.371471 0.964989
O O4 0.750000 0.250000 0.000000
O O5 0.911289 0.672655 0.750000
O O6 0.933283 0.752946 0.968087
O O7 0.000000 0.653192 0.910087
O O8 0.902538 0.629914 0.014607
O O9 0.500000 0.559580 0.250000
O O10 0.445174 0.614037 0.029048
O O11 0.500000 0.500000 0.000000
O O12 0.425436 0.062215 0.250000
O O13 0.333022 0.042663 0.389910
O O14 0.426174 0.000000 0.500000
O O15 0.910997 0.826178 0.750000
O O16 0.261624 0.449463 0.750000
O O17 0.261207 0.500000 0.000000
#
# Coordination Sequence:
#
# PCOD8257605 Si02
#       6
#    16  16   8  16  16  16
#     4  10  20  34  54  82 111 142 180 225 275 330
#     4  10  19  33  54  76  98 132 176 216 255 308
#     4  10  20  38  60  84 113 148 191 238 283 336
#     4  10  20  34  51  73 103 138 172 212 258 306
#     4   9  18  35  58  79 107 146 184 221 273 336
#     4   9  19  34  51  73 103 136 172 211 256 310
#
# _framework density 19.438376999999999
#
# number of rings (size 3 to 8) (size 9 to 14) (size 15 to 20)
#    0.000    2.364    0.909    1.636    0.000    2.909 
#    0.000    1.818    0.000    0.000    0.000    0.000 
#    0.000    0.000    0.000    0.000    0.000    0.000 
#
# Total GULP energy -545286.085425 kJ/mol
# GULP energy per Si atom -12392.865578 kJ/mol
# Density = 1.939413 g / cm^3
# Si number density = 19.438377 Si / 1000 Ang^3
#
#
#
# Elastic Constant Matrix: (Units=GPa)
#
#
# Indices 1 2 3 4 5 6 
#
# 1 68.6164 38.7642 26.1683 0.0000 0.0000 0.0000
# 2 38.7642 174.8269 76.5831 0.0000 0.0000 0.0000
# 3 26.1683 76.5831 91.0029 0.0000 0.0000 0.0000
# 4 0.0000 0.0000 0.0000 38.3942 0.0000 0.0000
# 5 0.0000 0.0000 0.0000 0.0000 12.8991 0.0000
# 6 0.0000 0.0000 0.0000 0.0000 0.0000 33.0162
#
#
#
# Elastic Compliance Matrix: (Units=1/GPa)
#
#
# Indices 1 2 3 4 5 6 
#
# 1 0.017079 -0.002591 -0.002731 0.000000 0.000000 0.000000
# 2 -0.002591 0.009453 -0.007210 0.000000 0.000000 0.000000
# 3 -0.002731 -0.007210 0.017841 0.000000 0.000000 0.000000
# 4 0.000000 0.000000 0.000000 0.026046 0.000000 0.000000
# 5 0.000000 0.000000 0.000000 0.000000 0.077525 0.000000
# 6 0.000000 0.000000 0.000000 0.000000 0.000000 0.030288
#
#
# Mechanical properties :
#
#
# Convention : Reuss Voigt Hill
#
# Bulk Modulus (GPa) = 51.78681 68.60860 60.19770
# Shear Modulus (GPa) = 23.84003 29.72394 26.78199
#
# Velocity S-wave (km/s) = 3.50586 3.91466 3.71589
# Velocity P-wave (km/s) = 6.56410 7.47026 7.03179
#
# Compressibility (1/GPa) = 0.01930994
#
# Stress axis : x y z
#
# Youngs Moduli (GPa) = 58.55210 105.79048 56.04922
#
# Poissons Ratio (x) = 0.27405 0.15307
# Poissons Ratio (y) = 0.15168 0.40411
# Poissons Ratio (z) = 0.15991 0.76274
#
# Static dielectric constant tensor:
#      x y z
#    x 3.719780 0.000000 0.000000 
#    y 0.000000 3.662320 0.000000 
#    z 0.000000 0.000000 3.606400 
# 
# 
# High freq. dielectric constant tensor:
#      x y z
#    x 1.745430 0.000000 0.000000 
#    y 0.000000 1.767070 0.000000 
#    z 0.000000 0.000000 1.733460 
# 
# From -- ./inp_files/10195.got.cif
#   From: 2010.03.12/outbox.cif.g09.slc.cpg/sg63_6_cif.got.tgz:10195.got - 2010.04.10 19:34:48.
