data_PCOD8257600
_publ_section_title
;
Structure prediction by ZEFSAII (Michael W. Deem and Ramdas Pophale) SiO2 
 PCOD8257600
Probable space group: C M C M
;
_chemical_formula_sum "Si O2"
_cell_formula_units_Z 80
_cell_length_a 12.150235
_cell_length_b 24.358039
_cell_length_c 14.432078
_cell_angle_alpha 90.000000
_cell_angle_beta 90.000000
_cell_angle_gamma 90.000000
_cell_volume 4271.258604
_symmetry_space_group_name_H-M "C M C M"
_symmetry_group_IT_number 63
_symmetry_cell_setting 'orthorhombic'
loop_
_space_group_symop_operation_xyz
x,y,z
-x,-y,1/2+z
x,-y,-z
-x,y,1/2-z
-x,-y,-z
x,y,1/2-z
-x,y,z
x,-y,1/2+z
1/2+x,1/2+y,z
1/2-x,1/2-y,1/2+z
1/2+x,1/2-y,-z
1/2-x,1/2+y,1/2-z
1/2-x,1/2-y,-z
1/2+x,1/2+y,1/2-z
1/2-x,1/2+y,z
1/2+x,1/2-y,1/2+z
loop_
_atom_site_type_symbol
_atom_site_label
_atom_site_fract_x
_atom_site_fract_y
_atom_site_fract_z
Si Si1 0.627623 0.805829 0.358513
Si Si2 0.316783 0.500000 0.500000
Si Si3 0.000000 0.011168 0.853605
Si Si4 0.500000 0.250393 0.353564
Si Si5 0.765420 0.880745 0.008886
Si Si6 0.500000 0.629625 0.909220
Si Si7 0.225330 0.296390 0.640884
O O1 0.643918 0.817752 0.250000
O O2 0.500000 0.804677 0.386968
O O3 0.689927 0.854300 0.411779
O O4 0.679301 0.746920 0.384920
O O5 0.392018 0.508235 0.408793
O O6 0.239853 0.446033 0.492852
O O7 0.000000 0.985652 0.750000
O O8 0.000000 0.077111 0.842494
O O9 0.500000 0.227597 0.250000
O O10 0.500000 0.315964 0.348155
O O11 0.610999 0.227954 0.401025
O O12 0.894033 0.871677 0.025662
O O13 0.742922 0.854234 0.908908
O O14 0.221464 0.307165 0.750000
#
# Coordination Sequence:
#
# PCOD8257600 Si02
#       7
#    16   8   8   8  16   8  16
#     4  10  22  38  58  86 114 143 187 232 280 344
#     4   9  22  38  51  88 110 144 209 231 262 354
#     4   9  18  36  58  80 116 149 178 241 293 318
#     4  10  19  33  53  84 113 135 183 234 275 341
#     4  11  22  37  58  79 116 151 186 234 282 322
#     4  10  20  31  57  89 109 142 191 221 278 351
#     4  10  22  36  55  85 115 147 185 228 283 343
#
# _framework density 18.729842000000001
#
# number of rings (size 3 to 8) (size 9 to 14) (size 15 to 20)
#    0.000    2.000    2.000    1.500    2.800    4.000 
#    0.000    0.500    0.000    0.000    0.000    0.000 
#    0.000    0.000    0.000    0.000    0.000    0.000 
#
# Total GULP energy -495966.393862 kJ/mol
# GULP energy per Si atom -12399.159847 kJ/mol
# Density = 1.868721 g / cm^3
# Si number density = 18.729842 Si / 1000 Ang^3
#
#
#
# Elastic Constant Matrix: (Units=GPa)
#
#
# Indices 1 2 3 4 5 6 
#
# 1 118.6450 48.9833 33.5423 0.0000 0.0000 0.0000
# 2 48.9833 133.2935 42.8897 0.0000 0.0000 0.0000
# 3 33.5423 42.8897 83.2310 0.0000 0.0000 0.0000
# 4 0.0000 0.0000 0.0000 23.5370 0.0000 0.0000
# 5 0.0000 0.0000 0.0000 0.0000 10.8104 0.0000
# 6 0.0000 0.0000 0.0000 0.0000 0.0000 23.6031
#
#
#
# Elastic Compliance Matrix: (Units=1/GPa)
#
#
# Indices 1 2 3 4 5 6 
#
# 1 0.010407 -0.002967 -0.002665 0.000000 0.000000 0.000000
# 2 -0.002967 0.009839 -0.003875 0.000000 0.000000 0.000000
# 3 -0.002665 -0.003875 0.015085 0.000000 0.000000 0.000000
# 4 0.000000 0.000000 0.000000 0.042486 0.000000 0.000000
# 5 0.000000 0.000000 0.000000 0.000000 0.092503 0.000000
# 6 0.000000 0.000000 0.000000 0.000000 0.000000 0.042367
#
#
# Mechanical properties :
#
#
# Convention : Reuss Voigt Hill
#
# Bulk Modulus (GPa) = 61.28066 65.11114 63.19590
# Shear Modulus (GPa) = 21.08450 25.57371 23.32910
#
# Velocity S-wave (km/s) = 3.35881 3.69914 3.53308
# Velocity P-wave (km/s) = 6.91602 7.28585 7.10334
#
# Compressibility (1/GPa) = 0.01631836
#
# Stress axis : x y z
#
# Youngs Moduli (GPa) = 96.09075 101.63406 66.28897
#
# Poissons Ratio (x) = 0.30153 0.17667
# Poissons Ratio (y) = 0.28508 0.25685
# Poissons Ratio (z) = 0.25610 0.39379
#
# Static dielectric constant tensor:
#      x y z
#    x 3.551090 0.000000 0.000000 
#    y 0.000000 3.482510 0.000000 
#    z 0.000000 0.000000 3.299370 
# 
# 
# High freq. dielectric constant tensor:
#      x y z
#    x 1.721830 0.000000 0.000000 
#    y 0.000000 1.715500 0.000000 
#    z 0.000000 0.000000 1.729600 
# 
# From -- ./inp_files/29813.got.cif
#   From: 2010.03.12/outbox.cif.g09.slc.cpg/sg63_15_cif.got.tgz:29813.got - 2010.04.10 19:34:48.
