data_PCOD8257432
_publ_section_title
;
Structure prediction by ZEFSAII (Michael W. Deem and Ramdas Pophale) SiO2 
 PCOD8257432
Probable space group: C M C M
;
_chemical_formula_sum "Si O2"
_cell_formula_units_Z 128
_cell_length_a 17.583554
_cell_length_b 18.790507
_cell_length_c 18.993105
_cell_angle_alpha 90.000000
_cell_angle_beta 90.000000
_cell_angle_gamma 90.000000
_cell_volume 6275.395861
_symmetry_space_group_name_H-M "C M C M"
_symmetry_group_IT_number 63
_symmetry_cell_setting 'orthorhombic'
loop_
_space_group_symop_operation_xyz
x,y,z
-x,-y,1/2+z
x,-y,-z
-x,y,1/2-z
-x,-y,-z
x,y,1/2-z
-x,y,z
x,-y,1/2+z
1/2+x,1/2+y,z
1/2-x,1/2-y,1/2+z
1/2+x,1/2-y,-z
1/2-x,1/2+y,1/2-z
1/2-x,1/2-y,-z
1/2+x,1/2+y,1/2-z
1/2-x,1/2+y,z
1/2+x,1/2-y,1/2+z
loop_
_atom_site_type_symbol
_atom_site_label
_atom_site_fract_x
_atom_site_fract_y
_atom_site_fract_z
Si Si1 0.084403 0.483043 0.829284
Si Si2 0.086045 0.767283 0.368582
Si Si3 0.315059 0.607777 0.910015
Si Si4 0.155576 0.564834 0.554845
Si Si5 0.083570 0.019395 0.081789
Si Si6 0.084497 0.710185 0.524154
Si Si7 0.690445 0.853680 0.671991
Si Si8 0.831080 0.842429 0.930153
O O1 0.094677 0.513139 0.750000
O O2 0.092227 0.544417 0.887539
O O3 0.149734 0.426965 0.847646
O O4 0.000000 0.449291 0.837246
O O5 0.145953 0.832321 0.361580
O O6 0.078878 0.747026 0.449407
O O7 0.123280 0.704309 0.324405
O O8 0.000000 0.785382 0.340862
O O9 0.227446 0.588187 0.897154
O O10 0.359505 0.537398 0.885860
O O11 0.314959 0.631053 0.991391
O O12 0.173096 0.500000 0.500000
O O13 0.124531 0.633876 0.513776
O O14 0.000000 0.011497 0.115328
O O15 0.111680 0.098802 0.101149
O O16 0.079289 0.000000 0.000000
O O17 0.132700 0.763607 0.573773
O O18 0.000000 0.700954 0.556101
O O19 0.727513 0.857453 0.750000
O O20 0.753305 0.837090 0.613539
#
# Coordination Sequence:
#
# PCOD8257432 Si02
#       8
#    16  16  16  16  16  16  16  16
#     4  10  22  39  56  76 106 143 180 221 271 323
#     4  10  20  35  55  80 110 140 173 219 274 326
#     4  10  19  32  53  83 113 137 168 216 275 330
#     4  12  22  34  55  82 111 143 182 226 270 319
#     4   9  16  28  51  81 109 138 171 207 256 320
#     4  10  21  35  55  83 111 141 177 221 276 329
#     4  11  22  36  56  79 105 143 187 224 262 316
#     4  10  19  35  55  78 111 143 175 221 272 320
#
# _framework density 20.397119
#
# number of rings (size 3 to 8) (size 9 to 14) (size 15 to 20)
#    0.000    1.750    0.000    6.375    0.000    7.750 
#    0.000    2.500    0.000    3.000    0.000    0.000 
#    0.000    0.000    0.000    0.000    0.000    0.000 
#
# Total GULP energy -793154.259026 kJ/mol
# GULP energy per Si atom -12393.035297 kJ/mol
# Density = 2.035069 g / cm^3
# Si number density = 20.397119 Si / 1000 Ang^3
#
#
#
# Elastic Constant Matrix: (Units=GPa)
#
#
# Indices 1 2 3 4 5 6 
#
# 1 126.2422 37.3206 17.5143 0.0000 0.0000 0.0000
# 2 37.3206 112.0419 12.6787 0.0000 0.0000 0.0000
# 3 17.5143 12.6787 35.5997 0.0000 0.0000 0.0000
# 4 0.0000 0.0000 0.0000 17.1963 0.0000 0.0000
# 5 0.0000 0.0000 0.0000 0.0000 15.0078 0.0000
# 6 0.0000 0.0000 0.0000 0.0000 0.0000 38.7712
#
#
#
# Elastic Compliance Matrix: (Units=1/GPa)
#
#
# Indices 1 2 3 4 5 6 
#
# 1 0.009205 -0.002661 -0.003581 0.000000 0.000000 0.000000
# 2 -0.002661 0.010069 -0.002277 0.000000 0.000000 0.000000
# 3 -0.003581 -0.002277 0.030663 0.000000 0.000000 0.000000
# 4 0.000000 0.000000 0.000000 0.058152 0.000000 0.000000
# 5 0.000000 0.000000 0.000000 0.000000 0.066632 0.000000
# 6 0.000000 0.000000 0.000000 0.000000 0.000000 0.025792
#
#
# Mechanical properties :
#
#
# Convention : Reuss Voigt Hill
#
# Bulk Modulus (GPa) = 30.39583 45.43455 37.91519
# Shear Modulus (GPa) = 21.88023 27.95307 24.91665
#
# Velocity S-wave (km/s) = 3.27878 3.70596 3.49890
# Velocity P-wave (km/s) = 5.41001 6.37460 5.91201
#
# Compressibility (1/GPa) = 0.03289925
#
# Stress axis : x y z
#
# Youngs Moduli (GPa) = 108.64025 99.31262 32.61276
#
# Poissons Ratio (x) = 0.26425 0.11678
# Poissons Ratio (y) = 0.28907 0.07426
# Poissons Ratio (z) = 0.38903 0.22614
#
# Static dielectric constant tensor:
#      x y z
#    x 3.973820 0.000000 0.000000 
#    y 0.000000 3.820190 0.000000 
#    z 0.000000 0.000000 3.233640 
# 
# 
# High freq. dielectric constant tensor:
#      x y z
#    x 1.813310 0.000000 0.000000 
#    y 0.000000 1.802290 0.000000 
#    z 0.000000 0.000000 1.746020 
# 
# From -- ./inp_files/64057.got.cif
#   From: 2010.03.12/outbox.cif.g09.slc.cpg/sg63_33_cif.got.tgz:64057.got - 2010.04.10 19:34:48.
