data_PCOD8257359
_publ_section_title
;
Structure prediction by ZEFSAII (Michael W. Deem and Ramdas Pophale) SiO2 
 PCOD8257359
Probable space group: C M C M
;
_chemical_formula_sum "Si O2"
_cell_formula_units_Z 96
_cell_length_a 23.563291
_cell_length_b 23.705944
_cell_length_c 8.953418
_cell_angle_alpha 90.000000
_cell_angle_beta 90.000000
_cell_angle_gamma 90.000000
_cell_volume 5001.290270
_symmetry_space_group_name_H-M "C M C M"
_symmetry_group_IT_number 63
_symmetry_cell_setting 'orthorhombic'
loop_
_space_group_symop_operation_xyz
x,y,z
-x,-y,1/2+z
x,-y,-z
-x,y,1/2-z
-x,-y,-z
x,y,1/2-z
-x,y,z
x,-y,1/2+z
1/2+x,1/2+y,z
1/2-x,1/2-y,1/2+z
1/2+x,1/2-y,-z
1/2-x,1/2+y,1/2-z
1/2-x,1/2-y,-z
1/2+x,1/2+y,1/2-z
1/2-x,1/2+y,z
1/2+x,1/2-y,1/2+z
loop_
_atom_site_type_symbol
_atom_site_label
_atom_site_fract_x
_atom_site_fract_y
_atom_site_fract_z
Si Si1 0.339416 0.235080 0.075897
Si Si2 0.938711 0.060734 0.574782
Si Si3 0.567442 0.055055 0.082372
Si Si4 0.227871 0.828718 0.921201
Si Si5 0.434689 0.169416 0.925542
Si Si6 0.829226 0.059274 0.422832
O O1 0.353551 0.237681 0.250000
O O2 0.292041 0.187908 0.036893
O O3 0.316936 0.295780 0.023945
O O4 0.397107 0.220295 0.989325
O O5 0.926715 0.055141 0.750000
O O6 0.885126 0.090013 0.494652
O O7 0.000000 0.091371 0.547253
O O8 0.941343 0.000000 0.500000
O O9 0.592060 0.057194 0.250000
O O10 0.500000 0.051167 0.085042
O O11 0.587073 0.110972 0.996568
O O12 0.592694 0.000000 0.000000
O O13 0.214860 0.812132 0.750000
O O14 0.221495 0.895952 0.946450
O O15 0.426690 0.164641 0.750000
O O16 0.500000 0.181550 0.968623
O O17 0.840849 0.047125 0.250000
O O18 0.813244 0.000000 0.500000
#
# Coordination Sequence:
#
# PCOD8257359 Si02
#       6
#    16  16  16  16  16  16
#     4  10  20  36  59  81 102 133 176 222 262 308
#     4   9  16  26  42  66  97 132 169 205 243 293
#     4   9  16  27  45  70 101 137 176 214 255 308
#     4   9  20  38  57  78 104 136 174 215 260 311
#     4  10  20  34  53  78 109 142 175 215 265 318
#     4  10  19  32  52  77 106 136 168 209 256 307
#
# _framework density 19.195046000000001
#
# number of rings (size 3 to 8) (size 9 to 14) (size 15 to 20)
#    0.000    2.500    0.000    3.500    0.000    6.000 
#    0.000    1.667    0.000    3.000    0.000    0.000 
#    0.000    0.000    0.000    0.000    0.000    0.000 
#
# Total GULP energy -594977.937951 kJ/mol
# GULP energy per Si atom -12395.373707 kJ/mol
# Density = 1.915136 g / cm^3
# Si number density = 19.195046 Si / 1000 Ang^3
#
#
#
# Elastic Constant Matrix: (Units=GPa)
#
#
# Indices 1 2 3 4 5 6 
#
# 1 65.3729 38.0788 39.1357 0.0000 0.0000 0.0000
# 2 38.0788 76.3120 40.6025 0.0000 0.0000 0.0000
# 3 39.1357 40.6025 118.4553 0.0000 0.0000 0.0000
# 4 0.0000 0.0000 0.0000 31.2829 0.0000 0.0000
# 5 0.0000 0.0000 0.0000 0.0000 25.5632 0.0000
# 6 0.0000 0.0000 0.0000 0.0000 0.0000 24.3818
#
#
#
# Elastic Compliance Matrix: (Units=1/GPa)
#
#
# Indices 1 2 3 4 5 6 
#
# 1 0.023423 -0.009259 -0.004565 0.000000 0.000000 0.000000
# 2 -0.009259 0.019687 -0.003689 0.000000 0.000000 0.000000
# 3 -0.004565 -0.003689 0.011215 0.000000 0.000000 0.000000
# 4 0.000000 0.000000 0.000000 0.031966 0.000000 0.000000
# 5 0.000000 0.000000 0.000000 0.000000 0.039119 0.000000
# 6 0.000000 0.000000 0.000000 0.000000 0.000000 0.041014
#
#
# Mechanical properties :
#
#
# Convention : Reuss Voigt Hill
#
# Bulk Modulus (GPa) = 51.81680 55.08604 53.45142
# Shear Modulus (GPa) = 24.05205 25.73378 24.89292
#
# Velocity S-wave (km/s) = 3.54366 3.66546 3.60507
# Velocity P-wave (km/s) = 6.61792 6.83187 6.72575
#
# Compressibility (1/GPa) = 0.01929876
#
# Stress axis : x y z
#
# Youngs Moduli (GPa) = 42.69340 50.79500 89.16924
#
# Poissons Ratio (x) = 0.47031 0.40705
# Poissons Ratio (y) = 0.39530 0.32895
# Poissons Ratio (z) = 0.19489 0.18738
#
# Static dielectric constant tensor:
#      x y z
#    x 3.710850 0.000000 0.000000 
#    y 0.000000 3.257980 0.000000 
#    z 0.000000 0.000000 3.655380 
# 
# 
# High freq. dielectric constant tensor:
#      x y z
#    x 1.729320 0.000000 0.000000 
#    y 0.000000 1.723030 0.000000 
#    z 0.000000 0.000000 1.761830 
# 
# From -- ./inp_files/10440.got.cif
#   From: 2010.03.12/outbox.cif.g09.slc.cpg/sg63_6_cif.got.tgz:10440.got - 2010.04.10 19:34:48.
