data_PCOD8257577
_publ_section_title
;
Structure prediction by ZEFSAII (Michael W. Deem and Ramdas Pophale) SiO2 
 PCOD8257577
Probable space group: C M C M
;
_chemical_formula_sum "Si O2"
_cell_formula_units_Z 80
_cell_length_a 26.804340
_cell_length_b 18.664528
_cell_length_c 8.484074
_cell_angle_alpha 90.000000
_cell_angle_beta 90.000000
_cell_angle_gamma 90.000000
_cell_volume 4244.500389
_symmetry_space_group_name_H-M "C M C M"
_symmetry_group_IT_number 63
_symmetry_cell_setting 'orthorhombic'
loop_
_space_group_symop_operation_xyz
x,y,z
-x,-y,1/2+z
x,-y,-z
-x,y,1/2-z
-x,-y,-z
x,y,1/2-z
-x,y,z
x,-y,1/2+z
1/2+x,1/2+y,z
1/2-x,1/2-y,1/2+z
1/2+x,1/2-y,-z
1/2-x,1/2+y,1/2-z
1/2-x,1/2-y,-z
1/2+x,1/2+y,1/2-z
1/2-x,1/2+y,z
1/2+x,1/2-y,1/2+z
loop_
_atom_site_type_symbol
_atom_site_label
_atom_site_fract_x
_atom_site_fract_y
_atom_site_fract_z
Si Si1 0.055989 0.573432 0.436232
Si Si2 0.849695 0.923957 0.436005
Si Si3 0.943685 0.150469 0.433728
Si Si4 0.701290 0.712574 0.066287
Si Si5 0.893229 0.282856 0.564837
O O1 0.080491 0.500000 0.500000
O O2 0.054772 0.572263 0.250000
O O3 0.088367 0.640125 0.495588
O O4 0.000000 0.581163 0.504752
O O5 0.854880 0.925992 0.250000
O O6 0.904294 0.908800 0.509014
O O7 0.809473 0.863534 0.483077
O O8 0.830282 0.000000 0.500000
O O9 0.934596 0.165516 0.250000
O O10 0.935608 0.224110 0.529009
O O11 0.000000 0.123092 0.466054
O O12 0.707719 0.698163 0.250000
O O13 0.750000 0.750000 0.000000
O O14 0.655921 0.766224 0.034394
O O15 0.880886 0.281978 0.750000
#
# Coordination Sequence:
#
# PCOD8257577 Si02
#       5
#    16  16  16  16  16
#     4   9  18  31  48  72 104 141 178 216 260 311
#     4  11  22  38  59  83 112 145 179 219 268 318
#     4  10  20  33  51  78 110 145 184 222 262 313
#     4  11  22  39  61  84 108 137 177 221 269 322
#     4  10  19  33  53  77 105 138 178 223 271 321
#
# _framework density 18.847919000000001
#
# number of rings (size 3 to 8) (size 9 to 14) (size 15 to 20)
#    0.000    1.800    0.000    7.800    0.000    4.400 
#    0.000    3.000    0.000    2.400    0.000    0.000 
#    0.000    0.000    0.000    0.000    0.000    0.000 
#
# Total GULP energy -496062.272562 kJ/mol
# GULP energy per Si atom -12401.556814 kJ/mol
# Density = 1.880502 g / cm^3
# Si number density = 18.847919 Si / 1000 Ang^3
#
#
#
# Elastic Constant Matrix: (Units=GPa)
#
#
# Indices 1 2 3 4 5 6 
#
# 1 100.0437 52.6085 24.1863 0.0000 0.0000 0.0000
# 2 52.6085 150.0638 19.4253 0.0000 0.0000 0.0000
# 3 24.1863 19.4253 67.2418 0.0000 0.0000 0.0000
# 4 0.0000 0.0000 0.0000 34.4012 0.0000 0.0000
# 5 0.0000 0.0000 0.0000 0.0000 30.7294 0.0000
# 6 0.0000 0.0000 0.0000 0.0000 0.0000 15.8897
#
#
#
# Elastic Compliance Matrix: (Units=1/GPa)
#
#
# Indices 1 2 3 4 5 6 
#
# 1 0.012998 -0.004105 -0.003489 0.000000 0.000000 0.000000
# 2 -0.004105 0.008219 -0.000898 0.000000 0.000000 0.000000
# 3 -0.003489 -0.000898 0.016386 0.000000 0.000000 0.000000
# 4 0.000000 0.000000 0.000000 0.029069 0.000000 0.000000
# 5 0.000000 0.000000 0.000000 0.000000 0.032542 0.000000
# 6 0.000000 0.000000 0.000000 0.000000 0.000000 0.062934
#
#
# Mechanical properties :
#
#
# Convention : Reuss Voigt Hill
#
# Bulk Modulus (GPa) = 48.49957 56.64329 52.57143
# Shear Modulus (GPa) = 26.88095 30.94602 28.91348
#
# Velocity S-wave (km/s) = 3.78061 4.05641 3.92093
# Velocity P-wave (km/s) = 6.69666 7.21507 6.96069
#
# Compressibility (1/GPa) = 0.02061874
#
# Stress axis : x y z
#
# Youngs Moduli (GPa) = 76.93583 121.66670 61.02714
#
# Poissons Ratio (x) = 0.49945 0.21294
# Poissons Ratio (y) = 0.31582 0.05479
# Poissons Ratio (z) = 0.26845 0.10924
#
# Static dielectric constant tensor:
#      x y z
#    x 8.650060 0.000000 0.000000 
#    y 0.000000 3.579950 0.000000 
#    z 0.000000 0.000000 3.568320 
# 
# 
# High freq. dielectric constant tensor:
#      x y z
#    x 1.714750 0.000000 0.000000 
#    y 0.000000 1.735400 0.000000 
#    z 0.000000 0.000000 1.745080 
# 
# From -- ./inp_files/12023.got.cif
#   From: 2010.03.12/outbox.cif.g09.slc.cpg/sg63_7_cif.got.tgz:12023.got - 2010.04.10 19:34:48.
