data_PCOD8257326
_publ_section_title
;
Structure prediction by ZEFSAII (Michael W. Deem and Ramdas Pophale) SiO2 
 PCOD8257326
Probable space group: C M C M
;
_chemical_formula_sum "Si O2"
_cell_formula_units_Z 80
_cell_length_a 9.099901
_cell_length_b 19.198043
_cell_length_c 25.501269
_cell_angle_alpha 90.000000
_cell_angle_beta 90.000000
_cell_angle_gamma 90.000000
_cell_volume 4455.079107
_symmetry_space_group_name_H-M "C M C M"
_symmetry_group_IT_number 63
_symmetry_cell_setting 'orthorhombic'
loop_
_space_group_symop_operation_xyz
x,y,z
-x,-y,1/2+z
x,-y,-z
-x,y,1/2-z
-x,-y,-z
x,y,1/2-z
-x,y,z
x,-y,1/2+z
1/2+x,1/2+y,z
1/2-x,1/2-y,1/2+z
1/2+x,1/2-y,-z
1/2-x,1/2+y,1/2-z
1/2-x,1/2-y,-z
1/2+x,1/2+y,1/2-z
1/2-x,1/2+y,z
1/2+x,1/2-y,1/2+z
loop_
_atom_site_type_symbol
_atom_site_label
_atom_site_fract_x
_atom_site_fract_y
_atom_site_fract_z
Si Si1 0.325247 0.553788 0.344337
Si Si2 0.326214 0.456156 0.250000
Si Si3 0.667095 0.794154 0.957640
Si Si4 0.170100 0.454220 0.548440
Si Si5 0.674169 0.300268 0.250000
Si Si6 0.174440 0.698535 0.340782
O O1 0.500000 0.561912 0.346717
O O2 0.274239 0.496613 0.301937
O O3 0.265834 0.528120 0.400484
O O4 0.255461 0.626900 0.326590
O O5 0.500000 0.450537 0.250000
O O6 0.257716 0.378023 0.250000
O O7 0.500000 0.772368 0.963447
O O8 0.692855 0.875055 0.969075
O O9 0.721461 0.776603 0.898821
O O10 0.750000 0.750000 0.000000
O O11 0.227139 0.500000 0.500000
O O12 0.000000 0.469656 0.561720
O O13 0.500000 0.304625 0.250000
O O14 0.727525 0.258497 0.301300
O O15 0.000000 0.684096 0.337955
#
# Coordination Sequence:
#
# PCOD8257326 Si02
#       6
#    16   8  16  16   8  16
#     4  10  19  32  52  75 101 132 164 202 247 295
#     4   9  19  32  47  75 108 131 158 204 256 293
#     4   9  18  31  48  72  98 125 159 198 240 285
#     4   9  19  36  54  72  98 131 167 206 245 289
#     4   9  17  32  53  73  96 129 166 202 242 291
#     4   9  18  33  53  73  94 128 170 203 236 287
#
# _framework density 17.957032000000002
#
# number of rings (size 3 to 8) (size 9 to 14) (size 15 to 20)
#    0.000    2.800    0.000    2.400    0.000    5.200 
#    0.000    3.500    0.000    4.800    0.000    0.000 
#    0.000    0.000    0.000    0.000    0.000    0.000 
#
# Total GULP energy -495948.647777 kJ/mol
# GULP energy per Si atom -12398.716194 kJ/mol
# Density = 1.791616 g / cm^3
# Si number density = 17.957032 Si / 1000 Ang^3
#
#
#
# Elastic Constant Matrix: (Units=GPa)
#
#
# Indices 1 2 3 4 5 6 
#
# 1 44.2207 39.0159 38.5185 0.0000 0.0000 0.0000
# 2 39.0159 133.5294 103.4464 0.0000 0.0000 0.0000
# 3 38.5185 103.4464 147.0657 0.0000 0.0000 0.0000
# 4 0.0000 0.0000 0.0000 41.0943 0.0000 0.0000
# 5 0.0000 0.0000 0.0000 0.0000 25.3485 0.0000
# 6 0.0000 0.0000 0.0000 0.0000 0.0000 24.3190
#
#
#
# Elastic Compliance Matrix: (Units=1/GPa)
#
#
# Indices 1 2 3 4 5 6 
#
# 1 0.031453 -0.006171 -0.003897 0.000000 0.000000 0.000000
# 2 -0.006171 0.017668 -0.010811 0.000000 0.000000 0.000000
# 3 -0.003897 -0.010811 0.015425 0.000000 0.000000 0.000000
# 4 0.000000 0.000000 0.000000 0.024334 0.000000 0.000000
# 5 0.000000 0.000000 0.000000 0.000000 0.039450 0.000000
# 6 0.000000 0.000000 0.000000 0.000000 0.000000 0.041120
#
#
# Mechanical properties :
#
#
# Convention : Reuss Voigt Hill
#
# Bulk Modulus (GPa) = 43.88481 76.30859 60.09670
# Shear Modulus (GPa) = 22.85139 27.74137 25.29638
#
# Velocity S-wave (km/s) = 3.57117 3.93475 3.75736
# Velocity P-wave (km/s) = 6.44175 7.95176 7.23625
#
# Compressibility (1/GPa) = 0.02278693
#
# Stress axis : x y z
#
# Youngs Moduli (GPa) = 31.79310 56.60075 64.82969
#
# Poissons Ratio (x) = 0.34929 0.25266
# Poissons Ratio (y) = 0.19620 0.70088
# Poissons Ratio (z) = 0.12391 0.61192
#
# Static dielectric constant tensor:
#      x y z
#    x 3.110230 0.000000 0.000000 
#    y 0.000000 3.663910 0.000000 
#    z 0.000000 0.000000 3.325980 
# 
# 
# High freq. dielectric constant tensor:
#      x y z
#    x 1.672360 0.000000 0.000000 
#    y 0.000000 1.692870 0.000000 
#    z 0.000000 0.000000 1.708500 
# 
# From -- ./inp_files/66806.got.cif
#   From: 2010.03.12/outbox.cif.g09.slc.cpg/sg63_34_cif.got.tgz:66806.got - 2010.04.10 19:34:48.
