data_PCOD8257332
_publ_section_title
;
Structure prediction by ZEFSAII (Michael W. Deem and Ramdas Pophale) SiO2 
 PCOD8257332
Probable space group: C M C M
;
_chemical_formula_sum "Si O2"
_cell_formula_units_Z 80
_cell_length_a 13.593428
_cell_length_b 18.570813
_cell_length_c 17.759607
_cell_angle_alpha 90.000000
_cell_angle_beta 90.000000
_cell_angle_gamma 90.000000
_cell_volume 4483.253118
_symmetry_space_group_name_H-M "C M C M"
_symmetry_group_IT_number 63
_symmetry_cell_setting 'orthorhombic'
loop_
_space_group_symop_operation_xyz
x,y,z
-x,-y,1/2+z
x,-y,-z
-x,y,1/2-z
-x,-y,-z
x,y,1/2-z
-x,y,z
x,-y,1/2+z
1/2+x,1/2+y,z
1/2-x,1/2-y,1/2+z
1/2+x,1/2-y,-z
1/2-x,1/2+y,1/2-z
1/2-x,1/2-y,-z
1/2+x,1/2+y,1/2-z
1/2-x,1/2+y,z
1/2+x,1/2-y,1/2+z
loop_
_atom_site_type_symbol
_atom_site_label
_atom_site_fract_x
_atom_site_fract_y
_atom_site_fract_z
Si Si1 0.389784 0.633839 0.837312
Si Si2 0.888846 0.435337 0.339041
Si Si3 0.699368 0.787363 0.337873
Si Si4 0.884245 0.138996 0.162181
Si Si5 0.706747 0.499649 0.911225
O O1 0.379031 0.611829 0.750000
O O2 0.500000 0.660087 0.856446
O O3 0.314850 0.699006 0.856222
O O4 0.365003 0.563287 0.884851
O O5 0.872233 0.439461 0.250000
O O6 0.863453 0.354981 0.368920
O O7 0.816274 0.492334 0.377598
O O8 0.000000 0.454977 0.361681
O O9 0.678805 0.781342 0.250000
O O10 0.662935 0.712172 0.372761
O O11 0.858851 0.128420 0.250000
O O12 0.000000 0.141907 0.148705
O O13 0.837780 0.075126 0.115197
O O14 0.713873 0.500000 0.000000
#
# Coordination Sequence:
#
# PCOD8257332 Si02
#       5
#    16  16  16  16  16
#     4   9  17  32  53  73  97 132 169 204 245 295
#     4   9  17  33  56  75  93 124 165 204 243 293
#     4   8  15  29  51  77  97 116 156 210 254 291
#     4  10  19  32  52  76 100 126 161 208 253 289
#     4  11  22  33  47  71 104 136 166 202 242 289
#
# _framework density 17.844186000000001
#
# number of rings (size 3 to 8) (size 9 to 14) (size 15 to 20)
#    0.000    2.600    0.000    4.200    0.000    6.000 
#    0.000    5.000    0.000    6.000    0.000    0.000 
#    0.000    0.000    0.000    0.000    0.000    0.000 
#
# Total GULP energy -495912.244540 kJ/mol
# GULP energy per Si atom -12397.806114 kJ/mol
# Density = 1.780357 g / cm^3
# Si number density = 17.844186 Si / 1000 Ang^3
#
#
#
# Elastic Constant Matrix: (Units=GPa)
#
#
# Indices 1 2 3 4 5 6 
#
# 1 149.4399 54.8624 47.7877 0.0000 0.0000 0.0000
# 2 54.8624 101.3587 34.8308 0.0000 0.0000 0.0000
# 3 47.7877 34.8308 62.7327 0.0000 0.0000 0.0000
# 4 0.0000 0.0000 0.0000 -15.9525 0.0000 0.0000
# 5 0.0000 0.0000 0.0000 0.0000 11.3435 0.0000
# 6 0.0000 0.0000 0.0000 0.0000 0.0000 23.7994
#
#
#
# Elastic Compliance Matrix: (Units=1/GPa)
#
#
# Indices 1 2 3 4 5 6 
#
# 1 0.009685 -0.003345 -0.005520 0.000000 0.000000 0.000000
# 2 -0.003345 0.013348 -0.004863 0.000000 0.000000 0.000000
# 3 -0.005520 -0.004863 0.022846 0.000000 0.000000 0.000000
# 4 0.000000 0.000000 0.000000 -0.062686 0.000000 0.000000
# 5 0.000000 0.000000 0.000000 0.000000 0.088156 0.000000
# 6 0.000000 0.000000 0.000000 0.000000 0.000000 0.042018
#
#
# Mechanical properties :
#
#
# Convention : Reuss Voigt Hill
#
# Bulk Modulus (GPa) = 54.28327 65.38815 59.83571
# Shear Modulus (GPa) = 34.02198 15.57476 24.79837
#
# Velocity S-wave (km/s) = 4.37122 2.95756 3.73194
# Velocity P-wave (km/s) = 7.48087 6.95603 7.22322
#
# Compressibility (1/GPa) = 0.01842188
#
# Stress axis : x y z
#
# Youngs Moduli (GPa) = 103.25180 74.91975 43.77172
#
# Poissons Ratio (x) = 0.25062 0.24164
# Poissons Ratio (y) = 0.34540 0.21285
# Poissons Ratio (z) = 0.56999 0.36431
#
# Static dielectric constant tensor:
#      x y z
#    x 3.544320 0.000000 0.000000 
#    y 0.000000 3.348280 0.000000 
#    z 0.000000 0.000000 2.973720 
# 
# 
# High freq. dielectric constant tensor:
#      x y z
#    x 1.703620 0.000000 0.000000 
#    y 0.000000 1.682840 0.000000 
#    z 0.000000 0.000000 1.655330 
# 
# From -- ./inp_files/43930.got.cif
#   From: 2010.03.12/outbox.cif.g09.slc.cpg/sg63_22_cif.got.tgz:43930.got - 2010.04.10 19:34:48.
