data_PCOD8257845
_publ_section_title
;
Structure prediction by ZEFSAII (Michael W. Deem and Ramdas Pophale) SiO2 
 PCOD8257845
Probable space group: C M C M
;
_chemical_formula_sum "Si O2"
_cell_formula_units_Z 88
_cell_length_a 18.180824
_cell_length_b 29.059216
_cell_length_c 9.000081
_cell_angle_alpha 90.000000
_cell_angle_beta 90.000000
_cell_angle_gamma 90.000000
_cell_volume 4754.927219
_symmetry_space_group_name_H-M "C M C M"
_symmetry_group_IT_number 63
_symmetry_cell_setting 'orthorhombic'
loop_
_space_group_symop_operation_xyz
x,y,z
-x,-y,1/2+z
x,-y,-z
-x,y,1/2-z
-x,-y,-z
x,y,1/2-z
-x,y,z
x,-y,1/2+z
1/2+x,1/2+y,z
1/2-x,1/2-y,1/2+z
1/2+x,1/2-y,-z
1/2-x,1/2+y,1/2-z
1/2-x,1/2-y,-z
1/2+x,1/2+y,1/2-z
1/2-x,1/2+y,z
1/2+x,1/2-y,1/2+z
loop_
_atom_site_type_symbol
_atom_site_label
_atom_site_fract_x
_atom_site_fract_y
_atom_site_fract_z
Si Si1 0.314848 0.278116 0.074047
Si Si2 0.500000 0.049723 0.927364
Si Si3 0.916776 0.047839 0.924991
Si Si4 0.086368 0.712329 0.582860
Si Si5 0.296247 0.618337 0.573822
Si Si6 0.132656 0.613292 0.926098
O O1 0.308089 0.276105 0.250000
O O2 0.311398 0.330339 0.014777
O O3 0.250000 0.250000 0.000000
O O4 0.390605 0.254951 0.020747
O O5 0.500000 0.044915 0.750000
O O6 0.572782 0.076691 0.985750
O O7 0.500000 0.000000 0.000000
O O8 0.907459 0.041747 0.750000
O O9 0.859943 0.085353 0.990200
O O10 0.000000 0.063190 0.965418
O O11 0.896400 0.000000 0.000000
O O12 0.117725 0.719468 0.750000
O O13 0.116523 0.664602 0.513678
O O14 0.000000 0.709578 0.586115
O O15 0.300103 0.618585 0.750000
O O16 0.215534 0.600034 0.522657
O O17 0.125239 0.614959 0.750000
#
# Coordination Sequence:
#
# PCOD8257845 Si02
#       6
#    16   8  16  16  16  16
#     4  11  21  34  54  80 111 144 180 223 269 316
#     4  10  20  34  54  76 102 136 176 224 269 318
#     4   9  18  34  55  77 101 132 169 211 261 315
#     4  10  19  34  56  78 103 142 188 223 260 320
#     4   9  18  32  54  78 102 137 178 214 254 320
#     4   9  16  31  54  74  95 136 182 211 255 323
#
# _framework density 18.507118999999999
#
# number of rings (size 3 to 8) (size 9 to 14) (size 15 to 20)
#    0.000    2.364    2.727    0.545    0.000    1.818 
#    0.000    4.545    0.000    2.182    0.000    0.000 
#    0.000    0.000    0.000    0.000    0.000    0.000 
#
# Total GULP energy -545475.289344 kJ/mol
# GULP energy per Si atom -12397.165667 kJ/mol
# Density = 1.846500 g / cm^3
# Si number density = 18.507119 Si / 1000 Ang^3
#
#
#
# Elastic Constant Matrix: (Units=GPa)
#
#
# Indices 1 2 3 4 5 6 
#
# 1 143.5406 96.8215 23.1339 0.0000 0.0000 0.0000
# 2 96.8215 158.4590 29.8213 0.0000 0.0000 0.0000
# 3 23.1339 29.8213 31.2722 0.0000 0.0000 0.0000
# 4 0.0000 0.0000 0.0000 28.6919 0.0000 0.0000
# 5 0.0000 0.0000 0.0000 0.0000 20.1113 0.0000
# 6 0.0000 0.0000 0.0000 0.0000 0.0000 40.8307
#
#
#
# Elastic Compliance Matrix: (Units=1/GPa)
#
#
# Indices 1 2 3 4 5 6 
#
# 1 0.011985 -0.006891 -0.002294 0.000000 0.000000 0.000000
# 2 -0.006891 0.011653 -0.006015 0.000000 0.000000 0.000000
# 3 -0.002294 -0.006015 0.039410 0.000000 0.000000 0.000000
# 4 0.000000 0.000000 0.000000 0.034853 0.000000 0.000000
# 5 0.000000 0.000000 0.000000 0.000000 0.049723 0.000000
# 6 0.000000 0.000000 0.000000 0.000000 0.000000 0.024491
#
#
# Mechanical properties :
#
#
# Convention : Reuss Voigt Hill
#
# Bulk Modulus (GPa) = 30.63012 70.31392 50.47202
# Shear Modulus (GPa) = 23.43023 30.15977 26.79500
#
# Velocity S-wave (km/s) = 3.56197 4.04125 3.80915
# Velocity P-wave (km/s) = 5.78819 7.73634 6.83206
#
# Compressibility (1/GPa) = 0.03264760
#
# Stress axis : x y z
#
# Youngs Moduli (GPa) = 83.44034 85.81245 25.37397
#
# Poissons Ratio (x) = 0.59134 0.05822
# Poissons Ratio (y) = 0.57499 0.15262
# Poissons Ratio (z) = 0.19145 0.51616
#
# Static dielectric constant tensor:
#      x y z
#    x 3.750180 0.000000 0.000000 
#    y 0.000000 3.752560 0.000000 
#    z 0.000000 0.000000 3.383940 
# 
# 
# High freq. dielectric constant tensor:
#      x y z
#    x 1.733650 0.000000 0.000000 
#    y 0.000000 1.718700 0.000000 
#    z 0.000000 0.000000 1.674660 
# 
# From -- ./inp_files/6796.got.cif
#   From: 2010.03.12/outbox.cif.g09.slc.cpg/sg63_4_cif.got.tgz:6796.got - 2010.04.10 19:34:48.
