data_PCOD8257173
_publ_section_title
;
Structure prediction by ZEFSAII (Michael W. Deem and Ramdas Pophale) SiO2 
 PCOD8257173
Probable space group: C M C M
;
_chemical_formula_sum "Si O2"
_cell_formula_units_Z 104
_cell_length_a 20.094571
_cell_length_b 20.774414
_cell_length_c 14.700311
_cell_angle_alpha 90.000000
_cell_angle_beta 90.000000
_cell_angle_gamma 90.000000
_cell_volume 6136.688003
_symmetry_space_group_name_H-M "C M C M"
_symmetry_group_IT_number 63
_symmetry_cell_setting 'orthorhombic'
loop_
_space_group_symop_operation_xyz
x,y,z
-x,-y,1/2+z
x,-y,-z
-x,y,1/2-z
-x,-y,-z
x,y,1/2-z
-x,y,z
x,-y,1/2+z
1/2+x,1/2+y,z
1/2-x,1/2-y,1/2+z
1/2+x,1/2-y,-z
1/2-x,1/2+y,1/2-z
1/2-x,1/2-y,-z
1/2+x,1/2+y,1/2-z
1/2-x,1/2+y,z
1/2+x,1/2-y,1/2+z
loop_
_atom_site_type_symbol
_atom_site_label
_atom_site_fract_x
_atom_site_fract_y
_atom_site_fract_z
Si Si1 0.500000 0.289051 0.356308
Si Si2 0.738090 0.177732 0.473830
Si Si3 0.000000 0.074866 0.555090
Si Si4 0.862060 0.985644 0.100551
Si Si5 0.139899 0.261375 0.852731
Si Si6 0.777489 0.132530 0.849608
Si Si7 0.500000 0.388063 0.644818
Si Si8 0.855537 0.128813 0.348885
O O1 0.500000 0.311242 0.250000
O O2 0.500000 0.349755 0.422808
O O3 0.437111 0.244185 0.379010
O O4 0.750000 0.250000 0.500000
O O5 0.673045 0.179955 0.410147
O O6 0.725033 0.136095 0.566092
O O7 0.804419 0.151757 0.424683
O O8 0.935558 0.043475 0.599561
O O9 0.000000 0.063132 0.444038
O O10 0.814491 0.935340 0.150632
O O11 0.861475 0.051576 0.156306
O O12 0.834520 0.000000 0.000000
O O13 0.149518 0.283790 0.750000
O O14 0.171240 0.190672 0.867958
O O15 0.743025 0.140514 0.750000
O O16 0.500000 0.417337 0.750000
O O17 0.431680 0.346269 0.632547
O O18 0.831134 0.153783 0.250000
#
# Coordination Sequence:
#
# PCOD8257173 Si02
#       8
#     8  16   8  16  16  16   8  16
#     4  10  20  32  53  79 101 129 174 224 257 296
#     4  10  20  34  51  69  90 132 171 214 261 299
#     4  12  20  32  51  68 106 142 179 211 248 293
#     4  12  20  31  48  70  98 140 170 209 252 297
#     4   9  18  33  51  73  97 127 168 216 263 300
#     4  10  19  32  48  69  97 128 170 210 247 297
#     4  10  21  33  45  66  98 140 177 210 246 286
#     4  11  22  35  49  71 102 134 174 212 249 298
#
# _framework density 16.947251999999999
#
# number of rings (size 3 to 8) (size 9 to 14) (size 15 to 20)
#    0.000    1.538    4.615    1.615    2.154    1.231 
#    0.000    0.000    0.000    0.000    0.000    0.000 
#    0.000    2.462    0.000    3.308    0.000   11.692 
#
# Total GULP energy -644190.114557 kJ/mol
# GULP energy per Si atom -12388.271434 kJ/mol
# Density = 1.690868 g / cm^3
# Si number density = 16.947252 Si / 1000 Ang^3
#
#
#
# Elastic Constant Matrix: (Units=GPa)
#
#
# Indices 1 2 3 4 5 6 
#
# 1 84.4758 43.1209 46.6099 0.0000 0.0000 0.0000
# 2 43.1209 50.1714 36.4992 0.0000 0.0000 0.0000
# 3 46.6099 36.4992 107.9344 0.0000 0.0000 0.0000
# 4 0.0000 0.0000 0.0000 21.5443 0.0000 0.0000
# 5 0.0000 0.0000 0.0000 0.0000 14.4973 0.0000
# 6 0.0000 0.0000 0.0000 0.0000 0.0000 24.9712
#
#
#
# Elastic Compliance Matrix: (Units=1/GPa)
#
#
# Indices 1 2 3 4 5 6 
#
# 1 0.022441 -0.016230 -0.004202 0.000000 0.000000 0.000000
# 2 -0.016230 0.038173 -0.005900 0.000000 0.000000 0.000000
# 3 -0.004202 -0.005900 0.013075 0.000000 0.000000 0.000000
# 4 0.000000 0.000000 0.000000 0.046416 0.000000 0.000000
# 5 0.000000 0.000000 0.000000 0.000000 0.068978 0.000000
# 6 0.000000 0.000000 0.000000 0.000000 0.000000 0.040046
#
#
# Mechanical properties :
#
#
# Convention : Reuss Voigt Hill
#
# Bulk Modulus (GPa) = 47.56485 55.00462 51.28473
# Shear Modulus (GPa) = 17.31281 19.95933 18.63607
#
# Velocity S-wave (km/s) = 3.19967 3.43553 3.31970
# Velocity P-wave (km/s) = 6.46358 6.94723 6.70976
#
# Compressibility (1/GPa) = 0.02102393
#
# Stress axis : x y z
#
# Youngs Moduli (GPa) = 44.56074 26.19627 76.48324
#
# Poissons Ratio (x) = 0.42518 0.32142
# Poissons Ratio (y) = 0.72324 0.45124
# Poissons Ratio (z) = 0.18726 0.15455
#
# Static dielectric constant tensor:
#      x y z
#    x 3.228800 0.000000 0.000000 
#    y 0.000000 1.869410 0.000000 
#    z 0.000000 0.000000 3.781580 
# 
# 
# High freq. dielectric constant tensor:
#      x y z
#    x 1.620120 0.000000 0.000000 
#    y 0.000000 1.611270 0.000000 
#    z 0.000000 0.000000 1.682840 
# 
# From -- ./inp_files/35839.got.cif
#   From: 2010.03.12/outbox.cif.g09.slc.cpg/sg63_18_cif.got.tgz:35839.got - 2010.04.10 19:34:48.
