data_PCOD8257770
_publ_section_title
;
Structure prediction by ZEFSAII (Michael W. Deem and Ramdas Pophale) SiO2 
 PCOD8257770
Probable space group: C M C M
;
_chemical_formula_sum "Si O2"
_cell_formula_units_Z 96
_cell_length_a 19.868694
_cell_length_b 8.368957
_cell_length_c 30.810795
_cell_angle_alpha 90.000000
_cell_angle_beta 90.000000
_cell_angle_gamma 90.000000
_cell_volume 5123.226564
_symmetry_space_group_name_H-M "C M C M"
_symmetry_group_IT_number 63
_symmetry_cell_setting 'orthorhombic'
loop_
_space_group_symop_operation_xyz
x,y,z
-x,-y,1/2+z
x,-y,-z
-x,y,1/2-z
-x,-y,-z
x,y,1/2-z
-x,y,z
x,-y,1/2+z
1/2+x,1/2+y,z
1/2-x,1/2-y,1/2+z
1/2+x,1/2-y,-z
1/2-x,1/2+y,1/2-z
1/2-x,1/2-y,-z
1/2+x,1/2+y,1/2-z
1/2-x,1/2+y,z
1/2+x,1/2-y,1/2+z
loop_
_atom_site_type_symbol
_atom_site_label
_atom_site_fract_x
_atom_site_fract_y
_atom_site_fract_z
Si Si1 0.421972 0.381452 0.119922
Si Si2 0.834111 0.400817 0.633024
Si Si3 0.270978 0.803653 0.408996
Si Si4 0.423496 0.940355 0.300454
Si Si5 0.340267 0.518862 0.049559
Si Si6 0.920280 0.924307 0.798101
O O1 0.500000 0.358690 0.125180
O O2 0.389722 0.209292 0.109700
O O3 0.406045 0.497895 0.079710
O O4 0.390921 0.458481 0.164572
O O5 0.763508 0.300087 0.630723
O O6 0.823959 0.568618 0.609003
O O7 0.866585 0.441972 0.679745
O O8 0.311048 0.694024 0.442425
O O9 0.214194 0.886560 0.437664
O O10 0.423478 0.977331 0.250000
O O11 0.500000 0.972392 0.318356
O O12 0.401638 0.757953 0.309947
O O13 0.362166 0.500000 0.000000
O O14 0.891453 0.969391 0.750000
O O15 0.000000 0.939909 0.796719
#
# Coordination Sequence:
#
# PCOD8257770 Si02
#       6
#    16  16  16  16  16  16
#     4  10  20  32  50  78 107 135 167 208 262 314
#     4  10  19  34  52  72 102 134 170 215 255 300
#     4   9  20  35  53  75  97 130 174 214 255 299
#     4   9  17  30  51  78 104 132 166 204 251 306
#     4  10  19  34  56  77 101 132 169 213 257 310
#     4   8  15  29  49  74 103 132 164 201 242 295
#
# _framework density 18.738191
#
# number of rings (size 3 to 8) (size 9 to 14) (size 15 to 20)
#    0.000    2.667    0.000    3.000    0.000    1.000 
#    0.000    3.333    0.000    7.000    0.000    0.000 
#    0.000    0.000    0.000    0.000    0.000    0.000 
#
# Total GULP energy -594709.309241 kJ/mol
# GULP energy per Si atom -12389.777276 kJ/mol
# Density = 1.869554 g / cm^3
# Si number density = 18.738191 Si / 1000 Ang^3
#
#
#
# Elastic Constant Matrix: (Units=GPa)
#
#
# Indices 1 2 3 4 5 6 
#
# 1 41.8987 28.6919 37.9389 0.0000 0.0000 0.0000
# 2 28.6919 98.9689 48.3591 0.0000 0.0000 0.0000
# 3 37.9389 48.3591 114.3562 0.0000 0.0000 0.0000
# 4 0.0000 0.0000 0.0000 19.7529 0.0000 0.0000
# 5 0.0000 0.0000 0.0000 0.0000 26.5740 0.0000
# 6 0.0000 0.0000 0.0000 0.0000 0.0000 30.1218
#
#
#
# Elastic Compliance Matrix: (Units=1/GPa)
#
#
# Indices 1 2 3 4 5 6 
#
# 1 0.036664 -0.005906 -0.009666 0.000000 0.000000 0.000000
# 2 -0.005906 0.013687 -0.003829 0.000000 0.000000 0.000000
# 3 -0.009666 -0.003829 0.013571 0.000000 0.000000 0.000000
# 4 0.000000 0.000000 0.000000 0.050626 0.000000 0.000000
# 5 0.000000 0.000000 0.000000 0.000000 0.037631 0.000000
# 6 0.000000 0.000000 0.000000 0.000000 0.000000 0.033199
#
#
# Mechanical properties :
#
#
# Convention : Reuss Voigt Hill
#
# Bulk Modulus (GPa) = 39.80880 53.91152 46.86016
# Shear Modulus (GPa) = 21.50059 24.63866 23.06962
#
# Velocity S-wave (km/s) = 3.39103 3.63007 3.51259
# Velocity P-wave (km/s) = 6.05170 6.81200 6.44307
#
# Compressibility (1/GPa) = 0.02512007
#
# Stress axis : x y z
#
# Youngs Moduli (GPa) = 27.27465 73.06093 73.68907
#
# Poissons Ratio (x) = 0.43150 0.71229
# Poissons Ratio (y) = 0.16109 0.28213
# Poissons Ratio (z) = 0.26364 0.27973
#
# Static dielectric constant tensor:
#      x y z
#    x 3.337790 0.000000 0.000000 
#    y 0.000000 3.674040 0.000000 
#    z 0.000000 0.000000 3.418340 
# 
# 
# High freq. dielectric constant tensor:
#      x y z
#    x 1.705810 0.000000 0.000000 
#    y 0.000000 1.739900 0.000000 
#    z 0.000000 0.000000 1.707560 
# 
# From -- ./inp_files/70263.got.cif
#   From: 2010.03.12/outbox.cif.g09.slc.cpg/sg63_36_cif.got.tgz:70263.got - 2010.04.10 19:34:48.
