data_PCOD8257824
_publ_section_title
;
Structure prediction by ZEFSAII (Michael W. Deem and Ramdas Pophale) SiO2 
 PCOD8257824
Probable space group: C M C M
;
_chemical_formula_sum "Si O2"
_cell_formula_units_Z 88
_cell_length_a 17.196919
_cell_length_b 32.150832
_cell_length_c 8.969715
_cell_angle_alpha 90.000000
_cell_angle_beta 90.000000
_cell_angle_gamma 90.000000
_cell_volume 4959.312850
_symmetry_space_group_name_H-M "C M C M"
_symmetry_group_IT_number 63
_symmetry_cell_setting 'orthorhombic'
loop_
_space_group_symop_operation_xyz
x,y,z
-x,-y,1/2+z
x,-y,-z
-x,y,1/2-z
-x,-y,-z
x,y,1/2-z
-x,y,z
x,-y,1/2+z
1/2+x,1/2+y,z
1/2-x,1/2-y,1/2+z
1/2+x,1/2-y,-z
1/2-x,1/2+y,1/2-z
1/2-x,1/2-y,-z
1/2+x,1/2+y,1/2-z
1/2-x,1/2+y,z
1/2+x,1/2-y,1/2+z
loop_
_atom_site_type_symbol
_atom_site_label
_atom_site_fract_x
_atom_site_fract_y
_atom_site_fract_z
Si Si1 0.236768 0.383784 0.426924
Si Si2 0.500000 0.543050 0.079470
Si Si3 0.913310 0.352456 0.575635
Si Si4 0.668682 0.454800 0.573741
Si Si5 0.803652 0.193793 0.414390
Si Si6 0.137301 0.265132 0.913586
O O1 0.239148 0.385783 0.250000
O O2 0.147639 0.378919 0.480283
O O3 0.267264 0.426418 0.496059
O O4 0.291139 0.346082 0.481427
O O5 0.500000 0.530816 0.250000
O O6 0.417730 0.565739 0.042173
O O7 0.500000 0.500000 0.000000
O O8 0.889147 0.354661 0.750000
O O9 0.912357 0.304035 0.523574
O O10 0.000000 0.370345 0.549161
O O11 0.674679 0.500000 0.500000
O O12 0.685607 0.457901 0.750000
O O13 0.830568 0.178902 0.250000
O O14 0.869697 0.224407 0.482065
O O15 0.725754 0.220130 0.401660
O O16 0.106651 0.252302 0.750000
#
# Coordination Sequence:
#
# PCOD8257824 Si02
#       6
#    16   8  16  16  16  16
#     4  11  21  32  49  75 104 136 174 214 256 302
#     4   8  16  30  52  78 102 128 156 192 238 292
#     4   9  18  33  52  73  99 134 175 219 264 307
#     4  10  19  34  55  80 107 134 166 204 250 304
#     4   9  16  27  44  66  92 124 161 201 247 297
#     4   8  14  25  43  67  92 119 156 201 250 300
#
# _framework density 17.744395000000001
#
# number of rings (size 3 to 8) (size 9 to 14) (size 15 to 20)
#    0.000    2.727    0.000    3.818    0.000    5.455 
#    0.000    0.000    2.000    0.545    0.000    0.000 
#    0.000    0.000    0.000    0.000    0.000    0.000 
#
# Total GULP energy -545169.054057 kJ/mol
# GULP energy per Si atom -12390.205774 kJ/mol
# Density = 1.770401 g / cm^3
# Si number density = 17.744395 Si / 1000 Ang^3
#
#
#
# Elastic Constant Matrix: (Units=GPa)
#
#
# Indices 1 2 3 4 5 6 
#
# 1 83.1783 49.8649 51.7510 0.0000 0.0000 0.0000
# 2 49.8649 84.9849 55.1669 0.0000 0.0000 0.0000
# 3 51.7510 55.1669 126.2514 0.0000 0.0000 0.0000
# 4 0.0000 0.0000 0.0000 29.3312 0.0000 0.0000
# 5 0.0000 0.0000 0.0000 0.0000 18.4195 0.0000
# 6 0.0000 0.0000 0.0000 0.0000 0.0000 16.4308
#
#
#
# Elastic Compliance Matrix: (Units=1/GPa)
#
#
# Indices 1 2 3 4 5 6 
#
# 1 0.020094 -0.008995 -0.004306 0.000000 0.000000 0.000000
# 2 -0.008995 0.020452 -0.005250 0.000000 0.000000 0.000000
# 3 -0.004306 -0.005250 0.011980 0.000000 0.000000 0.000000
# 4 0.000000 0.000000 0.000000 0.034093 0.000000 0.000000
# 5 0.000000 0.000000 0.000000 0.000000 0.054290 0.000000
# 6 0.000000 0.000000 0.000000 0.000000 0.000000 0.060861
#
#
# Mechanical properties :
#
#
# Convention : Reuss Voigt Hill
#
# Bulk Modulus (GPa) = 64.83253 67.55336 66.19295
# Shear Modulus (GPa) = 20.49061 22.01176 21.25119
#
# Velocity S-wave (km/s) = 3.40187 3.52588 3.46443
# Velocity P-wave (km/s) = 7.21433 7.39788 7.30668
#
# Compressibility (1/GPa) = 0.01542436
#
# Stress axis : x y z
#
# Youngs Moduli (GPa) = 49.76651 48.89415 83.47365
#
# Poissons Ratio (x) = 0.43979 0.35945
# Poissons Ratio (y) = 0.44764 0.43823
# Poissons Ratio (z) = 0.21430 0.25669
#
# Static dielectric constant tensor:
#      x y z
#    x 3.323800 0.000000 0.000000 
#    y 0.000000 3.064720 0.000000 
#    z 0.000000 0.000000 3.488860 
# 
# 
# High freq. dielectric constant tensor:
#      x y z
#    x 1.664750 0.000000 0.000000 
#    y 0.000000 1.658590 0.000000 
#    z 0.000000 0.000000 1.693830 
# 
# From -- ./inp_files/6886.got.cif
#   From: 2010.03.12/outbox.cif.g09.slc.cpg/sg63_4_cif.got.tgz:6886.got - 2010.04.10 19:34:48.
