data_PCOD8257061
_publ_section_title
;
Structure prediction by ZEFSAII (Michael W. Deem and Ramdas Pophale) SiO2 
 PCOD8257061
Probable space group: C M C M
;
_chemical_formula_sum "Si O2"
_cell_formula_units_Z 96
_cell_length_a 9.022719
_cell_length_b 27.997056
_cell_length_c 20.137935
_cell_angle_alpha 90.000000
_cell_angle_beta 90.000000
_cell_angle_gamma 90.000000
_cell_volume 5087.035083
_symmetry_space_group_name_H-M "C M C M"
_symmetry_group_IT_number 63
_symmetry_cell_setting 'orthorhombic'
loop_
_space_group_symop_operation_xyz
x,y,z
-x,-y,1/2+z
x,-y,-z
-x,y,1/2-z
-x,-y,-z
x,y,1/2-z
-x,y,z
x,-y,1/2+z
1/2+x,1/2+y,z
1/2-x,1/2-y,1/2+z
1/2+x,1/2-y,-z
1/2-x,1/2+y,1/2-z
1/2-x,1/2-y,-z
1/2+x,1/2+y,1/2-z
1/2-x,1/2+y,z
1/2+x,1/2-y,1/2+z
loop_
_atom_site_type_symbol
_atom_site_label
_atom_site_fract_x
_atom_site_fract_y
_atom_site_fract_z
Si Si1 0.668807 0.816634 0.620807
Si Si2 0.673236 0.766438 0.433228
Si Si3 0.161962 0.901049 0.825714
Si Si4 0.333972 0.865802 0.021844
Si Si5 0.825484 0.494213 0.672752
Si Si6 0.174273 0.960346 0.053583
O O1 0.500000 0.810199 0.643732
O O2 0.748226 0.764649 0.624442
O O3 0.753741 0.850975 0.671135
O O4 0.681279 0.841018 0.549225
O O5 0.500000 0.753892 0.436747
O O6 0.750000 0.750000 0.500000
O O7 0.696405 0.823652 0.423776
O O8 0.135092 0.913418 0.750000
O O9 0.000000 0.899358 0.861725
O O10 0.261183 0.943946 0.854758
O O11 0.500000 0.886464 0.031487
O O12 0.215611 0.907914 0.027030
O O13 0.785653 0.504933 0.750000
O O14 0.755097 0.533977 0.624755
O O15 0.000000 0.492764 0.662745
O O16 0.000000 0.963512 0.065492
O O17 0.226425 0.000000 0.000000
#
# Coordination Sequence:
#
# PCOD8257061 Si02
#       6
#    16  16  16  16  16  16
#     4  10  19  31  50  75 102 133 167 204 251 303
#     4   9  17  30  48  71  99 130 164 201 246 301
#     4  10  20  33  50  73 101 132 166 206 252 301
#     4   9  19  33  49  72 101 133 167 205 251 300
#     4  10  21  37  56  76 101 137 177 214 257 311
#     4  11  23  35  51  78 108 138 173 215 262 307
#
# _framework density 18.871504000000002
#
# number of rings (size 3 to 8) (size 9 to 14) (size 15 to 20)
#    0.000    2.167    0.000    4.500    0.000   10.000 
#    0.000    0.000    0.000    1.000    0.000    7.000 
#    0.000    0.000    0.000    0.000    0.000    0.000 
#
# Total GULP energy -594972.704457 kJ/mol
# GULP energy per Si atom -12395.264676 kJ/mol
# Density = 1.882855 g / cm^3
# Si number density = 18.871504 Si / 1000 Ang^3
#
#
#
# Elastic Constant Matrix: (Units=GPa)
#
#
# Indices 1 2 3 4 5 6 
#
# 1 129.9004 46.6987 29.4162 0.0000 0.0000 0.0000
# 2 46.6987 96.9568 17.9822 0.0000 0.0000 0.0000
# 3 29.4162 17.9822 40.2937 0.0000 0.0000 0.0000
# 4 0.0000 0.0000 0.0000 27.2105 0.0000 0.0000
# 5 0.0000 0.0000 0.0000 0.0000 24.2166 0.0000
# 6 0.0000 0.0000 0.0000 0.0000 0.0000 38.6196
#
#
#
# Elastic Compliance Matrix: (Units=1/GPa)
#
#
# Indices 1 2 3 4 5 6 
#
# 1 0.010444 -0.003942 -0.005865 0.000000 0.000000 0.000000
# 2 -0.003942 0.012733 -0.002804 0.000000 0.000000 0.000000
# 3 -0.005865 -0.002804 0.030351 0.000000 0.000000 0.000000
# 4 0.000000 0.000000 0.000000 0.036751 0.000000 0.000000
# 5 0.000000 0.000000 0.000000 0.000000 0.041294 0.000000
# 6 0.000000 0.000000 0.000000 0.000000 0.000000 0.025894
#
#
# Mechanical properties :
#
#
# Convention : Reuss Voigt Hill
#
# Bulk Modulus (GPa) = 35.33043 50.59391 42.96217
# Shear Modulus (GPa) = 26.02498 29.54626 27.78562
#
# Velocity S-wave (km/s) = 3.71760 3.96113 3.84130
# Velocity P-wave (km/s) = 6.09833 6.91293 6.51837
#
# Compressibility (1/GPa) = 0.02830422
#
# Stress axis : x y z
#
# Youngs Moduli (GPa) = 95.75246 78.53745 32.94797
#
# Poissons Ratio (x) = 0.30962 0.19324
# Poissons Ratio (y) = 0.37749 0.09239
# Poissons Ratio (z) = 0.56158 0.22024
#
# Static dielectric constant tensor:
#      x y z
#    x 3.727840 0.000000 0.000000 
#    y 0.000000 3.631110 0.000000 
#    z 0.000000 0.000000 3.177850 
# 
# 
# High freq. dielectric constant tensor:
#      x y z
#    x 1.750430 0.000000 0.000000 
#    y 0.000000 1.730840 0.000000 
#    z 0.000000 0.000000 1.694430 
# 
# From -- ./inp_files/51368.got.cif
#   From: 2010.03.12/outbox.cif.g09.slc.cpg/sg63_26_cif.got.tgz:51368.got - 2010.04.10 19:34:48.
