data_PCOD8257213
_publ_section_title
;
Structure prediction by ZEFSAII (Michael W. Deem and Ramdas Pophale) SiO2 
 PCOD8257213
Probable space group: C M C M
;
_chemical_formula_sum "Si O2"
_cell_formula_units_Z 96
_cell_length_a 23.119901
_cell_length_b 9.424968
_cell_length_c 24.635912
_cell_angle_alpha 90.000000
_cell_angle_beta 90.000000
_cell_angle_gamma 90.000000
_cell_volume 5368.271827
_symmetry_space_group_name_H-M "C M C M"
_symmetry_group_IT_number 63
_symmetry_cell_setting 'orthorhombic'
loop_
_space_group_symop_operation_xyz
x,y,z
-x,-y,1/2+z
x,-y,-z
-x,y,1/2-z
-x,-y,-z
x,y,1/2-z
-x,y,z
x,-y,1/2+z
1/2+x,1/2+y,z
1/2-x,1/2-y,1/2+z
1/2+x,1/2-y,-z
1/2-x,1/2+y,1/2-z
1/2-x,1/2-y,-z
1/2+x,1/2+y,1/2-z
1/2-x,1/2+y,z
1/2+x,1/2-y,1/2+z
loop_
_atom_site_type_symbol
_atom_site_label
_atom_site_fract_x
_atom_site_fract_y
_atom_site_fract_z
Si Si1 0.432854 0.759286 0.026272
Si Si2 0.934480 0.469095 0.124562
Si Si3 0.251975 0.123657 0.041147
Si Si4 0.132612 0.284662 0.583877
Si Si5 0.933136 0.201131 0.312624
Si Si6 0.631383 0.547691 0.094864
O O1 0.500000 0.750087 0.011091
O O2 0.419534 0.878236 0.071007
O O3 0.412519 0.605599 0.048830
O O4 0.397104 0.805536 0.974177
O O5 0.898422 0.614554 0.127928
O O6 0.921464 0.368107 0.176148
O O7 0.000000 0.519585 0.123703
O O8 0.302369 0.156471 0.083767
O O9 0.194971 0.099104 0.077205
O O10 0.250000 0.250000 0.000000
O O11 0.266612 0.000000 0.000000
O O12 0.129125 0.121149 0.600616
O O13 0.922012 0.167849 0.250000
O O14 0.888056 0.107104 0.346711
O O15 0.000000 0.166481 0.329462
#
# Coordination Sequence:
#
# PCOD8257213 Si02
#       6
#    16  16  16  16  16  16
#     4  10  19  32  49  75 115 152 179 214 268 338
#     4   9  19  33  53  81 108 143 184 222 274 334
#     4  12  22  37  53  80 117 160 195 220 267 332
#     4  12  22  32  52  80 117 149 183 229 272 331
#     4   9  20  41  64  82 106 144 188 236 291 343
#     4  11  22  35  52  83 110 144 193 229 277 334
#
# _framework density 17.882849
#
# number of rings (size 3 to 8) (size 9 to 14) (size 15 to 20)
#    0.000    1.500    3.333    4.000    2.333    4.667 
#    0.000    0.833    0.000    6.000    0.000    0.000 
#    0.000    0.000    0.000    0.000    0.000    0.000 
#
# Total GULP energy -595005.251680 kJ/mol
# GULP energy per Si atom -12395.942743 kJ/mol
# Density = 1.784215 g / cm^3
# Si number density = 17.882849 Si / 1000 Ang^3
#
#
#
# Elastic Constant Matrix: (Units=GPa)
#
#
# Indices 1 2 3 4 5 6 
#
# 1 99.7134 59.1075 29.8647 0.0000 0.0000 0.0000
# 2 59.1075 136.0608 27.0155 0.0000 0.0000 0.0000
# 3 29.8647 27.0155 54.8208 0.0000 0.0000 0.0000
# 4 0.0000 0.0000 0.0000 14.2874 0.0000 0.0000
# 5 0.0000 0.0000 0.0000 0.0000 15.5139 0.0000
# 6 0.0000 0.0000 0.0000 0.0000 0.0000 30.6986
#
#
#
# Elastic Compliance Matrix: (Units=1/GPa)
#
#
# Indices 1 2 3 4 5 6 
#
# 1 0.014839 -0.005366 -0.005439 0.000000 0.000000 0.000000
# 2 -0.005366 0.010087 -0.002048 0.000000 0.000000 0.000000
# 3 -0.005439 -0.002048 0.022213 0.000000 0.000000 0.000000
# 4 0.000000 0.000000 0.000000 0.069992 0.000000 0.000000
# 5 0.000000 0.000000 0.000000 0.000000 0.064458 0.000000
# 6 0.000000 0.000000 0.000000 0.000000 0.000000 0.032575
#
#
# Mechanical properties :
#
#
# Convention : Reuss Voigt Hill
#
# Bulk Modulus (GPa) = 46.65627 58.06335 52.35981
# Shear Modulus (GPa) = 20.24164 23.74047 21.99105
#
# Velocity S-wave (km/s) = 3.36803 3.64752 3.51055
# Velocity P-wave (km/s) = 6.42428 7.09073 6.76571
#
# Compressibility (1/GPa) = 0.02143335
#
# Stress axis : x y z
#
# Youngs Moduli (GPa) = 67.39083 99.13309 45.01772
#
# Poissons Ratio (x) = 0.53198 0.24486
# Poissons Ratio (y) = 0.36164 0.09218
# Poissons Ratio (z) = 0.36655 0.20299
#
# Static dielectric constant tensor:
#      x y z
#    x 3.280720 0.000000 0.000000 
#    y 0.000000 3.395490 0.000000 
#    z 0.000000 0.000000 3.031920 
# 
# 
# High freq. dielectric constant tensor:
#      x y z
#    x 1.698220 0.000000 0.000000 
#    y 0.000000 1.703540 0.000000 
#    z 0.000000 0.000000 1.652740 
# 
# From -- ./inp_files/64976.got.cif
#   From: 2010.03.12/outbox.cif.g09.slc.cpg/sg63_33_cif.got.tgz:64976.got - 2010.04.10 19:34:48.
