data_PCOD8257320
_publ_section_title
;
Structure prediction by ZEFSAII (Michael W. Deem and Ramdas Pophale) SiO2 
 PCOD8257320
Probable space group: C M C M
;
_chemical_formula_sum "Si O2"
_cell_formula_units_Z 80
_cell_length_a 28.000718
_cell_length_b 20.402551
_cell_length_c 7.808246
_cell_angle_alpha 90.000000
_cell_angle_beta 90.000000
_cell_angle_gamma 90.000000
_cell_volume 4460.742226
_symmetry_space_group_name_H-M "C M C M"
_symmetry_group_IT_number 63
_symmetry_cell_setting 'orthorhombic'
loop_
_space_group_symop_operation_xyz
x,y,z
-x,-y,1/2+z
x,-y,-z
-x,y,1/2-z
-x,-y,-z
x,y,1/2-z
-x,y,z
x,-y,1/2+z
1/2+x,1/2+y,z
1/2-x,1/2-y,1/2+z
1/2+x,1/2-y,-z
1/2-x,1/2+y,1/2-z
1/2-x,1/2-y,-z
1/2+x,1/2+y,1/2-z
1/2-x,1/2+y,z
1/2+x,1/2-y,1/2+z
loop_
_atom_site_type_symbol
_atom_site_label
_atom_site_fract_x
_atom_site_fract_y
_atom_site_fract_z
Si Si1 0.382164 0.229390 0.440304
Si Si2 0.216754 0.690558 0.554022
Si Si3 0.881147 0.118487 0.557680
Si Si4 0.553345 0.227687 0.750000
Si Si5 0.780617 0.928439 0.950922
Si Si6 0.053389 0.116412 0.250000
O O1 0.404057 0.219952 0.250000
O O2 0.332361 0.190543 0.448215
O O3 0.370676 0.305310 0.477778
O O4 0.419741 0.202292 0.579447
O O5 0.202565 0.699823 0.750000
O O6 0.250000 0.750000 0.500000
O O7 0.242738 0.622120 0.525695
O O8 0.901284 0.107296 0.750000
O O9 0.831756 0.080141 0.539836
O O10 0.919460 0.091344 0.420631
O O11 0.500000 0.197938 0.750000
O O12 0.550766 0.305628 0.750000
O O13 0.786141 0.917680 0.750000
O O14 0.761141 0.000000 0.000000
O O15 0.000000 0.086727 0.250000
#
# Coordination Sequence:
#
# PCOD8257320 Si02
#       6
#    16  16  16   8  16   8
#     4  10  19  32  51  79 110 142 183 225 267 324
#     4  12  22  34  54  82 112 148 188 226 269 328
#     4  10  19  33  52  76 104 138 183 225 271 328
#     4   9  18  32  50  75 110 144 176 226 281 325
#     4  12  24  38  54  79 110 147 186 226 276 333
#     4   9  18  32  52  75 100 136 180 230 283 325
#
# _framework density 17.934235999999999
#
# number of rings (size 3 to 8) (size 9 to 14) (size 15 to 20)
#    0.000    1.400    4.000    3.600    0.000    0.800 
#    0.000    4.000    0.000    0.600    0.000    0.000 
#    0.000    0.800    0.400    0.000    0.000    0.000 
#
# Total GULP energy -496115.044311 kJ/mol
# GULP energy per Si atom -12402.876108 kJ/mol
# Density = 1.789342 g / cm^3
# Si number density = 17.934236 Si / 1000 Ang^3
#
#
#
# Elastic Constant Matrix: (Units=GPa)
#
#
# Indices 1 2 3 4 5 6 
#
# 1 113.9935 28.1681 43.9647 0.0000 0.0000 0.0000
# 2 28.1681 63.0574 13.6952 0.0000 0.0000 0.0000
# 3 43.9647 13.6952 140.1362 0.0000 0.0000 0.0000
# 4 0.0000 0.0000 0.0000 18.9766 0.0000 0.0000
# 5 0.0000 0.0000 0.0000 0.0000 26.5058 0.0000
# 6 0.0000 0.0000 0.0000 0.0000 0.0000 11.8086
#
#
#
# Elastic Compliance Matrix: (Units=1/GPa)
#
#
# Indices 1 2 3 4 5 6 
#
# 1 0.010993 -0.004252 -0.003033 0.000000 0.000000 0.000000
# 2 -0.004252 0.017847 -0.000410 0.000000 0.000000 0.000000
# 3 -0.003033 -0.000410 0.008128 0.000000 0.000000 0.000000
# 4 0.000000 0.000000 0.000000 0.052697 0.000000 0.000000
# 5 0.000000 0.000000 0.000000 0.000000 0.037728 0.000000
# 6 0.000000 0.000000 0.000000 0.000000 0.000000 0.084684
#
#
# Mechanical properties :
#
#
# Convention : Reuss Voigt Hill
#
# Bulk Modulus (GPa) = 46.34588 54.31589 50.33088
# Shear Modulus (GPa) = 21.30753 26.88212 24.09483
#
# Velocity S-wave (km/s) = 3.45061 3.87580 3.66937
# Velocity P-wave (km/s) = 6.46327 7.09796 6.78803
#
# Compressibility (1/GPa) = 0.02157689
#
# Stress axis : x y z
#
# Youngs Moduli (GPa) = 90.96751 56.03195 123.03711
#
# Poissons Ratio (x) = 0.23824 0.37321
# Poissons Ratio (y) = 0.38678 0.05047
# Poissons Ratio (z) = 0.27593 0.02299
#
# Static dielectric constant tensor:
#      x y z
#    x 3.336490 0.000000 0.000000 
#    y 0.000000 2.943430 0.000000 
#    z 0.000000 0.000000 3.628870 
# 
# 
# High freq. dielectric constant tensor:
#      x y z
#    x 1.681420 0.000000 0.000000 
#    y 0.000000 1.645240 0.000000 
#    z 0.000000 0.000000 1.721000 
# 
# From -- ./inp_files/12284.got.cif
#   From: 2010.03.12/outbox.cif.g09.slc.cpg/sg63_7_cif.got.tgz:12284.got - 2010.04.10 19:34:48.
