data_PCOD8257849
_publ_section_title
;
Structure prediction by ZEFSAII (Michael W. Deem and Ramdas Pophale) SiO2 
 PCOD8257849
Probable space group: C M C M
;
_chemical_formula_sum "Si O2"
_cell_formula_units_Z 112
_cell_length_a 9.562206
_cell_length_b 24.848749
_cell_length_c 25.154397
_cell_angle_alpha 90.000000
_cell_angle_beta 90.000000
_cell_angle_gamma 90.000000
_cell_volume 5976.907514
_symmetry_space_group_name_H-M "C M C M"
_symmetry_group_IT_number 63
_symmetry_cell_setting 'orthorhombic'
loop_
_space_group_symop_operation_xyz
x,y,z
-x,-y,1/2+z
x,-y,-z
-x,y,1/2-z
-x,-y,-z
x,y,1/2-z
-x,y,z
x,-y,1/2+z
1/2+x,1/2+y,z
1/2-x,1/2-y,1/2+z
1/2+x,1/2-y,-z
1/2-x,1/2+y,1/2-z
1/2-x,1/2-y,-z
1/2+x,1/2+y,1/2-z
1/2-x,1/2+y,z
1/2+x,1/2-y,1/2+z
loop_
_atom_site_type_symbol
_atom_site_label
_atom_site_fract_x
_atom_site_fract_y
_atom_site_fract_z
Si Si1 0.662000 0.398596 0.189873
Si Si2 0.164780 0.346162 0.513719
Si Si3 0.837613 0.014150 0.351790
Si Si4 0.165959 0.872435 0.808391
Si Si5 0.662128 0.292964 0.600795
Si Si6 0.160661 0.669374 0.607212
Si Si7 0.343568 0.963576 0.551209
O O1 0.702412 0.382317 0.250000
O O2 0.500000 0.386715 0.178446
O O3 0.693665 0.461976 0.183614
O O4 0.750586 0.364085 0.148957
O O5 0.249441 0.301875 0.547223
O O6 0.212067 0.342998 0.452480
O O7 0.208206 0.404041 0.536516
O O8 0.000000 0.334251 0.518680
O O9 0.000000 0.019663 0.365515
O O10 0.783246 0.067107 0.321214
O O11 0.757439 0.008457 0.407012
O O12 0.224702 0.856708 0.750000
O O13 0.223255 0.830899 0.852350
O O14 0.000000 0.869737 0.807624
O O15 0.500000 0.305790 0.588360
O O16 0.680902 0.232083 0.620069
O O17 0.000000 0.651755 0.613728
O O18 0.500000 0.961141 0.574859
O O19 0.340244 0.000000 0.500000
#
# Coordination Sequence:
#
# PCOD8257849 Si02
#       7
#    16  16  16  16  16  16  16
#     4  10  22  39  58  82 111 145 185 228 278 332
#     4  10  20  35  54  79 114 151 185 225 277 332
#     4  10  19  34  56  80 106 139 181 226 272 327
#     4   9  17  31  53  80 108 137 172 222 278 323
#     4  10  20  35  57  84 110 142 189 235 274 326
#     4  10  22  38  57  82 111 148 191 229 273 329
#     4  10  20  33  51  76 111 151 183 218 271 332
#
# _framework density 18.738788
#
# number of rings (size 3 to 8) (size 9 to 14) (size 15 to 20)
#    0.000    2.143    1.429    1.714    0.000    5.714 
#    0.000    1.429    0.000    2.571    0.000    0.000 
#    0.000    0.000    0.000    0.000    0.000    0.000 
#
# Total GULP energy -694495.864567 kJ/mol
# GULP energy per Si atom -12401.711867 kJ/mol
# Density = 1.869614 g / cm^3
# Si number density = 18.738788 Si / 1000 Ang^3
#
#
#
# Elastic Constant Matrix: (Units=GPa)
#
#
# Indices 1 2 3 4 5 6 
#
# 1 53.4962 39.4912 57.9888 0.0000 0.0000 0.0000
# 2 39.4912 83.4924 52.2810 0.0000 0.0000 0.0000
# 3 57.9888 52.2810 148.2228 0.0000 0.0000 0.0000
# 4 0.0000 0.0000 0.0000 25.1429 0.0000 0.0000
# 5 0.0000 0.0000 0.0000 0.0000 22.2075 0.0000
# 6 0.0000 0.0000 0.0000 0.0000 0.0000 25.8360
#
#
#
# Elastic Compliance Matrix: (Units=1/GPa)
#
#
# Indices 1 2 3 4 5 6 
#
# 1 0.039623 -0.011596 -0.011412 0.000000 0.000000 0.000000
# 2 -0.011596 0.018766 -0.002083 0.000000 0.000000 0.000000
# 3 -0.011412 -0.002083 0.011946 0.000000 0.000000 0.000000
# 4 0.000000 0.000000 0.000000 0.039773 0.000000 0.000000
# 5 0.000000 0.000000 0.000000 0.000000 0.045030 0.000000
# 6 0.000000 0.000000 0.000000 0.000000 0.000000 0.038706
#
#
# Mechanical properties :
#
#
# Convention : Reuss Voigt Hill
#
# Bulk Modulus (GPa) = 49.61578 64.97039 57.29308
# Shear Modulus (GPa) = 19.94097 23.66730 21.80413
#
# Velocity S-wave (km/s) = 3.26568 3.55774 3.41483
# Velocity P-wave (km/s) = 6.38393 7.18496 6.79626
#
# Compressibility (1/GPa) = 0.02015488
#
# Stress axis : x y z
#
# Youngs Moduli (GPa) = 25.23802 53.28837 83.71256
#
# Poissons Ratio (x) = 0.61791 0.95529
# Poissons Ratio (y) = 0.29265 0.17433
# Poissons Ratio (z) = 0.28800 0.11097
#
# Static dielectric constant tensor:
#      x y z
#    x 3.275310 0.000000 0.000000 
#    y 0.000000 3.549400 0.000000 
#    z 0.000000 0.000000 3.521620 
# 
# 
# High freq. dielectric constant tensor:
#      x y z
#    x 1.704230 0.000000 0.000000 
#    y 0.000000 1.736660 0.000000 
#    z 0.000000 0.000000 1.733420 
# 
# From -- ./inp_files/53170.got.cif
#   From: 2010.03.12/outbox.cif.g09.slc.cpg/sg63_27_cif.got.tgz:53170.got - 2010.04.10 19:34:48.
