data_PCOD8257353
_publ_section_title
;
Structure prediction by ZEFSAII (Michael W. Deem and Ramdas Pophale) SiO2 
 PCOD8257353
Probable space group: C M C M
;
_chemical_formula_sum "Si O2"
_cell_formula_units_Z 112
_cell_length_a 16.326871
_cell_length_b 24.153226
_cell_length_c 15.799561
_cell_angle_alpha 90.000000
_cell_angle_beta 90.000000
_cell_angle_gamma 90.000000
_cell_volume 6230.503243
_symmetry_space_group_name_H-M "C M C M"
_symmetry_group_IT_number 63
_symmetry_cell_setting 'orthorhombic'
loop_
_space_group_symop_operation_xyz
x,y,z
-x,-y,1/2+z
x,-y,-z
-x,y,1/2-z
-x,-y,-z
x,y,1/2-z
-x,y,z
x,-y,1/2+z
1/2+x,1/2+y,z
1/2-x,1/2-y,1/2+z
1/2+x,1/2-y,-z
1/2-x,1/2+y,1/2-z
1/2-x,1/2-y,-z
1/2+x,1/2+y,1/2-z
1/2-x,1/2+y,z
1/2+x,1/2-y,1/2+z
loop_
_atom_site_type_symbol
_atom_site_label
_atom_site_fract_x
_atom_site_fract_y
_atom_site_fract_z
Si Si1 0.091164 0.341673 0.653437
Si Si2 0.700402 0.761361 0.344088
Si Si3 0.314066 0.659039 0.928419
Si Si4 0.406513 0.439681 0.347348
Si Si5 0.743266 0.359789 0.601632
Si Si6 0.591933 0.243512 0.003188
Si Si7 0.908719 0.935639 0.850233
O O1 0.093637 0.319358 0.750000
O O2 0.168801 0.383528 0.637564
O O3 0.108160 0.292418 0.587268
O O4 0.000000 0.368166 0.636777
O O5 0.662087 0.769504 0.250000
O O6 0.775602 0.804514 0.353097
O O7 0.730403 0.698427 0.351098
O O8 0.639476 0.776889 0.419951
O O9 0.347368 0.600694 0.897621
O O10 0.386050 0.693584 0.973814
O O11 0.246233 0.647783 0.000998
O O12 0.381018 0.437094 0.250000
O O13 0.500000 0.420432 0.359382
O O14 0.394440 0.501769 0.382761
O O15 0.664940 0.398533 0.616085
O O16 0.500000 0.240727 0.973338
O O17 0.907797 0.934799 0.750000
O O18 0.000000 0.915483 0.880909
#
# Coordination Sequence:
#
# PCOD8257353 Si02
#       7
#    16  16  16  16  16  16  16
#     4  10  19  32  52  77 104 135 172 218 273 324
#     4  11  21  34  51  73 105 143 183 223 271 330
#     4  11  20  33  49  76 106 143 178 223 271 327
#     4   9  19  35  53  76 107 144 186 227 267 322
#     4  11  20  34  52  76 108 140 180 231 277 322
#     4  10  20  34  49  74 107 137 178 224 267 324
#     4   9  19  35  54  78 109 145 186 227 267 322
#
# _framework density 17.976075999999999
#
# number of rings (size 3 to 8) (size 9 to 14) (size 15 to 20)
#    0.000    1.857    2.857    3.857    0.000    4.286 
#    0.000    2.857    0.000    0.000    0.000    3.000 
#    0.000    2.286    0.000    0.000    0.000    0.000 
#
# Total GULP energy -693752.314242 kJ/mol
# GULP energy per Si atom -12388.434183 kJ/mol
# Density = 1.793516 g / cm^3
# Si number density = 17.976076 Si / 1000 Ang^3
#
#
#
# Elastic Constant Matrix: (Units=GPa)
#
#
# Indices 1 2 3 4 5 6 
#
# 1 129.2159 48.1909 48.6549 0.0000 0.0000 0.0000
# 2 48.1909 73.3465 30.0024 0.0000 0.0000 0.0000
# 3 48.6549 30.0024 108.7473 0.0000 0.0000 0.0000
# 4 0.0000 0.0000 0.0000 22.2099 0.0000 0.0000
# 5 0.0000 0.0000 0.0000 0.0000 27.6836 0.0000
# 6 0.0000 0.0000 0.0000 0.0000 0.0000 26.3673
#
#
#
# Elastic Compliance Matrix: (Units=1/GPa)
#
#
# Indices 1 2 3 4 5 6 
#
# 1 0.011252 -0.006012 -0.003376 0.000000 0.000000 0.000000
# 2 -0.006012 0.018581 -0.002436 0.000000 0.000000 0.000000
# 3 -0.003376 -0.002436 0.011378 0.000000 0.000000 0.000000
# 4 0.000000 0.000000 0.000000 0.045025 0.000000 0.000000
# 5 0.000000 0.000000 0.000000 0.000000 0.036122 0.000000
# 6 0.000000 0.000000 0.000000 0.000000 0.000000 0.037926
#
#
# Mechanical properties :
#
#
# Convention : Reuss Voigt Hill
#
# Bulk Modulus (GPa) = 56.93911 62.77848 59.85880
# Shear Modulus (GPa) = 26.34530 27.54960 26.94745
#
# Velocity S-wave (km/s) = 3.83244 3.91905 3.87599
# Velocity P-wave (km/s) = 7.16430 7.44834 7.30770
#
# Compressibility (1/GPa) = 0.01756262
#
# Stress axis : x y z
#
# Youngs Moduli (GPa) = 88.87034 53.81914 87.88811
#
# Poissons Ratio (x) = 0.32358 0.29668
# Poissons Ratio (y) = 0.53432 0.21412
# Poissons Ratio (z) = 0.30000 0.13112
#
# Static dielectric constant tensor:
#      x y z
#    x 3.612800 0.000000 0.000000 
#    y 0.000000 3.130660 0.000000 
#    z 0.000000 0.000000 3.420240 
# 
# 
# High freq. dielectric constant tensor:
#      x y z
#    x 1.698070 0.000000 0.000000 
#    y 0.000000 1.654690 0.000000 
#    z 0.000000 0.000000 1.709140 
# 
# From -- ./inp_files/32345.got.cif
#   From: 2010.03.12/outbox.cif.g09.slc.cpg/sg63_17_cif.got.tgz:32345.got - 2010.04.10 19:34:48.
