data_PCOD8257210
_publ_section_title
;
Structure prediction by ZEFSAII (Michael W. Deem and Ramdas Pophale) SiO2 
 PCOD8257210
Probable space group: C M C M
;
_chemical_formula_sum "Si O2"
_cell_formula_units_Z 80
_cell_length_a 18.350077
_cell_length_b 18.881123
_cell_length_c 12.992923
_cell_angle_alpha 90.000000
_cell_angle_beta 90.000000
_cell_angle_gamma 90.000000
_cell_volume 4501.658823
_symmetry_space_group_name_H-M "C M C M"
_symmetry_group_IT_number 63
_symmetry_cell_setting 'orthorhombic'
loop_
_space_group_symop_operation_xyz
x,y,z
-x,-y,1/2+z
x,-y,-z
-x,y,1/2-z
-x,-y,-z
x,y,1/2-z
-x,y,z
x,-y,1/2+z
1/2+x,1/2+y,z
1/2-x,1/2-y,1/2+z
1/2+x,1/2-y,-z
1/2-x,1/2+y,1/2-z
1/2-x,1/2-y,-z
1/2+x,1/2+y,1/2-z
1/2-x,1/2+y,z
1/2+x,1/2-y,1/2+z
loop_
_atom_site_type_symbol
_atom_site_label
_atom_site_fract_x
_atom_site_fract_y
_atom_site_fract_z
Si Si1 0.918866 0.224874 0.629987
Si Si2 0.221994 0.826498 0.033356
Si Si3 0.329122 0.917429 0.365156
Si Si4 0.918974 0.381155 0.556482
Si Si5 0.724064 0.932184 0.636087
O O1 0.899291 0.238624 0.750000
O O2 0.860364 0.173161 0.576375
O O3 0.916991 0.296645 0.564492
O O4 0.000000 0.191104 0.621538
O O5 0.275471 0.850347 0.125025
O O6 0.250000 0.750000 0.000000
O O7 0.228870 0.883568 0.940706
O O8 0.360430 0.922853 0.250000
O O9 0.396829 0.907966 0.442439
O O10 0.278129 0.984980 0.394434
O O11 0.861303 0.410527 0.638163
O O12 0.000000 0.409725 0.581365
O O13 0.756906 0.921320 0.750000
#
# Coordination Sequence:
#
# PCOD8257210 Si02
#       5
#    16  16  16  16  16
#     4  10  20  34  53  79 109 138 173 219 267 313
#     4  11  19  33  56  80 102 133 177 223 259 309
#     4  10  21  35  51  75 108 141 177 215 259 315
#     4  10  19  32  49  73 106 142 178 215 256 306
#     4  10  21  35  52  77 106 141 178 216 264 313
#
# _framework density 17.771227
#
# number of rings (size 3 to 8) (size 9 to 14) (size 15 to 20)
#    0.000    1.800    4.000    3.600    0.000    4.000 
#    0.000    2.000    0.000    3.000    0.000    2.800 
#    0.000    0.000    0.000    0.000    0.000    0.000 
#
# Total GULP energy -495627.976078 kJ/mol
# GULP energy per Si atom -12390.699402 kJ/mol
# Density = 1.773078 g / cm^3
# Si number density = 17.771227 Si / 1000 Ang^3
#
#
#
# Elastic Constant Matrix: (Units=GPa)
#
#
# Indices 1 2 3 4 5 6 
#
# 1 86.9607 34.1903 28.0990 0.0000 0.0000 0.0000
# 2 34.1903 82.3818 31.7697 0.0000 0.0000 0.0000
# 3 28.0990 31.7697 110.1050 0.0000 0.0000 0.0000
# 4 0.0000 0.0000 0.0000 25.9944 0.0000 0.0000
# 5 0.0000 0.0000 0.0000 0.0000 23.8646 0.0000
# 6 0.0000 0.0000 0.0000 0.0000 0.0000 23.3122
#
#
#
# Elastic Compliance Matrix: (Units=1/GPa)
#
#
# Indices 1 2 3 4 5 6 
#
# 1 0.014185 -0.005053 -0.002162 0.000000 0.000000 0.000000
# 2 -0.005053 0.015459 -0.003171 0.000000 0.000000 0.000000
# 3 -0.002162 -0.003171 0.010549 0.000000 0.000000 0.000000
# 4 0.000000 0.000000 0.000000 0.038470 0.000000 0.000000
# 5 0.000000 0.000000 0.000000 0.000000 0.041903 0.000000
# 6 0.000000 0.000000 0.000000 0.000000 0.000000 0.042896
#
#
# Mechanical properties :
#
#
# Convention : Reuss Voigt Hill
#
# Bulk Modulus (GPa) = 51.49263 51.95172 51.72218
# Shear Modulus (GPa) = 26.21826 26.99347 26.60586
#
# Velocity S-wave (km/s) = 3.84516 3.90159 3.87348
# Velocity P-wave (km/s) = 6.98225 7.04227 7.01233
#
# Compressibility (1/GPa) = 0.01942025
#
# Stress axis : x y z
#
# Youngs Moduli (GPa) = 70.49788 64.68880 94.79684
#
# Poissons Ratio (x) = 0.32689 0.20494
# Poissons Ratio (y) = 0.35625 0.30058
# Poissons Ratio (z) = 0.15241 0.20512
#
# Static dielectric constant tensor:
#      x y z
#    x 3.336810 0.000000 0.000000 
#    y 0.000000 3.342020 0.000000 
#    z 0.000000 0.000000 3.296230 
# 
# 
# High freq. dielectric constant tensor:
#      x y z
#    x 1.664920 0.000000 0.000000 
#    y 0.000000 1.682660 0.000000 
#    z 0.000000 0.000000 1.694550 
# 
# From -- ./inp_files/35106.got.cif
#   From: 2010.03.12/outbox.cif.g09.slc.cpg/sg63_18_cif.got.tgz:35106.got - 2010.04.10 19:34:48.
