data_PCOD8257448
_publ_section_title
;
Structure prediction by ZEFSAII (Michael W. Deem and Ramdas Pophale) SiO2 
 PCOD8257448
Probable space group: C M C M
;
_chemical_formula_sum "Si O2"
_cell_formula_units_Z 104
_cell_length_a 20.133145
_cell_length_b 19.766119
_cell_length_c 13.937073
_cell_angle_alpha 90.000000
_cell_angle_beta 90.000000
_cell_angle_gamma 90.000000
_cell_volume 5546.315899
_symmetry_space_group_name_H-M "C M C M"
_symmetry_group_IT_number 63
_symmetry_cell_setting 'orthorhombic'
loop_
_space_group_symop_operation_xyz
x,y,z
-x,-y,1/2+z
x,-y,-z
-x,y,1/2-z
-x,-y,-z
x,y,1/2-z
-x,y,z
x,-y,1/2+z
1/2+x,1/2+y,z
1/2-x,1/2-y,1/2+z
1/2+x,1/2-y,-z
1/2-x,1/2+y,1/2-z
1/2-x,1/2-y,-z
1/2+x,1/2+y,1/2-z
1/2-x,1/2+y,z
1/2+x,1/2-y,1/2+z
loop_
_atom_site_type_symbol
_atom_site_label
_atom_site_fract_x
_atom_site_fract_y
_atom_site_fract_z
Si Si1 0.309885 0.705831 0.363406
Si Si2 0.925722 0.891989 0.640592
Si Si3 0.124156 0.000000 0.500000
Si Si4 0.841210 0.645692 0.862234
Si Si5 0.924428 0.579779 0.488798
Si Si6 0.267544 0.464525 0.361222
Si Si7 0.802001 0.606343 0.138121
O O1 0.305121 0.708193 0.250000
O O2 0.375551 0.665490 0.395089
O O3 0.316922 0.781919 0.403039
O O4 0.243533 0.668155 0.401504
O O5 0.907933 0.915320 0.750000
O O6 0.921809 0.954349 0.567589
O O7 0.000000 0.862108 0.637180
O O8 0.168672 0.045709 0.571627
O O9 0.856699 0.648086 0.750000
O O10 0.783884 0.593287 0.889860
O O11 0.908458 0.619064 0.912183
O O12 0.914240 0.500000 0.500000
O O13 0.874103 0.608855 0.409773
O O14 0.000000 0.596185 0.458304
O O15 0.288198 0.459063 0.250000
O O16 0.236403 0.537267 0.385543
O O17 0.815322 0.612948 0.250000
#
# Coordination Sequence:
#
# PCOD8257448 Si02
#       7
#    16  16   8  16  16  16  16
#     4   9  19  36  59  83 107 141 185 231 281 330
#     4  10  21  36  54  80 112 144 181 225 275 332
#     4  12  19  32  54  80 111 144 178 218 275 330
#     4  10  21  37  57  83 112 143 182 230 282 330
#     4  11  23  36  53  81 114 149 189 231 275 326
#     4  10  19  32  54  82 110 140 180 228 275 324
#     4  10  19  36  58  81 109 145 187 230 277 328
#
# _framework density 18.751186000000001
#
# number of rings (size 3 to 8) (size 9 to 14) (size 15 to 20)
#    0.000    1.846    3.077    1.615    0.000    1.846 
#    0.000    3.077    0.000    0.000    0.000    0.000 
#    0.000    0.000    0.000    0.000    0.000    0.000 
#
# Total GULP energy -644729.356869 kJ/mol
# GULP energy per Si atom -12398.641478 kJ/mol
# Density = 1.870851 g / cm^3
# Si number density = 18.751186 Si / 1000 Ang^3
#
#
#
# Elastic Constant Matrix: (Units=GPa)
#
#
# Indices 1 2 3 4 5 6 
#
# 1 130.1218 51.5286 39.0954 0.0000 0.0000 0.0000
# 2 51.5286 127.2956 33.7935 0.0000 0.0000 0.0000
# 3 39.0954 33.7935 54.8403 0.0000 0.0000 0.0000
# 4 0.0000 0.0000 0.0000 19.1788 0.0000 0.0000
# 5 0.0000 0.0000 0.0000 0.0000 29.6057 0.0000
# 6 0.0000 0.0000 0.0000 0.0000 0.0000 4.9193
#
#
#
# Elastic Compliance Matrix: (Units=1/GPa)
#
#
# Indices 1 2 3 4 5 6 
#
# 1 0.010506 -0.002707 -0.005822 0.000000 0.000000 0.000000
# 2 -0.002707 0.010090 -0.004287 0.000000 0.000000 0.000000
# 3 -0.005822 -0.004287 0.025027 0.000000 0.000000 0.000000
# 4 0.000000 0.000000 0.000000 0.052141 0.000000 0.000000
# 5 0.000000 0.000000 0.000000 0.000000 0.033777 0.000000
# 6 0.000000 0.000000 0.000000 0.000000 0.000000 0.203280
#
#
# Mechanical properties :
#
#
# Convention : Reuss Voigt Hill
#
# Bulk Modulus (GPa) = 50.02433 62.34366 56.18399
# Shear Modulus (GPa) = 13.61961 23.26343 18.44152
#
# Velocity S-wave (km/s) = 2.69798 3.52609 3.13946
# Velocity P-wave (km/s) = 6.03667 7.06384 6.57035
#
# Compressibility (1/GPa) = 0.01999027
#
# Stress axis : x y z
#
# Youngs Moduli (GPa) = 95.18039 99.10909 39.95701
#
# Poissons Ratio (x) = 0.26833 0.23261
# Poissons Ratio (y) = 0.25770 0.17131
# Poissons Ratio (z) = 0.55410 0.42492
#
# Static dielectric constant tensor:
#      x y z
#    x 3.383470 0.000000 0.000000 
#    y 0.000000 3.575640 0.000000 
#    z 0.000000 0.000000 3.468730 
# 
# 
# High freq. dielectric constant tensor:
#      x y z
#    x 1.720680 0.000000 0.000000 
#    y 0.000000 1.718360 0.000000 
#    z 0.000000 0.000000 1.730360 
# 
# From -- ./inp_files/35640.got.cif
#   From: 2010.03.12/outbox.cif.g09.slc.cpg/sg63_18_cif.got.tgz:35640.got - 2010.04.10 19:34:48.
