data_PCOD8257528
_publ_section_title
;
Structure prediction by ZEFSAII (Michael W. Deem and Ramdas Pophale) SiO2 
 PCOD8257528
Probable space group: C M C M
;
_chemical_formula_sum "Si O2"
_cell_formula_units_Z 72
_cell_length_a 14.427556
_cell_length_b 30.262872
_cell_length_c 9.208563
_cell_angle_alpha 90.000000
_cell_angle_beta 90.000000
_cell_angle_gamma 90.000000
_cell_volume 4020.636152
_symmetry_space_group_name_H-M "C M C M"
_symmetry_group_IT_number 63
_symmetry_cell_setting 'orthorhombic'
loop_
_space_group_symop_operation_xyz
x,y,z
-x,-y,1/2+z
x,-y,-z
-x,y,1/2-z
-x,-y,-z
x,y,1/2-z
-x,y,z
x,-y,1/2+z
1/2+x,1/2+y,z
1/2-x,1/2-y,1/2+z
1/2+x,1/2-y,-z
1/2-x,1/2+y,1/2-z
1/2-x,1/2-y,-z
1/2+x,1/2+y,1/2-z
1/2-x,1/2+y,z
1/2+x,1/2-y,1/2+z
loop_
_atom_site_type_symbol
_atom_site_label
_atom_site_fract_x
_atom_site_fract_y
_atom_site_fract_z
Si Si1 0.500000 0.738876 0.578708
Si Si2 0.500000 0.839429 0.576643
Si Si3 0.200863 0.953819 0.080358
Si Si4 0.680288 0.128504 0.920465
Si Si5 0.697407 0.288555 0.419973
Si Si6 0.000000 0.955210 0.416803
O O1 0.500000 0.742402 0.750000
O O2 0.500000 0.789049 0.517885
O O3 0.590580 0.712177 0.525608
O O4 0.500000 0.842310 0.750000
O O5 0.410485 0.864186 0.515323
O O6 0.209681 0.963754 0.250000
O O7 0.278203 0.918721 0.032369
O O8 0.098545 0.931734 0.045607
O O9 0.217847 0.000000 0.000000
O O10 0.655386 0.130201 0.750000
O O11 0.757850 0.164746 0.959736
O O12 0.703295 0.278554 0.250000
O O13 0.750000 0.250000 0.500000
O O14 0.000000 0.967820 0.250000
O O15 0.000000 0.000000 0.500000
#
# Coordination Sequence:
#
# PCOD8257528 Si02
#       6
#     8   8  16  16  16   8
#     4   9  18  32  51  76 105 136 172 212 253 305
#     4  11  21  35  55  76 102 139 180 218 262 316
#     4   9  18  33  53  79 108 139 175 216 261 312
#     4  10  21  35  54  79 106 137 176 219 263 312
#     4  10  19  33  52  75 104 136 170 211 255 303
#     4   8  14  27  49  74 101 133 165 200 249 306
#
# _framework density 17.907615
#
# number of rings (size 3 to 8) (size 9 to 14) (size 15 to 20)
#    0.000    2.444    2.222    0.333    0.000    1.778 
#    0.000    5.556    0.000    0.000    0.000    4.667 
#    0.000    0.000    0.000    0.000    0.000    0.000 
#
# Total GULP energy -446111.191741 kJ/mol
# GULP energy per Si atom -12391.977548 kJ/mol
# Density = 1.786686 g / cm^3
# Si number density = 17.907615 Si / 1000 Ang^3
#
#
#
# Elastic Constant Matrix: (Units=GPa)
#
#
# Indices 1 2 3 4 5 6 
#
# 1 176.2262 78.4841 50.7899 0.0000 0.0000 0.0000
# 2 78.4841 114.0984 40.4344 0.0000 0.0000 0.0000
# 3 50.7899 40.4344 42.6089 0.0000 0.0000 0.0000
# 4 0.0000 0.0000 0.0000 24.4063 0.0000 0.0000
# 5 0.0000 0.0000 0.0000 0.0000 23.2480 0.0000
# 6 0.0000 0.0000 0.0000 0.0000 0.0000 25.3373
#
#
#
# Elastic Compliance Matrix: (Units=1/GPa)
#
#
# Indices 1 2 3 4 5 6 
#
# 1 0.009655 -0.003861 -0.007845 0.000000 0.000000 0.000000
# 2 -0.003861 0.014750 -0.009394 0.000000 0.000000 0.000000
# 3 -0.007845 -0.009394 0.041735 0.000000 0.000000 0.000000
# 4 0.000000 0.000000 0.000000 0.040973 0.000000 0.000000
# 5 0.000000 0.000000 0.000000 0.000000 0.043014 0.000000
# 6 0.000000 0.000000 0.000000 0.000000 0.000000 0.039467
#
#
# Mechanical properties :
#
#
# Convention : Reuss Voigt Hill
#
# Bulk Modulus (GPa) = 41.77230 74.70559 58.23895
# Shear Modulus (GPa) = 20.85297 25.48001 23.16649
#
# Velocity S-wave (km/s) = 3.41614 3.77617 3.60066
# Velocity P-wave (km/s) = 6.23997 7.79875 7.06249
#
# Compressibility (1/GPa) = 0.02393931
#
# Stress axis : x y z
#
# Youngs Moduli (GPa) = 103.57201 67.79853 23.96091
#
# Poissons Ratio (x) = 0.26180 0.18796
# Poissons Ratio (y) = 0.39994 0.22509
# Poissons Ratio (z) = 0.81247 0.63690
#
# Static dielectric constant tensor:
#      x y z
#    x 3.817420 0.000000 0.000000 
#    y 0.000000 3.249850 0.000000 
#    z 0.000000 0.000000 3.172720 
# 
# 
# High freq. dielectric constant tensor:
#      x y z
#    x 1.710020 0.000000 0.000000 
#    y 0.000000 1.676370 0.000000 
#    z 0.000000 0.000000 1.677660 
# 
# From -- ./inp_files/4973.got.cif
#   From: 2010.03.12/outbox.cif.g09.slc.cpg/sg63_3_cif.got.tgz:4973.got - 2010.04.10 19:34:48.
