data_PCOD8257000
_publ_section_title
;
Structure prediction by ZEFSAII (Michael W. Deem and Ramdas Pophale) SiO2 
 PCOD8257000
Probable space group: C M C M
;
_chemical_formula_sum "Si O2"
_cell_formula_units_Z 80
_cell_length_a 18.170284
_cell_length_b 27.842962
_cell_length_c 8.755128
_cell_angle_alpha 90.000000
_cell_angle_beta 90.000000
_cell_angle_gamma 90.000000
_cell_volume 4429.346440
_symmetry_space_group_name_H-M "C M C M"
_symmetry_group_IT_number 63
_symmetry_cell_setting 'orthorhombic'
loop_
_space_group_symop_operation_xyz
x,y,z
-x,-y,1/2+z
x,-y,-z
-x,y,1/2-z
-x,-y,-z
x,y,1/2-z
-x,y,z
x,-y,1/2+z
1/2+x,1/2+y,z
1/2-x,1/2-y,1/2+z
1/2+x,1/2-y,-z
1/2-x,1/2+y,1/2-z
1/2-x,1/2-y,-z
1/2+x,1/2+y,1/2-z
1/2-x,1/2+y,z
1/2+x,1/2-y,1/2+z
loop_
_atom_site_type_symbol
_atom_site_label
_atom_site_fract_x
_atom_site_fract_y
_atom_site_fract_z
Si Si1 0.728448 0.550052 0.431163
Si Si2 0.344756 0.307952 0.929169
Si Si3 0.918130 0.711026 0.930291
Si Si4 0.790499 0.357453 0.070936
Si Si5 0.420076 0.405533 0.928799
O O1 0.756022 0.500000 0.500000
O O2 0.729824 0.547660 0.250000
O O3 0.783221 0.592102 0.483585
O O4 0.645962 0.561565 0.495108
O O5 0.325550 0.305065 0.750000
O O6 0.379268 0.258977 0.995063
O O7 0.403479 0.349889 0.962190
O O8 0.269964 0.318678 0.019541
O O9 0.923784 0.717458 0.750000
O O10 0.870215 0.664231 0.972018
O O11 0.000000 0.705002 0.000693
O O12 0.782419 0.366852 0.250000
O O13 0.424033 0.414624 0.750000
O O14 0.500000 0.418573 0.002520
#
# Coordination Sequence:
#
# PCOD8257000 Si02
#       5
#    16  16  16  16  16
#     4  10  20  34  52  71  92 121 159 202 245 290
#     4   9  16  28  48  71  98 133 167 195 224 269
#     4   9  17  29  48  74 100 128 163 200 238 280
#     4  10  19  31  49  72  99 128 159 198 239 284
#     4   8  14  25  43  68  96 125 156 189 225 267
#
# _framework density 18.061354999999999
#
# number of rings (size 3 to 8) (size 9 to 14) (size 15 to 20)
#    0.000    2.800    0.000    3.600    0.000    2.800 
#    0.000    1.000    0.000   25.200    0.000    0.000 
#    0.000    0.000    0.000    0.000    0.000    0.000 
#
# Total GULP energy -495834.124954 kJ/mol
# GULP energy per Si atom -12395.853124 kJ/mol
# Density = 1.802025 g / cm^3
# Si number density = 18.061355 Si / 1000 Ang^3
#
#
#
# Elastic Constant Matrix: (Units=GPa)
#
#
# Indices 1 2 3 4 5 6 
#
# 1 104.7879 64.9343 25.4965 0.0000 0.0000 0.0000
# 2 64.9343 136.9540 32.8161 0.0000 0.0000 0.0000
# 3 25.4965 32.8161 46.6830 0.0000 0.0000 0.0000
# 4 0.0000 0.0000 0.0000 23.3243 0.0000 0.0000
# 5 0.0000 0.0000 0.0000 0.0000 17.2586 0.0000
# 6 0.0000 0.0000 0.0000 0.0000 0.0000 12.6265
#
#
#
# Elastic Compliance Matrix: (Units=1/GPa)
#
#
# Indices 1 2 3 4 5 6 
#
# 1 0.013994 -0.005777 -0.003582 0.000000 0.000000 0.000000
# 2 -0.005777 0.011165 -0.004694 0.000000 0.000000 0.000000
# 3 -0.003582 -0.004694 0.026677 0.000000 0.000000 0.000000
# 4 0.000000 0.000000 0.000000 0.042874 0.000000 0.000000
# 5 0.000000 0.000000 0.000000 0.000000 0.057942 0.000000
# 6 0.000000 0.000000 0.000000 0.000000 0.000000 0.079199
#
#
# Mechanical properties :
#
#
# Convention : Reuss Voigt Hill
#
# Bulk Modulus (GPa) = 42.13877 59.43541 50.78709
# Shear Modulus (GPa) = 18.66594 21.65375 20.15984
#
# Velocity S-wave (km/s) = 3.21826 3.46627 3.34456
# Velocity P-wave (km/s) = 6.09845 6.99993 6.56468
#
# Compressibility (1/GPa) = 0.02373112
#
# Stress axis : x y z
#
# Youngs Moduli (GPa) = 71.45672 89.56255 37.48538
#
# Poissons Ratio (x) = 0.51739 0.13429
# Poissons Ratio (y) = 0.41279 0.17594
# Poissons Ratio (z) = 0.25598 0.42038
#
# Static dielectric constant tensor:
#      x y z
#    x 3.552110 0.000000 0.000000 
#    y 0.000000 3.343170 0.000000 
#    z 0.000000 0.000000 2.998470 
# 
# 
# High freq. dielectric constant tensor:
#      x y z
#    x 1.689440 0.000000 0.000000 
#    y 0.000000 1.695820 0.000000 
#    z 0.000000 0.000000 1.666660 
# 
# From -- ./inp_files/6420.got.cif
#   From: 2010.03.12/outbox.cif.g09.slc.cpg/sg63_4_cif.got.tgz:6420.got - 2010.04.10 19:34:48.
