data_PCOD8257438
_publ_section_title
;
Structure prediction by ZEFSAII (Michael W. Deem and Ramdas Pophale) SiO2 
 PCOD8257438
Probable space group: C M C M
;
_chemical_formula_sum "Si O2"
_cell_formula_units_Z 128
_cell_length_a 18.837409
_cell_length_b 22.535754
_cell_length_c 17.848735
_cell_angle_alpha 90.000000
_cell_angle_beta 90.000000
_cell_angle_gamma 90.000000
_cell_volume 7577.059580
_symmetry_space_group_name_H-M "C M C M"
_symmetry_group_IT_number 63
_symmetry_cell_setting 'orthorhombic'
loop_
_space_group_symop_operation_xyz
x,y,z
-x,-y,1/2+z
x,-y,-z
-x,y,1/2-z
-x,-y,-z
x,y,1/2-z
-x,y,z
x,-y,1/2+z
1/2+x,1/2+y,z
1/2-x,1/2-y,1/2+z
1/2+x,1/2-y,-z
1/2-x,1/2+y,1/2-z
1/2-x,1/2-y,-z
1/2+x,1/2+y,1/2-z
1/2-x,1/2+y,z
1/2+x,1/2-y,1/2+z
loop_
_atom_site_type_symbol
_atom_site_label
_atom_site_fract_x
_atom_site_fract_y
_atom_site_fract_z
Si Si1 0.422180 0.721238 0.558964
Si Si2 0.854120 0.267896 0.337973
Si Si3 0.314054 0.062434 0.980248
Si Si4 0.799840 0.809329 0.334458
Si Si5 0.266288 0.442815 0.164402
Si Si6 0.830400 0.960206 0.565591
Si Si7 0.921764 0.661805 0.964243
Si Si8 0.083146 0.154284 0.089460
O O1 0.500000 0.709647 0.594339
O O2 0.363684 0.720605 0.622162
O O3 0.420111 0.784843 0.521660
O O4 0.406037 0.671696 0.496743
O O5 0.863032 0.279856 0.250000
O O6 0.774328 0.283100 0.365650
O O7 0.904299 0.313998 0.381393
O O8 0.875200 0.200142 0.356832
O O9 0.300831 0.062734 0.890731
O O10 0.367155 0.114971 0.998919
O O11 0.241207 0.068269 0.028812
O O12 0.351223 0.000000 0.000000
O O13 0.807806 0.787818 0.250000
O O14 0.807406 0.880312 0.341074
O O15 0.241337 0.454327 0.250000
O O16 0.314714 0.497439 0.136644
O O17 0.882872 0.910656 0.597944
O O18 0.866999 0.000000 0.500000
O O19 0.000000 0.633067 0.960421
O O20 0.000000 0.153339 0.112022
#
# Coordination Sequence:
#
# PCOD8257438 Si02
#       8
#    16  16  16  16  16  16  16  16
#     4   9  19  33  49  74 105 132 164 209 253 302
#     4  10  21  34  51  77 106 135 172 212 254 310
#     4   9  18  32  51  73  98 131 165 210 257 295
#     4  10  19  32  54  77  97 130 172 212 255 300
#     4   9  17  32  51  74  98 125 171 214 245 293
#     4   9  19  33  52  74 101 138 173 208 256 295
#     4  10  20  32  51  76 100 134 167 201 257 309
#     4  10  21  34  51  77 106 141 173 208 257 305
#
# _framework density 16.893097000000001
#
# number of rings (size 3 to 8) (size 9 to 14) (size 15 to 20)
#    0.000    2.750    1.250    2.625    1.750    3.250 
#    0.000    0.625    0.000    0.750    0.000    0.000 
#    0.000    0.000    0.000    0.000    0.000    0.000 
#
# Total GULP energy -793268.053582 kJ/mol
# GULP energy per Si atom -12394.813337 kJ/mol
# Density = 1.685465 g / cm^3
# Si number density = 16.893097 Si / 1000 Ang^3
#
#
#
# Elastic Constant Matrix: (Units=GPa)
#
#
# Indices 1 2 3 4 5 6 
#
# 1 100.0540 49.2875 41.4286 0.0000 0.0000 0.0000
# 2 49.2875 84.6269 18.9107 0.0000 0.0000 0.0000
# 3 41.4286 18.9107 75.7067 0.0000 0.0000 0.0000
# 4 0.0000 0.0000 0.0000 17.1491 0.0000 0.0000
# 5 0.0000 0.0000 0.0000 0.0000 -54.1440 0.0000
# 6 0.0000 0.0000 0.0000 0.0000 0.0000 21.6837
#
#
#
# Elastic Compliance Matrix: (Units=1/GPa)
#
#
# Indices 1 2 3 4 5 6 
#
# 1 0.017121 -0.008344 -0.007285 0.000000 0.000000 0.000000
# 2 -0.008344 0.016581 0.000424 0.000000 0.000000 0.000000
# 3 -0.007285 0.000424 0.017089 0.000000 0.000000 0.000000
# 4 0.000000 0.000000 0.000000 0.058312 0.000000 0.000000
# 5 0.000000 0.000000 0.000000 0.000000 -0.018469 0.000000
# 6 0.000000 0.000000 0.000000 0.000000 0.000000 0.046118
#
#
# Mechanical properties :
#
#
# Convention : Reuss Voigt Hill
#
# Bulk Modulus (GPa) = 49.06118 53.29347 51.17733
# Shear Modulus (GPa) = 28.74291 6.98848 17.86570
#
# Velocity S-wave (km/s) = 4.12935 2.03614 3.25556
# Velocity P-wave (km/s) = 7.20004 6.09457 6.67025
#
# Compressibility (1/GPa) = 0.02038271
#
# Stress axis : x y z
#
# Youngs Moduli (GPa) = 58.40713 60.30916 58.51552
#
# Poissons Ratio (x) = 0.50320 0.42629
# Poissons Ratio (y) = 0.48733 -0.02481
# Poissons Ratio (z) = 0.42550 -0.02557
#
# Static dielectric constant tensor:
#      x y z
#    x 3.139700 0.000000 0.000000 
#    y 0.000000 3.195990 0.000000 
#    z 0.000000 0.000000 3.107330 
# 
# 
# High freq. dielectric constant tensor:
#      x y z
#    x 1.638860 0.000000 0.000000 
#    y 0.000000 1.653410 0.000000 
#    z 0.000000 0.000000 1.642650 
# 
# From -- ./inp_files/46350.got.cif
#   From: 2010.03.12/outbox.cif.g09.slc.cpg/sg63_24_cif.got.tgz:46350.got - 2010.04.10 19:34:48.
