data_PCOD8257746
_publ_section_title
;
Structure prediction by ZEFSAII (Michael W. Deem and Ramdas Pophale) SiO2 
 PCOD8257746
Probable space group: C M C M
;
_chemical_formula_sum "Si O2"
_cell_formula_units_Z 112
_cell_length_a 25.046769
_cell_length_b 12.549658
_cell_length_c 18.077046
_cell_angle_alpha 90.000000
_cell_angle_beta 90.000000
_cell_angle_gamma 90.000000
_cell_volume 5682.128674
_symmetry_space_group_name_H-M "C M C M"
_symmetry_group_IT_number 63
_symmetry_cell_setting 'orthorhombic'
loop_
_space_group_symop_operation_xyz
x,y,z
-x,-y,1/2+z
x,-y,-z
-x,y,1/2-z
-x,-y,-z
x,y,1/2-z
-x,y,z
x,-y,1/2+z
1/2+x,1/2+y,z
1/2-x,1/2-y,1/2+z
1/2+x,1/2-y,-z
1/2-x,1/2+y,1/2-z
1/2-x,1/2-y,-z
1/2+x,1/2+y,1/2-z
1/2-x,1/2+y,z
1/2+x,1/2-y,1/2+z
loop_
_atom_site_type_symbol
_atom_site_label
_atom_site_fract_x
_atom_site_fract_y
_atom_site_fract_z
Si Si1 0.608746 0.617805 0.520058
Si Si2 0.060142 0.408926 0.334668
Si Si3 0.759723 0.052592 0.165616
Si Si4 0.440468 0.327155 0.617862
Si Si5 0.337793 0.052519 0.919855
Si Si6 0.375395 0.530547 0.667384
Si Si7 0.796045 0.780918 0.554067
O O1 0.590573 0.500000 0.500000
O O2 0.569407 0.692799 0.471196
O O3 0.604713 0.623231 0.609981
O O4 0.668857 0.635642 0.492331
O O5 0.067626 0.443850 0.250000
O O6 0.068588 0.282064 0.339145
O O7 0.104459 0.471062 0.383011
O O8 0.000000 0.438222 0.362288
O O9 0.745105 0.078331 0.250000
O O10 0.771402 0.165097 0.126642
O O11 0.709649 0.995012 0.128666
O O12 0.811434 0.976524 0.160633
O O13 0.500000 0.370448 0.631014
O O14 0.398847 0.413647 0.649030
O O15 0.331285 0.179562 0.923499
O O16 0.336496 0.000000 0.000000
O O17 0.392755 0.564847 0.750000
O O18 0.750000 0.750000 0.500000
#
# Coordination Sequence:
#
# PCOD8257746 Si02
#       7
#    16  16  16  16  16  16  16
#     4  10  19  35  55  78 114 150 199 238 293 356
#     4  10  21  39  62  88 119 152 194 255 313 355
#     4  11  23  39  59  88 120 153 195 243 294 358
#     4  10  19  33  57  87 117 153 199 247 300 360
#     4  12  24  39  64  91 120 158 203 246 294 363
#     4  10  20  33  53  79 115 156 194 241 292 347
#     4  12  22  37  60  83 117 159 196 240 302 348
#
# _framework density 19.710923000000001
#
# number of rings (size 3 to 8) (size 9 to 14) (size 15 to 20)
#    0.000    1.286    5.714    1.714    0.000    6.000 
#    0.000    0.714    0.000    0.000    0.000    0.000 
#    0.000    0.000    0.000    0.000    0.000    0.000 
#
# Total GULP energy -694064.535413 kJ/mol
# GULP energy per Si atom -12394.009561 kJ/mol
# Density = 1.966606 g / cm^3
# Si number density = 19.710923 Si / 1000 Ang^3
#
#
#
# Elastic Constant Matrix: (Units=GPa)
#
#
# Indices 1 2 3 4 5 6 
#
# 1 110.2171 2.9134 33.4414 0.0000 0.0000 0.0000
# 2 2.9134 33.5075 23.0464 0.0000 0.0000 0.0000
# 3 33.4414 23.0464 155.2375 0.0000 0.0000 0.0000
# 4 0.0000 0.0000 0.0000 17.7039 0.0000 0.0000
# 5 0.0000 0.0000 0.0000 0.0000 27.0108 0.0000
# 6 0.0000 0.0000 0.0000 0.0000 0.0000 19.6441
#
#
#
# Elastic Compliance Matrix: (Units=1/GPa)
#
#
# Indices 1 2 3 4 5 6 
#
# 1 0.009721 0.000663 -0.002192 0.000000 0.000000 0.000000
# 2 0.000663 0.033283 -0.005084 0.000000 0.000000 0.000000
# 3 -0.002192 -0.005084 0.007669 0.000000 0.000000 0.000000
# 4 0.000000 0.000000 0.000000 0.056485 0.000000 0.000000
# 5 0.000000 0.000000 0.000000 0.000000 0.037022 0.000000
# 6 0.000000 0.000000 0.000000 0.000000 0.000000 0.050906
#
#
# Mechanical properties :
#
#
# Convention : Reuss Voigt Hill
#
# Bulk Modulus (GPa) = 26.70555 46.41830 36.56193
# Shear Modulus (GPa) = 22.64548 28.84249 25.74398
#
# Velocity S-wave (km/s) = 3.39319 3.82943 3.61789
# Velocity P-wave (km/s) = 5.37863 6.56912 6.00346
#
# Compressibility (1/GPa) = 0.03744539
#
# Stress axis : x y z
#
# Youngs Moduli (GPa) = 102.87330 30.04520 130.39852
#
# Poissons Ratio (x) = -0.01991 0.28589
# Poissons Ratio (y) = -0.06818 0.66294
# Poissons Ratio (z) = 0.22554 0.15275
#
# Static dielectric constant tensor:
#      x y z
#    x 3.736240 0.000000 0.000000 
#    y 0.000000 3.119640 0.000000 
#    z 0.000000 0.000000 4.467890 
# 
# 
# High freq. dielectric constant tensor:
#      x y z
#    x 1.776350 0.000000 0.000000 
#    y 0.000000 1.725400 0.000000 
#    z 0.000000 0.000000 1.781190 
# 
# From -- ./inp_files/57632.got.cif
#   From: 2010.03.12/outbox.cif.g09.slc.cpg/sg63_29_cif.got.tgz:57632.got - 2010.04.10 19:34:48.
