data_PCOD8257601
_publ_section_title
;
Structure prediction by ZEFSAII (Michael W. Deem and Ramdas Pophale) SiO2 
 PCOD8257601
Probable space group: C M C M
;
_chemical_formula_sum "Si O2"
_cell_formula_units_Z 80
_cell_length_a 14.969249
_cell_length_b 24.421272
_cell_length_c 11.558739
_cell_angle_alpha 90.000000
_cell_angle_beta 90.000000
_cell_angle_gamma 90.000000
_cell_volume 4225.506272
_symmetry_space_group_name_H-M "C M C M"
_symmetry_group_IT_number 63
_symmetry_cell_setting 'orthorhombic'
loop_
_space_group_symop_operation_xyz
x,y,z
-x,-y,1/2+z
x,-y,-z
-x,y,1/2-z
-x,-y,-z
x,y,1/2-z
-x,y,z
x,-y,1/2+z
1/2+x,1/2+y,z
1/2-x,1/2-y,1/2+z
1/2+x,1/2-y,-z
1/2-x,1/2+y,1/2-z
1/2-x,1/2-y,-z
1/2+x,1/2+y,1/2-z
1/2-x,1/2+y,z
1/2+x,1/2-y,1/2+z
loop_
_atom_site_type_symbol
_atom_site_label
_atom_site_fract_x
_atom_site_fract_y
_atom_site_fract_z
Si Si1 0.245587 0.619774 0.984859
Si Si2 0.598664 0.985999 0.250000
Si Si3 0.101160 0.690260 0.114128
Si Si4 0.605020 0.297888 0.516489
Si Si5 0.400784 0.250078 0.750000
Si Si6 0.693552 0.000000 0.000000
Si Si7 0.654851 0.131937 0.750000
O O1 0.253820 0.554481 0.003257
O O2 0.221706 0.633388 0.855429
O O3 0.168404 0.644993 0.065575
O O4 0.343379 0.645282 0.001570
O O5 0.500000 0.011875 0.250000
O O6 0.591093 0.920465 0.250000
O O7 0.641285 0.002867 0.375286
O O8 0.104571 0.685629 0.250000
O O9 0.000000 0.678176 0.067789
O O10 0.128214 0.752230 0.079676
O O11 0.500000 0.311155 0.518203
O O12 0.645590 0.272814 0.635124
O O13 0.500000 0.273745 0.750000
O O14 0.407330 0.184792 0.750000
#
# Coordination Sequence:
#
# PCOD8257601 Si02
#       7
#    16   8  16  16   8   8   8
#     4  11  23  39  59  79 116 152 191 237 282 329
#     4  10  21  39  59  82 115 155 193 235 283 336
#     4  10  22  36  56  88 119 147 182 224 284 354
#     4  10  22  37  57  85 113 147 189 236 287 339
#     4  10  19  33  53  84 115 139 183 230 277 345
#     4  10  25  40  55  86 112 154 200 240 274 340
#     4  10  21  34  57  84 110 150 190 221 282 341
#
# _framework density 18.932642000000001
#
# number of rings (size 3 to 8) (size 9 to 14) (size 15 to 20)
#    0.000    1.800    2.000    1.200    4.200    4.000 
#    0.000    0.500    0.000    0.000    0.000    1.400 
#    0.000    0.000    0.000    0.000    0.000    0.000 
#
# Total GULP energy -495596.410525 kJ/mol
# GULP energy per Si atom -12389.910263 kJ/mol
# Density = 1.888955 g / cm^3
# Si number density = 18.932642 Si / 1000 Ang^3
#
#
#
# Elastic Constant Matrix: (Units=GPa)
#
#
# Indices 1 2 3 4 5 6 
#
# 1 73.2244 55.4170 26.1255 0.0000 0.0000 0.0000
# 2 55.4170 131.4159 28.9875 0.0000 0.0000 0.0000
# 3 26.1255 28.9875 114.0971 0.0000 0.0000 0.0000
# 4 0.0000 0.0000 0.0000 25.9729 0.0000 0.0000
# 5 0.0000 0.0000 0.0000 0.0000 29.6192 0.0000
# 6 0.0000 0.0000 0.0000 0.0000 0.0000 18.2529
#
#
#
# Elastic Compliance Matrix: (Units=1/GPa)
#
#
# Indices 1 2 3 4 5 6 
#
# 1 0.020807 -0.008182 -0.002686 0.000000 0.000000 0.000000
# 2 -0.008182 0.011278 -0.000992 0.000000 0.000000 0.000000
# 3 -0.002686 -0.000992 0.009631 0.000000 0.000000 0.000000
# 4 0.000000 0.000000 0.000000 0.038502 0.000000 0.000000
# 5 0.000000 0.000000 0.000000 0.000000 0.033762 0.000000
# 6 0.000000 0.000000 0.000000 0.000000 0.000000 0.054786
#
#
# Mechanical properties :
#
#
# Convention : Reuss Voigt Hill
#
# Bulk Modulus (GPa) = 55.56150 59.97748 57.76949
# Shear Modulus (GPa) = 25.19098 28.64951 26.92024
#
# Velocity S-wave (km/s) = 3.65164 3.89425 3.77489
# Velocity P-wave (km/s) = 6.86949 7.20891 7.04125
#
# Compressibility (1/GPa) = 0.01799807
#
# Stress axis : x y z
#
# Youngs Moduli (GPa) = 48.06124 88.66529 103.82673
#
# Poissons Ratio (x) = 0.72543 0.27884
# Poissons Ratio (y) = 0.39322 0.10299
# Poissons Ratio (z) = 0.12907 0.08795
#
# Static dielectric constant tensor:
#      x y z
#    x 3.248290 0.000000 0.000000 
#    y 0.000000 3.459100 0.000000 
#    z 0.000000 0.000000 3.899980 
# 
# 
# High freq. dielectric constant tensor:
#      x y z
#    x 1.712570 0.000000 0.000000 
#    y 0.000000 1.726780 0.000000 
#    z 0.000000 0.000000 1.761110 
# 
# From -- ./inp_files/19482.got.cif
#   From: 2010.03.12/outbox.cif.g09.slc.cpg/sg63_10_cif.got.tgz:19482.got - 2010.04.10 19:34:48.
