data_PCOD8257669
_publ_section_title
;
Structure prediction by ZEFSAII (Michael W. Deem and Ramdas Pophale) SiO2 
 PCOD8257669
Probable space group: C M C M
;
_chemical_formula_sum "Si O2"
_cell_formula_units_Z 96
_cell_length_a 9.129583
_cell_length_b 23.535588
_cell_length_c 25.071202
_cell_angle_alpha 90.000000
_cell_angle_beta 90.000000
_cell_angle_gamma 90.000000
_cell_volume 5387.051784
_symmetry_space_group_name_H-M "C M C M"
_symmetry_group_IT_number 63
_symmetry_cell_setting 'orthorhombic'
loop_
_space_group_symop_operation_xyz
x,y,z
-x,-y,1/2+z
x,-y,-z
-x,y,1/2-z
-x,-y,-z
x,y,1/2-z
-x,y,z
x,-y,1/2+z
1/2+x,1/2+y,z
1/2-x,1/2-y,1/2+z
1/2+x,1/2-y,-z
1/2-x,1/2+y,1/2-z
1/2-x,1/2-y,-z
1/2+x,1/2+y,1/2-z
1/2-x,1/2+y,z
1/2+x,1/2-y,1/2+z
loop_
_atom_site_type_symbol
_atom_site_label
_atom_site_fract_x
_atom_site_fract_y
_atom_site_fract_z
Si Si1 0.172609 0.369957 0.849599
Si Si2 0.830744 0.064495 0.061447
Si Si3 0.174036 0.362755 0.148096
Si Si4 0.173769 0.568040 0.750000
Si Si5 0.327789 0.254425 0.188135
Si Si6 0.170004 0.935418 0.062105
Si Si7 0.825157 0.441020 0.750000
O O1 0.239976 0.389840 0.905238
O O2 0.217600 0.305651 0.836975
O O3 0.234979 0.409452 0.802315
O O4 0.000000 0.376236 0.853834
O O5 0.000000 0.072553 0.075067
O O6 0.782850 0.000059 0.075643
O O7 0.800620 0.077136 0.999714
O O8 0.231583 0.399755 0.197879
O O9 0.240405 0.300253 0.153632
O O10 0.230229 0.391815 0.094381
O O11 0.000000 0.358449 0.146355
O O12 0.238560 0.504638 0.750000
O O13 0.000000 0.565953 0.750000
O O14 0.279724 0.256369 0.250000
O O15 0.500000 0.265556 0.182734
O O16 0.000000 0.925940 0.076240
O O17 0.000000 0.439783 0.750000
#
# Coordination Sequence:
#
# PCOD8257669 Si02
#       7
#    16  16  16   8  16  16   8
#     4  10  19  33  55  80 106 139 182 220 261 320
#     4   9  19  36  57  80 109 142 176 219 272 319
#     4  11  21  34  53  80 109 140 180 224 269 314
#     4   9  18  29  45  75 111 135 158 209 274 315
#     4  10  20  36  55  76 105 146 185 217 261 319
#     4   9  19  37  57  78 108 145 179 216 267 326
#     4   9  16  29  49  75 107 137 164 207 264 319
#
# _framework density 17.820506999999999
#
# number of rings (size 3 to 8) (size 9 to 14) (size 15 to 20)
#    0.000    2.333    1.667    2.500    0.000    3.333 
#    0.000    2.917    0.000    3.000    0.000    0.000 
#    0.000    0.000    0.000    0.000    0.000    0.000 
#
# Total GULP energy -595289.073935 kJ/mol
# GULP energy per Si atom -12401.855707 kJ/mol
# Density = 1.777995 g / cm^3
# Si number density = 17.820507 Si / 1000 Ang^3
#
#
#
# Elastic Constant Matrix: (Units=GPa)
#
#
# Indices 1 2 3 4 5 6 
#
# 1 39.7015 47.8471 33.0376 0.0000 0.0000 0.0000
# 2 47.8471 145.8550 65.6554 0.0000 0.0000 0.0000
# 3 33.0376 65.6554 91.6349 0.0000 0.0000 0.0000
# 4 0.0000 0.0000 0.0000 32.1068 0.0000 0.0000
# 5 0.0000 0.0000 0.0000 0.0000 26.5419 0.0000
# 6 0.0000 0.0000 0.0000 0.0000 0.0000 29.2993
#
#
#
# Elastic Compliance Matrix: (Units=1/GPa)
#
#
# Indices 1 2 3 4 5 6 
#
# 1 0.045714 -0.011184 -0.008468 0.000000 0.000000 0.000000
# 2 -0.011184 0.012856 -0.005179 0.000000 0.000000 0.000000
# 3 -0.008468 -0.005179 0.017677 0.000000 0.000000 0.000000
# 4 0.000000 0.000000 0.000000 0.031146 0.000000 0.000000
# 5 0.000000 0.000000 0.000000 0.000000 0.037676 0.000000
# 6 0.000000 0.000000 0.000000 0.000000 0.000000 0.034131
#
#
# Mechanical properties :
#
#
# Convention : Reuss Voigt Hill
#
# Bulk Modulus (GPa) = 37.61680 63.36352 50.49016
# Shear Modulus (GPa) = 21.03283 26.29969 23.66626
#
# Velocity S-wave (km/s) = 3.43922 3.84580 3.64817
# Velocity P-wave (km/s) = 6.07664 7.44002 6.79262
#
# Compressibility (1/GPa) = 0.02658387
#
# Stress axis : x y z
#
# Youngs Moduli (GPa) = 21.87534 77.78192 56.57176
#
# Poissons Ratio (x) = 0.86994 0.47904
# Poissons Ratio (y) = 0.24466 0.29299
# Poissons Ratio (z) = 0.18524 0.40284
#
# Static dielectric constant tensor:
#      x y z
#    x 3.020270 0.000000 0.000000 
#    y 0.000000 3.362990 0.000000 
#    z 0.000000 0.000000 3.263220 
# 
# 
# High freq. dielectric constant tensor:
#      x y z
#    x 1.669980 0.000000 0.000000 
#    y 0.000000 1.694960 0.000000 
#    z 0.000000 0.000000 1.690430 
# 
# From -- ./inp_files/60051.got.cif
#   From: 2010.03.12/outbox.cif.g09.slc.cpg/sg63_31_cif.got.tgz:60051.got - 2010.04.10 19:34:48.
