data_PCOD8257485
_publ_section_title
;
Structure prediction by ZEFSAII (Michael W. Deem and Ramdas Pophale) SiO2 
 PCOD8257485
Probable space group: C M C M
;
_chemical_formula_sum "Si O2"
_cell_formula_units_Z 96
_cell_length_a 9.325721
_cell_length_b 34.624625
_cell_length_c 16.241174
_cell_angle_alpha 90.000000
_cell_angle_beta 90.000000
_cell_angle_gamma 90.000000
_cell_volume 5244.268466
_symmetry_space_group_name_H-M "C M C M"
_symmetry_group_IT_number 63
_symmetry_cell_setting 'orthorhombic'
loop_
_space_group_symop_operation_xyz
x,y,z
-x,-y,1/2+z
x,-y,-z
-x,y,1/2-z
-x,-y,-z
x,y,1/2-z
-x,y,z
x,-y,1/2+z
1/2+x,1/2+y,z
1/2-x,1/2-y,1/2+z
1/2+x,1/2-y,-z
1/2-x,1/2+y,1/2-z
1/2-x,1/2-y,-z
1/2+x,1/2+y,1/2-z
1/2-x,1/2+y,z
1/2+x,1/2-y,1/2+z
loop_
_atom_site_type_symbol
_atom_site_label
_atom_site_fract_x
_atom_site_fract_y
_atom_site_fract_z
Si Si1 0.829448 0.906130 0.157680
Si Si2 0.831884 0.828733 0.425594
Si Si3 0.671090 0.468093 0.750000
Si Si4 0.832384 0.175757 0.113172
Si Si5 0.170604 0.013795 0.911197
Si Si6 0.165358 0.740018 0.654765
Si Si7 0.328907 0.381127 0.750000
O O1 0.770127 0.911338 0.250000
O O2 0.769593 0.866030 0.121558
O O3 0.777470 0.942114 0.102377
O O4 0.000000 0.904906 0.158009
O O5 0.797208 0.835859 0.520633
O O6 0.753845 0.790353 0.397483
O O7 0.000000 0.823143 0.409339
O O8 0.500000 0.469566 0.750000
O O9 0.728253 0.488569 0.833746
O O10 0.732252 0.424524 0.750000
O O11 0.768270 0.217718 0.136029
O O12 0.769169 0.141863 0.170463
O O13 0.000000 0.178646 0.131317
O O14 0.000000 0.011046 0.912931
O O15 0.232583 0.000000 0.000000
O O16 0.183458 0.729923 0.750000
O O17 0.000000 0.737765 0.627002
O O18 0.500000 0.383544 0.750000
#
# Coordination Sequence:
#
# PCOD8257485 Si02
#       7
#    16  16   8  16  16  16   8
#     4   9  16  27  39  55  86 121 147 178 226 274
#     4  10  20  30  47  72  94 120 157 194 228 272
#     4   9  16  24  36  55  80 115 157 193 223 267
#     4   9  17  30  45  64  89 119 154 193 235 276
#     4   9  16  24  35  53  81 119 154 182 221 275
#     4  10  19  33  50  66  90 125 156 187 234 281
#     4   9  16  26  42  61  85 119 159 195 229 275
#
# _framework density 18.305699000000001
#
# number of rings (size 3 to 8) (size 9 to 14) (size 15 to 20)
#    0.000    2.667    1.667    1.000    2.333    1.000 
#    0.000    0.000    0.000    0.000    0.000    0.000 
#    0.000    0.667    0.000    1.333    0.000    0.000 
#
# Total GULP energy -595020.916843 kJ/mol
# GULP energy per Si atom -12396.269101 kJ/mol
# Density = 1.826403 g / cm^3
# Si number density = 18.305699 Si / 1000 Ang^3
#
#
#
# Elastic Constant Matrix: (Units=GPa)
#
#
# Indices 1 2 3 4 5 6 
#
# 1 12.4027 11.2972 14.3492 0.0000 0.0000 0.0000
# 2 11.2972 145.8738 59.8691 0.0000 0.0000 0.0000
# 3 14.3492 59.8691 117.7357 0.0000 0.0000 0.0000
# 4 0.0000 0.0000 0.0000 39.6106 0.0000 0.0000
# 5 0.0000 0.0000 0.0000 0.0000 8.2844 0.0000
# 6 0.0000 0.0000 0.0000 0.0000 0.0000 15.4608
#
#
#
# Elastic Compliance Matrix: (Units=1/GPa)
#
#
# Indices 1 2 3 4 5 6 
#
# 1 0.095100 -0.003296 -0.009914 0.000000 0.000000 0.000000
# 2 -0.003296 0.008777 -0.004062 0.000000 0.000000 0.000000
# 3 -0.009914 -0.004062 0.011767 0.000000 0.000000 0.000000
# 4 0.000000 0.000000 0.000000 0.025246 0.000000 0.000000
# 5 0.000000 0.000000 0.000000 0.000000 0.120709 0.000000
# 6 0.000000 0.000000 0.000000 0.000000 0.000000 0.064680
#
#
# Mechanical properties :
#
#
# Convention : Reuss Voigt Hill
#
# Bulk Modulus (GPa) = 12.33031 49.67147 31.00089
# Shear Modulus (GPa) = 12.89131 25.37093 19.13112
#
# Velocity S-wave (km/s) = 2.65660 3.72688 3.23629
# Velocity P-wave (km/s) = 4.02000 6.76113 5.56207
#
# Compressibility (1/GPa) = 0.08110098
#
# Stress axis : x y z
#
# Youngs Moduli (GPa) = 10.51520 113.92786 84.98111
#
# Poissons Ratio (x) = 0.37551 0.84254
# Poissons Ratio (y) = 0.03466 0.34517
# Poissons Ratio (z) = 0.10425 0.46274
#
# Static dielectric constant tensor:
#      x y z
#    x 2.613610 0.000000 0.000000 
#    y 0.000000 3.655280 0.000000 
#    z 0.000000 0.000000 3.608660 
# 
# 
# High freq. dielectric constant tensor:
#      x y z
#    x 1.617690 0.000000 0.000000 
#    y 0.000000 1.728370 0.000000 
#    z 0.000000 0.000000 1.727050 
# 
# From -- ./inp_files/30356.got.cif
#   From: 2010.03.12/outbox.cif.g09.slc.cpg/sg63_16_cif.got.tgz:30356.got - 2010.04.10 19:34:48.
