data_PCOD8257614
_publ_section_title
;
Structure prediction by ZEFSAII (Michael W. Deem and Ramdas Pophale) SiO2 
 PCOD8257614
Probable space group: C M C M
;
_chemical_formula_sum "Si O2"
_cell_formula_units_Z 80
_cell_length_a 8.478191
_cell_length_b 19.902582
_cell_length_c 25.590364
_cell_angle_alpha 90.000000
_cell_angle_beta 90.000000
_cell_angle_gamma 90.000000
_cell_volume 4318.064066
_symmetry_space_group_name_H-M "C M C M"
_symmetry_group_IT_number 63
_symmetry_cell_setting 'orthorhombic'
loop_
_space_group_symop_operation_xyz
x,y,z
-x,-y,1/2+z
x,-y,-z
-x,y,1/2-z
-x,-y,-z
x,y,1/2-z
-x,y,z
x,-y,1/2+z
1/2+x,1/2+y,z
1/2-x,1/2-y,1/2+z
1/2+x,1/2-y,-z
1/2-x,1/2+y,1/2-z
1/2-x,1/2-y,-z
1/2+x,1/2+y,1/2-z
1/2-x,1/2+y,z
1/2+x,1/2-y,1/2+z
loop_
_atom_site_type_symbol
_atom_site_label
_atom_site_fract_x
_atom_site_fract_y
_atom_site_fract_z
Si Si1 0.311390 0.317189 0.362164
Si Si2 0.184011 0.072013 0.555979
Si Si3 0.680131 0.330829 0.635700
Si Si4 0.177615 0.825919 0.250000
Si Si5 0.818509 0.570383 0.054531
Si Si6 0.178355 0.811897 0.750000
O O1 0.500000 0.307022 0.360796
O O2 0.256916 0.367660 0.407311
O O3 0.229804 0.246150 0.372928
O O4 0.249194 0.348425 0.306093
O O5 0.217855 0.091792 0.496114
O O6 0.000000 0.058828 0.563745
O O7 0.274415 0.004587 0.572662
O O8 0.500000 0.339362 0.617595
O O9 0.788977 0.378579 0.601420
O O10 0.700680 0.354114 0.696491
O O11 0.188897 0.745139 0.250000
O O12 0.000000 0.851068 0.250000
O O13 0.000000 0.572685 0.038414
O O14 0.000000 0.780672 0.750000
#
# Coordination Sequence:
#
# PCOD8257614 Si02
#       6
#    16  16  16   8  16   8
#     4   9  18  32  53  79 104 131 164 204 248 297
#     4  10  20  36  55  74 100 134 171 209 254 304
#     4  10  19  33  54  78 104 133 167 207 249 296
#     4   8  14  28  49  74 103 131 159 195 245 298
#     4  11  22  36  53  73 100 134 172 211 255 303
#     4   8  16  30  49  74 101 131 165 201 245 294
#
# _framework density 18.526820000000001
#
# number of rings (size 3 to 8) (size 9 to 14) (size 15 to 20)
#    0.000    2.400    0.000    4.200    0.000    3.200 
#    0.000    1.000    0.000    3.600    0.000    0.000 
#    0.000    0.000    0.000    0.000    0.000    0.000 
#
# Total GULP energy -495694.700227 kJ/mol
# GULP energy per Si atom -12392.367506 kJ/mol
# Density = 1.848465 g / cm^3
# Si number density = 18.526820 Si / 1000 Ang^3
#
#
#
# Elastic Constant Matrix: (Units=GPa)
#
#
# Indices 1 2 3 4 5 6 
#
# 1 46.6667 15.5316 11.6485 0.0000 0.0000 0.0000
# 2 15.5316 82.0729 69.2486 0.0000 0.0000 0.0000
# 3 11.6485 69.2486 121.5451 0.0000 0.0000 0.0000
# 4 0.0000 0.0000 0.0000 7.1897 0.0000 0.0000
# 5 0.0000 0.0000 0.0000 0.0000 20.0053 0.0000
# 6 0.0000 0.0000 0.0000 0.0000 0.0000 27.2795
#
#
#
# Elastic Compliance Matrix: (Units=1/GPa)
#
#
# Indices 1 2 3 4 5 6 
#
# 1 0.022886 -0.004777 0.000528 0.000000 0.000000 0.000000
# 2 -0.004777 0.024460 -0.013478 0.000000 0.000000 0.000000
# 3 0.000528 -0.013478 0.015856 0.000000 0.000000 0.000000
# 4 0.000000 0.000000 0.000000 0.139088 0.000000 0.000000
# 5 0.000000 0.000000 0.000000 0.000000 0.049987 0.000000
# 6 0.000000 0.000000 0.000000 0.000000 0.000000 0.036658
#
#
# Mechanical properties :
#
#
# Convention : Reuss Voigt Hill
#
# Bulk Modulus (GPa) = 36.03714 49.23804 42.63759
# Shear Modulus (GPa) = 14.98629 21.15197 18.06913
#
# Velocity S-wave (km/s) = 2.84720 3.38256 3.12636
# Velocity P-wave (km/s) = 5.50475 6.47225 6.00800
#
# Compressibility (1/GPa) = 0.02774915
#
# Stress axis : x y z
#
# Youngs Moduli (GPa) = 43.69389 40.88244 63.06837
#
# Poissons Ratio (x) = 0.19528 -0.03330
# Poissons Ratio (y) = 0.20871 0.85005
# Poissons Ratio (z) = -0.02307 0.55102
#
# Static dielectric constant tensor:
#      x y z
#    x 3.408280 0.000000 0.000000 
#    y 0.000000 3.105630 0.000000 
#    z 0.000000 0.000000 3.746910 
# 
# 
# High freq. dielectric constant tensor:
#      x y z
#    x 1.720390 0.000000 0.000000 
#    y 0.000000 1.684000 0.000000 
#    z 0.000000 0.000000 1.735600 
# 
# From -- ./inp_files/59523.got.cif
#   From: 2010.03.12/outbox.cif.g09.slc.cpg/sg63_30_cif.got.tgz:59523.got - 2010.04.10 19:34:48.
