data_PCOD8257788
_publ_section_title
;
Structure prediction by ZEFSAII (Michael W. Deem and Ramdas Pophale) SiO2 
 PCOD8257788
Probable space group: C M C M
;
_chemical_formula_sum "Si O2"
_cell_formula_units_Z 96
_cell_length_a 30.182721
_cell_length_b 19.558488
_cell_length_c 9.137601
_cell_angle_alpha 90.000000
_cell_angle_beta 90.000000
_cell_angle_gamma 90.000000
_cell_volume 5394.185255
_symmetry_space_group_name_H-M "C M C M"
_symmetry_group_IT_number 63
_symmetry_cell_setting 'orthorhombic'
loop_
_space_group_symop_operation_xyz
x,y,z
-x,-y,1/2+z
x,-y,-z
-x,y,1/2-z
-x,-y,-z
x,y,1/2-z
-x,y,z
x,-y,1/2+z
1/2+x,1/2+y,z
1/2-x,1/2-y,1/2+z
1/2+x,1/2-y,-z
1/2-x,1/2+y,1/2-z
1/2-x,1/2-y,-z
1/2+x,1/2+y,1/2-z
1/2-x,1/2+y,z
1/2+x,1/2-y,1/2+z
loop_
_atom_site_type_symbol
_atom_site_label
_atom_site_fract_x
_atom_site_fract_y
_atom_site_fract_z
Si Si1 0.449940 0.286773 0.576104
Si Si2 0.374823 0.791205 0.919859
Si Si3 0.552536 0.437010 0.910914
Si Si4 0.267189 0.430836 0.922479
Si Si5 0.336289 0.066874 0.080771
Si Si6 0.287515 0.705412 0.922590
O O1 0.446235 0.285850 0.750000
O O2 0.500000 0.269243 0.527140
O O3 0.417907 0.230907 0.508159
O O4 0.436478 0.362913 0.518596
O O5 0.386940 0.792510 0.750000
O O6 0.362277 0.866777 0.976421
O O7 0.334419 0.740631 0.950188
O O8 0.573598 0.441461 0.750000
O O9 0.500000 0.445093 0.901006
O O10 0.573757 0.500000 0.000000
O O11 0.278420 0.432273 0.750000
O O12 0.215241 0.421014 0.951309
O O13 0.284105 0.500000 0.000000
O O14 0.291623 0.368282 0.001563
O O15 0.344827 0.054823 0.250000
O O16 0.354674 0.000000 0.000000
O O17 0.276640 0.699195 0.750000
O O18 0.250000 0.750000 0.000000
#
# Coordination Sequence:
#
# PCOD8257788 Si02
#       6
#    16  16  16  16  16  16
#     4   9  19  35  53  76 105 136 175 221 267 317
#     4  10  21  36  53  78 109 137 174 219 263 315
#     4   8  14  26  45  69  96 124 159 205 251 298
#     4  10  19  34  53  77 108 144 182 221 265 317
#     4   9  18  33  51  76 106 134 169 215 258 308
#     4  11  21  35  53  77 109 143 177 220 266 316
#
# _framework density 17.796941
#
# number of rings (size 3 to 8) (size 9 to 14) (size 15 to 20)
#    0.000    2.500    1.667    2.000    0.000    3.667 
#    0.000    2.500    0.000    2.500    0.000    0.000 
#    0.000    0.000    0.000    0.000    0.000    0.000 
#
# Total GULP energy -595109.543263 kJ/mol
# GULP energy per Si atom -12398.115485 kJ/mol
# Density = 1.775643 g / cm^3
# Si number density = 17.796941 Si / 1000 Ang^3
#
#
#
# Elastic Constant Matrix: (Units=GPa)
#
#
# Indices 1 2 3 4 5 6 
#
# 1 62.2220 52.5488 37.2214 0.0000 0.0000 0.0000
# 2 52.5488 168.4963 64.1762 0.0000 0.0000 0.0000
# 3 37.2214 64.1762 77.4334 0.0000 0.0000 0.0000
# 4 0.0000 0.0000 0.0000 38.4412 0.0000 0.0000
# 5 0.0000 0.0000 0.0000 0.0000 24.6020 0.0000
# 6 0.0000 0.0000 0.0000 0.0000 0.0000 24.2594
#
#
#
# Elastic Compliance Matrix: (Units=1/GPa)
#
#
# Indices 1 2 3 4 5 6 
#
# 1 0.024847 -0.004676 -0.008068 0.000000 0.000000 0.000000
# 2 -0.004676 0.009552 -0.005669 0.000000 0.000000 0.000000
# 3 -0.008068 -0.005669 0.021491 0.000000 0.000000 0.000000
# 4 0.000000 0.000000 0.000000 0.026014 0.000000 0.000000
# 5 0.000000 0.000000 0.000000 0.000000 0.040647 0.000000
# 6 0.000000 0.000000 0.000000 0.000000 0.000000 0.041221
#
#
# Mechanical properties :
#
#
# Convention : Reuss Voigt Hill
#
# Bulk Modulus (GPa) = 52.45581 68.44942 60.45262
# Shear Modulus (GPa) = 24.15990 27.74087 25.95038
#
# Velocity S-wave (km/s) = 3.68847 3.95238 3.82270
# Velocity P-wave (km/s) = 6.90495 7.70540 7.31613
#
# Compressibility (1/GPa) = 0.01906366
#
# Stress axis : x y z
#
# Youngs Moduli (GPa) = 40.24622 104.68523 46.53046
#
# Poissons Ratio (x) = 0.48951 0.37542
# Poissons Ratio (y) = 0.18819 0.26379
# Poissons Ratio (z) = 0.32472 0.59349
#
# Static dielectric constant tensor:
#      x y z
#    x 2.976440 0.000000 0.000000 
#    y 0.000000 3.564330 0.000000 
#    z 0.000000 0.000000 3.357100 
# 
# 
# High freq. dielectric constant tensor:
#      x y z
#    x 1.652570 0.000000 0.000000 
#    y 0.000000 1.700300 0.000000 
#    z 0.000000 0.000000 1.688720 
# 
# From -- ./inp_files/12429.got.cif
#   From: 2010.03.12/outbox.cif.g09.slc.cpg/sg63_7_cif.got.tgz:12429.got - 2010.04.10 19:34:48.
