data_PCOD8257426
_publ_section_title
;
Structure prediction by ZEFSAII (Michael W. Deem and Ramdas Pophale) SiO2 
 PCOD8257426
Probable space group: C M C M
;
_chemical_formula_sum "Si O2"
_cell_formula_units_Z 80
_cell_length_a 12.408974
_cell_length_b 19.155349
_cell_length_c 19.157612
_cell_angle_alpha 90.000000
_cell_angle_beta 90.000000
_cell_angle_gamma 90.000000
_cell_volume 4553.730419
_symmetry_space_group_name_H-M "C M C M"
_symmetry_group_IT_number 63
_symmetry_cell_setting 'orthorhombic'
loop_
_space_group_symop_operation_xyz
x,y,z
-x,-y,1/2+z
x,-y,-z
-x,y,1/2-z
-x,-y,-z
x,y,1/2-z
-x,y,z
x,-y,1/2+z
1/2+x,1/2+y,z
1/2-x,1/2-y,1/2+z
1/2+x,1/2-y,-z
1/2-x,1/2+y,1/2-z
1/2-x,1/2-y,-z
1/2+x,1/2+y,1/2-z
1/2-x,1/2+y,z
1/2+x,1/2-y,1/2+z
loop_
_atom_site_type_symbol
_atom_site_label
_atom_site_fract_x
_atom_site_fract_y
_atom_site_fract_z
Si Si1 0.375434 0.676205 0.541323
Si Si2 0.875717 0.022702 0.576193
Si Si3 0.500000 0.995972 0.384872
Si Si4 0.710057 0.944203 0.669710
Si Si5 0.195533 0.678320 0.066403
Si Si6 0.000000 0.388407 0.496945
O O1 0.500000 0.686251 0.522161
O O2 0.358913 0.605619 0.585859
O O3 0.313255 0.671435 0.467569
O O4 0.330172 0.741230 0.586792
O O5 0.000000 0.000723 0.583546
O O6 0.831472 0.000000 0.500000
O O7 0.810956 0.982479 0.635185
O O8 0.500000 0.918331 0.418021
O O9 0.605405 0.006818 0.337647
O O10 0.500000 0.049533 0.448062
O O11 0.737004 0.931321 0.750000
O O12 0.688393 0.868672 0.635317
O O13 0.107528 0.656790 0.007988
#
# Coordination Sequence:
#
# PCOD8257426 Si02
#       6
#    16  16   8  16  16   8
#     4  10  19  33  55  83 110 137 180 234 280 320
#     4  10  20  36  58  82 111 144 186 236 276 322
#     4   9  19  30  52  78 108 146 179 227 277 330
#     4  11  22  36  54  80 116 151 187 225 281 346
#     4  10  19  32  53  82 110 140 182 231 280 327
#     4   9  16  30  52  80 105 134 183 233 273 319
#
# _framework density 17.568014999999999
#
# number of rings (size 3 to 8) (size 9 to 14) (size 15 to 20)
#    0.000    2.000    3.000    1.500    2.800    0.400 
#    0.000    1.000    0.000    1.200    0.000    0.000 
#    0.000    0.000    0.000    0.000    0.000    0.000 
#
# Total GULP energy -496020.374884 kJ/mol
# GULP energy per Si atom -12400.509372 kJ/mol
# Density = 1.752803 g / cm^3
# Si number density = 17.568015 Si / 1000 Ang^3
#
#
#
# Elastic Constant Matrix: (Units=GPa)
#
#
# Indices 1 2 3 4 5 6 
#
# 1 97.7284 34.5714 44.4793 0.0000 0.0000 0.0000
# 2 34.5714 103.0563 50.4521 0.0000 0.0000 0.0000
# 3 44.4793 50.4521 106.1263 0.0000 0.0000 0.0000
# 4 0.0000 0.0000 0.0000 18.2181 0.0000 0.0000
# 5 0.0000 0.0000 0.0000 0.0000 14.7214 0.0000
# 6 0.0000 0.0000 0.0000 0.0000 0.0000 26.0370
#
#
#
# Elastic Compliance Matrix: (Units=1/GPa)
#
#
# Indices 1 2 3 4 5 6 
#
# 1 0.013020 -0.002211 -0.004406 0.000000 0.000000 0.000000
# 2 -0.002211 0.013022 -0.005264 0.000000 0.000000 0.000000
# 3 -0.004406 -0.005264 0.013772 0.000000 0.000000 0.000000
# 4 0.000000 0.000000 0.000000 0.054890 0.000000 0.000000
# 5 0.000000 0.000000 0.000000 0.000000 0.067928 0.000000
# 6 0.000000 0.000000 0.000000 0.000000 0.000000 0.038407
#
#
# Mechanical properties :
#
#
# Convention : Reuss Voigt Hill
#
# Bulk Modulus (GPa) = 62.29607 62.87959 62.58783
# Shear Modulus (GPa) = 21.72486 23.62254 22.67370
#
# Velocity S-wave (km/s) = 3.52037 3.67090 3.59642
# Velocity P-wave (km/s) = 7.21532 7.33738 7.27661
#
# Compressibility (1/GPa) = 0.01605238
#
# Stress axis : x y z
#
# Youngs Moduli (GPa) = 76.80667 76.79227 72.61198
#
# Poissons Ratio (x) = 0.16977 0.31991
# Poissons Ratio (y) = 0.16980 0.38224
# Poissons Ratio (z) = 0.33840 0.40424
#
# Static dielectric constant tensor:
#      x y z
#    x 3.412250 0.000000 0.000000 
#    y 0.000000 3.548290 0.000000 
#    z 0.000000 0.000000 2.813470 
# 
# 
# High freq. dielectric constant tensor:
#      x y z
#    x 1.697110 0.000000 0.000000 
#    y 0.000000 1.689780 0.000000 
#    z 0.000000 0.000000 1.624750 
# 
# From -- ./inp_files/52482.got.cif
#   From: 2010.03.12/outbox.cif.g09.slc.cpg/sg63_27_cif.got.tgz:52482.got - 2010.04.10 19:34:48.
