data_PCOD8257016
_publ_section_title
;
Structure prediction by ZEFSAII (Michael W. Deem and Ramdas Pophale) SiO2 
 PCOD8257016
Probable space group: C M C M
;
_chemical_formula_sum "Si O2"
_cell_formula_units_Z 80
_cell_length_a 9.108840
_cell_length_b 25.309447
_cell_length_c 20.437906
_cell_angle_alpha 90.000000
_cell_angle_beta 90.000000
_cell_angle_gamma 90.000000
_cell_volume 4711.748784
_symmetry_space_group_name_H-M "C M C M"
_symmetry_group_IT_number 63
_symmetry_cell_setting 'orthorhombic'
loop_
_space_group_symop_operation_xyz
x,y,z
-x,-y,1/2+z
x,-y,-z
-x,y,1/2-z
-x,-y,-z
x,y,1/2-z
-x,y,z
x,-y,1/2+z
1/2+x,1/2+y,z
1/2-x,1/2-y,1/2+z
1/2+x,1/2-y,-z
1/2-x,1/2+y,1/2-z
1/2-x,1/2-y,-z
1/2+x,1/2+y,1/2-z
1/2-x,1/2+y,z
1/2+x,1/2-y,1/2+z
loop_
_atom_site_type_symbol
_atom_site_label
_atom_site_fract_x
_atom_site_fract_y
_atom_site_fract_z
Si Si1 0.668906 0.813395 0.440897
Si Si2 0.173790 0.460360 0.906157
Si Si3 0.830525 0.124590 0.173259
Si Si4 0.826900 0.428707 0.451477
Si Si5 0.168846 0.287362 0.908275
O O1 0.500000 0.804613 0.420819
O O2 0.726242 0.872429 0.422400
O O3 0.766312 0.771640 0.401299
O O4 0.689505 0.807673 0.518368
O O5 0.256876 0.430476 0.848291
O O6 0.215963 0.522860 0.903572
O O7 0.000000 0.451723 0.897726
O O8 0.233562 0.437701 0.975195
O O9 0.809070 0.130618 0.250000
O O10 0.754085 0.174282 0.139824
O O11 0.000000 0.123895 0.152835
O O12 0.000000 0.427057 0.459952
O O13 0.000000 0.286143 0.887171
#
# Coordination Sequence:
#
# PCOD8257016 Si02
#       5
#    16  16  16  16  16
#     4   9  16  29  49  74 104 131 154 195 250 297
#     4   9  16  30  51  74  98 127 165 201 238 289
#     4  11  23  36  49  68  99 135 168 206 248 289
#     4   8  14  27  50  76 102 128 155 196 245 292
#     4  10  19  31  49  73  98 129 167 203 243 292
#
# _framework density 16.978833999999999
#
# number of rings (size 3 to 8) (size 9 to 14) (size 15 to 20)
#    0.000    2.600    2.000    2.400    0.000    2.400 
#    0.000    3.000    0.000    1.200    0.000    2.800 
#    0.000    0.000    0.000    0.000    0.000    0.000 
#
# Total GULP energy -495838.425976 kJ/mol
# GULP energy per Si atom -12395.960649 kJ/mol
# Density = 1.694019 g / cm^3
# Si number density = 16.978834 Si / 1000 Ang^3
#
#
#
# Elastic Constant Matrix: (Units=GPa)
#
#
# Indices 1 2 3 4 5 6 
#
# 1 92.1130 64.9958 42.2070 0.0000 0.0000 0.0000
# 2 64.9958 173.5976 42.0521 0.0000 0.0000 0.0000
# 3 42.2070 42.0521 45.6643 0.0000 0.0000 0.0000
# 4 0.0000 0.0000 0.0000 19.3911 0.0000 0.0000
# 5 0.0000 0.0000 0.0000 0.0000 21.9454 0.0000
# 6 0.0000 0.0000 0.0000 0.0000 0.0000 27.7522
#
#
#
# Elastic Compliance Matrix: (Units=1/GPa)
#
#
# Indices 1 2 3 4 5 6 
#
# 1 0.020816 -0.004032 -0.015526 0.000000 0.000000 0.000000
# 2 -0.004032 0.008196 -0.003820 0.000000 0.000000 0.000000
# 3 -0.015526 -0.003820 0.039768 0.000000 0.000000 0.000000
# 4 0.000000 0.000000 0.000000 0.051570 0.000000 0.000000
# 5 0.000000 0.000000 0.000000 0.000000 0.045568 0.000000
# 6 0.000000 0.000000 0.000000 0.000000 0.000000 0.036033
#
#
# Mechanical properties :
#
#
# Convention : Reuss Voigt Hill
#
# Bulk Modulus (GPa) = 45.41071 67.76498 56.58784
# Shear Modulus (GPa) = 19.52753 24.62574 22.07663
#
# Velocity S-wave (km/s) = 3.39501 3.81252 3.60980
# Velocity P-wave (km/s) = 6.49397 7.70574 7.12566
#
# Compressibility (1/GPa) = 0.02202124
#
# Stress axis : x y z
#
# Youngs Moduli (GPa) = 48.04012 122.01647 25.14597
#
# Poissons Ratio (x) = 0.49203 0.39043
# Poissons Ratio (y) = 0.19372 0.09606
# Poissons Ratio (z) = 0.74589 0.46612
#
# Static dielectric constant tensor:
#      x y z
#    x 3.080230 0.000000 0.000000 
#    y 0.000000 3.757180 0.000000 
#    z 0.000000 0.000000 2.776770 
# 
# 
# High freq. dielectric constant tensor:
#      x y z
#    x 1.640610 0.000000 0.000000 
#    y 0.000000 1.675940 0.000000 
#    z 0.000000 0.000000 1.606600 
# 
# From -- ./inp_files/40523.got.cif
#   From: 2010.03.12/outbox.cif.g09.slc.cpg/sg63_21_cif.got.tgz:40523.got - 2010.04.10 19:34:48.
