data_PCOD8257364
_publ_section_title
;
Structure prediction by ZEFSAII (Michael W. Deem and Ramdas Pophale) SiO2 
 PCOD8257364
Probable space group: C M C M
;
_chemical_formula_sum "Si O2"
_cell_formula_units_Z 96
_cell_length_a 30.398329
_cell_length_b 19.524776
_cell_length_c 8.747322
_cell_angle_alpha 90.000000
_cell_angle_beta 90.000000
_cell_angle_gamma 90.000000
_cell_volume 5191.715491
_symmetry_space_group_name_H-M "C M C M"
_symmetry_group_IT_number 63
_symmetry_cell_setting 'orthorhombic'
loop_
_space_group_symop_operation_xyz
x,y,z
-x,-y,1/2+z
x,-y,-z
-x,y,1/2-z
-x,-y,-z
x,y,1/2-z
-x,y,z
x,-y,1/2+z
1/2+x,1/2+y,z
1/2-x,1/2-y,1/2+z
1/2+x,1/2-y,-z
1/2-x,1/2+y,1/2-z
1/2-x,1/2-y,-z
1/2+x,1/2+y,1/2-z
1/2-x,1/2+y,z
1/2+x,1/2-y,1/2+z
loop_
_atom_site_type_symbol
_atom_site_label
_atom_site_fract_x
_atom_site_fract_y
_atom_site_fract_z
Si Si1 0.451184 0.293964 0.571421
Si Si2 0.235955 0.071722 0.431787
Si Si3 0.552386 0.567544 0.579338
Si Si4 0.330675 0.931588 0.072095
Si Si5 0.368137 0.211826 0.926086
Si Si6 0.209654 0.208488 0.930009
O O1 0.454795 0.305888 0.750000
O O2 0.500000 0.276995 0.504658
O O3 0.431279 0.363897 0.503436
O O4 0.418093 0.232263 0.531035
O O5 0.233366 0.069919 0.250000
O O6 0.285774 0.085568 0.484553
O O7 0.206176 0.133130 0.496215
O O8 0.218429 0.000000 0.500000
O O9 0.572376 0.500000 0.500000
O O10 0.570841 0.569191 0.750000
O O11 0.500000 0.564485 0.574569
O O12 0.319821 0.943502 0.250000
O O13 0.364458 0.869476 0.046976
O O14 0.352247 0.000000 0.000000
O O15 0.357058 0.230298 0.750000
O O16 0.335349 0.252277 0.035726
O O17 0.217014 0.202050 0.750000
O O18 0.250000 0.250000 0.000000
#
# Coordination Sequence:
#
# PCOD8257364 Si02
#       6
#    16  16  16  16  16  16
#     4   9  18  34  55  78 105 139 180 226 274 322
#     4  11  21  35  55  79 110 147 184 223 267 320
#     4   9  16  27  46  72 100 131 169 214 262 313
#     4  10  19  32  52  77 107 139 179 224 267 318
#     4  10  21  36  55  80 109 142 181 225 272 325
#     4  12  23  36  55  80 110 144 180 221 269 323
#
# _framework density 18.490998000000001
#
# number of rings (size 3 to 8) (size 9 to 14) (size 15 to 20)
#    0.000    1.833    1.667    5.000    0.000    3.333 
#    0.000    0.833    0.000    4.500    0.000    0.000 
#    0.000    0.000    0.000    0.000    0.000    0.667 
#
# Total GULP energy -595225.630560 kJ/mol
# GULP energy per Si atom -12400.533970 kJ/mol
# Density = 1.844891 g / cm^3
# Si number density = 18.490998 Si / 1000 Ang^3
#
#
#
# Elastic Constant Matrix: (Units=GPa)
#
#
# Indices 1 2 3 4 5 6 
#
# 1 64.6529 51.1079 35.1820 0.0000 0.0000 0.0000
# 2 51.1079 147.9855 56.1148 0.0000 0.0000 0.0000
# 3 35.1820 56.1148 119.0130 0.0000 0.0000 0.0000
# 4 0.0000 0.0000 0.0000 32.9796 0.0000 0.0000
# 5 0.0000 0.0000 0.0000 0.0000 17.2694 0.0000
# 6 0.0000 0.0000 0.0000 0.0000 0.0000 27.9760
#
#
#
# Elastic Compliance Matrix: (Units=1/GPa)
#
#
# Indices 1 2 3 4 5 6 
#
# 1 0.022499 -0.006391 -0.003638 0.000000 0.000000 0.000000
# 2 -0.006391 0.010044 -0.002847 0.000000 0.000000 0.000000
# 3 -0.003638 -0.002847 0.010820 0.000000 0.000000 0.000000
# 4 0.000000 0.000000 0.000000 0.030322 0.000000 0.000000
# 5 0.000000 0.000000 0.000000 0.000000 0.057906 0.000000
# 6 0.000000 0.000000 0.000000 0.000000 0.000000 0.035745
#
#
# Mechanical properties :
#
#
# Convention : Reuss Voigt Hill
#
# Bulk Modulus (GPa) = 56.77759 68.49565 62.63662
# Shear Modulus (GPa) = 25.13124 28.26144 26.69634
#
# Velocity S-wave (km/s) = 3.69061 3.91370 3.80379
# Velocity P-wave (km/s) = 6.99521 7.58590 7.29653
#
# Compressibility (1/GPa) = 0.01761258
#
# Stress axis : x y z
#
# Youngs Moduli (GPa) = 44.44736 99.56334 92.42194
#
# Poissons Ratio (x) = 0.63628 0.33620
# Poissons Ratio (y) = 0.28405 0.26308
# Poissons Ratio (z) = 0.16169 0.28341
#
# Static dielectric constant tensor:
#      x y z
#    x 3.189510 0.000000 0.000000 
#    y 0.000000 3.725790 0.000000 
#    z 0.000000 0.000000 3.511510 
# 
# 
# High freq. dielectric constant tensor:
#      x y z
#    x 1.675040 0.000000 0.000000 
#    y 0.000000 1.727100 0.000000 
#    z 0.000000 0.000000 1.727820 
# 
# From -- ./inp_files/12381.got.cif
#   From: 2010.03.12/outbox.cif.g09.slc.cpg/sg63_7_cif.got.tgz:12381.got - 2010.04.10 19:34:48.
