data_PCOD8257559
_publ_section_title
;
Structure prediction by ZEFSAII (Michael W. Deem and Ramdas Pophale) SiO2 
 PCOD8257559
Probable space group: C M C M
;
_chemical_formula_sum "Si O2"
_cell_formula_units_Z 96
_cell_length_a 9.020907
_cell_length_b 20.590624
_cell_length_c 28.541813
_cell_angle_alpha 90.000000
_cell_angle_beta 90.000000
_cell_angle_gamma 90.000000
_cell_volume 5301.530571
_symmetry_space_group_name_H-M "C M C M"
_symmetry_group_IT_number 63
_symmetry_cell_setting 'orthorhombic'
loop_
_space_group_symop_operation_xyz
x,y,z
-x,-y,1/2+z
x,-y,-z
-x,y,1/2-z
-x,-y,-z
x,y,1/2-z
-x,y,z
x,-y,1/2+z
1/2+x,1/2+y,z
1/2-x,1/2-y,1/2+z
1/2+x,1/2-y,-z
1/2-x,1/2+y,1/2-z
1/2-x,1/2-y,-z
1/2+x,1/2+y,1/2-z
1/2-x,1/2+y,z
1/2+x,1/2-y,1/2+z
loop_
_atom_site_type_symbol
_atom_site_label
_atom_site_fract_x
_atom_site_fract_y
_atom_site_fract_z
Si Si1 0.324418 0.617810 0.553681
Si Si2 0.323555 0.200860 0.301168
Si Si3 0.170902 0.500571 0.896209
Si Si4 0.175629 0.555051 0.301144
Si Si5 0.323739 0.252528 0.397496
Si Si6 0.329267 0.128611 0.044531
O O1 0.500000 0.618619 0.552577
O O2 0.272030 0.553785 0.579869
O O3 0.261219 0.680772 0.581022
O O4 0.267137 0.617207 0.501144
O O5 0.272500 0.228353 0.250000
O O6 0.500000 0.198779 0.303192
O O7 0.260878 0.127825 0.307427
O O8 0.262711 0.244769 0.344086
O O9 0.230378 0.491928 0.842812
O O10 0.191075 0.432126 0.921565
O O11 0.000000 0.523191 0.898186
O O12 0.224133 0.527272 0.250000
O O13 0.000000 0.559811 0.304727
O O14 0.500000 0.252573 0.396899
O O15 0.268632 0.192495 0.429165
O O16 0.500000 0.136901 0.029576
#
# Coordination Sequence:
#
# PCOD8257559 Si02
#       6
#    16  16  16  16  16  16
#     4  11  23  34  46  69 105 138 162 196 244 296
#     4   8  12  22  45  74  97 117 151 202 248 281
#     4  10  19  33  53  75  98 126 162 204 245 285
#     4   8  13  24  47  77  99 116 151 204 249 280
#     4   9  17  31  48  70  99 128 159 199 245 290
#     4  10  19  34  55  73  91 124 171 212 242 277
#
# _framework density 18.107977999999999
#
# number of rings (size 3 to 8) (size 9 to 14) (size 15 to 20)
#    0.000    2.667    1.667    2.500    0.000    2.667 
#    0.000    1.667    0.000    1.500    0.000    0.000 
#    0.000    3.333    0.000    0.000    0.000    0.000 
#
# Total GULP energy -594914.460568 kJ/mol
# GULP energy per Si atom -12394.051262 kJ/mol
# Density = 1.806676 g / cm^3
# Si number density = 18.107978 Si / 1000 Ang^3
#
#
#
# Elastic Constant Matrix: (Units=GPa)
#
#
# Indices 1 2 3 4 5 6 
#
# 1 31.8064 22.2473 28.8818 0.0000 0.0000 0.0000
# 2 22.2473 55.5976 18.9587 0.0000 0.0000 0.0000
# 3 28.8818 18.9587 135.8205 0.0000 0.0000 0.0000
# 4 0.0000 0.0000 0.0000 -41.6721 0.0000 0.0000
# 5 0.0000 0.0000 0.0000 0.0000 -1.2086 0.0000
# 6 0.0000 0.0000 0.0000 0.0000 0.0000 13.2099
#
#
#
# Elastic Compliance Matrix: (Units=1/GPa)
#
#
# Indices 1 2 3 4 5 6 
#
# 1 0.051551 -0.017734 -0.008487 0.000000 0.000000 0.000000
# 2 -0.017734 0.024986 0.000283 0.000000 0.000000 0.000000
# 3 -0.008487 0.000283 0.009128 0.000000 0.000000 0.000000
# 4 0.000000 0.000000 0.000000 -0.023997 0.000000 0.000000
# 5 0.000000 0.000000 0.000000 0.000000 -0.827420 0.000000
# 6 0.000000 0.000000 0.000000 0.000000 0.000000 0.075701
#
#
# Mechanical properties :
#
#
# Convention : Reuss Voigt Hill
#
# Bulk Modulus (GPa) = 29.59462 40.37778 34.98620
# Shear Modulus (GPa) = -7.97558 4.27496 -1.85031
#
# Velocity S-wave (km/s) = -2.10096 1.53816 -1.01195
# Velocity P-wave (km/s) = 3.23937 5.04988 4.24234
#
# Compressibility (1/GPa) = 0.03378993
#
# Stress axis : x y z
#
# Youngs Moduli (GPa) = 19.39831 40.02237 109.55578
#
# Poissons Ratio (x) = 0.70976 0.92977
# Poissons Ratio (y) = 0.34401 -0.03105
# Poissons Ratio (z) = 0.16463 -0.01134
#
# Static dielectric constant tensor:
#      x y z
#    x 2.829410 0.000000 0.000000 
#    y 0.000000 3.372160 0.000000 
#    z 0.000000 0.000000 3.851470 
# 
# 
# High freq. dielectric constant tensor:
#      x y z
#    x 1.644820 0.000000 0.000000 
#    y 0.000000 1.688780 0.000000 
#    z 0.000000 0.000000 1.725940 
# 
# From -- ./inp_files/68558.got.cif
#   From: 2010.03.12/outbox.cif.g09.slc.cpg/sg63_35_cif.got.tgz:68558.got - 2010.04.10 19:34:48.
