data_PCOD8257462
_publ_section_title
;
Structure prediction by ZEFSAII (Michael W. Deem and Ramdas Pophale) SiO2 
 PCOD8257462
Probable space group: C M C M
;
_chemical_formula_sum "Si O2"
_cell_formula_units_Z 88
_cell_length_a 13.094232
_cell_length_b 20.544489
_cell_length_c 18.293243
_cell_angle_alpha 90.000000
_cell_angle_beta 90.000000
_cell_angle_gamma 90.000000
_cell_volume 4921.144057
_symmetry_space_group_name_H-M "C M C M"
_symmetry_group_IT_number 63
_symmetry_cell_setting 'orthorhombic'
loop_
_space_group_symop_operation_xyz
x,y,z
-x,-y,1/2+z
x,-y,-z
-x,y,1/2-z
-x,-y,-z
x,y,1/2-z
-x,y,z
x,-y,1/2+z
1/2+x,1/2+y,z
1/2-x,1/2-y,1/2+z
1/2+x,1/2-y,-z
1/2-x,1/2+y,1/2-z
1/2-x,1/2-y,-z
1/2+x,1/2+y,1/2-z
1/2-x,1/2+y,z
1/2+x,1/2-y,1/2+z
loop_
_atom_site_type_symbol
_atom_site_label
_atom_site_fract_x
_atom_site_fract_y
_atom_site_fract_z
Si Si1 0.802356 0.009822 0.750000
Si Si2 0.618069 0.138026 0.094200
Si Si3 0.794151 0.099280 0.505886
Si Si4 0.114936 0.008257 0.099266
Si Si5 0.117058 0.575492 0.250000
Si Si6 0.618792 0.349331 0.250000
Si Si7 0.618391 0.288122 0.403573
O O1 0.810281 0.087392 0.750000
O O2 0.860387 0.977290 0.682500
O O3 0.683497 0.990226 0.750000
O O4 0.500000 0.125224 0.075705
O O5 0.642674 0.117121 0.177431
O O6 0.647730 0.213370 0.086459
O O7 0.683395 0.099073 0.033431
O O8 0.875593 0.076041 0.444617
O O9 0.818509 0.170263 0.537479
O O10 0.803113 0.045595 0.570546
O O11 0.000000 0.980600 0.090717
O O12 0.000000 0.553140 0.250000
O O13 0.500000 0.370660 0.250000
O O14 0.646506 0.307429 0.320882
O O15 0.500000 0.300934 0.418557
#
# Coordination Sequence:
#
# PCOD8257462 Si02
#       7
#     8  16  16  16   8   8  16
#     4  12  20  36  58  81 106 139 185 222 267 319
#     4  10  21  37  56  77 106 146 187 227 263 315
#     4  11  20  34  52  82 113 141 175 216 281 327
#     4  11  22  35  55  81 114 144 173 224 279 330
#     4  10  21  40  57  77 105 141 188 228 264 310
#     4  10  19  32  55  84 109 138 181 226 269 321
#     4  10  19  33  55  81 110 143 181 223 270 319
#
# _framework density 17.882021000000002
#
# number of rings (size 3 to 8) (size 9 to 14) (size 15 to 20)
#    0.000    1.455    3.636    4.091    0.000    2.182 
#    0.000    2.727    0.000    0.000    0.000    0.000 
#    0.000    0.000    0.000    0.000    0.000    0.000 
#
# Total GULP energy -545479.942844 kJ/mol
# GULP energy per Si atom -12397.271428 kJ/mol
# Density = 1.784132 g / cm^3
# Si number density = 17.882021 Si / 1000 Ang^3
#
#
#
# Elastic Constant Matrix: (Units=GPa)
#
#
# Indices 1 2 3 4 5 6 
#
# 1 97.5744 50.6936 55.2235 0.0000 0.0000 0.0000
# 2 50.6936 78.3336 36.0416 0.0000 0.0000 0.0000
# 3 55.2235 36.0416 128.0347 0.0000 0.0000 0.0000
# 4 0.0000 0.0000 0.0000 28.3516 0.0000 0.0000
# 5 0.0000 0.0000 0.0000 0.0000 29.6623 0.0000
# 6 0.0000 0.0000 0.0000 0.0000 0.0000 29.5003
#
#
#
# Elastic Compliance Matrix: (Units=1/GPa)
#
#
# Indices 1 2 3 4 5 6 
#
# 1 0.017973 -0.009265 -0.005144 0.000000 0.000000 0.000000
# 2 -0.009265 0.019441 -0.001477 0.000000 0.000000 0.000000
# 3 -0.005144 -0.001477 0.010445 0.000000 0.000000 0.000000
# 4 0.000000 0.000000 0.000000 0.035271 0.000000 0.000000
# 5 0.000000 0.000000 0.000000 0.000000 0.033713 0.000000
# 6 0.000000 0.000000 0.000000 0.000000 0.000000 0.033898
#
#
# Mechanical properties :
#
#
# Convention : Reuss Voigt Hill
#
# Bulk Modulus (GPa) = 62.15731 65.31779 63.73755
# Shear Modulus (GPa) = 26.61346 28.30176 27.45761
#
# Velocity S-wave (km/s) = 3.86201 3.98262 3.92278
# Velocity P-wave (km/s) = 7.39743 7.59966 7.49922
#
# Compressibility (1/GPa) = 0.01608821
#
# Stress axis : x y z
#
# Youngs Moduli (GPa) = 55.63796 51.43799 95.74098
#
# Poissons Ratio (x) = 0.47655 0.49251
# Poissons Ratio (y) = 0.51546 0.14137
# Poissons Ratio (z) = 0.28621 0.07595
#
# Static dielectric constant tensor:
#      x y z
#    x 3.194160 0.000000 0.000000 
#    y 0.000000 3.213570 0.000000 
#    z 0.000000 0.000000 3.552290 
# 
# 
# High freq. dielectric constant tensor:
#      x y z
#    x 1.671510 0.000000 0.000000 
#    y 0.000000 1.683820 0.000000 
#    z 0.000000 0.000000 1.709250 
# 
# From -- ./inp_files/42300.got.cif
#   From: 2010.03.12/outbox.cif.g09.slc.cpg/sg63_22_cif.got.tgz:42300.got - 2010.04.10 19:34:48.
