data_PCOD8257270
_publ_section_title
;
Structure prediction by ZEFSAII (Michael W. Deem and Ramdas Pophale) SiO2 
 PCOD8257270
Probable space group: C M C M
;
_chemical_formula_sum "Si O2"
_cell_formula_units_Z 112
_cell_length_a 19.036187
_cell_length_b 19.637628
_cell_length_c 17.428904
_cell_angle_alpha 90.000000
_cell_angle_beta 90.000000
_cell_angle_gamma 90.000000
_cell_volume 6515.369778
_symmetry_space_group_name_H-M "C M C M"
_symmetry_group_IT_number 63
_symmetry_cell_setting 'orthorhombic'
loop_
_space_group_symop_operation_xyz
x,y,z
-x,-y,1/2+z
x,-y,-z
-x,y,1/2-z
-x,-y,-z
x,y,1/2-z
-x,y,z
x,-y,1/2+z
1/2+x,1/2+y,z
1/2-x,1/2-y,1/2+z
1/2+x,1/2-y,-z
1/2-x,1/2+y,1/2-z
1/2-x,1/2-y,-z
1/2+x,1/2+y,1/2-z
1/2-x,1/2+y,z
1/2+x,1/2-y,1/2+z
loop_
_atom_site_type_symbol
_atom_site_label
_atom_site_fract_x
_atom_site_fract_y
_atom_site_fract_z
Si Si1 0.859323 0.653335 0.165819
Si Si2 0.078601 0.666849 0.492828
Si Si3 0.667946 0.430439 0.537021
Si Si4 0.710602 0.107444 0.574676
Si Si5 0.741093 0.026343 0.164545
Si Si6 0.189160 0.800028 0.161753
Si Si7 0.580782 0.320458 0.033710
O O1 0.896206 0.660918 0.250000
O O2 0.815641 0.585113 0.164569
O O3 0.807656 0.718220 0.153026
O O4 0.916207 0.650373 0.098109
O O5 0.133024 0.624952 0.544438
O O6 0.092771 0.746917 0.504376
O O7 0.000000 0.647073 0.519394
O O8 0.640090 0.500000 0.500000
O O9 0.739304 0.402528 0.498231
O O10 0.687375 0.446727 0.624979
O O11 0.606788 0.374712 0.529724
O O12 0.738840 0.168599 0.628341
O O13 0.706663 0.037559 0.621465
O O14 0.761909 0.003943 0.250000
O O15 0.179567 0.822557 0.250000
O O16 0.123723 0.829876 0.112979
O O17 0.500000 0.333402 0.053993
#
# Coordination Sequence:
#
# PCOD8257270 Si02
#       7
#    16  16  16  16  16  16  16
#     4   9  18  31  49  74 101 129 168 213 259 306
#     4  10  20  33  51  73 102 141 175 212 258 302
#     4   9  18  31  52  76 101 134 167 210 260 306
#     4  10  19  32  51  73 102 130 174 218 251 305
#     4  10  19  32  51  74  99 128 165 218 267 302
#     4   9  18  31  51  76 100 135 173 211 258 299
#     4   9  19  32  50  78 108 137 170 209 255 309
#
# _framework density 17.190121999999999
#
# number of rings (size 3 to 8) (size 9 to 14) (size 15 to 20)
#    0.000    2.571    1.429    0.429    2.000    2.571 
#    0.000    4.286    0.000    3.000    0.000    4.000 
#    0.000    0.000    0.000    0.000    0.000    0.000 
#
# Total GULP energy -694226.342918 kJ/mol
# GULP energy per Si atom -12396.898981 kJ/mol
# Density = 1.715100 g / cm^3
# Si number density = 17.190122 Si / 1000 Ang^3
#
#
#
# Elastic Constant Matrix: (Units=GPa)
#
#
# Indices 1 2 3 4 5 6 
#
# 1 87.4525 45.2541 49.6664 0.0000 0.0000 0.0000
# 2 45.2541 87.2519 45.9990 0.0000 0.0000 0.0000
# 3 49.6664 45.9990 104.9925 0.0000 0.0000 0.0000
# 4 0.0000 0.0000 0.0000 21.6397 0.0000 0.0000
# 5 0.0000 0.0000 0.0000 0.0000 18.3409 0.0000
# 6 0.0000 0.0000 0.0000 0.0000 0.0000 22.6757
#
#
#
# Elastic Compliance Matrix: (Units=1/GPa)
#
#
# Indices 1 2 3 4 5 6 
#
# 1 0.017943 -0.006283 -0.005735 0.000000 0.000000 0.000000
# 2 -0.006283 0.017103 -0.004521 0.000000 0.000000 0.000000
# 3 -0.005735 -0.004521 0.014218 0.000000 0.000000 0.000000
# 4 0.000000 0.000000 0.000000 0.046211 0.000000 0.000000
# 5 0.000000 0.000000 0.000000 0.000000 0.054523 0.000000
# 6 0.000000 0.000000 0.000000 0.000000 0.000000 0.044100
#
#
# Mechanical properties :
#
#
# Convention : Reuss Voigt Hill
#
# Bulk Modulus (GPa) = 61.78105 62.39287 62.08696
# Shear Modulus (GPa) = 21.49861 21.78309 21.64085
#
# Velocity S-wave (km/s) = 3.54027 3.56362 3.55196
# Velocity P-wave (km/s) = 7.26149 7.30117 7.28136
#
# Compressibility (1/GPa) = 0.01618619
#
# Stress axis : x y z
#
# Youngs Moduli (GPa) = 55.73149 58.46851 70.33131
#
# Poissons Ratio (x) = 0.36734 0.40338
# Poissons Ratio (y) = 0.35015 0.31798
# Poissons Ratio (z) = 0.31964 0.26435
#
# Static dielectric constant tensor:
#      x y z
#    x 2.916200 0.000000 0.000000 
#    y 0.000000 3.335850 0.000000 
#    z 0.000000 0.000000 3.404090 
# 
# 
# High freq. dielectric constant tensor:
#      x y z
#    x 1.630170 0.000000 0.000000 
#    y 0.000000 1.676650 0.000000 
#    z 0.000000 0.000000 1.659410 
# 
# From -- ./inp_files/46082.got.cif
#   From: 2010.03.12/outbox.cif.g09.slc.cpg/sg63_24_cif.got.tgz:46082.got - 2010.04.10 19:34:48.
