data_PCOD8257986
_publ_section_title
;
Structure prediction by ZEFSAII (Michael W. Deem and Ramdas Pophale) SiO2 
 PCOD8257986
Probable space group: C M C M
;
_chemical_formula_sum "Si O2"
_cell_formula_units_Z 120
_cell_length_a 20.760876
_cell_length_b 21.105547
_cell_length_c 12.485580
_cell_angle_alpha 90.000000
_cell_angle_beta 90.000000
_cell_angle_gamma 90.000000
_cell_volume 5470.802146
_symmetry_space_group_name_H-M "C M C M"
_symmetry_group_IT_number 63
_symmetry_cell_setting 'orthorhombic'
loop_
_space_group_symop_operation_xyz
x,y,z
-x,-y,1/2+z
x,-y,-z
-x,y,1/2-z
-x,-y,-z
x,y,1/2-z
-x,y,z
x,-y,1/2+z
1/2+x,1/2+y,z
1/2-x,1/2-y,1/2+z
1/2+x,1/2-y,-z
1/2-x,1/2+y,1/2-z
1/2-x,1/2-y,-z
1/2+x,1/2+y,1/2-z
1/2-x,1/2+y,z
1/2+x,1/2-y,1/2+z
loop_
_atom_site_type_symbol
_atom_site_label
_atom_site_fract_x
_atom_site_fract_y
_atom_site_fract_z
Si Si1 0.070925 0.623479 0.941791
Si Si2 0.070679 0.836076 0.376339
Si Si3 0.747688 0.465743 0.876302
Si Si4 0.113254 0.696077 0.125248
Si Si5 0.133982 0.500000 0.000000
Si Si6 0.242188 0.172598 0.122350
Si Si7 0.692970 0.803423 0.127196
Si Si8 0.198693 0.899652 0.378927
O O1 0.121334 0.668514 0.880519
O O2 0.000000 0.631004 0.890036
O O3 0.068569 0.644868 0.066163
O O4 0.090529 0.550053 0.935843
O O5 0.067447 0.842366 0.250000
O O6 0.087774 0.764694 0.407222
O O7 0.126857 0.882274 0.419512
O O8 0.000000 0.853971 0.424942
O O9 0.743109 0.471422 0.750000
O O10 0.822366 0.464341 0.911351
O O11 0.716130 0.397968 0.914476
O O12 0.715694 0.530213 0.925662
O O13 0.109666 0.682525 0.250000
O O14 0.185767 0.688422 0.076675
O O15 0.250008 0.169124 0.250000
O O16 0.195498 0.230083 0.086103
O O17 0.713664 0.801773 0.250000
O O18 0.749024 0.848263 0.073604
O O19 0.202324 0.899804 0.250000
#
# Coordination Sequence:
#
# PCOD8257986 Si02
#       8
#    16  16  16  16   8  16  16  16
#     4  12  26  39  54  80 115 154 195 236 283 338
#     4   9  16  28  50  81 113 140 169 215 279 344
#     4  10  20  36  57  82 113 146 187 237 286 337
#     4  10  19  35  57  80 110 144 181 228 288 344
#     4  12  23  38  56  80 109 152 194 238 287 338
#     4   9  17  33  59  85 109 140 184 240 289 333
#     4  10  20  38  61  83 109 145 194 242 281 328
#     4   9  16  30  54  80 109 142 177 225 279 333
#
# _framework density 21.934626999999999
#
# number of rings (size 3 to 8) (size 9 to 14) (size 15 to 20)
#    0.000    2.000    4.000    0.600    0.000    1.600 
#    2.400    0.000    0.000    3.200    0.000    4.200 
#    0.000    0.000    0.000    0.000    0.000    0.000 
#
# Total GULP energy -743805.359093 kJ/mol
# GULP energy per Si atom -12396.755985 kJ/mol
# Density = 2.188470 g / cm^3
# Si number density = 21.934627 Si / 1000 Ang^3
#
#
#
# Elastic Constant Matrix: (Units=GPa)
#
#
# Indices 1 2 3 4 5 6 
#
# 1 156.6145 80.5609 11.4934 0.0000 0.0000 0.0000
# 2 80.5609 187.9884 36.8247 0.0000 0.0000 0.0000
# 3 11.4934 36.8247 21.9929 0.0000 0.0000 0.0000
# 4 0.0000 0.0000 0.0000 33.4620 0.0000 0.0000
# 5 0.0000 0.0000 0.0000 0.0000 19.7149 0.0000
# 6 0.0000 0.0000 0.0000 0.0000 0.0000 29.2013
#
#
#
# Elastic Compliance Matrix: (Units=1/GPa)
#
#
# Indices 1 2 3 4 5 6 
#
# 1 0.008275 -0.004016 0.002401 0.000000 0.000000 0.000000
# 2 -0.004016 0.009865 -0.014419 0.000000 0.000000 0.000000
# 3 0.002401 -0.014419 0.068358 0.000000 0.000000 0.000000
# 4 0.000000 0.000000 0.000000 0.029885 0.000000 0.000000
# 5 0.000000 0.000000 0.000000 0.000000 0.050723 0.000000
# 6 0.000000 0.000000 0.000000 0.000000 0.000000 0.034245
#
#
# Mechanical properties :
#
#
# Convention : Reuss Voigt Hill
#
# Bulk Modulus (GPa) = 18.37282 69.37264 43.87273
# Shear Modulus (GPa) = 19.87564 32.32344 26.09954
#
# Velocity S-wave (km/s) = 3.01347 3.84295 3.45320
# Velocity P-wave (km/s) = 4.52795 7.16845 5.99537
#
# Compressibility (1/GPa) = 0.05442821
#
# Stress axis : x y z
#
# Youngs Moduli (GPa) = 120.84687 101.36581 14.62879
#
# Poissons Ratio (x) = 0.40713 -0.03512
# Poissons Ratio (y) = 0.48537 0.21094
# Poissons Ratio (z) = -0.29011 1.46163
#
# Static dielectric constant tensor:
#      x y z
#    x 3.914560 0.000000 0.000000 
#    y 0.000000 4.324580 0.000000 
#    z 0.000000 0.000000 4.085720 
# 
# 
# High freq. dielectric constant tensor:
#      x y z
#    x 1.827900 0.000000 0.000000 
#    y 0.000000 1.875300 0.000000 
#    z 0.000000 0.000000 1.882080 
# 
# From -- ./inp_files/35868.got.cif
#   From: 2010.03.12/outbox.cif.g09.slc.cpg/sg63_18_cif.got.tgz:35868.got - 2010.04.10 19:34:48.
