data_PCOD8257983
_publ_section_title
;
Structure prediction by ZEFSAII (Michael W. Deem and Ramdas Pophale) SiO2 
 PCOD8257983
Probable space group: C M C M
;
_chemical_formula_sum "Si O2"
_cell_formula_units_Z 56
_cell_length_a 22.280896
_cell_length_b 8.312904
_cell_length_c 14.469529
_cell_angle_alpha 90.000000
_cell_angle_beta 90.000000
_cell_angle_gamma 90.000000
_cell_volume 2680.030961
_symmetry_space_group_name_H-M "C M C M"
_symmetry_group_IT_number 63
_symmetry_cell_setting 'orthorhombic'
loop_
_space_group_symop_operation_xyz
x,y,z
-x,-y,1/2+z
x,-y,-z
-x,y,1/2-z
-x,-y,-z
x,y,1/2-z
-x,y,z
x,-y,1/2+z
1/2+x,1/2+y,z
1/2-x,1/2-y,1/2+z
1/2+x,1/2-y,-z
1/2-x,1/2+y,1/2-z
1/2-x,1/2-y,-z
1/2+x,1/2+y,1/2-z
1/2-x,1/2+y,z
1/2+x,1/2-y,1/2+z
loop_
_atom_site_type_symbol
_atom_site_label
_atom_site_fract_x
_atom_site_fract_y
_atom_site_fract_z
Si Si1 0.431933 0.642437 0.562847
Si Si2 0.892782 0.989203 0.250000
Si Si3 0.718123 0.732591 0.750000
Si Si4 0.856614 0.347071 0.250000
Si Si5 0.342888 0.922551 0.592460
O O1 0.404544 0.500000 0.500000
O O2 0.500000 0.683008 0.533343
O O3 0.430698 0.577614 0.665963
O O4 0.392889 0.802524 0.552874
O O5 0.892272 0.181421 0.250000
O O6 0.824546 0.923708 0.250000
O O7 0.785236 0.673457 0.750000
O O8 0.706653 0.834064 0.843947
O O9 0.875011 0.444288 0.342479
O O10 0.312650 0.000000 0.500000
#
# Coordination Sequence:
#
# PCOD8257983 Si02
#       5
#    16   8   8   8  16
#     4  10  21  38  58  80 110 147 184 225 277 333
#     4  10  19  35  57  79 110 149 186 224 273 334
#     4   9  21  38  56  81 115 149 182 225 275 329
#     4  11  21  37  57  82 115 146 183 231 274 317
#     4  10  21  37  58  85 112 142 185 232 274 321
#
# _framework density 20.895281000000001
#
# number of rings (size 3 to 8) (size 9 to 14) (size 15 to 20)
#    0.000    2.000    0.000    4.714    0.000    1.714 
#    0.000   10.000    0.000    0.000    0.000    0.000 
#    0.000    0.000    0.000    0.000    0.000    0.000 
#
# Total GULP energy -347184.181171 kJ/mol
# GULP energy per Si atom -12399.435042 kJ/mol
# Density = 2.084772 g / cm^3
# Si number density = 20.895281 Si / 1000 Ang^3
#
#
#
# Elastic Constant Matrix: (Units=GPa)
#
#
# Indices 1 2 3 4 5 6 
#
# 1 67.8991 24.3001 8.5017 0.0000 0.0000 0.0000
# 2 24.3001 121.1112 41.2885 0.0000 0.0000 0.0000
# 3 8.5017 41.2885 145.7163 0.0000 0.0000 0.0000
# 4 0.0000 0.0000 0.0000 51.4540 0.0000 0.0000
# 5 0.0000 0.0000 0.0000 0.0000 18.7316 0.0000
# 6 0.0000 0.0000 0.0000 0.0000 0.0000 20.6055
#
#
#
# Elastic Compliance Matrix: (Units=1/GPa)
#
#
# Indices 1 2 3 4 5 6 
#
# 1 0.015867 -0.003175 -0.000026 0.000000 0.000000 0.000000
# 2 -0.003175 0.009775 -0.002584 0.000000 0.000000 0.000000
# 3 -0.000026 -0.002584 0.007596 0.000000 0.000000 0.000000
# 4 0.000000 0.000000 0.000000 0.019435 0.000000 0.000000
# 5 0.000000 0.000000 0.000000 0.000000 0.053386 0.000000
# 6 0.000000 0.000000 0.000000 0.000000 0.000000 0.048531
#
#
# Mechanical properties :
#
#
# Convention : Reuss Voigt Hill
#
# Bulk Modulus (GPa) = 46.15135 53.65632 49.90384
# Shear Modulus (GPa) = 28.83782 35.53397 32.18589
#
# Velocity S-wave (km/s) = 3.71902 4.12828 3.92898
# Velocity P-wave (km/s) = 6.36996 6.96118 6.67212
#
# Compressibility (1/GPa) = 0.02166784
#
# Stress axis : x y z
#
# Youngs Moduli (GPa) = 63.02308 102.30242 131.63973
#
# Poissons Ratio (x) = 0.32478 0.00345
# Poissons Ratio (y) = 0.20008 0.34022
# Poissons Ratio (z) = 0.00165 0.26440
#
# Static dielectric constant tensor:
#      x y z
#    x 3.273270 0.000000 0.000000 
#    y 0.000000 4.111460 0.000000 
#    z 0.000000 0.000000 3.927600 
# 
# 
# High freq. dielectric constant tensor:
#      x y z
#    x 1.780880 0.000000 0.000000 
#    y 0.000000 1.836410 0.000000 
#    z 0.000000 0.000000 1.833600 
# 
# From -- ./inp_files/24576.got.cif
#   From: 2010.03.12/outbox.cif.g09.slc.cpg/sg63_13_cif.got.tgz:24576.got - 2010.04.10 19:34:48.
