data_PCOD8257828
_publ_section_title
;
Structure prediction by ZEFSAII (Michael W. Deem and Ramdas Pophale) SiO2 
 PCOD8257828
Probable space group: C M C M
;
_chemical_formula_sum "Si O2"
_cell_formula_units_Z 96
_cell_length_a 8.848702
_cell_length_b 23.456501
_cell_length_c 25.492084
_cell_angle_alpha 90.000000
_cell_angle_beta 90.000000
_cell_angle_gamma 90.000000
_cell_volume 5291.126435
_symmetry_space_group_name_H-M "C M C M"
_symmetry_group_IT_number 63
_symmetry_cell_setting 'orthorhombic'
loop_
_space_group_symop_operation_xyz
x,y,z
-x,-y,1/2+z
x,-y,-z
-x,y,1/2-z
-x,-y,-z
x,y,1/2-z
-x,y,z
x,-y,1/2+z
1/2+x,1/2+y,z
1/2-x,1/2-y,1/2+z
1/2+x,1/2-y,-z
1/2-x,1/2+y,1/2-z
1/2-x,1/2-y,-z
1/2+x,1/2+y,1/2-z
1/2-x,1/2+y,z
1/2+x,1/2-y,1/2+z
loop_
_atom_site_type_symbol
_atom_site_label
_atom_site_fract_x
_atom_site_fract_y
_atom_site_fract_z
Si Si1 0.320855 0.366418 0.848015
Si Si2 0.678839 0.065259 0.060289
Si Si3 0.177541 0.361543 0.152587
Si Si4 0.826373 0.559135 0.750000
Si Si5 0.321467 0.247625 0.189773
Si Si6 0.321805 0.937413 0.057995
Si Si7 0.678220 0.438394 0.750000
O O1 0.500000 0.362361 0.847348
O O2 0.266451 0.390986 0.903177
O O3 0.254134 0.303888 0.841115
O O4 0.257918 0.406644 0.801445
O O5 0.500000 0.070922 0.069581
O O6 0.737734 0.000952 0.071686
O O7 0.723771 0.081298 0.000586
O O8 0.214860 0.404439 0.199345
O O9 0.271426 0.304470 0.160191
O O10 0.238705 0.391042 0.099333
O O11 0.000000 0.346974 0.150440
O O12 0.726209 0.503331 0.750000
O O13 0.000000 0.540128 0.750000
O O14 0.264353 0.248845 0.250000
O O15 0.500000 0.241407 0.187007
O O16 0.500000 0.941423 0.062463
O O17 0.500000 0.435219 0.750000
#
# Coordination Sequence:
#
# PCOD8257828 Si02
#       7
#    16  16  16   8  16  16   8
#     4  11  22  37  55  78 108 143 180 223 275 325
#     4   9  17  34  58  83 111 144 183 224 263 315
#     4  10  19  34  55  81 110 142 179 218 266 321
#     4  10  20  31  52  83 111 138 174 216 263 320
#     4  11  23  38  56  78 104 142 186 226 270 321
#     4   8  16  32  57  84 112 146 180 218 268 319
#     4  10  22  35  50  75 109 140 170 214 271 324
#
# _framework density 18.143585999999999
#
# number of rings (size 3 to 8) (size 9 to 14) (size 15 to 20)
#    0.000    2.167    1.667    3.000    0.000    4.000 
#    0.000    4.167    0.000    0.000    0.000    0.000 
#    0.000    0.000    0.000    0.000    0.000    0.000 
#
# Total GULP energy -595262.752710 kJ/mol
# GULP energy per Si atom -12401.307348 kJ/mol
# Density = 1.810229 g / cm^3
# Si number density = 18.143586 Si / 1000 Ang^3
#
#
#
# Elastic Constant Matrix: (Units=GPa)
#
#
# Indices 1 2 3 4 5 6 
#
# 1 46.1531 35.6865 35.9251 0.0000 0.0000 0.0000
# 2 35.6865 122.4805 79.5180 0.0000 0.0000 0.0000
# 3 35.9251 79.5180 143.6065 0.0000 0.0000 0.0000
# 4 0.0000 0.0000 0.0000 57.8873 0.0000 0.0000
# 5 0.0000 0.0000 0.0000 0.0000 117.2069 0.0000
# 6 0.0000 0.0000 0.0000 0.0000 0.0000 32.7618
#
#
#
# Elastic Compliance Matrix: (Units=1/GPa)
#
#
# Indices 1 2 3 4 5 6 
#
# 1 0.029424 -0.005924 -0.004081 0.000000 0.000000 0.000000
# 2 -0.005924 0.013940 -0.006237 0.000000 0.000000 0.000000
# 3 -0.004081 -0.006237 0.011438 0.000000 0.000000 0.000000
# 4 0.000000 0.000000 0.000000 0.017275 0.000000 0.000000
# 5 0.000000 0.000000 0.000000 0.000000 0.008532 0.000000
# 6 0.000000 0.000000 0.000000 0.000000 0.000000 0.030523
#
#
# Mechanical properties :
#
#
# Convention : Reuss Voigt Hill
#
# Bulk Modulus (GPa) = 44.80536 68.27771 56.54154
# Shear Modulus (GPa) = 33.10092 52.31190 42.70641
#
# Velocity S-wave (km/s) = 4.27592 5.37539 4.85686
# Velocity P-wave (km/s) = 7.00903 8.73155 7.91727
#
# Compressibility (1/GPa) = 0.02231876
#
# Stress axis : x y z
#
# Youngs Moduli (GPa) = 33.98620 71.73786 87.42999
#
# Poissons Ratio (x) = 0.42496 0.35677
# Poissons Ratio (y) = 0.20133 0.54528
# Poissons Ratio (z) = 0.13868 0.44741
#
# Static dielectric constant tensor:
#      x y z
#    x 3.096600 0.000000 0.000000 
#    y 0.000000 3.396870 0.000000 
#    z 0.000000 0.000000 3.653040 
# 
# 
# High freq. dielectric constant tensor:
#      x y z
#    x 1.683330 0.000000 0.000000 
#    y 0.000000 1.705670 0.000000 
#    z 0.000000 0.000000 1.709440 
# 
# From -- ./inp_files/60049.got.cif
#   From: 2010.03.12/outbox.cif.g09.slc.cpg/sg63_31_cif.got.tgz:60049.got - 2010.04.10 19:34:48.
