data_PCOD8257641
_publ_section_title
;
Structure prediction by ZEFSAII (Michael W. Deem and Ramdas Pophale) SiO2 
 PCOD8257641
Probable space group: C M C M
;
_chemical_formula_sum "Si O2"
_cell_formula_units_Z 80
_cell_length_a 8.892086
_cell_length_b 20.574648
_cell_length_c 23.069765
_cell_angle_alpha 90.000000
_cell_angle_beta 90.000000
_cell_angle_gamma 90.000000
_cell_volume 4220.649021
_symmetry_space_group_name_H-M "C M C M"
_symmetry_group_IT_number 63
_symmetry_cell_setting 'orthorhombic'
loop_
_space_group_symop_operation_xyz
x,y,z
-x,-y,1/2+z
x,-y,-z
-x,y,1/2-z
-x,-y,-z
x,y,1/2-z
-x,y,z
x,-y,1/2+z
1/2+x,1/2+y,z
1/2-x,1/2-y,1/2+z
1/2+x,1/2-y,-z
1/2-x,1/2+y,1/2-z
1/2-x,1/2-y,-z
1/2+x,1/2+y,1/2-z
1/2-x,1/2+y,z
1/2+x,1/2-y,1/2+z
loop_
_atom_site_type_symbol
_atom_site_label
_atom_site_fract_x
_atom_site_fract_y
_atom_site_fract_z
Si Si1 0.678393 0.249646 0.371788
Si Si2 0.322052 0.364072 0.557961
Si Si3 0.321521 0.197692 0.250000
Si Si4 0.678136 0.382175 0.071889
Si Si5 0.321540 0.050020 0.250000
Si Si6 0.821867 0.012093 0.366952
O O1 0.500000 0.242498 0.374577
O O2 0.747118 0.200465 0.417821
O O3 0.739409 0.234330 0.307162
O O4 0.731752 0.321872 0.388664
O O5 0.500000 0.354867 0.558365
O O6 0.259134 0.375014 0.493201
O O7 0.272565 0.425291 0.596408
O O8 0.500000 0.197727 0.250000
O O9 0.260596 0.124037 0.250000
O O10 0.500000 0.385197 0.068919
O O11 0.738974 0.448635 0.099641
O O12 0.500000 0.047979 0.250000
O O13 0.259179 0.012722 0.194527
O O14 0.000000 0.009593 0.357470
#
# Coordination Sequence:
#
# PCOD8257641 Si02
#       6
#    16  16   8  16   8  16
#     4  10  19  34  55  77 103 140 180 216 259 310
#     4  10  19  33  54  80 109 139 173 217 264 308
#     4   9  18  32  51  73  99 132 172 215 255 305
#     4   9  19  34  54  80 108 138 175 218 261 311
#     4  11  21  36  55  77 107 136 174 221 265 309
#     4  10  20  35  56  80 106 139 177 214 260 316
#
# _framework density 18.954429999999999
#
# number of rings (size 3 to 8) (size 9 to 14) (size 15 to 20)
#    0.000    2.200    2.000    1.500    0.000    3.200 
#    0.000    5.500    0.000    2.400    0.000    0.000 
#    0.000    0.000    0.000    0.000    0.000    0.000 
#
# Total GULP energy -496080.169330 kJ/mol
# GULP energy per Si atom -12402.004233 kJ/mol
# Density = 1.891129 g / cm^3
# Si number density = 18.954430 Si / 1000 Ang^3
#
#
#
# Elastic Constant Matrix: (Units=GPa)
#
#
# Indices 1 2 3 4 5 6 
#
# 1 19.6554 16.0121 18.0184 0.0000 0.0000 0.0000
# 2 16.0121 99.6767 33.6138 0.0000 0.0000 0.0000
# 3 18.0184 33.6138 141.0547 0.0000 0.0000 0.0000
# 4 0.0000 0.0000 0.0000 31.1873 0.0000 0.0000
# 5 0.0000 0.0000 0.0000 0.0000 20.8233 0.0000
# 6 0.0000 0.0000 0.0000 0.0000 0.0000 21.8720
#
#
#
# Elastic Compliance Matrix: (Units=1/GPa)
#
#
# Indices 1 2 3 4 5 6 
#
# 1 0.063069 -0.008062 -0.006135 0.000000 0.000000 0.000000
# 2 -0.008062 0.011940 -0.001815 0.000000 0.000000 0.000000
# 3 -0.006135 -0.001815 0.008306 0.000000 0.000000 0.000000
# 4 0.000000 0.000000 0.000000 0.032064 0.000000 0.000000
# 5 0.000000 0.000000 0.000000 0.000000 0.048023 0.000000
# 6 0.000000 0.000000 0.000000 0.000000 0.000000 0.045721
#
#
# Mechanical properties :
#
#
# Convention : Reuss Voigt Hill
#
# Bulk Modulus (GPa) = 19.49761 43.96394 31.73078
# Shear Modulus (GPa) = 19.36152 27.62602 23.49377
#
# Velocity S-wave (km/s) = 3.19952 3.82186 3.52445
# Velocity P-wave (km/s) = 4.89471 6.53608 5.77402
#
# Compressibility (1/GPa) = 0.05128834
#
# Stress axis : x y z
#
# Youngs Moduli (GPa) = 15.85574 83.75359 120.39827
#
# Poissons Ratio (x) = 0.67526 0.73866
# Poissons Ratio (y) = 0.12784 0.21857
# Poissons Ratio (z) = 0.09728 0.15205
#
# Static dielectric constant tensor:
#      x y z
#    x 3.051370 0.000000 0.000000 
#    y 0.000000 3.648160 0.000000 
#    z 0.000000 0.000000 3.754660 
# 
# 
# High freq. dielectric constant tensor:
#      x y z
#    x 1.695760 0.000000 0.000000 
#    y 0.000000 1.745220 0.000000 
#    z 0.000000 0.000000 1.754870 
# 
# From -- ./inp_files/50900.got.cif
#   From: 2010.03.12/outbox.cif.g09.slc.cpg/sg63_26_cif.got.tgz:50900.got - 2010.04.10 19:34:48.
