data_PCOD8257221
_publ_section_title
;
Structure prediction by ZEFSAII (Michael W. Deem and Ramdas Pophale) SiO2 
 PCOD8257221
Probable space group: C M C M
;
_chemical_formula_sum "Si O2"
_cell_formula_units_Z 112
_cell_length_a 9.699153
_cell_length_b 27.374136
_cell_length_c 23.374347
_cell_angle_alpha 90.000000
_cell_angle_beta 90.000000
_cell_angle_gamma 90.000000
_cell_volume 6206.027816
_symmetry_space_group_name_H-M "C M C M"
_symmetry_group_IT_number 63
_symmetry_cell_setting 'orthorhombic'
loop_
_space_group_symop_operation_xyz
x,y,z
-x,-y,1/2+z
x,-y,-z
-x,y,1/2-z
-x,-y,-z
x,y,1/2-z
-x,y,z
x,-y,1/2+z
1/2+x,1/2+y,z
1/2-x,1/2-y,1/2+z
1/2+x,1/2-y,-z
1/2-x,1/2+y,1/2-z
1/2-x,1/2-y,-z
1/2+x,1/2+y,1/2-z
1/2-x,1/2+y,z
1/2+x,1/2-y,1/2+z
loop_
_atom_site_type_symbol
_atom_site_label
_atom_site_fract_x
_atom_site_fract_y
_atom_site_fract_z
Si Si1 0.154731 0.282688 0.961846
Si Si2 0.664439 0.967233 0.872154
Si Si3 0.836054 0.573097 0.907988
Si Si4 0.845104 0.756703 0.336872
Si Si5 0.159197 0.650570 0.814723
Si Si6 0.335377 0.930611 0.750000
Si Si7 0.837973 0.322389 0.750000
Si Si8 0.163849 0.393042 0.968195
O O1 0.154788 0.255037 0.902673
O O2 0.214031 0.337638 0.957482
O O3 0.000000 0.284710 0.987583
O O4 0.250000 0.250000 0.000000
O O5 0.500000 0.966513 0.872790
O O6 0.718433 0.957168 0.807652
O O7 0.721909 0.926758 0.916790
O O8 0.721745 0.019655 0.892368
O O9 0.783764 0.610579 0.859366
O O10 0.000000 0.572087 0.908581
O O11 0.779011 0.588643 0.970340
O O12 0.744680 0.800441 0.321978
O O13 0.791370 0.707948 0.305504
O O14 0.000000 0.770184 0.315970
O O15 0.176061 0.630323 0.750000
O O16 0.000000 0.662826 0.827811
O O17 0.500000 0.930016 0.750000
O O18 0.270770 0.876027 0.750000
O O19 0.000000 0.330953 0.750000
O O20 0.000000 0.395937 0.967766
#
# Coordination Sequence:
#
# PCOD8257221 Si02
#       8
#    16  16  16  16  16   8   8  16
#     4  10  20  32  49  72  99 130 165 204 246 291
#     4   9  16  25  40  62  89 122 158 193 237 289
#     4   9  17  27  42  62  91 126 157 193 236 286
#     4  10  19  32  50  70  94 128 167 202 238 286
#     4  10  20  32  47  70 101 132 161 197 246 296
#     4   9  16  24  37  59  87 117 149 191 238 283
#     4   9  16  28  44  63  89 121 157 199 240 279
#     4   9  16  28  43  63  90 123 161 197 235 284
#
# _framework density 18.046969000000001
#
# number of rings (size 3 to 8) (size 9 to 14) (size 15 to 20)
#    0.000    2.571    0.714    2.143    1.000    6.857 
#    0.000    0.000    0.000    0.000    0.000    1.000 
#    0.000    6.857    0.000    0.000    0.000    0.000 
#
# Total GULP energy -694175.165830 kJ/mol
# GULP energy per Si atom -12395.985104 kJ/mol
# Density = 1.800589 g / cm^3
# Si number density = 18.046969 Si / 1000 Ang^3
#
#
#
# Elastic Constant Matrix: (Units=GPa)
#
#
# Indices 1 2 3 4 5 6 
#
# 1 23.3400 19.6636 18.2777 0.0000 0.0000 0.0000
# 2 19.6636 96.0558 45.8187 0.0000 0.0000 0.0000
# 3 18.2777 45.8187 133.8636 0.0000 0.0000 0.0000
# 4 0.0000 0.0000 0.0000 34.9943 0.0000 0.0000
# 5 0.0000 0.0000 0.0000 0.0000 13.0965 0.0000
# 6 0.0000 0.0000 0.0000 0.0000 0.0000 14.0562
#
#
#
# Elastic Compliance Matrix: (Units=1/GPa)
#
#
# Indices 1 2 3 4 5 6 
#
# 1 0.053741 -0.008965 -0.004269 0.000000 0.000000 0.000000
# 2 -0.008965 0.013937 -0.003546 0.000000 0.000000 0.000000
# 3 -0.004269 -0.003546 0.009267 0.000000 0.000000 0.000000
# 4 0.000000 0.000000 0.000000 0.028576 0.000000 0.000000
# 5 0.000000 0.000000 0.000000 0.000000 0.076356 0.000000
# 6 0.000000 0.000000 0.000000 0.000000 0.000000 0.071143
#
#
# Mechanical properties :
#
#
# Convention : Reuss Voigt Hill
#
# Bulk Modulus (GPa) = 23.04982 46.75326 34.90154
# Shear Modulus (GPa) = 16.60889 23.72935 20.16912
#
# Velocity S-wave (km/s) = 3.03696 3.63004 3.34667
# Velocity P-wave (km/s) = 5.00973 6.59790 5.85789
#
# Compressibility (1/GPa) = 0.04338429
#
# Stress axis : x y z
#
# Youngs Moduli (GPa) = 18.60781 71.74912 107.90874
#
# Poissons Ratio (x) = 0.64322 0.46069
# Poissons Ratio (y) = 0.16682 0.38269
# Poissons Ratio (z) = 0.07944 0.25445
#
# Static dielectric constant tensor:
#      x y z
#    x 2.820950 0.000000 0.000000 
#    y 0.000000 3.558340 0.000000 
#    z 0.000000 0.000000 3.646680 
# 
# 
# High freq. dielectric constant tensor:
#      x y z
#    x 1.618810 0.000000 0.000000 
#    y 0.000000 1.711490 0.000000 
#    z 0.000000 0.000000 1.721130 
# 
# From -- ./inp_files/61983.got.cif
#   From: 2010.03.12/outbox.cif.g09.slc.cpg/sg63_31_cif.got.tgz:61983.got - 2010.04.10 19:34:48.
