data_PCOD8257143
_publ_section_title
;
Structure prediction by ZEFSAII (Michael W. Deem and Ramdas Pophale) SiO2 
 PCOD8257143
Probable space group: C M C M
;
_chemical_formula_sum "Si O2"
_cell_formula_units_Z 80
_cell_length_a 20.547054
_cell_length_b 19.998458
_cell_length_c 10.802614
_cell_angle_alpha 90.000000
_cell_angle_beta 90.000000
_cell_angle_gamma 90.000000
_cell_volume 4438.895599
_symmetry_space_group_name_H-M "C M C M"
_symmetry_group_IT_number 63
_symmetry_cell_setting 'orthorhombic'
loop_
_space_group_symop_operation_xyz
x,y,z
-x,-y,1/2+z
x,-y,-z
-x,y,1/2-z
-x,-y,-z
x,y,1/2-z
-x,y,z
x,-y,1/2+z
1/2+x,1/2+y,z
1/2-x,1/2-y,1/2+z
1/2+x,1/2-y,-z
1/2-x,1/2+y,1/2-z
1/2-x,1/2-y,-z
1/2+x,1/2+y,1/2-z
1/2-x,1/2+y,z
1/2+x,1/2-y,1/2+z
loop_
_atom_site_type_symbol
_atom_site_label
_atom_site_fract_x
_atom_site_fract_y
_atom_site_fract_z
Si Si1 0.422632 0.202617 0.250000
Si Si2 0.333413 0.818182 0.532454
Si Si3 0.688002 0.310716 0.612472
Si Si4 0.423729 0.643649 0.750000
Si Si5 0.798457 0.446604 0.392129
Si Si6 0.152461 0.929178 0.456631
O O1 0.500000 0.192289 0.250000
O O2 0.392176 0.167968 0.371965
O O3 0.399896 0.279834 0.250000
O O4 0.344979 0.746806 0.468971
O O5 0.265879 0.813304 0.605631
O O6 0.332130 0.876649 0.429469
O O7 0.665884 0.295103 0.750000
O O8 0.661019 0.383076 0.576453
O O9 0.500000 0.641483 0.750000
O O10 0.399230 0.605778 0.869962
O O11 0.817856 0.500000 0.500000
O O12 0.820351 0.466425 0.250000
O O13 0.720897 0.438308 0.386454
O O14 0.123998 0.000000 0.500000
#
# Coordination Sequence:
#
# PCOD8257143 Si02
#       6
#     8  16  16   8  16  16
#     4  11  22  38  59  82 112 151 196 235 279 339
#     4  10  20  33  55  83 113 142 186 228 283 344
#     4  10  19  31  53  82 111 140 177 234 291 338
#     4  11  22  38  55  72 108 153 202 235 265 325
#     4  10  21  34  57  90 121 146 175 234 298 349
#     4  10  21  33  53  78 113 147 188 232 283 333
#
# _framework density 18.022501999999999
#
# number of rings (size 3 to 8) (size 9 to 14) (size 15 to 20)
#    0.000    1.800    4.000    0.600    2.800    2.800 
#    0.000    0.000    0.000    4.200    0.000    0.000 
#    0.000    0.000    0.000    0.000    0.000    0.000 
#
# Total GULP energy -495927.925719 kJ/mol
# GULP energy per Si atom -12398.198143 kJ/mol
# Density = 1.798148 g / cm^3
# Si number density = 18.022502 Si / 1000 Ang^3
#
#
#
# Elastic Constant Matrix: (Units=GPa)
#
#
# Indices 1 2 3 4 5 6 
#
# 1 39.9331 11.9005 26.6358 0.0000 0.0000 0.0000
# 2 11.9005 90.3357 32.4817 0.0000 0.0000 0.0000
# 3 26.6358 32.4817 130.4043 0.0000 0.0000 0.0000
# 4 0.0000 0.0000 0.0000 11.3044 0.0000 0.0000
# 5 0.0000 0.0000 0.0000 0.0000 13.3390 0.0000
# 6 0.0000 0.0000 0.0000 0.0000 0.0000 17.1961
#
#
#
# Elastic Compliance Matrix: (Units=1/GPa)
#
#
# Indices 1 2 3 4 5 6 
#
# 1 0.029278 -0.001875 -0.005513 0.000000 0.000000 0.000000
# 2 -0.001875 0.012279 -0.002676 0.000000 0.000000 0.000000
# 3 -0.005513 -0.002676 0.009461 0.000000 0.000000 0.000000
# 4 0.000000 0.000000 0.000000 0.088461 0.000000 0.000000
# 5 0.000000 0.000000 0.000000 0.000000 0.074968 0.000000
# 6 0.000000 0.000000 0.000000 0.000000 0.000000 0.058153
#
#
# Mechanical properties :
#
#
# Convention : Reuss Voigt Hill
#
# Bulk Modulus (GPa) = 32.37194 44.74544 38.55869
# Shear Modulus (GPa) = 16.50039 21.01158 18.75598
#
# Velocity S-wave (km/s) = 3.02908 3.41816 3.22949
# Velocity P-wave (km/s) = 5.49861 6.36081 5.94536
#
# Compressibility (1/GPa) = 0.03089095
#
# Stress axis : x y z
#
# Youngs Moduli (GPa) = 34.15541 81.44112 105.69694
#
# Poissons Ratio (x) = 0.15267 0.58273
# Poissons Ratio (y) = 0.06403 0.28280
# Poissons Ratio (z) = 0.18831 0.21790
#
# Static dielectric constant tensor:
#      x y z
#    x 2.898310 0.000000 0.000000 
#    y 0.000000 3.487940 0.000000 
#    z 0.000000 0.000000 3.310240 
# 
# 
# High freq. dielectric constant tensor:
#      x y z
#    x 1.646380 0.000000 0.000000 
#    y 0.000000 1.707500 0.000000 
#    z 0.000000 0.000000 1.706820 
# 
# From -- ./inp_files/22499.got.cif
#   From: 2010.03.12/outbox.cif.g09.slc.cpg/sg63_12_cif.got.tgz:22499.got - 2010.04.10 19:34:48.
