data_PCOD8257491
_publ_section_title
;
Structure prediction by ZEFSAII (Michael W. Deem and Ramdas Pophale) SiO2 
 PCOD8257491
Probable space group: C M C M
;
_chemical_formula_sum "Si O2"
_cell_formula_units_Z 96
_cell_length_a 8.946651
_cell_length_b 19.406915
_cell_length_c 30.803009
_cell_angle_alpha 90.000000
_cell_angle_beta 90.000000
_cell_angle_gamma 90.000000
_cell_volume 5348.230824
_symmetry_space_group_name_H-M "C M C M"
_symmetry_group_IT_number 63
_symmetry_cell_setting 'orthorhombic'
loop_
_space_group_symop_operation_xyz
x,y,z
-x,-y,1/2+z
x,-y,-z
-x,y,1/2-z
-x,-y,-z
x,y,1/2-z
-x,y,z
x,-y,1/2+z
1/2+x,1/2+y,z
1/2-x,1/2-y,1/2+z
1/2+x,1/2-y,-z
1/2-x,1/2+y,1/2-z
1/2-x,1/2-y,-z
1/2+x,1/2+y,1/2-z
1/2-x,1/2+y,z
1/2+x,1/2-y,1/2+z
loop_
_atom_site_type_symbol
_atom_site_label
_atom_site_fract_x
_atom_site_fract_y
_atom_site_fract_z
Si Si1 0.827270 0.708422 0.356534
Si Si2 0.173293 0.395653 0.566084
Si Si3 0.676146 0.397871 0.701454
Si Si4 0.323551 0.499197 0.626897
Si Si5 0.177888 0.177248 0.989370
Si Si6 0.176532 0.849387 0.392549
O O1 0.801988 0.667544 0.401159
O O2 0.739651 0.673536 0.317045
O O3 0.761529 0.785359 0.364082
O O4 0.000000 0.709216 0.343280
O O5 0.238432 0.465380 0.586509
O O6 0.263847 0.380577 0.522378
O O7 0.000000 0.406274 0.555023
O O8 0.738201 0.410372 0.750000
O O9 0.500000 0.390853 0.701810
O O10 0.726387 0.462344 0.671639
O O11 0.500000 0.491550 0.618832
O O12 0.274209 0.578978 0.629687
O O13 0.234009 0.153931 0.941908
O O14 0.000000 0.183643 0.992405
O O15 0.250000 0.250000 0.000000
O O16 0.000000 0.841754 0.393592
#
# Coordination Sequence:
#
# PCOD8257491 Si02
#       6
#    16  16  16  16  16  16
#     4   9  17  32  52  73  98 129 165 204 246 295
#     4  10  19  33  50  72 103 135 172 213 247 290
#     4   9  18  33  53  77 100 123 158 204 250 301
#     4   9  18  34  54  73  98 135 170 201 252 308
#     4  11  20  32  50  73 101 136 177 217 256 296
#     4   9  18  33  51  73 102 133 168 212 253 294
#
# _framework density 17.949860000000001
#
# number of rings (size 3 to 8) (size 9 to 14) (size 15 to 20)
#    0.000    2.500    1.667    1.000    0.000    1.667 
#    0.000    6.667    0.000    3.000    0.000    0.000 
#    0.000    0.000    0.000    0.000    0.000    0.000 
#
# Total GULP energy -595173.503078 kJ/mol
# GULP energy per Si atom -12399.447981 kJ/mol
# Density = 1.790901 g / cm^3
# Si number density = 17.949860 Si / 1000 Ang^3
#
#
#
# Elastic Constant Matrix: (Units=GPa)
#
#
# Indices 1 2 3 4 5 6 
#
# 1 40.4055 27.1783 29.5884 0.0000 0.0000 0.0000
# 2 27.1783 145.9269 63.9422 0.0000 0.0000 0.0000
# 3 29.5884 63.9422 124.4409 0.0000 0.0000 0.0000
# 4 0.0000 0.0000 0.0000 20.7684 0.0000 0.0000
# 5 0.0000 0.0000 0.0000 0.0000 23.2895 0.0000
# 6 0.0000 0.0000 0.0000 0.0000 0.0000 24.8476
#
#
#
# Elastic Compliance Matrix: (Units=1/GPa)
#
#
# Indices 1 2 3 4 5 6 
#
# 1 0.031151 -0.003299 -0.005712 0.000000 0.000000 0.000000
# 2 -0.003299 0.009193 -0.003939 0.000000 0.000000 0.000000
# 3 -0.005712 -0.003939 0.011418 0.000000 0.000000 0.000000
# 4 0.000000 0.000000 0.000000 0.048150 0.000000 0.000000
# 5 0.000000 0.000000 0.000000 0.000000 0.042938 0.000000
# 6 0.000000 0.000000 0.000000 0.000000 0.000000 0.040245
#
#
# Mechanical properties :
#
#
# Convention : Reuss Voigt Hill
#
# Bulk Modulus (GPa) = 38.66652 61.35456 50.01054
# Shear Modulus (GPa) = 22.97624 26.45208 24.71416
#
# Velocity S-wave (km/s) = 3.58162 3.84300 3.71461
# Velocity P-wave (km/s) = 6.22031 7.34485 6.80584
#
# Compressibility (1/GPa) = 0.02586217
#
# Stress axis : x y z
#
# Youngs Moduli (GPa) = 32.10207 108.77409 87.57927
#
# Poissons Ratio (x) = 0.35884 0.50022
# Poissons Ratio (y) = 0.10590 0.34502
# Poissons Ratio (z) = 0.18335 0.42851
#
# Static dielectric constant tensor:
#      x y z
#    x 3.186510 0.000000 0.000000 
#    y 0.000000 3.479140 0.000000 
#    z 0.000000 0.000000 3.473760 
# 
# 
# High freq. dielectric constant tensor:
#      x y z
#    x 1.678980 0.000000 0.000000 
#    y 0.000000 1.696480 0.000000 
#    z 0.000000 0.000000 1.684410 
# 
# From -- ./inp_files/66992.got.cif
#   From: 2010.03.12/outbox.cif.g09.slc.cpg/sg63_34_cif.got.tgz:66992.got - 2010.04.10 19:34:48.
