data_PCOD8257120
_publ_section_title
;
Structure prediction by ZEFSAII (Michael W. Deem and Ramdas Pophale) SiO2 
 PCOD8257120
Probable space group: C M C M
;
_chemical_formula_sum "Si O2"
_cell_formula_units_Z 112
_cell_length_a 20.647747
_cell_length_b 12.410867
_cell_length_c 22.630622
_cell_angle_alpha 90.000000
_cell_angle_beta 90.000000
_cell_angle_gamma 90.000000
_cell_volume 5799.242671
_symmetry_space_group_name_H-M "C M C M"
_symmetry_group_IT_number 63
_symmetry_cell_setting 'orthorhombic'
loop_
_space_group_symop_operation_xyz
x,y,z
-x,-y,1/2+z
x,-y,-z
-x,y,1/2-z
-x,-y,-z
x,y,1/2-z
-x,y,z
x,-y,1/2+z
1/2+x,1/2+y,z
1/2-x,1/2-y,1/2+z
1/2+x,1/2-y,-z
1/2-x,1/2+y,1/2-z
1/2-x,1/2-y,-z
1/2+x,1/2+y,1/2-z
1/2-x,1/2+y,z
1/2+x,1/2-y,1/2+z
loop_
_atom_site_type_symbol
_atom_site_label
_atom_site_fract_x
_atom_site_fract_y
_atom_site_fract_z
Si Si1 0.244576 0.274162 0.815155
Si Si2 0.926644 0.026122 0.434010
Si Si3 0.213843 0.532347 0.106805
Si Si4 0.927721 0.723385 0.578822
Si Si5 0.133949 0.620813 0.683046
Si Si6 0.827110 0.873895 0.395579
Si Si7 0.819989 0.300369 0.514365
O O1 0.226242 0.315060 0.750000
O O2 0.253598 0.375746 0.858139
O O3 0.311078 0.210638 0.814892
O O4 0.187264 0.193820 0.836400
O O5 0.918174 0.149469 0.417314
O O6 0.000000 0.986327 0.428398
O O7 0.900375 0.000000 0.500000
O O8 0.884566 0.959389 0.386355
O O9 0.158826 0.487916 0.151072
O O10 0.261355 0.436907 0.085289
O O11 0.184116 0.585866 0.048246
O O12 0.924116 0.670789 0.644018
O O13 0.867971 0.675828 0.540464
O O14 0.000000 0.697616 0.553134
O O15 0.110512 0.594018 0.750000
O O16 0.852520 0.790977 0.445102
O O17 0.750000 0.250000 0.500000
#
# Coordination Sequence:
#
# PCOD8257120 Si02
#       7
#    16  16  16  16  16  16  16
#     4   9  18  33  54  81 110 141 182 232 281 327
#     4  10  19  33  54  78 106 142 178 214 273 349
#     4  10  20  33  54  83 112 149 187 230 280 337
#     4  11  23  38  56  82 112 145 186 229 281 341
#     4  10  21  38  57  78 108 146 190 236 279 327
#     4  10  19  31  51  79 111 141 178 223 276 332
#     4  11  21  33  53  83 117 146 180 229 284 339
#
# _framework density 19.312867000000001
#
# number of rings (size 3 to 8) (size 9 to 14) (size 15 to 20)
#    0.000    1.857    1.429    4.714    0.000    2.571 
#    0.000    2.143    0.000    2.143    0.000    0.000 
#    0.000    0.000    0.000    0.000    0.000    0.000 
#
# Total GULP energy -694201.540860 kJ/mol
# GULP energy per Si atom -12396.456087 kJ/mol
# Density = 1.926891 g / cm^3
# Si number density = 19.312867 Si / 1000 Ang^3
#
#
#
# Elastic Constant Matrix: (Units=GPa)
#
#
# Indices 1 2 3 4 5 6 
#
# 1 73.5311 9.9125 31.6717 0.0000 0.0000 0.0000
# 2 9.9125 71.1387 28.2235 0.0000 0.0000 0.0000
# 3 31.6717 28.2235 93.6734 0.0000 0.0000 0.0000
# 4 0.0000 0.0000 0.0000 34.4098 0.0000 0.0000
# 5 0.0000 0.0000 0.0000 0.0000 22.4314 0.0000
# 6 0.0000 0.0000 0.0000 0.0000 0.0000 26.6007
#
#
#
# Elastic Compliance Matrix: (Units=1/GPa)
#
#
# Indices 1 2 3 4 5 6 
#
# 1 0.015918 -0.000094 -0.005354 0.000000 0.000000 0.000000
# 2 -0.000094 0.015966 -0.004779 0.000000 0.000000 0.000000
# 3 -0.005354 -0.004779 0.013925 0.000000 0.000000 0.000000
# 4 0.000000 0.000000 0.000000 0.029061 0.000000 0.000000
# 5 0.000000 0.000000 0.000000 0.000000 0.044580 0.000000
# 6 0.000000 0.000000 0.000000 0.000000 0.000000 0.037593
#
#
# Mechanical properties :
#
#
# Convention : Reuss Voigt Hill
#
# Bulk Modulus (GPa) = 39.43731 41.99540 40.71635
# Shear Modulus (GPa) = 26.88897 27.92410 27.40653
#
# Velocity S-wave (km/s) = 3.73538 3.80660 3.77116
# Velocity P-wave (km/s) = 6.25049 6.41188 6.33170
#
# Compressibility (1/GPa) = 0.02535670
#
# Stress axis : x y z
#
# Youngs Moduli (GPa) = 62.82048 62.63289 71.81136
#
# Poissons Ratio (x) = 0.00589 0.38446
# Poissons Ratio (y) = 0.00591 0.34317
# Poissons Ratio (z) = 0.33633 0.29931
#
# Static dielectric constant tensor:
#      x y z
#    x 3.332610 0.000000 0.000000 
#    y 0.000000 3.644160 0.000000 
#    z 0.000000 0.000000 3.683690 
# 
# 
# High freq. dielectric constant tensor:
#      x y z
#    x 1.722740 0.000000 0.000000 
#    y 0.000000 1.763730 0.000000 
#    z 0.000000 0.000000 1.742220 
# 
# From -- ./inp_files/64643.got.cif
#   From: 2010.03.12/outbox.cif.g09.slc.cpg/sg63_33_cif.got.tgz:64643.got - 2010.04.10 19:34:48.
