data_PCOD8257318
_publ_section_title
;
Structure prediction by ZEFSAII (Michael W. Deem and Ramdas Pophale) SiO2 
 PCOD8257318
Probable space group: C M C M
;
_chemical_formula_sum "Si O2"
_cell_formula_units_Z 56
_cell_length_a 18.718967
_cell_length_b 12.071121
_cell_length_c 14.148063
_cell_angle_alpha 90.000000
_cell_angle_beta 90.000000
_cell_angle_gamma 90.000000
_cell_volume 3196.880974
_symmetry_space_group_name_H-M "C M C M"
_symmetry_group_IT_number 63
_symmetry_cell_setting 'orthorhombic'
loop_
_space_group_symop_operation_xyz
x,y,z
-x,-y,1/2+z
x,-y,-z
-x,y,1/2-z
-x,-y,-z
x,y,1/2-z
-x,y,z
x,-y,1/2+z
1/2+x,1/2+y,z
1/2-x,1/2-y,1/2+z
1/2+x,1/2-y,-z
1/2-x,1/2+y,1/2-z
1/2-x,1/2-y,-z
1/2+x,1/2+y,1/2-z
1/2-x,1/2+y,z
1/2+x,1/2-y,1/2+z
loop_
_atom_site_type_symbol
_atom_site_label
_atom_site_fract_x
_atom_site_fract_y
_atom_site_fract_z
Si Si1 0.173993 0.428104 0.140588
Si Si2 0.082052 0.640766 0.358888
Si Si3 0.166352 0.766026 0.512181
Si Si4 0.705165 0.500000 0.000000
O O1 0.191995 0.411775 0.250000
O O2 0.113295 0.519027 0.122369
O O3 0.142790 0.312221 0.099489
O O4 0.246199 0.466570 0.089154
O O5 0.090954 0.674648 0.250000
O O6 0.124460 0.732217 0.417995
O O7 0.000000 0.639389 0.390440
O O8 0.250000 0.750000 0.500000
O O9 0.154030 0.897154 0.530289
#
# Coordination Sequence:
#
# PCOD8257318 Si02
#       4
#    16  16  16   8
#     4  10  19  32  51  79 107 137 182 230 275 319
#     4  10  20  35  57  82 109 142 181 229 281 327
#     4  10  19  34  52  78 109 143 183 226 267 324
#     4  10  20  36  50  78 112 146 184 216 278 328
#
# _framework density 17.517074000000001
#
# number of rings (size 3 to 8) (size 9 to 14) (size 15 to 20)
#    0.000    2.000    5.714    0.000    0.000    8.000 
#    0.000    0.714    0.000    0.000    0.000    4.000 
#    0.000    0.000    0.000    0.000    0.000    0.000 
#
# Total GULP energy -347109.974557 kJ/mol
# GULP energy per Si atom -12396.784806 kJ/mol
# Density = 1.747720 g / cm^3
# Si number density = 17.517074 Si / 1000 Ang^3
#
#
#
# Elastic Constant Matrix: (Units=GPa)
#
#
# Indices 1 2 3 4 5 6 
#
# 1 77.8700 45.4172 39.2022 0.0000 0.0000 0.0000
# 2 45.4172 172.1932 67.5016 0.0000 0.0000 0.0000
# 3 39.2022 67.5016 106.9114 0.0000 0.0000 0.0000
# 4 0.0000 0.0000 0.0000 20.1553 0.0000 0.0000
# 5 0.0000 0.0000 0.0000 0.0000 27.9967 0.0000
# 6 0.0000 0.0000 0.0000 0.0000 0.0000 19.2900
#
#
#
# Elastic Compliance Matrix: (Units=1/GPa)
#
#
# Indices 1 2 3 4 5 6 
#
# 1 0.016611 -0.002649 -0.004418 0.000000 0.000000 0.000000
# 2 -0.002649 0.008140 -0.004168 0.000000 0.000000 0.000000
# 3 -0.004418 -0.004168 0.013605 0.000000 0.000000 0.000000
# 4 0.000000 0.000000 0.000000 0.049615 0.000000 0.000000
# 5 0.000000 0.000000 0.000000 0.000000 0.035718 0.000000
# 6 0.000000 0.000000 0.000000 0.000000 0.000000 0.051840
#
#
# Mechanical properties :
#
#
# Convention : Reuss Voigt Hill
#
# Bulk Modulus (GPa) = 62.95091 73.46852 68.20971
# Shear Modulus (GPa) = 24.59455 27.14530 25.86992
#
# Velocity S-wave (km/s) = 3.75111 3.94083 3.84714
# Velocity P-wave (km/s) = 7.40108 7.92079 7.66534
#
# Compressibility (1/GPa) = 0.01588540
#
# Stress axis : x y z
#
# Youngs Moduli (GPa) = 60.19935 122.84798 73.50093
#
# Poissons Ratio (x) = 0.32547 0.32475
# Poissons Ratio (y) = 0.15949 0.30636
# Poissons Ratio (z) = 0.26598 0.51204
#
# Static dielectric constant tensor:
#      x y z
#    x 3.075340 0.000000 0.000000 
#    y 0.000000 4.282660 0.000000 
#    z 0.000000 0.000000 3.506030 
# 
# 
# High freq. dielectric constant tensor:
#      x y z
#    x 1.645260 0.000000 0.000000 
#    y 0.000000 1.683950 0.000000 
#    z 0.000000 0.000000 1.679700 
# 
# From -- ./inp_files/30816.got.cif
#   From: 2010.03.12/outbox.cif.g09.slc.cpg/sg63_16_cif.got.tgz:30816.got - 2010.04.10 19:34:48.
