data_PCOD8257924
_publ_section_title
;
Structure prediction by ZEFSAII (Michael W. Deem and Ramdas Pophale) SiO2 
 PCOD8257924
Probable space group: C M C M
;
_chemical_formula_sum "Si O2"
_cell_formula_units_Z 48
_cell_length_a 13.944907
_cell_length_b 31.795037
_cell_length_c 5.159252
_cell_angle_alpha 90.000000
_cell_angle_beta 90.000000
_cell_angle_gamma 90.000000
_cell_volume 2287.503136
_symmetry_space_group_name_H-M "C M C M"
_symmetry_group_IT_number 63
_symmetry_cell_setting 'orthorhombic'
loop_
_space_group_symop_operation_xyz
x,y,z
-x,-y,1/2+z
x,-y,-z
-x,y,1/2-z
-x,-y,-z
x,y,1/2-z
-x,y,z
x,-y,1/2+z
1/2+x,1/2+y,z
1/2-x,1/2-y,1/2+z
1/2+x,1/2-y,-z
1/2-x,1/2+y,1/2-z
1/2-x,1/2-y,-z
1/2+x,1/2+y,1/2-z
1/2-x,1/2+y,z
1/2+x,1/2-y,1/2+z
loop_
_atom_site_type_symbol
_atom_site_label
_atom_site_fract_x
_atom_site_fract_y
_atom_site_fract_z
Si Si1 0.100994 0.471361 0.750000
Si Si2 0.391113 0.253081 0.250000
Si Si3 0.309793 0.528864 0.250000
Si Si4 0.610265 0.383205 0.750000
Si Si5 0.109261 0.302496 0.250000
Si Si6 0.797959 0.842297 0.250000
O O1 0.099870 0.500000 0.500000
O O2 0.203985 0.447875 0.750000
O O3 0.000000 0.444088 0.750000
O O4 0.500000 0.269376 0.250000
O O5 0.369125 0.225545 0.500448
O O6 0.324316 0.293442 0.250000
O O7 0.325254 0.500000 0.500000
O O8 0.386618 0.566173 0.250000
O O9 0.500000 0.368545 0.750000
O O10 0.662402 0.365680 0.498994
O O11 0.181280 0.342600 0.250000
O O12 0.000000 0.319629 0.250000
#
# Coordination Sequence:
#
# PCOD8257924 Si02
#       6
#     8   8   8   8   8   8
#     4   8  14  27  50  78 104 130 166 217 271 327
#     4  10  19  34  59  88 119 161 203 239 281 336
#     4  10  21  39  61  83 110 146 191 240 293 352
#     4  12  26  41  60  87 117 154 198 248 303 356
#     4  10  21  37  60  90 122 158 202 241 281 342
#     4  12  23  40  60  86 124 159 194 243 299 349
#
# _framework density 20.983575999999999
#
# number of rings (size 3 to 8) (size 9 to 14) (size 15 to 20)
#    0.000    1.667    0.000    5.500    0.000    2.000 
#    0.000    1.667    0.000    2.000    0.000    0.000 
#    0.000    0.000    0.000    0.000    0.000    0.000 
#
# Total GULP energy -297460.663170 kJ/mol
# GULP energy per Si atom -12394.194299 kJ/mol
# Density = 2.093582 g / cm^3
# Si number density = 20.983576 Si / 1000 Ang^3
#
#
#
# Elastic Constant Matrix: (Units=GPa)
#
#
# Indices 1 2 3 4 5 6 
#
# 1 125.8817 58.4435 49.2033 0.0000 0.0000 0.0000
# 2 58.4435 79.9342 54.3251 0.0000 0.0000 0.0000
# 3 49.2033 54.3251 197.9935 0.0000 0.0000 0.0000
# 4 0.0000 0.0000 0.0000 99.0783 0.0000 0.0000
# 5 0.0000 0.0000 0.0000 0.0000 33.6163 0.0000
# 6 0.0000 0.0000 0.0000 0.0000 0.0000 29.5069
#
#
#
# Elastic Compliance Matrix: (Units=1/GPa)
#
#
# Indices 1 2 3 4 5 6 
#
# 1 0.012108 -0.008368 -0.000713 0.000000 0.000000 0.000000
# 2 -0.008368 0.021161 -0.003727 0.000000 0.000000 0.000000
# 3 -0.000713 -0.003727 0.006250 0.000000 0.000000 0.000000
# 4 0.000000 0.000000 0.000000 0.010093 0.000000 0.000000
# 5 0.000000 0.000000 0.000000 0.000000 0.029747 0.000000
# 6 0.000000 0.000000 0.000000 0.000000 0.000000 0.033890
#
#
# Mechanical properties :
#
#
# Convention : Reuss Voigt Hill
#
# Bulk Modulus (GPa) = 71.92070 80.86147 76.39108
# Shear Modulus (GPa) = 34.84325 48.56278 41.70301
#
# Velocity S-wave (km/s) = 4.07935 4.81596 4.46288
# Velocity P-wave (km/s) = 7.51913 8.33930 7.93981
#
# Compressibility (1/GPa) = 0.01390420
#
# Stress axis : x y z
#
# Youngs Moduli (GPa) = 82.59258 47.25629 159.99123
#
# Poissons Ratio (x) = 0.39544 0.11405
# Poissons Ratio (y) = 0.69113 0.59623
# Poissons Ratio (z) = 0.05888 0.17611
#
# Static dielectric constant tensor:
#      x y z
#    x 4.513680 0.000000 0.000000 
#    y 0.000000 3.346970 0.000000 
#    z 0.000000 0.000000 3.839110 
# 
# 
# High freq. dielectric constant tensor:
#      x y z
#    x 1.848430 0.000000 0.000000 
#    y 0.000000 1.775150 0.000000 
#    z 0.000000 0.000000 1.851280 
# 
# From -- ./inp_files/557.got.cif
#   From: 2010.03.12/outbox.cif.g09.slc.cpg/sg63_1_cif.got.tgz:557.got - 2010.04.10 19:34:48.
