data_PCOD8257623
_publ_section_title
;
Structure prediction by ZEFSAII (Michael W. Deem and Ramdas Pophale) SiO2 
 PCOD8257623
Probable space group: C M C M
;
_chemical_formula_sum "Si O2"
_cell_formula_units_Z 80
_cell_length_a 8.529231
_cell_length_b 27.676677
_cell_length_c 18.105209
_cell_angle_alpha 90.000000
_cell_angle_beta 90.000000
_cell_angle_gamma 90.000000
_cell_volume 4273.929604
_symmetry_space_group_name_H-M "C M C M"
_symmetry_group_IT_number 63
_symmetry_cell_setting 'orthorhombic'
loop_
_space_group_symop_operation_xyz
x,y,z
-x,-y,1/2+z
x,-y,-z
-x,y,1/2-z
-x,-y,-z
x,y,1/2-z
-x,y,z
x,-y,1/2+z
1/2+x,1/2+y,z
1/2-x,1/2-y,1/2+z
1/2+x,1/2-y,-z
1/2-x,1/2+y,1/2-z
1/2-x,1/2-y,-z
1/2+x,1/2+y,1/2-z
1/2-x,1/2+y,z
1/2+x,1/2-y,1/2+z
loop_
_atom_site_type_symbol
_atom_site_label
_atom_site_fract_x
_atom_site_fract_y
_atom_site_fract_z
Si Si1 0.816576 0.853613 0.550052
Si Si2 0.317169 0.805863 0.410012
Si Si3 0.684770 0.901376 0.330109
Si Si4 0.813563 0.447125 0.022157
Si Si5 0.816862 0.712553 0.335103
O O1 0.776931 0.815461 0.485331
O O2 0.760557 0.907667 0.531930
O O3 0.728802 0.837422 0.624917
O O4 0.000000 0.853635 0.564615
O O5 0.500000 0.808997 0.429875
O O6 0.269187 0.846636 0.350693
O O7 0.278115 0.754623 0.375550
O O8 0.760600 0.913978 0.250000
O O9 0.500000 0.906343 0.324144
O O10 0.745566 0.937494 0.393916
O O11 0.000000 0.442472 0.016178
O O12 0.753389 0.500000 0.000000
O O13 0.765088 0.709095 0.250000
O O14 0.000000 0.723065 0.342541
#
# Coordination Sequence:
#
# PCOD8257623 Si02
#       5
#    16  16  16  16  16
#     4  11  22  36  55  77 104 138 178 220 262 314
#     4  10  19  33  54  78 106 138 175 217 263 316
#     4   8  14  26  47  75 102 129 165 210 258 308
#     4   9  18  34  55  77 103 135 174 221 271 322
#     4  11  23  37  53  76 108 143 179 218 259 306
#
# _framework density 18.718136000000001
#
# number of rings (size 3 to 8) (size 9 to 14) (size 15 to 20)
#    0.000    2.200    0.000    5.400    0.000    2.800 
#    0.000    1.000    0.000    9.000    0.000    0.000 
#    0.000    0.000    0.000    0.000    0.000    0.000 
#
# Total GULP energy -495975.254530 kJ/mol
# GULP energy per Si atom -12399.381363 kJ/mol
# Density = 1.867553 g / cm^3
# Si number density = 18.718136 Si / 1000 Ang^3
#
#
#
# Elastic Constant Matrix: (Units=GPa)
#
#
# Indices 1 2 3 4 5 6 
#
# 1 42.4630 13.3647 15.4460 0.0000 0.0000 0.0000
# 2 13.3647 113.2107 67.4423 0.0000 0.0000 0.0000
# 3 15.4460 67.4423 101.1019 0.0000 0.0000 0.0000
# 4 0.0000 0.0000 0.0000 19.7110 0.0000 0.0000
# 5 0.0000 0.0000 0.0000 0.0000 16.4710 0.0000
# 6 0.0000 0.0000 0.0000 0.0000 0.0000 24.3154
#
#
#
# Elastic Compliance Matrix: (Units=1/GPa)
#
#
# Indices 1 2 3 4 5 6 
#
# 1 0.025021 -0.001123 -0.003074 0.000000 0.000000 0.000000
# 2 -0.001123 0.014708 -0.009640 0.000000 0.000000 0.000000
# 3 -0.003074 -0.009640 0.016791 0.000000 0.000000 0.000000
# 4 0.000000 0.000000 0.000000 0.050733 0.000000 0.000000
# 5 0.000000 0.000000 0.000000 0.000000 0.060713 0.000000
# 6 0.000000 0.000000 0.000000 0.000000 0.000000 0.041126
#
#
# Mechanical properties :
#
#
# Convention : Reuss Voigt Hill
#
# Bulk Modulus (GPa) = 34.66448 49.92019 42.29234
# Shear Modulus (GPa) = 20.29366 22.80097 21.54731
#
# Velocity S-wave (km/s) = 3.29625 3.49395 3.39654
# Velocity P-wave (km/s) = 5.74860 6.55776 6.16647
#
# Compressibility (1/GPa) = 0.02884797
#
# Stress axis : x y z
#
# Youngs Moduli (GPa) = 39.96586 67.98813 59.55487
#
# Poissons Ratio (x) = 0.07633 0.18306
# Poissons Ratio (y) = 0.04487 0.57411
# Poissons Ratio (z) = 0.12284 0.65541
#
# Static dielectric constant tensor:
#      x y z
#    x 3.214080 0.000000 0.000000 
#    y 0.000000 3.400760 0.000000 
#    z 0.000000 0.000000 3.814780 
# 
# 
# High freq. dielectric constant tensor:
#      x y z
#    x 1.712140 0.000000 0.000000 
#    y 0.000000 1.714400 0.000000 
#    z 0.000000 0.000000 1.732200 
# 
# From -- ./inp_files/40423.got.cif
#   From: 2010.03.12/outbox.cif.g09.slc.cpg/sg63_21_cif.got.tgz:40423.got - 2010.04.10 19:34:48.
