data_PCOD8257079
_publ_section_title
;
Structure prediction by ZEFSAII (Michael W. Deem and Ramdas Pophale) SiO2 
 PCOD8257079
Probable space group: C M C M
;
_chemical_formula_sum "Si O2"
_cell_formula_units_Z 88
_cell_length_a 18.144275
_cell_length_b 28.596924
_cell_length_c 9.442378
_cell_angle_alpha 90.000000
_cell_angle_beta 90.000000
_cell_angle_gamma 90.000000
_cell_volume 4899.370952
_symmetry_space_group_name_H-M "C M C M"
_symmetry_group_IT_number 63
_symmetry_cell_setting 'orthorhombic'
loop_
_space_group_symop_operation_xyz
x,y,z
-x,-y,1/2+z
x,-y,-z
-x,y,1/2-z
-x,-y,-z
x,y,1/2-z
-x,y,z
x,-y,1/2+z
1/2+x,1/2+y,z
1/2-x,1/2-y,1/2+z
1/2+x,1/2-y,-z
1/2-x,1/2+y,1/2-z
1/2-x,1/2-y,-z
1/2+x,1/2+y,1/2-z
1/2-x,1/2+y,z
1/2+x,1/2-y,1/2+z
loop_
_atom_site_type_symbol
_atom_site_label
_atom_site_fract_x
_atom_site_fract_y
_atom_site_fract_z
Si Si1 0.857123 0.890352 0.916892
Si Si2 0.500000 0.451818 0.584289
Si Si3 0.419975 0.293798 0.915212
Si Si4 0.194330 0.719405 0.913768
Si Si5 0.583160 0.045918 0.914107
Si Si6 0.713758 0.113656 0.583496
O O1 0.840680 0.892558 0.750000
O O2 0.872209 0.837449 0.972905
O O3 0.927064 0.922489 0.956778
O O4 0.784223 0.907233 0.000309
O O5 0.500000 0.500000 0.500000
O O6 0.500000 0.463362 0.750000
O O7 0.429579 0.303573 0.750000
O O8 0.500000 0.293697 0.989183
O O9 0.384944 0.242983 0.942997
O O10 0.216100 0.722756 0.750000
O O11 0.195283 0.666269 0.966054
O O12 0.250000 0.750000 0.000000
O O13 0.590991 0.033366 0.750000
O O14 0.500000 0.063312 0.948879
O O15 0.640831 0.085445 0.959380
O O16 0.603531 0.000000 0.000000
O O17 0.730386 0.110417 0.750000
#
# Coordination Sequence:
#
# PCOD8257079 Si02
#       6
#    16   8  16  16  16  16
#     4  10  19  34  55  76 100 138 181 219 259 312
#     4  10  22  38  56  78 106 138 182 230 271 316
#     4   9  16  29  51  75  98 131 177 215 245 295
#     4  10  19  31  50  76 105 137 170 208 255 303
#     4   9  19  37  58  78 105 138 173 215 264 317
#     4  10  21  34  52  82 113 137 170 220 270 314
#
# _framework density 17.961490000000001
#
# number of rings (size 3 to 8) (size 9 to 14) (size 15 to 20)
#    0.000    2.364    2.727    0.000    0.000    2.909 
#    0.000    7.273    0.000    1.636    0.000    2.545 
#    0.000    0.000    0.000    0.000    0.000    0.000 
#
# Total GULP energy -545463.284321 kJ/mol
# GULP energy per Si atom -12396.892825 kJ/mol
# Density = 1.792061 g / cm^3
# Si number density = 17.961490 Si / 1000 Ang^3
#
#
#
# Elastic Constant Matrix: (Units=GPa)
#
#
# Indices 1 2 3 4 5 6 
#
# 1 147.6567 80.4139 50.1726 0.0000 0.0000 0.0000
# 2 80.4139 130.2448 45.1345 0.0000 0.0000 0.0000
# 3 50.1726 45.1345 37.9833 0.0000 0.0000 0.0000
# 4 0.0000 0.0000 0.0000 26.0298 0.0000 0.0000
# 5 0.0000 0.0000 0.0000 0.0000 27.4772 0.0000
# 6 0.0000 0.0000 0.0000 0.0000 0.0000 28.2610
#
#
#
# Elastic Compliance Matrix: (Units=1/GPa)
#
#
# Indices 1 2 3 4 5 6 
#
# 1 0.013203 -0.003584 -0.013182 0.000000 0.000000 0.000000
# 2 -0.003584 0.014025 -0.011932 0.000000 0.000000 0.000000
# 3 -0.013182 -0.011932 0.057918 0.000000 0.000000 0.000000
# 4 0.000000 0.000000 0.000000 0.038418 0.000000 0.000000
# 5 0.000000 0.000000 0.000000 0.000000 0.036394 0.000000
# 6 0.000000 0.000000 0.000000 0.000000 0.000000 0.035384
#
#
# Mechanical properties :
#
#
# Convention : Reuss Voigt Hill
#
# Bulk Modulus (GPa) = 36.03448 74.14741 55.09094
# Shear Modulus (GPa) = 19.08480 25.69784 22.39132
#
# Velocity S-wave (km/s) = 3.26320 3.78659 3.53459
# Velocity P-wave (km/s) = 5.85693 7.77744 6.88448
#
# Compressibility (1/GPa) = 0.02775120
#
# Stress axis : x y z
#
# Youngs Moduli (GPa) = 75.73865 71.29913 17.26578
#
# Poissons Ratio (x) = 0.25552 0.22759
# Poissons Ratio (y) = 0.27143 0.20602
# Poissons Ratio (z) = 0.99838 0.85075
#
# Static dielectric constant tensor:
#      x y z
#    x 3.320150 0.000000 0.000000 
#    y 0.000000 2.941520 0.000000 
#    z 0.000000 0.000000 3.063520 
# 
# 
# High freq. dielectric constant tensor:
#      x y z
#    x 1.706490 0.000000 0.000000 
#    y 0.000000 1.695040 0.000000 
#    z 0.000000 0.000000 1.669650 
# 
# From -- ./inp_files/6911.got.cif
#   From: 2010.03.12/outbox.cif.g09.slc.cpg/sg63_4_cif.got.tgz:6911.got - 2010.04.10 19:34:48.
