data_PCOD8257809
_publ_section_title
;
Structure prediction by ZEFSAII (Michael W. Deem and Ramdas Pophale) SiO2 
 PCOD8257809
Probable space group: C M C M
;
_chemical_formula_sum "Si O2"
_cell_formula_units_Z 112
_cell_length_a 15.498840
_cell_length_b 13.772827
_cell_length_c 27.817872
_cell_angle_alpha 90.000000
_cell_angle_beta 90.000000
_cell_angle_gamma 90.000000
_cell_volume 5938.082016
_symmetry_space_group_name_H-M "C M C M"
_symmetry_group_IT_number 63
_symmetry_cell_setting 'orthorhombic'
loop_
_space_group_symop_operation_xyz
x,y,z
-x,-y,1/2+z
x,-y,-z
-x,y,1/2-z
-x,-y,-z
x,y,1/2-z
-x,y,z
x,-y,1/2+z
1/2+x,1/2+y,z
1/2-x,1/2-y,1/2+z
1/2+x,1/2-y,-z
1/2-x,1/2+y,1/2-z
1/2-x,1/2-y,-z
1/2+x,1/2+y,1/2-z
1/2-x,1/2+y,z
1/2+x,1/2-y,1/2+z
loop_
_atom_site_type_symbol
_atom_site_label
_atom_site_fract_x
_atom_site_fract_y
_atom_site_fract_z
Si Si1 0.596795 0.871866 0.805724
Si Si2 0.902901 0.156116 0.120902
Si Si3 0.304082 0.498642 0.923487
Si Si4 0.675095 0.064868 0.655441
Si Si5 0.905531 0.654392 0.931755
Si Si6 0.252389 0.135781 0.996234
Si Si7 0.766805 0.765270 0.694161
O O1 0.584653 0.854598 0.750000
O O2 0.500000 0.857290 0.829416
O O3 0.669624 0.794635 0.824365
O O4 0.632406 0.980846 0.812976
O O5 0.891781 0.050219 0.096108
O O6 0.885745 0.231819 0.077362
O O7 0.836217 0.171969 0.164362
O O8 0.000000 0.165715 0.141110
O O9 0.253041 0.525902 0.876134
O O10 0.320430 0.590426 0.959507
O O11 0.250682 0.415111 0.952299
O O12 0.600808 0.104867 0.620495
O O13 0.714870 0.150782 0.688201
O O14 0.841931 0.607208 0.970392
O O15 0.000000 0.638377 0.953104
O O16 0.250000 0.250000 0.000000
O O17 0.776994 0.793889 0.750000
#
# Coordination Sequence:
#
# PCOD8257809 Si02
#       7
#    16  16  16  16  16  16  16
#     4  10  20  35  58  87 115 147 192 242 290 348
#     4  10  19  35  57  82 112 144 186 236 285 342
#     4  10  20  34  54  82 107 149 186 229 281 335
#     4  10  19  34  57  81 114 152 190 231 288 342
#     4   9  18  32  53  80 109 143 182 231 282 330
#     4  10  19  34  55  76 110 147 185 225 280 334
#     4  10  21  37  58  84 117 154 191 238 295 348
#
# _framework density 18.861308999999999
#
# number of rings (size 3 to 8) (size 9 to 14) (size 15 to 20)
#    0.000    2.143    2.857    0.857    0.000    0.857 
#    0.000    9.286    0.000    0.000    0.000    0.000 
#    0.000    0.000    0.000    0.000    0.000    0.000 
#
# Total GULP energy -693800.833571 kJ/mol
# GULP energy per Si atom -12389.300599 kJ/mol
# Density = 1.881838 g / cm^3
# Si number density = 18.861309 Si / 1000 Ang^3
#
#
#
# Elastic Constant Matrix: (Units=GPa)
#
#
# Indices 1 2 3 4 5 6 
#
# 1 100.9402 31.8022 28.3289 0.0000 0.0000 0.0000
# 2 31.8022 87.6537 19.6633 0.0000 0.0000 0.0000
# 3 28.3289 19.6633 52.9426 0.0000 0.0000 0.0000
# 4 0.0000 0.0000 0.0000 25.3630 0.0000 0.0000
# 5 0.0000 0.0000 0.0000 0.0000 19.9927 0.0000
# 6 0.0000 0.0000 0.0000 0.0000 0.0000 19.7081
#
#
#
# Elastic Compliance Matrix: (Units=1/GPa)
#
#
# Indices 1 2 3 4 5 6 
#
# 1 0.012477 -0.003305 -0.005449 0.000000 0.000000 0.000000
# 2 -0.003305 0.013321 -0.003179 0.000000 0.000000 0.000000
# 3 -0.005449 -0.003179 0.022985 0.000000 0.000000 0.000000
# 4 0.000000 0.000000 0.000000 0.039428 0.000000 0.000000
# 5 0.000000 0.000000 0.000000 0.000000 0.050018 0.000000
# 6 0.000000 0.000000 0.000000 0.000000 0.000000 0.050741
#
#
# Mechanical properties :
#
#
# Convention : Reuss Voigt Hill
#
# Bulk Modulus (GPa) = 40.13295 44.56946 42.35121
# Shear Modulus (GPa) = 22.61005 23.79556 23.20281
#
# Velocity S-wave (km/s) = 3.46606 3.55576 3.51120
# Velocity P-wave (km/s) = 6.11083 6.36705 6.24025
#
# Compressibility (1/GPa) = 0.02491718
#
# Stress axis : x y z
#
# Youngs Moduli (GPa) = 80.14566 75.07131 43.50691
#
# Poissons Ratio (x) = 0.24808 0.23707
# Poissons Ratio (y) = 0.26485 0.13832
# Poissons Ratio (z) = 0.43672 0.23866
#
# Static dielectric constant tensor:
#      x y z
#    x 3.502240 0.000000 0.000000 
#    y 0.000000 3.639490 0.000000 
#    z 0.000000 0.000000 3.349350 
# 
# 
# High freq. dielectric constant tensor:
#      x y z
#    x 1.718060 0.000000 0.000000 
#    y 0.000000 1.735730 0.000000 
#    z 0.000000 0.000000 1.723180 
# 
# From -- ./inp_files/73557.got.cif
#   From: 2010.03.12/outbox.cif.g09.slc.cpg/sg63_37_cif.got.tgz:73557.got - 2010.04.10 19:34:48.
