data_PCOD8257469
_publ_section_title
;
Structure prediction by ZEFSAII (Michael W. Deem and Ramdas Pophale) SiO2 
 PCOD8257469
Probable space group: C M C M
;
_chemical_formula_sum "Si O2"
_cell_formula_units_Z 112
_cell_length_a 23.882983
_cell_length_b 14.342398
_cell_length_c 15.033080
_cell_angle_alpha 90.000000
_cell_angle_beta 90.000000
_cell_angle_gamma 90.000000
_cell_volume 5149.419913
_symmetry_space_group_name_H-M "C M C M"
_symmetry_group_IT_number 63
_symmetry_cell_setting 'orthorhombic'
loop_
_space_group_symop_operation_xyz
x,y,z
-x,-y,1/2+z
x,-y,-z
-x,y,1/2-z
-x,-y,-z
x,y,1/2-z
-x,y,z
x,-y,1/2+z
1/2+x,1/2+y,z
1/2-x,1/2-y,1/2+z
1/2+x,1/2-y,-z
1/2-x,1/2+y,1/2-z
1/2-x,1/2-y,-z
1/2+x,1/2+y,1/2-z
1/2-x,1/2+y,z
1/2+x,1/2-y,1/2+z
loop_
_atom_site_type_symbol
_atom_site_label
_atom_site_fract_x
_atom_site_fract_y
_atom_site_fract_z
Si Si1 0.065550 0.225035 0.516470
Si Si2 0.114527 0.870616 0.650693
Si Si3 0.879380 0.080129 0.649429
Si Si4 0.326382 0.998413 0.894154
Si Si5 0.761141 0.141735 0.602217
Si Si6 0.760611 0.847987 0.607870
Si Si7 0.939236 0.568607 0.419545
O O1 0.088714 0.203602 0.417886
O O2 0.093752 0.156500 0.586328
O O3 0.080888 0.330803 0.542878
O O4 0.000000 0.207590 0.516878
O O5 0.090818 0.850369 0.750000
O O6 0.181127 0.862573 0.656433
O O7 0.099871 0.976777 0.621377
O O8 0.898424 0.101349 0.750000
O O9 0.811994 0.083934 0.644146
O O10 0.298456 0.096825 0.866049
O O11 0.285305 0.919635 0.856356
O O12 0.389428 0.975482 0.857629
O O13 0.331892 0.000000 0.000000
O O14 0.768950 0.137474 0.496696
O O15 0.762791 0.247154 0.634763
O O16 0.950100 0.500000 0.500000
O O17 0.000000 0.578325 0.369174
#
# Coordination Sequence:
#
# PCOD8257469 Si02
#       7
#    16  16  16  16  16  16  16
#     4  11  24  42  67  92 121 169 215 255 314 374
#     4  11  24  39  60  90 126 164 207 258 316 375
#     4  11  23  40  62  92 130 164 204 262 318 374
#     4   9  17  28  52  88 116 158 202 242 300 365
#     4  10  19  32  57  88 119 165 205 247 310 377
#     4  10  19  32  56  85 120 162 203 250 305 368
#     4   9  19  36  60  95 128 159 210 261 305 366
#
# _framework density 21.750022999999999
#
# number of rings (size 3 to 8) (size 9 to 14) (size 15 to 20)
#    0.000    1.857    2.857    1.286    6.000    2.286 
#    0.000    1.429    0.000    0.857    0.000    4.000 
#    0.000    0.000    0.000    0.000    0.000    0.000 
#
# Total GULP energy -694034.875947 kJ/mol
# GULP energy per Si atom -12393.479928 kJ/mol
# Density = 2.170052 g / cm^3
# Si number density = 21.750023 Si / 1000 Ang^3
#
#
#
# Elastic Constant Matrix: (Units=GPa)
#
#
# Indices 1 2 3 4 5 6 
#
# 1 124.6936 18.4721 13.0077 0.0000 0.0000 0.0000
# 2 18.4721 84.4232 16.4098 0.0000 0.0000 0.0000
# 3 13.0077 16.4098 59.9454 0.0000 0.0000 0.0000
# 4 0.0000 0.0000 0.0000 -0.8729 0.0000 0.0000
# 5 0.0000 0.0000 0.0000 0.0000 -2.1718 0.0000
# 6 0.0000 0.0000 0.0000 0.0000 0.0000 27.5300
#
#
#
# Elastic Compliance Matrix: (Units=1/GPa)
#
#
# Indices 1 2 3 4 5 6 
#
# 1 0.008397 -0.001566 -0.001393 0.000000 0.000000 0.000000
# 2 -0.001566 0.012803 -0.003165 0.000000 0.000000 0.000000
# 3 -0.001393 -0.003165 0.017851 0.000000 0.000000 0.000000
# 4 0.000000 0.000000 0.000000 -1.145628 0.000000 0.000000
# 5 0.000000 0.000000 0.000000 0.000000 -0.460451 0.000000
# 6 0.000000 0.000000 0.000000 0.000000 0.000000 0.036324
#
#
# Mechanical properties :
#
#
# Convention : Reuss Voigt Hill
#
# Bulk Modulus (GPa) = 37.31151 40.53791 38.92471
# Shear Modulus (GPa) = -3.31231 19.64193 8.16481
#
# Velocity S-wave (km/s) = -1.23540 3.00838 1.93961
# Velocity P-wave (km/s) = 3.89320 5.54488 4.79076
#
# Compressibility (1/GPa) = 0.02680138
#
# Stress axis : x y z
#
# Youngs Moduli (GPa) = 119.08935 78.10666 56.02076
#
# Poissons Ratio (x) = 0.12235 0.07805
# Poissons Ratio (y) = 0.18655 0.17730
# Poissons Ratio (z) = 0.16592 0.24720
#
# Static dielectric constant tensor:
#      x y z
#    x 4.343830 0.000000 0.000000 
#    y 0.000000 4.175050 0.000000 
#    z 0.000000 0.000000 3.619230 
# 
# 
# High freq. dielectric constant tensor:
#      x y z
#    x 1.857180 0.000000 0.000000 
#    y 0.000000 1.867390 0.000000 
#    z 0.000000 0.000000 1.818370 
# 
# From -- ./inp_files/37937.got.cif
#   From: 2010.03.12/outbox.cif.g09.slc.cpg/sg63_19_cif.got.tgz:37937.got - 2010.04.10 19:34:48.
