data_PCOD8257692
_publ_section_title
;
Structure prediction by ZEFSAII (Michael W. Deem and Ramdas Pophale) SiO2 
 PCOD8257692
Probable space group: C M C M
;
_chemical_formula_sum "Si O2"
_cell_formula_units_Z 112
_cell_length_a 28.209978
_cell_length_b 11.108823
_cell_length_c 17.815898
_cell_angle_alpha 90.000000
_cell_angle_beta 90.000000
_cell_angle_gamma 90.000000
_cell_volume 5583.139923
_symmetry_space_group_name_H-M "C M C M"
_symmetry_group_IT_number 63
_symmetry_cell_setting 'orthorhombic'
loop_
_space_group_symop_operation_xyz
x,y,z
-x,-y,1/2+z
x,-y,-z
-x,y,1/2-z
-x,-y,-z
x,y,1/2-z
-x,y,z
x,-y,1/2+z
1/2+x,1/2+y,z
1/2-x,1/2-y,1/2+z
1/2+x,1/2-y,-z
1/2-x,1/2+y,1/2-z
1/2-x,1/2-y,-z
1/2+x,1/2+y,1/2-z
1/2-x,1/2+y,z
1/2+x,1/2-y,1/2+z
loop_
_atom_site_type_symbol
_atom_site_label
_atom_site_fract_x
_atom_site_fract_y
_atom_site_fract_z
Si Si1 0.551726 0.375177 0.332345
Si Si2 0.054055 0.288746 0.099211
Si Si3 0.112887 0.480905 0.165679
Si Si4 0.115239 0.096606 0.335312
Si Si5 0.552768 0.149292 0.430422
Si Si6 0.722636 0.637399 0.338592
Si Si7 0.717767 0.909258 0.161227
O O1 0.555208 0.311126 0.250000
O O2 0.500000 0.441472 0.336967
O O3 0.596535 0.461492 0.339950
O O4 0.554240 0.284275 0.400924
O O5 0.073514 0.376930 0.163433
O O6 0.084024 0.167568 0.104380
O O7 0.000000 0.256617 0.115056
O O8 0.061524 0.353020 0.019174
O O9 0.116537 0.532682 0.250000
O O10 0.096285 0.584008 0.109361
O O11 0.162908 0.426275 0.138916
O O12 0.109798 0.146960 0.250000
O O13 0.169391 0.102663 0.360985
O O14 0.500000 0.093341 0.413260
O O15 0.729843 0.639218 0.250000
O O16 0.734400 0.774948 0.368693
O O17 0.754382 0.526722 0.372473
O O18 0.724436 0.908238 0.250000
#
# Coordination Sequence:
#
# PCOD8257692 Si02
#       7
#    16  16  16  16  16  16  16
#     4   9  18  33  53  79 111 145 184 231 279 331
#     4  11  22  35  54  81 114 151 189 226 275 338
#     4  11  21  35  56  82 109 141 186 235 284 333
#     4  10  19  33  55  83 112 143 185 233 281 330
#     4  10  22  37  52  77 113 152 190 226 274 340
#     4   9  17  32  53  81 114 143 180 236 291 340
#     4   9  18  32  53  81 111 141 180 235 292 341
#
# _framework density 20.060396999999998
#
# number of rings (size 3 to 8) (size 9 to 14) (size 15 to 20)
#    0.000    2.143    1.429    2.143    0.000    6.000 
#    0.000    6.429    0.000    0.857    3.714    0.000 
#    0.000    0.000    0.000    0.000    0.000    0.000 
#
# Total GULP energy -693848.337160 kJ/mol
# GULP energy per Si atom -12390.148878 kJ/mol
# Density = 2.001474 g / cm^3
# Si number density = 20.060397 Si / 1000 Ang^3
#
#
#
# Elastic Constant Matrix: (Units=GPa)
#
#
# Indices 1 2 3 4 5 6 
#
# 1 105.7888 57.2902 34.3465 0.0000 0.0000 0.0000
# 2 57.2902 109.0480 16.2693 0.0000 0.0000 0.0000
# 3 34.3465 16.2693 25.1207 0.0000 0.0000 0.0000
# 4 0.0000 0.0000 0.0000 23.0381 0.0000 0.0000
# 5 0.0000 0.0000 0.0000 0.0000 16.1130 0.0000
# 6 0.0000 0.0000 0.0000 0.0000 0.0000 35.3955
#
#
#
# Elastic Compliance Matrix: (Units=1/GPa)
#
#
# Indices 1 2 3 4 5 6 
#
# 1 0.021570 -0.007674 -0.024522 0.000000 0.000000 0.000000
# 2 -0.007674 0.012881 0.002150 0.000000 0.000000 0.000000
# 3 -0.024522 0.002150 0.071944 0.000000 0.000000 0.000000
# 4 0.000000 0.000000 0.000000 0.043406 0.000000 0.000000
# 5 0.000000 0.000000 0.000000 0.000000 0.062062 0.000000
# 6 0.000000 0.000000 0.000000 0.000000 0.000000 0.028252
#
#
# Mechanical properties :
#
#
# Convention : Reuss Voigt Hill
#
# Bulk Modulus (GPa) = 21.59717 50.64108 36.11912
# Shear Modulus (GPa) = 15.84076 23.71277 19.77677
#
# Velocity S-wave (km/s) = 2.81313 3.44185 3.14325
# Velocity P-wave (km/s) = 4.61963 6.41048 5.58727
#
# Compressibility (1/GPa) = 0.04630236
#
# Stress axis : x y z
#
# Youngs Moduli (GPa) = 46.36050 77.63332 13.89978
#
# Poissons Ratio (x) = 0.59573 0.34085
# Poissons Ratio (y) = 0.35576 -0.02988
# Poissons Ratio (z) = 1.13686 -0.16688
#
# Static dielectric constant tensor:
#      x y z
#    x 3.736090 0.000000 0.000000 
#    y 0.000000 3.804730 0.000000 
#    z 0.000000 0.000000 3.334630 
# 
# 
# High freq. dielectric constant tensor:
#      x y z
#    x 1.782730 0.000000 0.000000 
#    y 0.000000 1.786040 0.000000 
#    z 0.000000 0.000000 1.743060 
# 
# From -- ./inp_files/38570.got.cif
#   From: 2010.03.12/outbox.cif.g09.slc.cpg/sg63_20_cif.got.tgz:38570.got - 2010.04.10 19:34:48.
