data_PCOD8257913
_publ_section_title
;
Structure prediction by ZEFSAII (Michael W. Deem and Ramdas Pophale) SiO2 
 PCOD8257913
Probable space group: C M C M
;
_chemical_formula_sum "Si O2"
_cell_formula_units_Z 96
_cell_length_a 21.640784
_cell_length_b 24.509678
_cell_length_c 9.020033
_cell_angle_alpha 90.000000
_cell_angle_beta 90.000000
_cell_angle_gamma 90.000000
_cell_volume 4784.303504
_symmetry_space_group_name_H-M "C M C M"
_symmetry_group_IT_number 63
_symmetry_cell_setting 'orthorhombic'
loop_
_space_group_symop_operation_xyz
x,y,z
-x,-y,1/2+z
x,-y,-z
-x,y,1/2-z
-x,-y,-z
x,y,1/2-z
-x,y,z
x,-y,1/2+z
1/2+x,1/2+y,z
1/2-x,1/2-y,1/2+z
1/2+x,1/2-y,-z
1/2-x,1/2+y,1/2-z
1/2-x,1/2-y,-z
1/2+x,1/2+y,1/2-z
1/2-x,1/2+y,z
1/2+x,1/2-y,1/2+z
loop_
_atom_site_type_symbol
_atom_site_label
_atom_site_fract_x
_atom_site_fract_y
_atom_site_fract_z
Si Si1 0.902185 0.662161 0.418939
Si Si2 0.761409 0.695637 0.414730
Si Si3 0.096467 0.053674 0.921846
Si Si4 0.500000 0.355938 0.424624
Si Si5 0.635308 0.944365 0.074551
Si Si6 0.500000 0.762118 0.072175
Si Si7 0.229001 0.092768 0.578770
O O1 0.927022 0.655786 0.250000
O O2 0.833044 0.682702 0.417691
O O3 0.905060 0.604157 0.503116
O O4 0.940430 0.706762 0.509456
O O5 0.736041 0.702851 0.250000
O O6 0.750000 0.750000 0.500000
O O7 0.721921 0.648155 0.488512
O O8 0.085267 0.044381 0.750000
O O9 0.169096 0.057367 0.961865
O O10 0.060233 0.108464 0.969928
O O11 0.069179 0.000000 0.000000
O O12 0.500000 0.341352 0.250000
O O13 0.500000 0.300260 0.517271
O O14 0.623671 0.945599 0.250000
O O15 0.708124 0.938547 0.035744
O O16 0.611734 0.000000 0.000000
O O17 0.500000 0.763300 0.250000
O O18 0.229780 0.109130 0.750000
#
# Coordination Sequence:
#
# PCOD8257913 Si02
#       7
#    16  16  16   8  16   8  16
#     4  10  22  41  62  85 116 157 196 238 295 352
#     4  10  21  35  56  84 116 152 192 240 291 348
#     4  10  21  37  58  83 115 154 197 246 294 345
#     4  10  23  41  59  81 113 156 201 244 297 354
#     4  10  19  34  58  88 122 155 193 240 290 350
#     4  12  26  43  64  89 117 150 197 250 296 348
#     4   9  19  34  53  82 117 154 195 238 290 349
#
# _framework density 20.065618000000001
#
# number of rings (size 3 to 8) (size 9 to 14) (size 15 to 20)
#    0.000    2.000    0.000    3.000    2.333    4.000 
#    0.000    0.417    0.000    0.000    0.000    0.000 
#    0.000    0.000    0.000    0.000    0.000    0.000 
#
# Total GULP energy -595209.650771 kJ/mol
# GULP energy per Si atom -12400.201058 kJ/mol
# Density = 2.001995 g / cm^3
# Si number density = 20.065618 Si / 1000 Ang^3
#
#
#
# Elastic Constant Matrix: (Units=GPa)
#
#
# Indices 1 2 3 4 5 6 
#
# 1 55.1923 31.8082 28.2632 0.0000 0.0000 0.0000
# 2 31.8082 176.6467 87.7334 0.0000 0.0000 0.0000
# 3 28.2632 87.7334 117.3786 0.0000 0.0000 0.0000
# 4 0.0000 0.0000 0.0000 45.5402 0.0000 0.0000
# 5 0.0000 0.0000 0.0000 0.0000 22.4356 0.0000
# 6 0.0000 0.0000 0.0000 0.0000 0.0000 20.1512
#
#
#
# Elastic Compliance Matrix: (Units=1/GPa)
#
#
# Indices 1 2 3 4 5 6 
#
# 1 0.021115 -0.002031 -0.003566 0.000000 0.000000 0.000000
# 2 -0.002031 0.009199 -0.006386 0.000000 0.000000 0.000000
# 3 -0.003566 -0.006386 0.014152 0.000000 0.000000 0.000000
# 4 0.000000 0.000000 0.000000 0.021959 0.000000 0.000000
# 5 0.000000 0.000000 0.000000 0.000000 0.044572 0.000000
# 6 0.000000 0.000000 0.000000 0.000000 0.000000 0.049625
#
#
# Mechanical properties :
#
#
# Convention : Reuss Voigt Hill
#
# Bulk Modulus (GPa) = 48.78476 71.64746 60.21611
# Shear Modulus (GPa) = 26.12051 31.05293 28.58672
#
# Velocity S-wave (km/s) = 3.61190 3.93818 3.77856
# Velocity P-wave (km/s) = 6.46218 7.51420 7.00796
#
# Compressibility (1/GPa) = 0.02049820
#
# Stress axis : x y z
#
# Youngs Moduli (GPa) = 47.35940 108.71264 70.66361
#
# Poissons Ratio (x) = 0.22078 0.25201
# Poissons Ratio (y) = 0.09618 0.45128
# Poissons Ratio (z) = 0.16890 0.69428
#
# Static dielectric constant tensor:
#      x y z
#    x 3.566680 0.000000 0.000000 
#    y 0.000000 3.516670 0.000000 
#    z 0.000000 0.000000 3.804170 
# 
# 
# High freq. dielectric constant tensor:
#      x y z
#    x 1.775470 0.000000 0.000000 
#    y 0.000000 1.792120 0.000000 
#    z 0.000000 0.000000 1.788690 
# 
# From -- ./inp_files/10551.got.cif
#   From: 2010.03.12/outbox.cif.g09.slc.cpg/sg63_6_cif.got.tgz:10551.got - 2010.04.10 19:34:48.
