data_PCOD8257277
_publ_section_title
;
Structure prediction by ZEFSAII (Michael W. Deem and Ramdas Pophale) SiO2 
 PCOD8257277
Probable space group: C M C M
;
_chemical_formula_sum "Si O2"
_cell_formula_units_Z 80
_cell_length_a 23.294418
_cell_length_b 24.108818
_cell_length_c 8.624844
_cell_angle_alpha 90.000000
_cell_angle_beta 90.000000
_cell_angle_gamma 90.000000
_cell_volume 4843.720015
_symmetry_space_group_name_H-M "C M C M"
_symmetry_group_IT_number 63
_symmetry_cell_setting 'orthorhombic'
loop_
_space_group_symop_operation_xyz
x,y,z
-x,-y,1/2+z
x,-y,-z
-x,y,1/2-z
-x,-y,-z
x,y,1/2-z
-x,y,z
x,-y,1/2+z
1/2+x,1/2+y,z
1/2-x,1/2-y,1/2+z
1/2+x,1/2-y,-z
1/2-x,1/2+y,1/2-z
1/2-x,1/2-y,-z
1/2+x,1/2+y,1/2-z
1/2-x,1/2+y,z
1/2+x,1/2-y,1/2+z
loop_
_atom_site_type_symbol
_atom_site_label
_atom_site_fract_x
_atom_site_fract_y
_atom_site_fract_z
Si Si1 0.112037 0.941965 0.066177
Si Si2 0.226204 0.665406 0.930765
Si Si3 0.237597 0.057072 0.432600
Si Si4 0.336453 0.263241 0.068528
Si Si5 0.565684 0.666669 0.072425
O O1 0.110767 0.943357 0.250000
O O2 0.176529 0.930898 0.010895
O O3 0.071455 0.893307 0.005858
O O4 0.088311 0.000000 0.000000
O O5 0.222059 0.652704 0.750000
O O6 0.286658 0.693470 0.976639
O O7 0.220448 0.607708 0.023814
O O8 0.174155 0.705235 0.981021
O O9 0.229712 0.051644 0.250000
O O10 0.263873 0.000000 0.500000
O O11 0.336834 0.251387 0.250000
O O12 0.397117 0.287476 0.016079
O O13 0.586159 0.662862 0.250000
O O14 0.500000 0.685842 0.059603
#
# Coordination Sequence:
#
# PCOD8257277 Si02
#       5
#    16  16  16  16  16
#     4  11  21  34  50  68  92 126 166 209 251 291
#     4  10  19  32  51  74 100 128 160 200 245 296
#     4  11  20  31  49  72 101 131 163 201 244 292
#     4  10  20  33  51  73  97 127 163 202 247 294
#     4  11  23  37  52  70  95 128 166 209 252 293
#
# _framework density 16.516231999999999
#
# number of rings (size 3 to 8) (size 9 to 14) (size 15 to 20)
#    0.000    1.400    2.000    6.600    0.000    3.600 
#    0.000    0.000    0.000    0.000    0.000    0.000 
#    0.000    0.800    0.000    3.000    0.000    4.600 
#
# Total GULP energy -496187.997836 kJ/mol
# GULP energy per Si atom -12404.699946 kJ/mol
# Density = 1.647864 g / cm^3
# Si number density = 16.516232 Si / 1000 Ang^3
#
#
#
# Elastic Constant Matrix: (Units=GPa)
#
#
# Indices 1 2 3 4 5 6 
#
# 1 48.2800 30.8893 6.9394 0.0000 0.0000 0.0000
# 2 30.8893 92.2350 14.8272 0.0000 0.0000 0.0000
# 3 6.9394 14.8272 68.3673 0.0000 0.0000 0.0000
# 4 0.0000 0.0000 0.0000 33.2052 0.0000 0.0000
# 5 0.0000 0.0000 0.0000 0.0000 21.4793 0.0000
# 6 0.0000 0.0000 0.0000 0.0000 0.0000 98.5969
#
#
#
# Elastic Compliance Matrix: (Units=1/GPa)
#
#
# Indices 1 2 3 4 5 6 
#
# 1 0.026402 -0.008715 -0.000790 0.000000 0.000000 0.000000
# 2 -0.008715 0.014110 -0.002176 0.000000 0.000000 0.000000
# 3 -0.000790 -0.002176 0.015179 0.000000 0.000000 0.000000
# 4 0.000000 0.000000 0.000000 0.030116 0.000000 0.000000
# 5 0.000000 0.000000 0.000000 0.000000 0.046557 0.000000
# 6 0.000000 0.000000 0.000000 0.000000 0.000000 0.010142
#
#
# Mechanical properties :
#
#
# Convention : Reuss Voigt Hill
#
# Bulk Modulus (GPa) = 30.93075 34.91046 32.92060
# Shear Modulus (GPa) = 28.30568 41.07135 34.68851
#
# Velocity S-wave (km/s) = 4.14431 4.99212 4.58784
# Velocity P-wave (km/s) = 6.45512 7.37640 6.93108
#
# Compressibility (1/GPa) = 0.03233029
#
# Stress axis : x y z
#
# Youngs Moduli (GPa) = 37.87616 70.87053 65.88107
#
# Poissons Ratio (x) = 0.61763 0.05203
# Poissons Ratio (y) = 0.33009 0.14333
# Poissons Ratio (z) = 0.02991 0.15418
#
# Static dielectric constant tensor:
#      x y z
#    x 2.750350 0.000000 0.000000 
#    y 0.000000 3.201510 0.000000 
#    z 0.000000 0.000000 3.253130 
# 
# 
# High freq. dielectric constant tensor:
#      x y z
#    x 1.584700 0.000000 0.000000 
#    y 0.000000 1.638200 0.000000 
#    z 0.000000 0.000000 1.660620 
# 
# From -- ./inp_files/6453.got.cif
#   From: 2010.03.12/outbox.cif.g09.slc.cpg/sg63_4_cif.got.tgz:6453.got - 2010.04.10 19:34:48.
