data_PCOD8257525
_publ_section_title
;
Structure prediction by ZEFSAII (Michael W. Deem and Ramdas Pophale) SiO2 
 PCOD8257525
Probable space group: C M C M
;
_chemical_formula_sum "Si O2"
_cell_formula_units_Z 80
_cell_length_a 13.261991
_cell_length_b 24.294708
_cell_length_c 13.542610
_cell_angle_alpha 90.000000
_cell_angle_beta 90.000000
_cell_angle_gamma 90.000000
_cell_volume 4363.377464
_symmetry_space_group_name_H-M "C M C M"
_symmetry_group_IT_number 63
_symmetry_cell_setting 'orthorhombic'
loop_
_space_group_symop_operation_xyz
x,y,z
-x,-y,1/2+z
x,-y,-z
-x,y,1/2-z
-x,-y,-z
x,y,1/2-z
-x,y,z
x,-y,1/2+z
1/2+x,1/2+y,z
1/2-x,1/2-y,1/2+z
1/2+x,1/2-y,-z
1/2-x,1/2+y,1/2-z
1/2-x,1/2-y,-z
1/2+x,1/2+y,1/2-z
1/2-x,1/2+y,z
1/2+x,1/2-y,1/2+z
loop_
_atom_site_type_symbol
_atom_site_label
_atom_site_fract_x
_atom_site_fract_y
_atom_site_fract_z
Si Si1 0.285939 0.205951 0.866333
Si Si2 0.883553 0.799155 0.980477
Si Si3 0.388867 0.094254 0.865589
Si Si4 0.797312 0.024693 0.863336
Si Si5 0.614791 0.422751 0.545268
O O1 0.265475 0.204808 0.750000
O O2 0.359715 0.256256 0.893346
O O3 0.337170 0.149859 0.906196
O O4 0.179603 0.214289 0.921213
O O5 0.856504 0.859456 0.938164
O O6 0.000000 0.795934 0.010982
O O7 0.402279 0.101888 0.750000
O O8 0.500000 0.085631 0.913877
O O9 0.317936 0.041816 0.889042
O O10 0.823299 0.037582 0.750000
O O11 0.811256 0.960094 0.887499
O O12 0.872713 0.060947 0.930020
O O13 0.500000 0.434329 0.577099
#
# Coordination Sequence:
#
# PCOD8257525 Si02
#       5
#    16  16  16  16  16
#     4  10  20  36  57  81 110 141 178 227 275 326
#     4  10  21  36  56  81 110 144 182 225 274 327
#     4   9  17  31  53  78 101 131 176 224 267 314
#     4  10  19  33  52  74 106 143 178 218 264 312
#     4  10  21  35  51  77 111 140 176 220 262 320
#
# _framework density 18.334420999999999
#
# number of rings (size 3 to 8) (size 9 to 14) (size 15 to 20)
#    0.000    2.200    2.000    1.800    0.000    4.000 
#    0.000    6.000    0.000    0.000    0.000    2.800 
#    0.000    0.000    0.000    0.000    0.000    0.000 
#
# Total GULP energy -495923.064482 kJ/mol
# GULP energy per Si atom -12398.076612 kJ/mol
# Density = 1.829269 g / cm^3
# Si number density = 18.334421 Si / 1000 Ang^3
#
#
#
# Elastic Constant Matrix: (Units=GPa)
#
#
# Indices 1 2 3 4 5 6 
#
# 1 103.3981 60.2136 24.6808 0.0000 0.0000 0.0000
# 2 60.2136 122.6416 32.1703 0.0000 0.0000 0.0000
# 3 24.6808 32.1703 56.9860 0.0000 0.0000 0.0000
# 4 0.0000 0.0000 0.0000 22.5085 0.0000 0.0000
# 5 0.0000 0.0000 0.0000 0.0000 20.7711 0.0000
# 6 0.0000 0.0000 0.0000 0.0000 0.0000 32.1583
#
#
#
# Elastic Compliance Matrix: (Units=1/GPa)
#
#
# Indices 1 2 3 4 5 6 
#
# 1 0.013849 -0.006134 -0.002535 0.000000 0.000000 0.000000
# 2 -0.006134 0.012288 -0.004280 0.000000 0.000000 0.000000
# 3 -0.002535 -0.004280 0.021062 0.000000 0.000000 0.000000
# 4 0.000000 0.000000 0.000000 0.044428 0.000000 0.000000
# 5 0.000000 0.000000 0.000000 0.000000 0.048144 0.000000
# 6 0.000000 0.000000 0.000000 0.000000 0.000000 0.031096
#
#
# Mechanical properties :
#
#
# Convention : Reuss Voigt Hill
#
# Bulk Modulus (GPa) = 46.94766 57.46168 52.20467
# Shear Modulus (GPa) = 24.52582 26.15165 25.33873
#
# Velocity S-wave (km/s) = 3.66142 3.78083 3.72160
# Velocity P-wave (km/s) = 6.59822 7.10412 6.85584
#
# Compressibility (1/GPa) = 0.02130031
#
# Stress axis : x y z
#
# Youngs Moduli (GPa) = 72.20838 81.37715 47.47798
#
# Poissons Ratio (x) = 0.49920 0.12035
# Poissons Ratio (y) = 0.44296 0.20322
# Poissons Ratio (z) = 0.18304 0.34832
#
# Static dielectric constant tensor:
#      x y z
#    x 3.540270 0.000000 0.000000 
#    y 0.000000 3.536620 0.000000 
#    z 0.000000 0.000000 3.105060 
# 
# 
# High freq. dielectric constant tensor:
#      x y z
#    x 1.713050 0.000000 0.000000 
#    y 0.000000 1.717300 0.000000 
#    z 0.000000 0.000000 1.683620 
# 
# From -- ./inp_files/29703.got.cif
#   From: 2010.03.12/outbox.cif.g09.slc.cpg/sg63_15_cif.got.tgz:29703.got - 2010.04.10 19:34:48.
