data_PCOD8257443
_publ_section_title
;
Structure prediction by ZEFSAII (Michael W. Deem and Ramdas Pophale) SiO2 
 PCOD8257443
Probable space group: C M C M
;
_chemical_formula_sum "Si O2"
_cell_formula_units_Z 96
_cell_length_a 9.525882
_cell_length_b 29.958740
_cell_length_c 19.026793
_cell_angle_alpha 90.000000
_cell_angle_beta 90.000000
_cell_angle_gamma 90.000000
_cell_volume 5429.931298
_symmetry_space_group_name_H-M "C M C M"
_symmetry_group_IT_number 63
_symmetry_cell_setting 'orthorhombic'
loop_
_space_group_symop_operation_xyz
x,y,z
-x,-y,1/2+z
x,-y,-z
-x,y,1/2-z
-x,-y,-z
x,y,1/2-z
-x,y,z
x,-y,1/2+z
1/2+x,1/2+y,z
1/2-x,1/2-y,1/2+z
1/2+x,1/2-y,-z
1/2-x,1/2+y,1/2-z
1/2-x,1/2-y,-z
1/2+x,1/2+y,1/2-z
1/2-x,1/2+y,z
1/2+x,1/2-y,1/2+z
loop_
_atom_site_type_symbol
_atom_site_label
_atom_site_fract_x
_atom_site_fract_y
_atom_site_fract_z
Si Si1 0.662890 0.056641 0.169610
Si Si2 0.661215 0.134312 0.433983
Si Si3 0.836658 0.735995 0.432495
Si Si4 0.662045 0.388091 0.430708
Si Si5 0.338381 0.509995 0.578624
Si Si6 0.833921 0.811789 0.328028
O O1 0.710312 0.061243 0.250000
O O2 0.500000 0.044178 0.162922
O O3 0.695922 0.103853 0.133060
O O4 0.749007 0.017014 0.134503
O O5 0.500000 0.129341 0.457465
O O6 0.695526 0.185002 0.412235
O O7 0.755265 0.118220 0.497748
O O8 0.750000 0.750000 0.500000
O O9 0.788185 0.766357 0.367040
O O10 0.000000 0.743819 0.449668
O O11 0.500000 0.377537 0.447317
O O12 0.681309 0.438130 0.402675
O O13 0.721796 0.354489 0.371651
O O14 0.283207 0.500000 0.500000
O O15 0.500000 0.494981 0.584842
O O16 0.766427 0.812239 0.250000
O O17 0.000000 0.814574 0.321516
#
# Coordination Sequence:
#
# PCOD8257443 Si02
#       6
#    16  16  16  16  16  16
#     4  10  22  38  54  77 111 146 179 219 268 318
#     4  10  20  33  53  80 106 137 177 220 263 311
#     4  10  19  32  54  80 104 136 176 218 261 312
#     4  10  19  33  55  80 105 136 176 220 262 315
#     4  10  20  34  55  82 107 137 180 224 267 315
#     4   9  18  32  51  77 106 135 169 213 264 312
#
# _framework density 17.679783
#
# number of rings (size 3 to 8) (size 9 to 14) (size 15 to 20)
#    0.000    2.167    3.333    0.000    0.000    2.667 
#    0.000    5.000    0.000    2.000    0.000    2.333 
#    0.000    0.000    0.000    0.000    0.000    0.000 
#
# Total GULP energy -595275.201092 kJ/mol
# GULP energy per Si atom -12401.566689 kJ/mol
# Density = 1.763954 g / cm^3
# Si number density = 17.679783 Si / 1000 Ang^3
#
#
#
# Elastic Constant Matrix: (Units=GPa)
#
#
# Indices 1 2 3 4 5 6 
#
# 1 47.0103 47.0870 54.7304 0.0000 0.0000 0.0000
# 2 47.0870 139.4544 76.2466 0.0000 0.0000 0.0000
# 3 54.7304 76.2466 163.5072 0.0000 0.0000 0.0000
# 4 0.0000 0.0000 0.0000 32.4837 0.0000 0.0000
# 5 0.0000 0.0000 0.0000 0.0000 25.2155 0.0000
# 6 0.0000 0.0000 0.0000 0.0000 0.0000 16.6463
#
#
#
# Elastic Compliance Matrix: (Units=1/GPa)
#
#
# Indices 1 2 3 4 5 6 
#
# 1 0.041298 -0.008572 -0.009826 0.000000 0.000000 0.000000
# 2 -0.008572 0.011404 -0.002449 0.000000 0.000000 0.000000
# 3 -0.009826 -0.002449 0.010547 0.000000 0.000000 0.000000
# 4 0.000000 0.000000 0.000000 0.030785 0.000000 0.000000
# 5 0.000000 0.000000 0.000000 0.000000 0.039658 0.000000
# 6 0.000000 0.000000 0.000000 0.000000 0.000000 0.060073
#
#
# Mechanical properties :
#
#
# Convention : Reuss Voigt Hill
#
# Bulk Modulus (GPa) = 46.39279 78.45556 62.42417
# Shear Modulus (GPa) = 20.60643 26.32964 23.46804
#
# Velocity S-wave (km/s) = 3.41770 3.86327 3.64729
# Velocity P-wave (km/s) = 6.47084 8.02322 7.28848
#
# Compressibility (1/GPa) = 0.02155507
#
# Stress axis : x y z
#
# Youngs Moduli (GPa) = 24.21450 87.68973 94.81434
#
# Poissons Ratio (x) = 0.75165 0.93167
# Poissons Ratio (y) = 0.20756 0.23217
# Poissons Ratio (z) = 0.23794 0.21472
#
# Static dielectric constant tensor:
#      x y z
#    x 3.134510 0.000000 0.000000 
#    y 0.000000 3.589120 0.000000 
#    z 0.000000 0.000000 3.378780 
# 
# 
# High freq. dielectric constant tensor:
#      x y z
#    x 1.661560 0.000000 0.000000 
#    y 0.000000 1.701470 0.000000 
#    z 0.000000 0.000000 1.679670 
# 
# From -- ./inp_files/42672.got.cif
#   From: 2010.03.12/outbox.cif.g09.slc.cpg/sg63_22_cif.got.tgz:42672.got - 2010.04.10 19:34:48.
