data_PCOD8257852
_publ_section_title
;
Structure prediction by ZEFSAII (Michael W. Deem and Ramdas Pophale) SiO2 
 PCOD8257852
Probable space group: C M C M
;
_chemical_formula_sum "Si O2"
_cell_formula_units_Z 80
_cell_length_a 8.658200
_cell_length_b 19.251493
_cell_length_c 25.873035
_cell_angle_alpha 90.000000
_cell_angle_beta 90.000000
_cell_angle_gamma 90.000000
_cell_volume 4312.602252
_symmetry_space_group_name_H-M "C M C M"
_symmetry_group_IT_number 63
_symmetry_cell_setting 'orthorhombic'
loop_
_space_group_symop_operation_xyz
x,y,z
-x,-y,1/2+z
x,-y,-z
-x,y,1/2-z
-x,-y,-z
x,y,1/2-z
-x,y,z
x,-y,1/2+z
1/2+x,1/2+y,z
1/2-x,1/2-y,1/2+z
1/2+x,1/2-y,-z
1/2-x,1/2+y,1/2-z
1/2-x,1/2-y,-z
1/2+x,1/2+y,1/2-z
1/2-x,1/2+y,z
1/2+x,1/2-y,1/2+z
loop_
_atom_site_type_symbol
_atom_site_label
_atom_site_fract_x
_atom_site_fract_y
_atom_site_fract_z
Si Si1 0.329191 0.080411 0.250000
Si Si2 0.182554 0.922277 0.642769
Si Si3 0.667922 0.083776 0.750000
Si Si4 0.821702 0.832861 0.053673
Si Si5 0.179652 0.670687 0.054224
Si Si6 0.683589 0.072463 0.639787
O O1 0.500000 0.115054 0.250000
O O2 0.236663 0.103540 0.300899
O O3 0.348428 0.998648 0.250000
O O4 0.249703 0.867784 0.602689
O O5 0.000000 0.921887 0.640490
O O6 0.241671 0.998463 0.627238
O O7 0.500000 0.119860 0.750000
O O8 0.750539 0.102414 0.695274
O O9 0.790953 0.751971 0.062627
O O10 0.722073 0.873426 0.095588
O O11 0.000000 0.852826 0.060011
O O12 0.765554 0.855800 0.997130
O O13 0.000000 0.653337 0.048421
O O14 0.500000 0.062041 0.644565
#
# Coordination Sequence:
#
# PCOD8257852 Si02
#       6
#     8  16   8  16  16  16
#     4   9  17  33  54  77 108 143 177 213 263 319
#     4  11  21  34  55  83 111 139 178 223 263 308
#     4   7  14  29  50  75 102 135 171 207 249 305
#     4  10  21  37  56  79 106 137 177 224 270 318
#     4  10  21  38  57  76 104 143 180 217 269 325
#     4  10  19  34  56  80 108 142 178 216 264 318
#
# _framework density 18.550286
#
# number of rings (size 3 to 8) (size 9 to 14) (size 15 to 20)
#    0.000    2.200    0.000    5.100    0.000    3.200 
#    0.000    6.500    0.000    4.800    0.000    0.000 
#    0.000    0.000    0.000    0.000    0.000    0.000 
#
# Total GULP energy -495872.270564 kJ/mol
# GULP energy per Si atom -12396.806764 kJ/mol
# Density = 1.850807 g / cm^3
# Si number density = 18.550286 Si / 1000 Ang^3
#
#
#
# Elastic Constant Matrix: (Units=GPa)
#
#
# Indices 1 2 3 4 5 6 
#
# 1 245.1555 31.0124 121.9537 0.0000 0.0000 0.0000
# 2 31.0124 46.8245 54.8462 0.0000 0.0000 0.0000
# 3 121.9537 54.8462 202.0073 0.0000 0.0000 0.0000
# 4 0.0000 0.0000 0.0000 177.8667 0.0000 0.0000
# 5 0.0000 0.0000 0.0000 0.0000 33.9467 0.0000
# 6 0.0000 0.0000 0.0000 0.0000 0.0000 26.6549
#
#
#
# Elastic Compliance Matrix: (Units=1/GPa)
#
#
# Indices 1 2 3 4 5 6 
#
# 1 0.005835 0.000383 -0.003626 0.000000 0.000000 0.000000
# 2 0.000383 0.031340 -0.008741 0.000000 0.000000 0.000000
# 3 -0.003626 -0.008741 0.009513 0.000000 0.000000 0.000000
# 4 0.000000 0.000000 0.000000 0.005622 0.000000 0.000000
# 5 0.000000 0.000000 0.000000 0.000000 0.029458 0.000000
# 6 0.000000 0.000000 0.000000 0.000000 0.000000 0.037517
#
#
# Mechanical properties :
#
#
# Convention : Reuss Voigt Hill
#
# Bulk Modulus (GPa) = 44.01322 101.06799 72.54060
# Shear Modulus (GPa) = 33.15100 66.77200 49.96150
#
# Velocity S-wave (km/s) = 4.23198 6.00610 5.19533
# Velocity P-wave (km/s) = 6.90344 10.13406 8.67055
#
# Compressibility (1/GPa) = 0.02272045
#
# Stress axis : x y z
#
# Youngs Moduli (GPa) = 171.39289 31.90777 105.12169
#
# Poissons Ratio (x) = -0.01224 0.38122
# Poissons Ratio (y) = -0.06572 0.91883
# Poissons Ratio (z) = 0.62155 0.27889
#
# Static dielectric constant tensor:
#      x y z
#    x 3.489770 0.000000 0.000000 
#    y 0.000000 3.105600 0.000000 
#    z 0.000000 0.000000 3.867500 
# 
# 
# High freq. dielectric constant tensor:
#      x y z
#    x 1.726940 0.000000 0.000000 
#    y 0.000000 1.688630 0.000000 
#    z 0.000000 0.000000 1.741820 
# 
# From -- ./inp_files/59518.got.cif
#   From: 2010.03.12/outbox.cif.g09.slc.cpg/sg63_30_cif.got.tgz:59518.got - 2010.04.10 19:34:48.
