data_PCOD8257206
_publ_section_title
;
Structure prediction by ZEFSAII (Michael W. Deem and Ramdas Pophale) SiO2 
 PCOD8257206
Probable space group: C M C M
;
_chemical_formula_sum "Si O2"
_cell_formula_units_Z 120
_cell_length_a 28.121048
_cell_length_b 28.076668
_cell_length_c 8.764072
_cell_angle_alpha 90.000000
_cell_angle_beta 90.000000
_cell_angle_gamma 90.000000
_cell_volume 6919.632106
_symmetry_space_group_name_H-M "C M C M"
_symmetry_group_IT_number 63
_symmetry_cell_setting 'orthorhombic'
loop_
_space_group_symop_operation_xyz
x,y,z
-x,-y,1/2+z
x,-y,-z
-x,y,1/2-z
-x,-y,-z
x,y,1/2-z
-x,y,z
x,-y,1/2+z
1/2+x,1/2+y,z
1/2-x,1/2-y,1/2+z
1/2+x,1/2-y,-z
1/2-x,1/2+y,1/2-z
1/2-x,1/2-y,-z
1/2+x,1/2+y,1/2-z
1/2-x,1/2+y,z
1/2+x,1/2-y,1/2+z
loop_
_atom_site_type_symbol
_atom_site_label
_atom_site_fract_x
_atom_site_fract_y
_atom_site_fract_z
Si Si1 0.500000 0.050851 0.427538
Si Si2 0.280707 0.550838 0.570337
Si Si3 0.866478 0.118575 0.568499
Si Si4 0.706452 0.804160 0.922866
Si Si5 0.944479 0.948848 0.929663
Si Si6 0.313571 0.898556 0.426661
Si Si7 0.181782 0.209165 0.075010
Si Si8 0.898763 0.448708 0.571876
O O1 0.500000 0.042058 0.250000
O O2 0.450040 0.075431 0.474492
O O3 0.500000 0.000000 0.500000
O O4 0.290452 0.500000 0.500000
O O5 0.278188 0.545953 0.750000
O O6 0.323510 0.584492 0.519771
O O7 0.231688 0.572832 0.506700
O O8 0.871241 0.124498 0.750000
O O9 0.914722 0.094797 0.503109
O O10 0.854202 0.169849 0.494892
O O11 0.690649 0.816077 0.750000
O O12 0.763217 0.804691 0.933027
O O13 0.691062 0.842898 0.045517
O O14 0.678734 0.756578 0.972961
O O15 0.934262 0.950865 0.750000
O O16 0.000000 0.938896 0.964504
O O17 0.929167 0.000000 0.000000
O O18 0.319951 0.909435 0.250000
O O19 0.359929 0.912646 0.516535
O O20 0.166467 0.218571 0.250000
O O21 0.890720 0.500000 0.500000
O O22 0.893996 0.456000 0.750000
#
# Coordination Sequence:
#
# PCOD8257206 Si02
#       8
#     8  16  16  16  16  16  16  16
#     4   8  16  30  48  68  94 124 162 210 250 290
#     4  10  22  34  46  67 101 140 174 208 247 296
#     4  11  21  35  54  78 106 140 179 219 261 314
#     4  10  20  34  53  76 103 137 173 214 256 304
#     4  10  21  37  56  80 110 143 181 225 272 322
#     4  11  21  34  49  71 103 138 173 210 254 305
#     4  10  20  34  54  78 104 135 171 214 259 304
#     4  10  19  32  49  72  99 132 171 210 254 301
#
# _framework density 17.341963
#
# number of rings (size 3 to 8) (size 9 to 14) (size 15 to 20)
#    0.000    1.867    1.333    3.200    0.000    6.667 
#    0.000    0.000    0.000    0.000    1.733    0.000 
#    0.000    0.000    0.000    0.000    0.000    0.000 
#
# Total GULP energy -743679.891306 kJ/mol
# GULP energy per Si atom -12394.664855 kJ/mol
# Density = 1.730249 g / cm^3
# Si number density = 17.341963 Si / 1000 Ang^3
#
#
#
# Elastic Constant Matrix: (Units=GPa)
#
#
# Indices 1 2 3 4 5 6 
#
# 1 72.1941 3.8718 20.5212 0.0000 0.0000 0.0000
# 2 3.8718 38.6231 6.5402 0.0000 0.0000 0.0000
# 3 20.5212 6.5402 49.8395 0.0000 0.0000 0.0000
# 4 0.0000 0.0000 0.0000 33.0281 0.0000 0.0000
# 5 0.0000 0.0000 0.0000 0.0000 26.2969 0.0000
# 6 0.0000 0.0000 0.0000 0.0000 0.0000 30.0045
#
#
#
# Elastic Compliance Matrix: (Units=1/GPa)
#
#
# Indices 1 2 3 4 5 6 
#
# 1 0.015697 -0.000490 -0.006399 0.000000 0.000000 0.000000
# 2 -0.000490 0.026495 -0.003275 0.000000 0.000000 0.000000
# 3 -0.006399 -0.003275 0.023129 0.000000 0.000000 0.000000
# 4 0.000000 0.000000 0.000000 0.030277 0.000000 0.000000
# 5 0.000000 0.000000 0.000000 0.000000 0.038027 0.000000
# 6 0.000000 0.000000 0.000000 0.000000 0.000000 0.033328
#
#
# Mechanical properties :
#
#
# Convention : Reuss Voigt Hill
#
# Bulk Modulus (GPa) = 22.22574 24.72479 23.47526
# Shear Modulus (GPa) = 24.71840 26.51414 25.61627
#
# Velocity S-wave (km/s) = 3.77948 3.91436 3.84751
# Velocity P-wave (km/s) = 5.64712 5.89218 5.77095
#
# Compressibility (1/GPa) = 0.04499288
#
# Stress axis : x y z
#
# Youngs Moduli (GPa) = 63.70786 37.74301 43.23612
#
# Poissons Ratio (x) = 0.01849 0.27666
# Poissons Ratio (y) = 0.03122 0.14160
# Poissons Ratio (z) = 0.40765 0.12361
#
# Static dielectric constant tensor:
#      x y z
#    x 3.673280 0.000000 0.000000 
#    y 0.000000 2.949640 0.000000 
#    z 0.000000 0.000000 3.345860 
# 
# 
# High freq. dielectric constant tensor:
#      x y z
#    x 1.661980 0.000000 0.000000 
#    y 0.000000 1.654310 0.000000 
#    z 0.000000 0.000000 1.684580 
# 
# From -- ./inp_files/13148.got.cif
#   From: 2010.03.12/outbox.cif.g09.slc.cpg/sg63_7_cif.got.tgz:13148.got - 2010.04.10 19:34:48.
