data_PCOD8257268
_publ_section_title
;
Structure prediction by ZEFSAII (Michael W. Deem and Ramdas Pophale) SiO2 
 PCOD8257268
Probable space group: C M C M
;
_chemical_formula_sum "Si O2"
_cell_formula_units_Z 80
_cell_length_a 9.046001
_cell_length_b 31.742907
_cell_length_c 14.373611
_cell_angle_alpha 90.000000
_cell_angle_beta 90.000000
_cell_angle_gamma 90.000000
_cell_volume 4127.330200
_symmetry_space_group_name_H-M "C M C M"
_symmetry_group_IT_number 63
_symmetry_cell_setting 'orthorhombic'
loop_
_space_group_symop_operation_xyz
x,y,z
-x,-y,1/2+z
x,-y,-z
-x,y,1/2-z
-x,-y,-z
x,y,1/2-z
-x,y,z
x,-y,1/2+z
1/2+x,1/2+y,z
1/2-x,1/2-y,1/2+z
1/2+x,1/2-y,-z
1/2-x,1/2+y,1/2-z
1/2-x,1/2-y,-z
1/2+x,1/2+y,1/2-z
1/2-x,1/2+y,z
1/2+x,1/2-y,1/2+z
loop_
_atom_site_type_symbol
_atom_site_label
_atom_site_fract_x
_atom_site_fract_y
_atom_site_fract_z
Si Si1 0.666477 0.443994 0.150307
Si Si2 0.327597 0.812824 0.533405
Si Si3 0.671281 0.240866 0.857347
Si Si4 0.665821 0.021257 0.399940
Si Si5 0.825149 0.099598 0.033807
O O1 0.672377 0.420124 0.250000
O O2 0.500000 0.457467 0.123413
O O3 0.759251 0.486643 0.165301
O O4 0.725466 0.412550 0.071191
O O5 0.500000 0.820312 0.549338
O O6 0.295388 0.798200 0.426886
O O7 0.272097 0.779336 0.609256
O O8 0.242065 0.855384 0.556189
O O9 0.709814 0.228795 0.750000
O O10 0.500000 0.254181 0.866334
O O11 0.500000 0.030942 0.365769
O O12 0.757854 0.064689 0.396797
O O13 0.667883 0.000000 0.500000
O O14 0.000000 0.101598 0.047026
#
# Coordination Sequence:
#
# PCOD8257268 Si02
#       5
#    16  16  16  16  16
#     4   9  18  32  49  71 100 133 169 208 251 301
#     4  10  20  34  54  81 109 136 171 216 262 308
#     4   9  19  37  58  78 104 139 174 209 257 317
#     4   9  17  30  48  69  94 126 163 202 244 289
#     4  10  19  32  51  73 100 135 170 205 249 302
#
# _framework density 19.382991000000001
#
# number of rings (size 3 to 8) (size 9 to 14) (size 15 to 20)
#    0.000    2.600    0.000    1.800    0.000    5.600 
#    0.000    1.000    0.000    6.000    0.000    0.000 
#    0.000    0.000    0.000    0.000    0.000    0.000 
#
# Total GULP energy -495803.820470 kJ/mol
# GULP energy per Si atom -12395.095512 kJ/mol
# Density = 1.933887 g / cm^3
# Si number density = 19.382991 Si / 1000 Ang^3
#
#
#
# Elastic Constant Matrix: (Units=GPa)
#
#
# Indices 1 2 3 4 5 6 
#
# 1 91.3195 34.4555 0.5708 0.0000 0.0000 0.0000
# 2 34.4555 79.2875 -14.1229 0.0000 0.0000 0.0000
# 3 0.5708 -14.1229 50.6955 0.0000 0.0000 0.0000
# 4 0.0000 0.0000 0.0000 13.5292 0.0000 0.0000
# 5 0.0000 0.0000 0.0000 0.0000 18.5400 0.0000
# 6 0.0000 0.0000 0.0000 0.0000 0.0000 34.3912
#
#
#
# Elastic Compliance Matrix: (Units=1/GPa)
#
#
# Indices 1 2 3 4 5 6 
#
# 1 0.013260 -0.006091 -0.001846 0.000000 0.000000 0.000000
# 2 -0.006091 0.016069 0.004545 0.000000 0.000000 0.000000
# 3 -0.001846 0.004545 0.021013 0.000000 0.000000 0.000000
# 4 0.000000 0.000000 0.000000 0.073914 0.000000 0.000000
# 5 0.000000 0.000000 0.000000 0.000000 0.053938 0.000000
# 6 0.000000 0.000000 0.000000 0.000000 0.000000 0.029077
#
#
# Mechanical properties :
#
#
# Convention : Reuss Voigt Hill
#
# Bulk Modulus (GPa) = 22.95836 29.23436 26.09636
# Shear Modulus (GPa) = 21.87468 26.65203 24.26335
#
# Velocity S-wave (km/s) = 3.36303 3.71215 3.54190
# Velocity P-wave (km/s) = 5.19137 5.78694 5.49722
#
# Compressibility (1/GPa) = 0.04355711
#
# Stress axis : x y z
#
# Youngs Moduli (GPa) = 75.41242 62.23155 47.59045
#
# Poissons Ratio (x) = 0.37908 0.08786
# Poissons Ratio (y) = 0.45936 -0.21631
# Poissons Ratio (z) = 0.13923 -0.28285
#
# Static dielectric constant tensor:
#      x y z
#    x 3.636770 0.000000 0.000000 
#    y 0.000000 3.356840 0.000000 
#    z 0.000000 0.000000 3.458930 
# 
# 
# High freq. dielectric constant tensor:
#      x y z
#    x 1.761260 0.000000 0.000000 
#    y 0.000000 1.737800 0.000000 
#    z 0.000000 0.000000 1.745250 
# 
# From -- ./inp_files/40713.got.cif
#   From: 2010.03.12/outbox.cif.g09.slc.cpg/sg63_21_cif.got.tgz:40713.got - 2010.04.10 19:34:48.
