data_PCOD8257893
_publ_section_title
;
Structure prediction by ZEFSAII (Michael W. Deem and Ramdas Pophale) SiO2 
 PCOD8257893
Probable space group: C M C M
;
_chemical_formula_sum "Si O2"
_cell_formula_units_Z 112
_cell_length_a 26.193958
_cell_length_b 10.150699
_cell_length_c 21.317303
_cell_angle_alpha 90.000000
_cell_angle_beta 90.000000
_cell_angle_gamma 90.000000
_cell_volume 5667.993386
_symmetry_space_group_name_H-M "C M C M"
_symmetry_group_IT_number 63
_symmetry_cell_setting 'orthorhombic'
loop_
_space_group_symop_operation_xyz
x,y,z
-x,-y,1/2+z
x,-y,-z
-x,y,1/2-z
-x,-y,-z
x,y,1/2-z
-x,y,z
x,-y,1/2+z
1/2+x,1/2+y,z
1/2-x,1/2-y,1/2+z
1/2+x,1/2-y,-z
1/2-x,1/2+y,1/2-z
1/2-x,1/2-y,-z
1/2+x,1/2+y,1/2-z
1/2-x,1/2+y,z
1/2+x,1/2-y,1/2+z
loop_
_atom_site_type_symbol
_atom_site_label
_atom_site_fract_x
_atom_site_fract_y
_atom_site_fract_z
Si Si1 0.671255 0.193060 0.638874
Si Si2 0.640615 0.912466 0.819985
Si Si3 0.942416 0.601055 0.416527
Si Si4 0.865007 0.975866 0.678592
Si Si5 0.942341 0.962519 0.930349
Si Si6 0.587163 0.818202 0.454353
Si Si7 0.282402 0.303885 0.177159
O O1 0.651953 0.324503 0.672930
O O2 0.646114 0.182339 0.569386
O O3 0.732265 0.188831 0.633758
O O4 0.652313 0.067038 0.677999
O O5 0.630623 0.865250 0.750000
O O6 0.588633 0.872075 0.853938
O O7 0.687898 0.826725 0.845909
O O8 0.913948 0.685514 0.470348
O O9 0.943108 0.446558 0.431910
O O10 0.000000 0.652133 0.408361
O O11 0.885506 0.998537 0.750000
O O12 0.907528 0.017180 0.626727
O O13 0.815783 0.065951 0.665887
O O14 0.942848 0.804626 0.925346
O O15 0.000000 0.016705 0.921781
O O16 0.920940 0.000000 0.000000
O O17 0.265490 0.292852 0.250000
#
# Coordination Sequence:
#
# PCOD8257893 Si02
#       7
#    16  16  16  16  16  16  16
#     4  10  19  35  59  82 107 142 181 223 273 327
#     4  10  21  34  53  83 111 139 185 228 262 323
#     4  10  19  34  58  78 107 146 176 220 279 325
#     4  10  21  36  57  84 113 143 181 227 273 327
#     4  10  21  36  57  79 107 147 187 225 270 325
#     4   9  19  35  55  82 105 133 187 226 264 328
#     4  10  20  35  55  81 113 147 179 216 272 329
#
# _framework density 19.760079000000001
#
# number of rings (size 3 to 8) (size 9 to 14) (size 15 to 20)
#    0.000    2.143    0.000    3.857    2.000    2.857 
#    0.000    0.714    6.286    7.714    0.000    0.000 
#    0.000    0.000    0.000    0.000    0.000    0.000 
#
# Total GULP energy -694253.448315 kJ/mol
# GULP energy per Si atom -12397.383006 kJ/mol
# Density = 1.971510 g / cm^3
# Si number density = 19.760079 Si / 1000 Ang^3
#
#
#
# Elastic Constant Matrix: (Units=GPa)
#
#
# Indices 1 2 3 4 5 6 
#
# 1 155.5122 30.1920 86.9840 0.0000 0.0000 0.0000
# 2 30.1920 65.0875 14.9529 0.0000 0.0000 0.0000
# 3 86.9840 14.9529 106.0675 0.0000 0.0000 0.0000
# 4 0.0000 0.0000 0.0000 21.4644 0.0000 0.0000
# 5 0.0000 0.0000 0.0000 0.0000 28.3545 0.0000
# 6 0.0000 0.0000 0.0000 0.0000 0.0000 21.4630
#
#
#
# Elastic Compliance Matrix: (Units=1/GPa)
#
#
# Indices 1 2 3 4 5 6 
#
# 1 0.012646 -0.003600 -0.009864 0.000000 0.000000 0.000000
# 2 -0.003600 0.016903 0.000570 0.000000 0.000000 0.000000
# 3 -0.009864 0.000570 0.017437 0.000000 0.000000 0.000000
# 4 0.000000 0.000000 0.000000 0.046589 0.000000 0.000000
# 5 0.000000 0.000000 0.000000 0.000000 0.035268 0.000000
# 6 0.000000 0.000000 0.000000 0.000000 0.000000 0.046592
#
#
# Mechanical properties :
#
#
# Convention : Reuss Voigt Hill
#
# Bulk Modulus (GPa) = 47.17500 65.65836 56.41668
# Shear Modulus (GPa) = 24.00513 27.22558 25.61535
#
# Velocity S-wave (km/s) = 3.48922 3.71591 3.60435
# Velocity P-wave (km/s) = 6.33708 7.19101 6.77751
#
# Compressibility (1/GPa) = 0.02119767
#
# Stress axis : x y z
#
# Youngs Moduli (GPa) = 79.07394 59.16064 57.35079
#
# Poissons Ratio (x) = 0.21299 0.56568
# Poissons Ratio (y) = 0.28469 -0.03267
# Poissons Ratio (z) = 0.77995 -0.03370
#
# Static dielectric constant tensor:
#      x y z
#    x 3.500080 0.000000 0.000000 
#    y 0.000000 3.704500 0.000000 
#    z 0.000000 0.000000 3.573510 
# 
# 
# High freq. dielectric constant tensor:
#      x y z
#    x 1.760400 0.000000 0.000000 
#    y 0.000000 1.786570 0.000000 
#    z 0.000000 0.000000 1.752790 
# 
# From -- ./inp_files/57605.got.cif
#   From: 2010.03.12/outbox.cif.g09.slc.cpg/sg63_29_cif.got.tgz:57605.got - 2010.04.10 19:34:48.
