data_PCOD8257563
_publ_section_title
;
Structure prediction by ZEFSAII (Michael W. Deem and Ramdas Pophale) SiO2 
 PCOD8257563
Probable space group: C M C M
;
_chemical_formula_sum "Si O2"
_cell_formula_units_Z 96
_cell_length_a 22.488307
_cell_length_b 16.800715
_cell_length_c 15.383856
_cell_angle_alpha 90.000000
_cell_angle_beta 90.000000
_cell_angle_gamma 90.000000
_cell_volume 5812.322886
_symmetry_space_group_name_H-M "C M C M"
_symmetry_group_IT_number 63
_symmetry_cell_setting 'orthorhombic'
loop_
_space_group_symop_operation_xyz
x,y,z
-x,-y,1/2+z
x,-y,-z
-x,y,1/2-z
-x,-y,-z
x,y,1/2-z
-x,y,z
x,-y,1/2+z
1/2+x,1/2+y,z
1/2-x,1/2-y,1/2+z
1/2+x,1/2-y,-z
1/2-x,1/2+y,1/2-z
1/2-x,1/2-y,-z
1/2+x,1/2+y,1/2-z
1/2-x,1/2+y,z
1/2+x,1/2-y,1/2+z
loop_
_atom_site_type_symbol
_atom_site_label
_atom_site_fract_x
_atom_site_fract_y
_atom_site_fract_z
Si Si1 0.793217 0.675822 0.509022
Si Si2 0.120380 0.795962 0.571126
Si Si3 0.613893 0.428033 0.061638
Si Si4 0.768943 0.072383 0.652153
Si Si5 0.234604 0.116245 0.151761
Si Si6 0.000000 0.175029 0.350848
Si Si7 0.000000 0.002247 0.647869
O O1 0.750000 0.750000 0.500000
O O2 0.857699 0.710568 0.534216
O O3 0.775997 0.612952 0.584072
O O4 0.789267 0.636353 0.413409
O O5 0.098155 0.850505 0.492981
O O6 0.172326 0.841719 0.624887
O O7 0.060725 0.778152 0.626009
O O8 0.664985 0.400414 0.127790
O O9 0.557433 0.452137 0.116441
O O10 0.636409 0.500000 0.000000
O O11 0.752847 0.100945 0.750000
O O12 0.770402 0.977801 0.646605
O O13 0.250204 0.143844 0.250000
O O14 0.000000 0.161888 0.250000
O O15 0.000000 0.086362 0.393342
O O16 0.000000 0.000040 0.750000
#
# Coordination Sequence:
#
# PCOD8257563 Si02
#       7
#    16  16  16  16  16   8   8
#     4  10  20  34  48  72 104 135 167 205 258 306
#     4  11  21  33  50  73 102 139 171 207 256 301
#     4  12  18  32  49  67 100 138 174 211 244 287
#     4  11  20  32  52  74  99 133 173 212 255 303
#     4  10  19  33  53  76 101 131 171 214 256 306
#     4  11  21  33  49  71 101 138 175 212 250 291
#     4  11  22  32  46  72  98 134 182 213 239 286
#
# _framework density 16.516632000000001
#
# number of rings (size 3 to 8) (size 9 to 14) (size 15 to 20)
#    0.000    1.167    6.667    2.250    0.000    6.000 
#    0.000    0.000    0.000    0.000    0.000    2.333 
#    0.000    2.667    0.000    0.000    0.000    0.000 
#
# Total GULP energy -594869.768770 kJ/mol
# GULP energy per Si atom -12393.120183 kJ/mol
# Density = 1.647904 g / cm^3
# Si number density = 16.516632 Si / 1000 Ang^3
#
#
#
# Elastic Constant Matrix: (Units=GPa)
#
#
# Indices 1 2 3 4 5 6 
#
# 1 93.6467 32.5483 40.9717 0.0000 0.0000 0.0000
# 2 32.5483 30.6321 29.6021 0.0000 0.0000 0.0000
# 3 40.9717 29.6021 121.1730 0.0000 0.0000 0.0000
# 4 0.0000 0.0000 0.0000 22.8650 0.0000 0.0000
# 5 0.0000 0.0000 0.0000 0.0000 20.4852 0.0000
# 6 0.0000 0.0000 0.0000 0.0000 0.0000 22.4332
#
#
#
# Elastic Compliance Matrix: (Units=1/GPa)
#
#
# Indices 1 2 3 4 5 6 
#
# 1 0.017217 -0.016583 -0.001770 0.000000 0.000000 0.000000
# 2 -0.016583 0.058707 -0.008735 0.000000 0.000000 0.000000
# 3 -0.001770 -0.008735 0.010985 0.000000 0.000000 0.000000
# 4 0.000000 0.000000 0.000000 0.043735 0.000000 0.000000
# 5 0.000000 0.000000 0.000000 0.000000 0.048816 0.000000
# 6 0.000000 0.000000 0.000000 0.000000 0.000000 0.044577
#
#
# Mechanical properties :
#
#
# Convention : Reuss Voigt Hill
#
# Bulk Modulus (GPa) = 30.55048 50.18844 40.36946
# Shear Modulus (GPa) = 17.29372 22.64532 19.96952
#
# Velocity S-wave (km/s) = 3.23932 3.70680 3.48092
# Velocity P-wave (km/s) = 5.70332 6.98377 6.37577
#
# Compressibility (1/GPa) = 0.03273271
#
# Stress axis : x y z
#
# Youngs Moduli (GPa) = 58.08373 17.03385 91.03241
#
# Poissons Ratio (x) = 0.28247 0.16115
# Poissons Ratio (y) = 0.96319 0.79515
# Poissons Ratio (z) = 0.10282 0.14879
#
# Static dielectric constant tensor:
#      x y z
#    x 3.074690 0.000000 0.000000 
#    y 0.000000 3.214500 0.000000 
#    z 0.000000 0.000000 3.524180 
# 
# 
# High freq. dielectric constant tensor:
#      x y z
#    x 1.607300 0.000000 0.000000 
#    y 0.000000 1.614960 0.000000 
#    z 0.000000 0.000000 1.653430 
# 
# From -- ./inp_files/37895.got.cif
#   From: 2010.03.12/outbox.cif.g09.slc.cpg/sg63_19_cif.got.tgz:37895.got - 2010.04.10 19:34:48.
