data_PCOD8257840
_publ_section_title
;
Structure prediction by ZEFSAII (Michael W. Deem and Ramdas Pophale) SiO2 
 PCOD8257840
Probable space group: C M C M
;
_chemical_formula_sum "Si O2"
_cell_formula_units_Z 88
_cell_length_a 31.777993
_cell_length_b 11.537470
_cell_length_c 13.280698
_cell_angle_alpha 90.000000
_cell_angle_beta 90.000000
_cell_angle_gamma 90.000000
_cell_volume 4869.203784
_symmetry_space_group_name_H-M "C M C M"
_symmetry_group_IT_number 63
_symmetry_cell_setting 'orthorhombic'
loop_
_space_group_symop_operation_xyz
x,y,z
-x,-y,1/2+z
x,-y,-z
-x,y,1/2-z
-x,-y,-z
x,y,1/2-z
-x,y,z
x,-y,1/2+z
1/2+x,1/2+y,z
1/2-x,1/2-y,1/2+z
1/2+x,1/2-y,-z
1/2-x,1/2+y,1/2-z
1/2-x,1/2-y,-z
1/2+x,1/2+y,1/2-z
1/2-x,1/2+y,z
1/2+x,1/2-y,1/2+z
loop_
_atom_site_type_symbol
_atom_site_label
_atom_site_fract_x
_atom_site_fract_y
_atom_site_fract_z
Si Si1 0.720691 0.284629 0.360512
Si Si2 0.704281 0.875376 0.461443
Si Si3 0.387740 0.136465 0.979859
Si Si4 0.047750 0.206471 0.133838
Si Si5 0.922446 0.000000 0.000000
Si Si6 0.373325 0.326731 0.364861
O O1 0.723171 0.227999 0.250000
O O2 0.724699 0.185247 0.441916
O O3 0.761079 0.370020 0.372987
O O4 0.676637 0.351462 0.372782
O O5 0.657694 0.832357 0.428001
O O6 0.694074 0.000000 0.500000
O O7 0.387249 0.203772 0.086855
O O8 0.423103 0.189271 0.906842
O O9 0.396353 0.000000 0.000000
O O10 0.059890 0.178070 0.250000
O O11 0.000000 0.251545 0.127500
O O12 0.050424 0.091188 0.064752
O O13 0.893736 0.934324 0.079629
O O14 0.388813 0.322910 0.250000
#
# Coordination Sequence:
#
# PCOD8257840 Si02
#       6
#    16  16  16  16   8  16
#     4   9  18  31  46  70 100 130 167 208 249 291
#     4   9  18  32  50  68  98 132 169 209 249 292
#     4   9  19  35  54  76 100 137 172 212 261 310
#     4  10  21  36  55  80 107 134 169 215 263 313
#     4  10  19  34  56  76 106 138 174 204 259 312
#     4   9  18  32  51  75 103 136 173 212 254 303
#
# _framework density 18.072769999999998
#
# number of rings (size 3 to 8) (size 9 to 14) (size 15 to 20)
#    0.000    2.727    0.000    0.818    1.273    2.545 
#    0.000    3.636    0.000    4.909    0.000    0.000 
#    0.000    0.000    0.000    0.000    0.000    0.000 
#
# Total GULP energy -545167.942725 kJ/mol
# GULP energy per Si atom -12390.180516 kJ/mol
# Density = 1.803164 g / cm^3
# Si number density = 18.072770 Si / 1000 Ang^3
#
#
#
# Elastic Constant Matrix: (Units=GPa)
#
#
# Indices 1 2 3 4 5 6 
#
# 1 113.1912 43.7130 63.6818 0.0000 0.0000 0.0000
# 2 43.7130 85.8167 37.6305 0.0000 0.0000 0.0000
# 3 63.6818 37.6305 112.7763 0.0000 0.0000 0.0000
# 4 0.0000 0.0000 0.0000 17.0260 0.0000 0.0000
# 5 0.0000 0.0000 0.0000 0.0000 27.8963 0.0000
# 6 0.0000 0.0000 0.0000 0.0000 0.0000 22.8890
#
#
#
# Elastic Compliance Matrix: (Units=1/GPa)
#
#
# Indices 1 2 3 4 5 6 
#
# 1 0.014216 -0.004359 -0.006573 0.000000 0.000000 0.000000
# 2 -0.004359 0.014987 -0.002539 0.000000 0.000000 0.000000
# 3 -0.006573 -0.002539 0.013426 0.000000 0.000000 0.000000
# 4 0.000000 0.000000 0.000000 0.058734 0.000000 0.000000
# 5 0.000000 0.000000 0.000000 0.000000 0.035847 0.000000
# 6 0.000000 0.000000 0.000000 0.000000 0.000000 0.043689
#
#
# Mechanical properties :
#
#
# Convention : Reuss Voigt Hill
#
# Bulk Modulus (GPa) = 63.75035 66.87054 65.31044
# Shear Modulus (GPa) = 23.46656 24.67952 24.07304
#
# Velocity S-wave (km/s) = 3.60731 3.69936 3.65363
# Velocity P-wave (km/s) = 7.25955 7.43828 7.34946
#
# Compressibility (1/GPa) = 0.01568619
#
# Stress axis : x y z
#
# Youngs Moduli (GPa) = 70.34357 66.72641 74.48303
#
# Poissons Ratio (x) = 0.29087 0.48957
# Poissons Ratio (y) = 0.30663 0.18912
# Poissons Ratio (z) = 0.46236 0.16943
#
# Static dielectric constant tensor:
#      x y z
#    x 3.483110 0.000000 0.000000 
#    y 0.000000 3.236620 0.000000 
#    z 0.000000 0.000000 3.447370 
# 
# 
# High freq. dielectric constant tensor:
#      x y z
#    x 1.706330 0.000000 0.000000 
#    y 0.000000 1.684900 0.000000 
#    z 0.000000 0.000000 1.700240 
# 
# From -- ./inp_files/38425.got.cif
#   From: 2010.03.12/outbox.cif.g09.slc.cpg/sg63_20_cif.got.tgz:38425.got - 2010.04.10 19:34:48.
