data_PCOD8257501
_publ_section_title
;
Structure prediction by ZEFSAII (Michael W. Deem and Ramdas Pophale) SiO2 
 PCOD8257501
Probable space group: C M C M
;
_chemical_formula_sum "Si O2"
_cell_formula_units_Z 120
_cell_length_a 28.007930
_cell_length_b 28.277635
_cell_length_c 8.637594
_cell_angle_alpha 90.000000
_cell_angle_beta 90.000000
_cell_angle_gamma 90.000000
_cell_volume 6840.957360
_symmetry_space_group_name_H-M "C M C M"
_symmetry_group_IT_number 63
_symmetry_cell_setting 'orthorhombic'
loop_
_space_group_symop_operation_xyz
x,y,z
-x,-y,1/2+z
x,-y,-z
-x,y,1/2-z
-x,-y,-z
x,y,1/2-z
-x,y,z
x,-y,1/2+z
1/2+x,1/2+y,z
1/2-x,1/2-y,1/2+z
1/2+x,1/2-y,-z
1/2-x,1/2+y,1/2-z
1/2-x,1/2-y,-z
1/2+x,1/2+y,1/2-z
1/2-x,1/2+y,z
1/2+x,1/2-y,1/2+z
loop_
_atom_site_type_symbol
_atom_site_label
_atom_site_fract_x
_atom_site_fract_y
_atom_site_fract_z
Si Si1 0.500000 0.050334 0.426635
Si Si2 0.273211 0.550818 0.432046
Si Si3 0.856498 0.110278 0.567437
Si Si4 0.699703 0.800480 0.926578
Si Si5 0.946190 0.949511 0.067632
Si Si6 0.312239 0.894698 0.427792
Si Si7 0.187821 0.203624 0.071877
Si Si8 0.897994 0.447885 0.567703
O O1 0.500000 0.036943 0.250000
O O2 0.450035 0.077065 0.463990
O O3 0.500000 0.000000 0.500000
O O4 0.259305 0.500000 0.500000
O O5 0.282522 0.547643 0.250000
O O6 0.320416 0.569528 0.515065
O O7 0.229806 0.586321 0.462973
O O8 0.852489 0.117668 0.750000
O O9 0.909393 0.092092 0.517410
O O10 0.843990 0.160003 0.487472
O O11 0.685487 0.810020 0.750000
O O12 0.756292 0.805182 0.951234
O O13 0.677368 0.840007 0.036756
O O14 0.676289 0.750736 0.975287
O O15 0.944746 0.955319 0.250000
O O16 0.000000 0.936229 0.010951
O O17 0.929988 0.000000 0.000000
O O18 0.297502 0.902184 0.250000
O O19 0.360895 0.920473 0.464314
O O20 0.175072 0.212212 0.250000
O O21 0.898970 0.500000 0.500000
O O22 0.884308 0.447551 0.750000
#
# Coordination Sequence:
#
# PCOD8257501 Si02
#       8
#     8  16  16  16  16  16  16  16
#     4   8  16  30  50  72  96 128 166 210 250 292
#     4  12  24  37  50  70 103 142 178 214 254 304
#     4  11  21  34  54  79 106 139 176 217 262 313
#     4  10  20  35  54  76 104 137 171 213 257 303
#     4   9  19  35  54  78 108 142 180 221 266 316
#     4  12  23  35  51  74 104 138 174 210 256 308
#     4  10  20  34  54  78 105 135 170 213 257 304
#     4  10  19  33  51  74 103 135 173 212 254 301
#
# _framework density 17.541404
#
# number of rings (size 3 to 8) (size 9 to 14) (size 15 to 20)
#    0.000    1.600    1.333    4.800    0.000    3.733 
#    0.000    0.000    0.000    0.000    1.733    0.000 
#    0.000    0.000    0.000    0.000    0.000    0.000 
#
# Total GULP energy -743784.578778 kJ/mol
# GULP energy per Si atom -12396.409646 kJ/mol
# Density = 1.750148 g / cm^3
# Si number density = 17.541404 Si / 1000 Ang^3
#
#
#
# Elastic Constant Matrix: (Units=GPa)
#
#
# Indices 1 2 3 4 5 6 
#
# 1 92.3424 40.0324 28.4315 0.0000 0.0000 0.0000
# 2 40.0324 98.5053 25.8161 0.0000 0.0000 0.0000
# 3 28.4315 25.8161 65.1874 0.0000 0.0000 0.0000
# 4 0.0000 0.0000 0.0000 32.5748 0.0000 0.0000
# 5 0.0000 0.0000 0.0000 0.0000 21.2879 0.0000
# 6 0.0000 0.0000 0.0000 0.0000 0.0000 15.9863
#
#
#
# Elastic Compliance Matrix: (Units=1/GPa)
#
#
# Indices 1 2 3 4 5 6 
#
# 1 0.014171 -0.004619 -0.004352 0.000000 0.000000 0.000000
# 2 -0.004619 0.012833 -0.003068 0.000000 0.000000 0.000000
# 3 -0.004352 -0.003068 0.018453 0.000000 0.000000 0.000000
# 4 0.000000 0.000000 0.000000 0.030699 0.000000 0.000000
# 5 0.000000 0.000000 0.000000 0.000000 0.046975 0.000000
# 6 0.000000 0.000000 0.000000 0.000000 0.000000 0.062554
#
#
# Mechanical properties :
#
#
# Convention : Reuss Voigt Hill
#
# Bulk Modulus (GPa) = 46.77007 49.39945 48.08476
# Shear Modulus (GPa) = 23.05334 24.75346 23.90340
#
# Velocity S-wave (km/s) = 3.62916 3.76060 3.69546
# Velocity P-wave (km/s) = 6.65444 6.86140 6.75872
#
# Compressibility (1/GPa) = 0.02138119
#
# Stress axis : x y z
#
# Youngs Moduli (GPa) = 70.56429 77.92549 54.19088
#
# Poissons Ratio (x) = 0.35992 0.23582
# Poissons Ratio (y) = 0.32592 0.16624
# Poissons Ratio (z) = 0.30708 0.23905
#
# Static dielectric constant tensor:
#      x y z
#    x 3.610910 0.000000 0.000000 
#    y 0.000000 3.314040 0.000000 
#    z 0.000000 0.000000 3.337580 
# 
# 
# High freq. dielectric constant tensor:
#      x y z
#    x 1.664600 0.000000 0.000000 
#    y 0.000000 1.665570 0.000000 
#    z 0.000000 0.000000 1.693400 
# 
# From -- ./inp_files/13147.got.cif
#   From: 2010.03.12/outbox.cif.g09.slc.cpg/sg63_7_cif.got.tgz:13147.got - 2010.04.10 19:34:48.
