data_PCOD8257752
_publ_section_title
;
Structure prediction by ZEFSAII (Michael W. Deem and Ramdas Pophale) SiO2 
 PCOD8257752
Probable space group: C M C M
;
_chemical_formula_sum "Si O2"
_cell_formula_units_Z 96
_cell_length_a 8.862113
_cell_length_b 20.500538
_cell_length_c 27.834481
_cell_angle_alpha 90.000000
_cell_angle_beta 90.000000
_cell_angle_gamma 90.000000
_cell_volume 5056.915186
_symmetry_space_group_name_H-M "C M C M"
_symmetry_group_IT_number 63
_symmetry_cell_setting 'orthorhombic'
loop_
_space_group_symop_operation_xyz
x,y,z
-x,-y,1/2+z
x,-y,-z
-x,y,1/2-z
-x,-y,-z
x,y,1/2-z
-x,y,z
x,-y,1/2+z
1/2+x,1/2+y,z
1/2-x,1/2-y,1/2+z
1/2+x,1/2-y,-z
1/2-x,1/2+y,1/2-z
1/2-x,1/2-y,-z
1/2+x,1/2+y,1/2-z
1/2-x,1/2+y,z
1/2+x,1/2-y,1/2+z
loop_
_atom_site_type_symbol
_atom_site_label
_atom_site_fract_x
_atom_site_fract_y
_atom_site_fract_z
Si Si1 0.825458 0.122334 0.847309
Si Si2 0.674681 0.132150 0.356793
Si Si3 0.828735 0.498830 0.805897
Si Si4 0.176106 0.063868 0.552244
Si Si5 0.175685 0.573582 0.455838
Si Si6 0.322029 0.248752 0.695734
O O1 0.792507 0.112684 0.903839
O O2 0.729912 0.182370 0.828620
O O3 0.000000 0.136847 0.837692
O O4 0.780255 0.058114 0.818262
O O5 0.500000 0.144534 0.344665
O O6 0.731044 0.065404 0.332599
O O7 0.702035 0.126643 0.414027
O O8 0.769700 0.191398 0.336529
O O9 0.820773 0.483908 0.750000
O O10 0.000000 0.515481 0.822114
O O11 0.237084 0.097599 0.503519
O O12 0.000000 0.048073 0.546969
O O13 0.263147 0.996420 0.561542
O O14 0.000000 0.565917 0.467688
O O15 0.256769 0.254279 0.750000
O O16 0.500000 0.248429 0.697392
#
# Coordination Sequence:
#
# PCOD8257752 Si02
#       6
#    16  16  16  16  16  16
#     4  11  23  38  58  84 115 153 194 237 286 341
#     4  10  21  38  60  86 116 151 191 236 287 344
#     4  10  20  35  57  84 114 147 187 238 290 339
#     4  10  20  34  55  85 119 152 187 233 287 338
#     4  10  19  33  58  88 116 150 189 231 284 342
#     4  11  25  42  60  83 114 154 196 240 291 345
#
# _framework density 18.983905
#
# number of rings (size 3 to 8) (size 9 to 14) (size 15 to 20)
#    0.000    1.667    1.667    4.000    0.000    8.333 
#    0.000    0.833    0.000    0.000    0.000    0.000 
#    0.000    0.000    0.000    0.000    0.000    0.000 
#
# Total GULP energy -595344.714739 kJ/mol
# GULP energy per Si atom -12403.014890 kJ/mol
# Density = 1.894070 g / cm^3
# Si number density = 18.983905 Si / 1000 Ang^3
#
#
#
# Elastic Constant Matrix: (Units=GPa)
#
#
# Indices 1 2 3 4 5 6 
#
# 1 48.3339 9.0495 12.5552 0.0000 0.0000 0.0000
# 2 9.0495 70.4790 12.4642 0.0000 0.0000 0.0000
# 3 12.5552 12.4642 72.4037 0.0000 0.0000 0.0000
# 4 0.0000 0.0000 0.0000 28.9003 0.0000 0.0000
# 5 0.0000 0.0000 0.0000 0.0000 32.2369 0.0000
# 6 0.0000 0.0000 0.0000 0.0000 0.0000 34.9835
#
#
#
# Elastic Compliance Matrix: (Units=1/GPa)
#
#
# Indices 1 2 3 4 5 6 
#
# 1 0.021996 -0.002217 -0.003433 0.000000 0.000000 0.000000
# 2 -0.002217 0.014858 -0.002173 0.000000 0.000000 0.000000
# 3 -0.003433 -0.002173 0.014781 0.000000 0.000000 0.000000
# 4 0.000000 0.000000 0.000000 0.034602 0.000000 0.000000
# 5 0.000000 0.000000 0.000000 0.000000 0.031020 0.000000
# 6 0.000000 0.000000 0.000000 0.000000 0.000000 0.028585
#
#
# Mechanical properties :
#
#
# Convention : Reuss Voigt Hill
#
# Bulk Modulus (GPa) = 27.78665 28.81716 28.30191
# Shear Modulus (GPa) = 28.82111 29.70065 29.26088
#
# Velocity S-wave (km/s) = 3.90062 3.95969 3.93026
# Velocity P-wave (km/s) = 5.91229 6.00985 5.96127
#
# Compressibility (1/GPa) = 0.03598850
#
# Stress axis : x y z
#
# Youngs Moduli (GPa) = 45.46243 67.30532 67.65539
#
# Poissons Ratio (x) = 0.14923 0.23223
# Poissons Ratio (y) = 0.10080 0.14703
# Poissons Ratio (z) = 0.15605 0.14627
#
# Static dielectric constant tensor:
#      x y z
#    x 3.570880 0.000000 0.000000 
#    y 0.000000 3.559240 0.000000 
#    z 0.000000 0.000000 3.787530 
# 
# 
# High freq. dielectric constant tensor:
#      x y z
#    x 1.744470 0.000000 0.000000 
#    y 0.000000 1.717070 0.000000 
#    z 0.000000 0.000000 1.757300 
# 
# From -- ./inp_files/66859.got.cif
#   From: 2010.03.12/outbox.cif.g09.slc.cpg/sg63_34_cif.got.tgz:66859.got - 2010.04.10 19:34:48.
