data_PCOD8257848
_publ_section_title
;
Structure prediction by ZEFSAII (Michael W. Deem and Ramdas Pophale) SiO2 
 PCOD8257848
Probable space group: C M C M
;
_chemical_formula_sum "Si O2"
_cell_formula_units_Z 96
_cell_length_a 27.031556
_cell_length_b 10.003733
_cell_length_c 18.710774
_cell_angle_alpha 90.000000
_cell_angle_beta 90.000000
_cell_angle_gamma 90.000000
_cell_volume 5059.701434
_symmetry_space_group_name_H-M "C M C M"
_symmetry_group_IT_number 63
_symmetry_cell_setting 'orthorhombic'
loop_
_space_group_symop_operation_xyz
x,y,z
-x,-y,1/2+z
x,-y,-z
-x,y,1/2-z
-x,-y,-z
x,y,1/2-z
-x,y,z
x,-y,1/2+z
1/2+x,1/2+y,z
1/2-x,1/2-y,1/2+z
1/2+x,1/2-y,-z
1/2-x,1/2+y,1/2-z
1/2-x,1/2-y,-z
1/2+x,1/2+y,1/2-z
1/2-x,1/2+y,z
1/2+x,1/2-y,1/2+z
loop_
_atom_site_type_symbol
_atom_site_label
_atom_site_fract_x
_atom_site_fract_y
_atom_site_fract_z
Si Si1 0.612132 0.976761 0.419161
Si Si2 0.204629 0.227427 0.666983
Si Si3 0.441725 0.281540 0.944684
Si Si4 0.792215 0.534119 0.832221
Si Si5 0.057623 0.988699 0.671804
Si Si6 0.101592 0.227651 0.597696
O O1 0.568450 0.867744 0.415662
O O2 0.630208 0.000000 0.500000
O O3 0.659144 0.924599 0.375621
O O4 0.590830 0.115562 0.387097
O O5 0.190095 0.203410 0.750000
O O6 0.222485 0.379667 0.655193
O O7 0.158484 0.195106 0.615795
O O8 0.247590 0.127706 0.641746
O O9 0.500000 0.298823 0.960232
O O10 0.420769 0.386040 0.886495
O O11 0.410700 0.310324 0.016131
O O12 0.804304 0.562711 0.750000
O O13 0.081636 0.961904 0.750000
O O14 0.000000 0.963293 0.677025
O O15 0.067116 0.141361 0.649441
#
# Coordination Sequence:
#
# PCOD8257848 Si02
#       6
#    16  16  16  16  16  16
#     4   9  20  36  54  79 109 139 177 223 267 315
#     4   9  18  33  53  78 107 139 177 220 264 314
#     4  10  21  37  56  79 109 144 180 219 268 322
#     4   9  18  34  54  75 104 141 177 216 264 315
#     4  10  21  36  53  76 107 140 177 223 269 316
#     4  10  19  34  56  80 106 139 179 221 263 315
#
# _framework density 18.973452000000002
#
# number of rings (size 3 to 8) (size 9 to 14) (size 15 to 20)
#    0.000    2.500    0.000    1.500    0.000    7.667 
#    0.000   10.833    0.000    2.000    0.000    0.000 
#    0.000    0.000    0.000    0.000    0.000    0.000 
#
# Total GULP energy -595170.328956 kJ/mol
# GULP energy per Si atom -12399.381853 kJ/mol
# Density = 1.893027 g / cm^3
# Si number density = 18.973452 Si / 1000 Ang^3
#
#
#
# Elastic Constant Matrix: (Units=GPa)
#
#
# Indices 1 2 3 4 5 6 
#
# 1 66.8195 42.1472 48.5456 0.0000 0.0000 0.0000
# 2 42.1472 90.6401 53.0295 0.0000 0.0000 0.0000
# 3 48.5456 53.0295 97.9174 0.0000 0.0000 0.0000
# 4 0.0000 0.0000 0.0000 26.2937 0.0000 0.0000
# 5 0.0000 0.0000 0.0000 0.0000 35.6813 0.0000
# 6 0.0000 0.0000 0.0000 0.0000 0.0000 38.4870
#
#
#
# Elastic Compliance Matrix: (Units=1/GPa)
#
#
# Indices 1 2 3 4 5 6 
#
# 1 0.025846 -0.006618 -0.009230 0.000000 0.000000 0.000000
# 2 -0.006618 0.017844 -0.006383 0.000000 0.000000 0.000000
# 3 -0.009230 -0.006383 0.018245 0.000000 0.000000 0.000000
# 4 0.000000 0.000000 0.000000 0.038032 0.000000 0.000000
# 5 0.000000 0.000000 0.000000 0.000000 0.028026 0.000000
# 6 0.000000 0.000000 0.000000 0.000000 0.000000 0.025983
#
#
# Mechanical properties :
#
#
# Convention : Reuss Voigt Hill
#
# Bulk Modulus (GPa) = 57.22762 60.31350 58.77056
# Shear Modulus (GPa) = 24.47836 27.53605 26.00721
#
# Velocity S-wave (km/s) = 3.59574 3.81372 3.70633
# Velocity P-wave (km/s) = 6.88960 7.15891 7.02555
#
# Compressibility (1/GPa) = 0.01747408
#
# Stress axis : x y z
#
# Youngs Moduli (GPa) = 38.69112 56.03984 54.80867
#
# Poissons Ratio (x) = 0.37089 0.50586
# Poissons Ratio (y) = 0.25607 0.34983
# Poissons Ratio (z) = 0.35710 0.35769
#
# Static dielectric constant tensor:
#      x y z
#    x 3.256230 0.000000 0.000000 
#    y 0.000000 3.680610 0.000000 
#    z 0.000000 0.000000 3.686230 
# 
# 
# High freq. dielectric constant tensor:
#      x y z
#    x 1.717890 0.000000 0.000000 
#    y 0.000000 1.746820 0.000000 
#    z 0.000000 0.000000 1.738100 
# 
# From -- ./inp_files/58041.got.cif
#   From: 2010.03.12/outbox.cif.g09.slc.cpg/sg63_30_cif.got.tgz:58041.got - 2010.04.10 19:34:48.
