data_PCOD8257541
_publ_section_title
;
Structure prediction by ZEFSAII (Michael W. Deem and Ramdas Pophale) SiO2 
 PCOD8257541
Probable space group: C M C M
;
_chemical_formula_sum "Si O2"
_cell_formula_units_Z 80
_cell_length_a 8.617481
_cell_length_b 23.251625
_cell_length_c 20.658352
_cell_angle_alpha 90.000000
_cell_angle_beta 90.000000
_cell_angle_gamma 90.000000
_cell_volume 4139.323011
_symmetry_space_group_name_H-M "C M C M"
_symmetry_group_IT_number 63
_symmetry_cell_setting 'orthorhombic'
loop_
_space_group_symop_operation_xyz
x,y,z
-x,-y,1/2+z
x,-y,-z
-x,y,1/2-z
-x,-y,-z
x,y,1/2-z
-x,y,z
x,-y,1/2+z
1/2+x,1/2+y,z
1/2-x,1/2-y,1/2+z
1/2+x,1/2-y,-z
1/2-x,1/2+y,1/2-z
1/2-x,1/2-y,-z
1/2+x,1/2+y,1/2-z
1/2-x,1/2+y,z
1/2+x,1/2-y,1/2+z
loop_
_atom_site_type_symbol
_atom_site_label
_atom_site_fract_x
_atom_site_fract_y
_atom_site_fract_z
Si Si1 0.316716 0.248163 0.927447
Si Si2 0.184454 0.934249 0.250000
Si Si3 0.184947 0.936220 1.000000
Si Si4 0.314514 0.434032 0.750000
Si Si5 0.184299 0.133052 0.623466
Si Si6 0.815899 0.130278 0.123277
O O1 0.500000 0.246023 0.935057
O O2 0.257464 0.195793 0.883840
O O3 0.263711 0.303808 0.886013
O O4 0.250000 0.250000 0.000000
O O5 0.244855 0.899145 0.312314
O O6 0.000000 0.936985 0.250000
O O7 0.248171 0.000014 0.250000
O O8 0.252437 0.904512 0.937409
O O9 0.000000 0.936977 0.998992
O O10 0.244966 0.904318 0.063584
O O11 0.253633 0.000000 0.000000
O O12 0.500000 0.434962 0.750000
O O13 0.249046 0.399028 0.811809
O O14 0.000000 0.139413 0.624028
O O15 0.000000 0.125630 0.124341
#
# Coordination Sequence:
#
# PCOD8257541 Si02
#       6
#    16   8  16   8  16  16
#     4  11  21  35  54  78 107 141 179 223 272 317
#     4   9  18  31  51  79 109 139 170 215 270 314
#     4   9  15  25  45  72  99 130 171 217 259 300
#     4   9  16  29  48  77 111 133 164 221 274 314
#     4  10  19  33  52  78 109 139 176 218 263 320
#     4   9  17  28  45  72 103 134 167 210 263 310
#
# _framework density 19.326830999999999
#
# number of rings (size 3 to 8) (size 9 to 14) (size 15 to 20)
#    0.000    2.400    2.000    1.800    0.000    5.600 
#    0.000    1.500    0.000    0.600    0.000    2.800 
#    0.000    0.000    0.000    0.000    0.000    0.000 
#
# Total GULP energy -495873.328928 kJ/mol
# GULP energy per Si atom -12396.833223 kJ/mol
# Density = 1.928284 g / cm^3
# Si number density = 19.326831 Si / 1000 Ang^3
#
#
#
# Elastic Constant Matrix: (Units=GPa)
#
#
# Indices 1 2 3 4 5 6 
#
# 1 21.1902 23.2280 16.7397 0.0000 0.0000 0.0000
# 2 23.2280 218.9255 115.1957 0.0000 0.0000 0.0000
# 3 16.7397 115.1957 198.9628 0.0000 0.0000 0.0000
# 4 0.0000 0.0000 0.0000 45.0419 0.0000 0.0000
# 5 0.0000 0.0000 0.0000 0.0000 7.3531 0.0000
# 6 0.0000 0.0000 0.0000 0.0000 0.0000 25.2754
#
#
#
# Elastic Compliance Matrix: (Units=1/GPa)
#
#
# Indices 1 2 3 4 5 6 
#
# 1 0.053827 -0.004786 -0.001758 0.000000 0.000000 0.000000
# 2 -0.004786 0.006995 -0.003647 0.000000 0.000000 0.000000
# 3 -0.001758 -0.003647 0.007286 0.000000 0.000000 0.000000
# 4 0.000000 0.000000 0.000000 0.022202 0.000000 0.000000
# 5 0.000000 0.000000 0.000000 0.000000 0.135997 0.000000
# 6 0.000000 0.000000 0.000000 0.000000 0.000000 0.039564
#
#
# Mechanical properties :
#
#
# Convention : Reuss Voigt Hill
#
# Bulk Modulus (GPa) = 20.95337 83.26725 52.11031
# Shear Modulus (GPa) = 16.54754 34.46174 25.50464
#
# Velocity S-wave (km/s) = 2.92926 4.22726 3.63664
# Velocity P-wave (km/s) = 4.72291 8.18557 6.68242
#
# Compressibility (1/GPa) = 0.04772502
#
# Stress axis : x y z
#
# Youngs Moduli (GPa) = 18.57819 142.96704 137.25853
#
# Poissons Ratio (x) = 0.68427 0.24124
# Poissons Ratio (y) = 0.08892 0.50059
# Poissons Ratio (z) = 0.03265 0.52141
#
# Static dielectric constant tensor:
#      x y z
#    x 2.883500 0.000000 0.000000 
#    y 0.000000 3.838740 0.000000 
#    z 0.000000 0.000000 3.766470 
# 
# 
# High freq. dielectric constant tensor:
#      x y z
#    x 1.685880 0.000000 0.000000 
#    y 0.000000 1.773490 0.000000 
#    z 0.000000 0.000000 1.761700 
# 
# From -- ./inp_files/40632.got.cif
#   From: 2010.03.12/outbox.cif.g09.slc.cpg/sg63_21_cif.got.tgz:40632.got - 2010.04.10 19:34:48.
