data_PCOD8257670
_publ_section_title
;
Structure prediction by ZEFSAII (Michael W. Deem and Ramdas Pophale) SiO2 
 PCOD8257670
Probable space group: C M C M
;
_chemical_formula_sum "Si O2"
_cell_formula_units_Z 96
_cell_length_a 9.272851
_cell_length_b 27.573785
_cell_length_c 18.494435
_cell_angle_alpha 90.000000
_cell_angle_beta 90.000000
_cell_angle_gamma 90.000000
_cell_volume 4728.797695
_symmetry_space_group_name_H-M "C M C M"
_symmetry_group_IT_number 63
_symmetry_cell_setting 'orthorhombic'
loop_
_space_group_symop_operation_xyz
x,y,z
-x,-y,1/2+z
x,-y,-z
-x,y,1/2-z
-x,-y,-z
x,y,1/2-z
-x,y,z
x,-y,1/2+z
1/2+x,1/2+y,z
1/2-x,1/2-y,1/2+z
1/2+x,1/2-y,-z
1/2-x,1/2+y,1/2-z
1/2-x,1/2-y,-z
1/2+x,1/2+y,1/2-z
1/2-x,1/2+y,z
1/2+x,1/2-y,1/2+z
loop_
_atom_site_type_symbol
_atom_site_label
_atom_site_fract_x
_atom_site_fract_y
_atom_site_fract_z
Si Si1 0.660019 0.147524 0.835005
Si Si2 0.828673 0.041728 0.168178
Si Si3 0.834137 0.294558 0.534478
Si Si4 0.665663 0.440419 0.105633
Si Si5 0.836646 0.762326 0.331023
Si Si6 0.165960 0.108563 0.041331
O O1 0.653826 0.153990 0.750000
O O2 0.500000 0.145087 0.868699
O O3 0.744440 0.099157 0.851997
O O4 0.739910 0.194991 0.866851
O O5 0.767037 0.047484 0.250000
O O6 0.778134 0.086508 0.117569
O O7 0.000000 0.040764 0.169677
O O8 0.772402 0.992304 0.130988
O O9 0.750000 0.250000 0.500000
O O10 0.824030 0.286132 0.621098
O O11 0.762037 0.346016 0.516548
O O12 0.000000 0.295124 0.508063
O O13 0.500000 0.434954 0.129475
O O14 0.681627 0.433380 0.019310
O O15 0.786122 0.748778 0.250000
O O16 0.000000 0.782210 0.331029
O O17 0.000000 0.125702 0.047394
#
# Coordination Sequence:
#
# PCOD8257670 Si02
#       6
#    16  16  16  16  16  16
#     4  10  20  32  49  78 112 141 174 222 276 323
#     4   9  18  34  57  83 109 141 183 225 264 313
#     4  11  23  38  57  81 109 143 182 224 270 321
#     4  10  19  33  55  80 107 142 182 221 263 316
#     4   9  19  36  55  74 100 138 183 225 266 319
#     4  10  21  36  55  81 111 141 177 224 272 317
#
# _framework density 20.301143
#
# number of rings (size 3 to 8) (size 9 to 14) (size 15 to 20)
#    0.000    2.167    0.000    3.000    0.000   10.333 
#    0.000    0.833    0.000    3.000    0.000    0.000 
#    0.000    0.000    0.000    0.000    0.000    0.000 
#
# Total GULP energy -595130.043052 kJ/mol
# GULP energy per Si atom -12398.542564 kJ/mol
# Density = 2.025494 g / cm^3
# Si number density = 20.301143 Si / 1000 Ang^3
#
#
#
# Elastic Constant Matrix: (Units=GPa)
#
#
# Indices 1 2 3 4 5 6 
#
# 1 81.7030 33.6312 24.5066 0.0000 0.0000 0.0000
# 2 33.6312 95.6416 37.8467 0.0000 0.0000 0.0000
# 3 24.5066 37.8467 80.0295 0.0000 0.0000 0.0000
# 4 0.0000 0.0000 0.0000 38.3043 0.0000 0.0000
# 5 0.0000 0.0000 0.0000 0.0000 19.4558 0.0000
# 6 0.0000 0.0000 0.0000 0.0000 0.0000 19.1172
#
#
#
# Elastic Compliance Matrix: (Units=1/GPa)
#
#
# Indices 1 2 3 4 5 6 
#
# 1 0.014717 -0.004173 -0.002533 0.000000 0.000000 0.000000
# 2 -0.004173 0.014046 -0.005365 0.000000 0.000000 0.000000
# 3 -0.002533 -0.005365 0.015808 0.000000 0.000000 0.000000
# 4 0.000000 0.000000 0.000000 0.026107 0.000000 0.000000
# 5 0.000000 0.000000 0.000000 0.000000 0.051399 0.000000
# 6 0.000000 0.000000 0.000000 0.000000 0.000000 0.052309
#
#
# Mechanical properties :
#
#
# Convention : Reuss Voigt Hill
#
# Bulk Modulus (GPa) = 48.94836 49.92700 49.43768
# Shear Modulus (GPa) = 24.35033 26.13477 25.24255
#
# Velocity S-wave (km/s) = 3.46707 3.59186 3.53002
# Velocity P-wave (km/s) = 6.33963 6.46905 6.40467
#
# Compressibility (1/GPa) = 0.02042969
#
# Stress axis : x y z
#
# Youngs Moduli (GPa) = 67.94935 71.19570 63.25844
#
# Poissons Ratio (x) = 0.29706 0.16026
# Poissons Ratio (y) = 0.28352 0.33936
# Poissons Ratio (z) = 0.17214 0.38194
#
# Static dielectric constant tensor:
#      x y z
#    x 3.599720 0.000000 0.000000 
#    y 0.000000 3.563470 0.000000 
#    z 0.000000 0.000000 4.030600 
# 
# 
# High freq. dielectric constant tensor:
#      x y z
#    x 1.768770 0.000000 0.000000 
#    y 0.000000 1.782360 0.000000 
#    z 0.000000 0.000000 1.809770 
# 
# From -- ./inp_files/51404.got.cif
#   From: 2010.03.12/outbox.cif.g09.slc.cpg/sg63_26_cif.got.tgz:51404.got - 2010.04.10 19:34:48.
