data_PCOD8257989
_publ_section_title
;
Structure prediction by ZEFSAII (Michael W. Deem and Ramdas Pophale) SiO2 
 PCOD8257989
Probable space group: C M C M
;
_chemical_formula_sum "Si O2"
_cell_formula_units_Z 96
_cell_length_a 9.323213
_cell_length_b 24.750689
_cell_length_c 23.446801
_cell_angle_alpha 90.000000
_cell_angle_beta 90.000000
_cell_angle_gamma 90.000000
_cell_volume 5410.488732
_symmetry_space_group_name_H-M "C M C M"
_symmetry_group_IT_number 63
_symmetry_cell_setting 'orthorhombic'
loop_
_space_group_symop_operation_xyz
x,y,z
-x,-y,1/2+z
x,-y,-z
-x,y,1/2-z
-x,-y,-z
x,y,1/2-z
-x,y,z
x,-y,1/2+z
1/2+x,1/2+y,z
1/2-x,1/2-y,1/2+z
1/2+x,1/2-y,-z
1/2-x,1/2+y,1/2-z
1/2-x,1/2-y,-z
1/2+x,1/2+y,1/2-z
1/2-x,1/2+y,z
1/2+x,1/2-y,1/2+z
loop_
_atom_site_type_symbol
_atom_site_label
_atom_site_fract_x
_atom_site_fract_y
_atom_site_fract_z
Si Si1 0.833013 0.729274 0.631275
Si Si2 0.169402 0.222440 0.250000
Si Si3 0.662520 0.112464 0.250000
Si Si4 0.332727 0.336203 0.563486
Si Si5 0.333072 0.070216 0.127615
Si Si6 0.333860 0.643086 0.564969
Si Si7 0.666903 0.517945 0.936685
O O1 0.779285 0.745033 0.694370
O O2 0.796382 0.777505 0.587932
O O3 0.752220 0.675416 0.612693
O O4 0.000000 0.716049 0.631394
O O5 0.233591 0.163114 0.250000
O O6 0.000000 0.214043 0.250000
O O7 0.500000 0.134627 0.250000
O O8 0.691521 0.075348 0.304849
O O9 0.500000 0.351393 0.571406
O O10 0.239216 0.379602 0.596386
O O11 0.288319 0.336459 0.497509
O O12 0.500000 0.069210 0.111342
O O13 0.260308 0.014493 0.108867
O O14 0.500000 0.654083 0.575548
O O15 0.295934 0.580428 0.571486
O O16 0.500000 0.505532 0.926073
O O17 0.711276 0.500000 0.000000
#
# Coordination Sequence:
#
# PCOD8257989 Si02
#       7
#    16   8   8  16  16  16  16
#     4  10  21  35  55  83 113 145 186 231 276 329
#     4  10  20  36  59  82 107 147 192 228 272 331
#     4  10  22  38  55  82 117 147 180 230 284 325
#     4  10  19  35  57  82 113 148 182 224 278 334
#     4  11  22  35  56  86 115 144 183 231 281 327
#     4  10  21  36  56  81 112 150 184 222 278 335
#     4  10  20  38  60  80 109 147 186 230 278 331
#
# _framework density 17.743313000000001
#
# number of rings (size 3 to 8) (size 9 to 14) (size 15 to 20)
#    0.000    1.833    3.333    1.000    0.000    3.667 
#    0.000    0.833    0.000    5.000    0.000    0.000 
#    0.000    0.000    0.000    0.000    0.000    0.000 
#
# Total GULP energy -595404.555891 kJ/mol
# GULP energy per Si atom -12404.261581 kJ/mol
# Density = 1.770293 g / cm^3
# Si number density = 17.743313 Si / 1000 Ang^3
#
#
#
# Elastic Constant Matrix: (Units=GPa)
#
#
# Indices 1 2 3 4 5 6 
#
# 1 63.3665 52.5862 52.1264 0.0000 0.0000 0.0000
# 2 52.5862 105.0477 63.5442 0.0000 0.0000 0.0000
# 3 52.1264 63.5442 122.7618 0.0000 0.0000 0.0000
# 4 0.0000 0.0000 0.0000 32.4680 0.0000 0.0000
# 5 0.0000 0.0000 0.0000 0.0000 27.3693 0.0000
# 6 0.0000 0.0000 0.0000 0.0000 0.0000 33.7659
#
#
#
# Elastic Compliance Matrix: (Units=1/GPa)
#
#
# Indices 1 2 3 4 5 6 
#
# 1 0.031107 -0.011038 -0.007495 0.000000 0.000000 0.000000
# 2 -0.011038 0.017776 -0.004514 0.000000 0.000000 0.000000
# 3 -0.007495 -0.004514 0.013665 0.000000 0.000000 0.000000
# 4 0.000000 0.000000 0.000000 0.030800 0.000000 0.000000
# 5 0.000000 0.000000 0.000000 0.000000 0.036537 0.000000
# 6 0.000000 0.000000 0.000000 0.000000 0.000000 0.029616
#
#
# Mechanical properties :
#
#
# Convention : Reuss Voigt Hill
#
# Bulk Modulus (GPa) = 60.77844 69.74332 65.26088
# Shear Modulus (GPa) = 23.68781 26.91525 25.30153
#
# Velocity S-wave (km/s) = 3.65777 3.89900 3.78031
# Velocity P-wave (km/s) = 7.22272 7.72410 7.47761
#
# Compressibility (1/GPa) = 0.01645320
#
# Stress axis : x y z
#
# Youngs Moduli (GPa) = 32.14715 56.25624 73.18029
#
# Poissons Ratio (x) = 0.62097 0.54847
# Poissons Ratio (y) = 0.35485 0.33035
# Poissons Ratio (z) = 0.24094 0.25395
#
# Static dielectric constant tensor:
#      x y z
#    x 3.263810 0.000000 0.000000 
#    y 0.000000 3.237050 0.000000 
#    z 0.000000 0.000000 5.840560 
# 
# 
# High freq. dielectric constant tensor:
#      x y z
#    x 1.684810 0.000000 0.000000 
#    y 0.000000 1.685230 0.000000 
#    z 0.000000 0.000000 1.690090 
# 
# From -- ./inp_files/59984.got.cif
#   From: 2010.03.12/outbox.cif.g09.slc.cpg/sg63_30_cif.got.tgz:59984.got - 2010.04.10 19:34:48.
