data_PCOD8257871
_publ_section_title
;
Structure prediction by ZEFSAII (Michael W. Deem and Ramdas Pophale) SiO2 
 PCOD8257871
Probable space group: C M C M
;
_chemical_formula_sum "Si O2"
_cell_formula_units_Z 96
_cell_length_a 8.908246
_cell_length_b 20.694208
_cell_length_c 28.006820
_cell_angle_alpha 90.000000
_cell_angle_beta 90.000000
_cell_angle_gamma 90.000000
_cell_volume 5163.031939
_symmetry_space_group_name_H-M "C M C M"
_symmetry_group_IT_number 63
_symmetry_cell_setting 'orthorhombic'
loop_
_space_group_symop_operation_xyz
x,y,z
-x,-y,1/2+z
x,-y,-z
-x,y,1/2-z
-x,-y,-z
x,y,1/2-z
-x,y,z
x,-y,1/2+z
1/2+x,1/2+y,z
1/2-x,1/2-y,1/2+z
1/2+x,1/2-y,-z
1/2-x,1/2+y,1/2-z
1/2-x,1/2-y,-z
1/2+x,1/2+y,1/2-z
1/2-x,1/2+y,z
1/2+x,1/2-y,1/2+z
loop_
_atom_site_type_symbol
_atom_site_label
_atom_site_fract_x
_atom_site_fract_y
_atom_site_fract_z
Si Si1 0.324527 0.126949 0.447299
Si Si2 0.177734 0.244403 0.107146
Si Si3 0.326169 0.559369 0.195763
Si Si4 0.321900 0.126939 0.555422
Si Si5 0.324603 0.998189 0.110710
Si Si6 0.324469 0.195707 0.304123
O O1 0.500000 0.144518 0.445239
O O2 0.233014 0.181218 0.419890
O O3 0.262862 0.124271 0.501279
O O4 0.291254 0.058203 0.423707
O O5 0.237750 0.307743 0.079965
O O6 0.243521 0.246084 0.160806
O O7 0.000000 0.243944 0.109978
O O8 0.300709 0.535604 0.250000
O O9 0.500000 0.573614 0.185632
O O10 0.264492 0.504437 0.160502
O O11 0.234760 0.624238 0.185227
O O12 0.500000 0.124246 0.554838
O O13 0.260913 0.065477 0.584669
O O14 0.500000 0.992015 0.122454
O O15 0.288363 0.216887 0.250000
O O16 0.500000 0.195320 0.314905
#
# Coordination Sequence:
#
# PCOD8257871 Si02
#       6
#    16  16  16  16  16  16
#     4  10  19  34  57  80 105 142 188 228 261 310
#     4  11  21  34  54  80 113 144 176 221 270 321
#     4  10  20  34  54  81 111 139 170 216 273 324
#     4   9  20  36  53  78 111 148 183 217 265 318
#     4  10  19  34  57  81 107 142 184 224 261 310
#     4  10  20  35  56  80 104 135 179 224 265 316
#
# _framework density 18.593724999999999
#
# number of rings (size 3 to 8) (size 9 to 14) (size 15 to 20)
#    0.000    2.000    1.667    2.500    0.000    4.000 
#    0.000    4.167    0.000    7.000    0.000    0.000 
#    0.000    0.000    0.000    0.000    0.000    0.000 
#
# Total GULP energy -595339.369156 kJ/mol
# GULP energy per Si atom -12402.903524 kJ/mol
# Density = 1.855140 g / cm^3
# Si number density = 18.593725 Si / 1000 Ang^3
#
#
#
# Elastic Constant Matrix: (Units=GPa)
#
#
# Indices 1 2 3 4 5 6 
#
# 1 60.0592 35.0995 44.9847 0.0000 0.0000 0.0000
# 2 35.0995 90.1525 50.6323 0.0000 0.0000 0.0000
# 3 44.9847 50.6323 145.2119 0.0000 0.0000 0.0000
# 4 0.0000 0.0000 0.0000 15.6569 0.0000 0.0000
# 5 0.0000 0.0000 0.0000 0.0000 30.3925 0.0000
# 6 0.0000 0.0000 0.0000 0.0000 0.0000 21.9816
#
#
#
# Elastic Compliance Matrix: (Units=1/GPa)
#
#
# Indices 1 2 3 4 5 6 
#
# 1 0.024435 -0.006544 -0.005288 0.000000 0.000000 0.000000
# 2 -0.006544 0.015546 -0.003393 0.000000 0.000000 0.000000
# 3 -0.005288 -0.003393 0.009708 0.000000 0.000000 0.000000
# 4 0.000000 0.000000 0.000000 0.063869 0.000000 0.000000
# 5 0.000000 0.000000 0.000000 0.000000 0.032903 0.000000
# 6 0.000000 0.000000 0.000000 0.000000 0.000000 0.045493
#
#
# Mechanical properties :
#
#
# Convention : Reuss Voigt Hill
#
# Bulk Modulus (GPa) = 51.97824 61.87295 56.92559
# Shear Modulus (GPa) = 21.85154 24.58666 23.21910
#
# Velocity S-wave (km/s) = 3.43185 3.64030 3.53761
# Velocity P-wave (km/s) = 6.61203 7.14266 6.88246
#
# Compressibility (1/GPa) = 0.01923882
#
# Stress axis : x y z
#
# Youngs Moduli (GPa) = 40.92454 64.32618 103.00920
#
# Poissons Ratio (x) = 0.42092 0.54472
# Poissons Ratio (y) = 0.26779 0.34955
# Poissons Ratio (z) = 0.21641 0.21828
#
# Static dielectric constant tensor:
#      x y z
#    x 3.262010 0.000000 0.000000 
#    y 0.000000 3.372980 0.000000 
#    z 0.000000 0.000000 3.782680 
# 
# 
# High freq. dielectric constant tensor:
#      x y z
#    x 1.708660 0.000000 0.000000 
#    y 0.000000 1.704720 0.000000 
#    z 0.000000 0.000000 1.741240 
# 
# From -- ./inp_files/66960.got.cif
#   From: 2010.03.12/outbox.cif.g09.slc.cpg/sg63_34_cif.got.tgz:66960.got - 2010.04.10 19:34:48.
