data_PCOD8257659
_publ_section_title
;
Structure prediction by ZEFSAII (Michael W. Deem and Ramdas Pophale) SiO2 
 PCOD8257659
Probable space group: C M C M
;
_chemical_formula_sum "Si O2"
_cell_formula_units_Z 104
_cell_length_a 21.868065
_cell_length_b 28.102992
_cell_length_c 9.095890
_cell_angle_alpha 90.000000
_cell_angle_beta 90.000000
_cell_angle_gamma 90.000000
_cell_volume 5589.952474
_symmetry_space_group_name_H-M "C M C M"
_symmetry_group_IT_number 63
_symmetry_cell_setting 'orthorhombic'
loop_
_space_group_symop_operation_xyz
x,y,z
-x,-y,1/2+z
x,-y,-z
-x,y,1/2-z
-x,-y,-z
x,y,1/2-z
-x,y,z
x,-y,1/2+z
1/2+x,1/2+y,z
1/2-x,1/2-y,1/2+z
1/2+x,1/2-y,-z
1/2-x,1/2+y,1/2-z
1/2-x,1/2-y,-z
1/2+x,1/2+y,1/2-z
1/2-x,1/2+y,z
1/2+x,1/2-y,1/2+z
loop_
_atom_site_type_symbol
_atom_site_label
_atom_site_fract_x
_atom_site_fract_y
_atom_site_fract_z
Si Si1 0.328982 0.883576 0.081129
Si Si2 0.318964 0.792739 0.915779
Si Si3 0.761748 0.951127 0.919301
Si Si4 0.932353 0.455791 0.417485
Si Si5 0.673869 0.700086 0.083573
Si Si6 0.614072 0.400345 0.919092
Si Si7 0.500000 0.552522 0.573190
O O1 0.307632 0.881551 0.250000
O O2 0.392350 0.909889 0.057946
O O3 0.346949 0.831882 0.022781
O O4 0.275180 0.907622 0.988745
O O5 0.342661 0.798694 0.750000
O O6 0.246763 0.802052 0.923729
O O7 0.344352 0.742141 0.972722
O O8 0.742426 0.956172 0.750000
O O9 0.833312 0.939855 0.934934
O O10 0.745735 0.000000 0.000000
O O11 0.901055 0.500000 0.500000
O O12 0.935831 0.470994 0.250000
O O13 0.000000 0.445403 0.481447
O O14 0.653312 0.711965 0.250000
O O15 0.641391 0.651068 0.031946
O O16 0.591470 0.397966 0.750000
O O17 0.558944 0.416946 0.023468
O O18 0.500000 0.500000 0.500000
O O19 0.500000 0.546991 0.750000
#
# Coordination Sequence:
#
# PCOD8257659 Si02
#       7
#    16  16  16  16  16  16   8
#     4  11  21  33  53  80 109 145 183 227 278 329
#     4  10  19  33  54  84 116 145 179 224 275 329
#     4  11  22  36  53  80 114 146 181 225 277 335
#     4   9  19  35  53  74 102 139 183 223 262 316
#     4   9  18  35  57  83 111 144 181 221 273 333
#     4  10  21  40  62  83 112 149 190 233 283 341
#     4  12  26  42  62  88 116 152 198 244 293 346
#
# _framework density 18.604808999999999
#
# number of rings (size 3 to 8) (size 9 to 14) (size 15 to 20)
#    0.000    1.846    1.538    3.000    0.000    6.154 
#    0.000    0.000    1.692    0.000    0.000    0.000 
#    0.000    0.000    0.000    0.000    0.000    0.000 
#
# Total GULP energy -644687.737173 kJ/mol
# GULP energy per Si atom -12397.841099 kJ/mol
# Density = 1.856246 g / cm^3
# Si number density = 18.604809 Si / 1000 Ang^3
#
#
#
# Elastic Constant Matrix: (Units=GPa)
#
#
# Indices 1 2 3 4 5 6 
#
# 1 52.3314 30.7217 43.8378 0.0000 0.0000 0.0000
# 2 30.7217 125.5027 61.9734 0.0000 0.0000 0.0000
# 3 43.8378 61.9734 117.1105 0.0000 0.0000 0.0000
# 4 0.0000 0.0000 0.0000 37.0600 0.0000 0.0000
# 5 0.0000 0.0000 0.0000 0.0000 24.3086 0.0000
# 6 0.0000 0.0000 0.0000 0.0000 0.0000 34.0744
#
#
#
# Elastic Compliance Matrix: (Units=1/GPa)
#
#
# Indices 1 2 3 4 5 6 
#
# 1 0.028320 -0.002298 -0.009385 0.000000 0.000000 0.000000
# 2 -0.002298 0.010973 -0.004947 0.000000 0.000000 0.000000
# 3 -0.009385 -0.004947 0.014670 0.000000 0.000000 0.000000
# 4 0.000000 0.000000 0.000000 0.026983 0.000000 0.000000
# 5 0.000000 0.000000 0.000000 0.000000 0.041138 0.000000
# 6 0.000000 0.000000 0.000000 0.000000 0.000000 0.029348
#
#
# Mechanical properties :
#
#
# Convention : Reuss Voigt Hill
#
# Bulk Modulus (GPa) = 48.30101 63.11227 55.70664
# Shear Modulus (GPa) = 26.09726 29.64938 27.87332
#
# Velocity S-wave (km/s) = 3.74935 3.99637 3.87483
# Velocity P-wave (km/s) = 6.69040 7.43578 7.07292
#
# Compressibility (1/GPa) = 0.02070350
#
# Stress axis : x y z
#
# Youngs Moduli (GPa) = 35.31113 91.13142 68.16834
#
# Poissons Ratio (x) = 0.20944 0.63974
# Poissons Ratio (y) = 0.08115 0.33720
# Poissons Ratio (z) = 0.33138 0.45079
#
# Static dielectric constant tensor:
#      x y z
#    x 3.567390 0.000000 0.000000 
#    y 0.000000 3.541350 0.000000 
#    z 0.000000 0.000000 3.543320 
# 
# 
# High freq. dielectric constant tensor:
#      x y z
#    x 1.698010 0.000000 0.000000 
#    y 0.000000 1.730370 0.000000 
#    z 0.000000 0.000000 1.729650 
# 
# From -- ./inp_files/8835.got.cif
#   From: 2010.03.12/outbox.cif.g09.slc.cpg/sg63_5_cif.got.tgz:8835.got - 2010.04.10 19:34:48.
