data_PCOD8257416
_publ_section_title
;
Structure prediction by ZEFSAII (Michael W. Deem and Ramdas Pophale) SiO2 
 PCOD8257416
Probable space group: C M C M
;
_chemical_formula_sum "Si O2"
_cell_formula_units_Z 96
_cell_length_a 23.904942
_cell_length_b 23.421768
_cell_length_c 8.886801
_cell_angle_alpha 90.000000
_cell_angle_beta 90.000000
_cell_angle_gamma 90.000000
_cell_volume 4975.684382
_symmetry_space_group_name_H-M "C M C M"
_symmetry_group_IT_number 63
_symmetry_cell_setting 'orthorhombic'
loop_
_space_group_symop_operation_xyz
x,y,z
-x,-y,1/2+z
x,-y,-z
-x,y,1/2-z
-x,-y,-z
x,y,1/2-z
-x,y,z
x,-y,1/2+z
1/2+x,1/2+y,z
1/2-x,1/2-y,1/2+z
1/2+x,1/2-y,-z
1/2-x,1/2+y,1/2-z
1/2-x,1/2-y,-z
1/2+x,1/2+y,1/2-z
1/2-x,1/2+y,z
1/2+x,1/2-y,1/2+z
loop_
_atom_site_type_symbol
_atom_site_label
_atom_site_fract_x
_atom_site_fract_y
_atom_site_fract_z
Si Si1 0.336263 0.230053 0.073604
Si Si2 0.058730 0.060687 0.425153
Si Si3 0.566396 0.056327 0.080802
Si Si4 0.238284 0.836258 0.073578
Si Si5 0.435692 0.173553 0.927573
Si Si6 0.820285 0.937909 0.571847
O O1 0.340738 0.218992 0.250000
O O2 0.312412 0.292796 0.037070
O O3 0.295437 0.183442 0.002185
O O4 0.397533 0.223338 0.999346
O O5 0.060113 0.048799 0.250000
O O6 0.118017 0.089445 0.468975
O O7 0.000000 0.094339 0.467460
O O8 0.056267 0.000000 0.500000
O O9 0.590472 0.059724 0.250000
O O10 0.500000 0.051903 0.084210
O O11 0.584904 0.112510 0.990285
O O12 0.591375 0.000000 0.000000
O O13 0.248543 0.841773 0.250000
O O14 0.225076 0.897409 0.003427
O O15 0.428127 0.173214 0.750000
O O16 0.500000 0.185826 0.973064
O O17 0.810277 0.941472 0.750000
O O18 0.813604 0.000000 0.500000
#
# Coordination Sequence:
#
# PCOD8257416 Si02
#       6
#    16  16  16  16  16  16
#     4  10  21  38  60  82 105 138 180 223 267 317
#     4   8  14  25  42  66  97 134 173 210 250 301
#     4   9  16  27  45  70 102 140 179 216 257 310
#     4  10  21  38  59  81 106 138 179 223 267 319
#     4  10  20  34  54  81 112 144 178 219 268 319
#     4  10  19  32  53  80 111 144 179 221 270 321
#
# _framework density 19.293827
#
# number of rings (size 3 to 8) (size 9 to 14) (size 15 to 20)
#    0.000    2.500    0.000    2.500    0.000    5.667 
#    0.000    1.667    0.000    3.000    0.000    0.000 
#    0.000    0.000    0.000    0.000    0.000    0.000 
#
# Total GULP energy -594821.434208 kJ/mol
# GULP energy per Si atom -12392.113213 kJ/mol
# Density = 1.924991 g / cm^3
# Si number density = 19.293827 Si / 1000 Ang^3
#
#
#
# Elastic Constant Matrix: (Units=GPa)
#
#
# Indices 1 2 3 4 5 6 
#
# 1 80.8124 39.0282 44.1320 0.0000 0.0000 0.0000
# 2 39.0282 67.1090 33.6516 0.0000 0.0000 0.0000
# 3 44.1320 33.6516 93.3753 0.0000 0.0000 0.0000
# 4 0.0000 0.0000 0.0000 30.2773 0.0000 0.0000
# 5 0.0000 0.0000 0.0000 0.0000 28.6167 0.0000
# 6 0.0000 0.0000 0.0000 0.0000 0.0000 25.3070
#
#
#
# Elastic Compliance Matrix: (Units=1/GPa)
#
#
# Indices 1 2 3 4 5 6 
#
# 1 0.019909 -0.008373 -0.006392 0.000000 0.000000 0.000000
# 2 -0.008373 0.021709 -0.003867 0.000000 0.000000 0.000000
# 3 -0.006392 -0.003867 0.015124 0.000000 0.000000 0.000000
# 4 0.000000 0.000000 0.000000 0.033028 0.000000 0.000000
# 5 0.000000 0.000000 0.000000 0.000000 0.034945 0.000000
# 6 0.000000 0.000000 0.000000 0.000000 0.000000 0.039515
#
#
# Mechanical properties :
#
#
# Convention : Reuss Voigt Hill
#
# Bulk Modulus (GPa) = 51.33683 52.76891 52.05287
# Shear Modulus (GPa) = 24.04015 25.13920 24.58967
#
# Velocity S-wave (km/s) = 3.53370 3.61358 3.57386
# Velocity P-wave (km/s) = 6.58142 6.69478 6.63834
#
# Compressibility (1/GPa) = 0.01947919
#
# Stress axis : x y z
#
# Youngs Moduli (GPa) = 50.22929 46.06300 66.12026
#
# Poissons Ratio (x) = 0.38568 0.42264
# Poissons Ratio (y) = 0.42057 0.25566
# Poissons Ratio (z) = 0.32106 0.17810
#
# Static dielectric constant tensor:
#      x y z
#    x 3.795730 0.000000 0.000000 
#    y 0.000000 3.275510 0.000000 
#    z 0.000000 0.000000 3.589210 
# 
# 
# High freq. dielectric constant tensor:
#      x y z
#    x 1.746450 0.000000 0.000000 
#    y 0.000000 1.722220 0.000000 
#    z 0.000000 0.000000 1.765000 
# 
# From -- ./inp_files/10419.got.cif
#   From: 2010.03.12/outbox.cif.g09.slc.cpg/sg63_6_cif.got.tgz:10419.got - 2010.04.10 19:34:48.
