data_PCOD8257639
_publ_section_title
;
Structure prediction by ZEFSAII (Michael W. Deem and Ramdas Pophale) SiO2 
 PCOD8257639
Probable space group: C M C M
;
_chemical_formula_sum "Si O2"
_cell_formula_units_Z 88
_cell_length_a 27.486155
_cell_length_b 19.289471
_cell_length_c 9.646193
_cell_angle_alpha 90.000000
_cell_angle_beta 90.000000
_cell_angle_gamma 90.000000
_cell_volume 5114.347765
_symmetry_space_group_name_H-M "C M C M"
_symmetry_group_IT_number 63
_symmetry_cell_setting 'orthorhombic'
loop_
_space_group_symop_operation_xyz
x,y,z
-x,-y,1/2+z
x,-y,-z
-x,y,1/2-z
-x,-y,-z
x,y,1/2-z
-x,y,z
x,-y,1/2+z
1/2+x,1/2+y,z
1/2-x,1/2-y,1/2+z
1/2+x,1/2-y,-z
1/2-x,1/2+y,1/2-z
1/2-x,1/2-y,-z
1/2+x,1/2+y,1/2-z
1/2-x,1/2+y,z
1/2+x,1/2-y,1/2+z
loop_
_atom_site_type_symbol
_atom_site_label
_atom_site_fract_x
_atom_site_fract_y
_atom_site_fract_z
Si Si1 0.920912 0.679510 0.590180
Si Si2 0.372985 0.432850 0.410311
Si Si3 0.055246 0.188581 0.592016
Si Si4 0.685748 0.205782 0.908706
Si Si5 0.209724 0.166222 0.909155
Si Si6 0.500000 0.068930 0.911554
O O1 0.931160 0.698300 0.750000
O O2 0.937486 0.744477 0.501344
O O3 0.863718 0.662705 0.564404
O O4 0.951913 0.612374 0.547574
O O5 0.383296 0.500000 0.500000
O O6 0.380887 0.452102 0.250000
O O7 0.410360 0.373548 0.458832
O O8 0.317861 0.405957 0.438284
O O9 0.068227 0.208871 0.750000
O O10 0.000000 0.162347 0.579219
O O11 0.688580 0.230699 0.750000
O O12 0.732864 0.158422 0.945518
O O13 0.684691 0.274227 0.001075
O O14 0.202123 0.188235 0.750000
O O15 0.500000 0.049178 0.750000
O O16 0.500000 0.000000 0.000000
#
# Coordination Sequence:
#
# PCOD8257639 Si02
#       6
#    16  16  16  16  16   8
#     4  10  19  33  54  80 106 132 168 213 256 304
#     4  10  21  35  50  71 104 142 176 214 258 305
#     4  10  20  34  53  77 103 133 173 216 258 305
#     4   9  17  29  51  78 101 128 164 210 257 299
#     4   9  17  31  49  73 103 132 166 209 254 301
#     4  10  22  38  54  76 107 138 169 206 255 310
#
# _framework density 17.206495
#
# number of rings (size 3 to 8) (size 9 to 14) (size 15 to 20)
#    0.000    2.364    2.727    0.000    0.000    2.545 
#    0.000    0.909    0.000    0.000    0.000    0.000 
#    0.000    0.000    0.000    0.000    0.000    0.000 
#
# Total GULP energy -545515.342014 kJ/mol
# GULP energy per Si atom -12398.075955 kJ/mol
# Density = 1.716733 g / cm^3
# Si number density = 17.206495 Si / 1000 Ang^3
#
#
#
# Elastic Constant Matrix: (Units=GPa)
#
#
# Indices 1 2 3 4 5 6 
#
# 1 130.6554 64.6506 41.5185 0.0000 0.0000 0.0000
# 2 64.6506 124.4462 62.5757 0.0000 0.0000 0.0000
# 3 41.5185 62.5757 63.0002 0.0000 0.0000 0.0000
# 4 0.0000 0.0000 0.0000 33.7052 0.0000 0.0000
# 5 0.0000 0.0000 0.0000 0.0000 22.1978 0.0000
# 6 0.0000 0.0000 0.0000 0.0000 0.0000 23.4945
#
#
#
# Elastic Compliance Matrix: (Units=1/GPa)
#
#
# Indices 1 2 3 4 5 6 
#
# 1 0.010583 -0.003977 -0.003024 0.000000 0.000000 0.000000
# 2 -0.003977 0.017548 -0.014809 0.000000 0.000000 0.000000
# 3 -0.003024 -0.014809 0.032575 0.000000 0.000000 0.000000
# 4 0.000000 0.000000 0.000000 0.029669 0.000000 0.000000
# 5 0.000000 0.000000 0.000000 0.000000 0.045050 0.000000
# 6 0.000000 0.000000 0.000000 0.000000 0.000000 0.042563
#
#
# Mechanical properties :
#
#
# Convention : Reuss Voigt Hill
#
# Bulk Modulus (GPa) = 58.52785 72.84348 65.68567
# Shear Modulus (GPa) = 21.99716 25.83662 23.91689
#
# Velocity S-wave (km/s) = 3.57938 3.87920 3.73230
# Velocity P-wave (km/s) = 7.15342 7.90513 7.53865
#
# Compressibility (1/GPa) = 0.01708588
#
# Stress axis : x y z
#
# Youngs Moduli (GPa) = 94.49464 56.98578 30.69875
#
# Poissons Ratio (x) = 0.22665 0.09282
# Poissons Ratio (y) = 0.37584 0.45461
# Poissons Ratio (z) = 0.28571 0.84389
#
# Static dielectric constant tensor:
#      x y z
#    x 3.746090 0.000000 0.000000 
#    y 0.000000 2.867340 0.000000 
#    z 0.000000 0.000000 3.226860 
# 
# 
# High freq. dielectric constant tensor:
#      x y z
#    x 1.687890 0.000000 0.000000 
#    y 0.000000 1.627560 0.000000 
#    z 0.000000 0.000000 1.665980 
# 
# From -- ./inp_files/14195.got.cif
#   From: 2010.03.12/outbox.cif.g09.slc.cpg/sg63_8_cif.got.tgz:14195.got - 2010.04.10 19:34:48.
