data_PCOD8257142
_publ_section_title
;
Structure prediction by ZEFSAII (Michael W. Deem and Ramdas Pophale) SiO2 
 PCOD8257142
Probable space group: C M C M
;
_chemical_formula_sum "Si O2"
_cell_formula_units_Z 96
_cell_length_a 19.360631
_cell_length_b 10.239020
_cell_length_c 24.747254
_cell_angle_alpha 90.000000
_cell_angle_beta 90.000000
_cell_angle_gamma 90.000000
_cell_volume 4905.744378
_symmetry_space_group_name_H-M "C M C M"
_symmetry_group_IT_number 63
_symmetry_cell_setting 'orthorhombic'
loop_
_space_group_symop_operation_xyz
x,y,z
-x,-y,1/2+z
x,-y,-z
-x,y,1/2-z
-x,-y,-z
x,y,1/2-z
-x,y,z
x,-y,1/2+z
1/2+x,1/2+y,z
1/2-x,1/2-y,1/2+z
1/2+x,1/2-y,-z
1/2-x,1/2+y,1/2-z
1/2-x,1/2-y,-z
1/2+x,1/2+y,1/2-z
1/2-x,1/2+y,z
1/2+x,1/2-y,1/2+z
loop_
_atom_site_type_symbol
_atom_site_label
_atom_site_fract_x
_atom_site_fract_y
_atom_site_fract_z
Si Si1 0.924046 0.244323 0.903384
Si Si2 0.233624 0.914738 0.953222
Si Si3 0.785737 0.474765 0.346139
Si Si4 0.638522 0.789267 0.492568
Si Si5 0.683328 0.738860 0.809838
Si Si6 0.075634 0.448030 0.400584
O O1 0.873117 0.202096 0.855102
O O2 0.926588 0.398899 0.910352
O O3 0.000000 0.187156 0.889921
O O4 0.900416 0.196243 0.963378
O O5 0.183132 0.790497 0.947665
O O6 0.240315 0.999792 0.899633
O O7 0.310604 0.875065 0.970345
O O8 0.198912 0.000000 0.000000
O O9 0.747051 0.362332 0.312944
O O10 0.789581 0.612703 0.315105
O O11 0.862575 0.418600 0.358460
O O12 0.586812 0.878050 0.458244
O O13 0.650389 0.724942 0.750000
O O14 0.000000 0.402723 0.377963
#
# Coordination Sequence:
#
# PCOD8257142 Si02
#       6
#    16  16  16  16  16  16
#     4  10  20  34  54  82 114 143 181 230 276 329
#     4  11  19  29  51  81 113 149 183 219 266 332
#     4  11  21  38  57  85 114 144 186 234 279 332
#     4  11  18  30  50  81 118 153 179 215 270 332
#     4  11  23  39  61  82 105 141 190 242 288 326
#     4  10  19  31  52  83 118 151 179 216 272 337
#
# _framework density 19.568895999999999
#
# number of rings (size 3 to 8) (size 9 to 14) (size 15 to 20)
#    0.000    1.333    5.000    3.500    0.000    1.667 
#    0.000    0.000    0.000   15.500    0.000    0.000 
#    0.000    0.000    0.000    0.000    0.000    0.000 
#
# Total GULP energy -594811.082808 kJ/mol
# GULP energy per Si atom -12391.897559 kJ/mol
# Density = 1.952436 g / cm^3
# Si number density = 19.568896 Si / 1000 Ang^3
#
#
#
# Elastic Constant Matrix: (Units=GPa)
#
#
# Indices 1 2 3 4 5 6 
#
# 1 122.7143 34.7031 36.4909 0.0000 0.0000 0.0000
# 2 34.7031 44.1899 22.9497 0.0000 0.0000 0.0000
# 3 36.4909 22.9497 85.8841 0.0000 0.0000 0.0000
# 4 0.0000 0.0000 0.0000 17.5592 0.0000 0.0000
# 5 0.0000 0.0000 0.0000 0.0000 14.0206 0.0000
# 6 0.0000 0.0000 0.0000 0.0000 0.0000 19.1869
#
#
#
# Elastic Compliance Matrix: (Units=1/GPa)
#
#
# Indices 1 2 3 4 5 6 
#
# 1 0.011007 -0.007217 -0.002748 0.000000 0.000000 0.000000
# 2 -0.007217 0.031008 -0.005220 0.000000 0.000000 0.000000
# 3 -0.002748 -0.005220 0.014206 0.000000 0.000000 0.000000
# 4 0.000000 0.000000 0.000000 0.056950 0.000000 0.000000
# 5 0.000000 0.000000 0.000000 0.000000 0.071324 0.000000
# 6 0.000000 0.000000 0.000000 0.000000 0.000000 0.052119
#
#
# Mechanical properties :
#
#
# Convention : Reuss Voigt Hill
#
# Bulk Modulus (GPa) = 38.68208 49.00842 43.84525
# Shear Modulus (GPa) = 18.14222 20.72964 19.43593
#
# Velocity S-wave (km/s) = 3.04813 3.25824 3.15494
# Velocity P-wave (km/s) = 5.67434 6.26524 5.97710
#
# Compressibility (1/GPa) = 0.02585176
#
# Stress axis : x y z
#
# Youngs Moduli (GPa) = 90.85012 32.24995 70.39244
#
# Poissons Ratio (x) = 0.23274 0.19346
# Poissons Ratio (y) = 0.65565 0.36741
# Poissons Ratio (z) = 0.24969 0.16833
#
# Static dielectric constant tensor:
#      x y z
#    x 3.896510 0.000000 0.000000 
#    y 0.000000 3.411070 0.000000 
#    z 0.000000 0.000000 3.425660 
# 
# 
# High freq. dielectric constant tensor:
#      x y z
#    x 1.758790 0.000000 0.000000 
#    y 0.000000 1.740090 0.000000 
#    z 0.000000 0.000000 1.742340 
# 
# From -- ./inp_files/69878.got.cif
#   From: 2010.03.12/outbox.cif.g09.slc.cpg/sg63_35_cif.got.tgz:69878.got - 2010.04.10 19:34:48.
