data_PCOD8257103
_publ_section_title
;
Structure prediction by ZEFSAII (Michael W. Deem and Ramdas Pophale) SiO2 
 PCOD8257103
Probable space group: C M C M
;
_chemical_formula_sum "Si O2"
_cell_formula_units_Z 80
_cell_length_a 7.667304
_cell_length_b 19.581402
_cell_length_c 29.043538
_cell_angle_alpha 90.000000
_cell_angle_beta 90.000000
_cell_angle_gamma 90.000000
_cell_volume 4360.496940
_symmetry_space_group_name_H-M "C M C M"
_symmetry_group_IT_number 63
_symmetry_cell_setting 'orthorhombic'
loop_
_space_group_symop_operation_xyz
x,y,z
-x,-y,1/2+z
x,-y,-z
-x,y,1/2-z
-x,-y,-z
x,y,1/2-z
-x,y,z
x,-y,1/2+z
1/2+x,1/2+y,z
1/2-x,1/2-y,1/2+z
1/2+x,1/2-y,-z
1/2-x,1/2+y,1/2-z
1/2-x,1/2-y,-z
1/2+x,1/2+y,1/2-z
1/2-x,1/2+y,z
1/2+x,1/2-y,1/2+z
loop_
_atom_site_type_symbol
_atom_site_label
_atom_site_fract_x
_atom_site_fract_y
_atom_site_fract_z
Si Si1 0.796934 0.586625 0.382519
Si Si2 0.000000 0.916216 0.549218
Si Si3 0.206635 0.682409 0.300607
Si Si4 0.000000 0.077952 0.553034
Si Si5 0.296182 0.335649 0.302668
Si Si6 0.307250 0.929159 0.117551
O O1 0.676373 0.609189 0.425477
O O2 0.728249 0.628908 0.338535
O O3 0.763854 0.507624 0.370611
O O4 0.000000 0.601851 0.394233
O O5 0.000000 0.886610 0.497225
O O6 0.000000 0.997366 0.547182
O O7 0.280717 0.662046 0.250000
O O8 0.269035 0.758774 0.313558
O O9 0.000000 0.682263 0.298106
O O10 0.171552 0.101790 0.580819
O O11 0.253036 0.354449 0.250000
O O12 0.500000 0.343008 0.312756
O O13 0.194271 0.387793 0.335015
O O14 0.500000 0.923832 0.095538
#
# Coordination Sequence:
#
# PCOD8257103 Si02
#       6
#    16   8  16   8  16  16
#     4   9  18  32  51  76 101 128 166 207 248 294
#     4   9  18  32  53  75  99 129 163 206 256 298
#     4   8  15  30  51  73  99 135 169 198 243 295
#     4   9  18  34  51  73 103 129 161 208 252 300
#     4   9  17  31  51  73 100 136 170 199 240 295
#     4  10  19  31  51  77 101 130 166 204 250 295
#
# _framework density 18.346532
#
# number of rings (size 3 to 8) (size 9 to 14) (size 15 to 20)
#    0.000    3.000    1.000    1.200    0.000    2.000 
#    1.800    6.500    0.000    1.200    0.000    0.000 
#    0.000    0.000    0.000    0.000    0.000    0.000 
#
# Total GULP energy -495835.907510 kJ/mol
# GULP energy per Si atom -12395.897688 kJ/mol
# Density = 1.830477 g / cm^3
# Si number density = 18.346532 Si / 1000 Ang^3
#
#
#
# Elastic Constant Matrix: (Units=GPa)
#
#
# Indices 1 2 3 4 5 6 
#
# 1 91.2361 29.6829 57.9513 0.0000 0.0000 0.0000
# 2 29.6829 60.0519 57.4334 0.0000 0.0000 0.0000
# 3 57.9513 57.4334 145.3625 0.0000 0.0000 0.0000
# 4 0.0000 0.0000 0.0000 7.6418 0.0000 0.0000
# 5 0.0000 0.0000 0.0000 0.0000 22.0421 0.0000
# 6 0.0000 0.0000 0.0000 0.0000 0.0000 12.6762
#
#
#
# Elastic Compliance Matrix: (Units=1/GPa)
#
#
# Indices 1 2 3 4 5 6 
#
# 1 0.014948 -0.002715 -0.004886 0.000000 0.000000 0.000000
# 2 -0.002715 0.027260 -0.009688 0.000000 0.000000 0.000000
# 3 -0.004886 -0.009688 0.012655 0.000000 0.000000 0.000000
# 4 0.000000 0.000000 0.000000 0.130860 0.000000 0.000000
# 5 0.000000 0.000000 0.000000 0.000000 0.045368 0.000000
# 6 0.000000 0.000000 0.000000 0.000000 0.000000 0.078888
#
#
# Mechanical properties :
#
#
# Convention : Reuss Voigt Hill
#
# Bulk Modulus (GPa) = 49.30088 65.19840 57.24964
# Shear Modulus (GPa) = 14.23209 18.57754 16.40482
#
# Velocity S-wave (km/s) = 2.78823 3.18558 2.99350
# Velocity P-wave (km/s) = 6.10705 7.01034 6.57422
#
# Compressibility (1/GPa) = 0.02028361
#
# Stress axis : x y z
#
# Youngs Moduli (GPa) = 66.90014 36.68386 79.01882
#
# Poissons Ratio (x) = 0.09960 0.38612
# Poissons Ratio (y) = 0.18164 0.76554
# Poissons Ratio (z) = 0.32690 0.35540
#
# Static dielectric constant tensor:
#      x y z
#    x 3.348850 0.000000 0.000000 
#    y 0.000000 3.241370 0.000000 
#    z 0.000000 0.000000 3.631680 
# 
# 
# High freq. dielectric constant tensor:
#      x y z
#    x 1.712040 0.000000 0.000000 
#    y 0.000000 1.682520 0.000000 
#    z 0.000000 0.000000 1.703130 
# 
# From -- ./inp_files/66715.got.cif
#   From: 2010.03.12/outbox.cif.g09.slc.cpg/sg63_34_cif.got.tgz:66715.got - 2010.04.10 19:34:48.
