data_PCOD8257876
_publ_section_title
;
Structure prediction by ZEFSAII (Michael W. Deem and Ramdas Pophale) SiO2 
 PCOD8257876
Probable space group: C M C M
;
_chemical_formula_sum "Si O2"
_cell_formula_units_Z 96
_cell_length_a 8.935013
_cell_length_b 20.642861
_cell_length_c 27.965623
_cell_angle_alpha 90.000000
_cell_angle_beta 90.000000
_cell_angle_gamma 90.000000
_cell_volume 5158.097840
_symmetry_space_group_name_H-M "C M C M"
_symmetry_group_IT_number 63
_symmetry_cell_setting 'orthorhombic'
loop_
_space_group_symop_operation_xyz
x,y,z
-x,-y,1/2+z
x,-y,-z
-x,y,1/2-z
-x,-y,-z
x,y,1/2-z
-x,y,z
x,-y,1/2+z
1/2+x,1/2+y,z
1/2-x,1/2-y,1/2+z
1/2+x,1/2-y,-z
1/2-x,1/2+y,1/2-z
1/2-x,1/2-y,-z
1/2+x,1/2+y,1/2-z
1/2-x,1/2+y,z
1/2+x,1/2-y,1/2+z
loop_
_atom_site_type_symbol
_atom_site_label
_atom_site_fract_x
_atom_site_fract_y
_atom_site_fract_z
Si Si1 0.825562 0.679149 0.446792
Si Si2 0.174698 0.315598 0.444718
Si Si3 0.177999 0.000957 0.196262
Si Si4 0.176673 0.873113 0.640498
Si Si5 0.172361 0.742376 0.194444
Si Si6 0.825286 0.125602 0.858787
O O1 0.792107 0.659928 0.501522
O O2 0.761283 0.749460 0.434040
O O3 0.748344 0.626454 0.412495
O O4 0.000000 0.681520 0.435521
O O5 0.235111 0.369822 0.408551
O O6 0.000000 0.302665 0.436940
O O7 0.244147 0.001439 0.250000
O O8 0.237283 0.064246 0.168640
O O9 0.000000 0.000730 0.198647
O O10 0.235519 0.937407 0.168745
O O11 0.222384 0.809093 0.668900
O O12 0.000000 0.875215 0.634991
O O13 0.211486 0.742689 0.250000
O O14 0.209157 0.813209 0.174515
O O15 0.000000 0.723865 0.185001
O O16 0.000000 0.119319 0.870820
#
# Coordination Sequence:
#
# PCOD8257876 Si02
#       6
#    16  16  16  16  16  16
#     4  10  20  35  55  80 111 146 181 220 274 336
#     4  10  20  34  55  83 112 141 177 226 279 327
#     4   9  19  36  56  79 110 149 188 224 268 322
#     4  11  21  34  55  82 111 144 184 231 276 317
#     4  10  20  33  52  79 108 139 180 228 276 328
#     4  10  19  34  57  81 108 145 185 224 270 325
#
# _framework density 18.611511
#
# number of rings (size 3 to 8) (size 9 to 14) (size 15 to 20)
#    0.000    2.000    1.667    2.500    0.000    5.000 
#    0.000    2.500    0.000    8.500    0.000    0.000 
#    0.000    0.000    0.000    0.000    0.000    0.000 
#
# Total GULP energy -595347.800895 kJ/mol
# GULP energy per Si atom -12403.079185 kJ/mol
# Density = 1.856915 g / cm^3
# Si number density = 18.611511 Si / 1000 Ang^3
#
#
#
# Elastic Constant Matrix: (Units=GPa)
#
#
# Indices 1 2 3 4 5 6 
#
# 1 65.0881 38.7096 49.2868 0.0000 0.0000 0.0000
# 2 38.7096 107.6260 64.1592 0.0000 0.0000 0.0000
# 3 49.2868 64.1592 156.0226 0.0000 0.0000 0.0000
# 4 0.0000 0.0000 0.0000 35.3207 0.0000 0.0000
# 5 0.0000 0.0000 0.0000 0.0000 32.1549 0.0000
# 6 0.0000 0.0000 0.0000 0.0000 0.0000 21.2043
#
#
#
# Elastic Compliance Matrix: (Units=1/GPa)
#
#
# Indices 1 2 3 4 5 6 
#
# 1 0.022059 -0.005007 -0.004909 0.000000 0.000000 0.000000
# 2 -0.005007 0.013445 -0.003947 0.000000 0.000000 0.000000
# 3 -0.004909 -0.003947 0.009583 0.000000 0.000000 0.000000
# 4 0.000000 0.000000 0.000000 0.028312 0.000000 0.000000
# 5 0.000000 0.000000 0.000000 0.000000 0.031099 0.000000
# 6 0.000000 0.000000 0.000000 0.000000 0.000000 0.047160
#
#
# Mechanical properties :
#
#
# Convention : Reuss Voigt Hill
#
# Bulk Modulus (GPa) = 57.60281 70.33865 63.97073
# Shear Modulus (GPa) = 27.00157 29.50805 28.25481
#
# Velocity S-wave (km/s) = 3.81307 3.98612 3.90055
# Velocity P-wave (km/s) = 7.09953 7.68509 7.39811
#
# Compressibility (1/GPa) = 0.01736026
#
# Stress axis : x y z
#
# Youngs Moduli (GPa) = 45.33230 74.37436 104.34822
#
# Poissons Ratio (x) = 0.37243 0.51227
# Poissons Ratio (y) = 0.22700 0.41188
# Poissons Ratio (z) = 0.22255 0.29357
#
# Static dielectric constant tensor:
#      x y z
#    x 3.264510 0.000000 0.000000 
#    y 0.000000 3.338100 0.000000 
#    z 0.000000 0.000000 3.746730 
# 
# 
# High freq. dielectric constant tensor:
#      x y z
#    x 1.708830 0.000000 0.000000 
#    y 0.000000 1.704270 0.000000 
#    z 0.000000 0.000000 1.742810 
# 
# From -- ./inp_files/66907.got.cif
#   From: 2010.03.12/outbox.cif.g09.slc.cpg/sg63_34_cif.got.tgz:66907.got - 2010.04.10 19:34:48.
