data_PCOD8257540
_publ_section_title
;
Structure prediction by ZEFSAII (Michael W. Deem and Ramdas Pophale) SiO2 
 PCOD8257540
Probable space group: C M C M
;
_chemical_formula_sum "Si O2"
_cell_formula_units_Z 96
_cell_length_a 9.070266
_cell_length_b 23.529987
_cell_length_c 25.828235
_cell_angle_alpha 90.000000
_cell_angle_beta 90.000000
_cell_angle_gamma 90.000000
_cell_volume 5512.345625
_symmetry_space_group_name_H-M "C M C M"
_symmetry_group_IT_number 63
_symmetry_cell_setting 'orthorhombic'
loop_
_space_group_symop_operation_xyz
x,y,z
-x,-y,1/2+z
x,-y,-z
-x,y,1/2-z
-x,-y,-z
x,y,1/2-z
-x,y,z
x,-y,1/2+z
1/2+x,1/2+y,z
1/2-x,1/2-y,1/2+z
1/2+x,1/2-y,-z
1/2-x,1/2+y,1/2-z
1/2-x,1/2-y,-z
1/2+x,1/2+y,1/2-z
1/2-x,1/2+y,z
1/2+x,1/2-y,1/2+z
loop_
_atom_site_type_symbol
_atom_site_label
_atom_site_fract_x
_atom_site_fract_y
_atom_site_fract_z
Si Si1 0.323778 0.232217 0.446296
Si Si2 0.835470 0.569971 0.959193
Si Si3 0.330667 0.826639 0.113177
Si Si4 0.327776 0.407265 0.190115
Si Si5 0.331769 0.894681 0.925988
Si Si6 0.670871 0.506532 0.383742
O O1 0.500000 0.235986 0.452320
O O2 0.250000 0.250000 0.500000
O O3 0.266847 0.271519 0.399475
O O4 0.270086 0.169025 0.431005
O O5 0.818495 0.633206 0.936857
O O6 0.716496 0.528185 0.934819
O O7 0.000000 0.546789 0.946513
O O8 0.809619 0.572238 0.020138
O O9 0.500000 0.809470 0.124048
O O10 0.265912 0.857391 0.163779
O O11 0.285700 0.408920 0.250000
O O12 0.500000 0.394715 0.180746
O O13 0.285088 0.468742 0.166195
O O14 0.500000 0.891730 0.908881
O O15 0.248182 0.931643 0.882241
O O16 0.500000 0.518751 0.385978
#
# Coordination Sequence:
#
# PCOD8257540 Si02
#       6
#    16  16  16  16  16  16
#     4  11  21  34  51  73 104 143 182 214 254 306
#     4   9  17  31  47  66  99 139 169 200 247 302
#     4  10  19  33  52  78 106 134 174 217 257 304
#     4   9  19  37  58  78 102 132 166 212 270 318
#     4  10  20  33  47  67 101 143 174 199 246 305
#     4  10  20  31  47  75 100 126 169 215 256 301
#
# _framework density 17.415452999999999
#
# number of rings (size 3 to 8) (size 9 to 14) (size 15 to 20)
#    0.000    2.167    1.667    2.000    0.000    5.667 
#    0.000    0.000    0.000    1.000    0.000    4.667 
#    0.000    0.000    0.000    0.000    0.000    0.000 
#
# Total GULP energy -595180.250301 kJ/mol
# GULP energy per Si atom -12399.588548 kJ/mol
# Density = 1.737581 g / cm^3
# Si number density = 17.415453 Si / 1000 Ang^3
#
#
#
# Elastic Constant Matrix: (Units=GPa)
#
#
# Indices 1 2 3 4 5 6 
#
# 1 73.7084 52.6106 39.9398 0.0000 0.0000 0.0000
# 2 52.6106 107.9946 42.9380 0.0000 0.0000 0.0000
# 3 39.9398 42.9380 78.0296 0.0000 0.0000 0.0000
# 4 0.0000 0.0000 0.0000 15.2375 0.0000 0.0000
# 5 0.0000 0.0000 0.0000 0.0000 21.7328 0.0000
# 6 0.0000 0.0000 0.0000 0.0000 0.0000 33.1476
#
#
#
# Elastic Compliance Matrix: (Units=1/GPa)
#
#
# Indices 1 2 3 4 5 6 
#
# 1 0.023729 -0.008616 -0.007405 0.000000 0.000000 0.000000
# 2 -0.008616 0.014981 -0.003834 0.000000 0.000000 0.000000
# 3 -0.007405 -0.003834 0.018715 0.000000 0.000000 0.000000
# 4 0.000000 0.000000 0.000000 0.065628 0.000000 0.000000
# 5 0.000000 0.000000 0.000000 0.000000 0.046013 0.000000
# 6 0.000000 0.000000 0.000000 0.000000 0.000000 0.030168
#
#
# Mechanical properties :
#
#
# Convention : Reuss Voigt Hill
#
# Bulk Modulus (GPa) = 56.44274 58.96771 57.70523
# Shear Modulus (GPa) = 20.42074 22.30652 21.36363
#
# Velocity S-wave (km/s) = 3.42799 3.58277 3.50624
# Velocity P-wave (km/s) = 6.93888 7.14478 7.04259
#
# Compressibility (1/GPa) = 0.01771707
#
# Stress axis : x y z
#
# Youngs Moduli (GPa) = 42.14268 66.74996 53.43166
#
# Poissons Ratio (x) = 0.57510 0.39565
# Poissons Ratio (y) = 0.36309 0.20485
# Poissons Ratio (z) = 0.31205 0.25591
#
# Static dielectric constant tensor:
#      x y z
#    x 3.288240 0.000000 0.000000 
#    y 0.000000 3.380150 0.000000 
#    z 0.000000 0.000000 2.980620 
# 
# 
# High freq. dielectric constant tensor:
#      x y z
#    x 1.677910 0.000000 0.000000 
#    y 0.000000 1.678360 0.000000 
#    z 0.000000 0.000000 1.637040 
# 
# From -- ./inp_files/59941.got.cif
#   From: 2010.03.12/outbox.cif.g09.slc.cpg/sg63_30_cif.got.tgz:59941.got - 2010.04.10 19:34:48.
