data_PCOD8257369
_publ_section_title
;
Structure prediction by ZEFSAII (Michael W. Deem and Ramdas Pophale) SiO2 
 PCOD8257369
Probable space group: C M C M
;
_chemical_formula_sum "Si O2"
_cell_formula_units_Z 80
_cell_length_a 9.370935
_cell_length_b 22.794425
_cell_length_c 20.544970
_cell_angle_alpha 90.000000
_cell_angle_beta 90.000000
_cell_angle_gamma 90.000000
_cell_volume 4388.509858
_symmetry_space_group_name_H-M "C M C M"
_symmetry_group_IT_number 63
_symmetry_cell_setting 'orthorhombic'
loop_
_space_group_symop_operation_xyz
x,y,z
-x,-y,1/2+z
x,-y,-z
-x,y,1/2-z
-x,-y,-z
x,y,1/2-z
-x,y,z
x,-y,1/2+z
1/2+x,1/2+y,z
1/2-x,1/2-y,1/2+z
1/2+x,1/2-y,-z
1/2-x,1/2+y,1/2-z
1/2-x,1/2-y,-z
1/2+x,1/2+y,1/2-z
1/2-x,1/2+y,z
1/2+x,1/2-y,1/2+z
loop_
_atom_site_type_symbol
_atom_site_label
_atom_site_fract_x
_atom_site_fract_y
_atom_site_fract_z
Si Si1 0.334296 0.877533 0.881869
Si Si2 0.828777 0.063805 0.750000
Si Si3 0.341188 0.568581 0.494147
Si Si4 0.666981 0.940757 0.750000
Si Si5 0.668178 0.370583 0.121951
Si Si6 0.167352 0.747960 0.432005
O O1 0.500000 0.886159 0.895253
O O2 0.253585 0.917590 0.932682
O O3 0.291525 0.899997 0.810796
O O4 0.290487 0.809653 0.891103
O O5 0.770879 0.100451 0.687781
O O6 0.000000 0.056851 0.750000
O O7 0.759805 0.999615 0.750000
O O8 0.350420 0.500000 0.500000
O O9 0.500000 0.595231 0.484189
O O10 0.269947 0.595417 0.559133
O O11 0.500000 0.957770 0.750000
O O12 0.500000 0.378739 0.124210
O O13 0.711166 0.302329 0.114509
O O14 0.250000 0.750000 0.500000
O O15 0.000000 0.750011 0.448682
#
# Coordination Sequence:
#
# PCOD8257369 Si02
#       6
#    16   8  16   8  16  16
#     4  10  21  35  54  78 106 143 180 216 266 322
#     4  10  20  37  59  81 105 140 183 220 264 321
#     4  10  19  32  52  78 107 138 177 225 269 310
#     4  10  22  39  53  75 113 144 173 220 270 317
#     4   9  18  32  53  80 107 135 173 223 268 307
#     4  10  19  34  55  80 108 139 177 222 268 315
#
# _framework density 18.229423000000001
#
# number of rings (size 3 to 8) (size 9 to 14) (size 15 to 20)
#    0.000    2.200    2.000    1.200    0.000    3.600 
#    0.000    6.000    0.000    0.000    0.000    2.800 
#    0.000    0.000    0.000    0.000    0.000    0.000 
#
# Total GULP energy -495939.541595 kJ/mol
# GULP energy per Si atom -12398.488540 kJ/mol
# Density = 1.818793 g / cm^3
# Si number density = 18.229423 Si / 1000 Ang^3
#
#
#
# Elastic Constant Matrix: (Units=GPa)
#
#
# Indices 1 2 3 4 5 6 
#
# 1 32.9982 41.0937 47.6990 0.0000 0.0000 0.0000
# 2 41.0937 138.5163 79.1268 0.0000 0.0000 0.0000
# 3 47.6990 79.1268 173.8807 0.0000 0.0000 0.0000
# 4 0.0000 0.0000 0.0000 38.8012 0.0000 0.0000
# 5 0.0000 0.0000 0.0000 0.0000 24.0471 0.0000
# 6 0.0000 0.0000 0.0000 0.0000 0.0000 68.0872
#
#
#
# Elastic Compliance Matrix: (Units=1/GPa)
#
#
# Indices 1 2 3 4 5 6 
#
# 1 0.061551 -0.011641 -0.011587 0.000000 0.000000 0.000000
# 2 -0.011641 0.011957 -0.002248 0.000000 0.000000 0.000000
# 3 -0.011587 -0.002248 0.009953 0.000000 0.000000 0.000000
# 4 0.000000 0.000000 0.000000 0.025772 0.000000 0.000000
# 5 0.000000 0.000000 0.000000 0.000000 0.041585 0.000000
# 6 0.000000 0.000000 0.000000 0.000000 0.000000 0.014687
#
#
# Mechanical properties :
#
#
# Convention : Reuss Voigt Hill
#
# Bulk Modulus (GPa) = 30.76137 75.69267 53.22702
# Shear Modulus (GPa) = 21.99793 38.01882 30.00837
#
# Velocity S-wave (km/s) = 3.47757 4.57176 4.06168
# Velocity P-wave (km/s) = 5.74768 8.33549 7.15948
#
# Compressibility (1/GPa) = 0.03250830
#
# Stress axis : x y z
#
# Youngs Moduli (GPa) = 16.24660 83.63286 100.47675
#
# Poissons Ratio (x) = 0.97360 1.16425
# Poissons Ratio (y) = 0.18913 0.22585
# Poissons Ratio (z) = 0.18825 0.18799
#
# Static dielectric constant tensor:
#      x y z
#    x 3.203920 0.000000 0.000000 
#    y 0.000000 3.576650 0.000000 
#    z 0.000000 0.000000 3.587590 
# 
# 
# High freq. dielectric constant tensor:
#      x y z
#    x 1.677300 0.000000 0.000000 
#    y 0.000000 1.723020 0.000000 
#    z 0.000000 0.000000 1.712480 
# 
# From -- ./inp_files/50909.got.cif
#   From: 2010.03.12/outbox.cif.g09.slc.cpg/sg63_26_cif.got.tgz:50909.got - 2010.04.10 19:34:48.
