data_PCOD8257867
_publ_section_title
;
Structure prediction by ZEFSAII (Michael W. Deem and Ramdas Pophale) SiO2 
 PCOD8257867
Probable space group: C M C M
;
_chemical_formula_sum "Si O2"
_cell_formula_units_Z 72
_cell_length_a 23.108389
_cell_length_b 16.325339
_cell_length_c 9.534921
_cell_angle_alpha 90.000000
_cell_angle_beta 90.000000
_cell_angle_gamma 90.000000
_cell_volume 3597.070727
_symmetry_space_group_name_H-M "C M C M"
_symmetry_group_IT_number 63
_symmetry_cell_setting 'orthorhombic'
loop_
_space_group_symop_operation_xyz
x,y,z
-x,-y,1/2+z
x,-y,-z
-x,y,1/2-z
-x,-y,-z
x,y,1/2-z
-x,y,z
x,-y,1/2+z
1/2+x,1/2+y,z
1/2-x,1/2-y,1/2+z
1/2+x,1/2-y,-z
1/2-x,1/2+y,1/2-z
1/2-x,1/2-y,-z
1/2+x,1/2+y,1/2-z
1/2-x,1/2+y,z
1/2+x,1/2-y,1/2+z
loop_
_atom_site_type_symbol
_atom_site_label
_atom_site_fract_x
_atom_site_fract_y
_atom_site_fract_z
Si Si1 0.294992 0.901429 0.250000
Si Si2 0.564433 0.863489 0.532532
Si Si3 0.618446 0.500000 0.500000
Si Si4 0.347503 0.000000 0.000000
Si Si5 0.600407 0.209070 0.750000
Si Si6 0.565949 0.272114 0.250000
Si Si7 0.933000 0.105882 0.250000
Si Si8 0.334830 0.403717 0.250000
O O1 0.332659 0.818850 0.250000
O O2 0.229571 0.866827 0.250000
O O3 0.306961 0.957674 0.114735
O O4 0.500000 0.896076 0.569883
O O5 0.610422 0.933320 0.572619
O O6 0.566685 0.834113 0.374565
O O7 0.579005 0.781675 0.615448
O O8 0.580180 0.442890 0.604769
O O9 0.660768 0.547372 0.604754
O O10 0.600732 0.307605 0.750000
O O11 0.500000 0.307146 0.250000
O O12 0.611186 0.344075 0.250000
O O13 0.000000 0.127400 0.250000
#
# Coordination Sequence:
#
# PCOD8257867 Si02
#       8
#     8  16   8   8   8   8   8   8
#     4  10  22  39  58  81 112 153 192 232 276 324
#     4  10  19  34  56  86 118 152 183 225 283 336
#     4  10  24  38  60  86 106 144 192 230 288 340
#     4  10  20  36  58  86 117 148 191 232 268 332
#     4  10  21  35  55  83 116 151 190 226 273 336
#     4  10  22  37  57  83 114 145 183 230 285 340
#     4  11  21  39  60  86 118 145 179 233 286 340
#     4  11  22  42  60  81 112 148 190 239 282 332
#
# _framework density 20.016286000000001
#
# number of rings (size 3 to 8) (size 9 to 14) (size 15 to 20)
#    0.000    1.778    0.000    4.333    0.000    4.444 
#    0.000   17.778    0.000    0.000    0.000    0.000 
#    0.000    0.000    0.000    0.000    0.000    0.000 
#
# Total GULP energy -446185.755310 kJ/mol
# GULP energy per Si atom -12394.048759 kJ/mol
# Density = 1.997073 g / cm^3
# Si number density = 20.016286 Si / 1000 Ang^3
#
#
#
# Elastic Constant Matrix: (Units=GPa)
#
#
# Indices 1 2 3 4 5 6 
#
# 1 141.0561 63.4247 36.9134 0.0000 0.0000 0.0000
# 2 63.4247 106.6729 31.2689 0.0000 0.0000 0.0000
# 3 36.9134 31.2689 118.4627 0.0000 0.0000 0.0000
# 4 0.0000 0.0000 0.0000 7.3028 0.0000 0.0000
# 5 0.0000 0.0000 0.0000 0.0000 18.2348 0.0000
# 6 0.0000 0.0000 0.0000 0.0000 0.0000 10.1755
#
#
#
# Elastic Compliance Matrix: (Units=1/GPa)
#
#
# Indices 1 2 3 4 5 6 
#
# 1 0.009973 -0.005439 -0.001672 0.000000 0.000000 0.000000
# 2 -0.005439 0.013127 -0.001770 0.000000 0.000000 0.000000
# 3 -0.001672 -0.001770 0.009430 0.000000 0.000000 0.000000
# 4 0.000000 0.000000 0.000000 0.136933 0.000000 0.000000
# 5 0.000000 0.000000 0.000000 0.000000 0.054840 0.000000
# 6 0.000000 0.000000 0.000000 0.000000 0.000000 0.098275
#
#
# Mechanical properties :
#
#
# Convention : Reuss Voigt Hill
#
# Bulk Modulus (GPa) = 67.71788 69.93400 68.82594
# Shear Modulus (GPa) = 14.48172 22.78161 18.63166
#
# Velocity S-wave (km/s) = 2.69271 3.37731 3.05425
# Velocity P-wave (km/s) = 6.60094 7.08680 6.84818
#
# Compressibility (1/GPa) = 0.01476715
#
# Stress axis : x y z
#
# Youngs Moduli (GPa) = 100.27422 76.17621 106.04868
#
# Poissons Ratio (x) = 0.41435 0.17729
# Poissons Ratio (y) = 0.54543 0.18772
# Poissons Ratio (z) = 0.16763 0.13484
#
# Static dielectric constant tensor:
#      x y z
#    x 3.481460 0.000000 0.000000 
#    y 0.000000 3.609040 0.000000 
#    z 0.000000 0.000000 3.982350 
# 
# 
# High freq. dielectric constant tensor:
#      x y z
#    x 1.775230 0.000000 0.000000 
#    y 0.000000 1.776080 0.000000 
#    z 0.000000 0.000000 1.802410 
# 
# From -- ./inp_files/11835.got.cif
#   From: 2010.03.12/outbox.cif.g09.slc.cpg/sg63_6_cif.got.tgz:11835.got - 2010.04.10 19:34:48.
