data_PCOD8257660
_publ_section_title
;
Structure prediction by ZEFSAII (Michael W. Deem and Ramdas Pophale) SiO2 
 PCOD8257660
Probable space group: C M C M
;
_chemical_formula_sum "Si O2"
_cell_formula_units_Z 80
_cell_length_a 8.894617
_cell_length_b 25.728113
_cell_length_c 18.403948
_cell_angle_alpha 90.000000
_cell_angle_beta 90.000000
_cell_angle_gamma 90.000000
_cell_volume 4211.590954
_symmetry_space_group_name_H-M "C M C M"
_symmetry_group_IT_number 63
_symmetry_cell_setting 'orthorhombic'
loop_
_space_group_symop_operation_xyz
x,y,z
-x,-y,1/2+z
x,-y,-z
-x,y,1/2-z
-x,-y,-z
x,y,1/2-z
-x,y,z
x,-y,1/2+z
1/2+x,1/2+y,z
1/2-x,1/2-y,1/2+z
1/2+x,1/2-y,-z
1/2-x,1/2+y,1/2-z
1/2-x,1/2-y,-z
1/2+x,1/2+y,1/2-z
1/2-x,1/2+y,z
1/2+x,1/2-y,1/2+z
loop_
_atom_site_type_symbol
_atom_site_label
_atom_site_fract_x
_atom_site_fract_y
_atom_site_fract_z
Si Si1 0.826664 0.939571 0.164966
Si Si2 0.178838 0.151352 0.424449
Si Si3 0.178595 0.750967 0.668523
Si Si4 0.177216 0.651174 0.580778
Si Si5 0.321824 0.443721 0.669614
O O1 0.801256 0.929298 0.250000
O O2 0.721126 0.902471 0.118643
O O3 0.000000 0.929821 0.143811
O O4 0.777334 0.998263 0.144535
O O5 0.236992 0.199418 0.376171
O O6 0.246802 0.156562 0.503365
O O7 0.240180 0.098366 0.387453
O O8 0.000000 0.151111 0.430676
O O9 0.245508 0.753133 0.750000
O O10 0.236599 0.698596 0.630120
O O11 0.000000 0.751395 0.671857
O O12 0.000000 0.653352 0.570492
O O13 0.255296 0.432134 0.750000
O O14 0.500000 0.439629 0.674650
#
# Coordination Sequence:
#
# PCOD8257660 Si02
#       5
#    16  16  16  16  16
#     4   9  18  34  55  77 100 128 168 214 253 293
#     4  10  19  33  55  78 100 128 166 212 256 298
#     4   9  18  33  54  77  98 126 168 213 254 298
#     4  11  22  34  49  73 109 143 167 197 243 302
#     4   8  15  30  54  80 100 123 164 217 262 295
#
# _framework density 18.995197000000001
#
# number of rings (size 3 to 8) (size 9 to 14) (size 15 to 20)
#    0.000    2.600    0.000    3.600    0.000    4.400 
#    0.000    6.000    0.000    6.000    0.000    0.000 
#    0.000    0.000    0.000    0.000    0.000    0.000 
#
# Total GULP energy -495976.625604 kJ/mol
# GULP energy per Si atom -12399.415640 kJ/mol
# Density = 1.895196 g / cm^3
# Si number density = 18.995197 Si / 1000 Ang^3
#
#
#
# Elastic Constant Matrix: (Units=GPa)
#
#
# Indices 1 2 3 4 5 6 
#
# 1 24.1255 26.8625 24.3672 0.0000 0.0000 0.0000
# 2 26.8625 163.1446 95.9273 0.0000 0.0000 0.0000
# 3 24.3672 95.9273 148.6337 0.0000 0.0000 0.0000
# 4 0.0000 0.0000 0.0000 40.7090 0.0000 0.0000
# 5 0.0000 0.0000 0.0000 0.0000 23.6821 0.0000
# 6 0.0000 0.0000 0.0000 0.0000 0.0000 20.6217
#
#
#
# Elastic Compliance Matrix: (Units=1/GPa)
#
#
# Indices 1 2 3 4 5 6 
#
# 1 0.052894 -0.005819 -0.004916 0.000000 0.000000 0.000000
# 2 -0.005819 0.010518 -0.005834 0.000000 0.000000 0.000000
# 3 -0.004916 -0.005834 0.011299 0.000000 0.000000 0.000000
# 4 0.000000 0.000000 0.000000 0.024565 0.000000 0.000000
# 5 0.000000 0.000000 0.000000 0.000000 0.042226 0.000000
# 6 0.000000 0.000000 0.000000 0.000000 0.000000 0.048493
#
#
# Mechanical properties :
#
#
# Convention : Reuss Voigt Hill
#
# Bulk Modulus (GPa) = 24.05396 70.02420 47.03908
# Shear Modulus (GPa) = 21.09782 29.58569 25.34175
#
# Velocity S-wave (km/s) = 3.33632 3.95084 3.65651
# Velocity P-wave (km/s) = 5.24710 7.59976 6.53025
#
# Compressibility (1/GPa) = 0.04157320
#
# Stress axis : x y z
#
# Youngs Moduli (GPa) = 18.90568 95.07345 88.49976
#
# Poissons Ratio (x) = 0.55319 0.43509
# Poissons Ratio (y) = 0.11000 0.51635
# Poissons Ratio (z) = 0.09295 0.55470
#
# Static dielectric constant tensor:
#      x y z
#    x 2.999630 0.000000 0.000000 
#    y 0.000000 3.815330 0.000000 
#    z 0.000000 0.000000 3.660460 
# 
# 
# High freq. dielectric constant tensor:
#      x y z
#    x 1.689630 0.000000 0.000000 
#    y 0.000000 1.756600 0.000000 
#    z 0.000000 0.000000 1.747160 
# 
# From -- ./inp_files/40463.got.cif
#   From: 2010.03.12/outbox.cif.g09.slc.cpg/sg63_21_cif.got.tgz:40463.got - 2010.04.10 19:34:48.
