data_PCOD8257477
_publ_section_title
;
Structure prediction by ZEFSAII (Michael W. Deem and Ramdas Pophale) SiO2 
 PCOD8257477
Probable space group: C M C M
;
_chemical_formula_sum "Si O2"
_cell_formula_units_Z 96
_cell_length_a 23.299164
_cell_length_b 9.324455
_cell_length_c 20.062244
_cell_angle_alpha 90.000000
_cell_angle_beta 90.000000
_cell_angle_gamma 90.000000
_cell_volume 4358.562759
_symmetry_space_group_name_H-M "C M C M"
_symmetry_group_IT_number 63
_symmetry_cell_setting 'orthorhombic'
loop_
_space_group_symop_operation_xyz
x,y,z
-x,-y,1/2+z
x,-y,-z
-x,y,1/2-z
-x,-y,-z
x,y,1/2-z
-x,y,z
x,-y,1/2+z
1/2+x,1/2+y,z
1/2-x,1/2-y,1/2+z
1/2+x,1/2-y,-z
1/2-x,1/2+y,1/2-z
1/2-x,1/2-y,-z
1/2+x,1/2+y,1/2-z
1/2-x,1/2+y,z
1/2+x,1/2-y,1/2+z
loop_
_atom_site_type_symbol
_atom_site_label
_atom_site_fract_x
_atom_site_fract_y
_atom_site_fract_z
Si Si1 0.065886 0.741008 0.880462
Si Si2 0.563901 0.215456 0.465920
Si Si3 0.243181 0.882786 0.048271
Si Si4 0.064968 0.934885 0.355863
Si Si5 0.174786 0.216726 0.677953
Si Si6 0.644851 0.004962 0.386858
O O1 0.081395 0.897490 0.852612
O O2 0.107136 0.618199 0.849548
O O3 0.000000 0.703173 0.864336
O O4 0.079516 0.743312 0.958379
O O5 0.500000 0.152330 0.457657
O O6 0.569054 0.370243 0.430412
O O7 0.606006 0.096891 0.436921
O O8 0.206341 0.854830 0.114921
O O9 0.305487 0.932991 0.070489
O O10 0.250000 0.750000 0.000000
O O11 0.213081 0.000000 0.000000
O O12 0.000000 0.913074 0.327973
O O13 0.111097 0.848836 0.312437
O O14 0.206100 0.191449 0.750000
O O15 0.171125 0.388208 0.668126
#
# Coordination Sequence:
#
# PCOD8257477 Si02
#       6
#    16  16  16  16  16  16
#     4  10  19  32  58  97 134 170 215 273 329 384
#     4   9  17  31  56  93 135 173 212 263 326 390
#     4  12  26  46  70 101 131 175 223 281 337 397
#     4   9  20  37  61  94 131 175 220 264 322 394
#     4  11  27  47  68  95 132 177 226 275 334 406
#     4  11  23  39  63  92 132 169 217 267 334 390
#
# _framework density 22.02561
#
# number of rings (size 3 to 8) (size 9 to 14) (size 15 to 20)
#    0.000    1.667    1.667    2.500    4.667    5.000 
#    0.000    0.833    0.000    1.000    0.000    0.000 
#    0.000    0.000    0.000    0.000    0.000    0.000 
#
# Total GULP energy -594871.756948 kJ/mol
# GULP energy per Si atom -12393.161603 kJ/mol
# Density = 2.197548 g / cm^3
# Si number density = 22.025610 Si / 1000 Ang^3
#
#
#
# Elastic Constant Matrix: (Units=GPa)
#
#
# Indices 1 2 3 4 5 6 
#
# 1 97.8123 52.8154 39.5740 0.0000 0.0000 0.0000
# 2 52.8154 151.6627 42.1959 0.0000 0.0000 0.0000
# 3 39.5740 42.1959 120.0170 0.0000 0.0000 0.0000
# 4 0.0000 0.0000 0.0000 11.7644 0.0000 0.0000
# 5 0.0000 0.0000 0.0000 0.0000 7.0940 0.0000
# 6 0.0000 0.0000 0.0000 0.0000 0.0000 38.8798
#
#
#
# Elastic Compliance Matrix: (Units=1/GPa)
#
#
# Indices 1 2 3 4 5 6 
#
# 1 0.013568 -0.003858 -0.003118 0.000000 0.000000 0.000000
# 2 -0.003858 0.008405 -0.001683 0.000000 0.000000 0.000000
# 3 -0.003118 -0.001683 0.009952 0.000000 0.000000 0.000000
# 4 0.000000 0.000000 0.000000 0.085002 0.000000 0.000000
# 5 0.000000 0.000000 0.000000 0.000000 0.140963 0.000000
# 6 0.000000 0.000000 0.000000 0.000000 0.000000 0.025720
#
#
# Mechanical properties :
#
#
# Convention : Reuss Voigt Hill
#
# Bulk Modulus (GPa) = 68.45342 70.96253 69.70798
# Shear Modulus (GPa) = 16.35071 27.20809 21.77940
#
# Velocity S-wave (km/s) = 2.72757 3.51849 3.14796
# Velocity P-wave (km/s) = 6.40827 6.98530 6.70300
#
# Compressibility (1/GPa) = 0.01460847
#
# Stress axis : x y z
#
# Youngs Moduli (GPa) = 73.70297 118.97343 100.48317
#
# Poissons Ratio (x) = 0.45895 0.31327
# Poissons Ratio (y) = 0.28431 0.16913
# Poissons Ratio (z) = 0.22978 0.20025
#
# Static dielectric constant tensor:
#      x y z
#    x 4.153540 0.000000 0.000000 
#    y 0.000000 4.407610 0.000000 
#    z 0.000000 0.000000 3.681850 
# 
# 
# High freq. dielectric constant tensor:
#      x y z
#    x 1.867130 0.000000 0.000000 
#    y 0.000000 1.879200 0.000000 
#    z 0.000000 0.000000 1.838640 
# 
# From -- ./inp_files/64957.got.cif
#   From: 2010.03.12/outbox.cif.g09.slc.cpg/sg63_33_cif.got.tgz:64957.got - 2010.04.10 19:34:48.
