data_PCOD8257682
_publ_section_title
;
Structure prediction by ZEFSAII (Michael W. Deem and Ramdas Pophale) SiO2 
 PCOD8257682
Probable space group: C M C M
;
_chemical_formula_sum "Si O2"
_cell_formula_units_Z 96
_cell_length_a 8.894003
_cell_length_b 25.479223
_cell_length_c 23.130749
_cell_angle_alpha 90.000000
_cell_angle_beta 90.000000
_cell_angle_gamma 90.000000
_cell_volume 5241.711903
_symmetry_space_group_name_H-M "C M C M"
_symmetry_group_IT_number 63
_symmetry_cell_setting 'orthorhombic'
loop_
_space_group_symop_operation_xyz
x,y,z
-x,-y,1/2+z
x,-y,-z
-x,y,1/2-z
-x,-y,-z
x,y,1/2-z
-x,y,z
x,-y,1/2+z
1/2+x,1/2+y,z
1/2-x,1/2-y,1/2+z
1/2+x,1/2-y,-z
1/2-x,1/2+y,1/2-z
1/2-x,1/2-y,-z
1/2+x,1/2+y,1/2-z
1/2-x,1/2+y,z
1/2+x,1/2-y,1/2+z
loop_
_atom_site_type_symbol
_atom_site_label
_atom_site_fract_x
_atom_site_fract_y
_atom_site_fract_z
Si Si1 0.176583 0.804588 0.683627
Si Si2 0.327145 0.504376 0.183259
Si Si3 0.323707 0.404601 0.383952
Si Si4 0.175091 0.939684 0.990756
Si Si5 0.322741 0.900958 0.875759
Si Si6 0.325462 0.695774 0.816752
O O1 0.220397 0.816963 0.750000
O O2 0.257891 0.844702 0.641282
O O3 0.230532 0.746700 0.666432
O O4 0.000000 0.808792 0.673863
O O5 0.312727 0.489824 0.250000
O O6 0.500000 0.515024 0.165454
O O7 0.256248 0.456263 0.146969
O O8 0.234390 0.556450 0.170036
O O9 0.500000 0.405761 0.371426
O O10 0.287016 0.406445 0.451832
O O11 0.258833 0.351489 0.355829
O O12 0.272275 0.914946 0.940182
O O13 0.000000 0.936036 0.974351
O O14 0.221544 0.000000 0.000000
O O15 0.500000 0.898245 0.873216
O O16 0.302563 0.680139 0.750000
O O17 0.500000 0.707015 0.830201
#
# Coordination Sequence:
#
# PCOD8257682 Si02
#       6
#    16  16  16  16  16  16
#     4  10  21  38  59  81 107 143 185 225 271 329
#     4  10  19  33  55  82 111 143 181 222 268 328
#     4   9  17  32  56  84 110 142 182 222 267 323
#     4  10  19  36  59  79 107 148 191 227 265 320
#     4  12  24  36  53  79 112 144 183 230 278 326
#     4   9  17  32  56  85 114 141 173 219 275 328
#
# _framework density 18.314627000000002
#
# number of rings (size 3 to 8) (size 9 to 14) (size 15 to 20)
#    0.000    2.000    1.667    3.000    0.000    5.667 
#    0.000    2.500    0.000    2.000    0.000    0.000 
#    0.000    0.000    0.000    0.000    0.000    0.000 
#
# Total GULP energy -595344.346862 kJ/mol
# GULP energy per Si atom -12403.007226 kJ/mol
# Density = 1.827294 g / cm^3
# Si number density = 18.314627 Si / 1000 Ang^3
#
#
#
# Elastic Constant Matrix: (Units=GPa)
#
#
# Indices 1 2 3 4 5 6 
#
# 1 73.8649 48.9433 35.2664 0.0000 0.0000 0.0000
# 2 48.9433 128.0645 56.8043 0.0000 0.0000 0.0000
# 3 35.2664 56.8043 86.2510 0.0000 0.0000 0.0000
# 4 0.0000 0.0000 0.0000 33.0308 0.0000 0.0000
# 5 0.0000 0.0000 0.0000 0.0000 20.5914 0.0000
# 6 0.0000 0.0000 0.0000 0.0000 0.0000 26.3114
#
#
#
# Elastic Compliance Matrix: (Units=1/GPa)
#
#
# Indices 1 2 3 4 5 6 
#
# 1 0.019176 -0.005440 -0.004258 0.000000 0.000000 0.000000
# 2 -0.005440 0.012574 -0.006057 0.000000 0.000000 0.000000
# 3 -0.004258 -0.006057 0.017324 0.000000 0.000000 0.000000
# 4 0.000000 0.000000 0.000000 0.030275 0.000000 0.000000
# 5 0.000000 0.000000 0.000000 0.000000 0.048564 0.000000
# 6 0.000000 0.000000 0.000000 0.000000 0.000000 0.038006
#
#
# Mechanical properties :
#
#
# Convention : Reuss Voigt Hill
#
# Bulk Modulus (GPa) = 56.93329 63.35649 60.14489
# Shear Modulus (GPa) = 24.59620 25.79782 25.19701
#
# Velocity S-wave (km/s) = 3.66865 3.75719 3.71318
# Velocity P-wave (km/s) = 7.00707 7.31372 7.16203
#
# Compressibility (1/GPa) = 0.01756442
#
# Stress axis : x y z
#
# Youngs Moduli (GPa) = 52.14960 79.52797 57.72285
#
# Poissons Ratio (x) = 0.43262 0.24578
# Poissons Ratio (y) = 0.28368 0.34963
# Poissons Ratio (z) = 0.22205 0.48170
#
# Static dielectric constant tensor:
#      x y z
#    x 3.159790 0.000000 0.000000 
#    y 0.000000 3.478080 0.000000 
#    z 0.000000 0.000000 3.392100 
# 
# 
# High freq. dielectric constant tensor:
#      x y z
#    x 1.686470 0.000000 0.000000 
#    y 0.000000 1.715420 0.000000 
#    z 0.000000 0.000000 1.711630 
# 
# From -- ./inp_files/59914.got.cif
#   From: 2010.03.12/outbox.cif.g09.slc.cpg/sg63_30_cif.got.tgz:59914.got - 2010.04.10 19:34:48.
