data_PCOD8257107
_publ_section_title
;
Structure prediction by ZEFSAII (Michael W. Deem and Ramdas Pophale) SiO2 
 PCOD8257107
Probable space group: C M C M
;
_chemical_formula_sum "Si O2"
_cell_formula_units_Z 104
_cell_length_a 31.716262
_cell_length_b 20.852100
_cell_length_c 8.845318
_cell_angle_alpha 90.000000
_cell_angle_beta 90.000000
_cell_angle_gamma 90.000000
_cell_volume 5849.856958
_symmetry_space_group_name_H-M "C M C M"
_symmetry_group_IT_number 63
_symmetry_cell_setting 'orthorhombic'
loop_
_space_group_symop_operation_xyz
x,y,z
-x,-y,1/2+z
x,-y,-z
-x,y,1/2-z
-x,-y,-z
x,y,1/2-z
-x,y,z
x,-y,1/2+z
1/2+x,1/2+y,z
1/2-x,1/2-y,1/2+z
1/2+x,1/2-y,-z
1/2-x,1/2+y,1/2-z
1/2-x,1/2-y,-z
1/2+x,1/2+y,1/2-z
1/2-x,1/2+y,z
1/2+x,1/2-y,1/2+z
loop_
_atom_site_type_symbol
_atom_site_label
_atom_site_fract_x
_atom_site_fract_y
_atom_site_fract_z
Si Si1 0.340575 0.181887 0.579101
Si Si2 0.284978 0.066988 0.927184
Si Si3 0.452589 0.296765 0.073231
Si Si4 0.434916 0.167156 0.922077
Si Si5 0.366026 0.679204 0.430403
Si Si6 0.313030 0.566340 0.927203
Si Si7 0.000000 0.566299 0.575659
O O1 0.324967 0.191429 0.750000
O O2 0.308556 0.130252 0.502203
O O3 0.386083 0.149489 0.568254
O O4 0.345264 0.253680 0.507144
O O5 0.294587 0.061706 0.750000
O O6 0.235966 0.077367 0.961916
O O7 0.300791 0.000000 0.000000
O O8 0.445108 0.307553 0.250000
O O9 0.500000 0.321764 0.028377
O O10 0.449609 0.222054 0.035409
O O11 0.414428 0.331774 0.984424
O O12 0.446946 0.187868 0.750000
O O13 0.458461 0.103853 0.975128
O O14 0.366704 0.680259 0.250000
O O15 0.337959 0.622590 0.492490
O O16 0.322898 0.565620 0.750000
O O17 0.328568 0.500000 0.000000
O O18 0.000000 0.500000 0.500000
O O19 0.000000 0.553373 0.750000
#
# Coordination Sequence:
#
# PCOD8257107 Si02
#       7
#    16  16  16  16  16  16   8
#     4   8  16  31  50  72 100 133 170 215 262 306
#     4   9  18  33  51  72 100 137 178 216 260 310
#     4  10  19  31  51  77 103 130 163 207 253 300
#     4   9  17  31  48  65  92 131 171 211 258 309
#     4  10  20  34  54  79 106 137 173 211 256 311
#     4  10  20  35  55  77 104 136 171 212 256 310
#     4  10  20  30  42  62  90 128 173 216 261 308
#
# _framework density 17.778212
#
# number of rings (size 3 to 8) (size 9 to 14) (size 15 to 20)
#    0.000    2.615    0.769    2.308    0.000    3.385 
#    0.000    3.846    0.000    0.462    0.000    0.000 
#    0.000    0.000    0.000    0.000    0.000    0.000 
#
# Total GULP energy -644338.075182 kJ/mol
# GULP energy per Si atom -12391.116830 kJ/mol
# Density = 1.773775 g / cm^3
# Si number density = 17.778212 Si / 1000 Ang^3
#
#
#
# Elastic Constant Matrix: (Units=GPa)
#
#
# Indices 1 2 3 4 5 6 
#
# 1 94.9695 71.1324 35.0185 0.0000 0.0000 0.0000
# 2 71.1324 126.6530 32.8975 0.0000 0.0000 0.0000
# 3 35.0185 32.8975 52.4994 0.0000 0.0000 0.0000
# 4 0.0000 0.0000 0.0000 29.7748 0.0000 0.0000
# 5 0.0000 0.0000 0.0000 0.0000 21.1782 0.0000
# 6 0.0000 0.0000 0.0000 0.0000 0.0000 23.9169
#
#
#
# Elastic Compliance Matrix: (Units=1/GPa)
#
#
# Indices 1 2 3 4 5 6 
#
# 1 0.020495 -0.009507 -0.007713 0.000000 0.000000 0.000000
# 2 -0.009507 0.013841 -0.002331 0.000000 0.000000 0.000000
# 3 -0.007713 -0.002331 0.025654 0.000000 0.000000 0.000000
# 4 0.000000 0.000000 0.000000 0.033585 0.000000 0.000000
# 5 0.000000 0.000000 0.000000 0.000000 0.047218 0.000000
# 6 0.000000 0.000000 0.000000 0.000000 0.000000 0.041811
#
#
# Mechanical properties :
#
#
# Convention : Reuss Voigt Hill
#
# Bulk Modulus (GPa) = 47.87968 61.35765 54.61866
# Shear Modulus (GPa) = 21.86568 23.97888 22.92228
#
# Velocity S-wave (km/s) = 3.51082 3.67656 3.59464
# Velocity P-wave (km/s) = 6.58973 7.25331 6.92947
#
# Compressibility (1/GPa) = 0.02088569
#
# Stress axis : x y z
#
# Youngs Moduli (GPa) = 48.79357 72.25136 38.98084
#
# Poissons Ratio (x) = 0.68689 0.30066
# Poissons Ratio (y) = 0.46388 0.09088
# Poissons Ratio (z) = 0.37635 0.16845
#
# Static dielectric constant tensor:
#      x y z
#    x 3.932650 0.000000 0.000000 
#    y 0.000000 5.372720 0.000000 
#    z 0.000000 0.000000 3.290290 
# 
# 
# High freq. dielectric constant tensor:
#      x y z
#    x 1.692940 0.000000 0.000000 
#    y 0.000000 1.674510 0.000000 
#    z 0.000000 0.000000 1.674120 
# 
# From -- ./inp_files/14473.got.cif
#   From: 2010.03.12/outbox.cif.g09.slc.cpg/sg63_8_cif.got.tgz:14473.got - 2010.04.10 19:34:48.
