data_PCOD8257333
_publ_section_title
;
Structure prediction by ZEFSAII (Michael W. Deem and Ramdas Pophale) SiO2 
 PCOD8257333
Probable space group: C M C M
;
_chemical_formula_sum "Si O2"
_cell_formula_units_Z 128
_cell_length_a 16.786895
_cell_length_b 25.234250
_cell_length_c 16.883803
_cell_angle_alpha 90.000000
_cell_angle_beta 90.000000
_cell_angle_gamma 90.000000
_cell_volume 7152.058392
_symmetry_space_group_name_H-M "C M C M"
_symmetry_group_IT_number 63
_symmetry_cell_setting 'orthorhombic'
loop_
_space_group_symop_operation_xyz
x,y,z
-x,-y,1/2+z
x,-y,-z
-x,y,1/2-z
-x,-y,-z
x,y,1/2-z
-x,y,z
x,-y,1/2+z
1/2+x,1/2+y,z
1/2-x,1/2-y,1/2+z
1/2+x,1/2-y,-z
1/2-x,1/2+y,1/2-z
1/2-x,1/2-y,-z
1/2+x,1/2+y,1/2-z
1/2-x,1/2+y,z
1/2+x,1/2-y,1/2+z
loop_
_atom_site_type_symbol
_atom_site_label
_atom_site_fract_x
_atom_site_fract_y
_atom_site_fract_z
Si Si1 0.756846 0.391697 0.158958
Si Si2 0.590400 0.453325 0.561175
Si Si3 0.591370 0.751164 0.509684
Si Si4 0.091029 0.638093 0.928459
Si Si5 0.325735 0.643485 0.992113
Si Si6 0.907887 0.310687 0.837264
Si Si7 0.172508 0.397862 0.576242
Si Si8 0.236038 0.984977 0.658366
O O1 0.736426 0.378068 0.250000
O O2 0.849110 0.376708 0.142513
O O3 0.696350 0.360308 0.101397
O O4 0.743902 0.453335 0.140160
O O5 0.606377 0.500000 0.500000
O O6 0.500000 0.453458 0.593117
O O7 0.606233 0.398424 0.515429
O O8 0.648970 0.462628 0.635312
O O9 0.500000 0.732956 0.507709
O O10 0.605658 0.800442 0.451085
O O11 0.645204 0.701914 0.484613
O O12 0.617424 0.767066 0.598600
O O13 0.000000 0.628817 0.900775
O O14 0.107952 0.600724 0.005058
O O15 0.248360 0.633480 0.043759
O O16 0.889428 0.288083 0.750000
O O17 0.860771 0.365482 0.849147
O O18 0.000000 0.324861 0.848860
O O19 0.196216 0.456359 0.605379
O O20 0.250272 0.972114 0.750000
#
# Coordination Sequence:
#
# PCOD8257333 Si02
#       8
#    16  16  16  16  16  16  16  16
#     4  10  21  35  51  73 104 136 166 206 255 306
#     4  10  19  33  55  77  99 133 172 205 243 296
#     4   9  18  33  51  72  98 129 164 203 248 294
#     4   9  19  35  54  74  99 133 173 211 253 302
#     4  10  19  32  52  76 101 127 166 211 249 291
#     4   9  17  30  47  69  99 131 161 198 248 301
#     4   9  18  30  52  74  98 129 169 209 251 294
#     4  10  20  35  52  74 106 137 166 207 257 303
#
# _framework density 17.896944999999999
#
# number of rings (size 3 to 8) (size 9 to 14) (size 15 to 20)
#    0.000    2.500    1.250    1.875    0.000    5.500 
#    0.000    1.875    0.000    5.625    0.000    3.500 
#    0.000    0.000    0.000    0.000    0.000    0.000 
#
# Total GULP energy -793471.051025 kJ/mol
# GULP energy per Si atom -12397.985172 kJ/mol
# Density = 1.785621 g / cm^3
# Si number density = 17.896945 Si / 1000 Ang^3
#
#
#
# Elastic Constant Matrix: (Units=GPa)
#
#
# Indices 1 2 3 4 5 6 
#
# 1 57.9661 33.7262 15.5531 0.0000 0.0000 0.0000
# 2 33.7262 64.5224 24.2704 0.0000 0.0000 0.0000
# 3 15.5531 24.2704 57.2497 0.0000 0.0000 0.0000
# 4 0.0000 0.0000 0.0000 19.5000 0.0000 0.0000
# 5 0.0000 0.0000 0.0000 0.0000 21.7283 0.0000
# 6 0.0000 0.0000 0.0000 0.0000 0.0000 23.3604
#
#
#
# Elastic Compliance Matrix: (Units=1/GPa)
#
#
# Indices 1 2 3 4 5 6 
#
# 1 0.024896 -0.012456 -0.001483 0.000000 0.000000 0.000000
# 2 -0.012456 0.024670 -0.007075 0.000000 0.000000 0.000000
# 3 -0.001483 -0.007075 0.020870 0.000000 0.000000 0.000000
# 4 0.000000 0.000000 0.000000 0.051282 0.000000 0.000000
# 5 0.000000 0.000000 0.000000 0.000000 0.046023 0.000000
# 6 0.000000 0.000000 0.000000 0.000000 0.000000 0.042807
#
#
# Mechanical properties :
#
#
# Convention : Reuss Voigt Hill
#
# Bulk Modulus (GPa) = 35.20014 36.31527 35.75771
# Shear Modulus (GPa) = 19.08064 19.99699 19.53882
#
# Velocity S-wave (km/s) = 3.26872 3.34629 3.30773
# Velocity P-wave (km/s) = 5.82726 5.93848 5.88314
#
# Compressibility (1/GPa) = 0.02840898
#
# Stress axis : x y z
#
# Youngs Moduli (GPa) = 40.16645 40.53449 47.91652
#
# Poissons Ratio (x) = 0.50488 0.07107
# Poissons Ratio (y) = 0.50030 0.33901
# Poissons Ratio (z) = 0.05958 0.28678
#
# Static dielectric constant tensor:
#      x y z
#    x 3.361190 0.000000 0.000000 
#    y 0.000000 3.217600 0.000000 
#    z 0.000000 0.000000 3.269330 
# 
# 
# High freq. dielectric constant tensor:
#      x y z
#    x 1.693900 0.000000 0.000000 
#    y 0.000000 1.685930 0.000000 
#    z 0.000000 0.000000 1.680680 
# 
# From -- ./inp_files/46296.got.cif
#   From: 2010.03.12/outbox.cif.g09.slc.cpg/sg63_24_cif.got.tgz:46296.got - 2010.04.10 19:34:48.
