data_PCOD8257483
_publ_section_title
;
Structure prediction by ZEFSAII (Michael W. Deem and Ramdas Pophale) SiO2 
 PCOD8257483
Probable space group: C M C M
;
_chemical_formula_sum "Si O2"
_cell_formula_units_Z 88
_cell_length_a 12.128837
_cell_length_b 17.280101
_cell_length_c 24.890967
_cell_angle_alpha 90.000000
_cell_angle_beta 90.000000
_cell_angle_gamma 90.000000
_cell_volume 5216.836252
_symmetry_space_group_name_H-M "C M C M"
_symmetry_group_IT_number 63
_symmetry_cell_setting 'orthorhombic'
loop_
_space_group_symop_operation_xyz
x,y,z
-x,-y,1/2+z
x,-y,-z
-x,y,1/2-z
-x,-y,-z
x,y,1/2-z
-x,y,z
x,-y,1/2+z
1/2+x,1/2+y,z
1/2-x,1/2-y,1/2+z
1/2+x,1/2-y,-z
1/2-x,1/2+y,1/2-z
1/2-x,1/2-y,-z
1/2+x,1/2+y,1/2-z
1/2-x,1/2+y,z
1/2+x,1/2-y,1/2+z
loop_
_atom_site_type_symbol
_atom_site_label
_atom_site_fract_x
_atom_site_fract_y
_atom_site_fract_z
Si Si1 0.124151 0.221451 0.250000
Si Si2 0.871585 0.190134 0.850903
Si Si3 0.257876 0.871888 0.250000
Si Si4 0.369975 0.962403 0.750000
Si Si5 0.870675 0.919732 0.568503
Si Si6 0.728279 0.851256 0.663076
Si Si7 0.372806 0.402779 0.050208
O O1 0.138045 0.314044 0.250000
O O2 0.174332 0.184378 0.197357
O O3 0.000000 0.196727 0.250000
O O4 0.815073 0.145247 0.802099
O O5 0.856142 0.282383 0.850703
O O6 0.820366 0.156587 0.906663
O O7 0.000000 0.170600 0.846498
O O8 0.300990 0.958811 0.250000
O O9 0.500000 0.979400 0.750000
O O10 0.338639 0.915907 0.803927
O O11 0.785846 0.883714 0.610306
O O12 0.826175 0.891568 0.510061
O O13 0.000000 0.897773 0.578825
O O14 0.855413 0.011334 0.572382
O O15 0.500000 0.384158 0.044292
#
# Coordination Sequence:
#
# PCOD8257483 Si02
#       7
#     8  16   8   8  16  16  16
#     4   9  18  32  45  66  94 120 153 199 237 277
#     4  10  19  33  49  72 100 126 159 200 238 288
#     4  10  20  32  52  70  88 126 164 190 238 286
#     4  11  22  36  49  70  98 124 157 195 233 289
#     4   9  16  30  49  73  99 126 163 208 241 279
#     4  10  20  30  49  72  96 130 160 188 243 291
#     4   8  16  29  48  69  96 129 162 202 248 278
#
# _framework density 16.868462000000001
#
# number of rings (size 3 to 8) (size 9 to 14) (size 15 to 20)
#    0.000    2.545    0.000    4.364    0.000    0.727 
#    0.000    4.545    0.000    0.000    0.000   25.455 
#    0.000    0.000    0.000    0.000    0.000    0.000 
#
# Total GULP energy -545331.344863 kJ/mol
# GULP energy per Si atom -12393.894201 kJ/mol
# Density = 1.683007 g / cm^3
# Si number density = 16.868462 Si / 1000 Ang^3
#
#
#
# Elastic Constant Matrix: (Units=GPa)
#
#
# Indices 1 2 3 4 5 6 
#
# 1 66.4737 31.0308 36.5390 0.0000 0.0000 0.0000
# 2 31.0308 97.3233 56.0430 0.0000 0.0000 0.0000
# 3 36.5390 56.0430 131.6458 0.0000 0.0000 0.0000
# 4 0.0000 0.0000 0.0000 8.6161 0.0000 0.0000
# 5 0.0000 0.0000 0.0000 0.0000 27.4498 0.0000
# 6 0.0000 0.0000 0.0000 0.0000 0.0000 18.3855
#
#
#
# Elastic Compliance Matrix: (Units=1/GPa)
#
#
# Indices 1 2 3 4 5 6 
#
# 1 0.018842 -0.003969 -0.003540 0.000000 0.000000 0.000000
# 2 -0.003969 0.014448 -0.005049 0.000000 0.000000 0.000000
# 3 -0.003540 -0.005049 0.010728 0.000000 0.000000 0.000000
# 4 0.000000 0.000000 0.000000 0.116061 0.000000 0.000000
# 5 0.000000 0.000000 0.000000 0.000000 0.036430 0.000000
# 6 0.000000 0.000000 0.000000 0.000000 0.000000 0.054391
#
#
# Mechanical properties :
#
#
# Convention : Reuss Voigt Hill
#
# Bulk Modulus (GPa) = 52.90468 60.29649 56.60059
# Shear Modulus (GPa) = 17.71052 22.34560 20.02806
#
# Velocity S-wave (km/s) = 3.24376 3.64359 3.44947
# Velocity P-wave (km/s) = 6.74244 7.31599 7.03506
#
# Compressibility (1/GPa) = 0.01890192
#
# Stress axis : x y z
#
# Youngs Moduli (GPa) = 53.07203 69.21360 93.21301
#
# Poissons Ratio (x) = 0.27472 0.32998
# Poissons Ratio (y) = 0.21065 0.47063
# Poissons Ratio (z) = 0.18788 0.34946
#
# Static dielectric constant tensor:
#      x y z
#    x 2.883780 0.000000 0.000000 
#    y 0.000000 3.248850 0.000000 
#    z 0.000000 0.000000 3.329930 
# 
# 
# High freq. dielectric constant tensor:
#      x y z
#    x 1.627050 0.000000 0.000000 
#    y 0.000000 1.651960 0.000000 
#    z 0.000000 0.000000 1.664090 
# 
# From -- ./inp_files/61277.got.cif
#   From: 2010.03.12/outbox.cif.g09.slc.cpg/sg63_31_cif.got.tgz:61277.got - 2010.04.10 19:34:48.
