data_PCOD8257695
_publ_section_title
;
Structure prediction by ZEFSAII (Michael W. Deem and Ramdas Pophale) SiO2 
 PCOD8257695
Probable space group: C M C M
;
_chemical_formula_sum "Si O2"
_cell_formula_units_Z 80
_cell_length_a 23.043272
_cell_length_b 25.108168
_cell_length_c 7.721522
_cell_angle_alpha 90.000000
_cell_angle_beta 90.000000
_cell_angle_gamma 90.000000
_cell_volume 4467.474531
_symmetry_space_group_name_H-M "C M C M"
_symmetry_group_IT_number 63
_symmetry_cell_setting 'orthorhombic'
loop_
_space_group_symop_operation_xyz
x,y,z
-x,-y,1/2+z
x,-y,-z
-x,y,1/2-z
-x,-y,-z
x,y,1/2-z
-x,y,z
x,-y,1/2+z
1/2+x,1/2+y,z
1/2-x,1/2-y,1/2+z
1/2+x,1/2-y,-z
1/2-x,1/2+y,1/2-z
1/2-x,1/2-y,-z
1/2+x,1/2+y,1/2-z
1/2-x,1/2+y,z
1/2+x,1/2-y,1/2+z
loop_
_atom_site_type_symbol
_atom_site_label
_atom_site_fract_x
_atom_site_fract_y
_atom_site_fract_z
Si Si1 0.741372 0.171175 0.451314
Si Si2 0.653828 0.743075 0.445009
Si Si3 0.062685 0.883636 0.250000
Si Si4 0.111744 0.943596 0.941150
Si Si5 0.065126 0.760195 0.250000
Si Si6 0.738273 0.555120 0.549090
O O1 0.729753 0.181151 0.250000
O O2 0.695666 0.205680 0.558557
O O3 0.807186 0.190986 0.498054
O O4 0.729002 0.109525 0.499131
O O5 0.628834 0.735574 0.250000
O O6 0.601196 0.754432 0.577131
O O7 0.095879 0.898030 0.424694
O O8 0.054506 0.821879 0.250000
O O9 0.000000 0.912092 0.250000
O O10 0.088291 0.928851 0.750000
O O11 0.180919 0.947685 0.932043
O O12 0.084566 0.000000 0.000000
O O13 0.000000 0.733178 0.250000
O O14 0.773377 0.500000 0.500000
O O15 0.722132 0.556417 0.750000
#
# Coordination Sequence:
#
# PCOD8257695 Si02
#       6
#    16  16   8  16   8  16
#     4  10  19  33  55  84 112 141 179 224 272 324
#     4  10  21  36  57  83 107 141 184 226 274 322
#     4  11  24  38  52  71  92 128 176 226 276 312
#     4  11  20  36  52  70  96 132 177 218 265 319
#     4  11  24  40  56  75 108 144 179 226 274 326
#     4  11  20  31  49  75 109 144 172 204 258 324
#
# _framework density 17.907209999999999
#
# number of rings (size 3 to 8) (size 9 to 14) (size 15 to 20)
#    0.000    1.400    3.000    4.800    2.800    3.600 
#    0.000    2.000    0.000    0.000    0.000    0.000 
#    0.000    0.800    0.400    0.000    0.000    0.000 
#
# Total GULP energy -495791.655022 kJ/mol
# GULP energy per Si atom -12394.791376 kJ/mol
# Density = 1.786645 g / cm^3
# Si number density = 17.907210 Si / 1000 Ang^3
#
#
#
# Elastic Constant Matrix: (Units=GPa)
#
#
# Indices 1 2 3 4 5 6 
#
# 1 64.9025 14.4774 35.5375 0.0000 0.0000 0.0000
# 2 14.4774 99.0366 16.2229 0.0000 0.0000 0.0000
# 3 35.5375 16.2229 134.3672 0.0000 0.0000 0.0000
# 4 0.0000 0.0000 0.0000 21.1917 0.0000 0.0000
# 5 0.0000 0.0000 0.0000 0.0000 11.8560 0.0000
# 6 0.0000 0.0000 0.0000 0.0000 0.0000 13.6254
#
#
#
# Elastic Compliance Matrix: (Units=1/GPa)
#
#
# Indices 1 2 3 4 5 6 
#
# 1 0.018371 -0.001928 -0.004626 0.000000 0.000000 0.000000
# 2 -0.001928 0.010503 -0.000758 0.000000 0.000000 0.000000
# 3 -0.004626 -0.000758 0.008757 0.000000 0.000000 0.000000
# 4 0.000000 0.000000 0.000000 0.047188 0.000000 0.000000
# 5 0.000000 0.000000 0.000000 0.000000 0.084345 0.000000
# 6 0.000000 0.000000 0.000000 0.000000 0.000000 0.073392
#
#
# Mechanical properties :
#
#
# Convention : Reuss Voigt Hill
#
# Bulk Modulus (GPa) = 43.46425 47.86466 45.66445
# Shear Modulus (GPa) = 18.87858 24.80585 21.84222
#
# Velocity S-wave (km/s) = 3.25044 3.72592 3.49627
# Velocity P-wave (km/s) = 6.19772 6.73033 6.46951
#
# Compressibility (1/GPa) = 0.02300741
#
# Stress axis : x y z
#
# Youngs Moduli (GPa) = 54.43464 95.20829 114.19032
#
# Poissons Ratio (x) = 0.18353 0.52824
# Poissons Ratio (y) = 0.10493 0.08659
# Poissons Ratio (z) = 0.25181 0.07219
#
# Static dielectric constant tensor:
#      x y z
#    x 3.054710 0.000000 0.000000 
#    y 0.000000 3.454630 0.000000 
#    z 0.000000 0.000000 1.033650 
# 
# 
# High freq. dielectric constant tensor:
#      x y z
#    x 1.630660 0.000000 0.000000 
#    y 0.000000 1.688600 0.000000 
#    z 0.000000 0.000000 1.715900 
# 
# From -- ./inp_files/10379.got.cif
#   From: 2010.03.12/outbox.cif.g09.slc.cpg/sg63_6_cif.got.tgz:10379.got - 2010.04.10 19:34:48.
