data_PCOD8257183
_publ_section_title
;
Structure prediction by ZEFSAII (Michael W. Deem and Ramdas Pophale) SiO2 
 PCOD8257183
Probable space group: C M C M
;
_chemical_formula_sum "Si O2"
_cell_formula_units_Z 104
_cell_length_a 21.623631
_cell_length_b 30.377731
_cell_length_c 8.987043
_cell_angle_alpha 90.000000
_cell_angle_beta 90.000000
_cell_angle_gamma 90.000000
_cell_volume 5903.380459
_symmetry_space_group_name_H-M "C M C M"
_symmetry_group_IT_number 63
_symmetry_cell_setting 'orthorhombic'
loop_
_space_group_symop_operation_xyz
x,y,z
-x,-y,1/2+z
x,-y,-z
-x,y,1/2-z
-x,-y,-z
x,y,1/2-z
-x,y,z
x,-y,1/2+z
1/2+x,1/2+y,z
1/2-x,1/2-y,1/2+z
1/2+x,1/2-y,-z
1/2-x,1/2+y,1/2-z
1/2-x,1/2-y,-z
1/2+x,1/2+y,1/2-z
1/2-x,1/2+y,z
1/2+x,1/2-y,1/2+z
loop_
_atom_site_type_symbol
_atom_site_label
_atom_site_fract_x
_atom_site_fract_y
_atom_site_fract_z
Si Si1 0.834646 0.712887 0.418228
Si Si2 0.208862 0.883410 0.080715
Si Si3 0.500000 0.545704 0.420319
Si Si4 0.688015 0.297777 0.582460
Si Si5 0.867610 0.046790 0.076458
Si Si6 0.427636 0.954052 0.575689
Si Si7 0.645359 0.874781 0.078300
O O1 0.860249 0.716179 0.250000
O O2 0.761147 0.709031 0.416446
O O3 0.849500 0.757351 0.509038
O O4 0.868438 0.671829 0.498303
O O5 0.187500 0.886806 0.250000
O O6 0.282150 0.882980 0.065384
O O7 0.174596 0.841098 0.012771
O O8 0.187566 0.925534 0.990860
O O9 0.500000 0.500000 0.500000
O O10 0.500000 0.532391 0.250000
O O11 0.565049 0.570422 0.456168
O O12 0.663203 0.303858 0.750000
O O13 0.854885 0.041086 0.250000
O O14 0.865994 0.000000 0.000000
O O15 0.411677 0.956668 0.750000
O O16 0.500000 0.945566 0.548456
O O17 0.390825 0.913856 0.502662
O O18 0.407124 0.000000 0.500000
O O19 0.624133 0.872147 0.250000
#
# Coordination Sequence:
#
# PCOD8257183 Si02
#       7
#    16  16   8  16  16  16  16
#     4   9  16  27  45  69  97 127 159 197 238 283
#     4  10  20  32  46  70 102 133 165 201 244 294
#     4   8  16  30  48  68  88 114 154 198 234 272
#     4   9  16  27  44  67  96 129 162 196 237 285
#     4  10  19  32  49  69  94 125 161 201 243 287
#     4  10  21  37  56  76  98 127 166 210 254 302
#     4  10  20  33  50  73 101 131 164 202 244 293
#
# _framework density 17.617024000000001
#
# number of rings (size 3 to 8) (size 9 to 14) (size 15 to 20)
#    0.000    2.462    0.000    2.769    0.000    7.692 
#    0.000    0.000    0.000    0.000    2.000    0.000 
#    0.000    0.000    0.000    0.000    0.000    0.000 
#
# Total GULP energy -644502.142380 kJ/mol
# GULP energy per Si atom -12394.271969 kJ/mol
# Density = 1.757693 g / cm^3
# Si number density = 17.617024 Si / 1000 Ang^3
#
#
#
# Elastic Constant Matrix: (Units=GPa)
#
#
# Indices 1 2 3 4 5 6 
#
# 1 24.8946 35.0677 33.8817 0.0000 0.0000 0.0000
# 2 35.0677 130.3579 74.6532 0.0000 0.0000 0.0000
# 3 33.8817 74.6532 152.6147 0.0000 0.0000 0.0000
# 4 0.0000 0.0000 0.0000 39.0380 0.0000 0.0000
# 5 0.0000 0.0000 0.0000 0.0000 16.6482 0.0000
# 6 0.0000 0.0000 0.0000 0.0000 0.0000 10.3885
#
#
#
# Elastic Compliance Matrix: (Units=1/GPa)
#
#
# Indices 1 2 3 4 5 6 
#
# 1 0.072845 -0.014356 -0.009150 0.000000 0.000000 0.000000
# 2 -0.014356 0.013486 -0.003409 0.000000 0.000000 0.000000
# 3 -0.009150 -0.003409 0.010252 0.000000 0.000000 0.000000
# 4 0.000000 0.000000 0.000000 0.025616 0.000000 0.000000
# 5 0.000000 0.000000 0.000000 0.000000 0.060066 0.000000
# 6 0.000000 0.000000 0.000000 0.000000 0.000000 0.096260
#
#
# Mechanical properties :
#
#
# Convention : Reuss Voigt Hill
#
# Bulk Modulus (GPa) = 23.39106 66.11918 44.75512
# Shear Modulus (GPa) = 14.42560 24.16592 19.29576
#
# Velocity S-wave (km/s) = 2.86465 3.70771 3.31311
# Velocity P-wave (km/s) = 4.92422 7.47947 6.33208
#
# Compressibility (1/GPa) = 0.04275138
#
# Stress axis : x y z
#
# Youngs Moduli (GPa) = 13.72779 74.15246 97.54637
#
# Poissons Ratio (x) = 1.06455 0.89251
# Poissons Ratio (y) = 0.19708 0.33258
# Poissons Ratio (z) = 0.12560 0.25282
#
# Static dielectric constant tensor:
#      x y z
#    x 3.153920 0.000000 0.000000 
#    y 0.000000 3.254780 0.000000 
#    z 0.000000 0.000000 3.570120 
# 
# 
# High freq. dielectric constant tensor:
#      x y z
#    x 1.639860 0.000000 0.000000 
#    y 0.000000 1.678940 0.000000 
#    z 0.000000 0.000000 1.704710 
# 
# From -- ./inp_files/10878.got.cif
#   From: 2010.03.12/outbox.cif.g09.slc.cpg/sg63_6_cif.got.tgz:10878.got - 2010.04.10 19:34:48.
