data_PCOD8257007
_publ_section_title
;
Structure prediction by ZEFSAII (Michael W. Deem and Ramdas Pophale) SiO2 
 PCOD8257007
Probable space group: C M C M
;
_chemical_formula_sum "Si O2"
_cell_formula_units_Z 96
_cell_length_a 24.270025
_cell_length_b 23.554130
_cell_length_c 9.051450
_cell_angle_alpha 90.000000
_cell_angle_beta 90.000000
_cell_angle_gamma 90.000000
_cell_volume 5174.345788
_symmetry_space_group_name_H-M "C M C M"
_symmetry_group_IT_number 63
_symmetry_cell_setting 'orthorhombic'
loop_
_space_group_symop_operation_xyz
x,y,z
-x,-y,1/2+z
x,-y,-z
-x,y,1/2-z
-x,-y,-z
x,y,1/2-z
-x,y,z
x,-y,1/2+z
1/2+x,1/2+y,z
1/2-x,1/2-y,1/2+z
1/2+x,1/2-y,-z
1/2-x,1/2+y,1/2-z
1/2-x,1/2-y,-z
1/2+x,1/2+y,1/2-z
1/2-x,1/2+y,z
1/2+x,1/2-y,1/2+z
loop_
_atom_site_type_symbol
_atom_site_label
_atom_site_fract_x
_atom_site_fract_y
_atom_site_fract_z
Si Si1 0.065308 0.054209 0.585204
Si Si2 0.329940 0.726183 0.077406
Si Si3 0.236234 0.334015 0.077653
Si Si4 0.561655 0.331723 0.577053
Si Si5 0.165443 0.439454 0.075639
Si Si6 0.440314 0.939362 0.923218
O O1 0.090249 0.055606 0.750000
O O2 0.082251 0.111442 0.502323
O O3 0.000000 0.048611 0.591388
O O4 0.090587 0.000000 0.500000
O O5 0.321261 0.718879 0.250000
O O6 0.309660 0.788057 0.023450
O O7 0.394560 0.717727 0.036152
O O8 0.293887 0.676600 0.002763
O O9 0.246403 0.326541 0.250000
O O10 0.215711 0.397299 0.040099
O O11 0.561314 0.344894 0.750000
O O12 0.500000 0.313328 0.524798
O O13 0.156872 0.447490 0.250000
O O14 0.177815 0.500000 0.000000
O O15 0.110726 0.408969 0.005641
O O16 0.427319 0.946144 0.750000
O O17 0.500000 0.908440 0.945941
O O18 0.443601 0.000000 0.000000
#
# Coordination Sequence:
#
# PCOD8257007 Si02
#       6
#    16  16  16  16  16  16
#     4   9  16  26  42  65  94 128 163 195 231 281
#     4   9  18  34  55  75  95 125 164 201 242 291
#     4   9  19  35  53  74  98 126 164 206 244 286
#     4   9  17  30  49  73 100 127 157 198 246 294
#     4  10  19  31  49  73 101 130 162 202 247 293
#     4   9  16  26  42  65  94 128 164 198 235 284
#
# _framework density 18.553069000000001
#
# number of rings (size 3 to 8) (size 9 to 14) (size 15 to 20)
#    0.000    2.833    0.000    2.500    0.000    5.000 
#    0.000    1.667    0.000    5.000    0.000    2.333 
#    0.000    0.000    0.000    0.000    0.000    0.000 
#
# Total GULP energy -594792.383395 kJ/mol
# GULP energy per Si atom -12391.507987 kJ/mol
# Density = 1.851084 g / cm^3
# Si number density = 18.553069 Si / 1000 Ang^3
#
#
#
# Elastic Constant Matrix: (Units=GPa)
#
#
# Indices 1 2 3 4 5 6 
#
# 1 100.7876 46.5979 35.4976 0.0000 0.0000 0.0000
# 2 46.5979 70.6212 30.6090 0.0000 0.0000 0.0000
# 3 35.4976 30.6090 71.3028 0.0000 0.0000 0.0000
# 4 0.0000 0.0000 0.0000 23.1868 0.0000 0.0000
# 5 0.0000 0.0000 0.0000 0.0000 26.3287 0.0000
# 6 0.0000 0.0000 0.0000 0.0000 0.0000 23.0383
#
#
#
# Elastic Compliance Matrix: (Units=1/GPa)
#
#
# Indices 1 2 3 4 5 6 
#
# 1 0.015150 -0.008265 -0.003994 0.000000 0.000000 0.000000
# 2 -0.008265 0.021906 -0.005289 0.000000 0.000000 0.000000
# 3 -0.003994 -0.005289 0.018284 0.000000 0.000000 0.000000
# 4 0.000000 0.000000 0.000000 0.043128 0.000000 0.000000
# 5 0.000000 0.000000 0.000000 0.000000 0.037981 0.000000
# 6 0.000000 0.000000 0.000000 0.000000 0.000000 0.043406
#
#
# Mechanical properties :
#
#
# Convention : Reuss Voigt Hill
#
# Bulk Modulus (GPa) = 49.40045 52.01339 50.70692
# Shear Modulus (GPa) = 22.55306 23.17792 22.86549
#
# Velocity S-wave (km/s) = 3.49032 3.53835 3.51442
# Velocity P-wave (km/s) = 6.55191 6.69246 6.62256
#
# Compressibility (1/GPa) = 0.02024273
#
# Stress axis : x y z
#
# Youngs Moduli (GPa) = 66.00705 45.64945 54.69356
#
# Poissons Ratio (x) = 0.37730 0.21846
# Poissons Ratio (y) = 0.54556 0.28928
# Poissons Ratio (z) = 0.26364 0.24145
#
# Static dielectric constant tensor:
#      x y z
#    x 3.703140 0.000000 0.000000 
#    y 0.000000 3.238170 0.000000 
#    z 0.000000 0.000000 3.509560 
# 
# 
# High freq. dielectric constant tensor:
#      x y z
#    x 1.710090 0.000000 0.000000 
#    y 0.000000 1.689910 0.000000 
#    z 0.000000 0.000000 1.725030 
# 
# From -- ./inp_files/12753.got.cif
#   From: 2010.03.12/outbox.cif.g09.slc.cpg/sg63_7_cif.got.tgz:12753.got - 2010.04.10 19:34:48.
