data_PCOD8257219
_publ_section_title
;
Structure prediction by ZEFSAII (Michael W. Deem and Ramdas Pophale) SiO2 
 PCOD8257219
Probable space group: C M C M
;
_chemical_formula_sum "Si O2"
_cell_formula_units_Z 96
_cell_length_a 18.416945
_cell_length_b 18.323067
_cell_length_c 16.426972
_cell_angle_alpha 90.000000
_cell_angle_beta 90.000000
_cell_angle_gamma 90.000000
_cell_volume 5543.362476
_symmetry_space_group_name_H-M "C M C M"
_symmetry_group_IT_number 63
_symmetry_cell_setting 'orthorhombic'
loop_
_space_group_symop_operation_xyz
x,y,z
-x,-y,1/2+z
x,-y,-z
-x,y,1/2-z
-x,-y,-z
x,y,1/2-z
-x,y,z
x,-y,1/2+z
1/2+x,1/2+y,z
1/2-x,1/2-y,1/2+z
1/2+x,1/2-y,-z
1/2-x,1/2+y,1/2-z
1/2-x,1/2-y,-z
1/2+x,1/2+y,1/2-z
1/2-x,1/2+y,z
1/2+x,1/2-y,1/2+z
loop_
_atom_site_type_symbol
_atom_site_label
_atom_site_fract_x
_atom_site_fract_y
_atom_site_fract_z
Si Si1 0.820955 0.950293 0.577276
Si Si2 0.915698 0.164970 0.510752
Si Si3 0.585787 0.169797 0.473278
Si Si4 0.669027 0.922960 0.844682
Si Si5 0.420024 0.955876 0.416899
Si Si6 0.917822 0.934577 0.341184
O O1 0.868685 0.880399 0.553293
O O2 0.749925 0.921137 0.621169
O O3 0.799792 0.000000 0.500000
O O4 0.866460 0.997399 0.640944
O O5 0.888050 0.247998 0.511353
O O6 0.902073 0.133743 0.600820
O O7 0.000000 0.159454 0.485343
O O8 0.500000 0.165266 0.457414
O O9 0.623062 0.137617 0.392613
O O10 0.607054 0.124730 0.555506
O O11 0.668560 0.902468 0.750000
O O12 0.635629 0.004567 0.855938
O O13 0.500000 0.952133 0.375686
O O14 0.425380 0.000000 0.500000
O O15 0.903807 0.906658 0.250000
O O16 0.000000 0.962429 0.353793
#
# Coordination Sequence:
#
# PCOD8257219 Si02
#       6
#    16  16  16  16  16  16
#     4  10  19  32  50  69  94 128 167 200 228 276
#     4   9  18  32  52  75  96 124 161 197 236 285
#     4   9  18  33  52  73  97 125 159 199 241 285
#     4  11  21  31  47  72  99 127 159 197 244 289
#     4   8  15  30  50  69  91 122 159 195 233 280
#     4   9  17  30  49  73  99 124 153 196 246 287
#
# _framework density 17.318009
#
# number of rings (size 3 to 8) (size 9 to 14) (size 15 to 20)
#    0.000    2.667    0.000    4.000    0.000    4.667 
#    0.000    1.667    0.000    6.000    0.000    4.667 
#    0.000    0.000    0.000    0.000    0.000    0.000 
#
# Total GULP energy -595093.891356 kJ/mol
# GULP energy per Si atom -12397.789403 kJ/mol
# Density = 1.727859 g / cm^3
# Si number density = 17.318009 Si / 1000 Ang^3
#
#
#
# Elastic Constant Matrix: (Units=GPa)
#
#
# Indices 1 2 3 4 5 6 
#
# 1 76.7367 44.9472 34.2513 0.0000 0.0000 0.0000
# 2 44.9472 130.2636 33.4778 0.0000 0.0000 0.0000
# 3 34.2513 33.4778 58.0017 0.0000 0.0000 0.0000
# 4 0.0000 0.0000 0.0000 16.7891 0.0000 0.0000
# 5 0.0000 0.0000 0.0000 0.0000 16.5457 0.0000
# 6 0.0000 0.0000 0.0000 0.0000 0.0000 11.7935
#
#
#
# Elastic Compliance Matrix: (Units=1/GPa)
#
#
# Indices 1 2 3 4 5 6 
#
# 1 0.019686 -0.004468 -0.009047 0.000000 0.000000 0.000000
# 2 -0.004468 0.010028 -0.003150 0.000000 0.000000 0.000000
# 3 -0.009047 -0.003150 0.024401 0.000000 0.000000 0.000000
# 4 0.000000 0.000000 0.000000 0.059563 0.000000 0.000000
# 5 0.000000 0.000000 0.000000 0.000000 0.060439 0.000000
# 6 0.000000 0.000000 0.000000 0.000000 0.000000 0.084793
#
#
# Mechanical properties :
#
#
# Convention : Reuss Voigt Hill
#
# Bulk Modulus (GPa) = 48.10613 54.48383 51.29498
# Shear Modulus (GPa) = 16.71313 19.18069 17.94691
#
# Velocity S-wave (km/s) = 3.10993 3.33161 3.22268
# Velocity P-wave (km/s) = 6.38232 6.80651 6.59782
#
# Compressibility (1/GPa) = 0.02078737
#
# Stress axis : x y z
#
# Youngs Moduli (GPa) = 50.79648 99.72292 40.98202
#
# Poissons Ratio (x) = 0.44554 0.37074
# Poissons Ratio (y) = 0.22695 0.12908
# Poissons Ratio (z) = 0.45953 0.31408
#
# Static dielectric constant tensor:
#      x y z
#    x 3.247590 0.000000 0.000000 
#    y 0.000000 3.440010 0.000000 
#    z 0.000000 0.000000 3.067390 
# 
# 
# High freq. dielectric constant tensor:
#      x y z
#    x 1.671220 0.000000 0.000000 
#    y 0.000000 1.661940 0.000000 
#    z 0.000000 0.000000 1.647960 
# 
# From -- ./inp_files/45743.got.cif
#   From: 2010.03.12/outbox.cif.g09.slc.cpg/sg63_23_cif.got.tgz:45743.got - 2010.04.10 19:34:48.
