data_PCOD8257869
_publ_section_title
;
Structure prediction by ZEFSAII (Michael W. Deem and Ramdas Pophale) SiO2 
 PCOD8257869
Probable space group: C M C M
;
_chemical_formula_sum "Si O2"
_cell_formula_units_Z 96
_cell_length_a 15.111561
_cell_length_b 21.901971
_cell_length_c 14.803480
_cell_angle_alpha 90.000000
_cell_angle_beta 90.000000
_cell_angle_gamma 90.000000
_cell_volume 4899.551754
_symmetry_space_group_name_H-M "C M C M"
_symmetry_group_IT_number 63
_symmetry_cell_setting 'orthorhombic'
loop_
_space_group_symop_operation_xyz
x,y,z
-x,-y,1/2+z
x,-y,-z
-x,y,1/2-z
-x,-y,-z
x,y,1/2-z
-x,y,z
x,-y,1/2+z
1/2+x,1/2+y,z
1/2-x,1/2-y,1/2+z
1/2+x,1/2-y,-z
1/2-x,1/2+y,1/2-z
1/2-x,1/2-y,-z
1/2+x,1/2+y,1/2-z
1/2-x,1/2+y,z
1/2+x,1/2-y,1/2+z
loop_
_atom_site_type_symbol
_atom_site_label
_atom_site_fract_x
_atom_site_fract_y
_atom_site_fract_z
Si Si1 0.265576 0.630769 0.856747
Si Si2 0.101477 0.803344 0.486853
Si Si3 0.399580 0.167646 0.958930
Si Si4 0.770419 0.005378 0.351462
Si Si5 0.398101 0.392159 0.854012
Si Si6 0.902686 0.550772 0.423678
O O1 0.282118 0.634546 0.750000
O O2 0.167094 0.655646 0.876459
O O3 0.272098 0.561579 0.896799
O O4 0.338620 0.670714 0.907028
O O5 0.122219 0.732023 0.495140
O O6 0.122606 0.833640 0.584044
O O7 0.000000 0.815330 0.459366
O O8 0.500000 0.165876 0.920472
O O9 0.385625 0.117602 0.036353
O O10 0.800670 0.995166 0.250000
O O11 0.841504 0.051492 0.395206
O O12 0.672975 0.035510 0.351784
O O13 0.371607 0.376465 0.750000
O O14 0.500000 0.411583 0.860008
O O15 0.896314 0.500000 0.500000
O O16 0.000000 0.548193 0.377560
#
# Coordination Sequence:
#
# PCOD8257869 Si02
#       6
#    16  16  16  16  16  16
#     4  11  23  37  56  84 116 151 188 228 277 333
#     4  10  22  39  59  83 114 151 188 232 279 330
#     4  10  21  38  58  82 110 144 189 234 280 333
#     4  10  21  35  54  82 114 146 184 233 280 330
#     4   9  19  36  58  84 112 145 188 235 283 332
#     4  10  19  34  57  79 105 144 183 227 280 331
#
# _framework density 19.593629
#
# number of rings (size 3 to 8) (size 9 to 14) (size 15 to 20)
#    0.000    2.000    1.667    1.500    0.000    2.333 
#    0.000    9.167    0.000    3.000    0.000    0.000 
#    0.000    0.000    0.000    0.000    0.000    0.000 
#
# Total GULP energy -595102.493831 kJ/mol
# GULP energy per Si atom -12397.968621 kJ/mol
# Density = 1.954903 g / cm^3
# Si number density = 19.593629 Si / 1000 Ang^3
#
#
#
# Elastic Constant Matrix: (Units=GPa)
#
#
# Indices 1 2 3 4 5 6 
#
# 1 94.2045 66.7334 35.3735 0.0000 0.0000 0.0000
# 2 66.7334 166.2992 45.2210 0.0000 0.0000 0.0000
# 3 35.3735 45.2210 63.9962 0.0000 0.0000 0.0000
# 4 0.0000 0.0000 0.0000 23.2530 0.0000 0.0000
# 5 0.0000 0.0000 0.0000 0.0000 21.4407 0.0000
# 6 0.0000 0.0000 0.0000 0.0000 0.0000 34.5211
#
#
#
# Elastic Compliance Matrix: (Units=1/GPa)
#
#
# Indices 1 2 3 4 5 6 
#
# 1 0.016211 -0.005036 -0.005402 0.000000 0.000000 0.000000
# 2 -0.005036 0.009008 -0.003582 0.000000 0.000000 0.000000
# 3 -0.005402 -0.003582 0.021143 0.000000 0.000000 0.000000
# 4 0.000000 0.000000 0.000000 0.043005 0.000000 0.000000
# 5 0.000000 0.000000 0.000000 0.000000 0.046640 0.000000
# 6 0.000000 0.000000 0.000000 0.000000 0.000000 0.028968
#
#
# Mechanical properties :
#
#
# Convention : Reuss Voigt Hill
#
# Bulk Modulus (GPa) = 54.57788 68.79507 61.68648
# Shear Modulus (GPa) = 25.11016 27.65442 26.38229
#
# Velocity S-wave (km/s) = 3.58375 3.76093 3.67341
# Velocity P-wave (km/s) = 6.71117 7.35164 7.03869
#
# Compressibility (1/GPa) = 0.01832244
#
# Stress axis : x y z
#
# Youngs Moduli (GPa) = 61.68509 111.00963 47.29799
#
# Poissons Ratio (x) = 0.55910 0.25550
# Poissons Ratio (y) = 0.31068 0.16940
# Poissons Ratio (z) = 0.33321 0.39758
#
# Static dielectric constant tensor:
#      x y z
#    x 3.815510 0.000000 0.000000 
#    y 0.000000 3.863610 0.000000 
#    z 0.000000 0.000000 3.211860 
# 
# 
# High freq. dielectric constant tensor:
#      x y z
#    x 1.776460 0.000000 0.000000 
#    y 0.000000 1.775750 0.000000 
#    z 0.000000 0.000000 1.735480 
# 
# From -- ./inp_files/31863.got.cif
#   From: 2010.03.12/outbox.cif.g09.slc.cpg/sg63_16_cif.got.tgz:31863.got - 2010.04.10 19:34:48.
