data_PCOD8257917
_publ_section_title
;
Structure prediction by ZEFSAII (Michael W. Deem and Ramdas Pophale) SiO2 
 PCOD8257917
Probable space group: C M C M
;
_chemical_formula_sum "Si O2"
_cell_formula_units_Z 48
_cell_length_a 7.895108
_cell_length_b 20.305154
_cell_length_c 17.177857
_cell_angle_alpha 90.000000
_cell_angle_beta 90.000000
_cell_angle_gamma 90.000000
_cell_volume 2753.806026
_symmetry_space_group_name_H-M "C M C M"
_symmetry_group_IT_number 63
_symmetry_cell_setting 'orthorhombic'
loop_
_space_group_symop_operation_xyz
x,y,z
-x,-y,1/2+z
x,-y,-z
-x,y,1/2-z
-x,-y,-z
x,y,1/2-z
-x,y,z
x,-y,1/2+z
1/2+x,1/2+y,z
1/2-x,1/2-y,1/2+z
1/2+x,1/2-y,-z
1/2-x,1/2+y,1/2-z
1/2-x,1/2-y,-z
1/2+x,1/2+y,1/2-z
1/2-x,1/2+y,z
1/2+x,1/2-y,1/2+z
loop_
_atom_site_type_symbol
_atom_site_label
_atom_site_fract_x
_atom_site_fract_y
_atom_site_fract_z
Si Si1 0.000000 0.137053 0.840542
Si Si2 0.810578 0.555414 0.438427
Si Si3 0.000000 0.019324 0.161349
Si Si4 0.313787 0.321877 0.019845
O O1 0.166630 0.166046 0.885902
O O2 0.000000 0.158747 0.750000
O O3 0.000000 0.058784 0.850717
O O4 0.760998 0.500000 0.500000
O O5 0.670601 0.551904 0.371763
O O6 0.811802 0.625760 0.481514
O O7 0.000000 0.544085 0.404321
O O8 0.000000 0.039373 0.250000
O O9 0.500000 0.331653 0.981888
O O10 0.250000 0.250000 0.000000
#
# Coordination Sequence:
#
# PCOD8257917 Si02
#       4
#     8  16   8  16
#     4   9  19  35  59  83 113 150 190 242 300 340
#     4  11  20  35  59  86 111 146 195 237 282 342
#     4  11  20  38  60  84 118 150 183 242 301 343
#     4  10  19  34  59  80 111 151 200 235 285 338
#
# _framework density 17.430420999999999
#
# number of rings (size 3 to 8) (size 9 to 14) (size 15 to 20)
#    1.000    0.667    5.000    1.500    0.000    0.667 
#    0.000    1.667    0.000    3.000    0.000    0.000 
#    0.000    0.000    0.000    0.000    0.000    0.000 
#
# Total GULP energy -297390.062511 kJ/mol
# GULP energy per Si atom -12391.252605 kJ/mol
# Density = 1.739075 g / cm^3
# Si number density = 17.430421 Si / 1000 Ang^3
#
#
#
# Elastic Constant Matrix: (Units=GPa)
#
#
# Indices 1 2 3 4 5 6 
#
# 1 105.0100 17.0604 57.3296 0.0000 0.0000 0.0000
# 2 17.0604 113.9286 52.3309 0.0000 0.0000 0.0000
# 3 57.3296 52.3309 133.4540 0.0000 0.0000 0.0000
# 4 0.0000 0.0000 0.0000 23.5028 0.0000 0.0000
# 5 0.0000 0.0000 0.0000 0.0000 7.0693 0.0000
# 6 0.0000 0.0000 0.0000 0.0000 0.0000 31.3746
#
#
#
# Elastic Compliance Matrix: (Units=1/GPa)
#
#
# Indices 1 2 3 4 5 6 
#
# 1 0.012489 0.000725 -0.005649 0.000000 0.000000 0.000000
# 2 0.000725 0.010748 -0.004526 0.000000 0.000000 0.000000
# 3 -0.005649 -0.004526 0.011695 0.000000 0.000000 0.000000
# 4 0.000000 0.000000 0.000000 0.042548 0.000000 0.000000
# 5 0.000000 0.000000 0.000000 0.000000 0.141457 0.000000
# 6 0.000000 0.000000 0.000000 0.000000 0.000000 0.031873
#
#
# Mechanical properties :
#
#
# Convention : Reuss Voigt Hill
#
# Bulk Modulus (GPa) = 62.37937 67.31493 64.84715
# Shear Modulus (GPa) = 18.17818 27.43411 22.80615
#
# Velocity S-wave (km/s) = 3.23290 3.97157 3.62112
# Velocity P-wave (km/s) = 7.05697 7.72879 7.40051
#
# Compressibility (1/GPa) = 0.01603094
#
# Stress axis : x y z
#
# Youngs Moduli (GPa) = 80.06766 93.04281 85.50809
#
# Poissons Ratio (x) = -0.06743 0.48307
# Poissons Ratio (y) = -0.05803 0.38699
# Poissons Ratio (z) = 0.45234 0.42109
#
# Static dielectric constant tensor:
#      x y z
#    x 3.198560 0.000000 0.000000 
#    y 0.000000 3.169820 0.000000 
#    z 0.000000 0.000000 3.207390 
# 
# 
# High freq. dielectric constant tensor:
#      x y z
#    x 1.673250 0.000000 0.000000 
#    y 0.000000 1.678140 0.000000 
#    z 0.000000 0.000000 1.648130 
# 
# From -- ./inp_files/50217.got.cif
#   From: 2010.03.12/outbox.cif.g09.slc.cpg/sg63_26_cif.got.tgz:50217.got - 2010.04.10 19:34:48.
