data_PCOD8257482
_publ_section_title
;
Structure prediction by ZEFSAII (Michael W. Deem and Ramdas Pophale) SiO2 
 PCOD8257482
Probable space group: C M C M
;
_chemical_formula_sum "Si O2"
_cell_formula_units_Z 112
_cell_length_a 14.043002
_cell_length_b 17.401636
_cell_length_c 27.340122
_cell_angle_alpha 90.000000
_cell_angle_beta 90.000000
_cell_angle_gamma 90.000000
_cell_volume 6681.138671
_symmetry_space_group_name_H-M "C M C M"
_symmetry_group_IT_number 63
_symmetry_cell_setting 'orthorhombic'
loop_
_space_group_symop_operation_xyz
x,y,z
-x,-y,1/2+z
x,-y,-z
-x,y,1/2-z
-x,-y,-z
x,y,1/2-z
-x,y,z
x,-y,1/2+z
1/2+x,1/2+y,z
1/2-x,1/2-y,1/2+z
1/2+x,1/2-y,-z
1/2-x,1/2+y,1/2-z
1/2-x,1/2-y,-z
1/2+x,1/2+y,1/2-z
1/2-x,1/2+y,z
1/2+x,1/2-y,1/2+z
loop_
_atom_site_type_symbol
_atom_site_label
_atom_site_fract_x
_atom_site_fract_y
_atom_site_fract_z
Si Si1 0.221138 0.555613 0.113494
Si Si2 0.388155 0.140695 0.464064
Si Si3 0.890112 0.187997 0.505088
Si Si4 0.109897 0.465844 0.305649
Si Si5 0.770956 0.407255 0.050269
Si Si6 0.607618 0.659172 0.108323
Si Si7 0.607358 0.173815 0.870949
O O1 0.150996 0.618731 0.089533
O O2 0.172888 0.523244 0.162229
O O3 0.243844 0.489767 0.074331
O O4 0.320817 0.594829 0.128442
O O5 0.500000 0.127369 0.465309
O O6 0.358606 0.227680 0.477005
O O7 0.339682 0.084507 0.503557
O O8 0.831959 0.124294 0.534735
O O9 0.868384 0.180349 0.447716
O O10 0.000000 0.173280 0.517119
O O11 0.144916 0.471811 0.250000
O O12 0.123822 0.377502 0.322665
O O13 0.000000 0.490455 0.311008
O O14 0.818352 0.348780 0.087874
O O15 0.500000 0.627489 0.113151
O O16 0.620771 0.736134 0.141089
O O17 0.500000 0.160297 0.891677
#
# Coordination Sequence:
#
# PCOD8257482 Si02
#       7
#    16  16  16  16  16  16  16
#     4  11  22  31  48  75 102 132 160 200 250 297
#     4  11  20  30  45  69 100 133 169 206 243 286
#     4  10  20  32  47  65  97 145 182 204 227 269
#     4   9  19  37  57  75  96 121 154 201 255 308
#     4  11  19  30  45  68 101 135 167 199 236 286
#     4  10  19  33  49  70 102 137 171 204 236 275
#     4   9  17  31  53  74  93 126 166 202 245 290
#
# _framework density 16.76361
#
# number of rings (size 3 to 8) (size 9 to 14) (size 15 to 20)
#    0.000    1.857    2.857    2.571    0.000    2.857 
#    0.000    2.143    0.000    1.286    0.000    0.000 
#    0.000    0.000    0.000    0.000    0.000    0.000 
#
# Total GULP energy -694438.825561 kJ/mol
# GULP energy per Si atom -12400.693314 kJ/mol
# Density = 1.672545 g / cm^3
# Si number density = 16.763610 Si / 1000 Ang^3
#
#
#
# Elastic Constant Matrix: (Units=GPa)
#
#
# Indices 1 2 3 4 5 6 
#
# 1 95.5255 61.8306 51.1030 0.0000 0.0000 0.0000
# 2 61.8306 85.0558 42.9234 0.0000 0.0000 0.0000
# 3 51.1030 42.9234 92.6788 0.0000 0.0000 0.0000
# 4 0.0000 0.0000 0.0000 15.9288 0.0000 0.0000
# 5 0.0000 0.0000 0.0000 0.0000 20.4257 0.0000
# 6 0.0000 0.0000 0.0000 0.0000 0.0000 28.6715
#
#
#
# Elastic Compliance Matrix: (Units=1/GPa)
#
#
# Indices 1 2 3 4 5 6 
#
# 1 0.022221 -0.013011 -0.006227 0.000000 0.000000 0.000000
# 2 -0.013011 0.022962 -0.003460 0.000000 0.000000 0.000000
# 3 -0.006227 -0.003460 0.015826 0.000000 0.000000 0.000000
# 4 0.000000 0.000000 0.000000 0.062779 0.000000 0.000000
# 5 0.000000 0.000000 0.000000 0.000000 0.048958 0.000000
# 6 0.000000 0.000000 0.000000 0.000000 0.000000 0.034878
#
#
# Mechanical properties :
#
#
# Convention : Reuss Voigt Hill
#
# Bulk Modulus (GPa) = 64.05088 64.99715 64.52402
# Shear Modulus (GPa) = 19.36301 20.83205 20.09753
#
# Velocity S-wave (km/s) = 3.40231 3.52901 3.46624
# Velocity P-wave (km/s) = 7.32977 7.44729 7.38876
#
# Compressibility (1/GPa) = 0.01561259
#
# Stress axis : x y z
#
# Youngs Moduli (GPa) = 45.00185 43.55109 63.18762
#
# Poissons Ratio (x) = 0.56665 0.39345
# Poissons Ratio (y) = 0.58553 0.21863
# Poissons Ratio (z) = 0.28022 0.15069
#
# Static dielectric constant tensor:
#      x y z
#    x 3.187040 0.000000 0.000000 
#    y 0.000000 3.165920 0.000000 
#    z 0.000000 0.000000 2.910350 
# 
# 
# High freq. dielectric constant tensor:
#      x y z
#    x 1.651480 0.000000 0.000000 
#    y 0.000000 1.648020 0.000000 
#    z 0.000000 0.000000 1.610240 
# 
# From -- ./inp_files/69397.got.cif
#   From: 2010.03.12/outbox.cif.g09.slc.cpg/sg63_35_cif.got.tgz:69397.got - 2010.04.10 19:34:48.
