data_PCOD8257793
_publ_section_title
;
Structure prediction by ZEFSAII (Michael W. Deem and Ramdas Pophale) SiO2 
 PCOD8257793
Probable space group: C M C M
;
_chemical_formula_sum "Si O2"
_cell_formula_units_Z 80
_cell_length_a 15.355939
_cell_length_b 20.903624
_cell_length_c 13.981172
_cell_angle_alpha 90.000000
_cell_angle_beta 90.000000
_cell_angle_gamma 90.000000
_cell_volume 4487.883161
_symmetry_space_group_name_H-M "C M C M"
_symmetry_group_IT_number 63
_symmetry_cell_setting 'orthorhombic'
loop_
_space_group_symop_operation_xyz
x,y,z
-x,-y,1/2+z
x,-y,-z
-x,y,1/2-z
-x,-y,-z
x,y,1/2-z
-x,y,z
x,-y,1/2+z
1/2+x,1/2+y,z
1/2-x,1/2-y,1/2+z
1/2+x,1/2-y,-z
1/2-x,1/2+y,1/2-z
1/2-x,1/2-y,-z
1/2+x,1/2+y,1/2-z
1/2-x,1/2+y,z
1/2+x,1/2-y,1/2+z
loop_
_atom_site_type_symbol
_atom_site_label
_atom_site_fract_x
_atom_site_fract_y
_atom_site_fract_z
Si Si1 0.096002 0.308443 0.552948
Si Si2 0.402446 0.573916 0.483924
Si Si3 0.265037 0.355287 0.640788
Si Si4 0.359628 0.327663 0.359501
Si Si5 0.830918 0.287559 0.144212
O O1 0.168459 0.356416 0.594922
O O2 0.105365 0.237534 0.594818
O O3 0.101527 0.306986 0.437431
O O4 0.000000 0.334688 0.579209
O O5 0.383777 0.500000 0.500000
O O6 0.500000 0.584150 0.441968
O O7 0.330117 0.596042 0.409181
O O8 0.396459 0.611703 0.583963
O O9 0.255633 0.376105 0.750000
O O10 0.304319 0.285437 0.628052
O O11 0.391630 0.331311 0.250000
O O12 0.255237 0.330523 0.365850
O O13 0.872603 0.296729 0.250000
#
# Coordination Sequence:
#
# PCOD8257793 Si02
#       5
#    16  16  16  16  16
#     4  11  19  31  55  84 111 137 170 215 271 325
#     4  11  23  37  54  77 106 142 184 222 259 307
#     4  10  20  36  54  76 109 141 176 219 265 318
#     4  10  19  34  54  76 107 140 173 217 265 315
#     4   9  17  31  54  80 106 139 175 212 264 323
#
# _framework density 17.825776000000001
#
# number of rings (size 3 to 8) (size 9 to 14) (size 15 to 20)
#    0.000    1.800    4.000    3.600    0.000    4.400 
#    0.000    4.000    0.000    0.600    0.000    0.000 
#    0.000    0.000    0.000    0.000    0.000    0.000 
#
# Total GULP energy -495926.979581 kJ/mol
# GULP energy per Si atom -12398.174490 kJ/mol
# Density = 1.778520 g / cm^3
# Si number density = 17.825776 Si / 1000 Ang^3
#
#
#
# Elastic Constant Matrix: (Units=GPa)
#
#
# Indices 1 2 3 4 5 6 
#
# 1 127.5997 52.9493 72.6789 0.0000 0.0000 0.0000
# 2 52.9493 72.7362 33.6674 0.0000 0.0000 0.0000
# 3 72.6789 33.6674 139.4520 0.0000 0.0000 0.0000
# 4 0.0000 0.0000 0.0000 7.5016 0.0000 0.0000
# 5 0.0000 0.0000 0.0000 0.0000 10.3146 0.0000
# 6 0.0000 0.0000 0.0000 0.0000 0.0000 23.7763
#
#
#
# Elastic Compliance Matrix: (Units=1/GPa)
#
#
# Indices 1 2 3 4 5 6 
#
# 1 0.014220 -0.007792 -0.005530 0.000000 0.000000 0.000000
# 2 -0.007792 0.019748 -0.000707 0.000000 0.000000 0.000000
# 3 -0.005530 -0.000707 0.010224 0.000000 0.000000 0.000000
# 4 0.000000 0.000000 0.000000 0.133304 0.000000 0.000000
# 5 0.000000 0.000000 0.000000 0.000000 0.096950 0.000000
# 6 0.000000 0.000000 0.000000 0.000000 0.000000 0.042059
#
#
# Mechanical properties :
#
#
# Convention : Reuss Voigt Hill
#
# Bulk Modulus (GPa) = 61.98018 73.15325 67.56671
# Shear Modulus (GPa) = 14.28817 20.35133 17.31975
#
# Velocity S-wave (km/s) = 2.83423 3.38254 3.12045
# Velocity P-wave (km/s) = 6.74951 7.50882 7.13927
#
# Compressibility (1/GPa) = 0.01613419
#
# Stress axis : x y z
#
# Youngs Moduli (GPa) = 70.32197 50.63860 97.81270
#
# Poissons Ratio (x) = 0.39458 0.54091
# Poissons Ratio (y) = 0.54796 0.06911
# Poissons Ratio (z) = 0.38888 0.03578
#
# Static dielectric constant tensor:
#      x y z
#    x 3.378770 0.000000 0.000000 
#    y 0.000000 2.900360 0.000000 
#    z 0.000000 0.000000 3.591240 
# 
# 
# High freq. dielectric constant tensor:
#      x y z
#    x 1.691590 0.000000 0.000000 
#    y 0.000000 1.639120 0.000000 
#    z 0.000000 0.000000 1.706890 
# 
# From -- ./inp_files/31647.got.cif
#   From: 2010.03.12/outbox.cif.g09.slc.cpg/sg63_16_cif.got.tgz:31647.got - 2010.04.10 19:34:48.
