data_PCOD8257026
_publ_section_title
;
Structure prediction by ZEFSAII (Michael W. Deem and Ramdas Pophale) SiO2 
 PCOD8257026
Probable space group: C M C M
;
_chemical_formula_sum "Si O2"
_cell_formula_units_Z 96
_cell_length_a 18.934494
_cell_length_b 31.037949
_cell_length_c 9.035169
_cell_angle_alpha 90.000000
_cell_angle_beta 90.000000
_cell_angle_gamma 90.000000
_cell_volume 5309.859126
_symmetry_space_group_name_H-M "C M C M"
_symmetry_group_IT_number 63
_symmetry_cell_setting 'orthorhombic'
loop_
_space_group_symop_operation_xyz
x,y,z
-x,-y,1/2+z
x,-y,-z
-x,y,1/2-z
-x,-y,-z
x,y,1/2-z
-x,y,z
x,-y,1/2+z
1/2+x,1/2+y,z
1/2-x,1/2-y,1/2+z
1/2+x,1/2-y,-z
1/2-x,1/2+y,1/2-z
1/2-x,1/2-y,-z
1/2+x,1/2+y,1/2-z
1/2-x,1/2+y,z
1/2+x,1/2-y,1/2+z
loop_
_atom_site_type_symbol
_atom_site_label
_atom_site_fract_x
_atom_site_fract_y
_atom_site_fract_z
Si Si1 0.419238 0.543166 0.923607
Si Si2 0.835532 0.620998 0.576698
Si Si3 0.334843 0.207474 0.082773
Si Si4 0.917430 0.544147 0.077742
Si Si5 0.670975 0.376542 0.422113
Si Si6 0.666703 0.291245 0.583479
O O1 0.410431 0.536936 0.750000
O O2 0.500000 0.552266 0.968933
O O3 0.372209 0.582574 0.981569
O O4 0.390701 0.500000 0.000000
O O5 0.853136 0.620752 0.750000
O O6 0.861785 0.666176 0.508470
O O7 0.875965 0.582850 0.496850
O O8 0.752840 0.614755 0.545489
O O9 0.364012 0.204667 0.250000
O O10 0.250845 0.209798 0.082080
O O11 0.364814 0.250547 0.005511
O O12 0.897744 0.541295 0.250000
O O13 0.000000 0.552464 0.053343
O O14 0.893543 0.500000 0.000000
O O15 0.657374 0.368062 0.250000
O O16 0.640904 0.335134 0.507433
O O17 0.637366 0.289351 0.750000
#
# Coordination Sequence:
#
# PCOD8257026 Si02
#       6
#    16  16  16  16  16  16
#     4   9  18  33  51  69  92 125 163 199 237 284
#     4  10  19  31  49  74 102 128 158 199 243 286
#     4   9  16  27  44  67  97 130 161 195 237 286
#     4  10  21  37  55  73  95 126 163 199 238 288
#     4   9  18  31  47  71 100 128 159 198 244 289
#     4   9  16  26  43  68  96 127 161 197 239 286
#
# _framework density 18.079574999999998
#
# number of rings (size 3 to 8) (size 9 to 14) (size 15 to 20)
#    0.000    2.667    0.000    2.000    0.000    7.000 
#    0.000    1.667    0.000    1.000    0.000    2.333 
#    0.000    0.000    0.000    0.000    0.000    0.000 
#
# Total GULP energy -595255.909357 kJ/mol
# GULP energy per Si atom -12401.164778 kJ/mol
# Density = 1.803842 g / cm^3
# Si number density = 18.079575 Si / 1000 Ang^3
#
#
#
# Elastic Constant Matrix: (Units=GPa)
#
#
# Indices 1 2 3 4 5 6 
#
# 1 33.8238 55.6555 36.6625 0.0000 0.0000 0.0000
# 2 55.6555 207.2282 97.2293 0.0000 0.0000 0.0000
# 3 36.6625 97.2293 128.9097 0.0000 0.0000 0.0000
# 4 0.0000 0.0000 0.0000 43.7408 0.0000 0.0000
# 5 0.0000 0.0000 0.0000 0.0000 18.7443 0.0000
# 6 0.0000 0.0000 0.0000 0.0000 0.0000 -6.5263
#
#
#
# Elastic Compliance Matrix: (Units=1/GPa)
#
#
# Indices 1 2 3 4 5 6 
#
# 1 0.057012 -0.011924 -0.007221 0.000000 0.000000 0.000000
# 2 -0.011924 0.009962 -0.004123 0.000000 0.000000 0.000000
# 3 -0.007221 -0.004123 0.012921 0.000000 0.000000 0.000000
# 4 0.000000 0.000000 0.000000 0.022862 0.000000 0.000000
# 5 0.000000 0.000000 0.000000 0.000000 0.053349 0.000000
# 6 0.000000 0.000000 0.000000 0.000000 0.000000 -0.153227
#
#
# Mechanical properties :
#
#
# Convention : Reuss Voigt Hill
#
# Bulk Modulus (GPa) = 29.97619 83.22848 56.60233
# Shear Modulus (GPa) = 82.59659 23.21939 52.90799
#
# Velocity S-wave (km/s) = 6.76640 3.58758 5.41549
# Velocity P-wave (km/s) = 8.81259 7.95585 8.39515
#
# Compressibility (1/GPa) = 0.03335981
#
# Stress axis : x y z
#
# Youngs Moduli (GPa) = 17.54010 100.37736 77.39489
#
# Poissons Ratio (x) = 1.19688 0.55888
# Poissons Ratio (y) = 0.20914 0.31909
# Poissons Ratio (z) = 0.12666 0.41385
#
# Static dielectric constant tensor:
#      x y z
#    x 2.969440 0.000000 0.000000 
#    y 0.000000 3.560250 0.000000 
#    z 0.000000 0.000000 3.528790 
# 
# 
# High freq. dielectric constant tensor:
#      x y z
#    x 1.652540 0.000000 0.000000 
#    y 0.000000 1.717300 0.000000 
#    z 0.000000 0.000000 1.711790 
# 
# From -- ./inp_files/8509.got.cif
#   From: 2010.03.12/outbox.cif.g09.slc.cpg/sg63_5_cif.got.tgz:8509.got - 2010.04.10 19:34:48.
