data_PCOD8257826
_publ_section_title
;
Structure prediction by ZEFSAII (Michael W. Deem and Ramdas Pophale) SiO2 
 PCOD8257826
Probable space group: C M C M
;
_chemical_formula_sum "Si O2"
_cell_formula_units_Z 64
_cell_length_a 18.843845
_cell_length_b 9.501418
_cell_length_c 20.410493
_cell_angle_alpha 90.000000
_cell_angle_beta 90.000000
_cell_angle_gamma 90.000000
_cell_volume 3654.360961
_symmetry_space_group_name_H-M "C M C M"
_symmetry_group_IT_number 63
_symmetry_cell_setting 'orthorhombic'
loop_
_space_group_symop_operation_xyz
x,y,z
-x,-y,1/2+z
x,-y,-z
-x,y,1/2-z
-x,-y,-z
x,y,1/2-z
-x,y,z
x,-y,1/2+z
1/2+x,1/2+y,z
1/2-x,1/2-y,1/2+z
1/2+x,1/2-y,-z
1/2-x,1/2+y,1/2-z
1/2-x,1/2-y,-z
1/2+x,1/2+y,1/2-z
1/2-x,1/2+y,z
1/2+x,1/2-y,1/2+z
loop_
_atom_site_type_symbol
_atom_site_label
_atom_site_fract_x
_atom_site_fract_y
_atom_site_fract_z
Si Si1 0.195459 0.507398 0.322557
Si Si2 0.581603 0.655334 0.973074
Si Si3 0.827346 0.627941 0.549642
Si Si4 0.198131 0.810745 0.125711
O O1 0.165932 0.471125 0.250000
O O2 0.146641 0.438203 0.379929
O O3 0.199959 0.674286 0.329029
O O4 0.275479 0.443469 0.330969
O O5 0.500000 0.693975 0.961961
O O6 0.619617 0.665739 0.902621
O O7 0.592066 0.500000 0.000000
O O8 0.613215 0.765524 0.025039
O O9 0.814893 0.500000 0.500000
O O10 0.751812 0.707220 0.562876
#
# Coordination Sequence:
#
# PCOD8257826 Si02
#       4
#    16  16  16  16
#     4  10  21  33  55  83 108 141 183 223 273 323
#     4  11  21  34  54  84 112 142 180 224 277 330
#     4  10  20  35  55  82 108 139 182 230 274 320
#     4  10  19  34  55  80 114 133 184 225 276 311
#
# _framework density 17.513323
#
# number of rings (size 3 to 8) (size 9 to 14) (size 15 to 20)
#    1.500    0.250    2.500    3.750    0.000    0.500 
#    0.000    0.000    0.000    5.250    0.000    7.000 
#    0.000    0.000    0.000    0.000    0.000    0.000 
#
# Total GULP energy -396493.875168 kJ/mol
# GULP energy per Si atom -12390.433599 kJ/mol
# Density = 1.747346 g / cm^3
# Si number density = 17.513323 Si / 1000 Ang^3
#
#
#
# Elastic Constant Matrix: (Units=GPa)
#
#
# Indices 1 2 3 4 5 6 
#
# 1 79.0926 37.1227 21.0415 0.0000 0.0000 0.0000
# 2 37.1227 72.7384 21.3007 0.0000 0.0000 0.0000
# 3 21.0415 21.3007 111.4569 0.0000 0.0000 0.0000
# 4 0.0000 0.0000 0.0000 19.8663 0.0000 0.0000
# 5 0.0000 0.0000 0.0000 0.0000 2.5595 0.0000
# 6 0.0000 0.0000 0.0000 0.0000 0.0000 21.2822
#
#
#
# Elastic Compliance Matrix: (Units=1/GPa)
#
#
# Indices 1 2 3 4 5 6 
#
# 1 0.016902 -0.008148 -0.001634 0.000000 0.000000 0.000000
# 2 -0.008148 0.018491 -0.001996 0.000000 0.000000 0.000000
# 3 -0.001634 -0.001996 0.009662 0.000000 0.000000 0.000000
# 4 0.000000 0.000000 0.000000 0.050337 0.000000 0.000000
# 5 0.000000 0.000000 0.000000 0.000000 0.390700 0.000000
# 6 0.000000 0.000000 0.000000 0.000000 0.000000 0.046988
#
#
# Mechanical properties :
#
#
# Convention : Reuss Voigt Hill
#
# Bulk Modulus (GPa) = 46.51063 46.91307 46.71185
# Shear Modulus (GPa) = 8.86840 20.99648 14.93244
#
# Velocity S-wave (km/s) = 2.25273 3.46625 2.92316
# Velocity P-wave (km/s) = 5.77766 6.54714 6.17440
#
# Compressibility (1/GPa) = 0.02150046
#
# Stress axis : x y z
#
# Youngs Moduli (GPa) = 59.16368 54.08162 103.49946
#
# Poissons Ratio (x) = 0.44065 0.16909
# Poissons Ratio (y) = 0.48205 0.20654
# Poissons Ratio (z) = 0.09666 0.10792
#
# Static dielectric constant tensor:
#      x y z
#    x 2.944690 0.000000 0.000000 
#    y 0.000000 3.359250 0.000000 
#    z 0.000000 0.000000 3.179330 
# 
# 
# High freq. dielectric constant tensor:
#      x y z
#    x 1.630340 0.000000 0.000000 
#    y 0.000000 1.693260 0.000000 
#    z 0.000000 0.000000 1.674570 
# 
# From -- ./inp_files/55000.got.cif
#   From: 2010.03.12/outbox.cif.g09.slc.cpg/sg63_28_cif.got.tgz:55000.got - 2010.04.10 19:34:48.
