data_PCOD8257508
_publ_section_title
;
Structure prediction by ZEFSAII (Michael W. Deem and Ramdas Pophale) SiO2 
 PCOD8257508
Probable space group: C M C M
;
_chemical_formula_sum "Si O2"
_cell_formula_units_Z 104
_cell_length_a 22.415809
_cell_length_b 28.367386
_cell_length_c 8.771257
_cell_angle_alpha 90.000000
_cell_angle_beta 90.000000
_cell_angle_gamma 90.000000
_cell_volume 5577.448538
_symmetry_space_group_name_H-M "C M C M"
_symmetry_group_IT_number 63
_symmetry_cell_setting 'orthorhombic'
loop_
_space_group_symop_operation_xyz
x,y,z
-x,-y,1/2+z
x,-y,-z
-x,y,1/2-z
-x,-y,-z
x,y,1/2-z
-x,y,z
x,-y,1/2+z
1/2+x,1/2+y,z
1/2-x,1/2-y,1/2+z
1/2+x,1/2-y,-z
1/2-x,1/2+y,1/2-z
1/2-x,1/2-y,-z
1/2+x,1/2+y,1/2-z
1/2-x,1/2+y,z
1/2+x,1/2-y,1/2+z
loop_
_atom_site_type_symbol
_atom_site_label
_atom_site_fract_x
_atom_site_fract_y
_atom_site_fract_z
Si Si1 0.176113 0.804783 0.429700
Si Si2 0.312473 0.210138 0.927424
Si Si3 0.565669 0.045572 0.425816
Si Si4 0.385034 0.603940 0.429254
Si Si5 0.733617 0.449965 0.573013
Si Si6 0.835821 0.618587 0.072683
Si Si7 0.000000 0.053345 0.567643
O O1 0.168691 0.811691 0.250000
O O2 0.245356 0.803753 0.482569
O O3 0.155232 0.752910 0.482781
O O4 0.136554 0.844973 0.510878
O O5 0.313796 0.222258 0.750000
O O6 0.349187 0.164127 0.970971
O O7 0.561373 0.034540 0.250000
O O8 0.500000 0.054060 0.496666
O O9 0.604277 0.090815 0.458602
O O10 0.596716 0.000000 0.500000
O O11 0.398842 0.608399 0.250000
O O12 0.333362 0.566225 0.462634
O O13 0.442848 0.583696 0.514918
O O14 0.746311 0.500000 0.500000
O O15 0.746238 0.455869 0.750000
O O16 0.779140 0.410775 0.508721
O O17 0.826181 0.631763 0.250000
O O18 0.000000 0.048998 0.750000
O O19 0.000000 0.000000 0.500000
#
# Coordination Sequence:
#
# PCOD8257508 Si02
#       7
#    16  16  16  16  16  16   8
#     4  10  20  35  57  84 113 146 181 228 281 340
#     4  10  20  33  54  84 114 145 183 227 279 339
#     4   9  18  32  51  74 103 142 184 223 265 317
#     4  11  22  39  61  85 114 150 191 238 290 344
#     4  10  21  33  50  77 110 144 178 223 278 334
#     4  10  19  33  51  76 109 144 181 227 280 332
#     4  12  26  44  64  88 118 156 202 244 293 352
#
# _framework density 18.646519000000001
#
# number of rings (size 3 to 8) (size 9 to 14) (size 15 to 20)
#    0.000    1.846    1.538    3.000    0.000    4.923 
#    0.000    0.000    1.692    0.000    0.000    0.000 
#    0.000    0.000    0.000    0.000    0.000    0.000 
#
# Total GULP energy -644602.520260 kJ/mol
# GULP energy per Si atom -12396.202313 kJ/mol
# Density = 1.860408 g / cm^3
# Si number density = 18.646519 Si / 1000 Ang^3
#
#
#
# Elastic Constant Matrix: (Units=GPa)
#
#
# Indices 1 2 3 4 5 6 
#
# 1 66.0445 37.6183 38.6360 0.0000 0.0000 0.0000
# 2 37.6183 143.3433 49.5386 0.0000 0.0000 0.0000
# 3 38.6360 49.5386 66.3160 0.0000 0.0000 0.0000
# 4 0.0000 0.0000 0.0000 39.4006 0.0000 0.0000
# 5 0.0000 0.0000 0.0000 0.0000 14.9323 0.0000
# 6 0.0000 0.0000 0.0000 0.0000 0.0000 27.7599
#
#
#
# Elastic Compliance Matrix: (Units=1/GPa)
#
#
# Indices 1 2 3 4 5 6 
#
# 1 0.023357 -0.001923 -0.012171 0.000000 0.000000 0.000000
# 2 -0.001923 0.009562 -0.006023 0.000000 0.000000 0.000000
# 3 -0.012171 -0.006023 0.026669 0.000000 0.000000 0.000000
# 4 0.000000 0.000000 0.000000 0.025380 0.000000 0.000000
# 5 0.000000 0.000000 0.000000 0.000000 0.066969 0.000000
# 6 0.000000 0.000000 0.000000 0.000000 0.000000 0.036023
#
#
# Mechanical properties :
#
#
# Convention : Reuss Voigt Hill
#
# Bulk Modulus (GPa) = 51.66794 58.58773 55.12784
# Shear Modulus (GPa) = 21.30864 26.41262 23.86063
#
# Velocity S-wave (km/s) = 3.38415 3.76771 3.58107
# Velocity P-wave (km/s) = 6.56043 7.10042 6.83576
#
# Compressibility (1/GPa) = 0.01935436
#
# Stress axis : x y z
#
# Youngs Moduli (GPa) = 42.81388 104.57613 37.49649
#
# Poissons Ratio (x) = 0.20114 0.45637
# Poissons Ratio (y) = 0.08235 0.22583
# Poissons Ratio (z) = 0.52109 0.62982
#
# Static dielectric constant tensor:
#      x y z
#    x 4.971490 0.000000 0.000000 
#    y 0.000000 3.534990 0.000000 
#    z 0.000000 0.000000 3.387180 
# 
# 
# High freq. dielectric constant tensor:
#      x y z
#    x 1.705170 0.000000 0.000000 
#    y 0.000000 1.736260 0.000000 
#    z 0.000000 0.000000 1.725200 
# 
# From -- ./inp_files/10861.got.cif
#   From: 2010.03.12/outbox.cif.g09.slc.cpg/sg63_6_cif.got.tgz:10861.got - 2010.04.10 19:34:48.
