data_PCOD8257330
_publ_section_title
;
Structure prediction by ZEFSAII (Michael W. Deem and Ramdas Pophale) SiO2 
 PCOD8257330
Probable space group: C M C M
;
_chemical_formula_sum "Si O2"
_cell_formula_units_Z 80
_cell_length_a 9.041947
_cell_length_b 18.001402
_cell_length_c 25.999173
_cell_angle_alpha 90.000000
_cell_angle_beta 90.000000
_cell_angle_gamma 90.000000
_cell_volume 4231.826184
_symmetry_space_group_name_H-M "C M C M"
_symmetry_group_IT_number 63
_symmetry_cell_setting 'orthorhombic'
loop_
_space_group_symop_operation_xyz
x,y,z
-x,-y,1/2+z
x,-y,-z
-x,y,1/2-z
-x,-y,-z
x,y,1/2-z
-x,y,z
x,-y,1/2+z
1/2+x,1/2+y,z
1/2-x,1/2-y,1/2+z
1/2+x,1/2-y,-z
1/2-x,1/2+y,1/2-z
1/2-x,1/2-y,-z
1/2+x,1/2+y,1/2-z
1/2-x,1/2+y,z
1/2+x,1/2-y,1/2+z
loop_
_atom_site_type_symbol
_atom_site_label
_atom_site_fract_x
_atom_site_fract_y
_atom_site_fract_z
Si Si1 0.675562 0.707910 0.250000
Si Si2 0.174193 0.703624 0.650180
Si Si3 0.324095 0.458846 0.750000
Si Si4 0.175894 0.958104 0.550150
Si Si5 0.825786 0.209944 0.452748
Si Si6 0.175875 0.045273 0.850229
O O1 0.500000 0.703272 0.250000
O O2 0.731718 0.750611 0.300565
O O3 0.741336 0.624552 0.250000
O O4 0.218104 0.749579 0.599798
O O5 0.257333 0.626425 0.648764
O O6 0.000000 0.689147 0.653365
O O7 0.500000 0.455511 0.750000
O O8 0.266167 0.502027 0.699921
O O9 0.234956 0.874004 0.550459
O O10 0.000000 0.958292 0.550153
O O11 0.238623 0.000000 0.500000
O O12 0.235000 0.000345 0.600441
O O13 0.750000 0.250000 0.500000
O O14 0.000000 0.211013 0.462020
O O15 0.000000 0.051962 0.850485
#
# Coordination Sequence:
#
# PCOD8257330 Si02
#       6
#     8  16   8  16  16  16
#     4   9  17  32  53  75 102 135 168 204 248 297
#     4  10  20  33  51  75 103 134 165 200 247 303
#     4   9  17  30  51  77  98 123 166 210 242 281
#     4   9  17  30  49  71  94 124 162 200 238 283
#     4  10  20  34  52  75 101 130 167 207 249 298
#     4  10  19  32  52  75  99 128 164 207 247 286
#
# _framework density 18.904367000000001
#
# number of rings (size 3 to 8) (size 9 to 14) (size 15 to 20)
#    0.000    2.400    0.000    3.000    0.000    7.200 
#    0.000    1.000    0.000    8.400    0.000    0.000 
#    0.000    0.000    0.000    0.000    0.000    0.000 
#
# Total GULP energy -496066.345269 kJ/mol
# GULP energy per Si atom -12401.658632 kJ/mol
# Density = 1.886134 g / cm^3
# Si number density = 18.904367 Si / 1000 Ang^3
#
#
#
# Elastic Constant Matrix: (Units=GPa)
#
#
# Indices 1 2 3 4 5 6 
#
# 1 15.8365 32.6988 30.8271 0.0000 0.0000 0.0000
# 2 32.6988 217.6791 118.7273 0.0000 0.0000 0.0000
# 3 30.8271 118.7273 214.7165 0.0000 0.0000 0.0000
# 4 0.0000 0.0000 0.0000 45.0435 0.0000 0.0000
# 5 0.0000 0.0000 0.0000 0.0000 16.1944 0.0000
# 6 0.0000 0.0000 0.0000 0.0000 0.0000 30.7190
#
#
#
# Elastic Compliance Matrix: (Units=1/GPa)
#
#
# Indices 1 2 3 4 5 6 
#
# 1 0.102051 -0.010507 -0.008842 0.000000 0.000000 0.000000
# 2 -0.010507 0.007660 -0.002727 0.000000 0.000000 0.000000
# 3 -0.008842 -0.002727 0.007434 0.000000 0.000000 0.000000
# 4 0.000000 0.000000 0.000000 0.022201 0.000000 0.000000
# 5 0.000000 0.000000 0.000000 0.000000 0.061750 0.000000
# 6 0.000000 0.000000 0.000000 0.000000 0.000000 0.032553
#
#
# Mechanical properties :
#
#
# Convention : Reuss Voigt Hill
#
# Bulk Modulus (GPa) = 13.69976 90.30427 52.00201
# Shear Modulus (GPa) = 16.54907 36.12331 26.33619
#
# Velocity S-wave (km/s) = 2.96194 4.37606 3.73651
# Velocity P-wave (km/s) = 4.35432 8.56773 6.79581
#
# Compressibility (1/GPa) = 0.07299400
#
# Stress axis : x y z
#
# Youngs Moduli (GPa) = 9.79898 130.55637 134.50837
#
# Poissons Ratio (x) = 1.37179 1.18928
# Poissons Ratio (y) = 0.10296 0.36678
# Poissons Ratio (z) = 0.08664 0.35600
#
# Static dielectric constant tensor:
#      x y z
#    x 2.946780 0.000000 0.000000 
#    y 0.000000 3.690660 0.000000 
#    z 0.000000 0.000000 3.823430 
# 
# 
# High freq. dielectric constant tensor:
#      x y z
#    x 1.679180 0.000000 0.000000 
#    y 0.000000 1.755500 0.000000 
#    z 0.000000 0.000000 1.757630 
# 
# From -- ./inp_files/61397.got.cif
#   From: 2010.03.12/outbox.cif.g09.slc.cpg/sg63_31_cif.got.tgz:61397.got - 2010.04.10 19:34:48.
