data_PCOD8257795
_publ_section_title
;
Structure prediction by ZEFSAII (Michael W. Deem and Ramdas Pophale) SiO2 
 PCOD8257795
Probable space group: C M C M
;
_chemical_formula_sum "Si O2"
_cell_formula_units_Z 96
_cell_length_a 8.364624
_cell_length_b 25.031354
_cell_length_c 24.000077
_cell_angle_alpha 90.000000
_cell_angle_beta 90.000000
_cell_angle_gamma 90.000000
_cell_volume 5025.084868
_symmetry_space_group_name_H-M "C M C M"
_symmetry_group_IT_number 63
_symmetry_cell_setting 'orthorhombic'
loop_
_space_group_symop_operation_xyz
x,y,z
-x,-y,1/2+z
x,-y,-z
-x,y,1/2-z
-x,-y,-z
x,y,1/2-z
-x,y,z
x,-y,1/2+z
1/2+x,1/2+y,z
1/2-x,1/2-y,1/2+z
1/2+x,1/2-y,-z
1/2-x,1/2+y,1/2-z
1/2-x,1/2-y,-z
1/2+x,1/2+y,1/2-z
1/2-x,1/2+y,z
1/2+x,1/2-y,1/2+z
loop_
_atom_site_type_symbol
_atom_site_label
_atom_site_fract_x
_atom_site_fract_y
_atom_site_fract_z
Si Si1 0.686633 0.734477 0.633519
Si Si2 0.308399 0.226515 0.250000
Si Si3 0.688463 0.106063 0.250000
Si Si4 0.314401 0.331671 0.566008
Si Si5 0.313147 0.070131 0.130791
Si Si6 0.309623 0.642393 0.556504
Si Si7 0.689095 0.521964 0.939629
O O1 0.500000 0.725371 0.639461
O O2 0.759401 0.743110 0.695304
O O3 0.713297 0.786588 0.596457
O O4 0.760751 0.681727 0.604252
O O5 0.500000 0.225370 0.250000
O O6 0.240088 0.166125 0.250000
O O7 0.500000 0.111053 0.250000
O O8 0.744962 0.074297 0.304999
O O9 0.500000 0.316353 0.568477
O O10 0.288911 0.388688 0.594574
O O11 0.250080 0.335571 0.502929
O O12 0.500000 0.083792 0.125282
O O13 0.276657 0.010961 0.108831
O O14 0.500000 0.641752 0.556023
O O15 0.247270 0.582471 0.566690
O O16 0.500000 0.517524 0.931449
O O17 0.740114 0.500000 0.000000
#
# Coordination Sequence:
#
# PCOD8257795 Si02
#       7
#    16   8   8  16  16  16  16
#     4  10  19  34  54  77 103 136 179 217 254 311
#     4   9  16  30  53  76 100 134 172 216 261 304
#     4   9  18  34  53  76 106 136 170 220 275 306
#     4  11  20  33  52  79 111 140 167 211 274 320
#     4  11  21  35  56  81 105 136 182 224 258 311
#     4   9  19  34  53  76 107 144 173 207 264 319
#     4  10  19  36  56  76 110 145 171 213 272 320
#
# _framework density 19.104154999999999
#
# number of rings (size 3 to 8) (size 9 to 14) (size 15 to 20)
#    0.000    2.000    3.333    1.500    0.000    0.333 
#    0.000    5.417    0.000    2.000    0.000    0.000 
#    0.000    0.000    0.000    0.000    0.000    0.000 
#
# Total GULP energy -595182.624258 kJ/mol
# GULP energy per Si atom -12399.638005 kJ/mol
# Density = 1.906067 g / cm^3
# Si number density = 19.104155 Si / 1000 Ang^3
#
#
#
# Elastic Constant Matrix: (Units=GPa)
#
#
# Indices 1 2 3 4 5 6 
#
# 1 14.3766 -0.7199 13.5452 0.0000 0.0000 0.0000
# 2 -0.7199 138.3984 92.3253 0.0000 0.0000 0.0000
# 3 13.5452 92.3253 186.1273 0.0000 0.0000 0.0000
# 4 0.0000 0.0000 0.0000 39.9188 0.0000 0.0000
# 5 0.0000 0.0000 0.0000 0.0000 19.3644 0.0000
# 6 0.0000 0.0000 0.0000 0.0000 0.0000 18.6840
#
#
#
# Elastic Compliance Matrix: (Units=1/GPa)
#
#
# Indices 1 2 3 4 5 6 
#
# 1 0.078166 0.006279 -0.008803 0.000000 0.000000 0.000000
# 2 0.006279 0.011303 -0.006064 0.000000 0.000000 0.000000
# 3 -0.008803 -0.006064 0.009021 0.000000 0.000000 0.000000
# 4 0.000000 0.000000 0.000000 0.025051 0.000000 0.000000
# 5 0.000000 0.000000 0.000000 0.000000 0.051641 0.000000
# 6 0.000000 0.000000 0.000000 0.000000 0.000000 0.053522
#
#
# Mechanical properties :
#
#
# Convention : Reuss Voigt Hill
#
# Bulk Modulus (GPa) = 12.29791 61.02263 36.66027
# Shear Modulus (GPa) = 18.31608 31.17689 24.74648
#
# Velocity S-wave (km/s) = 3.09973 4.04411 3.60300
# Velocity P-wave (km/s) = 4.38889 7.33607 6.04484
#
# Compressibility (1/GPa) = 0.08131464
#
# Stress axis : x y z
#
# Youngs Moduli (GPa) = 12.79334 88.46972 110.85088
#
# Poissons Ratio (x) = -0.55551 0.97583
# Poissons Ratio (y) = -0.08033 0.67217
# Poissons Ratio (z) = 0.11262 0.53646
#
# Static dielectric constant tensor:
#      x y z
#    x 3.072540 0.000000 0.000000 
#    y 0.000000 3.651260 0.000000 
#    z 0.000000 0.000000 3.857560 
# 
# 
# High freq. dielectric constant tensor:
#      x y z
#    x 1.707530 0.000000 0.000000 
#    y 0.000000 1.741210 0.000000 
#    z 0.000000 0.000000 1.749070 
# 
# From -- ./inp_files/59983.got.cif
#   From: 2010.03.12/outbox.cif.g09.slc.cpg/sg63_30_cif.got.tgz:59983.got - 2010.04.10 19:34:48.
