data_PCOD8257526
_publ_section_title
;
Structure prediction by ZEFSAII (Michael W. Deem and Ramdas Pophale) SiO2 
 PCOD8257526
Probable space group: C M C M
;
_chemical_formula_sum "Si O2"
_cell_formula_units_Z 96
_cell_length_a 9.454766
_cell_length_b 20.620485
_cell_length_c 28.154147
_cell_angle_alpha 90.000000
_cell_angle_beta 90.000000
_cell_angle_gamma 90.000000
_cell_volume 5488.984879
_symmetry_space_group_name_H-M "C M C M"
_symmetry_group_IT_number 63
_symmetry_cell_setting 'orthorhombic'
loop_
_space_group_symop_operation_xyz
x,y,z
-x,-y,1/2+z
x,-y,-z
-x,y,1/2-z
-x,-y,-z
x,y,1/2-z
-x,y,z
x,-y,1/2+z
1/2+x,1/2+y,z
1/2-x,1/2-y,1/2+z
1/2+x,1/2-y,-z
1/2-x,1/2+y,1/2-z
1/2-x,1/2-y,-z
1/2+x,1/2+y,1/2-z
1/2-x,1/2+y,z
1/2+x,1/2-y,1/2+z
loop_
_atom_site_type_symbol
_atom_site_label
_atom_site_fract_x
_atom_site_fract_y
_atom_site_fract_z
Si Si1 0.168396 0.249533 0.196938
Si Si2 0.837523 0.675926 0.544830
Si Si3 0.664654 0.325216 0.954131
Si Si4 0.334615 0.878233 0.354696
Si Si5 0.332578 0.492824 0.305464
Si Si6 0.832305 0.876113 0.645142
O O1 0.227583 0.253692 0.250000
O O2 0.221124 0.312600 0.169320
O O3 0.232715 0.185098 0.173135
O O4 0.000000 0.246525 0.195728
O O5 0.746360 0.650625 0.500664
O O6 0.799517 0.750278 0.558126
O O7 0.806020 0.628862 0.589131
O O8 0.000000 0.671580 0.529646
O O9 0.500000 0.334015 0.964484
O O10 0.713546 0.370195 0.910026
O O11 0.500000 0.890226 0.344131
O O12 0.244490 0.935760 0.332980
O O13 0.290120 0.493619 0.250000
O O14 0.500000 0.484575 0.311508
O O15 0.276626 0.558471 0.330395
O O16 0.000000 0.873208 0.649006
#
# Coordination Sequence:
#
# PCOD8257526 Si02
#       6
#    16  16  16  16  16  16
#     4   9  15  25  47  75  96 119 162 213 249 283
#     4   9  17  30  49  75 104 129 160 205 254 298
#     4   9  16  29  51  76 100 126 162 207 252 297
#     4  10  19  33  52  75 101 132 169 207 247 296
#     4  10  21  35  51  73 103 136 166 202 252 303
#     4   9  16  30  50  73  99 128 165 208 249 291
#
# _framework density 17.489571999999999
#
# number of rings (size 3 to 8) (size 9 to 14) (size 15 to 20)
#    0.000    2.667    1.667    1.000    0.000    3.667 
#    0.000    1.667    0.000    6.000    0.000    0.000 
#    0.000    0.000    0.000    0.000    0.000    0.000 
#
# Total GULP energy -595091.087563 kJ/mol
# GULP energy per Si atom -12397.730991 kJ/mol
# Density = 1.744976 g / cm^3
# Si number density = 17.489572 Si / 1000 Ang^3
#
#
#
# Elastic Constant Matrix: (Units=GPa)
#
#
# Indices 1 2 3 4 5 6 
#
# 1 31.7307 32.8173 44.2340 0.0000 0.0000 0.0000
# 2 32.8173 125.8060 73.2507 0.0000 0.0000 0.0000
# 3 44.2340 73.2507 150.6562 0.0000 0.0000 0.0000
# 4 0.0000 0.0000 0.0000 33.0597 0.0000 0.0000
# 5 0.0000 0.0000 0.0000 0.0000 25.7147 0.0000
# 6 0.0000 0.0000 0.0000 0.0000 0.0000 23.6718
#
#
#
# Elastic Compliance Matrix: (Units=1/GPa)
#
#
# Indices 1 2 3 4 5 6 
#
# 1 0.057721 -0.007238 -0.013428 0.000000 0.000000 0.000000
# 2 -0.007238 0.011995 -0.003707 0.000000 0.000000 0.000000
# 3 -0.013428 -0.003707 0.012383 0.000000 0.000000 0.000000
# 4 0.000000 0.000000 0.000000 0.030248 0.000000 0.000000
# 5 0.000000 0.000000 0.000000 0.000000 0.038888 0.000000
# 6 0.000000 0.000000 0.000000 0.000000 0.000000 0.042244
#
#
# Mechanical properties :
#
#
# Convention : Reuss Voigt Hill
#
# Bulk Modulus (GPa) = 29.98330 67.64410 48.81370
# Shear Modulus (GPa) = 19.73607 27.01531 23.37569
#
# Velocity S-wave (km/s) = 3.36288 3.93447 3.65985
# Velocity P-wave (km/s) = 5.67973 7.70720 6.76979
#
# Compressibility (1/GPa) = 0.03335190
#
# Stress axis : x y z
#
# Youngs Moduli (GPa) = 17.32485 83.36589 80.75863
#
# Poissons Ratio (x) = 0.60343 1.08442
# Poissons Ratio (y) = 0.12540 0.29937
# Poissons Ratio (z) = 0.23264 0.30904
#
# Static dielectric constant tensor:
#      x y z
#    x 2.865090 0.000000 0.000000 
#    y 0.000000 3.265580 0.000000 
#    z 0.000000 0.000000 3.454240 
# 
# 
# High freq. dielectric constant tensor:
#      x y z
#    x 1.632950 0.000000 0.000000 
#    y 0.000000 1.665570 0.000000 
#    z 0.000000 0.000000 1.693050 
# 
# From -- ./inp_files/66875.got.cif
#   From: 2010.03.12/outbox.cif.g09.slc.cpg/sg63_34_cif.got.tgz:66875.got - 2010.04.10 19:34:48.
