data_PCOD8257118
_publ_section_title
;
Structure prediction by ZEFSAII (Michael W. Deem and Ramdas Pophale) SiO2 
 PCOD8257118
Probable space group: C M C M
;
_chemical_formula_sum "Si O2"
_cell_formula_units_Z 72
_cell_length_a 25.354546
_cell_length_b 17.409850
_cell_length_c 8.809839
_cell_angle_alpha 90.000000
_cell_angle_beta 90.000000
_cell_angle_gamma 90.000000
_cell_volume 3888.828936
_symmetry_space_group_name_H-M "C M C M"
_symmetry_group_IT_number 63
_symmetry_cell_setting 'orthorhombic'
loop_
_space_group_symop_operation_xyz
x,y,z
-x,-y,1/2+z
x,-y,-z
-x,y,1/2-z
-x,-y,-z
x,y,1/2-z
-x,y,z
x,-y,1/2+z
1/2+x,1/2+y,z
1/2-x,1/2-y,1/2+z
1/2+x,1/2-y,-z
1/2-x,1/2+y,1/2-z
1/2-x,1/2-y,-z
1/2+x,1/2+y,1/2-z
1/2-x,1/2+y,z
1/2+x,1/2-y,1/2+z
loop_
_atom_site_type_symbol
_atom_site_label
_atom_site_fract_x
_atom_site_fract_y
_atom_site_fract_z
Si Si1 0.305903 0.762293 0.572931
Si Si2 0.349964 0.925412 0.927932
Si Si3 0.500000 0.585130 0.068316
Si Si4 0.558604 0.852519 0.420516
Si Si5 0.915203 0.803589 0.069973
O O1 0.298848 0.754749 0.750000
O O2 0.250000 0.750000 0.500000
O O3 0.319792 0.848642 0.524829
O O4 0.352629 0.702634 0.522733
O O5 0.354668 0.935650 0.750000
O O6 0.407560 0.919638 0.002787
O O7 0.321133 0.000000 0.000000
O O8 0.500000 0.581949 0.250000
O O9 0.500000 0.500000 0.000000
O O10 0.446301 0.627612 0.013568
O O11 0.578931 0.833261 0.250000
O O12 0.500000 0.885291 0.414381
O O13 0.558666 0.776237 0.523011
O O14 0.921180 0.815131 0.250000
#
# Coordination Sequence:
#
# PCOD8257118 Si02
#       5
#    16  16   8  16  16
#     4   9  20  37  59  85 110 144 189 234 283 339
#     4  10  21  36  53  77 108 142 180 223 277 327
#     4  12  24  38  58  86 117 154 195 242 300 354
#     4  10  19  31  51  79 108 143 184 218 261 320
#     4  10  20  36  57  82 114 149 187 233 283 338
#
# _framework density 18.514569999999999
#
# number of rings (size 3 to 8) (size 9 to 14) (size 15 to 20)
#    0.000    2.000    1.111    4.333    0.000    7.111 
#    0.000    1.111    0.000    2.667    0.000    0.000 
#    0.000    0.000    0.000    0.000    0.000    0.000 
#
# Total GULP energy -446130.002708 kJ/mol
# GULP energy per Si atom -12392.500075 kJ/mol
# Density = 1.847243 g / cm^3
# Si number density = 18.514570 Si / 1000 Ang^3
#
#
#
# Elastic Constant Matrix: (Units=GPa)
#
#
# Indices 1 2 3 4 5 6 
#
# 1 139.5504 61.7416 47.2532 0.0000 0.0000 0.0000
# 2 61.7416 116.4628 53.2086 0.0000 0.0000 0.0000
# 3 47.2532 53.2086 82.3076 0.0000 0.0000 0.0000
# 4 0.0000 0.0000 0.0000 34.8691 0.0000 0.0000
# 5 0.0000 0.0000 0.0000 0.0000 33.5247 0.0000
# 6 0.0000 0.0000 0.0000 0.0000 0.0000 17.7287
#
#
#
# Elastic Compliance Matrix: (Units=1/GPa)
#
#
# Indices 1 2 3 4 5 6 
#
# 1 0.009944 -0.003780 -0.003265 0.000000 0.000000 0.000000
# 2 -0.003780 0.013622 -0.006636 0.000000 0.000000 0.000000
# 3 -0.003265 -0.006636 0.018314 0.000000 0.000000 0.000000
# 4 0.000000 0.000000 0.000000 0.028679 0.000000 0.000000
# 5 0.000000 0.000000 0.000000 0.000000 0.029829 0.000000
# 6 0.000000 0.000000 0.000000 0.000000 0.000000 0.056406
#
#
# Mechanical properties :
#
#
# Convention : Reuss Voigt Hill
#
# Bulk Modulus (GPa) = 68.88186 73.63638 71.25912
# Shear Modulus (GPa) = 26.45569 28.96565 27.71067
#
# Velocity S-wave (km/s) = 3.78420 3.95964 3.87291
# Velocity P-wave (km/s) = 7.50856 7.79509 7.65317
#
# Compressibility (1/GPa) = 0.01451761
#
# Stress axis : x y z
#
# Youngs Moduli (GPa) = 100.56474 73.40989 54.60240
#
# Poissons Ratio (x) = 0.27747 0.17829
# Poissons Ratio (y) = 0.38011 0.36235
# Poissons Ratio (z) = 0.32838 0.48716
#
# Static dielectric constant tensor:
#      x y z
#    x 3.432570 0.000000 0.000000 
#    y 0.000000 3.362840 0.000000 
#    z 0.000000 0.000000 3.551820 
# 
# 
# High freq. dielectric constant tensor:
#      x y z
#    x 1.710210 0.000000 0.000000 
#    y 0.000000 1.705280 0.000000 
#    z 0.000000 0.000000 1.733390 
# 
# From -- ./inp_files/11713.got.cif
#   From: 2010.03.12/outbox.cif.g09.slc.cpg/sg63_6_cif.got.tgz:11713.got - 2010.04.10 19:34:48.
