data_PCOD8257247
_publ_section_title
;
Structure prediction by ZEFSAII (Michael W. Deem and Ramdas Pophale) SiO2 
 PCOD8257247
Probable space group: C M C M
;
_chemical_formula_sum "Si O2"
_cell_formula_units_Z 80
_cell_length_a 18.317940
_cell_length_b 9.486620
_cell_length_c 24.312274
_cell_angle_alpha 90.000000
_cell_angle_beta 90.000000
_cell_angle_gamma 90.000000
_cell_volume 4224.873582
_symmetry_space_group_name_H-M "C M C M"
_symmetry_group_IT_number 63
_symmetry_cell_setting 'orthorhombic'
loop_
_space_group_symop_operation_xyz
x,y,z
-x,-y,1/2+z
x,-y,-z
-x,y,1/2-z
-x,-y,-z
x,y,1/2-z
-x,y,z
x,-y,1/2+z
1/2+x,1/2+y,z
1/2-x,1/2-y,1/2+z
1/2+x,1/2-y,-z
1/2-x,1/2+y,1/2-z
1/2-x,1/2-y,-z
1/2+x,1/2+y,1/2-z
1/2-x,1/2+y,z
1/2+x,1/2-y,1/2+z
loop_
_atom_site_type_symbol
_atom_site_label
_atom_site_fract_x
_atom_site_fract_y
_atom_site_fract_z
Si Si1 0.797374 0.132324 0.630274
Si Si2 0.579757 0.559630 0.557149
Si Si3 0.419556 0.735762 0.103792
Si Si4 0.803295 0.163332 0.185587
Si Si5 0.301867 0.859693 0.032202
O O1 0.867820 0.166700 0.590901
O O2 0.774021 0.271423 0.664310
O O3 0.734573 0.087622 0.588238
O O4 0.808317 0.001663 0.671448
O O5 0.614731 0.500000 0.500000
O O6 0.500000 0.629729 0.545110
O O7 0.569274 0.430082 0.597999
O O8 0.500000 0.807328 0.111136
O O9 0.368838 0.754122 0.157812
O O10 0.379539 0.789886 0.048169
O O11 0.809984 0.184546 0.250000
O O12 0.250000 0.750000 0.000000
O O13 0.320154 0.000000 0.000000
#
# Coordination Sequence:
#
# PCOD8257247 Si02
#       5
#    16  16  16  16  16
#     4  10  19  32  50  75 101 127 168 210 247 300
#     4   9  16  28  48  73 103 134 159 192 244 302
#     4   9  19  32  47  72 101 128 165 207 245 296
#     4  10  20  34  53  72  94 129 171 218 263 297
#     4  11  20  32  52  77 106 139 168 201 251 309
#
# _framework density 18.935476999999999
#
# number of rings (size 3 to 8) (size 9 to 14) (size 15 to 20)
#    0.000    2.200    0.000    6.000    0.000    0.800 
#    0.000    0.000    0.000   11.400    0.000    0.000 
#    0.000    0.000    0.000    0.000    0.000    0.000 
#
# Total GULP energy -495540.507614 kJ/mol
# GULP energy per Si atom -12388.512690 kJ/mol
# Density = 1.889238 g / cm^3
# Si number density = 18.935477 Si / 1000 Ang^3
#
#
#
# Elastic Constant Matrix: (Units=GPa)
#
#
# Indices 1 2 3 4 5 6 
#
# 1 110.4312 17.9370 39.0084 0.0000 0.0000 0.0000
# 2 17.9370 40.4580 13.0725 0.0000 0.0000 0.0000
# 3 39.0084 13.0725 112.4314 0.0000 0.0000 0.0000
# 4 0.0000 0.0000 0.0000 28.7740 0.0000 0.0000
# 5 0.0000 0.0000 0.0000 0.0000 22.4866 0.0000
# 6 0.0000 0.0000 0.0000 0.0000 0.0000 19.9441
#
#
#
# Elastic Compliance Matrix: (Units=1/GPa)
#
#
# Indices 1 2 3 4 5 6 
#
# 1 0.010836 -0.003729 -0.003326 0.000000 0.000000 0.000000
# 2 -0.003729 0.026965 -0.001841 0.000000 0.000000 0.000000
# 3 -0.003326 -0.001841 0.010262 0.000000 0.000000 0.000000
# 4 0.000000 0.000000 0.000000 0.034754 0.000000 0.000000
# 5 0.000000 0.000000 0.000000 0.000000 0.044471 0.000000
# 6 0.000000 0.000000 0.000000 0.000000 0.000000 0.050140
#
#
# Mechanical properties :
#
#
# Convention : Reuss Voigt Hill
#
# Bulk Modulus (GPa) = 33.03575 44.81737 38.92656
# Shear Modulus (GPa) = 24.35318 27.12779 25.74049
#
# Velocity S-wave (km/s) = 3.59013 3.78913 3.69098
# Velocity P-wave (km/s) = 5.88810 6.54700 6.22627
#
# Compressibility (1/GPa) = 0.03027024
#
# Stress axis : x y z
#
# Youngs Moduli (GPa) = 92.28473 37.08457 97.44347
#
# Poissons Ratio (x) = 0.13831 0.32409
# Poissons Ratio (y) = 0.34417 0.17943
# Poissons Ratio (z) = 0.30694 0.06829
#
# Static dielectric constant tensor:
#      x y z
#    x 4.054440 0.000000 0.000000 
#    y 0.000000 3.240010 0.000000 
#    z 0.000000 0.000000 3.421470 
# 
# 
# High freq. dielectric constant tensor:
#      x y z
#    x 1.735750 0.000000 0.000000 
#    y 0.000000 1.701760 0.000000 
#    z 0.000000 0.000000 1.730590 
# 
# From -- ./inp_files/69743.got.cif
#   From: 2010.03.12/outbox.cif.g09.slc.cpg/sg63_35_cif.got.tgz:69743.got - 2010.04.10 19:34:48.
