data_PCOD8257650
_publ_section_title
;
Structure prediction by ZEFSAII (Michael W. Deem and Ramdas Pophale) SiO2 
 PCOD8257650
Probable space group: C M C M
;
_chemical_formula_sum "Si O2"
_cell_formula_units_Z 104
_cell_length_a 27.763409
_cell_length_b 22.862517
_cell_length_c 8.722949
_cell_angle_alpha 90.000000
_cell_angle_beta 90.000000
_cell_angle_gamma 90.000000
_cell_volume 5536.816950
_symmetry_space_group_name_H-M "C M C M"
_symmetry_group_IT_number 63
_symmetry_cell_setting 'orthorhombic'
loop_
_space_group_symop_operation_xyz
x,y,z
-x,-y,1/2+z
x,-y,-z
-x,y,1/2-z
-x,-y,-z
x,y,1/2-z
-x,y,z
x,-y,1/2+z
1/2+x,1/2+y,z
1/2-x,1/2-y,1/2+z
1/2+x,1/2-y,-z
1/2-x,1/2+y,1/2-z
1/2-x,1/2-y,-z
1/2+x,1/2+y,1/2-z
1/2-x,1/2+y,z
1/2+x,1/2-y,1/2+z
loop_
_atom_site_type_symbol
_atom_site_label
_atom_site_fract_x
_atom_site_fract_y
_atom_site_fract_z
Si Si1 0.680749 0.142739 0.426846
Si Si2 0.351829 0.628575 0.930843
Si Si3 0.268630 0.560293 0.070607
Si Si4 0.500000 0.938433 0.076166
Si Si5 0.602769 0.063999 0.930183
Si Si6 0.697427 0.258666 0.928905
Si Si7 0.554085 0.562448 0.930375
O O1 0.677806 0.161685 0.250000
O O2 0.732339 0.113639 0.462976
O O3 0.640236 0.096792 0.465145
O O4 0.670299 0.198327 0.534550
O O5 0.346527 0.634776 0.750000
O O6 0.406845 0.612053 0.979106
O O7 0.318770 0.575537 0.989627
O O8 0.334789 0.689111 0.005145
O O9 0.276517 0.551347 0.250000
O O10 0.248120 0.500000 0.000000
O O11 0.500000 0.957020 0.250000
O O12 0.550259 0.904688 0.041627
O O13 0.500000 0.000000 0.000000
O O14 0.617193 0.063584 0.750000
O O15 0.600893 0.000000 0.000000
O O16 0.703373 0.269998 0.750000
O O17 0.750000 0.250000 0.000000
O O18 0.555670 0.554136 0.750000
O O19 0.500000 0.581530 0.983963
O O20 0.568412 0.500000 0.000000
#
# Coordination Sequence:
#
# PCOD8257650 Si02
#       7
#    16  16  16   8  16  16  16
#     4  11  23  38  56  80 110 146 188 232 280 334
#     4  11  22  37  60  85 114 151 193 236 281 338
#     4  11  23  36  53  79 115 150 184 228 278 334
#     4   8  16  30  50  76 106 140 178 220 269 322
#     4  10  19  33  54  81 112 146 183 228 279 334
#     4  12  24  40  61  83 110 146 190 233 278 332
#     4   9  19  36  59  89 122 155 191 236 289 344
#
# _framework density 18.783356000000001
#
# number of rings (size 3 to 8) (size 9 to 14) (size 15 to 20)
#    0.000    1.538    1.538    4.154    0.000    6.154 
#    0.000    0.000    1.692    0.000    0.000    0.000 
#    0.000    0.000    0.000    0.000    0.000    0.000 
#
# Total GULP energy -644538.614049 kJ/mol
# GULP energy per Si atom -12394.973347 kJ/mol
# Density = 1.874060 g / cm^3
# Si number density = 18.783356 Si / 1000 Ang^3
#
#
#
# Elastic Constant Matrix: (Units=GPa)
#
#
# Indices 1 2 3 4 5 6 
#
# 1 129.7514 48.2021 49.4575 0.0000 0.0000 0.0000
# 2 48.2021 100.6459 43.9043 0.0000 0.0000 0.0000
# 3 49.4575 43.9043 89.6438 0.0000 0.0000 0.0000
# 4 0.0000 0.0000 0.0000 33.6081 0.0000 0.0000
# 5 0.0000 0.0000 0.0000 0.0000 17.9251 0.0000
# 6 0.0000 0.0000 0.0000 0.0000 0.0000 34.1258
#
#
#
# Elastic Compliance Matrix: (Units=1/GPa)
#
#
# Indices 1 2 3 4 5 6 
#
# 1 0.010504 -0.003183 -0.004237 0.000000 0.000000 0.000000
# 2 -0.003183 0.013600 -0.004905 0.000000 0.000000 0.000000
# 3 -0.004237 -0.004905 0.015895 0.000000 0.000000 0.000000
# 4 0.000000 0.000000 0.000000 0.029755 0.000000 0.000000
# 5 0.000000 0.000000 0.000000 0.000000 0.055788 0.000000
# 6 0.000000 0.000000 0.000000 0.000000 0.000000 0.029303
#
#
# Mechanical properties :
#
#
# Convention : Reuss Voigt Hill
#
# Bulk Modulus (GPa) = 65.14317 67.01875 66.08096
# Shear Modulus (GPa) = 27.08425 29.03029 28.05727
#
# Velocity S-wave (km/s) = 3.80139 3.93559 3.86907
# Velocity P-wave (km/s) = 7.35011 7.51060 7.43079
#
# Compressibility (1/GPa) = 0.01535080
#
# Stress axis : x y z
#
# Youngs Moduli (GPa) = 95.19957 73.53127 62.91382
#
# Poissons Ratio (x) = 0.23403 0.26654
# Poissons Ratio (y) = 0.30299 0.30857
# Poissons Ratio (z) = 0.40332 0.36065
#
# Static dielectric constant tensor:
#      x y z
#    x 3.947130 0.000000 0.000000 
#    y 0.000000 3.264040 0.000000 
#    z 0.000000 0.000000 3.613650 
# 
# 
# High freq. dielectric constant tensor:
#      x y z
#    x 1.736450 0.000000 0.000000 
#    y 0.000000 1.713290 0.000000 
#    z 0.000000 0.000000 1.741270 
# 
# From -- ./inp_files/12610.got.cif
#   From: 2010.03.12/outbox.cif.g09.slc.cpg/sg63_7_cif.got.tgz:12610.got - 2010.04.10 19:34:48.
