data_PCOD8257816
_publ_section_title
;
Structure prediction by ZEFSAII (Michael W. Deem and Ramdas Pophale) SiO2 
 PCOD8257816
Probable space group: C M C M
;
_chemical_formula_sum "Si O2"
_cell_formula_units_Z 96
_cell_length_a 18.711839
_cell_length_b 29.887251
_cell_length_c 8.998809
_cell_angle_alpha 90.000000
_cell_angle_beta 90.000000
_cell_angle_gamma 90.000000
_cell_volume 5032.542798
_symmetry_space_group_name_H-M "C M C M"
_symmetry_group_IT_number 63
_symmetry_cell_setting 'orthorhombic'
loop_
_space_group_symop_operation_xyz
x,y,z
-x,-y,1/2+z
x,-y,-z
-x,y,1/2-z
-x,-y,-z
x,y,1/2-z
-x,y,z
x,-y,1/2+z
1/2+x,1/2+y,z
1/2-x,1/2-y,1/2+z
1/2+x,1/2-y,-z
1/2-x,1/2+y,1/2-z
1/2-x,1/2-y,-z
1/2+x,1/2+y,1/2-z
1/2-x,1/2+y,z
1/2+x,1/2-y,1/2+z
loop_
_atom_site_type_symbol
_atom_site_label
_atom_site_fract_x
_atom_site_fract_y
_atom_site_fract_z
Si Si1 0.693876 0.379245 0.926079
Si Si2 0.841288 0.618703 0.573942
Si Si3 0.312554 0.722329 0.076137
Si Si4 0.083865 0.457541 0.915618
Si Si5 0.078844 0.705507 0.575530
Si Si6 0.918292 0.953905 0.575153
O O1 0.702144 0.380941 0.750000
O O2 0.679339 0.328489 0.981627
O O3 0.630386 0.412255 0.978986
O O4 0.766751 0.395536 0.000833
O O5 0.833878 0.616277 0.750000
O O6 0.901490 0.585271 0.516546
O O7 0.866994 0.667419 0.516515
O O8 0.296033 0.723351 0.250000
O O9 0.387673 0.746245 0.038191
O O10 0.250000 0.750000 0.000000
O O11 0.117563 0.453230 0.750000
O O12 0.000000 0.463772 0.900804
O O13 0.118206 0.500000 0.000000
O O14 0.070404 0.698540 0.750000
O O15 0.000000 0.702279 0.501113
O O16 0.911188 0.960670 0.750000
O O17 0.000000 0.943081 0.529037
O O18 0.892072 0.000000 0.500000
#
# Coordination Sequence:
#
# PCOD8257816 Si02
#       6
#    16  16  16  16  16  16
#     4  10  21  35  55  82 112 145 184 232 282 337
#     4  11  21  34  54  79 110 147 184 227 273 327
#     4  10  19  34  55  78 108 145 182 228 280 331
#     4  10  21  37  56  78 106 141 181 226 275 325
#     4   9  18  32  52  79 107 139 182 226 272 329
#     4   9  19  37  59  83 111 144 183 230 285 341
#
# _framework density 19.075844
#
# number of rings (size 3 to 8) (size 9 to 14) (size 15 to 20)
#    0.000    2.167    1.667    1.500    0.000    3.667 
#    0.000    5.000    0.000    1.500    0.000    2.333 
#    0.000    0.000    0.000    0.000    0.000    0.000 
#
# Total GULP energy -595122.924589 kJ/mol
# GULP energy per Si atom -12398.394262 kJ/mol
# Density = 1.903243 g / cm^3
# Si number density = 19.075844 Si / 1000 Ang^3
#
#
#
# Elastic Constant Matrix: (Units=GPa)
#
#
# Indices 1 2 3 4 5 6 
#
# 1 102.7336 51.9843 28.1575 0.0000 0.0000 0.0000
# 2 51.9843 141.4328 35.3677 0.0000 0.0000 0.0000
# 3 28.1575 35.3677 32.9207 0.0000 0.0000 0.0000
# 4 0.0000 0.0000 0.0000 27.4254 0.0000 0.0000
# 5 0.0000 0.0000 0.0000 0.0000 25.0486 0.0000
# 6 0.0000 0.0000 0.0000 0.0000 0.0000 28.5813
#
#
#
# Elastic Compliance Matrix: (Units=1/GPa)
#
#
# Indices 1 2 3 4 5 6 
#
# 1 0.013498 -0.002836 -0.008498 0.000000 0.000000 0.000000
# 2 -0.002836 0.010264 -0.008601 0.000000 0.000000 0.000000
# 3 -0.008498 -0.008601 0.046885 0.000000 0.000000 0.000000
# 4 0.000000 0.000000 0.000000 0.036463 0.000000 0.000000
# 5 0.000000 0.000000 0.000000 0.000000 0.039922 0.000000
# 6 0.000000 0.000000 0.000000 0.000000 0.000000 0.034988
#
#
# Mechanical properties :
#
#
# Convention : Reuss Voigt Hill
#
# Bulk Modulus (GPa) = 32.49251 56.45621 44.47436
# Shear Modulus (GPa) = 21.53790 26.98290 24.26040
#
# Velocity S-wave (km/s) = 3.36380 3.76507 3.57008
# Velocity P-wave (km/s) = 5.67073 6.96857 6.35288
#
# Compressibility (1/GPa) = 0.03077633
#
# Stress axis : x y z
#
# Youngs Moduli (GPa) = 74.08342 97.43035 21.32890
#
# Poissons Ratio (x) = 0.27634 0.18126
# Poissons Ratio (y) = 0.21012 0.18345
# Poissons Ratio (z) = 0.62958 0.83798
#
# Static dielectric constant tensor:
#      x y z
#    x 3.575590 0.000000 0.000000 
#    y 0.000000 3.716900 0.000000 
#    z 0.000000 0.000000 3.369330 
# 
# 
# High freq. dielectric constant tensor:
#      x y z
#    x 1.737280 0.000000 0.000000 
#    y 0.000000 1.751510 0.000000 
#    z 0.000000 0.000000 1.722720 
# 
# From -- ./inp_files/8546.got.cif
#   From: 2010.03.12/outbox.cif.g09.slc.cpg/sg63_5_cif.got.tgz:8546.got - 2010.04.10 19:34:48.
