data_PCOD8257584
_publ_section_title
;
Structure prediction by ZEFSAII (Michael W. Deem and Ramdas Pophale) SiO2 
 PCOD8257584
Probable space group: C M C M
;
_chemical_formula_sum "Si O2"
_cell_formula_units_Z 112
_cell_length_a 28.131889
_cell_length_b 15.059021
_cell_length_c 14.522033
_cell_angle_alpha 90.000000
_cell_angle_beta 90.000000
_cell_angle_gamma 90.000000
_cell_volume 6152.095286
_symmetry_space_group_name_H-M "C M C M"
_symmetry_group_IT_number 63
_symmetry_cell_setting 'orthorhombic'
loop_
_space_group_symop_operation_xyz
x,y,z
-x,-y,1/2+z
x,-y,-z
-x,y,1/2-z
-x,-y,-z
x,y,1/2-z
-x,y,z
x,-y,1/2+z
1/2+x,1/2+y,z
1/2-x,1/2-y,1/2+z
1/2+x,1/2-y,-z
1/2-x,1/2+y,1/2-z
1/2-x,1/2-y,-z
1/2+x,1/2+y,1/2-z
1/2-x,1/2+y,z
1/2+x,1/2-y,1/2+z
loop_
_atom_site_type_symbol
_atom_site_label
_atom_site_fract_x
_atom_site_fract_y
_atom_site_fract_z
Si Si1 0.118335 0.842794 0.848708
Si Si2 0.781819 0.074125 0.149264
Si Si3 0.363382 0.748826 0.967656
Si Si4 0.052758 0.203557 0.854018
Si Si5 0.446074 0.495447 0.391889
Si Si6 0.712028 0.373320 0.140505
Si Si7 0.790823 0.396866 0.003218
O O1 0.107064 0.794308 0.750000
O O2 0.173756 0.862487 0.849915
O O3 0.087642 0.932183 0.846884
O O4 0.110383 0.785015 0.939423
O O5 0.757436 0.069022 0.250000
O O6 0.799963 0.976243 0.120571
O O7 0.745016 0.120095 0.080777
O O8 0.408546 0.766235 0.902389
O O9 0.326257 0.682609 0.917654
O O10 0.338621 0.841787 0.989005
O O11 0.050114 0.235898 0.750000
O O12 0.000000 0.211919 0.899584
O O13 0.070564 0.101601 0.858771
O O14 0.441080 0.500000 0.500000
O O15 0.500000 0.513742 0.359414
O O16 0.711640 0.348693 0.250000
O O17 0.765193 0.362591 0.097354
O O18 0.805359 0.500000 0.000000
#
# Coordination Sequence:
#
# PCOD8257584 Si02
#       7
#    16  16  16  16  16  16  16
#     4  11  22  32  49  75 108 145 181 216 255 307
#     4   9  19  34  50  73 107 144 177 210 258 312
#     4  12  22  35  55  80 104 139 183 224 266 313
#     4  10  21  36  55  81 113 143 174 217 263 310
#     4  10  19  33  53  77 111 150 179 209 254 313
#     4  10  20  33  53  79 108 141 174 217 262 315
#     4  10  22  39  55  74 104 140 179 224 272 319
#
# _framework density 18.205179999999999
#
# number of rings (size 3 to 8) (size 9 to 14) (size 15 to 20)
#    0.000    1.714    2.857    2.143    0.000    3.714 
#    0.000    0.000    0.000    0.429    0.000    0.000 
#    0.000    0.000    0.000    0.000    0.000    0.000 
#
# Total GULP energy -694052.571646 kJ/mol
# GULP energy per Si atom -12393.795922 kJ/mol
# Density = 1.816374 g / cm^3
# Si number density = 18.205180 Si / 1000 Ang^3
#
#
#
# Elastic Constant Matrix: (Units=GPa)
#
#
# Indices 1 2 3 4 5 6 
#
# 1 82.2727 26.9641 30.9232 0.0000 0.0000 0.0000
# 2 26.9641 24.8029 17.1942 0.0000 0.0000 0.0000
# 3 30.9232 17.1942 103.3955 0.0000 0.0000 0.0000
# 4 0.0000 0.0000 0.0000 10.2728 0.0000 0.0000
# 5 0.0000 0.0000 0.0000 0.0000 15.0190 0.0000
# 6 0.0000 0.0000 0.0000 0.0000 0.0000 31.5753
#
#
#
# Elastic Compliance Matrix: (Units=1/GPa)
#
#
# Indices 1 2 3 4 5 6 
#
# 1 0.019484 -0.019376 -0.002605 0.000000 0.000000 0.000000
# 2 -0.019376 0.064840 -0.004988 0.000000 0.000000 0.000000
# 3 -0.002605 -0.004988 0.011280 0.000000 0.000000 0.000000
# 4 0.000000 0.000000 0.000000 0.097344 0.000000 0.000000
# 5 0.000000 0.000000 0.000000 0.000000 0.066582 0.000000
# 6 0.000000 0.000000 0.000000 0.000000 0.000000 0.031670
#
#
# Mechanical properties :
#
#
# Convention : Reuss Voigt Hill
#
# Bulk Modulus (GPa) = 24.00001 40.07046 32.03524
# Shear Modulus (GPa) = 13.92651 20.39940 17.16295
#
# Velocity S-wave (km/s) = 2.76882 3.35106 3.07376
# Velocity P-wave (km/s) = 4.84082 6.08531 5.49839
#
# Compressibility (1/GPa) = 0.04166665
#
# Stress axis : x y z
#
# Youngs Moduli (GPa) = 51.32373 15.42262 88.65125
#
# Poissons Ratio (x) = 0.29883 0.23095
# Poissons Ratio (y) = 0.99445 0.44216
# Poissons Ratio (z) = 0.13371 0.07692
#
# Static dielectric constant tensor:
#      x y z
#    x 3.322950 0.000000 0.000000 
#    y 0.000000 2.970990 0.000000 
#    z 0.000000 0.000000 3.845670 
# 
# 
# High freq. dielectric constant tensor:
#      x y z
#    x 1.692250 0.000000 0.000000 
#    y 0.000000 1.655590 0.000000 
#    z 0.000000 0.000000 1.728900 
# 
# From -- ./inp_files/38683.got.cif
#   From: 2010.03.12/outbox.cif.g09.slc.cpg/sg63_20_cif.got.tgz:38683.got - 2010.04.10 19:34:48.
