data_PCOD8257189
_publ_section_title
;
Structure prediction by ZEFSAII (Michael W. Deem and Ramdas Pophale) SiO2 
 PCOD8257189
Probable space group: C M C M
;
_chemical_formula_sum "Si O2"
_cell_formula_units_Z 96
_cell_length_a 25.359758
_cell_length_b 9.860991
_cell_length_c 22.237252
_cell_angle_alpha 90.000000
_cell_angle_beta 90.000000
_cell_angle_gamma 90.000000
_cell_volume 5560.921763
_symmetry_space_group_name_H-M "C M C M"
_symmetry_group_IT_number 63
_symmetry_cell_setting 'orthorhombic'
loop_
_space_group_symop_operation_xyz
x,y,z
-x,-y,1/2+z
x,-y,-z
-x,y,1/2-z
-x,-y,-z
x,y,1/2-z
-x,y,z
x,-y,1/2+z
1/2+x,1/2+y,z
1/2-x,1/2-y,1/2+z
1/2+x,1/2-y,-z
1/2-x,1/2+y,1/2-z
1/2-x,1/2-y,-z
1/2+x,1/2+y,1/2-z
1/2-x,1/2+y,z
1/2+x,1/2-y,1/2+z
loop_
_atom_site_type_symbol
_atom_site_label
_atom_site_fract_x
_atom_site_fract_y
_atom_site_fract_z
Si Si1 0.441707 0.606355 0.417519
Si Si2 0.942259 0.204730 0.544983
Si Si3 0.719500 0.489947 0.750000
Si Si4 0.814178 0.705939 0.250000
Si Si5 0.165247 0.047677 0.128078
Si Si6 0.744576 0.875162 0.542578
Si Si7 0.847048 0.266031 0.619530
O O1 0.500000 0.641669 0.389853
O O2 0.429662 0.706739 0.473597
O O3 0.442166 0.451363 0.437188
O O4 0.392965 0.617650 0.370943
O O5 0.901769 0.294503 0.584446
O O6 0.000000 0.268045 0.556929
O O7 0.778061 0.428167 0.750000
O O8 0.720817 0.654788 0.750000
O O9 0.688811 0.429603 0.806555
O O10 0.851443 0.702085 0.309083
O O11 0.200439 0.117700 0.077531
O O12 0.166227 0.890726 0.109805
O O13 0.750000 0.750000 0.500000
O O14 0.698078 0.859683 0.591188
O O15 0.731516 0.000000 0.500000
#
# Coordination Sequence:
#
# PCOD8257189 Si02
#       7
#    16  16   8   8  16  16  16
#     4   8  14  25  44  70  98 129 161 197 249 299
#     4   8  14  26  46  70  97 129 161 200 247 294
#     4  10  20  34  49  69  99 139 166 201 244 296
#     4  10  20  34  51  69  99 137 168 201 244 292
#     4  10  19  32  49  70 102 131 166 205 246 294
#     4  12  22  31  48  73 101 130 158 205 253 293
#     4  10  19  33  49  71 101 131 166 205 246 298
#
# _framework density 17.263324999999998
#
# number of rings (size 3 to 8) (size 9 to 14) (size 15 to 20)
#    0.000    2.333    3.333    2.000    2.333    0.000 
#    0.000    0.833    0.000    5.500    0.000    0.000 
#    0.000    1.333    0.000    0.000    0.000    0.000 
#
# Total GULP energy -594816.425709 kJ/mol
# GULP energy per Si atom -12392.008869 kJ/mol
# Density = 1.722403 g / cm^3
# Si number density = 17.263325 Si / 1000 Ang^3
#
#
#
# Elastic Constant Matrix: (Units=GPa)
#
#
# Indices 1 2 3 4 5 6 
#
# 1 110.0199 17.0178 36.8019 0.0000 0.0000 0.0000
# 2 17.0178 40.5280 23.5769 0.0000 0.0000 0.0000
# 3 36.8019 23.5769 85.4382 0.0000 0.0000 0.0000
# 4 0.0000 0.0000 0.0000 18.4796 0.0000 0.0000
# 5 0.0000 0.0000 0.0000 0.0000 29.1123 0.0000
# 6 0.0000 0.0000 0.0000 0.0000 0.0000 14.8622
#
#
#
# Elastic Compliance Matrix: (Units=1/GPa)
#
#
# Indices 1 2 3 4 5 6 
#
# 1 0.010778 -0.002174 -0.004043 0.000000 0.000000 0.000000
# 2 -0.002174 0.029831 -0.007296 0.000000 0.000000 0.000000
# 3 -0.004043 -0.007296 0.015459 0.000000 0.000000 0.000000
# 4 0.000000 0.000000 0.000000 0.054114 0.000000 0.000000
# 5 0.000000 0.000000 0.000000 0.000000 0.034350 0.000000
# 6 0.000000 0.000000 0.000000 0.000000 0.000000 0.067285
#
#
# Mechanical properties :
#
#
# Convention : Reuss Voigt Hill
#
# Bulk Modulus (GPa) = 34.43074 43.41996 38.92535
# Shear Modulus (GPa) = 20.11898 23.06346 21.59122
#
# Velocity S-wave (km/s) = 3.41752 3.65907 3.54036
# Velocity P-wave (km/s) = 5.96325 6.56185 6.26970
#
# Compressibility (1/GPa) = 0.02904381
#
# Stress axis : x y z
#
# Youngs Moduli (GPa) = 92.78364 33.52181 64.68755
#
# Poissons Ratio (x) = 0.07287 0.26150
# Poissons Ratio (y) = 0.20170 0.47194
# Poissons Ratio (z) = 0.37508 0.24456
#
# Static dielectric constant tensor:
#      x y z
#    x 3.670950 0.000000 0.000000 
#    y 0.000000 2.827570 0.000000 
#    z 0.000000 0.000000 3.324800 
# 
# 
# High freq. dielectric constant tensor:
#      x y z
#    x 1.667520 0.000000 0.000000 
#    y 0.000000 1.622720 0.000000 
#    z 0.000000 0.000000 1.665000 
# 
# From -- ./inp_files/57538.got.cif
#   From: 2010.03.12/outbox.cif.g09.slc.cpg/sg63_29_cif.got.tgz:57538.got - 2010.04.10 19:34:48.
