data_PCOD8257771
_publ_section_title
;
Structure prediction by ZEFSAII (Michael W. Deem and Ramdas Pophale) SiO2 
 PCOD8257771
Probable space group: C M C M
;
_chemical_formula_sum "Si O2"
_cell_formula_units_Z 104
_cell_length_a 31.722389
_cell_length_b 20.201478
_cell_length_c 9.050876
_cell_angle_alpha 90.000000
_cell_angle_beta 90.000000
_cell_angle_gamma 90.000000
_cell_volume 5800.155624
_symmetry_space_group_name_H-M "C M C M"
_symmetry_group_IT_number 63
_symmetry_cell_setting 'orthorhombic'
loop_
_space_group_symop_operation_xyz
x,y,z
-x,-y,1/2+z
x,-y,-z
-x,y,1/2-z
-x,-y,-z
x,y,1/2-z
-x,y,z
x,-y,1/2+z
1/2+x,1/2+y,z
1/2-x,1/2-y,1/2+z
1/2+x,1/2-y,-z
1/2-x,1/2+y,1/2-z
1/2-x,1/2-y,-z
1/2+x,1/2+y,1/2-z
1/2-x,1/2+y,z
1/2+x,1/2-y,1/2+z
loop_
_atom_site_type_symbol
_atom_site_label
_atom_site_fract_x
_atom_site_fract_y
_atom_site_fract_z
Si Si1 0.567421 0.648474 0.915792
Si Si2 0.131702 0.677237 0.920972
Si Si3 0.452648 0.800185 0.916983
Si Si4 0.649409 0.672098 0.419841
Si Si5 0.781877 0.933886 0.921491
Si Si6 0.000000 0.931406 0.577968
Si Si7 0.185720 0.567039 0.075483
O O1 0.563820 0.619477 0.750000
O O2 0.548949 0.721527 0.920180
O O3 0.615359 0.643743 0.967582
O O4 0.541769 0.606309 0.031724
O O5 0.133077 0.656812 0.750000
O O6 0.152921 0.749137 0.946264
O O7 0.082951 0.672163 0.972996
O O8 0.158660 0.627806 0.018245
O O9 0.443768 0.825493 0.750000
O O10 0.500000 0.822292 0.967113
O O11 0.636116 0.658923 0.250000
O O12 0.692208 0.632871 0.459999
O O13 0.784247 0.949891 0.750000
O O14 0.734047 0.920113 0.971952
O O15 0.799959 0.000000 0.000000
O O16 0.000000 0.942041 0.750000
O O17 0.000000 0.000000 0.500000
O O18 0.180288 0.560743 0.250000
O O19 0.168970 0.500000 0.000000
#
# Coordination Sequence:
#
# PCOD8257771 Si02
#       7
#    16  16  16  16  16   8  16
#     4  10  19  34  52  73 100 132 171 217 265 313
#     4  10  20  33  52  81 111 140 177 220 264 316
#     4   9  17  32  54  77 104 137 171 211 256 309
#     4   9  19  35  52  76 109 142 177 221 268 315
#     4   9  19  35  54  75 103 140 183 223 266 318
#     4  12  24  36  50  68  94 132 177 222 269 318
#     4  10  20  36  57  79 105 140 177 218 266 321
#
# _framework density 17.930554000000001
#
# number of rings (size 3 to 8) (size 9 to 14) (size 15 to 20)
#    0.000    2.308    0.769    2.077    0.000    4.000 
#    0.000    1.538    0.000    0.462    0.000    0.000 
#    0.000    0.000    0.000    0.000    0.000    0.000 
#
# Total GULP energy -644709.746738 kJ/mol
# GULP energy per Si atom -12398.264360 kJ/mol
# Density = 1.788974 g / cm^3
# Si number density = 17.930554 Si / 1000 Ang^3
#
#
#
# Elastic Constant Matrix: (Units=GPa)
#
#
# Indices 1 2 3 4 5 6 
#
# 1 96.6593 54.9055 44.8129 0.0000 0.0000 0.0000
# 2 54.9055 82.3446 45.1128 0.0000 0.0000 0.0000
# 3 44.8129 45.1128 102.0481 0.0000 0.0000 0.0000
# 4 0.0000 0.0000 0.0000 31.0877 0.0000 0.0000
# 5 0.0000 0.0000 0.0000 0.0000 31.3485 0.0000
# 6 0.0000 0.0000 0.0000 0.0000 0.0000 28.2512
#
#
#
# Elastic Compliance Matrix: (Units=1/GPa)
#
#
# Indices 1 2 3 4 5 6 
#
# 1 0.017469 -0.009825 -0.003328 0.000000 0.000000 0.000000
# 2 -0.009825 0.021551 -0.005213 0.000000 0.000000 0.000000
# 3 -0.003328 -0.005213 0.013565 0.000000 0.000000 0.000000
# 4 0.000000 0.000000 0.000000 0.032167 0.000000 0.000000
# 5 0.000000 0.000000 0.000000 0.000000 0.031899 0.000000
# 6 0.000000 0.000000 0.000000 0.000000 0.000000 0.035397
#
#
# Mechanical properties :
#
#
# Convention : Reuss Voigt Hill
#
# Bulk Modulus (GPa) = 63.07480 63.41272 63.24376
# Shear Modulus (GPa) = 25.76462 27.21886 26.49174
#
# Velocity S-wave (km/s) = 3.79477 3.90040 3.84795
# Velocity P-wave (km/s) = 7.37930 7.46503 7.42229
#
# Compressibility (1/GPa) = 0.01585419
#
# Stress axis : x y z
#
# Youngs Moduli (GPa) = 57.24287 46.40194 73.71834
#
# Poissons Ratio (x) = 0.45589 0.24534
# Poissons Ratio (y) = 0.56240 0.38426
# Poissons Ratio (z) = 0.19051 0.24187
#
# Static dielectric constant tensor:
#      x y z
#    x 3.388570 0.000000 0.000000 
#    y 0.000000 3.099870 0.000000 
#    z 0.000000 0.000000 3.531720 
# 
# 
# High freq. dielectric constant tensor:
#      x y z
#    x 1.694000 0.000000 0.000000 
#    y 0.000000 1.675260 0.000000 
#    z 0.000000 0.000000 1.703440 
# 
# From -- ./inp_files/12837.got.cif
#   From: 2010.03.12/outbox.cif.g09.slc.cpg/sg63_7_cif.got.tgz:12837.got - 2010.04.10 19:34:48.
