data_PCOD8257606
_publ_section_title
;
Structure prediction by ZEFSAII (Michael W. Deem and Ramdas Pophale) SiO2 
 PCOD8257606
Probable space group: C M C M
;
_chemical_formula_sum "Si O2"
_cell_formula_units_Z 80
_cell_length_a 34.297819
_cell_length_b 4.987123
_cell_length_c 24.640637
_cell_angle_alpha 90.000000
_cell_angle_beta 90.000000
_cell_angle_gamma 90.000000
_cell_volume 4214.717928
_symmetry_space_group_name_H-M "C M C M"
_symmetry_group_IT_number 63
_symmetry_cell_setting 'orthorhombic'
loop_
_space_group_symop_operation_xyz
x,y,z
-x,-y,1/2+z
x,-y,-z
-x,y,1/2-z
-x,-y,-z
x,y,1/2-z
-x,y,z
x,-y,1/2+z
1/2+x,1/2+y,z
1/2-x,1/2-y,1/2+z
1/2+x,1/2-y,-z
1/2-x,1/2+y,1/2-z
1/2-x,1/2-y,-z
1/2+x,1/2+y,1/2-z
1/2-x,1/2+y,z
1/2+x,1/2-y,1/2+z
loop_
_atom_site_type_symbol
_atom_site_label
_atom_site_fract_x
_atom_site_fract_y
_atom_site_fract_z
Si Si1 0.599679 0.114783 0.633801
Si Si2 0.346904 0.610689 0.865832
Si Si3 0.456116 0.740486 0.036247
Si Si4 0.349600 0.278919 0.250000
Si Si5 0.273847 0.514478 0.936303
Si Si6 0.899339 0.283347 0.250000
O O1 0.635964 0.314329 0.632259
O O2 0.568324 0.199427 0.589646
O O3 0.578670 0.137255 0.693566
O O4 0.617915 0.821078 0.622728
O O5 0.327057 0.659512 0.806267
O O6 0.313584 0.622170 0.910514
O O7 0.500000 0.661551 0.054336
O O8 0.437859 0.500000 0.000000
O O9 0.456341 0.000000 0.000000
O O10 0.388632 0.468033 0.250000
O O11 0.360178 0.965454 0.250000
O O12 0.260476 0.219045 0.918288
O O13 0.281351 0.500000 0.000000
#
# Coordination Sequence:
#
# PCOD8257606 Si02
#       6
#    16  16  16   8  16   8
#     4  10  19  33  54  78 101 131 172 211 248 299
#     4  10  19  33  54  76  99 129 169 210 248 300
#     4  10  21  36  52  74 108 141 166 204 257 300
#     4   8  16  30  48  73 101 126 155 204 261 296
#     4  10  21  36  50  68  99 134 164 203 257 302
#     4   8  16  30  49  73 102 130 159 206 259 294
#
# _framework density 18.981103000000001
#
# number of rings (size 3 to 8) (size 9 to 14) (size 15 to 20)
#    0.000    2.400    0.000    2.400    0.000    2.400 
#    0.000    1.500    0.000    0.000    0.000   12.600 
#    0.000    0.000    0.000    0.000    0.000    0.000 
#
# Total GULP energy -495606.894786 kJ/mol
# GULP energy per Si atom -12390.172370 kJ/mol
# Density = 1.893790 g / cm^3
# Si number density = 18.981103 Si / 1000 Ang^3
#
#
#
# Elastic Constant Matrix: (Units=GPa)
#
#
# Indices 1 2 3 4 5 6 
#
# 1 57.6598 13.2599 60.5555 0.0000 0.0000 0.0000
# 2 13.2599 90.5493 31.4406 0.0000 0.0000 0.0000
# 3 60.5555 31.4406 131.7269 0.0000 0.0000 0.0000
# 4 0.0000 0.0000 0.0000 28.4306 0.0000 0.0000
# 5 0.0000 0.0000 0.0000 0.0000 -3.3604 0.0000
# 6 0.0000 0.0000 0.0000 0.0000 0.0000 23.9611
#
#
#
# Elastic Compliance Matrix: (Units=1/GPa)
#
#
# Indices 1 2 3 4 5 6 
#
# 1 0.033551 0.000482 -0.015539 0.000000 0.000000 0.000000
# 2 0.000482 0.012049 -0.003097 0.000000 0.000000 0.000000
# 3 -0.015539 -0.003097 0.015474 0.000000 0.000000 0.000000
# 4 0.000000 0.000000 0.000000 0.035173 0.000000 0.000000
# 5 0.000000 0.000000 0.000000 0.000000 -0.297579 0.000000
# 6 0.000000 0.000000 0.000000 0.000000 0.000000 0.041734
#
#
# Mechanical properties :
#
#
# Convention : Reuss Voigt Hill
#
# Bulk Modulus (GPa) = 40.37810 54.49423 47.43616
# Shear Modulus (GPa) = -43.46537 21.45158 -11.00689
#
# Velocity S-wave (km/s) = -4.79051 3.36542 -2.41070
# Velocity P-wave (km/s) = 3.04626 6.62371 4.15895
#
# Compressibility (1/GPa) = 0.02476590
#
# Stress axis : x y z
#
# Youngs Moduli (GPa) = 29.80503 82.99728 64.62446
#
# Poissons Ratio (x) = -0.04002 1.00419
# Poissons Ratio (y) = -0.01437 0.20017
# Poissons Ratio (z) = 0.46313 0.25708
#
# Static dielectric constant tensor:
#      x y z
#    x 2.982050 0.000000 0.000000 
#    y 0.000000 3.744650 0.000000 
#    z 0.000000 0.000000 3.795570 
# 
# 
# High freq. dielectric constant tensor:
#      x y z
#    x 1.677140 0.000000 0.000000 
#    y 0.000000 1.765540 0.000000 
#    z 0.000000 0.000000 1.753550 
# 
# From -- ./inp_files/65667.got.cif
#   From: 2010.03.12/outbox.cif.g09.slc.cpg/sg63_33_cif.got.tgz:65667.got - 2010.04.10 19:34:48.
