data_PCOD8257292
_publ_section_title
;
Structure prediction by ZEFSAII (Michael W. Deem and Ramdas Pophale) SiO2 
 PCOD8257292
Probable space group: C M C M
;
_chemical_formula_sum "Si O2"
_cell_formula_units_Z 112
_cell_length_a 18.676093
_cell_length_b 19.382711
_cell_length_c 17.800921
_cell_angle_alpha 90.000000
_cell_angle_beta 90.000000
_cell_angle_gamma 90.000000
_cell_volume 6443.814371
_symmetry_space_group_name_H-M "C M C M"
_symmetry_group_IT_number 63
_symmetry_cell_setting 'orthorhombic'
loop_
_space_group_symop_operation_xyz
x,y,z
-x,-y,1/2+z
x,-y,-z
-x,y,1/2-z
-x,-y,-z
x,y,1/2-z
-x,y,z
x,-y,1/2+z
1/2+x,1/2+y,z
1/2-x,1/2-y,1/2+z
1/2+x,1/2-y,-z
1/2-x,1/2+y,1/2-z
1/2-x,1/2-y,-z
1/2+x,1/2+y,1/2-z
1/2-x,1/2+y,z
1/2+x,1/2-y,1/2+z
loop_
_atom_site_type_symbol
_atom_site_label
_atom_site_fract_x
_atom_site_fract_y
_atom_site_fract_z
Si Si1 0.918806 0.195748 0.920071
Si Si2 0.659669 0.156005 0.833637
Si Si3 0.291979 0.114182 0.065760
Si Si4 0.580469 0.823822 0.020470
Si Si5 0.768385 0.515037 0.835403
Si Si6 0.667996 0.566140 0.543586
Si Si7 0.289925 0.246039 0.163769
O O1 0.895979 0.119812 0.946365
O O2 0.868768 0.224513 0.853629
O O3 0.000000 0.193172 0.889656
O O4 0.911715 0.245715 0.991657
O O5 0.634798 0.177950 0.750000
O O6 0.598335 0.177967 0.891262
O O7 0.671495 0.074106 0.837337
O O8 0.734108 0.193438 0.854677
O O9 0.268997 0.181346 0.112369
O O10 0.301381 0.050408 0.121903
O O11 0.367646 0.124763 0.024548
O O12 0.233217 0.100161 0.002392
O O13 0.500000 0.851375 0.008928
O O14 0.748572 0.495147 0.750000
O O15 0.696039 0.541221 0.875309
O O16 0.636538 0.500000 0.500000
O O17 0.287637 0.222621 0.250000
#
# Coordination Sequence:
#
# PCOD8257292 Si02
#       7
#    16  16  16  16  16  16  16
#     4  10  20  33  50  75 105 135 167 207 252 298
#     4  10  19  32  52  74 100 130 168 211 253 297
#     4  10  19  33  52  75 101 132 172 212 252 299
#     4  10  20  34  52  73 101 136 171 209 251 297
#     4  10  19  32  51  75 102 129 163 211 257 298
#     4  10  19  32  54  76 101 134 170 207 254 303
#     4  10  19  32  52  76 100 134 173 212 253 297
#
# _framework density 17.381008999999999
#
# number of rings (size 3 to 8) (size 9 to 14) (size 15 to 20)
#    0.000    2.000    2.857    1.286    0.000    3.143 
#    0.000    1.429    0.000    2.143    0.000    0.000 
#    0.000    0.000    0.000    0.000    0.000    0.000 
#
# Total GULP energy -694501.863591 kJ/mol
# GULP energy per Si atom -12401.818993 kJ/mol
# Density = 1.734145 g / cm^3
# Si number density = 17.381009 Si / 1000 Ang^3
#
#
#
# Elastic Constant Matrix: (Units=GPa)
#
#
# Indices 1 2 3 4 5 6 
#
# 1 73.3714 39.0644 32.2769 0.0000 0.0000 0.0000
# 2 39.0644 97.6770 38.5723 0.0000 0.0000 0.0000
# 3 32.2769 38.5723 110.0985 0.0000 0.0000 0.0000
# 4 0.0000 0.0000 0.0000 24.5896 0.0000 0.0000
# 5 0.0000 0.0000 0.0000 0.0000 20.1363 0.0000
# 6 0.0000 0.0000 0.0000 0.0000 0.0000 23.4912
#
#
#
# Elastic Compliance Matrix: (Units=1/GPa)
#
#
# Indices 1 2 3 4 5 6 
#
# 1 0.018263 -0.006023 -0.003244 0.000000 0.000000 0.000000
# 2 -0.006023 0.013868 -0.003093 0.000000 0.000000 0.000000
# 3 -0.003244 -0.003093 0.011117 0.000000 0.000000 0.000000
# 4 0.000000 0.000000 0.000000 0.040668 0.000000 0.000000
# 5 0.000000 0.000000 0.000000 0.000000 0.049662 0.000000
# 6 0.000000 0.000000 0.000000 0.000000 0.000000 0.042569
#
#
# Mechanical properties :
#
#
# Convention : Reuss Voigt Hill
#
# Bulk Modulus (GPa) = 53.96996 55.66379 54.81688
# Shear Modulus (GPa) = 24.14961 25.05897 24.60429
#
# Velocity S-wave (km/s) = 3.73154 3.80115 3.76651
# Velocity P-wave (km/s) = 7.04872 7.16660 7.10790
#
# Compressibility (1/GPa) = 0.01852882
#
# Stress axis : x y z
#
# Youngs Moduli (GPa) = 54.75510 72.10856 89.94959
#
# Poissons Ratio (x) = 0.43431 0.29179
# Poissons Ratio (y) = 0.32979 0.27820
# Poissons Ratio (z) = 0.17762 0.22302
#
# Static dielectric constant tensor:
#      x y z
#    x 3.042400 0.000000 0.000000 
#    y 0.000000 3.334380 0.000000 
#    z 0.000000 0.000000 3.379820 
# 
# 
# High freq. dielectric constant tensor:
#      x y z
#    x 1.643180 0.000000 0.000000 
#    y 0.000000 1.679140 0.000000 
#    z 0.000000 0.000000 1.681470 
# 
# From -- ./inp_files/46056.got.cif
#   From: 2010.03.12/outbox.cif.g09.slc.cpg/sg63_24_cif.got.tgz:46056.got - 2010.04.10 19:34:48.
