data_PCOD8257987
_publ_section_title
;
Structure prediction by ZEFSAII (Michael W. Deem and Ramdas Pophale) SiO2 
 PCOD8257987
Probable space group: C M C M
;
_chemical_formula_sum "Si O2"
_cell_formula_units_Z 96
_cell_length_a 23.509811
_cell_length_b 25.476632
_cell_length_c 8.568507
_cell_angle_alpha 90.000000
_cell_angle_beta 90.000000
_cell_angle_gamma 90.000000
_cell_volume 5132.114150
_symmetry_space_group_name_H-M "C M C M"
_symmetry_group_IT_number 63
_symmetry_cell_setting 'orthorhombic'
loop_
_space_group_symop_operation_xyz
x,y,z
-x,-y,1/2+z
x,-y,-z
-x,y,1/2-z
-x,-y,-z
x,y,1/2-z
-x,y,z
x,-y,1/2+z
1/2+x,1/2+y,z
1/2-x,1/2-y,1/2+z
1/2+x,1/2-y,-z
1/2-x,1/2+y,1/2-z
1/2-x,1/2-y,-z
1/2+x,1/2+y,1/2-z
1/2-x,1/2+y,z
1/2+x,1/2-y,1/2+z
loop_
_atom_site_type_symbol
_atom_site_label
_atom_site_fract_x
_atom_site_fract_y
_atom_site_fract_z
Si Si1 0.619573 0.656145 0.566014
Si Si2 0.312403 0.749579 0.067299
Si Si3 0.377966 0.847913 0.934986
Si Si4 0.500000 0.817482 0.935445
Si Si5 0.305091 0.055493 0.066132
Si Si6 0.000000 0.199667 0.565800
Si Si7 0.674849 0.556065 0.065141
O O1 0.627310 0.665604 0.750000
O O2 0.661622 0.693232 0.470623
O O3 0.555427 0.668039 0.509914
O O4 0.634059 0.596915 0.520698
O O5 0.310136 0.759073 0.250000
O O6 0.250000 0.750000 0.000000
O O7 0.349751 0.794460 0.989717
O O8 0.374304 0.848915 0.750000
O O9 0.443666 0.848480 0.992667
O O10 0.345051 0.898498 0.004111
O O11 0.500000 0.813643 0.750000
O O12 0.500000 0.758472 0.006090
O O13 0.310766 0.052752 0.250000
O O14 0.240227 0.067403 0.016695
O O15 0.326297 0.000000 0.000000
O O16 0.000000 0.204604 0.750000
O O17 0.666469 0.558711 0.250000
O O18 0.655829 0.500000 0.000000
#
# Coordination Sequence:
#
# PCOD8257987 Si02
#       7
#    16  16  16   8  16   8  16
#     4  11  21  37  59  83 112 147 187 230 277 333
#     4  12  24  36  53  81 113 145 180 228 284 338
#     4  10  19  35  57  81 109 146 189 229 272 328
#     4   9  16  32  57  80 108 149 190 224 268 330
#     4   9  19  34  55  79 108 143 181 226 276 331
#     4   9  18  34  57  82 109 149 189 223 271 336
#     4  10  20  36  56  82 112 146 188 234 287 339
#
# _framework density 18.705741
#
# number of rings (size 3 to 8) (size 9 to 14) (size 15 to 20)
#    0.000    1.833    1.667    3.500    0.000    2.667 
#    0.000    3.750    0.000    0.000    0.000    0.000 
#    0.000    0.000    0.000    0.000    0.000    0.000 
#
# Total GULP energy -595281.416185 kJ/mol
# GULP energy per Si atom -12401.696171 kJ/mol
# Density = 1.866317 g / cm^3
# Si number density = 18.705741 Si / 1000 Ang^3
#
#
#
# Elastic Constant Matrix: (Units=GPa)
#
#
# Indices 1 2 3 4 5 6 
#
# 1 124.2670 51.3572 17.7245 0.0000 0.0000 0.0000
# 2 51.3572 116.8709 6.6631 0.0000 0.0000 0.0000
# 3 17.7245 6.6631 9.8775 0.0000 0.0000 0.0000
# 4 0.0000 0.0000 0.0000 31.8887 0.0000 0.0000
# 5 0.0000 0.0000 0.0000 0.0000 17.1589 0.0000
# 6 0.0000 0.0000 0.0000 0.0000 0.0000 2.3900
#
#
#
# Elastic Compliance Matrix: (Units=1/GPa)
#
#
# Indices 1 2 3 4 5 6 
#
# 1 0.012715 -0.004458 -0.019809 0.000000 0.000000 0.000000
# 2 -0.004458 0.010462 0.000942 0.000000 0.000000 0.000000
# 3 -0.019809 0.000942 0.136150 0.000000 0.000000 0.000000
# 4 0.000000 0.000000 0.000000 0.031359 0.000000 0.000000
# 5 0.000000 0.000000 0.000000 0.000000 0.058279 0.000000
# 6 0.000000 0.000000 0.000000 0.000000 0.000000 0.418408
#
#
# Mechanical properties :
#
#
# Convention : Reuss Voigt Hill
#
# Bulk Modulus (GPa) = 8.87487 44.72280 26.79883
# Shear Modulus (GPa) = 6.65264 21.97223 14.31243
#
# Velocity S-wave (km/s) = 1.88791 3.43100 2.76911
# Velocity P-wave (km/s) = 3.08335 6.29731 4.95798
#
# Compressibility (1/GPa) = 0.11267769
#
# Stress axis : x y z
#
# Youngs Moduli (GPa) = 78.64717 95.58633 7.34484
#
# Poissons Ratio (x) = 0.42613 0.14549
# Poissons Ratio (y) = 0.35061 -0.00692
# Poissons Ratio (z) = 1.55791 -0.09009
#
# Static dielectric constant tensor:
#      x y z
#    x 3.698970 0.000000 0.000000 
#    y 0.000000 3.545310 0.000000 
#    z 0.000000 0.000000 3.274880 
# 
# 
# High freq. dielectric constant tensor:
#      x y z
#    x 1.729530 0.000000 0.000000 
#    y 0.000000 1.729990 0.000000 
#    z 0.000000 0.000000 1.712160 
# 
# From -- ./inp_files/10530.got.cif
#   From: 2010.03.12/outbox.cif.g09.slc.cpg/sg63_6_cif.got.tgz:10530.got - 2010.04.10 19:34:48.
