data_PCOD8257015
_publ_section_title
;
Structure prediction by ZEFSAII (Michael W. Deem and Ramdas Pophale) SiO2 
 PCOD8257015
Probable space group: C M C M
;
_chemical_formula_sum "Si O2"
_cell_formula_units_Z 80
_cell_length_a 9.028965
_cell_length_b 20.315327
_cell_length_c 27.527827
_cell_angle_alpha 90.000000
_cell_angle_beta 90.000000
_cell_angle_gamma 90.000000
_cell_volume 5049.329558
_symmetry_space_group_name_H-M "C M C M"
_symmetry_group_IT_number 63
_symmetry_cell_setting 'orthorhombic'
loop_
_space_group_symop_operation_xyz
x,y,z
-x,-y,1/2+z
x,-y,-z
-x,y,1/2-z
-x,-y,-z
x,y,1/2-z
-x,y,z
x,-y,1/2+z
1/2+x,1/2+y,z
1/2-x,1/2-y,1/2+z
1/2+x,1/2-y,-z
1/2-x,1/2+y,1/2-z
1/2-x,1/2-y,-z
1/2+x,1/2+y,1/2-z
1/2-x,1/2+y,z
1/2+x,1/2-y,1/2+z
loop_
_atom_site_type_symbol
_atom_site_label
_atom_site_fract_x
_atom_site_fract_y
_atom_site_fract_z
Si Si1 0.669688 0.569572 0.806324
Si Si2 0.833250 0.304707 0.857178
Si Si3 0.667518 0.734781 0.549336
Si Si4 0.328502 0.581717 0.194690
Si Si5 0.675039 0.821791 0.133908
O O1 0.700543 0.583821 0.750000
O O2 0.500000 0.586893 0.819240
O O3 0.703638 0.493784 0.818421
O O4 0.780393 0.612294 0.838360
O O5 0.832812 0.300178 0.916304
O O6 0.765397 0.373783 0.841568
O O7 0.738227 0.242311 0.836847
O O8 0.000000 0.298913 0.836778
O O9 0.500000 0.711520 0.538200
O O10 0.750000 0.750000 0.500000
O O11 0.753626 0.677445 0.579492
O O12 0.280806 0.596488 0.250000
O O13 0.500000 0.598175 0.187456
O O14 0.500000 0.817019 0.129905
#
# Coordination Sequence:
#
# PCOD8257015 Si02
#       5
#    16  16  16  16  16
#     4   9  18  33  50  69  98 133 165 199 240 285
#     4   9  19  32  48  72  98 126 160 200 242 286
#     4   9  18  32  51  74  97 124 157 197 247 292
#     4   9  18  32  50  71  97 131 166 198 237 287
#     4  10  19  31  49  73  98 127 163 202 240 283
#
# _framework density 15.843688
#
# number of rings (size 3 to 8) (size 9 to 14) (size 15 to 20)
#    1.200    1.600    0.000    3.600    0.000    2.400 
#    0.000    2.000    0.000    1.200    0.000    8.400 
#    0.000    0.000    0.000    0.000    0.000    0.000 
#
# Total GULP energy -495655.284299 kJ/mol
# GULP energy per Si atom -12391.382107 kJ/mol
# Density = 1.580763 g / cm^3
# Si number density = 15.843688 Si / 1000 Ang^3
#
#
#
# Elastic Constant Matrix: (Units=GPa)
#
#
# Indices 1 2 3 4 5 6 
#
# 1 134.3598 55.9555 49.4659 0.0000 0.0000 0.0000
# 2 55.9555 78.4179 43.8469 0.0000 0.0000 0.0000
# 3 49.4659 43.8469 69.4033 0.0000 0.0000 0.0000
# 4 0.0000 0.0000 0.0000 6.6868 0.0000 0.0000
# 5 0.0000 0.0000 0.0000 0.0000 28.8940 0.0000
# 6 0.0000 0.0000 0.0000 0.0000 0.0000 31.4536
#
#
#
# Elastic Compliance Matrix: (Units=1/GPa)
#
#
# Indices 1 2 3 4 5 6 
#
# 1 0.011485 -0.005594 -0.004651 0.000000 0.000000 0.000000
# 2 -0.005594 0.022442 -0.010191 0.000000 0.000000 0.000000
# 3 -0.004651 -0.010191 0.024162 0.000000 0.000000 0.000000
# 4 0.000000 0.000000 0.000000 0.149548 0.000000 0.000000
# 5 0.000000 0.000000 0.000000 0.000000 0.034609 0.000000
# 6 0.000000 0.000000 0.000000 0.000000 0.000000 0.031793
#
#
# Mechanical properties :
#
#
# Convention : Reuss Voigt Hill
#
# Bulk Modulus (GPa) = 58.08619 64.52418 61.30519
# Shear Modulus (GPa) = 15.59321 22.26773 18.93047
#
# Velocity S-wave (km/s) = 3.14058 3.75302 3.46038
# Velocity P-wave (km/s) = 7.06347 7.71972 7.39888
#
# Compressibility (1/GPa) = 0.01721580
#
# Stress axis : x y z
#
# Youngs Moduli (GPa) = 87.07026 44.55850 41.38705
#
# Poissons Ratio (x) = 0.24928 0.19251
# Poissons Ratio (y) = 0.48710 0.42178
# Poissons Ratio (z) = 0.40499 0.45410
#
# Static dielectric constant tensor:
#      x y z
#    x 3.021020 0.000000 0.000000 
#    y 0.000000 2.799240 0.000000 
#    z 0.000000 0.000000 2.792650 
# 
# 
# High freq. dielectric constant tensor:
#      x y z
#    x 1.621390 0.000000 0.000000 
#    y 0.000000 1.590030 0.000000 
#    z 0.000000 0.000000 1.587590 
# 
# From -- ./inp_files/71768.got.cif
#   From: 2010.03.12/outbox.cif.g09.slc.cpg/sg63_36_cif.got.tgz:71768.got - 2010.04.10 19:34:48.
