data_PCOD8257920
_publ_section_title
;
Structure prediction by ZEFSAII (Michael W. Deem and Ramdas Pophale) SiO2 
 PCOD8257920
Probable space group: C M C M
;
_chemical_formula_sum "Si O2"
_cell_formula_units_Z 96
_cell_length_a 9.023197
_cell_length_b 24.428824
_cell_length_c 23.651318
_cell_angle_alpha 90.000000
_cell_angle_beta 90.000000
_cell_angle_gamma 90.000000
_cell_volume 5213.367584
_symmetry_space_group_name_H-M "C M C M"
_symmetry_group_IT_number 63
_symmetry_cell_setting 'orthorhombic'
loop_
_space_group_symop_operation_xyz
x,y,z
-x,-y,1/2+z
x,-y,-z
-x,y,1/2-z
-x,-y,-z
x,y,1/2-z
-x,y,z
x,-y,1/2+z
1/2+x,1/2+y,z
1/2-x,1/2-y,1/2+z
1/2+x,1/2-y,-z
1/2-x,1/2+y,1/2-z
1/2-x,1/2-y,-z
1/2+x,1/2+y,1/2-z
1/2-x,1/2+y,z
1/2+x,1/2-y,1/2+z
loop_
_atom_site_type_symbol
_atom_site_label
_atom_site_fract_x
_atom_site_fract_y
_atom_site_fract_z
Si Si1 0.324135 0.607583 0.750000
Si Si2 0.829688 0.828895 0.066787
Si Si3 0.171590 0.762182 0.637488
Si Si4 0.173213 0.938526 0.131968
Si Si5 0.169004 0.138446 0.057446
Si Si6 0.325180 0.974774 0.941152
Si Si7 0.176107 0.231959 0.750000
O O1 0.500000 0.610918 0.750000
O O2 0.267025 0.576095 0.694522
O O3 0.263721 0.669644 0.750000
O O4 0.724495 0.784848 0.095233
O O5 0.790228 0.888659 0.090322
O O6 0.000000 0.814118 0.081143
O O7 0.797480 0.828648 0.000151
O O8 0.197606 0.820998 0.609256
O O9 0.263893 0.762700 0.695015
O O10 0.000000 0.752002 0.650965
O O11 0.000000 0.951882 0.133058
O O12 0.257790 0.992136 0.111236
O O13 0.278309 0.087889 0.064296
O O14 0.000000 0.116841 0.056408
O O15 0.500000 0.978936 0.937775
O O16 0.265196 0.000000 0.000000
O O17 0.000000 0.234500 0.750000
#
# Coordination Sequence:
#
# PCOD8257920 Si02
#       7
#     8  16  16  16  16  16   8
#     4   9  18  35  58  85 110 143 190 232 271 331
#     4  10  19  34  59  87 116 154 192 230 282 348
#     4  11  23  37  56  87 121 151 192 243 292 339
#     4  10  19  35  60  85 113 149 191 231 278 344
#     4  10  22  39  58  83 117 158 197 231 281 353
#     4  11  23  37  56  85 116 146 188 242 293 338
#     4  11  21  39  62  83 112 153 200 238 281 351
#
# _framework density 18.414200999999998
#
# number of rings (size 3 to 8) (size 9 to 14) (size 15 to 20)
#    0.000    1.667    3.333    1.750    0.000    3.333 
#    0.000    1.250    0.000    2.000    0.000    0.000 
#    0.000    0.000    0.000    0.000    0.000    0.000 
#
# Total GULP energy -595437.861318 kJ/mol
# GULP energy per Si atom -12404.955444 kJ/mol
# Density = 1.837229 g / cm^3
# Si number density = 18.414201 Si / 1000 Ang^3
#
#
#
# Elastic Constant Matrix: (Units=GPa)
#
#
# Indices 1 2 3 4 5 6 
#
# 1 73.5043 47.3976 44.7843 0.0000 0.0000 0.0000
# 2 47.3976 87.5660 49.2067 0.0000 0.0000 0.0000
# 3 44.7843 49.2067 135.0169 0.0000 0.0000 0.0000
# 4 0.0000 0.0000 0.0000 30.1524 0.0000 0.0000
# 5 0.0000 0.0000 0.0000 0.0000 30.0727 0.0000
# 6 0.0000 0.0000 0.0000 0.0000 0.0000 32.7557
#
#
#
# Elastic Compliance Matrix: (Units=1/GPa)
#
#
# Indices 1 2 3 4 5 6 
#
# 1 0.022331 -0.009966 -0.003775 0.000000 0.000000 0.000000
# 2 -0.009966 0.018809 -0.003549 0.000000 0.000000 0.000000
# 3 -0.003775 -0.003549 0.009952 0.000000 0.000000 0.000000
# 4 0.000000 0.000000 0.000000 0.033165 0.000000 0.000000
# 5 0.000000 0.000000 0.000000 0.000000 0.033253 0.000000
# 6 0.000000 0.000000 0.000000 0.000000 0.000000 0.030529
#
#
# Mechanical properties :
#
#
# Convention : Reuss Voigt Hill
#
# Bulk Modulus (GPa) = 60.56348 64.31827 62.44088
# Shear Modulus (GPa) = 26.57840 28.90938 27.74389
#
# Velocity S-wave (km/s) = 3.80329 3.96656 3.88578
# Velocity P-wave (km/s) = 7.22825 7.48215 7.35630
#
# Compressibility (1/GPa) = 0.01651160
#
# Stress axis : x y z
#
# Youngs Moduli (GPa) = 44.78081 53.16675 100.48131
#
# Poissons Ratio (x) = 0.52986 0.37931
# Poissons Ratio (y) = 0.44629 0.35662
# Poissons Ratio (z) = 0.16905 0.18870
#
# Static dielectric constant tensor:
#      x y z
#    x 3.281510 0.000000 0.000000 
#    y 0.000000 3.243690 0.000000 
#    z 0.000000 0.000000 3.562160 
# 
# 
# High freq. dielectric constant tensor:
#      x y z
#    x 1.707110 0.000000 0.000000 
#    y 0.000000 1.707340 0.000000 
#    z 0.000000 0.000000 1.721730 
# 
# From -- ./inp_files/60011.got.cif
#   From: 2010.03.12/outbox.cif.g09.slc.cpg/sg63_31_cif.got.tgz:60011.got - 2010.04.10 19:34:48.
