data_PCOD8257436
_publ_section_title
;
Structure prediction by ZEFSAII (Michael W. Deem and Ramdas Pophale) SiO2 
 PCOD8257436
Probable space group: C M C M
;
_chemical_formula_sum "Si O2"
_cell_formula_units_Z 112
_cell_length_a 13.853175
_cell_length_b 14.785677
_cell_length_c 25.919482
_cell_angle_alpha 90.000000
_cell_angle_beta 90.000000
_cell_angle_gamma 90.000000
_cell_volume 5309.050458
_symmetry_space_group_name_H-M "C M C M"
_symmetry_group_IT_number 63
_symmetry_cell_setting 'orthorhombic'
loop_
_space_group_symop_operation_xyz
x,y,z
-x,-y,1/2+z
x,-y,-z
-x,y,1/2-z
-x,-y,-z
x,y,1/2-z
-x,y,z
x,-y,1/2+z
1/2+x,1/2+y,z
1/2-x,1/2-y,1/2+z
1/2+x,1/2-y,-z
1/2-x,1/2+y,1/2-z
1/2-x,1/2-y,-z
1/2+x,1/2+y,1/2-z
1/2-x,1/2+y,z
1/2+x,1/2-y,1/2+z
loop_
_atom_site_type_symbol
_atom_site_label
_atom_site_fract_x
_atom_site_fract_y
_atom_site_fract_z
Si Si1 0.108360 0.005116 0.555050
Si Si2 0.285293 0.777372 0.868081
Si Si3 0.887827 0.884031 0.189253
Si Si4 0.255372 0.471471 0.864012
Si Si5 0.608495 0.042003 0.553460
Si Si6 0.392357 0.752202 0.430478
Si Si7 0.891279 0.206672 0.958977
O O1 0.116232 0.110750 0.572374
O O2 0.000000 0.968408 0.550932
O O3 0.159665 0.000000 0.500000
O O4 0.162304 0.940467 0.595057
O O5 0.343856 0.709821 0.831654
O O6 0.287568 0.877512 0.841393
O O7 0.173951 0.752006 0.879253
O O8 0.331474 0.779205 0.925764
O O9 0.890687 0.874938 0.250000
O O10 0.000000 0.900177 0.169476
O O11 0.812478 0.965392 0.176560
O O12 0.172820 0.522502 0.895923
O O13 0.500000 0.006479 0.564659
O O14 0.610694 0.148375 0.545330
O O15 0.648428 0.000000 0.500000
O O16 0.500000 0.725861 0.412146
O O17 0.358565 0.693103 0.481014
O O18 0.000000 0.242366 0.959973
#
# Coordination Sequence:
#
# PCOD8257436 Si02
#       7
#    16  16  16  16  16  16  16
#     4  10  19  32  53  87 132 174 216 266 317 375
#     4  12  23  38  65  94 127 168 213 269 327 395
#     4  11  26  50  75  97 124 163 219 284 342 396
#     4  12  23  38  65  94 127 165 214 269 327 390
#     4  10  20  35  55  86 132 180 219 254 304 379
#     4  10  20  34  53  86 132 176 214 258 310 378
#     4  10  19  33  55  87 130 176 225 267 308 373
#
# _framework density 21.096050999999999
#
# number of rings (size 3 to 8) (size 9 to 14) (size 15 to 20)
#    0.000    1.286    2.857    3.429    0.000    5.143 
#    0.000    0.000    0.000    1.714    0.000    0.000 
#    0.000    0.000    0.000    0.000    0.000    0.000 
#
# Total GULP energy -693844.806396 kJ/mol
# GULP energy per Si atom -12390.085829 kJ/mol
# Density = 2.104804 g / cm^3
# Si number density = 21.096051 Si / 1000 Ang^3
#
#
#
# Elastic Constant Matrix: (Units=GPa)
#
#
# Indices 1 2 3 4 5 6 
#
# 1 111.0635 23.0200 35.1758 0.0000 0.0000 0.0000
# 2 23.0200 90.1800 15.2551 0.0000 0.0000 0.0000
# 3 35.1758 15.2551 63.3373 0.0000 0.0000 0.0000
# 4 0.0000 0.0000 0.0000 22.7742 0.0000 0.0000
# 5 0.0000 0.0000 0.0000 0.0000 21.7776 0.0000
# 6 0.0000 0.0000 0.0000 0.0000 0.0000 -11.1170
#
#
#
# Elastic Compliance Matrix: (Units=1/GPa)
#
#
# Indices 1 2 3 4 5 6 
#
# 1 0.011226 -0.001888 -0.005780 0.000000 0.000000 0.000000
# 2 -0.001888 0.011877 -0.001812 0.000000 0.000000 0.000000
# 3 -0.005780 -0.001812 0.019435 0.000000 0.000000 0.000000
# 4 0.000000 0.000000 0.000000 0.043909 0.000000 0.000000
# 5 0.000000 0.000000 0.000000 0.000000 0.045919 0.000000
# 6 0.000000 0.000000 0.000000 0.000000 0.000000 -0.089952
#
#
# Mechanical properties :
#
#
# Convention : Reuss Voigt Hill
#
# Bulk Modulus (GPa) = 42.41192 45.72026 44.06609
# Shear Modulus (GPa) = 72.21984 19.42894 45.82439
#
# Velocity S-wave (km/s) = 5.85731 3.03805 4.66572
# Velocity P-wave (km/s) = 8.11739 5.83316 7.06816
#
# Compressibility (1/GPa) = 0.02357828
#
# Stress axis : x y z
#
# Youngs Moduli (GPa) = 89.08135 84.19343 51.45383
#
# Poissons Ratio (x) = 0.15894 0.29739
# Poissons Ratio (y) = 0.16817 0.09325
# Poissons Ratio (z) = 0.51487 0.15258
#
# Static dielectric constant tensor:
#      x y z
#    x 4.080660 0.000000 0.000000 
#    y 0.000000 3.855910 0.000000 
#    z 0.000000 0.000000 3.387000 
# 
# 
# High freq. dielectric constant tensor:
#      x y z
#    x 1.841520 0.000000 0.000000 
#    y 0.000000 1.836350 0.000000 
#    z 0.000000 0.000000 1.776220 
# 
# From -- ./inp_files/69421.got.cif
#   From: 2010.03.12/outbox.cif.g09.slc.cpg/sg63_35_cif.got.tgz:69421.got - 2010.04.10 19:34:48.
