data_PCOD8257769
_publ_section_title
;
Structure prediction by ZEFSAII (Michael W. Deem and Ramdas Pophale) SiO2 
 PCOD8257769
Probable space group: C M C M
;
_chemical_formula_sum "Si O2"
_cell_formula_units_Z 104
_cell_length_a 32.183690
_cell_length_b 20.249377
_cell_length_c 8.961406
_cell_angle_alpha 90.000000
_cell_angle_beta 90.000000
_cell_angle_gamma 90.000000
_cell_volume 5840.145351
_symmetry_space_group_name_H-M "C M C M"
_symmetry_group_IT_number 63
_symmetry_cell_setting 'orthorhombic'
loop_
_space_group_symop_operation_xyz
x,y,z
-x,-y,1/2+z
x,-y,-z
-x,y,1/2-z
-x,-y,-z
x,y,1/2-z
-x,y,z
x,-y,1/2+z
1/2+x,1/2+y,z
1/2-x,1/2-y,1/2+z
1/2+x,1/2-y,-z
1/2-x,1/2+y,1/2-z
1/2-x,1/2-y,-z
1/2+x,1/2+y,1/2-z
1/2-x,1/2+y,z
1/2+x,1/2-y,1/2+z
loop_
_atom_site_type_symbol
_atom_site_label
_atom_site_fract_x
_atom_site_fract_y
_atom_site_fract_z
Si Si1 0.351272 0.170691 0.077281
Si Si2 0.280144 0.932403 0.926012
Si Si3 0.453740 0.299335 0.919287
Si Si4 0.432381 0.147406 0.581993
Si Si5 0.370064 0.681225 0.576176
Si Si6 0.307799 0.567989 0.928483
Si Si7 0.000000 0.568497 0.077450
O O1 0.364331 0.162959 0.250000
O O2 0.309047 0.131190 0.044243
O O3 0.348743 0.248465 0.034748
O O4 0.385253 0.138526 0.970114
O O5 0.273883 0.944803 0.750000
O O6 0.236918 0.914379 0.003962
O O7 0.298254 0.000000 0.000000
O O8 0.450688 0.324263 0.750000
O O9 0.500000 0.317596 0.983158
O O10 0.448498 0.221357 0.927931
O O11 0.415771 0.332003 0.008248
O O12 0.436960 0.120107 0.750000
O O13 0.458821 0.106222 0.467298
O O14 0.376945 0.675503 0.750000
O O15 0.339175 0.624859 0.518396
O O16 0.304757 0.562288 0.750000
O O17 0.324269 0.500000 0.000000
O O18 0.000000 0.556653 0.250000
O O19 0.000000 0.500000 0.000000
#
# Coordination Sequence:
#
# PCOD8257769 Si02
#       7
#    16  16  16  16  16  16   8
#     4   9  19  35  52  75 105 136 173 215 260 308
#     4  10  20  34  53  74 101 137 177 215 255 310
#     4   9  17  31  52  77 105 133 164 205 251 303
#     4  10  19  34  52  72 100 131 167 212 258 307
#     4   9  19  34  52  78 106 134 172 215 258 307
#     4  10  20  35  55  77 104 135 171 213 257 313
#     4  12  24  36  50  68  94 132 175 218 263 308
#
# _framework density 17.807774999999999
#
# number of rings (size 3 to 8) (size 9 to 14) (size 15 to 20)
#    0.000    2.308    0.769    3.000    0.000    4.615 
#    0.000    1.538    0.000    0.462    0.000    0.000 
#    0.000    0.000    0.000    0.000    0.000    0.000 
#
# Total GULP energy -644597.070288 kJ/mol
# GULP energy per Si atom -12396.097506 kJ/mol
# Density = 1.776724 g / cm^3
# Si number density = 17.807775 Si / 1000 Ang^3
#
#
#
# Elastic Constant Matrix: (Units=GPa)
#
#
# Indices 1 2 3 4 5 6 
#
# 1 130.2722 75.4761 52.0830 0.0000 0.0000 0.0000
# 2 75.4761 90.5747 43.8314 0.0000 0.0000 0.0000
# 3 52.0830 43.8314 93.7252 0.0000 0.0000 0.0000
# 4 0.0000 0.0000 0.0000 24.6407 0.0000 0.0000
# 5 0.0000 0.0000 0.0000 0.0000 34.0432 0.0000
# 6 0.0000 0.0000 0.0000 0.0000 0.0000 37.7889
#
#
#
# Elastic Compliance Matrix: (Units=1/GPa)
#
#
# Indices 1 2 3 4 5 6 
#
# 1 0.015615 -0.011391 -0.003350 0.000000 0.000000 0.000000
# 2 -0.011391 0.022580 -0.004230 0.000000 0.000000 0.000000
# 3 -0.003350 -0.004230 0.014509 0.000000 0.000000 0.000000
# 4 0.000000 0.000000 0.000000 0.040583 0.000000 0.000000
# 5 0.000000 0.000000 0.000000 0.000000 0.029374 0.000000
# 6 0.000000 0.000000 0.000000 0.000000 0.000000 0.026463
#
#
# Mechanical properties :
#
#
# Convention : Reuss Voigt Hill
#
# Bulk Modulus (GPa) = 67.73977 73.03923 70.38950
# Shear Modulus (GPa) = 26.04341 28.84000 27.44171
#
# Velocity S-wave (km/s) = 3.82838 4.02869 3.92981
# Velocity P-wave (km/s) = 7.59368 7.92116 7.75915
#
# Compressibility (1/GPa) = 0.01476238
#
# Stress axis : x y z
#
# Youngs Moduli (GPa) = 64.03968 44.28791 68.92158
#
# Poissons Ratio (x) = 0.50448 0.23091
# Poissons Ratio (y) = 0.72947 0.29151
# Poissons Ratio (z) = 0.21455 0.18732
#
# Static dielectric constant tensor:
#      x y z
#    x 3.392260 0.000000 0.000000 
#    y 0.000000 3.221500 0.000000 
#    z 0.000000 0.000000 110.414350 
# 
# 
# High freq. dielectric constant tensor:
#      x y z
#    x 1.692160 0.000000 0.000000 
#    y 0.000000 1.670980 0.000000 
#    z 0.000000 0.000000 1.696760 
# 
# From -- ./inp_files/14470.got.cif
#   From: 2010.03.12/outbox.cif.g09.slc.cpg/sg63_8_cif.got.tgz:14470.got - 2010.04.10 19:34:48.
