data_PCOD8257963
_publ_section_title
;
Structure prediction by ZEFSAII (Michael W. Deem and Ramdas Pophale) SiO2 
 PCOD8257963
Probable space group: C M C M
;
_chemical_formula_sum "Si O2"
_cell_formula_units_Z 96
_cell_length_a 18.610042
_cell_length_b 10.151563
_cell_length_c 28.759710
_cell_angle_alpha 90.000000
_cell_angle_beta 90.000000
_cell_angle_gamma 90.000000
_cell_volume 5433.313570
_symmetry_space_group_name_H-M "C M C M"
_symmetry_group_IT_number 63
_symmetry_cell_setting 'orthorhombic'
loop_
_space_group_symop_operation_xyz
x,y,z
-x,-y,1/2+z
x,-y,-z
-x,y,1/2-z
-x,-y,-z
x,y,1/2-z
-x,y,z
x,-y,1/2+z
1/2+x,1/2+y,z
1/2-x,1/2-y,1/2+z
1/2+x,1/2-y,-z
1/2-x,1/2+y,1/2-z
1/2-x,1/2-y,-z
1/2+x,1/2+y,1/2-z
1/2-x,1/2+y,z
1/2+x,1/2-y,1/2+z
loop_
_atom_site_type_symbol
_atom_site_label
_atom_site_fract_x
_atom_site_fract_y
_atom_site_fract_z
Si Si1 0.313426 0.975111 0.303045
Si Si2 0.188902 0.224409 0.696705
Si Si3 0.082449 0.472993 0.384284
Si Si4 0.830251 0.622066 0.968116
Si Si5 0.417727 0.722552 0.615599
Si Si6 0.163486 0.127076 0.528827
O O1 0.336317 0.949714 0.250000
O O2 0.252122 0.873515 0.318730
O O3 0.384143 0.949584 0.333488
O O4 0.284688 0.124633 0.310023
O O5 0.165926 0.198239 0.750000
O O6 0.120532 0.194172 0.664625
O O7 0.124670 0.383023 0.420870
O O8 0.090274 0.625173 0.398980
O O9 0.000000 0.428094 0.382607
O O10 0.746274 0.621757 0.955342
O O11 0.851326 0.500000 0.000000
O O12 0.852783 0.751833 0.995258
O O13 0.500000 0.681335 0.622010
O O14 0.383424 0.634007 0.575276
O O15 0.140293 0.000000 0.500000
#
# Coordination Sequence:
#
# PCOD8257963 Si02
#       6
#    16  16  16  16  16  16
#     4   9  18  34  56  80 105 134 171 214 257 303
#     4   9  18  34  57  81 103 133 173 214 256 303
#     4  10  20  33  53  79 105 137 174 212 256 308
#     4  10  19  35  55  76 100 134 177 214 254 300
#     4  10  20  34  52  77 109 139 169 211 259 307
#     4  10  21  35  54  77 103 136 174 219 260 301
#
# _framework density 17.668775
#
# number of rings (size 3 to 8) (size 9 to 14) (size 15 to 20)
#    0.000    2.333    1.667    1.000    0.000    2.000 
#    3.000    3.333    0.000    0.000    0.000    4.667 
#    0.000    0.000    0.000    0.000    0.000    0.000 
#
# Total GULP energy -595315.530986 kJ/mol
# GULP energy per Si atom -12402.406896 kJ/mol
# Density = 1.762856 g / cm^3
# Si number density = 17.668775 Si / 1000 Ang^3
#
#
#
# Elastic Constant Matrix: (Units=GPa)
#
#
# Indices 1 2 3 4 5 6 
#
# 1 118.7657 51.8054 78.3330 0.0000 0.0000 0.0000
# 2 51.8054 93.3856 51.8699 0.0000 0.0000 0.0000
# 3 78.3330 51.8699 114.0608 0.0000 0.0000 0.0000
# 4 0.0000 0.0000 0.0000 20.8773 0.0000 0.0000
# 5 0.0000 0.0000 0.0000 0.0000 22.7625 0.0000
# 6 0.0000 0.0000 0.0000 0.0000 0.0000 36.5983
#
#
#
# Elastic Compliance Matrix: (Units=1/GPa)
#
#
# Indices 1 2 3 4 5 6 
#
# 1 0.016335 -0.003787 -0.009496 0.000000 0.000000 0.000000
# 2 -0.003787 0.015205 -0.004314 0.000000 0.000000 0.000000
# 3 -0.009496 -0.004314 0.017251 0.000000 0.000000 0.000000
# 4 0.000000 0.000000 0.000000 0.047899 0.000000 0.000000
# 5 0.000000 0.000000 0.000000 0.000000 0.043932 0.000000
# 6 0.000000 0.000000 0.000000 0.000000 0.000000 0.027324
#
#
# Mechanical properties :
#
#
# Convention : Reuss Voigt Hill
#
# Bulk Modulus (GPa) = 73.54728 76.69207 75.11968
# Shear Modulus (GPa) = 24.07638 25.66120 24.86879
#
# Velocity S-wave (km/s) = 3.69542 3.81510 3.75574
# Velocity P-wave (km/s) = 7.74106 7.93135 7.83678
#
# Compressibility (1/GPa) = 0.01359670
#
# Stress axis : x y z
#
# Youngs Moduli (GPa) = 61.21716 65.76647 57.96912
#
# Poissons Ratio (x) = 0.24908 0.55048
# Poissons Ratio (y) = 0.23185 0.25006
# Poissons Ratio (z) = 0.58133 0.28369
#
# Static dielectric constant tensor:
#      x y z
#    x 3.157700 0.000000 0.000000 
#    y 0.000000 3.210820 0.000000 
#    z 0.000000 0.000000 3.273190 
# 
# 
# High freq. dielectric constant tensor:
#      x y z
#    x 1.671070 0.000000 0.000000 
#    y 0.000000 1.674820 0.000000 
#    z 0.000000 0.000000 1.694130 
# 
# From -- ./inp_files/63698.got.cif
#   From: 2010.03.12/outbox.cif.g09.slc.cpg/sg63_32_cif.got.tgz:63698.got - 2010.04.10 19:34:48.
