data_PCOD8257926
_publ_section_title
;
Structure prediction by ZEFSAII (Michael W. Deem and Ramdas Pophale) SiO2 
 PCOD8257926
Probable space group: C M C M
;
_chemical_formula_sum "Si O2"
_cell_formula_units_Z 128
_cell_length_a 23.317314
_cell_length_b 12.073305
_cell_length_c 22.638845
_cell_angle_alpha 90.000000
_cell_angle_beta 90.000000
_cell_angle_gamma 90.000000
_cell_volume 6373.220717
_symmetry_space_group_name_H-M "C M C M"
_symmetry_group_IT_number 63
_symmetry_cell_setting 'orthorhombic'
loop_
_space_group_symop_operation_xyz
x,y,z
-x,-y,1/2+z
x,-y,-z
-x,y,1/2-z
-x,-y,-z
x,y,1/2-z
-x,y,z
x,-y,1/2+z
1/2+x,1/2+y,z
1/2-x,1/2-y,1/2+z
1/2+x,1/2-y,-z
1/2-x,1/2+y,1/2-z
1/2-x,1/2-y,-z
1/2+x,1/2+y,1/2-z
1/2-x,1/2+y,z
1/2+x,1/2-y,1/2+z
loop_
_atom_site_type_symbol
_atom_site_label
_atom_site_fract_x
_atom_site_fract_y
_atom_site_fract_z
Si Si1 0.565590 0.786398 0.686680
Si Si2 0.433531 0.608142 0.901720
Si Si3 0.333111 0.653624 0.979567
Si Si4 0.934956 0.506516 0.115329
Si Si5 0.785337 0.033793 0.409172
Si Si6 0.934599 0.708420 0.816180
Si Si7 0.622010 0.438581 0.681294
Si Si8 0.671013 0.089181 0.047379
O O1 0.596004 0.764962 0.750000
O O2 0.500000 0.747482 0.691233
O O3 0.592651 0.713773 0.634331
O O4 0.570041 0.915885 0.672636
O O5 0.500000 0.618302 0.919329
O O6 0.397084 0.609776 0.962170
O O7 0.424042 0.503525 0.858954
O O8 0.289595 0.592826 0.933681
O O9 0.327823 0.786248 0.977177
O O10 0.319679 0.615209 0.045940
O O11 0.917368 0.384191 0.135962
O O12 0.892613 0.552822 0.065755
O O13 0.000000 0.509454 0.089946
O O14 0.814348 0.041092 0.344599
O O15 0.719446 0.074746 0.401591
O O16 0.928000 0.660149 0.750000
O O17 0.892172 0.809920 0.825252
O O18 0.000000 0.747216 0.826463
O O19 0.618926 0.476552 0.750000
O O20 0.692865 0.000000 0.000000
#
# Coordination Sequence:
#
# PCOD8257926 Si02
#       8
#    16  16  16  16  16  16  16  16
#     4   9  16  29  51  78 112 151 183 222 285 352
#     4  10  19  34  59  89 122 152 191 246 300 352
#     4  10  21  41  60  88 114 152 202 247 292 345
#     4  10  21  36  54  86 119 148 189 243 298 352
#     4  10  23  41  63  84 115 156 202 247 292 348
#     4   9  18  34  56  83 119 161 198 232 283 357
#     4  10  21  37  60  88 121 158 199 247 293 346
#     4  12  24  38  65  87 110 157 200 245 293 355
#
# _framework density 20.084036999999999
#
# number of rings (size 3 to 8) (size 9 to 14) (size 15 to 20)
#    0.000    2.000    2.500    1.500    1.750    3.000 
#    0.000    6.875    0.000    1.500    0.000    0.000 
#    0.000    0.000    0.000    0.000    0.000    0.000 
#
# Total GULP energy -793195.461061 kJ/mol
# GULP energy per Si atom -12393.679079 kJ/mol
# Density = 2.003833 g / cm^3
# Si number density = 20.084037 Si / 1000 Ang^3
#
#
#
# Elastic Constant Matrix: (Units=GPa)
#
#
# Indices 1 2 3 4 5 6 
#
# 1 93.7776 24.5315 24.0730 0.0000 0.0000 0.0000
# 2 24.5315 117.1153 20.6688 0.0000 0.0000 0.0000
# 3 24.0730 20.6688 50.3480 0.0000 0.0000 0.0000
# 4 0.0000 0.0000 0.0000 23.6869 0.0000 0.0000
# 5 0.0000 0.0000 0.0000 0.0000 19.2951 0.0000
# 6 0.0000 0.0000 0.0000 0.0000 0.0000 18.5449
#
#
#
# Elastic Compliance Matrix: (Units=1/GPa)
#
#
# Indices 1 2 3 4 5 6 
#
# 1 0.012455 -0.001680 -0.005265 0.000000 0.000000 0.000000
# 2 -0.001680 0.009432 -0.003069 0.000000 0.000000 0.000000
# 3 -0.005265 -0.003069 0.023639 0.000000 0.000000 0.000000
# 4 0.000000 0.000000 0.000000 0.042217 0.000000 0.000000
# 5 0.000000 0.000000 0.000000 0.000000 0.051827 0.000000
# 6 0.000000 0.000000 0.000000 0.000000 0.000000 0.053923
#
#
# Mechanical properties :
#
#
# Convention : Reuss Voigt Hill
#
# Bulk Modulus (GPa) = 39.21895 44.42083 41.81989
# Shear Modulus (GPa) = 22.52048 25.10322 23.81185
#
# Velocity S-wave (km/s) = 3.35223 3.53924 3.44701
# Velocity P-wave (km/s) = 5.87819 6.23435 6.05889
#
# Compressibility (1/GPa) = 0.02549788
#
# Stress axis : x y z
#
# Youngs Moduli (GPa) = 80.29205 106.02186 42.30259
#
# Poissons Ratio (x) = 0.17807 0.22274
# Poissons Ratio (y) = 0.13485 0.12983
# Poissons Ratio (z) = 0.42277 0.32538
#
# Static dielectric constant tensor:
#      x y z
#    x 3.543990 0.000000 0.000000 
#    y 0.000000 3.749890 0.000000 
#    z 0.000000 0.000000 3.510630 
# 
# 
# High freq. dielectric constant tensor:
#      x y z
#    x 1.766310 0.000000 0.000000 
#    y 0.000000 1.796280 0.000000 
#    z 0.000000 0.000000 1.763830 
# 
# From -- ./inp_files/65188.got.cif
#   From: 2010.03.12/outbox.cif.g09.slc.cpg/sg63_33_cif.got.tgz:65188.got - 2010.04.10 19:34:48.
