data_PCOD8257657
_publ_section_title
;
Structure prediction by ZEFSAII (Michael W. Deem and Ramdas Pophale) SiO2 
 PCOD8257657
Probable space group: C M C M
;
_chemical_formula_sum "Si O2"
_cell_formula_units_Z 88
_cell_length_a 22.292512
_cell_length_b 28.030196
_cell_length_c 7.661942
_cell_angle_alpha 90.000000
_cell_angle_beta 90.000000
_cell_angle_gamma 90.000000
_cell_volume 4787.667747
_symmetry_space_group_name_H-M "C M C M"
_symmetry_group_IT_number 63
_symmetry_cell_setting 'orthorhombic'
loop_
_space_group_symop_operation_xyz
x,y,z
-x,-y,1/2+z
x,-y,-z
-x,y,1/2-z
-x,-y,-z
x,y,1/2-z
-x,y,z
x,-y,1/2+z
1/2+x,1/2+y,z
1/2-x,1/2-y,1/2+z
1/2+x,1/2-y,-z
1/2-x,1/2+y,1/2-z
1/2-x,1/2-y,-z
1/2+x,1/2+y,1/2-z
1/2-x,1/2+y,z
1/2+x,1/2-y,1/2+z
loop_
_atom_site_type_symbol
_atom_site_label
_atom_site_fract_x
_atom_site_fract_y
_atom_site_fract_z
Si Si1 0.431381 0.861552 0.055465
Si Si2 0.148654 0.447208 0.954933
Si Si3 0.109822 0.117234 0.458923
Si Si4 0.428016 0.313298 0.250000
Si Si5 0.717382 0.552188 0.453848
Si Si6 0.000000 0.054659 0.047343
Si Si7 0.428973 0.794598 0.750000
O O1 0.426762 0.839927 0.250000
O O2 0.500000 0.874031 0.007017
O O3 0.394168 0.910099 0.049618
O O4 0.405335 0.822302 0.921642
O O5 0.146447 0.437732 0.750000
O O6 0.216080 0.440849 0.033625
O O7 0.125208 0.500000 0.000000
O O8 0.107070 0.128345 0.250000
O O9 0.099435 0.164677 0.572072
O O10 0.172710 0.093626 0.518158
O O11 0.059299 0.080160 0.524298
O O12 0.500000 0.317558 0.250000
O O13 0.404391 0.259043 0.250000
O O14 0.691201 0.500000 0.500000
O O15 0.722920 0.555990 0.250000
O O16 0.000000 0.061305 0.250000
O O17 0.000000 0.000000 0.000000
O O18 0.500000 0.792347 0.750000
#
# Coordination Sequence:
#
# PCOD8257657 Si02
#       7
#    16  16  16   8  16   8   8
#     4  10  20  36  58  84 113 142 178 219 271 324
#     4  10  19  33  54  83 117 150 183 218 259 320
#     4  10  21  36  50  77 110 140 182 232 274 321
#     4  11  22  36  60  81 104 140 183 230 289 327
#     4   9  19  33  51  77 109 148 188 222 263 322
#     4  10  20  30  48  72 106 146 174 217 273 323
#     4   9  20  38  58  83 106 138 180 229 274 328
#
# _framework density 18.380555999999999
#
# number of rings (size 3 to 8) (size 9 to 14) (size 15 to 20)
#    0.000    2.182    1.818    1.091    2.545    1.818 
#    0.000    1.818    0.000    1.091    0.000    0.000 
#    0.000    0.000    0.000    0.000    0.000    0.000 
#
# Total GULP energy -545474.522149 kJ/mol
# GULP energy per Si atom -12397.148231 kJ/mol
# Density = 1.833872 g / cm^3
# Si number density = 18.380556 Si / 1000 Ang^3
#
#
#
# Elastic Constant Matrix: (Units=GPa)
#
#
# Indices 1 2 3 4 5 6 
#
# 1 74.3151 55.7845 30.1870 0.0000 0.0000 0.0000
# 2 55.7845 148.8072 52.3273 0.0000 0.0000 0.0000
# 3 30.1870 52.3273 86.4193 0.0000 0.0000 0.0000
# 4 0.0000 0.0000 0.0000 28.8628 0.0000 0.0000
# 5 0.0000 0.0000 0.0000 0.0000 7.4231 0.0000
# 6 0.0000 0.0000 0.0000 0.0000 0.0000 22.8931
#
#
#
# Elastic Compliance Matrix: (Units=1/GPa)
#
#
# Indices 1 2 3 4 5 6 
#
# 1 0.019320 -0.006187 -0.003002 0.000000 0.000000 0.000000
# 2 -0.006187 0.010519 -0.004208 0.000000 0.000000 0.000000
# 3 -0.003002 -0.004208 0.015168 0.000000 0.000000 0.000000
# 4 0.000000 0.000000 0.000000 0.034647 0.000000 0.000000
# 5 0.000000 0.000000 0.000000 0.000000 0.134714 0.000000
# 6 0.000000 0.000000 0.000000 0.000000 0.000000 0.043681
#
#
# Mechanical properties :
#
#
# Convention : Reuss Voigt Hill
#
# Bulk Modulus (GPa) = 54.90774 65.12659 60.01716
# Shear Modulus (GPa) = 17.18709 23.25200 20.21954
#
# Velocity S-wave (km/s) = 3.06121 3.56059 3.32030
# Velocity P-wave (km/s) = 6.51400 7.23968 6.88641
#
# Compressibility (1/GPa) = 0.01821237
#
# Stress axis : x y z
#
# Youngs Moduli (GPa) = 51.75995 95.06381 65.92634
#
# Poissons Ratio (x) = 0.58814 0.19794
# Poissons Ratio (y) = 0.32023 0.27744
# Poissons Ratio (z) = 0.15541 0.40006
#
# Static dielectric constant tensor:
#      x y z
#    x 3.800580 0.000000 0.000000 
#    y 0.000000 3.266760 0.000000 
#    z 0.000000 0.000000 3.556720 
# 
# 
# High freq. dielectric constant tensor:
#      x y z
#    x 1.700360 0.000000 0.000000 
#    y 0.000000 1.693280 0.000000 
#    z 0.000000 0.000000 1.723100 
# 
# From -- ./inp_files/8269.got.cif
#   From: 2010.03.12/outbox.cif.g09.slc.cpg/sg63_5_cif.got.tgz:8269.got - 2010.04.10 19:34:48.
