data_PCOD8257799
_publ_section_title
;
Structure prediction by ZEFSAII (Michael W. Deem and Ramdas Pophale) SiO2 
 PCOD8257799
Probable space group: C M C M
;
_chemical_formula_sum "Si O2"
_cell_formula_units_Z 112
_cell_length_a 9.264557
_cell_length_b 20.467264
_cell_length_c 32.953615
_cell_angle_alpha 90.000000
_cell_angle_beta 90.000000
_cell_angle_gamma 90.000000
_cell_volume 6248.668891
_symmetry_space_group_name_H-M "C M C M"
_symmetry_group_IT_number 63
_symmetry_cell_setting 'orthorhombic'
loop_
_space_group_symop_operation_xyz
x,y,z
-x,-y,1/2+z
x,-y,-z
-x,y,1/2-z
-x,-y,-z
x,y,1/2-z
-x,y,z
x,-y,1/2+z
1/2+x,1/2+y,z
1/2-x,1/2-y,1/2+z
1/2+x,1/2-y,-z
1/2-x,1/2+y,1/2-z
1/2-x,1/2-y,-z
1/2+x,1/2+y,1/2-z
1/2-x,1/2+y,z
1/2+x,1/2-y,1/2+z
loop_
_atom_site_type_symbol
_atom_site_label
_atom_site_fract_x
_atom_site_fract_y
_atom_site_fract_z
Si Si1 0.167253 0.633847 0.909400
Si Si2 0.171096 0.246866 0.633874
Si Si3 0.163978 0.806958 0.703500
Si Si4 0.330845 0.995722 0.872111
Si Si5 0.170358 0.630656 0.081867
Si Si6 0.331227 0.182017 0.502623
Si Si7 0.669019 0.542571 0.295709
O O1 0.264722 0.679254 0.881520
O O2 0.203771 0.559677 0.898173
O O3 0.208240 0.643751 0.956442
O O4 0.000000 0.650549 0.901519
O O5 0.228848 0.260391 0.678900
O O6 0.227623 0.305159 0.605001
O O7 0.000000 0.241266 0.634648
O O8 0.177246 0.785701 0.750000
O O9 0.000000 0.797481 0.688218
O O10 0.211678 0.881944 0.697942
O O11 0.500000 0.987537 0.864230
O O12 0.255263 0.000734 0.828208
O O13 0.265421 0.934703 0.897639
O O14 0.000000 0.627095 0.085633
O O15 0.217718 0.635840 0.034823
O O16 0.500000 0.198046 0.499576
O O17 0.250000 0.250000 0.500000
O O18 0.711752 0.520649 0.250000
O O19 0.500000 0.532233 0.302543
#
# Coordination Sequence:
#
# PCOD8257799 Si02
#       7
#    16  16  16  16  16  16  16
#     4  10  22  36  54  78 108 146 182 220 268 323
#     4  11  20  33  55  81 108 139 177 223 267 314
#     4   9  18  33  54  81 111 139 173 220 269 320
#     4  10  20  36  54  79 111 141 179 221 267 321
#     4   9  18  32  53  79 105 135 174 221 265 307
#     4  10  19  34  54  78 106 139 180 223 268 317
#     4   9  18  33  54  80 108 139 175 216 264 317
#
# _framework density 17.923817
#
# number of rings (size 3 to 8) (size 9 to 14) (size 15 to 20)
#    0.000    2.286    2.857    1.286    0.000    1.714 
#    0.000    5.714    0.000    0.857    0.000    3.000 
#    0.000    0.000    0.000    0.000    0.000    0.000 
#
# Total GULP energy -694438.789543 kJ/mol
# GULP energy per Si atom -12400.692670 kJ/mol
# Density = 1.788302 g / cm^3
# Si number density = 17.923817 Si / 1000 Ang^3
#
#
#
# Elastic Constant Matrix: (Units=GPa)
#
#
# Indices 1 2 3 4 5 6 
#
# 1 50.2470 38.0974 45.6447 0.0000 0.0000 0.0000
# 2 38.0974 96.2800 56.4630 0.0000 0.0000 0.0000
# 3 45.6447 56.4630 134.7119 0.0000 0.0000 0.0000
# 4 0.0000 0.0000 0.0000 32.1067 0.0000 0.0000
# 5 0.0000 0.0000 0.0000 0.0000 26.3686 0.0000
# 6 0.0000 0.0000 0.0000 0.0000 0.0000 24.8139
#
#
#
# Elastic Compliance Matrix: (Units=1/GPa)
#
#
# Indices 1 2 3 4 5 6 
#
# 1 0.033526 -0.008757 -0.007689 0.000000 0.000000 0.000000
# 2 -0.008757 0.016059 -0.003764 0.000000 0.000000 0.000000
# 3 -0.007689 -0.003764 0.011606 0.000000 0.000000 0.000000
# 4 0.000000 0.000000 0.000000 0.031146 0.000000 0.000000
# 5 0.000000 0.000000 0.000000 0.000000 0.037924 0.000000
# 6 0.000000 0.000000 0.000000 0.000000 0.000000 0.040300
#
#
# Mechanical properties :
#
#
# Convention : Reuss Voigt Hill
#
# Bulk Modulus (GPa) = 48.14357 62.40548 55.27452
# Shear Modulus (GPa) = 22.94584 26.06009 24.50296
#
# Velocity S-wave (km/s) = 3.58185 3.81719 3.70139
# Velocity P-wave (km/s) = 6.63511 7.37025 7.01232
#
# Compressibility (1/GPa) = 0.02077121
#
# Stress axis : x y z
#
# Youngs Moduli (GPa) = 29.82745 62.27207 86.16063
#
# Poissons Ratio (x) = 0.54529 0.66253
# Poissons Ratio (y) = 0.26119 0.32429
# Poissons Ratio (z) = 0.22936 0.23438
#
# Static dielectric constant tensor:
#      x y z
#    x 3.127630 0.000000 0.000000 
#    y 0.000000 3.260950 0.000000 
#    z 0.000000 0.000000 3.506310 
# 
# 
# High freq. dielectric constant tensor:
#      x y z
#    x 1.677110 0.000000 0.000000 
#    y 0.000000 1.677530 0.000000 
#    z 0.000000 0.000000 1.706980 
# 
# From -- ./inp_files/68608.got.cif
#   From: 2010.03.12/outbox.cif.g09.slc.cpg/sg63_35_cif.got.tgz:68608.got - 2010.04.10 19:34:48.
