data_PCOD8257878
_publ_section_title
;
Structure prediction by ZEFSAII (Michael W. Deem and Ramdas Pophale) SiO2 
 PCOD8257878
Probable space group: C M C M
;
_chemical_formula_sum "Si O2"
_cell_formula_units_Z 88
_cell_length_a 27.589113
_cell_length_b 19.590592
_cell_length_c 9.150588
_cell_angle_alpha 90.000000
_cell_angle_beta 90.000000
_cell_angle_gamma 90.000000
_cell_volume 4945.774373
_symmetry_space_group_name_H-M "C M C M"
_symmetry_group_IT_number 63
_symmetry_cell_setting 'orthorhombic'
loop_
_space_group_symop_operation_xyz
x,y,z
-x,-y,1/2+z
x,-y,-z
-x,y,1/2-z
-x,-y,-z
x,y,1/2-z
-x,y,z
x,-y,1/2+z
1/2+x,1/2+y,z
1/2-x,1/2-y,1/2+z
1/2+x,1/2-y,-z
1/2-x,1/2+y,1/2-z
1/2-x,1/2-y,-z
1/2+x,1/2+y,1/2-z
1/2-x,1/2+y,z
1/2+x,1/2-y,1/2+z
loop_
_atom_site_type_symbol
_atom_site_label
_atom_site_fract_x
_atom_site_fract_y
_atom_site_fract_z
Si Si1 0.918327 0.672955 0.577936
Si Si2 0.376413 0.428803 0.420993
Si Si3 0.056266 0.176757 0.418051
Si Si4 0.686464 0.197858 0.920958
Si Si5 0.208715 0.166307 0.919066
Si Si6 0.500000 0.072376 0.924363
O O1 0.925699 0.674132 0.750000
O O2 0.934250 0.747231 0.519341
O O3 0.862354 0.657438 0.532184
O O4 0.952801 0.613392 0.516825
O O5 0.383245 0.500000 0.500000
O O6 0.385828 0.438834 0.250000
O O7 0.415173 0.375821 0.481632
O O8 0.321741 0.401831 0.452024
O O9 0.073969 0.170523 0.250000
O O10 0.000000 0.158781 0.430847
O O11 0.685192 0.212003 0.750000
O O12 0.734788 0.155526 0.965860
O O13 0.685272 0.271811 0.993445
O O14 0.205510 0.186457 0.750000
O O15 0.500000 0.063204 0.750000
O O16 0.500000 0.000000 0.000000
#
# Coordination Sequence:
#
# PCOD8257878 Si02
#       6
#    16  16  16  16  16   8
#     4   9  16  30  55  80 103 135 173 211 254 312
#     4  11  23  37  52  73 107 145 179 218 265 316
#     4  10  19  34  57  82 103 131 177 222 262 314
#     4   9  16  29  53  78 100 131 170 212 260 310
#     4   9  18  31  48  76 106 130 166 217 262 304
#     4  10  20  36  54  78 109 140 173 208 255 312
#
# _framework density 17.792967999999998
#
# number of rings (size 3 to 8) (size 9 to 14) (size 15 to 20)
#    0.000    2.364    2.727    0.545    0.000    1.455 
#    0.000    2.727    0.000    0.000    0.000    0.000 
#    0.000    0.000    0.000    0.000    0.000    0.000 
#
# Total GULP energy -545416.500515 kJ/mol
# GULP energy per Si atom -12395.829557 kJ/mol
# Density = 1.775247 g / cm^3
# Si number density = 17.792968 Si / 1000 Ang^3
#
#
#
# Elastic Constant Matrix: (Units=GPa)
#
#
# Indices 1 2 3 4 5 6 
#
# 1 140.9663 73.3507 38.2742 0.0000 0.0000 0.0000
# 2 73.3507 133.7315 43.1088 0.0000 0.0000 0.0000
# 3 38.2742 43.1088 49.7552 0.0000 0.0000 0.0000
# 4 0.0000 0.0000 0.0000 25.6697 0.0000 0.0000
# 5 0.0000 0.0000 0.0000 0.0000 21.3729 0.0000
# 6 0.0000 0.0000 0.0000 0.0000 0.0000 26.0899
#
#
#
# Elastic Compliance Matrix: (Units=1/GPa)
#
#
# Indices 1 2 3 4 5 6 
#
# 1 0.010552 -0.004400 -0.004305 0.000000 0.000000 0.000000
# 2 -0.004400 0.012210 -0.007194 0.000000 0.000000 0.000000
# 3 -0.004305 -0.007194 0.029643 0.000000 0.000000 0.000000
# 4 0.000000 0.000000 0.000000 0.038956 0.000000 0.000000
# 5 0.000000 0.000000 0.000000 0.000000 0.046788 0.000000
# 6 0.000000 0.000000 0.000000 0.000000 0.000000 0.038329
#
#
# Mechanical properties :
#
#
# Convention : Reuss Voigt Hill
#
# Bulk Modulus (GPa) = 48.52744 70.43561 59.48153
# Shear Modulus (GPa) = 23.23986 25.94113 24.59049
#
# Velocity S-wave (km/s) = 3.61796 3.82244 3.72161
# Velocity P-wave (km/s) = 6.69219 7.69114 7.20899
#
# Compressibility (1/GPa) = 0.02060690
#
# Stress axis : x y z
#
# Youngs Moduli (GPa) = 94.76563 81.89838 33.73430
#
# Poissons Ratio (x) = 0.36036 0.14523
# Poissons Ratio (y) = 0.41698 0.24270
# Poissons Ratio (z) = 0.40797 0.58921
#
# Static dielectric constant tensor:
#      x y z
#    x 3.814900 0.000000 0.000000 
#    y 0.000000 3.120400 0.000000 
#    z 0.000000 0.000000 3.158600 
# 
# 
# High freq. dielectric constant tensor:
#      x y z
#    x 1.710250 0.000000 0.000000 
#    y 0.000000 1.663360 0.000000 
#    z 0.000000 0.000000 1.668650 
# 
# From -- ./inp_files/14196.got.cif
#   From: 2010.03.12/outbox.cif.g09.slc.cpg/sg63_8_cif.got.tgz:14196.got - 2010.04.10 19:34:48.
