data_PCOD8257882
_publ_section_title
;
Structure prediction by ZEFSAII (Michael W. Deem and Ramdas Pophale) SiO2 
 PCOD8257882
Probable space group: C M C M
;
_chemical_formula_sum "Si O2"
_cell_formula_units_Z 64
_cell_length_a 20.496190
_cell_length_b 18.012426
_cell_length_c 8.923647
_cell_angle_alpha 90.000000
_cell_angle_beta 90.000000
_cell_angle_gamma 90.000000
_cell_volume 3294.486484
_symmetry_space_group_name_H-M "C M C M"
_symmetry_group_IT_number 63
_symmetry_cell_setting 'orthorhombic'
loop_
_space_group_symop_operation_xyz
x,y,z
-x,-y,1/2+z
x,-y,-z
-x,y,1/2-z
-x,-y,-z
x,y,1/2-z
-x,y,z
x,-y,1/2+z
1/2+x,1/2+y,z
1/2-x,1/2-y,1/2+z
1/2+x,1/2-y,-z
1/2-x,1/2+y,1/2-z
1/2-x,1/2-y,-z
1/2+x,1/2+y,1/2-z
1/2-x,1/2+y,z
1/2+x,1/2-y,1/2+z
loop_
_atom_site_type_symbol
_atom_site_label
_atom_site_fract_x
_atom_site_fract_y
_atom_site_fract_z
Si Si1 0.629385 0.312788 0.924766
Si Si2 0.368130 0.857821 0.427388
Si Si3 0.500000 0.859255 0.579672
Si Si4 0.000000 0.817258 0.417618
Si Si5 0.257643 0.424000 0.927645
O O1 0.615902 0.318165 0.750000
O O2 0.642383 0.228024 0.973127
O O3 0.691907 0.359863 0.974571
O O4 0.565286 0.346877 0.002885
O O5 0.366804 0.869360 0.250000
O O6 0.436382 0.888406 0.492262
O O7 0.312257 0.905765 0.503599
O O8 0.500000 0.889184 0.750000
O O9 0.500000 0.770986 0.576223
O O10 0.000000 0.848316 0.250000
O O11 0.251710 0.432038 0.750000
O O12 0.283510 0.500000 0.000000
#
# Coordination Sequence:
#
# PCOD8257882 Si02
#       5
#    16  16   8   8  16
#     4   9  19  35  56  80 108 140 176 217 264 315
#     4  10  19  34  57  83 108 138 175 218 265 315
#     4   9  17  31  52  81 112 139 170 214 262 313
#     4   9  17  29  52  83 110 135 171 218 265 311
#     4  11  23  38  54  76 107 144 181 220 264 313
#
# _framework density 19.426397000000001
#
# number of rings (size 3 to 8) (size 9 to 14) (size 15 to 20)
#    0.000    2.250    0.000    3.000    0.000    6.000 
#    0.000    1.250    0.000    0.000    0.000    0.000 
#    0.000    0.000    0.000    0.000    0.000    0.000 
#
# Total GULP energy -396892.686093 kJ/mol
# GULP energy per Si atom -12402.896440 kJ/mol
# Density = 1.938218 g / cm^3
# Si number density = 19.426397 Si / 1000 Ang^3
#
#
#
# Elastic Constant Matrix: (Units=GPa)
#
#
# Indices 1 2 3 4 5 6 
#
# 1 104.5355 9.2666 37.1780 0.0000 0.0000 0.0000
# 2 9.2666 37.5316 19.1302 0.0000 0.0000 0.0000
# 3 37.1780 19.1302 81.9262 0.0000 0.0000 0.0000
# 4 0.0000 0.0000 0.0000 25.7920 0.0000 0.0000
# 5 0.0000 0.0000 0.0000 0.0000 35.1048 0.0000
# 6 0.0000 0.0000 0.0000 0.0000 0.0000 4.5555
#
#
#
# Elastic Compliance Matrix: (Units=1/GPa)
#
#
# Indices 1 2 3 4 5 6 
#
# 1 0.011409 -0.000202 -0.005130 0.000000 0.000000 0.000000
# 2 -0.000202 0.030247 -0.006971 0.000000 0.000000 0.000000
# 3 -0.005130 -0.006971 0.016162 0.000000 0.000000 0.000000
# 4 0.000000 0.000000 0.000000 0.038772 0.000000 0.000000
# 5 0.000000 0.000000 0.000000 0.000000 0.028486 0.000000
# 6 0.000000 0.000000 0.000000 0.000000 0.000000 0.219513
#
#
# Mechanical properties :
#
#
# Convention : Reuss Voigt Hill
#
# Bulk Modulus (GPa) = 30.11016 39.46031 34.78524
# Shear Modulus (GPa) = 13.14870 23.65170 18.40020
#
# Velocity S-wave (km/s) = 2.60445 3.49306 3.08096
# Velocity P-wave (km/s) = 4.95757 6.05190 5.53186
#
# Compressibility (1/GPa) = 0.03321138
#
# Stress axis : x y z
#
# Youngs Moduli (GPa) = 87.65381 33.06065 61.87386
#
# Poissons Ratio (x) = 0.00668 0.31741
# Poissons Ratio (y) = 0.01770 0.43134
# Poissons Ratio (z) = 0.44966 0.23047
#
# Static dielectric constant tensor:
#      x y z
#    x 3.705170 0.000000 0.000000 
#    y 0.000000 3.362870 0.000000 
#    z 0.000000 0.000000 3.605940 
# 
# 
# High freq. dielectric constant tensor:
#      x y z
#    x 1.769710 0.000000 0.000000 
#    y 0.000000 1.724800 0.000000 
#    z 0.000000 0.000000 1.765790 
# 
# From -- ./inp_files/5774.got.cif
#   From: 2010.03.12/outbox.cif.g09.slc.cpg/sg63_3_cif.got.tgz:5774.got - 2010.04.10 19:34:48.
