data_PCOD8257490
_publ_section_title
;
Structure prediction by ZEFSAII (Michael W. Deem and Ramdas Pophale) SiO2 
 PCOD8257490
Probable space group: C M C M
;
_chemical_formula_sum "Si O2"
_cell_formula_units_Z 104
_cell_length_a 19.804602
_cell_length_b 21.138442
_cell_length_c 14.504708
_cell_angle_alpha 90.000000
_cell_angle_beta 90.000000
_cell_angle_gamma 90.000000
_cell_volume 6072.228195
_symmetry_space_group_name_H-M "C M C M"
_symmetry_group_IT_number 63
_symmetry_cell_setting 'orthorhombic'
loop_
_space_group_symop_operation_xyz
x,y,z
-x,-y,1/2+z
x,-y,-z
-x,y,1/2-z
-x,-y,-z
x,y,1/2-z
-x,y,z
x,-y,1/2+z
1/2+x,1/2+y,z
1/2-x,1/2-y,1/2+z
1/2+x,1/2-y,-z
1/2-x,1/2+y,1/2-z
1/2-x,1/2-y,-z
1/2+x,1/2+y,1/2-z
1/2-x,1/2+y,z
1/2+x,1/2-y,1/2+z
loop_
_atom_site_type_symbol
_atom_site_label
_atom_site_fract_x
_atom_site_fract_y
_atom_site_fract_z
Si Si1 0.500000 0.177369 0.855664
Si Si2 0.761642 0.179637 0.968823
Si Si3 0.000000 0.587165 0.143458
Si Si4 0.644135 0.877933 0.150265
Si Si5 0.362833 0.983145 0.894657
Si Si6 0.775609 0.635016 0.148664
Si Si7 0.866780 0.758396 0.355457
Si Si8 0.000000 0.721877 0.048646
O O1 0.500000 0.204952 0.750000
O O2 0.566393 0.135686 0.874696
O O3 0.500000 0.229927 0.936808
O O4 0.693443 0.151253 0.925589
O O5 0.822730 0.182579 0.895899
O O6 0.750000 0.250000 0.000000
O O7 0.777853 0.140840 0.063733
O O8 0.936964 0.543126 0.122154
O O9 0.000000 0.648438 0.078576
O O10 0.000000 0.610014 0.250000
O O11 0.662490 0.847888 0.250000
O O12 0.650813 0.952968 0.160787
O O13 0.309992 0.932740 0.856691
O O14 0.350382 0.000000 0.000000
O O15 0.740861 0.642094 0.250000
O O16 0.831183 0.690161 0.135823
O O17 0.882558 0.774683 0.250000
O O18 0.935193 0.757671 0.412713
#
# Coordination Sequence:
#
# PCOD8257490 Si02
#       8
#     8  16   8  16  16  16  16   8
#     4  10  21  34  46  67 102 143 181 216 250 297
#     4  10  20  35  50  69  95 132 176 223 268 309
#     4  12  22  32  49  74 108 144 183 219 260 311
#     4  11  21  34  50  71 102 139 180 218 260 308
#     4  12  21  33  48  71 103 143 176 218 260 309
#     4  10  19  33  50  71  98 132 174 215 257 310
#     4  10  20  34  54  75  99 131 173 223 271 312
#     4  12  20  34  54  77 102 138 181 226 265 308
#
# _framework density 17.127155999999999
#
# number of rings (size 3 to 8) (size 9 to 14) (size 15 to 20)
#    0.000    1.231    3.077    6.000    0.000    1.231 
#    0.000    0.769    0.000    0.000    0.000    0.000 
#    0.000    2.462    0.000    3.308    0.000   10.000 
#
# Total GULP energy -644453.050119 kJ/mol
# GULP energy per Si atom -12393.327887 kJ/mol
# Density = 1.708817 g / cm^3
# Si number density = 17.127156 Si / 1000 Ang^3
#
#
#
# Elastic Constant Matrix: (Units=GPa)
#
#
# Indices 1 2 3 4 5 6 
#
# 1 70.5053 43.7911 46.2490 0.0000 0.0000 0.0000
# 2 43.7911 56.3188 31.1015 0.0000 0.0000 0.0000
# 3 46.2490 31.1015 156.7092 0.0000 0.0000 0.0000
# 4 0.0000 0.0000 0.0000 33.2175 0.0000 0.0000
# 5 0.0000 0.0000 0.0000 0.0000 11.0824 0.0000
# 6 0.0000 0.0000 0.0000 0.0000 0.0000 2.6921
#
#
#
# Elastic Compliance Matrix: (Units=1/GPa)
#
#
# Indices 1 2 3 4 5 6 
#
# 1 0.030335 -0.020938 -0.004797 0.000000 0.000000 0.000000
# 2 -0.020938 0.034393 -0.000647 0.000000 0.000000 0.000000
# 3 -0.004797 -0.000647 0.007925 0.000000 0.000000 0.000000
# 4 0.000000 0.000000 0.000000 0.030105 0.000000 0.000000
# 5 0.000000 0.000000 0.000000 0.000000 0.090233 0.000000
# 6 0.000000 0.000000 0.000000 0.000000 0.000000 0.371452
#
#
# Mechanical properties :
#
#
# Convention : Reuss Voigt Hill
#
# Bulk Modulus (GPa) = 50.27555 58.42408 54.34982
# Shear Modulus (GPa) = 8.01491 20.22451 14.11971
#
# Velocity S-wave (km/s) = 2.16560 3.44007 2.87436
# Velocity P-wave (km/s) = 5.97253 7.06858 6.54354
#
# Compressibility (1/GPa) = 0.01989038
#
# Stress axis : x y z
#
# Youngs Moduli (GPa) = 32.96569 29.07527 126.17760
#
# Poissons Ratio (x) = 0.60877 0.60529
# Poissons Ratio (y) = 0.69023 0.08160
# Poissons Ratio (z) = 0.15814 0.01880
#
# Static dielectric constant tensor:
#      x y z
#    x 3.111800 0.000000 0.000000 
#    y 0.000000 3.140400 0.000000 
#    z 0.000000 0.000000 3.912530 
# 
# 
# High freq. dielectric constant tensor:
#      x y z
#    x 1.624380 0.000000 0.000000 
#    y 0.000000 1.624410 0.000000 
#    z 0.000000 0.000000 1.699840 
# 
# From -- ./inp_files/34374.got.cif
#   From: 2010.03.12/outbox.cif.g09.slc.cpg/sg63_18_cif.got.tgz:34374.got - 2010.04.10 19:34:48.
