data_PCOD8257357
_publ_section_title
;
Structure prediction by ZEFSAII (Michael W. Deem and Ramdas Pophale) SiO2 
 PCOD8257357
Probable space group: C M C M
;
_chemical_formula_sum "Si O2"
_cell_formula_units_Z 96
_cell_length_a 31.266800
_cell_length_b 19.600672
_cell_length_c 8.668323
_cell_angle_alpha 90.000000
_cell_angle_beta 90.000000
_cell_angle_gamma 90.000000
_cell_volume 5312.384276
_symmetry_space_group_name_H-M "C M C M"
_symmetry_group_IT_number 63
_symmetry_cell_setting 'orthorhombic'
loop_
_space_group_symop_operation_xyz
x,y,z
-x,-y,1/2+z
x,-y,-z
-x,y,1/2-z
-x,-y,-z
x,y,1/2-z
-x,y,z
x,-y,1/2+z
1/2+x,1/2+y,z
1/2-x,1/2-y,1/2+z
1/2+x,1/2-y,-z
1/2-x,1/2+y,1/2-z
1/2-x,1/2-y,-z
1/2+x,1/2+y,1/2-z
1/2-x,1/2+y,z
1/2+x,1/2-y,1/2+z
loop_
_atom_site_type_symbol
_atom_site_label
_atom_site_fract_x
_atom_site_fract_y
_atom_site_fract_z
Si Si1 0.707047 0.927533 0.068055
Si Si2 0.546604 0.325758 0.076840
Si Si3 0.702099 0.428082 0.568543
Si Si4 0.132087 0.816773 0.929124
Si Si5 0.954941 0.336234 0.923225
Si Si6 0.362806 0.170134 0.433513
O O1 0.709801 0.933909 0.250000
O O2 0.752910 0.904981 0.003290
O O3 0.673351 0.870416 0.021972
O O4 0.692430 0.000000 0.000000
O O5 0.554664 0.353230 0.250000
O O6 0.500000 0.352521 0.016866
O O7 0.545735 0.244734 0.079075
O O8 0.585508 0.349468 0.967538
O O9 0.686788 0.500000 0.500000
O O10 0.708079 0.436038 0.750000
O O11 0.667281 0.372035 0.524313
O O12 0.134078 0.797606 0.750000
O O13 0.141941 0.749853 0.028809
O O14 0.956561 0.364640 0.750000
O O15 0.909265 0.358794 0.995756
O O16 0.000000 0.360472 0.006499
O O17 0.358779 0.160567 0.250000
#
# Coordination Sequence:
#
# PCOD8257357 Si02
#       6
#    16  16  16  16  16  16
#     4  11  22  37  56  75  98 129 167 208 251 303
#     4   8  14  26  45  69  98 133 169 202 241 293
#     4  10  21  37  55  74  98 130 169 208 251 305
#     4  10  20  32  49  77 107 132 163 208 256 298
#     4   7  11  22  42  68  96 126 160 196 234 279
#     4  10  19  32  52  77 105 135 167 205 248 295
#
# _framework density 18.070982000000001
#
# number of rings (size 3 to 8) (size 9 to 14) (size 15 to 20)
#    0.000    2.667    0.000    6.000    0.000    3.667 
#    0.000    0.000    0.000    2.500    0.000    0.000 
#    0.000    0.000    0.000    0.000    0.000    0.000 
#
# Total GULP energy -594657.108538 kJ/mol
# GULP energy per Si atom -12388.689761 kJ/mol
# Density = 1.802985 g / cm^3
# Si number density = 18.070982 Si / 1000 Ang^3
#
#
#
# Elastic Constant Matrix: (Units=GPa)
#
#
# Indices 1 2 3 4 5 6 
#
# 1 157.9618 63.9565 45.4315 0.0000 0.0000 0.0000
# 2 63.9565 54.6651 25.2192 0.0000 0.0000 0.0000
# 3 45.4315 25.2192 71.8458 0.0000 0.0000 0.0000
# 4 0.0000 0.0000 0.0000 24.1457 0.0000 0.0000
# 5 0.0000 0.0000 0.0000 0.0000 29.0191 0.0000
# 6 0.0000 0.0000 0.0000 0.0000 0.0000 -3.5157
#
#
#
# Elastic Compliance Matrix: (Units=1/GPa)
#
#
# Indices 1 2 3 4 5 6 
#
# 1 0.012671 -0.013278 -0.003351 0.000000 0.000000 0.000000
# 2 -0.013278 0.035743 -0.004150 0.000000 0.000000 0.000000
# 3 -0.003351 -0.004150 0.017495 0.000000 0.000000 0.000000
# 4 0.000000 0.000000 0.000000 0.041415 0.000000 0.000000
# 5 0.000000 0.000000 0.000000 0.000000 0.034460 0.000000
# 6 0.000000 0.000000 0.000000 0.000000 0.000000 -0.284440
#
#
# Mechanical properties :
#
#
# Convention : Reuss Voigt Hill
#
# Bulk Modulus (GPa) = 41.06927 61.52078 51.29503
# Shear Modulus (GPa) = -53.77448 19.92084 -16.92682
#
# Velocity S-wave (km/s) = -5.46095 3.32379 -3.06385
# Velocity P-wave (km/s) = 4.12149 6.98913 3.99133
#
# Compressibility (1/GPa) = 0.02434911
#
# Stress axis : x y z
#
# Youngs Moduli (GPa) = 78.92221 27.97762 57.16036
#
# Poissons Ratio (x) = 0.37149 0.19157
# Poissons Ratio (y) = 1.04795 0.23721
# Poissons Ratio (z) = 0.26450 0.11611
#
# Static dielectric constant tensor:
#      x y z
#    x 4.120940 0.000000 0.000000 
#    y 0.000000 2.933760 0.000000 
#    z 0.000000 0.000000 3.274870 
# 
# 
# High freq. dielectric constant tensor:
#      x y z
#    x 1.726890 0.000000 0.000000 
#    y 0.000000 1.651510 0.000000 
#    z 0.000000 0.000000 1.691380 
# 
# From -- ./inp_files/12420.got.cif
#   From: 2010.03.12/outbox.cif.g09.slc.cpg/sg63_7_cif.got.tgz:12420.got - 2010.04.10 19:34:48.
