data_PCOD8257796
_publ_section_title
;
Structure prediction by ZEFSAII (Michael W. Deem and Ramdas Pophale) SiO2 
 PCOD8257796
Probable space group: C M C M
;
_chemical_formula_sum "Si O2"
_cell_formula_units_Z 96
_cell_length_a 11.318525
_cell_length_b 19.847083
_cell_length_c 23.190997
_cell_angle_alpha 90.000000
_cell_angle_beta 90.000000
_cell_angle_gamma 90.000000
_cell_volume 5209.618727
_symmetry_space_group_name_H-M "C M C M"
_symmetry_group_IT_number 63
_symmetry_cell_setting 'orthorhombic'
loop_
_space_group_symop_operation_xyz
x,y,z
-x,-y,1/2+z
x,-y,-z
-x,y,1/2-z
-x,-y,-z
x,y,1/2-z
-x,y,z
x,-y,1/2+z
1/2+x,1/2+y,z
1/2-x,1/2-y,1/2+z
1/2+x,1/2-y,-z
1/2-x,1/2+y,1/2-z
1/2-x,1/2-y,-z
1/2+x,1/2+y,1/2-z
1/2-x,1/2+y,z
1/2+x,1/2-y,1/2+z
loop_
_atom_site_type_symbol
_atom_site_label
_atom_site_fract_x
_atom_site_fract_y
_atom_site_fract_z
Si Si1 0.500000 0.536268 0.682511
Si Si2 0.630022 0.922619 0.014657
Si Si3 0.748271 0.553363 0.628442
Si Si4 0.637120 0.089108 0.110817
Si Si5 0.629674 0.827330 0.317030
Si Si6 0.733349 0.691101 0.181722
Si Si7 0.500000 0.622299 0.315379
O O1 0.500000 0.560136 0.750000
O O2 0.612967 0.563037 0.647473
O O3 0.500000 0.456833 0.679285
O O4 0.500000 0.895047 0.034326
O O5 0.727688 0.914215 0.064961
O O6 0.672306 0.888518 0.954643
O O7 0.615381 0.000000 0.000000
O O8 0.787852 0.475560 0.632504
O O9 0.824021 0.597669 0.672507
O O10 0.500000 0.068185 0.113101
O O11 0.657102 0.154122 0.151055
O O12 0.614825 0.815931 0.250000
O O13 0.500000 0.817886 0.345767
O O14 0.720970 0.769089 0.338455
O O15 0.751784 0.683063 0.250000
O O16 0.617890 0.652641 0.156786
O O17 0.500000 0.647681 0.250000
#
# Coordination Sequence:
#
# PCOD8257796 Si02
#       7
#     8  16  16  16  16  16   8
#     4  11  22  34  52  80 112 143 174 217 272 321
#     4   8  16  33  55  78 105 137 175 223 276 318
#     4  11  20  35  56  78 106 141 180 219 268 321
#     4  10  20  35  57  83 108 138 179 229 273 314
#     4  10  20  34  54  79 106 138 179 222 265 319
#     4  10  19  34  54  77 107 141 178 220 267 327
#     4   9  16  32  53  71 101 140 174 211 263 319
#
# _framework density 18.427453
#
# number of rings (size 3 to 8) (size 9 to 14) (size 15 to 20)
#    0.000    2.167    2.500    3.000    0.000    1.000 
#    1.500    5.417    0.000    0.000    0.000    0.000 
#    0.000    0.000    0.000    0.000    0.000    0.000 
#
# Total GULP energy -594764.158664 kJ/mol
# GULP energy per Si atom -12390.919972 kJ/mol
# Density = 1.838551 g / cm^3
# Si number density = 18.427453 Si / 1000 Ang^3
#
#
#
# Elastic Constant Matrix: (Units=GPa)
#
#
# Indices 1 2 3 4 5 6 
#
# 1 99.1607 29.4197 52.6879 0.0000 0.0000 0.0000
# 2 29.4197 68.5926 30.6638 0.0000 0.0000 0.0000
# 3 52.6879 30.6638 77.2012 0.0000 0.0000 0.0000
# 4 0.0000 0.0000 0.0000 17.8695 0.0000 0.0000
# 5 0.0000 0.0000 0.0000 0.0000 23.4810 0.0000
# 6 0.0000 0.0000 0.0000 0.0000 0.0000 18.2359
#
#
#
# Elastic Compliance Matrix: (Units=1/GPa)
#
#
# Indices 1 2 3 4 5 6 
#
# 1 0.016149 -0.002431 -0.010056 0.000000 0.000000 0.000000
# 2 -0.002431 0.018092 -0.005527 0.000000 0.000000 0.000000
# 3 -0.010056 -0.005527 0.022011 0.000000 0.000000 0.000000
# 4 0.000000 0.000000 0.000000 0.055961 0.000000 0.000000
# 5 0.000000 0.000000 0.000000 0.000000 0.042588 0.000000
# 6 0.000000 0.000000 0.000000 0.000000 0.000000 0.054837
#
#
# Mechanical properties :
#
#
# Convention : Reuss Voigt Hill
#
# Bulk Modulus (GPa) = 49.44374 52.27748 50.86061
# Shear Modulus (GPa) = 19.80926 20.72948 20.26937
#
# Velocity S-wave (km/s) = 3.28226 3.35763 3.32016
# Velocity P-wave (km/s) = 6.42293 6.59261 6.50832
#
# Compressibility (1/GPa) = 0.02022501
#
# Stress axis : x y z
#
# Youngs Moduli (GPa) = 61.92405 55.27207 45.43151
#
# Poissons Ratio (x) = 0.13437 0.45684
# Poissons Ratio (y) = 0.15054 0.25110
# Poissons Ratio (z) = 0.62268 0.30549
#
# Static dielectric constant tensor:
#      x y z
#    x 3.425310 0.000000 0.000000 
#    y 0.000000 3.220230 0.000000 
#    z 0.000000 0.000000 3.740690 
# 
# 
# High freq. dielectric constant tensor:
#      x y z
#    x 1.706410 0.000000 0.000000 
#    y 0.000000 1.696890 0.000000 
#    z 0.000000 0.000000 1.700500 
# 
# From -- ./inp_files/61553.got.cif
#   From: 2010.03.12/outbox.cif.g09.slc.cpg/sg63_31_cif.got.tgz:61553.got - 2010.04.10 19:34:48.
