data_PCOD8257810
_publ_section_title
;
Structure prediction by ZEFSAII (Michael W. Deem and Ramdas Pophale) SiO2 
 PCOD8257810
Probable space group: C M C M
;
_chemical_formula_sum "Si O2"
_cell_formula_units_Z 80
_cell_length_a 13.151990
_cell_length_b 18.249220
_cell_length_c 19.121224
_cell_angle_alpha 90.000000
_cell_angle_beta 90.000000
_cell_angle_gamma 90.000000
_cell_volume 4589.353024
_symmetry_space_group_name_H-M "C M C M"
_symmetry_group_IT_number 63
_symmetry_cell_setting 'orthorhombic'
loop_
_space_group_symop_operation_xyz
x,y,z
-x,-y,1/2+z
x,-y,-z
-x,y,1/2-z
-x,-y,-z
x,y,1/2-z
-x,y,z
x,-y,1/2+z
1/2+x,1/2+y,z
1/2-x,1/2-y,1/2+z
1/2+x,1/2-y,-z
1/2-x,1/2+y,1/2-z
1/2-x,1/2-y,-z
1/2+x,1/2+y,1/2-z
1/2-x,1/2+y,z
1/2+x,1/2-y,1/2+z
loop_
_atom_site_type_symbol
_atom_site_label
_atom_site_fract_x
_atom_site_fract_y
_atom_site_fract_z
Si Si1 0.386751 0.696423 0.670623
Si Si2 0.690713 0.821762 0.573423
Si Si3 0.688470 0.114452 0.668517
Si Si4 0.885266 0.733283 0.929876
Si Si5 0.120097 0.479283 0.578617
O O1 0.371816 0.723704 0.750000
O O2 0.500000 0.665010 0.658089
O O3 0.370484 0.766121 0.621885
O O4 0.307515 0.631509 0.653865
O O5 0.810973 0.803325 0.574822
O O6 0.645726 0.816972 0.495485
O O7 0.674640 0.903796 0.600486
O O8 0.663027 0.107659 0.750000
O O9 0.622391 0.181626 0.638091
O O10 0.661170 0.038917 0.632118
O O11 0.000000 0.762827 0.937028
O O12 0.150820 0.500000 0.500000
O O13 0.000000 0.470513 0.586557
#
# Coordination Sequence:
#
# PCOD8257810 Si02
#       5
#    16  16  16  16  16
#     4   9  18  34  55  78 105 138 175 214 255 300
#     4  10  20  33  53  78 105 134 173 214 254 307
#     4  10  21  35  54  80 106 136 175 213 253 309
#     4  10  19  34  55  77 103 136 171 213 259 303
#     4  11  21  34  51  74 108 141 167 208 265 313
#
# _framework density 17.431650000000001
#
# number of rings (size 3 to 8) (size 9 to 14) (size 15 to 20)
#    0.000    2.000    2.000    2.400    0.000    2.400 
#    0.000    1.000    0.000    1.200    0.000    0.000 
#    0.000    0.000    0.000    0.000    0.000    0.000 
#
# Total GULP energy -496071.830671 kJ/mol
# GULP energy per Si atom -12401.795767 kJ/mol
# Density = 1.739197 g / cm^3
# Si number density = 17.431650 Si / 1000 Ang^3
#
#
#
# Elastic Constant Matrix: (Units=GPa)
#
#
# Indices 1 2 3 4 5 6 
#
# 1 129.0237 51.4301 36.5013 0.0000 0.0000 0.0000
# 2 51.4301 111.0684 49.0033 0.0000 0.0000 0.0000
# 3 36.5013 49.0033 101.4457 0.0000 0.0000 0.0000
# 4 0.0000 0.0000 0.0000 29.2165 0.0000 0.0000
# 5 0.0000 0.0000 0.0000 0.0000 22.3167 0.0000
# 6 0.0000 0.0000 0.0000 0.0000 0.0000 18.4319
#
#
#
# Elastic Compliance Matrix: (Units=1/GPa)
#
#
# Indices 1 2 3 4 5 6 
#
# 1 0.009726 -0.003761 -0.001683 0.000000 0.000000 0.000000
# 2 -0.003761 0.012896 -0.004876 0.000000 0.000000 0.000000
# 3 -0.001683 -0.004876 0.012818 0.000000 0.000000 0.000000
# 4 0.000000 0.000000 0.000000 0.034227 0.000000 0.000000
# 5 0.000000 0.000000 0.000000 0.000000 0.044810 0.000000
# 6 0.000000 0.000000 0.000000 0.000000 0.000000 0.054254
#
#
# Mechanical properties :
#
#
# Convention : Reuss Voigt Hill
#
# Bulk Modulus (GPa) = 67.56538 68.37858 67.97198
# Shear Modulus (GPa) = 25.73276 27.63323 26.68300
#
# Velocity S-wave (km/s) = 3.84632 3.98582 3.91669
# Velocity P-wave (km/s) = 7.65309 7.77780 7.71570
#
# Compressibility (1/GPa) = 0.01480048
#
# Stress axis : x y z
#
# Youngs Moduli (GPa) = 102.81978 77.54047 78.01264
#
# Poissons Ratio (x) = 0.29164 0.13127
# Poissons Ratio (y) = 0.38672 0.38042
# Poissons Ratio (z) = 0.17301 0.37811
#
# Static dielectric constant tensor:
#      x y z
#    x 3.390470 0.000000 0.000000 
#    y 0.000000 3.034720 0.000000 
#    z 0.000000 0.000000 3.369140 
# 
# 
# High freq. dielectric constant tensor:
#      x y z
#    x 1.679380 0.000000 0.000000 
#    y 0.000000 1.652200 0.000000 
#    z 0.000000 0.000000 1.682430 
# 
# From -- ./inp_files/43965.got.cif
#   From: 2010.03.12/outbox.cif.g09.slc.cpg/sg63_22_cif.got.tgz:43965.got - 2010.04.10 19:34:48.
