data_PCOD8257237
_publ_section_title
;
Structure prediction by ZEFSAII (Michael W. Deem and Ramdas Pophale) SiO2 
 PCOD8257237
Probable space group: C M C M
;
_chemical_formula_sum "Si O2"
_cell_formula_units_Z 96
_cell_length_a 20.448601
_cell_length_b 14.794846
_cell_length_c 18.510135
_cell_angle_alpha 90.000000
_cell_angle_beta 90.000000
_cell_angle_gamma 90.000000
_cell_volume 5599.943381
_symmetry_space_group_name_H-M "C M C M"
_symmetry_group_IT_number 63
_symmetry_cell_setting 'orthorhombic'
loop_
_space_group_symop_operation_xyz
x,y,z
-x,-y,1/2+z
x,-y,-z
-x,y,1/2-z
-x,-y,-z
x,y,1/2-z
-x,y,z
x,-y,1/2+z
1/2+x,1/2+y,z
1/2-x,1/2-y,1/2+z
1/2+x,1/2-y,-z
1/2-x,1/2+y,1/2-z
1/2-x,1/2-y,-z
1/2+x,1/2+y,1/2-z
1/2-x,1/2+y,z
1/2+x,1/2-y,1/2+z
loop_
_atom_site_type_symbol
_atom_site_label
_atom_site_fract_x
_atom_site_fract_y
_atom_site_fract_z
Si Si1 0.157055 0.195186 0.831115
Si Si2 0.424572 0.076830 0.056177
Si Si3 0.074260 0.932088 0.566118
Si Si4 0.186544 0.394501 0.833149
Si Si5 0.425243 0.277883 0.468353
Si Si6 0.312457 0.496955 0.667105
O O1 0.126244 0.195876 0.750000
O O2 0.199303 0.286709 0.842305
O O3 0.100705 0.192824 0.890232
O O4 0.200381 0.104767 0.841291
O O5 0.500000 0.066245 0.081506
O O6 0.378454 0.071890 0.125974
O O7 0.413658 0.172331 0.015662
O O8 0.404227 0.000000 0.000000
O O9 0.102736 0.836299 0.535397
O O10 0.121158 0.965984 0.629133
O O11 0.000000 0.923578 0.596654
O O12 0.076574 0.000000 0.500000
O O13 0.175763 0.421404 0.750000
O O14 0.249519 0.445759 0.865969
O O15 0.500000 0.305136 0.463087
O O16 0.320755 0.468599 0.750000
#
# Coordination Sequence:
#
# PCOD8257237 Si02
#       6
#    16  16  16  16  16  16
#     4   9  17  31  50  72  98 126 161 204 247 291
#     4   9  18  34  54  76 102 129 162 205 249 292
#     4  10  19  32  50  73 101 131 162 197 241 295
#     4   9  19  35  52  74 100 128 164 205 249 292
#     4   9  17  31  50  73 100 129 159 199 247 293
#     4  10  20  34  51  72 100 132 165 204 244 290
#
# _framework density 17.143028999999999
#
# number of rings (size 3 to 8) (size 9 to 14) (size 15 to 20)
#    0.000    2.667    1.667    0.000    0.000    1.667 
#    3.000    6.667    0.000    0.000    0.000    4.667 
#    0.000    0.000    0.000    0.000    0.000    0.000 
#
# Total GULP energy -594905.580095 kJ/mol
# GULP energy per Si atom -12393.866252 kJ/mol
# Density = 1.710401 g / cm^3
# Si number density = 17.143029 Si / 1000 Ang^3
#
#
#
# Elastic Constant Matrix: (Units=GPa)
#
#
# Indices 1 2 3 4 5 6 
#
# 1 87.0021 52.8675 44.9240 0.0000 0.0000 0.0000
# 2 52.8675 119.1875 48.9924 0.0000 0.0000 0.0000
# 3 44.9240 48.9924 60.5932 0.0000 0.0000 0.0000
# 4 0.0000 0.0000 0.0000 27.5451 0.0000 0.0000
# 5 0.0000 0.0000 0.0000 0.0000 24.6085 0.0000
# 6 0.0000 0.0000 0.0000 0.0000 0.0000 23.7753
#
#
#
# Elastic Compliance Matrix: (Units=1/GPa)
#
#
# Indices 1 2 3 4 5 6 
#
# 1 0.019898 -0.004137 -0.011408 0.000000 0.000000 0.000000
# 2 -0.004137 0.013427 -0.007789 0.000000 0.000000 0.000000
# 3 -0.011408 -0.007789 0.031259 0.000000 0.000000 0.000000
# 4 0.000000 0.000000 0.000000 0.036304 0.000000 0.000000
# 5 0.000000 0.000000 0.000000 0.000000 0.040636 0.000000
# 6 0.000000 0.000000 0.000000 0.000000 0.000000 0.042060
#
#
# Mechanical properties :
#
#
# Convention : Reuss Voigt Hill
#
# Bulk Modulus (GPa) = 55.81401 62.26119 59.03760
# Shear Modulus (GPa) = 21.16628 23.18572 22.17600
#
# Velocity S-wave (km/s) = 3.51762 3.68161 3.60055
# Velocity P-wave (km/s) = 7.00905 7.38037 7.19710
#
# Compressibility (1/GPa) = 0.01791665
#
# Stress axis : x y z
#
# Youngs Moduli (GPa) = 50.25557 74.47724 31.99081
#
# Poissons Ratio (x) = 0.30812 0.36494
# Poissons Ratio (y) = 0.20791 0.24918
# Poissons Ratio (z) = 0.57330 0.58011
#
# Static dielectric constant tensor:
#      x y z
#    x 3.097020 0.000000 0.000000 
#    y 0.000000 3.557240 0.000000 
#    z 0.000000 0.000000 3.189670 
# 
# 
# High freq. dielectric constant tensor:
#      x y z
#    x 1.642220 0.000000 0.000000 
#    y 0.000000 1.678340 0.000000 
#    z 0.000000 0.000000 1.648550 
# 
# From -- ./inp_files/35378.got.cif
#   From: 2010.03.12/outbox.cif.g09.slc.cpg/sg63_18_cif.got.tgz:35378.got - 2010.04.10 19:34:48.
