data_PCOD8257545
_publ_section_title
;
Structure prediction by ZEFSAII (Michael W. Deem and Ramdas Pophale) SiO2 
 PCOD8257545
Probable space group: C M C M
;
_chemical_formula_sum "Si O2"
_cell_formula_units_Z 96
_cell_length_a 23.016336
_cell_length_b 9.840268
_cell_length_c 24.444435
_cell_angle_alpha 90.000000
_cell_angle_beta 90.000000
_cell_angle_gamma 90.000000
_cell_volume 5536.344663
_symmetry_space_group_name_H-M "C M C M"
_symmetry_group_IT_number 63
_symmetry_cell_setting 'orthorhombic'
loop_
_space_group_symop_operation_xyz
x,y,z
-x,-y,1/2+z
x,-y,-z
-x,y,1/2-z
-x,-y,-z
x,y,1/2-z
-x,y,z
x,-y,1/2+z
1/2+x,1/2+y,z
1/2-x,1/2-y,1/2+z
1/2+x,1/2-y,-z
1/2-x,1/2+y,1/2-z
1/2-x,1/2-y,-z
1/2+x,1/2+y,1/2-z
1/2-x,1/2+y,z
1/2+x,1/2-y,1/2+z
loop_
_atom_site_type_symbol
_atom_site_label
_atom_site_fract_x
_atom_site_fract_y
_atom_site_fract_z
Si Si1 0.639261 0.511881 0.108715
Si Si2 0.933557 0.195911 0.957428
Si Si3 0.566265 0.753375 0.415173
Si Si4 0.709481 0.644097 0.686693
Si Si5 0.879000 0.471103 0.563523
Si Si6 0.263567 0.921289 0.626840
O O1 0.609197 0.423897 0.061224
O O2 0.599938 0.643485 0.122157
O O3 0.648441 0.416999 0.162773
O O4 0.703465 0.567980 0.091468
O O5 0.917501 0.336444 0.926984
O O6 0.000000 0.157746 0.942541
O O7 0.925793 0.210768 0.021988
O O8 0.500000 0.752715 0.396576
O O9 0.590761 0.904209 0.405013
O O10 0.701864 0.677600 0.750000
O O11 0.728232 0.775971 0.653692
O O12 0.760305 0.532726 0.675918
O O13 0.874081 0.500000 0.500000
O O14 0.814749 0.451732 0.585486
#
# Coordination Sequence:
#
# PCOD8257545 Si02
#       6
#    16  16  16  16  16  16
#     4  10  21  33  52  80 105 132 178 217 271 308
#     4  10  19  34  53  76 109 149 185 209 242 307
#     4  10  20  33  53  78 108 147 183 211 247 305
#     4  10  21  37  57  78 102 134 178 226 272 321
#     4  10  19  33  52  82 116 145 172 211 259 314
#     4  10  20  36  54  83 107 135 173 214 274 324
#
# _framework density 17.339960000000001
#
# number of rings (size 3 to 8) (size 9 to 14) (size 15 to 20)
#    1.000    1.000    1.667    3.000    0.000    4.667 
#    0.000    4.167    0.000    2.000    0.000    0.000 
#    0.000    0.000    0.000    0.000    0.000    0.000 
#
# Total GULP energy -594829.783516 kJ/mol
# GULP energy per Si atom -12392.287157 kJ/mol
# Density = 1.730049 g / cm^3
# Si number density = 17.339960 Si / 1000 Ang^3
#
#
#
# Elastic Constant Matrix: (Units=GPa)
#
#
# Indices 1 2 3 4 5 6 
#
# 1 132.3936 59.8531 27.1787 0.0000 0.0000 0.0000
# 2 59.8531 136.6820 19.6020 0.0000 0.0000 0.0000
# 3 27.1787 19.6020 16.2826 0.0000 0.0000 0.0000
# 4 0.0000 0.0000 0.0000 17.1563 0.0000 0.0000
# 5 0.0000 0.0000 0.0000 0.0000 8.2222 0.0000
# 6 0.0000 0.0000 0.0000 0.0000 0.0000 23.3111
#
#
#
# Elastic Compliance Matrix: (Units=1/GPa)
#
#
# Indices 1 2 3 4 5 6 
#
# 1 0.012420 -0.002980 -0.017143 0.000000 0.000000 0.000000
# 2 -0.002980 0.009558 -0.006532 0.000000 0.000000 0.000000
# 3 -0.017143 -0.006532 0.097895 0.000000 0.000000 0.000000
# 4 0.000000 0.000000 0.000000 0.058288 0.000000 0.000000
# 5 0.000000 0.000000 0.000000 0.000000 0.121623 0.000000
# 6 0.000000 0.000000 0.000000 0.000000 0.000000 0.042898
#
#
# Mechanical properties :
#
#
# Convention : Reuss Voigt Hill
#
# Bulk Modulus (GPa) = 15.02377 55.40287 35.21332
# Shear Modulus (GPa) = 11.95658 21.65287 16.80473
#
# Velocity S-wave (km/s) = 2.62876 3.53757 3.11647
# Velocity P-wave (km/s) = 4.23047 6.97898 5.77075
#
# Compressibility (1/GPa) = 0.06656121
#
# Stress axis : x y z
#
# Youngs Moduli (GPa) = 80.51669 104.62414 10.21504
#
# Poissons Ratio (x) = 0.31178 0.17512
# Poissons Ratio (y) = 0.23994 0.06673
# Poissons Ratio (z) = 1.38033 0.68343
#
# Static dielectric constant tensor:
#      x y z
#    x 3.237130 0.000000 0.000000 
#    y 0.000000 3.569980 0.000000 
#    z 0.000000 0.000000 2.793060 
# 
# 
# High freq. dielectric constant tensor:
#      x y z
#    x 1.669740 0.000000 0.000000 
#    y 0.000000 1.698230 0.000000 
#    z 0.000000 0.000000 1.617670 
# 
# From -- ./inp_files/70626.got.cif
#   From: 2010.03.12/outbox.cif.g09.slc.cpg/sg63_36_cif.got.tgz:70626.got - 2010.04.10 19:34:48.
