data_PCOD8257102
_publ_section_title
;
Structure prediction by ZEFSAII (Michael W. Deem and Ramdas Pophale) SiO2 
 PCOD8257102
Probable space group: C M C M
;
_chemical_formula_sum "Si O2"
_cell_formula_units_Z 96
_cell_length_a 9.583019
_cell_length_b 23.520279
_cell_length_c 25.015304
_cell_angle_alpha 90.000000
_cell_angle_beta 90.000000
_cell_angle_gamma 90.000000
_cell_volume 5638.331463
_symmetry_space_group_name_H-M "C M C M"
_symmetry_group_IT_number 63
_symmetry_cell_setting 'orthorhombic'
loop_
_space_group_symop_operation_xyz
x,y,z
-x,-y,1/2+z
x,-y,-z
-x,y,1/2-z
-x,-y,-z
x,y,1/2-z
-x,y,z
x,-y,1/2+z
1/2+x,1/2+y,z
1/2-x,1/2-y,1/2+z
1/2+x,1/2-y,-z
1/2-x,1/2+y,1/2-z
1/2-x,1/2-y,-z
1/2+x,1/2+y,1/2-z
1/2-x,1/2+y,z
1/2+x,1/2-y,1/2+z
loop_
_atom_site_type_symbol
_atom_site_label
_atom_site_fract_x
_atom_site_fract_y
_atom_site_fract_z
Si Si1 0.839025 0.367306 0.394012
Si Si2 0.658969 0.431701 0.312236
Si Si3 0.661198 0.249002 0.553483
Si Si4 0.337853 0.627150 0.410256
Si Si5 0.838666 0.434733 0.500448
Si Si6 0.665710 0.559161 0.191228
O O1 0.750376 0.385805 0.343196
O O2 0.792032 0.303969 0.410381
O O3 0.808139 0.410161 0.442219
O O4 0.000000 0.368561 0.377254
O O5 0.670563 0.417326 0.250000
O O6 0.500000 0.426367 0.332076
O O7 0.716430 0.495467 0.323529
O O8 0.500000 0.242532 0.536296
O O9 0.750000 0.250000 0.500000
O O10 0.686447 0.305332 0.588572
O O11 0.500000 0.611654 0.418041
O O12 0.253634 0.598710 0.457617
O O13 0.281403 0.603533 0.353426
O O14 0.792914 0.500000 0.500000
O O15 0.000000 0.427231 0.516648
O O16 0.724458 0.576848 0.250000
O O17 0.500000 0.558409 0.194317
#
# Coordination Sequence:
#
# PCOD8257102 Si02
#       6
#    16  16  16  16  16  16
#     4  10  20  33  48  70 101 132 166 204 245 296
#     4   9  18  33  53  75  98 127 163 201 247 299
#     4  10  20  34  50  71  99 133 171 205 246 298
#     4  10  19  31  51  76  97 124 169 210 243 293
#     4  10  20  32  47  70 102 135 162 197 251 305
#     4   8  15  30  51  74 100 126 155 202 255 294
#
# _framework density 17.026315
#
# number of rings (size 3 to 8) (size 9 to 14) (size 15 to 20)
#    0.000    2.500    1.667    2.000    0.000    2.000 
#    0.000    0.833    0.000    4.500    0.000    0.000 
#    0.000    0.000    0.000    0.000    0.000    0.000 
#
# Total GULP energy -595199.669830 kJ/mol
# GULP energy per Si atom -12399.993121 kJ/mol
# Density = 1.698756 g / cm^3
# Si number density = 17.026315 Si / 1000 Ang^3
#
#
#
# Elastic Constant Matrix: (Units=GPa)
#
#
# Indices 1 2 3 4 5 6 
#
# 1 46.0990 39.8588 38.8955 0.0000 0.0000 0.0000
# 2 39.8588 129.1219 53.2744 0.0000 0.0000 0.0000
# 3 38.8955 53.2744 79.9490 0.0000 0.0000 0.0000
# 4 0.0000 0.0000 0.0000 11.1154 0.0000 0.0000
# 5 0.0000 0.0000 0.0000 0.0000 22.3521 0.0000
# 6 0.0000 0.0000 0.0000 0.0000 0.0000 1.3575
#
#
#
# Elastic Compliance Matrix: (Units=1/GPa)
#
#
# Indices 1 2 3 4 5 6 
#
# 1 0.039840 -0.005932 -0.015429 0.000000 0.000000 0.000000
# 2 -0.005932 0.011565 -0.004820 0.000000 0.000000 0.000000
# 3 -0.015429 -0.004820 0.023226 0.000000 0.000000 0.000000
# 4 0.000000 0.000000 0.000000 0.089965 0.000000 0.000000
# 5 0.000000 0.000000 0.000000 0.000000 0.044739 0.000000
# 6 0.000000 0.000000 0.000000 0.000000 0.000000 0.736675
#
#
# Mechanical properties :
#
#
# Convention : Reuss Voigt Hill
#
# Bulk Modulus (GPa) = 44.90832 57.69193 51.30013
# Shear Modulus (GPa) = 4.97119 15.17439 10.07279
#
# Velocity S-wave (km/s) = 1.71057 2.98859 2.43492
# Velocity P-wave (km/s) = 5.50768 6.77248 6.17256
#
# Compressibility (1/GPa) = 0.02226759
#
# Stress axis : x y z
#
# Youngs Moduli (GPa) = 25.10034 86.47108 43.05476
#
# Poissons Ratio (x) = 0.51297 0.66431
# Poissons Ratio (y) = 0.14890 0.20752
# Poissons Ratio (z) = 0.38728 0.41679
#
# Static dielectric constant tensor:
#      x y z
#    x 3.026420 0.000000 0.000000 
#    y 0.000000 3.409510 0.000000 
#    z 0.000000 0.000000 3.367140 
# 
# 
# High freq. dielectric constant tensor:
#      x y z
#    x 1.638430 0.000000 0.000000 
#    y 0.000000 1.663480 0.000000 
#    z 0.000000 0.000000 1.653560 
# 
# From -- ./inp_files/51357.got.cif
#   From: 2010.03.12/outbox.cif.g09.slc.cpg/sg63_26_cif.got.tgz:51357.got - 2010.04.10 19:34:48.
