data_PCOD8257931
_publ_section_title
;
Structure prediction by ZEFSAII (Michael W. Deem and Ramdas Pophale) SiO2 
 PCOD8257931
Probable space group: C M C M
;
_chemical_formula_sum "Si O2"
_cell_formula_units_Z 72
_cell_length_a 14.666937
_cell_length_b 14.484149
_cell_length_c 18.550941
_cell_angle_alpha 90.000000
_cell_angle_beta 90.000000
_cell_angle_gamma 90.000000
_cell_volume 3940.926676
_symmetry_space_group_name_H-M "C M C M"
_symmetry_group_IT_number 63
_symmetry_cell_setting 'orthorhombic'
loop_
_space_group_symop_operation_xyz
x,y,z
-x,-y,1/2+z
x,-y,-z
-x,y,1/2-z
-x,-y,-z
x,y,1/2-z
-x,y,z
x,-y,1/2+z
1/2+x,1/2+y,z
1/2-x,1/2-y,1/2+z
1/2+x,1/2-y,-z
1/2-x,1/2+y,1/2-z
1/2-x,1/2-y,-z
1/2+x,1/2+y,1/2-z
1/2-x,1/2+y,z
1/2+x,1/2-y,1/2+z
loop_
_atom_site_type_symbol
_atom_site_label
_atom_site_fract_x
_atom_site_fract_y
_atom_site_fract_z
Si Si1 0.815632 0.993051 0.331554
Si Si2 0.500000 0.613807 0.829071
Si Si3 0.684418 0.653515 0.055554
Si Si4 0.000000 0.599045 0.963534
Si Si5 0.696432 0.138351 0.922078
Si Si6 0.000000 0.205231 0.523034
O O1 0.789067 0.019051 0.250000
O O2 0.745359 0.916204 0.358724
O O3 0.915308 0.952710 0.337353
O O4 0.815800 0.085309 0.377868
O O5 0.500000 0.662732 0.750000
O O6 0.500000 0.689517 0.891514
O O7 0.710910 0.752322 0.089122
O O8 0.760807 0.614832 0.000446
O O9 0.587836 0.659277 0.014353
O O10 0.090744 0.609315 0.915874
O O11 0.000000 0.500000 0.000000
O O12 0.000000 0.683877 0.019890
#
# Coordination Sequence:
#
# PCOD8257931 Si02
#       6
#    16   8  16   8  16   8
#     4  11  22  36  56  82 114 148 179 228 290 340
#     4  10  21  35  54  87 122 144 172 222 289 352
#     4  10  20  35  58  84 108 145 190 229 280 338
#     4  10  20  35  58  80 109 144 192 238 268 318
#     4  10  21  36  56  82 110 145 191 236 274 322
#     4  10  19  34  60  87 111 150 183 233 289 325
#
# _framework density 18.269815000000001
#
# number of rings (size 3 to 8) (size 9 to 14) (size 15 to 20)
#    0.000    1.778    2.222    2.667    0.000    1.778 
#    0.000    0.556    0.000    4.000    0.000    0.000 
#    0.000    0.000    0.000    0.000    0.000    0.000 
#
# Total GULP energy -446387.320081 kJ/mol
# GULP energy per Si atom -12399.647780 kJ/mol
# Density = 1.822823 g / cm^3
# Si number density = 18.269815 Si / 1000 Ang^3
#
#
#
# Elastic Constant Matrix: (Units=GPa)
#
#
# Indices 1 2 3 4 5 6 
#
# 1 132.3724 42.0202 56.2646 0.0000 0.0000 0.0000
# 2 42.0202 100.2476 81.2782 0.0000 0.0000 0.0000
# 3 56.2646 81.2782 149.0726 0.0000 0.0000 0.0000
# 4 0.0000 0.0000 0.0000 26.5520 0.0000 0.0000
# 5 0.0000 0.0000 0.0000 0.0000 44.1957 0.0000
# 6 0.0000 0.0000 0.0000 0.0000 0.0000 1.1617
#
#
#
# Elastic Compliance Matrix: (Units=1/GPa)
#
#
# Indices 1 2 3 4 5 6 
#
# 1 0.009188 -0.001863 -0.002452 0.000000 0.000000 0.000000
# 2 -0.001863 0.018257 -0.009251 0.000000 0.000000 0.000000
# 3 -0.002452 -0.009251 0.012677 0.000000 0.000000 0.000000
# 4 0.000000 0.000000 0.000000 0.037662 0.000000 0.000000
# 5 0.000000 0.000000 0.000000 0.000000 0.022627 0.000000
# 6 0.000000 0.000000 0.000000 0.000000 0.000000 0.860815
#
#
# Mechanical properties :
#
#
# Convention : Reuss Voigt Hill
#
# Bulk Modulus (GPa) = 76.98194 82.31316 79.64755
# Shear Modulus (GPa) = 5.03683 27.85721 16.44702
#
# Velocity S-wave (km/s) = 1.66220 3.90906 3.00364
# Velocity P-wave (km/s) = 6.77580 8.09483 7.46451
#
# Compressibility (1/GPa) = 0.01299006
#
# Stress axis : x y z
#
# Youngs Moduli (GPa) = 108.83599 54.77493 78.88151
#
# Poissons Ratio (x) = 0.10207 0.19341
# Poissons Ratio (y) = 0.20280 0.72970
# Poissons Ratio (z) = 0.26686 0.50670
#
# Static dielectric constant tensor:
#      x y z
#    x 3.726000 0.000000 0.000000 
#    y 0.000000 3.364360 0.000000 
#    z 0.000000 0.000000 3.320800 
# 
# 
# High freq. dielectric constant tensor:
#      x y z
#    x 1.726620 0.000000 0.000000 
#    y 0.000000 1.713340 0.000000 
#    z 0.000000 0.000000 1.687960 
# 
# From -- ./inp_files/43781.got.cif
#   From: 2010.03.12/outbox.cif.g09.slc.cpg/sg63_22_cif.got.tgz:43781.got - 2010.04.10 19:34:48.
