data_PCOD8257047
_publ_section_title
;
Structure prediction by ZEFSAII (Michael W. Deem and Ramdas Pophale) SiO2 
 PCOD8257047
Probable space group: C M C M
;
_chemical_formula_sum "Si O2"
_cell_formula_units_Z 96
_cell_length_a 8.696311
_cell_length_b 27.520327
_cell_length_c 23.274959
_cell_angle_alpha 90.000000
_cell_angle_beta 90.000000
_cell_angle_gamma 90.000000
_cell_volume 5570.287067
_symmetry_space_group_name_H-M "C M C M"
_symmetry_group_IT_number 63
_symmetry_cell_setting 'orthorhombic'
loop_
_space_group_symop_operation_xyz
x,y,z
-x,-y,1/2+z
x,-y,-z
-x,y,1/2-z
-x,-y,-z
x,y,1/2-z
-x,y,z
x,-y,1/2+z
1/2+x,1/2+y,z
1/2-x,1/2-y,1/2+z
1/2+x,1/2-y,-z
1/2-x,1/2+y,1/2-z
1/2-x,1/2-y,-z
1/2+x,1/2+y,1/2-z
1/2-x,1/2+y,z
1/2+x,1/2-y,1/2+z
loop_
_atom_site_type_symbol
_atom_site_label
_atom_site_fract_x
_atom_site_fract_y
_atom_site_fract_z
Si Si1 0.678520 0.929308 0.183605
Si Si2 0.819528 0.014410 0.584354
Si Si3 0.177876 0.172255 0.684314
Si Si4 0.178912 0.318878 0.972887
Si Si5 0.819266 0.429709 0.518733
Si Si6 0.321402 0.233616 0.589385
O O1 0.717332 0.938818 0.250000
O O2 0.500000 0.935983 0.169697
O O3 0.774776 0.968625 0.147964
O O4 0.725592 0.874947 0.165813
O O5 0.768954 0.055500 0.539125
O O6 0.000000 0.005566 0.579775
O O7 0.732998 0.963901 0.571135
O O8 0.212649 0.186751 0.750000
O O9 0.227289 0.217398 0.645253
O O10 0.000000 0.159874 0.675047
O O11 0.224814 0.374850 0.965346
O O12 0.274955 0.288630 0.926176
O O13 0.000000 0.309528 0.961238
O O14 0.223052 0.301921 0.036955
O O15 0.000000 0.435402 0.507386
O O16 0.500000 0.231426 0.604232
#
# Coordination Sequence:
#
# PCOD8257047 Si02
#       6
#    16  16  16  16  16  16
#     4  10  20  34  52  73  98 129 165 202 242 291
#     4  11  21  32  49  74 103 131 162 201 246 293
#     4  10  20  33  50  73 101 131 162 199 243 288
#     4   9  19  33  49  71  98 129 163 200 242 286
#     4  10  19  33  52  72  99 133 168 203 241 288
#     4  10  19  31  50  74 100 130 162 198 241 289
#
# _framework density 17.234300000000001
#
# number of rings (size 3 to 8) (size 9 to 14) (size 15 to 20)
#    0.000    2.000    0.000    5.500    0.000    5.333 
#    0.000    0.000    0.000    1.000    0.000    7.000 
#    0.000    0.000    0.000    0.000    0.000    0.000 
#
# Total GULP energy -595427.113678 kJ/mol
# GULP energy per Si atom -12404.731535 kJ/mol
# Density = 1.719507 g / cm^3
# Si number density = 17.234300 Si / 1000 Ang^3
#
#
#
# Elastic Constant Matrix: (Units=GPa)
#
#
# Indices 1 2 3 4 5 6 
#
# 1 57.8296 27.0666 26.5736 0.0000 0.0000 0.0000
# 2 27.0666 111.7512 48.4565 0.0000 0.0000 0.0000
# 3 26.5736 48.4565 80.8532 0.0000 0.0000 0.0000
# 4 0.0000 0.0000 0.0000 27.0383 0.0000 0.0000
# 5 0.0000 0.0000 0.0000 0.0000 28.5933 0.0000
# 6 0.0000 0.0000 0.0000 0.0000 0.0000 29.6963
#
#
#
# Elastic Compliance Matrix: (Units=1/GPa)
#
#
# Indices 1 2 3 4 5 6 
#
# 1 0.021011 -0.002830 -0.005209 0.000000 0.000000 0.000000
# 2 -0.002830 0.012472 -0.006544 0.000000 0.000000 0.000000
# 3 -0.005209 -0.006544 0.018002 0.000000 0.000000 0.000000
# 4 0.000000 0.000000 0.000000 0.036985 0.000000 0.000000
# 5 0.000000 0.000000 0.000000 0.000000 0.034973 0.000000
# 6 0.000000 0.000000 0.000000 0.000000 0.000000 0.033674
#
#
# Mechanical properties :
#
#
# Convention : Reuss Voigt Hill
#
# Bulk Modulus (GPa) = 44.80863 50.51415 47.66139
# Shear Modulus (GPa) = 25.81011 26.95475 26.38243
#
# Velocity S-wave (km/s) = 3.87408 3.95906 3.91680
# Velocity P-wave (km/s) = 6.78730 7.09033 6.94047
#
# Compressibility (1/GPa) = 0.02231713
#
# Stress axis : x y z
#
# Youngs Moduli (GPa) = 47.59525 80.18248 55.54845
#
# Poissons Ratio (x) = 0.22692 0.28937
# Poissons Ratio (y) = 0.13469 0.36352
# Poissons Ratio (z) = 0.24794 0.52474
#
# Static dielectric constant tensor:
#      x y z
#    x 3.296820 0.000000 0.000000 
#    y 0.000000 3.167120 0.000000 
#    z 0.000000 0.000000 3.114150 
# 
# 
# High freq. dielectric constant tensor:
#      x y z
#    x 1.680390 0.000000 0.000000 
#    y 0.000000 1.655580 0.000000 
#    z 0.000000 0.000000 1.651980 
# 
# From -- ./inp_files/60200.got.cif
#   From: 2010.03.12/outbox.cif.g09.slc.cpg/sg63_31_cif.got.tgz:60200.got - 2010.04.10 19:34:48.
