data_PCOD8257942
_publ_section_title
;
Structure prediction by ZEFSAII (Michael W. Deem and Ramdas Pophale) SiO2 
 PCOD8257942
Probable space group: C M C M
;
_chemical_formula_sum "Si O2"
_cell_formula_units_Z 84
_cell_length_a 11.940210
_cell_length_b 22.639681
_cell_length_c 15.205664
_cell_angle_alpha 90.000000
_cell_angle_beta 90.000000
_cell_angle_gamma 90.000000
_cell_volume 4110.433798
_symmetry_space_group_name_H-M "C M C M"
_symmetry_group_IT_number 63
_symmetry_cell_setting 'orthorhombic'
loop_
_space_group_symop_operation_xyz
x,y,z
-x,-y,1/2+z
x,-y,-z
-x,y,1/2-z
-x,-y,-z
x,y,1/2-z
-x,y,z
x,-y,1/2+z
1/2+x,1/2+y,z
1/2-x,1/2-y,1/2+z
1/2+x,1/2-y,-z
1/2-x,1/2+y,1/2-z
1/2-x,1/2-y,-z
1/2+x,1/2+y,1/2-z
1/2-x,1/2+y,z
1/2+x,1/2-y,1/2+z
loop_
_atom_site_type_symbol
_atom_site_label
_atom_site_fract_x
_atom_site_fract_y
_atom_site_fract_z
Si Si1 0.257771 0.054182 0.750000
Si Si2 0.216135 0.738886 0.399524
Si Si3 0.000000 0.321972 0.652120
Si Si4 0.500000 0.950544 0.250000
Si Si5 0.500000 0.951035 0.608756
Si Si6 0.374701 0.640181 0.150072
Si Si7 0.244015 0.468804 0.916740
Si Si8 0.365212 0.675228 0.750000
O O1 0.382409 0.085396 0.750000
O O2 0.166819 0.106008 0.750000
O O3 0.243835 0.011425 0.666673
O O4 0.250000 0.750000 0.500000
O O5 0.318259 0.704383 0.354718
O O6 0.186627 0.796035 0.339400
O O7 0.107823 0.697190 0.402436
O O8 0.000000 0.391909 0.666957
O O9 0.000000 0.292499 0.750000
O O10 0.500000 0.991181 0.166026
O O11 0.384261 0.952865 0.554580
O O12 0.376055 0.618467 0.250000
O O13 0.500000 0.645381 0.112037
O O14 0.307289 0.592596 0.094570
O O15 0.301248 0.500000 0.000000
O O16 0.500000 0.679832 0.750000
#
# Coordination Sequence:
#
# PCOD8257942 Si02
#       8
#     8  16   8   4   8  16  16   8
#     4  10  24  41  63  95 135 178 216 264 335 396
#     4  12  26  44  68 100 133 170 226 281 337 394
#     4  12  20  41  77 103 123 173 235 286 324 383
#     4   8  18  38  60  94 132 164 208 270 328 388
#     4  10  19  34  71  99 126 162 216 278 329 376
#     4  11  24  44  69  95 129 172 220 275 333 392
#     4  11  23  41  65 100 135 170 215 270 329 394
#     4  12  26  48  72  95 133 183 230 274 327 407
#
# _framework density 20.4358
#
# number of rings (size 3 to 8) (size 9 to 14) (size 15 to 20)
#    0.000    0.952    6.190    0.286    4.000    1.143 
#    1.714    0.000    0.000    0.000    0.000    0.000 
#    0.000    0.000    0.000    0.000    0.000    0.000 
#
# Total GULP energy -520523.674088 kJ/mol
# GULP energy per Si atom -12393.420812 kJ/mol
# Density = 2.038929 g / cm^3
# Si number density = 20.435800 Si / 1000 Ang^3
#
#
#
# Elastic Constant Matrix: (Units=GPa)
#
#
# Indices 1 2 3 4 5 6 
#
# 1 148.5541 53.8085 37.5684 0.0000 0.0000 0.0000
# 2 53.8085 95.9734 28.4645 0.0000 0.0000 0.0000
# 3 37.5684 28.4645 116.9164 0.0000 0.0000 0.0000
# 4 0.0000 0.0000 0.0000 -35.4808 0.0000 0.0000
# 5 0.0000 0.0000 0.0000 0.0000 -48.4490 0.0000
# 6 0.0000 0.0000 0.0000 0.0000 0.0000 37.5728
#
#
#
# Elastic Compliance Matrix: (Units=1/GPa)
#
#
# Indices 1 2 3 4 5 6 
#
# 1 0.008766 -0.004397 -0.001746 0.000000 0.000000 0.000000
# 2 -0.004397 0.013436 -0.001858 0.000000 0.000000 0.000000
# 3 -0.001746 -0.001858 0.009567 0.000000 0.000000 0.000000
# 4 0.000000 0.000000 0.000000 -0.028184 0.000000 0.000000
# 5 0.000000 0.000000 0.000000 0.000000 -0.020640 0.000000
# 6 0.000000 0.000000 0.000000 0.000000 0.000000 0.026615
#
#
# Mechanical properties :
#
#
# Convention : Reuss Voigt Hill
#
# Bulk Modulus (GPa) = 63.42891 66.79184 65.11037
# Shear Modulus (GPa) = 162.25189 6.83543 84.54366
#
# Velocity S-wave (km/s) = 8.92010 1.83087 6.43896
# Velocity P-wave (km/s) = 11.71309 6.10116 9.33865
#
# Compressibility (1/GPa) = 0.01576568
#
# Stress axis : x y z
#
# Youngs Moduli (GPa) = 114.08094 74.42830 104.52976
#
# Poissons Ratio (x) = 0.32724 0.18253
# Poissons Ratio (y) = 0.50158 0.19425
# Poissons Ratio (z) = 0.19921 0.13831
#
# Static dielectric constant tensor:
#      x y z
#    x 4.053960 0.000000 0.000000 
#    y 0.000000 3.582200 0.000000 
#    z 0.000000 0.000000 3.519000 
# 
# 
# High freq. dielectric constant tensor:
#      x y z
#    x 1.809330 0.000000 0.000000 
#    y 0.000000 1.793940 0.000000 
#    z 0.000000 0.000000 1.789230 
# 
# From -- ./inp_files/29939.got.cif
#   From: 2010.03.12/outbox.cif.g09.slc.cpg/sg63_15_cif.got.tgz:29939.got - 2010.04.10 19:34:48.
