data_PCOD8257775
_publ_section_title
;
Structure prediction by ZEFSAII (Michael W. Deem and Ramdas Pophale) SiO2 
 PCOD8257775
Probable space group: C M C M
;
_chemical_formula_sum "Si O2"
_cell_formula_units_Z 128
_cell_length_a 25.611459
_cell_length_b 28.855210
_cell_length_c 9.614065
_cell_angle_alpha 90.000000
_cell_angle_beta 90.000000
_cell_angle_gamma 90.000000
_cell_volume 7105.025040
_symmetry_space_group_name_H-M "C M C M"
_symmetry_group_IT_number 63
_symmetry_cell_setting 'orthorhombic'
loop_
_space_group_symop_operation_xyz
x,y,z
-x,-y,1/2+z
x,-y,-z
-x,y,1/2-z
-x,-y,-z
x,y,1/2-z
-x,y,z
x,-y,1/2+z
1/2+x,1/2+y,z
1/2-x,1/2-y,1/2+z
1/2+x,1/2-y,-z
1/2-x,1/2+y,1/2-z
1/2-x,1/2-y,-z
1/2+x,1/2+y,1/2-z
1/2-x,1/2+y,z
1/2+x,1/2-y,1/2+z
loop_
_atom_site_type_symbol
_atom_site_label
_atom_site_fract_x
_atom_site_fract_y
_atom_site_fract_z
Si Si1 0.756637 0.855864 0.413162
Si Si2 0.846013 0.698375 0.914699
Si Si3 0.843044 0.196784 0.084988
Si Si4 0.723589 0.042546 0.591217
Si Si5 0.057301 0.141505 0.414697
Si Si6 0.557983 0.140403 0.584478
Si Si7 0.938125 0.960040 0.903815
Si Si8 0.897985 0.456764 0.411194
O O1 0.766414 0.846238 0.250000
O O2 0.702755 0.832389 0.462863
O O3 0.802297 0.834677 0.504415
O O4 0.754672 0.910581 0.444910
O O5 0.850481 0.698691 0.750000
O O6 0.838218 0.750626 0.968838
O O7 0.899495 0.676526 0.976966
O O8 0.833278 0.192179 0.250000
O O9 0.900862 0.179958 0.041752
O O10 0.732332 0.028233 0.750000
O O11 0.662959 0.052156 0.561159
O O12 0.745280 0.000000 0.500000
O O13 0.053042 0.137268 0.250000
O O14 0.074808 0.090559 0.469171
O O15 0.000000 0.155412 0.474700
O O16 0.560377 0.141844 0.750000
O O17 0.500000 0.153883 0.530842
O O18 0.571494 0.088478 0.535539
O O19 0.913539 0.965463 0.750000
O O20 0.000000 0.965930 0.894616
O O21 0.913111 0.000000 0.000000
O O22 0.918804 0.500000 0.500000
O O23 0.909230 0.467094 0.250000
#
# Coordination Sequence:
#
# PCOD8257775 Si02
#       8
#    16  16  16  16  16  16  16  16
#     4  10  19  34  53  71  99 133 161 197 249 298
#     4   9  17  31  49  70  97 129 163 203 249 292
#     4  10  20  32  51  77  98 121 163 210 244 284
#     4   9  17  30  50  72  97 132 167 199 241 295
#     4   8  15  29  47  68  97 126 148 183 239 288
#     4   9  16  27  46  73 102 131 166 208 251 296
#     4   8  13  23  41  63  86 114 146 177 214 264
#     4   9  16  28  46  69  97 130 166 202 244 294
#
# _framework density 18.015418
#
# number of rings (size 3 to 8) (size 9 to 14) (size 15 to 20)
#    0.000    3.000    1.250    1.125    0.000    1.250 
#    0.000    3.750    0.000    4.875    0.000    0.000 
#    0.000    0.000    0.000    0.000    0.000    0.000 
#
# Total GULP energy -793317.756331 kJ/mol
# GULP energy per Si atom -12395.589943 kJ/mol
# Density = 1.797441 g / cm^3
# Si number density = 18.015418 Si / 1000 Ang^3
#
#
#
# Elastic Constant Matrix: (Units=GPa)
#
#
# Indices 1 2 3 4 5 6 
#
# 1 98.8239 63.2164 31.2863 0.0000 0.0000 0.0000
# 2 63.2164 133.1945 43.2277 0.0000 0.0000 0.0000
# 3 31.2863 43.2277 40.4372 0.0000 0.0000 0.0000
# 4 0.0000 0.0000 0.0000 24.1848 0.0000 0.0000
# 5 0.0000 0.0000 0.0000 0.0000 15.0622 0.0000
# 6 0.0000 0.0000 0.0000 0.0000 0.0000 22.8050
#
#
#
# Elastic Compliance Matrix: (Units=1/GPa)
#
#
# Indices 1 2 3 4 5 6 
#
# 1 0.015521 -0.005312 -0.006330 0.000000 0.000000 0.000000
# 2 -0.005312 0.013315 -0.010123 0.000000 0.000000 0.000000
# 3 -0.006330 -0.010123 0.040449 0.000000 0.000000 0.000000
# 4 0.000000 0.000000 0.000000 0.041348 0.000000 0.000000
# 5 0.000000 0.000000 0.000000 0.000000 0.066391 0.000000
# 6 0.000000 0.000000 0.000000 0.000000 0.000000 0.043850
#
#
# Mechanical properties :
#
#
# Convention : Reuss Voigt Hill
#
# Bulk Modulus (GPa) = 38.82908 60.87961 49.85435
# Shear Modulus (GPa) = 18.31570 21.39209 19.85390
#
# Velocity S-wave (km/s) = 3.19198 3.44965 3.32332
# Velocity P-wave (km/s) = 5.93170 7.05218 6.51607
#
# Compressibility (1/GPa) = 0.02575389
#
# Stress axis : x y z
#
# Youngs Moduli (GPa) = 64.42818 75.10568 24.72247
#
# Poissons Ratio (x) = 0.39898 0.15649
# Poissons Ratio (y) = 0.34226 0.25027
# Poissons Ratio (z) = 0.40782 0.76032
#
# Static dielectric constant tensor:
#      x y z
#    x 3.383140 0.000000 0.000000 
#    y 0.000000 3.594270 0.000000 
#    z 0.000000 0.000000 3.008190 
# 
# 
# High freq. dielectric constant tensor:
#      x y z
#    x 1.685940 0.000000 0.000000 
#    y 0.000000 1.709220 0.000000 
#    z 0.000000 0.000000 1.648030 
# 
# From -- ./inp_files/24239.got.cif
#   From: 2010.03.12/outbox.cif.g09.slc.cpg/sg63_13_cif.got.tgz:24239.got - 2010.04.10 19:34:48.
