data_PCOD8257419
_publ_section_title
;
Structure prediction by ZEFSAII (Michael W. Deem and Ramdas Pophale) SiO2 
 PCOD8257419
Probable space group: C M C M
;
_chemical_formula_sum "Si O2"
_cell_formula_units_Z 64
_cell_length_a 8.835430
_cell_length_b 24.151551
_cell_length_c 15.633130
_cell_angle_alpha 90.000000
_cell_angle_beta 90.000000
_cell_angle_gamma 90.000000
_cell_volume 3335.943266
_symmetry_space_group_name_H-M "C M C M"
_symmetry_group_IT_number 63
_symmetry_cell_setting 'orthorhombic'
loop_
_space_group_symop_operation_xyz
x,y,z
-x,-y,1/2+z
x,-y,-z
-x,y,1/2-z
-x,-y,-z
x,y,1/2-z
-x,y,z
x,-y,1/2+z
1/2+x,1/2+y,z
1/2-x,1/2-y,1/2+z
1/2+x,1/2-y,-z
1/2-x,1/2+y,1/2-z
1/2-x,1/2-y,-z
1/2+x,1/2+y,1/2-z
1/2-x,1/2+y,z
1/2+x,1/2-y,1/2+z
loop_
_atom_site_type_symbol
_atom_site_label
_atom_site_fract_x
_atom_site_fract_y
_atom_site_fract_z
Si Si1 0.320916 0.185004 0.750000
Si Si2 0.679438 0.617187 0.093569
Si Si3 0.680388 0.689769 0.250000
Si Si4 0.821644 0.881442 0.403422
Si Si5 0.820377 0.999608 0.845883
O O1 0.500000 0.183433 0.750000
O O2 0.258918 0.247709 0.750000
O O3 0.263334 0.156047 0.835464
O O4 0.500000 0.614421 0.101431
O O5 0.744090 0.659028 0.165215
O O6 0.745346 0.555339 0.108611
O O7 0.724656 0.638267 0.998844
O O8 0.500000 0.688384 0.250000
O O9 0.768769 0.945266 0.395376
O O10 0.000000 0.876001 0.386293
O O11 0.755579 0.002477 0.750000
O O12 0.000000 0.996353 0.844230
#
# Coordination Sequence:
#
# PCOD8257419 Si02
#       5
#     8  16   8  16  16
#     4  11  23  36  49  67  99 141 178 207 240 288
#     4   9  16  28  50  78 105 129 158 204 256 300
#     4   9  18  32  47  69 101 137 172 203 242 294
#     4  10  19  32  53  81 104 125 161 208 255 299
#     4   9  14  24  47  79 108 126 149 197 255 303
#
# _framework density 19.184979999999999
#
# number of rings (size 3 to 8) (size 9 to 14) (size 15 to 20)
#    0.000    2.500    2.500    1.125    0.000    4.000 
#    0.000    0.000    0.000    4.500    0.000    3.500 
#    0.000    0.000    0.000    0.000    0.000    0.000 
#
# Total GULP energy -396658.905396 kJ/mol
# GULP energy per Si atom -12395.590794 kJ/mol
# Density = 1.914131 g / cm^3
# Si number density = 19.184980 Si / 1000 Ang^3
#
#
#
# Elastic Constant Matrix: (Units=GPa)
#
#
# Indices 1 2 3 4 5 6 
#
# 1 21.3030 26.9277 25.5185 0.0000 0.0000 0.0000
# 2 26.9277 164.9837 90.1020 0.0000 0.0000 0.0000
# 3 25.5185 90.1020 182.2698 0.0000 0.0000 0.0000
# 4 0.0000 0.0000 0.0000 7.5578 0.0000 0.0000
# 5 0.0000 0.0000 0.0000 0.0000 13.0645 0.0000
# 6 0.0000 0.0000 0.0000 0.0000 0.0000 17.1595
#
#
#
# Elastic Compliance Matrix: (Units=1/GPa)
#
#
# Indices 1 2 3 4 5 6 
#
# 1 0.062385 -0.007414 -0.005069 0.000000 0.000000 0.000000
# 2 -0.007414 0.009184 -0.003502 0.000000 0.000000 0.000000
# 3 -0.005069 -0.003502 0.007927 0.000000 0.000000 0.000000
# 4 0.000000 0.000000 0.000000 0.132314 0.000000 0.000000
# 5 0.000000 0.000000 0.000000 0.000000 0.076543 0.000000
# 6 0.000000 0.000000 0.000000 0.000000 0.000000 0.058277
#
#
# Mechanical properties :
#
#
# Convention : Reuss Voigt Hill
#
# Bulk Modulus (GPa) = 21.04092 72.62809 46.83451
# Shear Modulus (GPa) = 12.67615 22.62359 17.64987
#
# Velocity S-wave (km/s) = 2.57326 3.43772 3.03641
# Velocity P-wave (km/s) = 4.45198 7.32777 6.06285
#
# Compressibility (1/GPa) = 0.04752644
#
# Stress axis : x y z
#
# Youngs Moduli (GPa) = 16.02940 108.88898 126.14811
#
# Poissons Ratio (x) = 0.80726 0.63950
# Poissons Ratio (y) = 0.11884 0.44175
# Poissons Ratio (z) = 0.08126 0.38131
#
# Static dielectric constant tensor:
#      x y z
#    x 2.795830 0.000000 0.000000 
#    y 0.000000 3.718370 0.000000 
#    z 0.000000 0.000000 3.768410 
# 
# 
# High freq. dielectric constant tensor:
#      x y z
#    x 1.668260 0.000000 0.000000 
#    y 0.000000 1.750440 0.000000 
#    z 0.000000 0.000000 1.765960 
# 
# From -- ./inp_files/27583.got.cif
#   From: 2010.03.12/outbox.cif.g09.slc.cpg/sg63_14_cif.got.tgz:27583.got - 2010.04.10 19:34:48.
