data_PCOD8257363
_publ_section_title
;
Structure prediction by ZEFSAII (Michael W. Deem and Ramdas Pophale) SiO2 
 PCOD8257363
Probable space group: C M C M
;
_chemical_formula_sum "Si O2"
_cell_formula_units_Z 96
_cell_length_a 8.505160
_cell_length_b 27.601110
_cell_length_c 22.556424
_cell_angle_alpha 90.000000
_cell_angle_beta 90.000000
_cell_angle_gamma 90.000000
_cell_volume 5295.162415
_symmetry_space_group_name_H-M "C M C M"
_symmetry_group_IT_number 63
_symmetry_cell_setting 'orthorhombic'
loop_
_space_group_symop_operation_xyz
x,y,z
-x,-y,1/2+z
x,-y,-z
-x,y,1/2-z
-x,-y,-z
x,y,1/2-z
-x,y,z
x,-y,1/2+z
1/2+x,1/2+y,z
1/2-x,1/2-y,1/2+z
1/2+x,1/2-y,-z
1/2-x,1/2+y,1/2-z
1/2-x,1/2-y,-z
1/2+x,1/2+y,1/2-z
1/2-x,1/2+y,z
1/2+x,1/2-y,1/2+z
loop_
_atom_site_type_symbol
_atom_site_label
_atom_site_fract_x
_atom_site_fract_y
_atom_site_fract_z
Si Si1 0.314992 0.375332 0.750000
Si Si2 0.317139 0.145223 0.552997
Si Si3 0.815408 0.267548 0.750000
Si Si4 0.181836 0.805758 0.558135
Si Si5 0.682811 0.721176 0.872807
Si Si6 0.814611 0.390143 0.628015
Si Si7 0.313677 0.052489 0.485663
O O1 0.500000 0.382034 0.750000
O O2 0.273735 0.318448 0.750000
O O3 0.241350 0.403712 0.806169
O O4 0.500000 0.142958 0.568016
O O5 0.288678 0.180981 0.497788
O O6 0.226065 0.165209 0.611380
O O7 0.252906 0.091945 0.533843
O O8 0.765917 0.234991 0.693646
O O9 0.000000 0.279316 0.750000
O O10 0.219531 0.751747 0.579181
O O11 0.225314 0.840490 0.612880
O O12 0.000000 0.810635 0.540592
O O13 0.500000 0.730973 0.882072
O O14 0.765053 0.431727 0.580996
O O15 0.000000 0.380529 0.626029
O O16 0.500000 0.050005 0.490173
O O17 0.238487 0.000000 0.500000
#
# Coordination Sequence:
#
# PCOD8257363 Si02
#       7
#     8  16   8  16  16  16  16
#     4  12  22  32  50  75 108 143 177 214 249 303
#     4  10  20  33  51  75 102 132 166 212 263 311
#     4  10  22  36  52  69  98 143 183 214 251 301
#     4  11  20  31  48  73 104 136 172 210 251 304
#     4  11  21  34  50  70 100 138 177 213 250 302
#     4  10  19  32  52  77 107 139 172 213 263 314
#     4   8  16  33  57  81 101 127 168 218 270 318
#
# _framework density 18.129756
#
# number of rings (size 3 to 8) (size 9 to 14) (size 15 to 20)
#    0.000    1.833    1.667    5.250    0.000    0.667 
#    0.000    0.000    0.000   19.000    0.000    4.667 
#    0.000    0.000    0.000    0.000    0.000    0.000 
#
# Total GULP energy -595111.444030 kJ/mol
# GULP energy per Si atom -12398.155084 kJ/mol
# Density = 1.808849 g / cm^3
# Si number density = 18.129756 Si / 1000 Ang^3
#
#
#
# Elastic Constant Matrix: (Units=GPa)
#
#
# Indices 1 2 3 4 5 6 
#
# 1 53.4317 20.5238 14.1378 0.0000 0.0000 0.0000
# 2 20.5238 113.6731 62.4130 0.0000 0.0000 0.0000
# 3 14.1378 62.4130 89.9594 0.0000 0.0000 0.0000
# 4 0.0000 0.0000 0.0000 20.0528 0.0000 0.0000
# 5 0.0000 0.0000 0.0000 0.0000 24.3765 0.0000
# 6 0.0000 0.0000 0.0000 0.0000 0.0000 16.3759
#
#
#
# Elastic Compliance Matrix: (Units=1/GPa)
#
#
# Indices 1 2 3 4 5 6 
#
# 1 0.020170 -0.003071 -0.001039 0.000000 0.000000 0.000000
# 2 -0.003071 0.014678 -0.009701 0.000000 0.000000 0.000000
# 3 -0.001039 -0.009701 0.018010 0.000000 0.000000 0.000000
# 4 0.000000 0.000000 0.000000 0.049868 0.000000 0.000000
# 5 0.000000 0.000000 0.000000 0.000000 0.041023 0.000000
# 6 0.000000 0.000000 0.000000 0.000000 0.000000 0.061065
#
#
# Mechanical properties :
#
#
# Convention : Reuss Voigt Hill
#
# Bulk Modulus (GPa) = 39.62655 50.13485 44.88070
# Shear Modulus (GPa) = 20.75994 22.82702 21.79348
#
# Velocity S-wave (km/s) = 3.38757 3.55222 3.47087
# Velocity P-wave (km/s) = 6.09963 6.67366 6.39309
#
# Compressibility (1/GPa) = 0.02523561
#
# Stress axis : x y z
#
# Youngs Moduli (GPa) = 49.57832 68.12958 55.52564
#
# Poissons Ratio (x) = 0.20924 0.05770
# Poissons Ratio (y) = 0.15227 0.53864
# Poissons Ratio (z) = 0.05152 0.66091
#
# Static dielectric constant tensor:
#      x y z
#    x 3.192440 0.000000 0.000000 
#    y 0.000000 3.457190 0.000000 
#    z 0.000000 0.000000 3.531570 
# 
# 
# High freq. dielectric constant tensor:
#      x y z
#    x 1.695800 0.000000 0.000000 
#    y 0.000000 1.672550 0.000000 
#    z 0.000000 0.000000 1.700190 
# 
# From -- ./inp_files/60333.got.cif
#   From: 2010.03.12/outbox.cif.g09.slc.cpg/sg63_31_cif.got.tgz:60333.got - 2010.04.10 19:34:48.
