data_PCOD8257858
_publ_section_title
;
Structure prediction by ZEFSAII (Michael W. Deem and Ramdas Pophale) SiO2 
 PCOD8257858
Probable space group: C M C M
;
_chemical_formula_sum "Si O2"
_cell_formula_units_Z 72
_cell_length_a 15.821419
_cell_length_b 9.093061
_cell_length_c 24.792159
_cell_angle_alpha 90.000000
_cell_angle_beta 90.000000
_cell_angle_gamma 90.000000
_cell_volume 3566.727130
_symmetry_space_group_name_H-M "C M C M"
_symmetry_group_IT_number 63
_symmetry_cell_setting 'orthorhombic'
loop_
_space_group_symop_operation_xyz
x,y,z
-x,-y,1/2+z
x,-y,-z
-x,y,1/2-z
-x,-y,-z
x,y,1/2-z
-x,y,z
x,-y,1/2+z
1/2+x,1/2+y,z
1/2-x,1/2-y,1/2+z
1/2+x,1/2-y,-z
1/2-x,1/2+y,1/2-z
1/2-x,1/2-y,-z
1/2+x,1/2+y,1/2-z
1/2-x,1/2+y,z
1/2+x,1/2-y,1/2+z
loop_
_atom_site_type_symbol
_atom_site_label
_atom_site_fract_x
_atom_site_fract_y
_atom_site_fract_z
Si Si1 0.000000 0.669615 0.483679
Si Si2 0.817327 0.906940 0.689669
Si Si3 0.000000 0.955002 0.811936
Si Si4 0.822966 0.219954 0.854984
Si Si5 0.333001 0.333236 0.019563
Si Si6 0.000000 0.261696 0.860830
O O1 0.000000 0.500000 0.500000
O O2 0.084349 0.751877 0.505336
O O3 0.000000 0.673018 0.419839
O O4 0.788943 0.864389 0.750000
O O5 0.807513 0.081447 0.683309
O O6 0.915034 0.858584 0.679235
O O7 0.757285 0.826129 0.647281
O O8 0.000000 0.083201 0.856694
O O9 0.000000 0.017419 0.750000
O O10 0.837121 0.166609 0.915833
O O11 0.909033 0.306777 0.834666
O O12 0.331078 0.500000 0.000000
O O13 0.250000 0.250000 0.000000
#
# Coordination Sequence:
#
# PCOD8257858 Si02
#       6
#     8  16   8  16  16   8
#     4  10  21  37  58  84 116 150 191 239 291 345
#     4  10  19  34  56  82 109 141 178 224 279 337
#     4   8  16  32  56  81 108 142 183 226 276 338
#     4  10  20  36  56  80 109 142 183 230 276 333
#     4  11  22  38  59  84 114 153 197 241 287 339
#     4   8  18  35  54  75 106 144 181 219 271 333
#
# _framework density 20.186575000000001
#
# number of rings (size 3 to 8) (size 9 to 14) (size 15 to 20)
#    0.000    2.222    0.000    3.000    0.000    2.667 
#    0.000    4.444    0.000    0.000    0.000    0.000 
#    0.000    0.000    0.000    0.000    0.000    0.000 
#
# Total GULP energy -446027.861225 kJ/mol
# GULP energy per Si atom -12389.662812 kJ/mol
# Density = 2.014063 g / cm^3
# Si number density = 20.186575 Si / 1000 Ang^3
#
#
#
# Elastic Constant Matrix: (Units=GPa)
#
#
# Indices 1 2 3 4 5 6 
#
# 1 213.8465 82.1535 36.1330 0.0000 0.0000 0.0000
# 2 82.1535 110.7247 30.8669 0.0000 0.0000 0.0000
# 3 36.1330 30.8669 62.5632 0.0000 0.0000 0.0000
# 4 0.0000 0.0000 0.0000 30.8008 0.0000 0.0000
# 5 0.0000 0.0000 0.0000 0.0000 27.1406 0.0000
# 6 0.0000 0.0000 0.0000 0.0000 0.0000 39.3201
#
#
#
# Elastic Compliance Matrix: (Units=1/GPa)
#
#
# Indices 1 2 3 4 5 6 
#
# 1 0.006682 -0.004501 -0.001639 0.000000 0.000000 0.000000
# 2 -0.004501 0.013504 -0.004063 0.000000 0.000000 0.000000
# 3 -0.001639 -0.004063 0.018935 0.000000 0.000000 0.000000
# 4 0.000000 0.000000 0.000000 0.032467 0.000000 0.000000
# 5 0.000000 0.000000 0.000000 0.000000 0.036845 0.000000
# 6 0.000000 0.000000 0.000000 0.000000 0.000000 0.025432
#
#
# Mechanical properties :
#
#
# Convention : Reuss Voigt Hill
#
# Bulk Modulus (GPa) = 53.43117 76.16012 64.79565
# Shear Modulus (GPa) = 31.15101 35.31770 33.23435
#
# Velocity S-wave (km/s) = 3.93256 4.18732 4.06194
# Velocity P-wave (km/s) = 6.86631 7.82229 7.35984
#
# Compressibility (1/GPa) = 0.01871567
#
# Stress axis : x y z
#
# Youngs Moduli (GPa) = 149.64735 74.05346 52.81343
#
# Poissons Ratio (x) = 0.33334 0.08654
# Poissons Ratio (y) = 0.67361 0.21456
# Poissons Ratio (z) = 0.24521 0.30086
#
# Static dielectric constant tensor:
#      x y z
#    x 4.456020 0.000000 0.000000 
#    y 0.000000 3.246290 0.000000 
#    z 0.000000 0.000000 3.533450 
# 
# 
# High freq. dielectric constant tensor:
#      x y z
#    x 1.824530 0.000000 0.000000 
#    y 0.000000 1.749550 0.000000 
#    z 0.000000 0.000000 1.778080 
# 
# From -- ./inp_files/69073.got.cif
#   From: 2010.03.12/outbox.cif.g09.slc.cpg/sg63_35_cif.got.tgz:69073.got - 2010.04.10 19:34:48.
