data_PCOD8257779
_publ_section_title
;
Structure prediction by ZEFSAII (Michael W. Deem and Ramdas Pophale) SiO2 
 PCOD8257779
Probable space group: C M C M
;
_chemical_formula_sum "Si O2"
_cell_formula_units_Z 80
_cell_length_a 21.226307
_cell_length_b 21.311977
_cell_length_c 10.241450
_cell_angle_alpha 90.000000
_cell_angle_beta 90.000000
_cell_angle_gamma 90.000000
_cell_volume 4632.971505
_symmetry_space_group_name_H-M "C M C M"
_symmetry_group_IT_number 63
_symmetry_cell_setting 'orthorhombic'
loop_
_space_group_symop_operation_xyz
x,y,z
-x,-y,1/2+z
x,-y,-z
-x,y,1/2-z
-x,-y,-z
x,y,1/2-z
-x,y,z
x,-y,1/2+z
1/2+x,1/2+y,z
1/2-x,1/2-y,1/2+z
1/2+x,1/2-y,-z
1/2-x,1/2+y,1/2-z
1/2-x,1/2-y,-z
1/2+x,1/2+y,1/2-z
1/2-x,1/2+y,z
1/2+x,1/2-y,1/2+z
loop_
_atom_site_type_symbol
_atom_site_label
_atom_site_fract_x
_atom_site_fract_y
_atom_site_fract_z
Si Si1 0.160376 0.726652 0.250000
Si Si2 0.364750 0.770649 0.250000
Si Si3 0.930496 0.884378 0.401792
Si Si4 0.242430 0.149140 0.750000
Si Si5 0.196358 0.070769 0.989043
Si Si6 0.783229 0.852966 0.750000
Si Si7 0.928595 0.745341 0.483454
O O1 0.191009 0.795620 0.250000
O O2 0.212826 0.673285 0.250000
O O3 0.118000 0.715824 0.377253
O O4 0.312496 0.824435 0.250000
O O5 0.333088 0.702765 0.250000
O O6 0.408541 0.779549 0.375491
O O7 0.919913 0.868016 0.250000
O O8 0.877835 0.932357 0.452066
O O9 0.923718 0.820446 0.482481
O O10 0.000000 0.914038 0.424042
O O11 0.234731 0.107329 0.878490
O O12 0.206481 0.104618 0.124885
O O13 0.221636 0.000000 0.000000
O O14 0.000000 0.723831 0.453211
#
# Coordination Sequence:
#
# PCOD8257779 Si02
#       7
#     8   8  16   8  16   8  16
#     4  11  19  36  58  75 106 141 179 216 257 338
#     4  11  21  34  54  77 112 135 171 226 269 326
#     4  10  19  34  53  73 105 148 190 216 249 301
#     4  11  21  38  54  74 103 148 180 208 279 316
#     4  12  22  37  54  75 108 142 188 224 255 304
#     4  11  23  34  52  84 105 136 184 220 271 302
#     4  11  19  32  53  81 110 138 173 215 266 313
#
# _framework density 17.267534999999999
#
# number of rings (size 3 to 8) (size 9 to 14) (size 15 to 20)
#    0.000    1.000    6.000    2.400    0.000    3.600 
#    0.000    0.500    0.000    0.000    0.000    0.000 
#    0.000   56.000    0.000    0.000    0.000    0.000 
#
# Total GULP energy -496112.058855 kJ/mol
# GULP energy per Si atom -12402.801471 kJ/mol
# Density = 1.722823 g / cm^3
# Si number density = 17.267535 Si / 1000 Ang^3
#
#
#
# Elastic Constant Matrix: (Units=GPa)
#
#
# Indices 1 2 3 4 5 6 
#
# 1 92.1984 32.9458 33.6037 0.0000 0.0000 0.0000
# 2 32.9458 76.9792 34.7113 0.0000 0.0000 0.0000
# 3 33.6037 34.7113 125.7184 0.0000 0.0000 0.0000
# 4 0.0000 0.0000 0.0000 -30.3349 0.0000 0.0000
# 5 0.0000 0.0000 0.0000 0.0000 26.5957 0.0000
# 6 0.0000 0.0000 0.0000 0.0000 0.0000 15.9917
#
#
#
# Elastic Compliance Matrix: (Units=1/GPa)
#
#
# Indices 1 2 3 4 5 6 
#
# 1 0.013350 -0.004688 -0.002274 0.000000 0.000000 0.000000
# 2 -0.004688 0.016484 -0.003298 0.000000 0.000000 0.000000
# 3 -0.002274 -0.003298 0.009473 0.000000 0.000000 0.000000
# 4 0.000000 0.000000 0.000000 -0.032965 0.000000 0.000000
# 5 0.000000 0.000000 0.000000 0.000000 0.037600 0.000000
# 6 0.000000 0.000000 0.000000 0.000000 0.000000 0.062532
#
#
# Mechanical properties :
#
#
# Convention : Reuss Voigt Hill
#
# Bulk Modulus (GPa) = 53.23034 55.26864 54.24949
# Shear Modulus (GPa) = 37.52134 15.35951 26.44042
#
# Velocity S-wave (km/s) = 4.66654 2.98569 3.91733
# Velocity P-wave (km/s) = 7.74140 6.63042 7.20735
#
# Compressibility (1/GPa) = 0.01878628
#
# Stress axis : x y z
#
# Youngs Moduli (GPa) = 74.90483 60.66392 105.56588
#
# Poissons Ratio (x) = 0.28441 0.24005
# Poissons Ratio (y) = 0.35118 0.34818
# Poissons Ratio (z) = 0.17033 0.20008
#
# Static dielectric constant tensor:
#      x y z
#    x 3.419490 0.000000 0.000000 
#    y 0.000000 2.883840 0.000000 
#    z 0.000000 0.000000 3.360450 
# 
# 
# High freq. dielectric constant tensor:
#      x y z
#    x 1.671980 0.000000 0.000000 
#    y 0.000000 1.626050 0.000000 
#    z 0.000000 0.000000 1.684690 
# 
# From -- ./inp_files/8123.got.cif
#   From: 2010.03.12/outbox.cif.g09.slc.cpg/sg63_5_cif.got.tgz:8123.got - 2010.04.10 19:34:48.
