data_PCOD8257765
_publ_section_title
;
Structure prediction by ZEFSAII (Michael W. Deem and Ramdas Pophale) SiO2 
 PCOD8257765
Probable space group: C M C M
;
_chemical_formula_sum "Si O2"
_cell_formula_units_Z 56
_cell_length_a 12.321762
_cell_length_b 14.469425
_cell_length_c 14.286446
_cell_angle_alpha 90.000000
_cell_angle_beta 90.000000
_cell_angle_gamma 90.000000
_cell_volume 2547.113473
_symmetry_space_group_name_H-M "C M C M"
_symmetry_group_IT_number 63
_symmetry_cell_setting 'orthorhombic'
loop_
_space_group_symop_operation_xyz
x,y,z
-x,-y,1/2+z
x,-y,-z
-x,y,1/2-z
-x,-y,-z
x,y,1/2-z
-x,y,z
x,-y,1/2+z
1/2+x,1/2+y,z
1/2-x,1/2-y,1/2+z
1/2+x,1/2-y,-z
1/2-x,1/2+y,1/2-z
1/2-x,1/2-y,-z
1/2+x,1/2+y,1/2-z
1/2-x,1/2+y,z
1/2+x,1/2-y,1/2+z
loop_
_atom_site_type_symbol
_atom_site_label
_atom_site_fract_x
_atom_site_fract_y
_atom_site_fract_z
Si Si1 0.378812 0.847614 0.443048
Si Si2 0.623029 0.528248 0.250000
Si Si3 0.377823 0.159398 0.250000
Si Si4 0.833049 0.558305 0.750000
Si Si5 0.719214 0.343178 0.596087
O O1 0.500000 0.864504 0.484763
O O2 0.377731 0.890682 0.340411
O O3 0.359202 0.737581 0.438877
O O4 0.284739 0.891605 0.509462
O O5 0.500000 0.493984 0.250000
O O6 0.701309 0.439121 0.250000
O O7 0.646680 0.585763 0.344756
O O8 0.500000 0.195633 0.250000
O O9 0.315520 0.199592 0.340052
O O10 0.372040 0.047693 0.250000
#
# Coordination Sequence:
#
# PCOD8257765 Si02
#       5
#    16   8   8   8  16
#     4  11  20  36  57  82 111 142 179 231 272 311
#     4  10  21  41  58  77 111 148 177 221 272 324
#     4  10  19  34  51  76 111 145 177 229 277 316
#     4  10  22  35  55  85 110 141 190 220 265 330
#     4   9  21  35  56  83 106 140 189 219 266 335
#
# _framework density 21.985671
#
# number of rings (size 3 to 8) (size 9 to 14) (size 15 to 20)
#    0.000    2.286    0.000    4.714    0.000    4.571 
#    0.000   18.571    0.000    0.000    0.000    0.000 
#    0.000    0.000    0.000    0.000    0.000    0.000 
#
# Total GULP energy -347023.975855 kJ/mol
# GULP energy per Si atom -12393.713423 kJ/mol
# Density = 2.193563 g / cm^3
# Si number density = 21.985671 Si / 1000 Ang^3
#
#
#
# Elastic Constant Matrix: (Units=GPa)
#
#
# Indices 1 2 3 4 5 6 
#
# 1 151.4299 9.8606 10.9860 0.0000 0.0000 0.0000
# 2 9.8606 32.2640 6.3399 0.0000 0.0000 0.0000
# 3 10.9860 6.3399 106.5138 0.0000 0.0000 0.0000
# 4 0.0000 0.0000 0.0000 11.9567 0.0000 0.0000
# 5 0.0000 0.0000 0.0000 0.0000 15.8307 0.0000
# 6 0.0000 0.0000 0.0000 0.0000 0.0000 24.0151
#
#
#
# Elastic Compliance Matrix: (Units=1/GPa)
#
#
# Indices 1 2 3 4 5 6 
#
# 1 0.006773 -0.001956 -0.000582 0.000000 0.000000 0.000000
# 2 -0.001956 0.031926 -0.001699 0.000000 0.000000 0.000000
# 3 -0.000582 -0.001699 0.009550 0.000000 0.000000 0.000000
# 4 0.000000 0.000000 0.000000 0.083635 0.000000 0.000000
# 5 0.000000 0.000000 0.000000 0.000000 0.063168 0.000000
# 6 0.000000 0.000000 0.000000 0.000000 0.000000 0.041641
#
#
# Mechanical properties :
#
#
# Convention : Reuss Voigt Hill
#
# Bulk Modulus (GPa) = 25.14095 38.28674 31.71385
# Shear Modulus (GPa) = 19.34804 27.89524 23.62164
#
# Velocity S-wave (km/s) = 2.96975 3.56587 3.28138
# Velocity P-wave (km/s) = 4.81863 5.86568 5.36774
#
# Compressibility (1/GPa) = 0.03977575
#
# Stress axis : x y z
#
# Youngs Moduli (GPa) = 147.63847 31.32271 104.71636
#
# Poissons Ratio (x) = 0.06126 0.06097
# Poissons Ratio (y) = 0.28873 0.17787
# Poissons Ratio (z) = 0.08596 0.05320
#
# Static dielectric constant tensor:
#      x y z
#    x 4.167040 0.000000 0.000000 
#    y 0.000000 3.506050 0.000000 
#    z 0.000000 0.000000 4.151210 
# 
# 
# High freq. dielectric constant tensor:
#      x y z
#    x 1.872880 0.000000 0.000000 
#    y 0.000000 1.823870 0.000000 
#    z 0.000000 0.000000 1.876160 
# 
# From -- ./inp_files/31283.got.cif
#   From: 2010.03.12/outbox.cif.g09.slc.cpg/sg63_16_cif.got.tgz:31283.got - 2010.04.10 19:34:48.
