data_PCOD8257964
_publ_section_title
;
Structure prediction by ZEFSAII (Michael W. Deem and Ramdas Pophale) SiO2 
 PCOD8257964
Probable space group: C M C M
;
_chemical_formula_sum "Si O2"
_cell_formula_units_Z 88
_cell_length_a 17.613490
_cell_length_b 30.008464
_cell_length_c 8.918284
_cell_angle_alpha 90.000000
_cell_angle_beta 90.000000
_cell_angle_gamma 90.000000
_cell_volume 4713.792724
_symmetry_space_group_name_H-M "C M C M"
_symmetry_group_IT_number 63
_symmetry_cell_setting 'orthorhombic'
loop_
_space_group_symop_operation_xyz
x,y,z
-x,-y,1/2+z
x,-y,-z
-x,y,1/2-z
-x,-y,-z
x,y,1/2-z
-x,y,z
x,-y,1/2+z
1/2+x,1/2+y,z
1/2-x,1/2-y,1/2+z
1/2+x,1/2-y,-z
1/2-x,1/2+y,1/2-z
1/2-x,1/2-y,-z
1/2+x,1/2+y,1/2-z
1/2-x,1/2+y,z
1/2+x,1/2-y,1/2+z
loop_
_atom_site_type_symbol
_atom_site_label
_atom_site_fract_x
_atom_site_fract_y
_atom_site_fract_z
Si Si1 0.773075 0.795024 0.576944
Si Si2 0.911189 0.547333 0.573526
Si Si3 0.788423 0.608715 0.070936
Si Si4 0.414230 0.317157 0.087136
Si Si5 0.359005 0.585418 0.913986
Si Si6 0.500000 0.453523 0.925181
O O1 0.760227 0.788982 0.750000
O O2 0.750000 0.750000 0.500000
O O3 0.725268 0.839091 0.524788
O O4 0.862842 0.796203 0.542039
O O5 0.887456 0.500000 0.500000
O O6 0.892606 0.545455 0.750000
O O7 0.866152 0.588643 0.497206
O O8 0.000000 0.556672 0.544555
O O9 0.788301 0.603474 0.250000
O O10 0.720826 0.579391 0.999262
O O11 0.411509 0.291885 0.250000
O O12 0.500000 0.319357 0.025967
O O13 0.378293 0.364358 0.120368
O O14 0.356606 0.560725 0.750000
O O15 0.423604 0.569702 0.024776
O O16 0.500000 0.457405 0.750000
O O17 0.500000 0.500000 0.000000
#
# Coordination Sequence:
#
# PCOD8257964 Si02
#       6
#    16  16  16  16  16   8
#     4  10  21  36  55  81 113 149 188 234 285 338
#     4  10  21  38  61  88 116 149 190 238 293 352
#     4  10  21  37  58  86 114 147 189 233 287 342
#     4   9  17  32  55  79 103 135 175 219 269 325
#     4  10  19  35  55  77 105 139 180 222 270 325
#     4  12  24  36  50  72 106 144 182 226 272 318
#
# _framework density 18.668619
#
# number of rings (size 3 to 8) (size 9 to 14) (size 15 to 20)
#    0.000    2.000    0.909    3.000    0.000    5.091 
#    0.000    4.545    0.000    1.091    0.000    0.000 
#    0.000    0.000    0.000    0.000    0.000    0.000 
#
# Total GULP energy -545094.326575 kJ/mol
# GULP energy per Si atom -12388.507422 kJ/mol
# Density = 1.862613 g / cm^3
# Si number density = 18.668619 Si / 1000 Ang^3
#
#
#
# Elastic Constant Matrix: (Units=GPa)
#
#
# Indices 1 2 3 4 5 6 
#
# 1 118.9247 48.8476 53.3793 0.0000 0.0000 0.0000
# 2 48.8476 63.2546 50.5173 0.0000 0.0000 0.0000
# 3 53.3793 50.5173 132.1281 0.0000 0.0000 0.0000
# 4 0.0000 0.0000 0.0000 36.4095 0.0000 0.0000
# 5 0.0000 0.0000 0.0000 0.0000 50.0187 0.0000
# 6 0.0000 0.0000 0.0000 0.0000 0.0000 23.2227
#
#
#
# Elastic Compliance Matrix: (Units=1/GPa)
#
#
# Indices 1 2 3 4 5 6 
#
# 1 0.012666 -0.008197 -0.001983 0.000000 0.000000 0.000000
# 2 -0.008197 0.028064 -0.007418 0.000000 0.000000 0.000000
# 3 -0.001983 -0.007418 0.011206 0.000000 0.000000 0.000000
# 4 0.000000 0.000000 0.000000 0.027465 0.000000 0.000000
# 5 0.000000 0.000000 0.000000 0.000000 0.019993 0.000000
# 6 0.000000 0.000000 0.000000 0.000000 0.000000 0.043061
#
#
# Mechanical properties :
#
#
# Convention : Reuss Voigt Hill
#
# Bulk Modulus (GPa) = 59.74195 68.86622 64.30408
# Shear Modulus (GPa) = 27.28807 32.70106 29.99456
#
# Velocity S-wave (km/s) = 3.82738 4.18982 4.01269
# Velocity P-wave (km/s) = 7.18349 7.77014 7.48256
#
# Compressibility (1/GPa) = 0.01673866
#
# Stress axis : x y z
#
# Youngs Moduli (GPa) = 78.95358 35.63308 89.24096
#
# Poissons Ratio (x) = 0.29210 0.17694
# Poissons Ratio (y) = 0.64722 0.66200
# Poissons Ratio (z) = 0.15654 0.26433
#
# Static dielectric constant tensor:
#      x y z
#    x 3.279610 0.000000 0.000000 
#    y 0.000000 3.471730 0.000000 
#    z 0.000000 0.000000 5.521620 
# 
# 
# High freq. dielectric constant tensor:
#      x y z
#    x 1.726830 0.000000 0.000000 
#    y 0.000000 1.701020 0.000000 
#    z 0.000000 0.000000 1.742520 
# 
# From -- ./inp_files/6856.got.cif
#   From: 2010.03.12/outbox.cif.g09.slc.cpg/sg63_4_cif.got.tgz:6856.got - 2010.04.10 19:34:48.
