data_PCOD8257273
_publ_section_title
;
Structure prediction by ZEFSAII (Michael W. Deem and Ramdas Pophale) SiO2 
 PCOD8257273
Probable space group: C M C M
;
_chemical_formula_sum "Si O2"
_cell_formula_units_Z 96
_cell_length_a 9.088300
_cell_length_b 31.063133
_cell_length_c 18.490975
_cell_angle_alpha 90.000000
_cell_angle_beta 90.000000
_cell_angle_gamma 90.000000
_cell_volume 5220.206968
_symmetry_space_group_name_H-M "C M C M"
_symmetry_group_IT_number 63
_symmetry_cell_setting 'orthorhombic'
loop_
_space_group_symop_operation_xyz
x,y,z
-x,-y,1/2+z
x,-y,-z
-x,y,1/2-z
-x,-y,-z
x,y,1/2-z
-x,y,z
x,-y,1/2+z
1/2+x,1/2+y,z
1/2-x,1/2-y,1/2+z
1/2+x,1/2-y,-z
1/2-x,1/2+y,1/2-z
1/2-x,1/2-y,-z
1/2+x,1/2+y,1/2-z
1/2-x,1/2+y,z
1/2+x,1/2-y,1/2+z
loop_
_atom_site_type_symbol
_atom_site_label
_atom_site_fract_x
_atom_site_fract_y
_atom_site_fract_z
Si Si1 0.327827 0.915908 0.588988
Si Si2 0.665814 0.501092 0.914067
Si Si3 0.328676 0.169042 0.666263
Si Si4 0.167500 0.161963 0.164078
Si Si5 0.666000 0.753916 0.663958
Si Si6 0.328903 0.914441 0.420680
O O1 0.500000 0.917820 0.605251
O O2 0.256853 0.960604 0.616072
O O3 0.257000 0.878077 0.634488
O O4 0.294454 0.907689 0.504902
O O5 0.500000 0.498856 0.883823
O O6 0.740697 0.545235 0.887597
O O7 0.668307 0.500000 0.000000
O O8 0.293434 0.160215 0.750000
O O9 0.500000 0.178572 0.654111
O O10 0.240198 0.210026 0.635950
O O11 0.275422 0.127860 0.621245
O O12 0.173855 0.160661 0.250000
O O13 0.242205 0.205553 0.134116
O O14 0.000000 0.160342 0.136116
O O15 0.668015 0.754309 0.750000
O O16 0.500000 0.756724 0.633980
O O17 0.500000 0.923715 0.407450
#
# Coordination Sequence:
#
# PCOD8257273 Si02
#       6
#    16  16  16  16  16  16
#     4  10  19  32  51  73  98 127 161 201 243 289
#     4   9  17  30  49  71  95 127 166 202 239 287
#     4   9  17  31  51  73  98 128 161 197 238 283
#     4  10  20  34  52  73  97 125 159 199 242 289
#     4   9  17  30  49  72  97 126 161 197 235 284
#     4   9  18  32  50  73  99 128 163 202 243 286
#
# _framework density 18.390073999999998
#
# number of rings (size 3 to 8) (size 9 to 14) (size 15 to 20)
#    0.000    2.667    0.000    2.000    0.000    6.333 
#    0.000    1.667    0.000    3.000    0.000    0.000 
#    0.000    0.000    0.000    0.000    0.000    0.000 
#
# Total GULP energy -595262.385699 kJ/mol
# GULP energy per Si atom -12401.299702 kJ/mol
# Density = 1.834822 g / cm^3
# Si number density = 18.390074 Si / 1000 Ang^3
#
#
#
# Elastic Constant Matrix: (Units=GPa)
#
#
# Indices 1 2 3 4 5 6 
#
# 1 125.1885 83.8876 21.8952 0.0000 0.0000 0.0000
# 2 83.8876 173.0570 24.9665 0.0000 0.0000 0.0000
# 3 21.8952 24.9665 16.1687 0.0000 0.0000 0.0000
# 4 0.0000 0.0000 0.0000 32.6865 0.0000 0.0000
# 5 0.0000 0.0000 0.0000 0.0000 18.7248 0.0000
# 6 0.0000 0.0000 0.0000 0.0000 0.0000 42.5775
#
#
#
# Elastic Compliance Matrix: (Units=1/GPa)
#
#
# Indices 1 2 3 4 5 6 
#
# 1 0.013005 -0.004842 -0.010134 0.000000 0.000000 0.000000
# 2 -0.004842 0.009237 -0.007707 0.000000 0.000000 0.000000
# 3 -0.010134 -0.007707 0.087472 0.000000 0.000000 0.000000
# 4 0.000000 0.000000 0.000000 0.030594 0.000000 0.000000
# 5 0.000000 0.000000 0.000000 0.000000 0.053405 0.000000
# 6 0.000000 0.000000 0.000000 0.000000 0.000000 0.023487
#
#
# Mechanical properties :
#
#
# Convention : Reuss Voigt Hill
#
# Bulk Modulus (GPa) = 15.54056 63.99030 39.76543
# Shear Modulus (GPa) = 17.60472 31.04210 24.32341
#
# Velocity S-wave (km/s) = 3.09737 4.11296 3.64075
# Velocity P-wave (km/s) = 4.61091 7.57806 6.27246
#
# Compressibility (1/GPa) = 0.06434772
#
# Stress axis : x y z
#
# Youngs Moduli (GPa) = 76.89361 108.25580 11.43229
#
# Poissons Ratio (x) = 0.52417 0.11586
# Poissons Ratio (y) = 0.37232 0.08811
# Poissons Ratio (z) = 0.77926 0.83431
#
# Static dielectric constant tensor:
#      x y z
#    x 3.568420 0.000000 0.000000 
#    y 0.000000 3.600650 0.000000 
#    z 0.000000 0.000000 2.982760 
# 
# 
# High freq. dielectric constant tensor:
#      x y z
#    x 1.724160 0.000000 0.000000 
#    y 0.000000 1.730250 0.000000 
#    z 0.000000 0.000000 1.665650 
# 
# From -- ./inp_files/51351.got.cif
#   From: 2010.03.12/outbox.cif.g09.slc.cpg/sg63_26_cif.got.tgz:51351.got - 2010.04.10 19:34:48.
