data_PCOD8257675
_publ_section_title
;
Structure prediction by ZEFSAII (Michael W. Deem and Ramdas Pophale) SiO2 
 PCOD8257675
Probable space group: C M C M
;
_chemical_formula_sum "Si O2"
_cell_formula_units_Z 96
_cell_length_a 16.774659
_cell_length_b 18.107395
_cell_length_c 15.698577
_cell_angle_alpha 90.000000
_cell_angle_beta 90.000000
_cell_angle_gamma 90.000000
_cell_volume 4768.370181
_symmetry_space_group_name_H-M "C M C M"
_symmetry_group_IT_number 63
_symmetry_cell_setting 'orthorhombic'
loop_
_space_group_symop_operation_xyz
x,y,z
-x,-y,1/2+z
x,-y,-z
-x,y,1/2-z
-x,-y,-z
x,y,1/2-z
-x,y,z
x,-y,1/2+z
1/2+x,1/2+y,z
1/2-x,1/2-y,1/2+z
1/2+x,1/2-y,-z
1/2-x,1/2+y,1/2-z
1/2-x,1/2-y,-z
1/2+x,1/2+y,1/2-z
1/2-x,1/2+y,z
1/2+x,1/2-y,1/2+z
loop_
_atom_site_type_symbol
_atom_site_label
_atom_site_fract_x
_atom_site_fract_y
_atom_site_fract_z
Si Si1 0.912733 0.471869 0.595017
Si Si2 0.656887 0.409722 0.845799
Si Si3 0.500000 0.395497 0.155528
Si Si4 0.163051 0.167300 0.851534
Si Si5 0.254898 0.964238 0.094402
Si Si6 0.500000 0.453070 0.914236
Si Si7 0.317956 0.835942 0.850713
O O1 0.924108 0.500000 0.500000
O O2 0.842957 0.522898 0.636261
O O3 0.881891 0.386947 0.599630
O O4 0.000000 0.478188 0.640641
O O5 0.631929 0.389282 0.750000
O O6 0.688633 0.494009 0.849053
O O7 0.578602 0.401940 0.905547
O O8 0.727708 0.356623 0.878597
O O9 0.500000 0.363095 0.250000
O O10 0.579356 0.363453 0.111273
O O11 0.500000 0.484626 0.159296
O O12 0.172670 0.157146 0.750000
O O13 0.233147 0.122258 0.900538
O O14 0.168374 0.252211 0.878372
O O15 0.253527 0.000000 0.000000
O O16 0.500000 0.500000 0.000000
O O17 0.329617 0.848693 0.750000
#
# Coordination Sequence:
#
# PCOD8257675 Si02
#       7
#    16  16   8  16  16   8  16
#     4   9  19  36  56  78 111 148 187 231 280 330
#     4  10  19  34  53  78 109 146 184 222 280 332
#     4  10  20  32  52  82 111 144 176 226 293 331
#     4  10  20  35  56  83 116 146 181 233 291 340
#     4  10  19  33  55  81 109 147 190 227 271 332
#     4  12  22  32  56  80 114 140 189 236 262 329
#     4   9  20  36  58  85 110 143 185 233 286 340
#
# _framework density 20.132664999999999
#
# number of rings (size 3 to 8) (size 9 to 14) (size 15 to 20)
#    0.000    2.167    1.667    1.750    1.167    1.667 
#    0.000    7.500    1.833    0.000    0.000    0.000 
#    0.000    0.000    0.000    0.000    0.000    0.000 
#
# Total GULP energy -594787.932467 kJ/mol
# GULP energy per Si atom -12391.415260 kJ/mol
# Density = 2.008684 g / cm^3
# Si number density = 20.132665 Si / 1000 Ang^3
#
#
#
# Elastic Constant Matrix: (Units=GPa)
#
#
# Indices 1 2 3 4 5 6 
#
# 1 179.5414 56.6713 20.6157 0.0000 0.0000 0.0000
# 2 56.6713 133.4906 17.7497 0.0000 0.0000 0.0000
# 3 20.6157 17.7497 46.1523 0.0000 0.0000 0.0000
# 4 0.0000 0.0000 0.0000 26.5259 0.0000 0.0000
# 5 0.0000 0.0000 0.0000 0.0000 16.4069 0.0000
# 6 0.0000 0.0000 0.0000 0.0000 0.0000 21.0847
#
#
#
# Elastic Compliance Matrix: (Units=1/GPa)
#
#
# Indices 1 2 3 4 5 6 
#
# 1 0.006597 -0.002539 -0.001971 0.000000 0.000000 0.000000
# 2 -0.002539 0.008872 -0.002278 0.000000 0.000000 0.000000
# 3 -0.001971 -0.002278 0.023424 0.000000 0.000000 0.000000
# 4 0.000000 0.000000 0.000000 0.037699 0.000000 0.000000
# 5 0.000000 0.000000 0.000000 0.000000 0.060950 0.000000
# 6 0.000000 0.000000 0.000000 0.000000 0.000000 0.047428
#
#
# Mechanical properties :
#
#
# Convention : Reuss Voigt Hill
#
# Bulk Modulus (GPa) = 39.49721 61.02862 50.26291
# Shear Modulus (GPa) = 24.15651 30.41336 27.28494
#
# Velocity S-wave (km/s) = 3.46767 3.89092 3.68538
# Velocity P-wave (km/s) = 5.97445 7.11089 6.56730
#
# Compressibility (1/GPa) = 0.02531825
#
# Stress axis : x y z
#
# Youngs Moduli (GPa) = 151.57552 112.71594 42.69183
#
# Poissons Ratio (x) = 0.28616 0.08413
# Poissons Ratio (y) = 0.38482 0.09725
# Poissons Ratio (z) = 0.29869 0.25676
#
# Static dielectric constant tensor:
#      x y z
#    x 4.161260 0.000000 0.000000 
#    y 0.000000 3.533840 0.000000 
#    z 0.000000 0.000000 3.455590 
# 
# 
# High freq. dielectric constant tensor:
#      x y z
#    x 1.801300 0.000000 0.000000 
#    y 0.000000 1.757780 0.000000 
#    z 0.000000 0.000000 1.764240 
# 
# From -- ./inp_files/45816.got.cif
#   From: 2010.03.12/outbox.cif.g09.slc.cpg/sg63_23_cif.got.tgz:45816.got - 2010.04.10 19:34:48.
