data_PCOD8257083
_publ_section_title
;
Structure prediction by ZEFSAII (Michael W. Deem and Ramdas Pophale) SiO2 
 PCOD8257083
Probable space group: C M C M
;
_chemical_formula_sum "Si O2"
_cell_formula_units_Z 96
_cell_length_a 8.787664
_cell_length_b 27.270695
_cell_length_c 22.286181
_cell_angle_alpha 90.000000
_cell_angle_beta 90.000000
_cell_angle_gamma 90.000000
_cell_volume 5340.787551
_symmetry_space_group_name_H-M "C M C M"
_symmetry_group_IT_number 63
_symmetry_cell_setting 'orthorhombic'
loop_
_space_group_symop_operation_xyz
x,y,z
-x,-y,1/2+z
x,-y,-z
-x,y,1/2-z
-x,-y,-z
x,y,1/2-z
-x,y,z
x,-y,1/2+z
1/2+x,1/2+y,z
1/2-x,1/2-y,1/2+z
1/2+x,1/2-y,-z
1/2-x,1/2+y,1/2-z
1/2-x,1/2-y,-z
1/2+x,1/2+y,1/2-z
1/2-x,1/2+y,z
1/2+x,1/2-y,1/2+z
loop_
_atom_site_type_symbol
_atom_site_label
_atom_site_fract_x
_atom_site_fract_y
_atom_site_fract_z
Si Si1 0.329219 0.353251 0.866658
Si Si2 0.171928 0.049713 0.436854
Si Si3 0.176303 0.606767 0.957754
Si Si4 0.673398 0.029953 0.864025
Si Si5 0.677479 0.487605 0.750000
Si Si6 0.681339 0.302708 0.511520
Si Si7 0.322519 0.119897 0.250000
O O1 0.500000 0.336945 0.850001
O O2 0.325554 0.410027 0.884686
O O3 0.268157 0.320222 0.921858
O O4 0.225310 0.348014 0.807909
O O5 0.230254 0.071461 0.498771
O O6 0.282768 0.006063 0.418247
O O7 0.000000 0.030339 0.445902
O O8 0.192628 0.585310 0.890045
O O9 0.000000 0.608570 0.977343
O O10 0.248255 0.661018 0.961415
O O11 0.500000 0.020104 0.844657
O O12 0.779943 0.020500 0.807300
O O13 0.500000 0.477885 0.750000
O O14 0.752987 0.434365 0.750000
O O15 0.500000 0.302947 0.505330
O O16 0.750000 0.250000 0.500000
O O17 0.500000 0.112866 0.250000
#
# Coordination Sequence:
#
# PCOD8257083 Si02
#       7
#    16  16  16  16   8  16   8
#     4   9  19  34  52  77 110 146 180 217 267 325
#     4  10  19  31  50  76 108 145 181 218 264 318
#     4  10  21  35  53  78 108 140 177 223 270 320
#     4  11  22  35  51  74 106 145 186 224 265 317
#     4  12  24  36  52  73 106 151 190 228 269 321
#     4  10  21  38  61  85 109 139 178 226 283 337
#     4  12  22  32  52  79 110 147 184 224 265 315
#
# _framework density 17.974875999999998
#
# number of rings (size 3 to 8) (size 9 to 14) (size 15 to 20)
#    0.000    1.667    1.667    5.000    0.000    8.000 
#    0.000    0.000    0.000    1.000    0.000    7.000 
#    0.000    0.000    0.000    0.000    0.000    0.000 
#
# Total GULP energy -595182.415356 kJ/mol
# GULP energy per Si atom -12399.633653 kJ/mol
# Density = 1.793396 g / cm^3
# Si number density = 17.974876 Si / 1000 Ang^3
#
#
#
# Elastic Constant Matrix: (Units=GPa)
#
#
# Indices 1 2 3 4 5 6 
#
# 1 109.8953 33.1052 42.2131 0.0000 0.0000 0.0000
# 2 33.1052 96.2329 49.8466 0.0000 0.0000 0.0000
# 3 42.2131 49.8466 74.1358 0.0000 0.0000 0.0000
# 4 0.0000 0.0000 0.0000 15.4049 0.0000 0.0000
# 5 0.0000 0.0000 0.0000 0.0000 29.8467 0.0000
# 6 0.0000 0.0000 0.0000 0.0000 0.0000 27.1420
#
#
#
# Elastic Compliance Matrix: (Units=1/GPa)
#
#
# Indices 1 2 3 4 5 6 
#
# 1 0.011695 -0.000881 -0.006067 0.000000 0.000000 0.000000
# 2 -0.000881 0.016011 -0.010264 0.000000 0.000000 0.000000
# 3 -0.006067 -0.010264 0.023844 0.000000 0.000000 0.000000
# 4 0.000000 0.000000 0.000000 0.064915 0.000000 0.000000
# 5 0.000000 0.000000 0.000000 0.000000 0.033505 0.000000
# 6 0.000000 0.000000 0.000000 0.000000 0.000000 0.036843
#
#
# Mechanical properties :
#
#
# Convention : Reuss Voigt Hill
#
# Bulk Modulus (GPa) = 58.38590 58.95486 58.67038
# Shear Modulus (GPa) = 22.03173 24.81867 23.42520
#
# Velocity S-wave (km/s) = 3.50479 3.71987 3.61393
# Velocity P-wave (km/s) = 6.99504 7.16377 7.07990
#
# Compressibility (1/GPa) = 0.01712742
#
# Stress axis : x y z
#
# Youngs Moduli (GPa) = 85.50355 62.45792 41.93843
#
# Poissons Ratio (x) = 0.05500 0.25445
# Poissons Ratio (y) = 0.07530 0.43044
# Poissons Ratio (z) = 0.51877 0.64105
#
# Static dielectric constant tensor:
#      x y z
#    x 3.449460 0.000000 0.000000 
#    y 0.000000 3.215620 0.000000 
#    z 0.000000 0.000000 3.504980 
# 
# 
# High freq. dielectric constant tensor:
#      x y z
#    x 1.711060 0.000000 0.000000 
#    y 0.000000 1.666100 0.000000 
#    z 0.000000 0.000000 1.690420 
# 
# From -- ./inp_files/60312.got.cif
#   From: 2010.03.12/outbox.cif.g09.slc.cpg/sg63_31_cif.got.tgz:60312.got - 2010.04.10 19:34:48.
