data_PCOD8257447
_publ_section_title
;
Structure prediction by ZEFSAII (Michael W. Deem and Ramdas Pophale) SiO2 
 PCOD8257447
Probable space group: C M C M
;
_chemical_formula_sum "Si O2"
_cell_formula_units_Z 96
_cell_length_a 19.643919
_cell_length_b 14.494364
_cell_length_c 18.521484
_cell_angle_alpha 90.000000
_cell_angle_beta 90.000000
_cell_angle_gamma 90.000000
_cell_volume 5273.550135
_symmetry_space_group_name_H-M "C M C M"
_symmetry_group_IT_number 63
_symmetry_cell_setting 'orthorhombic'
loop_
_space_group_symop_operation_xyz
x,y,z
-x,-y,1/2+z
x,-y,-z
-x,y,1/2-z
-x,-y,-z
x,y,1/2-z
-x,y,z
x,-y,1/2+z
1/2+x,1/2+y,z
1/2-x,1/2-y,1/2+z
1/2+x,1/2-y,-z
1/2-x,1/2+y,1/2-z
1/2-x,1/2-y,-z
1/2+x,1/2+y,1/2-z
1/2-x,1/2+y,z
1/2+x,1/2-y,1/2+z
loop_
_atom_site_type_symbol
_atom_site_label
_atom_site_fract_x
_atom_site_fract_y
_atom_site_fract_z
Si Si1 0.734895 0.910214 0.665994
Si Si2 0.329777 0.280649 0.333605
Si Si3 0.920300 0.895710 0.070916
Si Si4 0.924666 0.267676 0.166687
Si Si5 0.197370 0.388846 0.164739
Si Si6 0.376479 0.594488 0.411029
O O1 0.757737 0.914743 0.750000
O O2 0.681284 0.828079 0.653762
O O3 0.800076 0.892328 0.616866
O O4 0.698625 0.004542 0.640631
O O5 0.342673 0.302809 0.250000
O O6 0.396000 0.312929 0.377501
O O7 0.264565 0.336847 0.363527
O O8 0.000000 0.884997 0.054931
O O9 0.905158 0.993509 0.109658
O O10 0.878327 0.890667 0.996805
O O11 0.907465 0.248289 0.250000
O O12 0.869976 0.339345 0.132793
O O13 0.923574 0.170412 0.126188
O O14 0.000000 0.310775 0.157503
O O15 0.194530 0.381060 0.250000
#
# Coordination Sequence:
#
# PCOD8257447 Si02
#       6
#    16  16  16  16  16  16
#     4  10  19  34  58  85 110 138 178 224 267 316
#     4  10  20  36  57  80 106 140 182 224 265 317
#     4  11  24  38  52  77 113 148 180 219 272 327
#     4  10  19  32  54  82 107 137 178 221 269 319
#     4   9  17  32  53  80 111 137 170 221 268 313
#     4  11  20  35  56  77 111 142 176 223 275 317
#
# _framework density 18.204056000000001
#
# number of rings (size 3 to 8) (size 9 to 14) (size 15 to 20)
#    0.000    1.833    3.333    2.500    0.000    1.667 
#    0.000    0.833    0.000    3.000    0.000    2.333 
#    0.000    0.000    0.000    0.000    0.000    0.000 
#
# Total GULP energy -595244.634467 kJ/mol
# GULP energy per Si atom -12400.929885 kJ/mol
# Density = 1.816262 g / cm^3
# Si number density = 18.204056 Si / 1000 Ang^3
#
#
#
# Elastic Constant Matrix: (Units=GPa)
#
#
# Indices 1 2 3 4 5 6 
#
# 1 76.6375 35.5920 35.1812 0.0000 0.0000 0.0000
# 2 35.5920 120.3831 34.7773 0.0000 0.0000 0.0000
# 3 35.1812 34.7773 55.5735 0.0000 0.0000 0.0000
# 4 0.0000 0.0000 0.0000 19.5532 0.0000 0.0000
# 5 0.0000 0.0000 0.0000 0.0000 21.6465 0.0000
# 6 0.0000 0.0000 0.0000 0.0000 0.0000 24.9618
#
#
#
# Elastic Compliance Matrix: (Units=1/GPa)
#
#
# Indices 1 2 3 4 5 6 
#
# 1 0.019049 -0.002622 -0.010418 0.000000 0.000000 0.000000
# 2 -0.002622 0.010501 -0.004911 0.000000 0.000000 0.000000
# 3 -0.010418 -0.004911 0.027663 0.000000 0.000000 0.000000
# 4 0.000000 0.000000 0.000000 0.051143 0.000000 0.000000
# 5 0.000000 0.000000 0.000000 0.000000 0.046197 0.000000
# 6 0.000000 0.000000 0.000000 0.000000 0.000000 0.040061
#
#
# Mechanical properties :
#
#
# Convention : Reuss Voigt Hill
#
# Bulk Modulus (GPa) = 46.92769 51.52170 49.22469
# Shear Modulus (GPa) = 21.04205 23.03519 22.03862
#
# Velocity S-wave (km/s) = 3.40354 3.56109 3.48320
# Velocity P-wave (km/s) = 6.42496 6.72846 6.57846
#
# Compressibility (1/GPa) = 0.02130938
#
# Stress axis : x y z
#
# Youngs Moduli (GPa) = 52.49689 95.22968 36.14955
#
# Poissons Ratio (x) = 0.24972 0.37661
# Poissons Ratio (y) = 0.13766 0.17754
# Poissons Ratio (z) = 0.54691 0.46771
#
# Static dielectric constant tensor:
#      x y z
#    x 3.303720 0.000000 0.000000 
#    y 0.000000 3.579010 0.000000 
#    z 0.000000 0.000000 3.127730 
# 
# 
# High freq. dielectric constant tensor:
#      x y z
#    x 1.696420 0.000000 0.000000 
#    y 0.000000 1.710070 0.000000 
#    z 0.000000 0.000000 1.681270 
# 
# From -- ./inp_files/35315.got.cif
#   From: 2010.03.12/outbox.cif.g09.slc.cpg/sg63_18_cif.got.tgz:35315.got - 2010.04.10 19:34:48.
