data_PCOD8257870
_publ_section_title
;
Structure prediction by ZEFSAII (Michael W. Deem and Ramdas Pophale) SiO2 
 PCOD8257870
Probable space group: C M C M
;
_chemical_formula_sum "Si O2"
_cell_formula_units_Z 88
_cell_length_a 23.255619
_cell_length_b 13.619218
_cell_length_c 14.931624
_cell_angle_alpha 90.000000
_cell_angle_beta 90.000000
_cell_angle_gamma 90.000000
_cell_volume 4729.193898
_symmetry_space_group_name_H-M "C M C M"
_symmetry_group_IT_number 63
_symmetry_cell_setting 'orthorhombic'
loop_
_space_group_symop_operation_xyz
x,y,z
-x,-y,1/2+z
x,-y,-z
-x,y,1/2-z
-x,-y,-z
x,y,1/2-z
-x,y,z
x,-y,1/2+z
1/2+x,1/2+y,z
1/2-x,1/2-y,1/2+z
1/2+x,1/2-y,-z
1/2-x,1/2+y,1/2-z
1/2-x,1/2-y,-z
1/2+x,1/2+y,1/2-z
1/2-x,1/2+y,z
1/2+x,1/2-y,1/2+z
loop_
_atom_site_type_symbol
_atom_site_label
_atom_site_fract_x
_atom_site_fract_y
_atom_site_fract_z
Si Si1 0.436566 0.271144 0.852065
Si Si2 0.678611 0.783801 0.074790
Si Si3 0.744910 0.595661 0.250000
Si Si4 0.758470 0.679127 0.750000
Si Si5 0.254323 0.093899 0.056861
Si Si6 0.064756 0.996145 0.601732
Si Si7 0.647760 0.541385 0.750000
O O1 0.422402 0.242629 0.750000
O O2 0.500000 0.232719 0.879680
O O3 0.390138 0.220762 0.916761
O O4 0.434984 0.387602 0.859825
O O5 0.705184 0.840363 0.160247
O O6 0.702199 0.672238 0.065015
O O7 0.691943 0.849912 0.987922
O O8 0.759400 0.708854 0.250000
O O9 0.771866 0.554646 0.156712
O O10 0.676451 0.568163 0.250000
O O11 0.701021 0.615498 0.750000
O O12 0.233763 0.000000 0.000000
O O13 0.108699 0.059421 0.662167
O O14 0.000000 0.040583 0.608130
O O15 0.086805 0.000000 0.500000
#
# Coordination Sequence:
#
# PCOD8257870 Si02
#       7
#    16  16   8   8  16  16   8
#     4  10  19  34  57  79 107 146 183 233 282 313
#     4  10  20  35  54  79 115 143 184 225 273 343
#     4  10  22  35  47  74 110 137 183 227 260 320
#     4  10  20  31  48  79 107 142 176 225 271 323
#     4  10  21  35  53  79 111 153 181 223 280 330
#     4  10  21  34  50  77 110 146 188 226 265 324
#     4  12  21  32  56  75 107 153 185 218 273 331
#
# _framework density 18.607821000000001
#
# number of rings (size 3 to 8) (size 9 to 14) (size 15 to 20)
#    0.000    1.818    1.818    3.545    0.000    8.727 
#    0.000    0.000    0.000    0.545    0.000    0.636 
#    0.000    2.909    0.000    0.000    0.000    0.000 
#
# Total GULP energy -545294.616167 kJ/mol
# GULP energy per Si atom -12393.059458 kJ/mol
# Density = 1.856547 g / cm^3
# Si number density = 18.607821 Si / 1000 Ang^3
#
#
#
# Elastic Constant Matrix: (Units=GPa)
#
#
# Indices 1 2 3 4 5 6 
#
# 1 136.7798 37.2118 61.0746 0.0000 0.0000 0.0000
# 2 37.2118 53.6325 35.0256 0.0000 0.0000 0.0000
# 3 61.0746 35.0256 157.4113 0.0000 0.0000 0.0000
# 4 0.0000 0.0000 0.0000 20.1572 0.0000 0.0000
# 5 0.0000 0.0000 0.0000 0.0000 28.8511 0.0000
# 6 0.0000 0.0000 0.0000 0.0000 0.0000 17.8772
#
#
#
# Elastic Compliance Matrix: (Units=1/GPa)
#
#
# Indices 1 2 3 4 5 6 
#
# 1 0.009910 -0.005107 -0.002709 0.000000 0.000000 0.000000
# 2 -0.005107 0.024447 -0.003458 0.000000 0.000000 0.000000
# 3 -0.002709 -0.003458 0.008173 0.000000 0.000000 0.000000
# 4 0.000000 0.000000 0.000000 0.049610 0.000000 0.000000
# 5 0.000000 0.000000 0.000000 0.000000 0.034661 0.000000
# 6 0.000000 0.000000 0.000000 0.000000 0.000000 0.055937
#
#
# Mechanical properties :
#
#
# Convention : Reuss Voigt Hill
#
# Bulk Modulus (GPa) = 50.04334 68.27197 59.15765
# Shear Modulus (GPa) = 23.59082 27.67786 25.63434
#
# Velocity S-wave (km/s) = 3.56447 3.86091 3.71564
# Velocity P-wave (km/s) = 6.62515 7.52629 7.09005
#
# Compressibility (1/GPa) = 0.01998268
#
# Stress axis : x y z
#
# Youngs Moduli (GPa) = 100.91016 40.90451 122.35066
#
# Poissons Ratio (x) = 0.20889 0.33140
# Poissons Ratio (y) = 0.51533 0.42313
# Poissons Ratio (z) = 0.27333 0.14146
#
# Static dielectric constant tensor:
#      x y z
#    x 3.439110 0.000000 0.000000 
#    y 0.000000 3.132790 0.000000 
#    z 0.000000 0.000000 4.007150 
# 
# 
# High freq. dielectric constant tensor:
#      x y z
#    x 1.704140 0.000000 0.000000 
#    y 0.000000 1.686330 0.000000 
#    z 0.000000 0.000000 1.741850 
# 
# From -- ./inp_files/35267.got.cif
#   From: 2010.03.12/outbox.cif.g09.slc.cpg/sg63_18_cif.got.tgz:35267.got - 2010.04.10 19:34:48.
