data_PCOD8257850
_publ_section_title
;
Structure prediction by ZEFSAII (Michael W. Deem and Ramdas Pophale) SiO2 
 PCOD8257850
Probable space group: C M C M
;
_chemical_formula_sum "Si O2"
_cell_formula_units_Z 96
_cell_length_a 8.891321
_cell_length_b 29.452870
_cell_length_c 19.000246
_cell_angle_alpha 90.000000
_cell_angle_beta 90.000000
_cell_angle_gamma 90.000000
_cell_volume 4975.687931
_symmetry_space_group_name_H-M "C M C M"
_symmetry_group_IT_number 63
_symmetry_cell_setting 'orthorhombic'
loop_
_space_group_symop_operation_xyz
x,y,z
-x,-y,1/2+z
x,-y,-z
-x,y,1/2-z
-x,-y,-z
x,y,1/2-z
-x,y,z
x,-y,1/2+z
1/2+x,1/2+y,z
1/2-x,1/2-y,1/2+z
1/2+x,1/2-y,-z
1/2-x,1/2+y,1/2-z
1/2-x,1/2-y,-z
1/2+x,1/2+y,1/2-z
1/2-x,1/2+y,z
1/2+x,1/2-y,1/2+z
loop_
_atom_site_type_symbol
_atom_site_label
_atom_site_fract_x
_atom_site_fract_y
_atom_site_fract_z
Si Si1 0.828676 0.814546 0.946754
Si Si2 0.177684 0.589135 0.436234
Si Si3 0.671662 0.729736 0.598543
Si Si4 0.677936 0.561642 0.576688
Si Si5 0.676473 0.525167 0.168633
Si Si6 0.679062 0.642075 0.827250
O O1 0.728370 0.858889 0.938842
O O2 0.771276 0.775005 0.894440
O O3 0.000000 0.826985 0.928499
O O4 0.811481 0.795561 0.024663
O O5 0.245435 0.559542 0.500423
O O6 0.234750 0.567968 0.362910
O O7 0.000000 0.586821 0.440117
O O8 0.500000 0.744115 0.611982
O O9 0.730494 0.693372 0.655564
O O10 0.500000 0.563928 0.564537
O O11 0.723827 0.519058 0.624355
O O12 0.741564 0.606246 0.616304
O O13 0.722807 0.518186 0.250000
O O14 0.500000 0.534545 0.161938
O O15 0.740159 0.629250 0.750000
O O16 0.500000 0.639228 0.829357
#
# Coordination Sequence:
#
# PCOD8257850 Si02
#       6
#    16  16  16  16  16  16
#     4  10  19  34  56  80 107 144 189 236 280 328
#     4  12  24  37  57  85 116 152 193 236 284 337
#     4   9  17  31  52  81 112 143 181 228 285 340
#     4  10  19  36  60  87 114 146 189 235 282 338
#     4  10  22  40  62  86 113 148 190 237 289 342
#     4   9  16  29  53  84 116 147 182 228 283 341
#
# _framework density 19.293816
#
# number of rings (size 3 to 8) (size 9 to 14) (size 15 to 20)
#    0.000    2.000    1.667    3.000    0.000    5.667 
#    0.000    0.833    0.000    6.000    0.000    0.000 
#    0.000    0.000    0.000    0.000    0.000    0.000 
#
# Total GULP energy -595203.911991 kJ/mol
# GULP energy per Si atom -12400.081500 kJ/mol
# Density = 1.924990 g / cm^3
# Si number density = 19.293816 Si / 1000 Ang^3
#
#
#
# Elastic Constant Matrix: (Units=GPa)
#
#
# Indices 1 2 3 4 5 6 
#
# 1 65.7986 40.7181 32.7586 0.0000 0.0000 0.0000
# 2 40.7181 83.0568 35.4075 0.0000 0.0000 0.0000
# 3 32.7586 35.4075 83.0882 0.0000 0.0000 0.0000
# 4 0.0000 0.0000 0.0000 20.6644 0.0000 0.0000
# 5 0.0000 0.0000 0.0000 0.0000 15.4883 0.0000
# 6 0.0000 0.0000 0.0000 0.0000 0.0000 28.0887
#
#
#
# Elastic Compliance Matrix: (Units=1/GPa)
#
#
# Indices 1 2 3 4 5 6 
#
# 1 0.023613 -0.009296 -0.005348 0.000000 0.000000 0.000000
# 2 -0.009296 0.018373 -0.004164 0.000000 0.000000 0.000000
# 3 -0.005348 -0.004164 0.015919 0.000000 0.000000 0.000000
# 4 0.000000 0.000000 0.000000 0.048392 0.000000 0.000000
# 5 0.000000 0.000000 0.000000 0.000000 0.064565 0.000000
# 6 0.000000 0.000000 0.000000 0.000000 0.000000 0.035601
#
#
# Mechanical properties :
#
#
# Convention : Reuss Voigt Hill
#
# Bulk Modulus (GPa) = 49.29269 49.96799 49.63034
# Shear Modulus (GPa) = 19.93274 21.05225 20.49249
#
# Velocity S-wave (km/s) = 3.21770 3.30682 3.26257
# Velocity P-wave (km/s) = 6.27763 6.36669 6.32232
#
# Compressibility (1/GPa) = 0.02028698
#
# Stress axis : x y z
#
# Youngs Moduli (GPa) = 42.34876 54.42880 62.81962
#
# Poissons Ratio (x) = 0.50599 0.33598
# Poissons Ratio (y) = 0.39369 0.26159
# Poissons Ratio (z) = 0.22650 0.22665
#
# Static dielectric constant tensor:
#      x y z
#    x 3.316570 0.000000 0.000000 
#    y 0.000000 3.698750 0.000000 
#    z 0.000000 0.000000 3.572310 
# 
# 
# High freq. dielectric constant tensor:
#      x y z
#    x 1.722930 0.000000 0.000000 
#    y 0.000000 1.763020 0.000000 
#    z 0.000000 0.000000 1.739880 
# 
# From -- ./inp_files/51367.got.cif
#   From: 2010.03.12/outbox.cif.g09.slc.cpg/sg63_26_cif.got.tgz:51367.got - 2010.04.10 19:34:48.
