data_PCOD8257741
_publ_section_title
;
Structure prediction by ZEFSAII (Michael W. Deem and Ramdas Pophale) SiO2 
 PCOD8257741
Probable space group: C M C M
;
_chemical_formula_sum "Si O2"
_cell_formula_units_Z 80
_cell_length_a 14.240566
_cell_length_b 18.260221
_cell_length_c 15.354948
_cell_angle_alpha 90.000000
_cell_angle_beta 90.000000
_cell_angle_gamma 90.000000
_cell_volume 3992.837451
_symmetry_space_group_name_H-M "C M C M"
_symmetry_group_IT_number 63
_symmetry_cell_setting 'orthorhombic'
loop_
_space_group_symop_operation_xyz
x,y,z
-x,-y,1/2+z
x,-y,-z
-x,y,1/2-z
-x,-y,-z
x,y,1/2-z
-x,y,z
x,-y,1/2+z
1/2+x,1/2+y,z
1/2-x,1/2-y,1/2+z
1/2+x,1/2-y,-z
1/2-x,1/2+y,1/2-z
1/2-x,1/2-y,-z
1/2+x,1/2+y,1/2-z
1/2-x,1/2+y,z
1/2+x,1/2-y,1/2+z
loop_
_atom_site_type_symbol
_atom_site_label
_atom_site_fract_x
_atom_site_fract_y
_atom_site_fract_z
Si Si1 0.257967 0.078790 0.486441
Si Si2 0.893749 0.087851 0.345585
Si Si3 0.603043 0.753630 0.374260
Si Si4 0.284144 0.665901 0.845169
Si Si5 0.607961 0.791110 0.566515
O O1 0.175698 0.058790 0.418842
O O2 0.210294 0.107652 0.576331
O O3 0.332750 0.134144 0.443770
O O4 0.308700 0.000000 0.500000
O O5 0.870724 0.053870 0.250000
O O6 0.882157 0.174641 0.334046
O O7 0.000000 0.067778 0.373442
O O8 0.500000 0.785124 0.352069
O O9 0.676222 0.810270 0.335066
O O10 0.616279 0.745266 0.477870
O O11 0.314114 0.633099 0.750000
O O12 0.347845 0.738026 0.861201
O O13 0.500000 0.810407 0.590187
#
# Coordination Sequence:
#
# PCOD8257741 Si02
#       5
#    16  16  16  16  16
#     4  11  23  39  58  85 123 160 193 235 289 352
#     4  10  19  33  57  85 111 146 192 240 290 341
#     4   9  16  31  57  84 109 137 181 245 299 335
#     4  11  21  36  58  87 116 149 196 244 295 347
#     4  10  20  37  59  83 114 152 197 243 287 337
#
# _framework density 20.035876999999999
#
# number of rings (size 3 to 8) (size 9 to 14) (size 15 to 20)
#    0.000    1.800    4.000    1.800    0.000    3.200 
#    0.000    0.000    0.000    0.000    0.000    2.800 
#    0.000    0.000    0.000    0.000    0.000    0.000 
#
# Total GULP energy -495718.963169 kJ/mol
# GULP energy per Si atom -12392.974079 kJ/mol
# Density = 1.999027 g / cm^3
# Si number density = 20.035877 Si / 1000 Ang^3
#
#
#
# Elastic Constant Matrix: (Units=GPa)
#
#
# Indices 1 2 3 4 5 6 
#
# 1 104.5526 26.9204 43.5010 0.0000 0.0000 0.0000
# 2 26.9204 83.3891 27.1252 0.0000 0.0000 0.0000
# 3 43.5010 27.1252 110.1855 0.0000 0.0000 0.0000
# 4 0.0000 0.0000 0.0000 2.9027 0.0000 0.0000
# 5 0.0000 0.0000 0.0000 0.0000 15.6963 0.0000
# 6 0.0000 0.0000 0.0000 0.0000 0.0000 11.0331
#
#
#
# Elastic Compliance Matrix: (Units=1/GPa)
#
#
# Indices 1 2 3 4 5 6 
#
# 1 0.011911 -0.002517 -0.004083 0.000000 0.000000 0.000000
# 2 -0.002517 0.013568 -0.002346 0.000000 0.000000 0.000000
# 3 -0.004083 -0.002346 0.011265 0.000000 0.000000 0.000000
# 4 0.000000 0.000000 0.000000 0.344512 0.000000 0.000000
# 5 0.000000 0.000000 0.000000 0.000000 0.063709 0.000000
# 6 0.000000 0.000000 0.000000 0.000000 0.000000 0.090636
#
#
# Mechanical properties :
#
#
# Convention : Reuss Voigt Hill
#
# Bulk Modulus (GPa) = 53.04619 54.80227 53.92423
# Shear Modulus (GPa) = 8.93211 19.29845 14.11528
#
# Velocity S-wave (km/s) = 2.11370 3.10691 2.65712
# Velocity P-wave (km/s) = 5.70000 6.34680 6.03208
#
# Compressibility (1/GPa) = 0.01885150
#
# Stress axis : x y z
#
# Youngs Moduli (GPa) = 83.95256 73.70371 88.76944
#
# Poissons Ratio (x) = 0.18553 0.36244
# Poissons Ratio (y) = 0.21133 0.20828
# Poissons Ratio (z) = 0.34277 0.17293
#
# Static dielectric constant tensor:
#      x y z
#    x 3.723090 0.000000 0.000000 
#    y 0.000000 3.235490 0.000000 
#    z 0.000000 0.000000 -8.678860 
# 
# 
# High freq. dielectric constant tensor:
#      x y z
#    x 1.777170 0.000000 0.000000 
#    y 0.000000 1.746060 0.000000 
#    z 0.000000 0.000000 1.791340 
# 
# From -- ./inp_files/31660.got.cif
#   From: 2010.03.12/outbox.cif.g09.slc.cpg/sg63_16_cif.got.tgz:31660.got - 2010.04.10 19:34:48.
