data_PCOD8257892
_publ_section_title
;
Structure prediction by ZEFSAII (Michael W. Deem and Ramdas Pophale) SiO2 
 PCOD8257892
Probable space group: C M C M
;
_chemical_formula_sum "Si O2"
_cell_formula_units_Z 80
_cell_length_a 15.420931
_cell_length_b 29.279997
_cell_length_c 8.841855
_cell_angle_alpha 90.000000
_cell_angle_beta 90.000000
_cell_angle_gamma 90.000000
_cell_volume 3992.316929
_symmetry_space_group_name_H-M "C M C M"
_symmetry_group_IT_number 63
_symmetry_cell_setting 'orthorhombic'
loop_
_space_group_symop_operation_xyz
x,y,z
-x,-y,1/2+z
x,-y,-z
-x,y,1/2-z
-x,-y,-z
x,y,1/2-z
-x,y,z
x,-y,1/2+z
1/2+x,1/2+y,z
1/2-x,1/2-y,1/2+z
1/2+x,1/2-y,-z
1/2-x,1/2+y,1/2-z
1/2-x,1/2-y,-z
1/2+x,1/2+y,1/2-z
1/2-x,1/2+y,z
1/2+x,1/2-y,1/2+z
loop_
_atom_site_type_symbol
_atom_site_label
_atom_site_fract_x
_atom_site_fract_y
_atom_site_fract_z
Si Si1 0.095449 0.358661 0.570493
Si Si2 0.357388 0.453327 0.575097
Si Si3 0.652994 0.045411 0.077268
Si Si4 0.755293 0.200415 0.069864
Si Si5 0.401756 0.360109 0.076133
O O1 0.104607 0.361165 0.750000
O O2 0.109106 0.409679 0.504517
O O3 0.169622 0.325363 0.507921
O O4 0.000000 0.340756 0.521955
O O5 0.392117 0.500000 0.500000
O O6 0.384809 0.452777 0.750000
O O7 0.255042 0.449304 0.554375
O O8 0.400452 0.410799 0.491647
O O9 0.626595 0.040998 0.250000
O O10 0.616301 0.000000 0.000000
O O11 0.756904 0.203404 0.250000
O O12 0.750000 0.250000 0.000000
O O13 0.840858 0.174144 0.016302
O O14 0.370989 0.361630 0.250000
O O15 0.500000 0.341475 0.063878
#
# Coordination Sequence:
#
# PCOD8257892 Si02
#       5
#    16  16  16  16  16
#     4   9  18  35  59  85 116 153 192 233 284 351
#     4  10  19  34  57  87 121 160 202 245 297 356
#     4   9  17  31  52  82 115 152 193 230 278 338
#     4  11  23  42  65  90 118 154 197 246 307 363
#     4  11  24  41  62  89 120 158 204 252 304 360
#
# _framework density 20.038489999999999
#
# number of rings (size 3 to 8) (size 9 to 14) (size 15 to 20)
#    0.000    2.000    2.000    1.800    0.000    4.000 
#    0.000    2.000    0.000    4.200    0.000    0.000 
#    0.000    0.000    0.000    0.000    0.000    0.000 
#
# Total GULP energy -495989.064308 kJ/mol
# GULP energy per Si atom -12399.726608 kJ/mol
# Density = 1.999288 g / cm^3
# Si number density = 20.038490 Si / 1000 Ang^3
#
#
#
# Elastic Constant Matrix: (Units=GPa)
#
#
# Indices 1 2 3 4 5 6 
#
# 1 108.3918 71.8283 41.4523 0.0000 0.0000 0.0000
# 2 71.8283 165.7051 46.5915 0.0000 0.0000 0.0000
# 3 41.4523 46.5915 85.4411 0.0000 0.0000 0.0000
# 4 0.0000 0.0000 0.0000 39.0538 0.0000 0.0000
# 5 0.0000 0.0000 0.0000 0.0000 21.0816 0.0000
# 6 0.0000 0.0000 0.0000 0.0000 0.0000 8.3400
#
#
#
# Elastic Compliance Matrix: (Units=1/GPa)
#
#
# Indices 1 2 3 4 5 6 
#
# 1 0.014082 -0.004941 -0.004138 0.000000 0.000000 0.000000
# 2 -0.004941 0.008861 -0.002435 0.000000 0.000000 0.000000
# 3 -0.004138 -0.002435 0.015039 0.000000 0.000000 0.000000
# 4 0.000000 0.000000 0.000000 0.025606 0.000000 0.000000
# 5 0.000000 0.000000 0.000000 0.000000 0.047435 0.000000
# 6 0.000000 0.000000 0.000000 0.000000 0.000000 0.119904
#
#
# Mechanical properties :
#
#
# Convention : Reuss Voigt Hill
#
# Bulk Modulus (GPa) = 66.86522 75.47579 71.17050
# Shear Modulus (GPa) = 19.30950 27.00615 23.15782
#
# Velocity S-wave (km/s) = 3.10759 3.67510 3.40320
# Velocity P-wave (km/s) = 6.80566 7.46697 7.14397
#
# Compressibility (1/GPa) = 0.01495546
#
# Stress axis : x y z
#
# Youngs Moduli (GPa) = 71.01054 112.85191 66.49250
#
# Poissons Ratio (x) = 0.55758 0.27514
# Poissons Ratio (y) = 0.35085 0.16191
# Poissons Ratio (z) = 0.29383 0.27479
#
# Static dielectric constant tensor:
#      x y z
#    x 3.741320 0.000000 0.000000 
#    y 0.000000 3.535650 0.000000 
#    z 0.000000 0.000000 3.591620 
# 
# 
# High freq. dielectric constant tensor:
#      x y z
#    x 1.785920 0.000000 0.000000 
#    y 0.000000 1.786540 0.000000 
#    z 0.000000 0.000000 1.765390 
# 
# From -- ./inp_files/6390.got.cif
#   From: 2010.03.12/outbox.cif.g09.slc.cpg/sg63_4_cif.got.tgz:6390.got - 2010.04.10 19:34:48.
