data_PCOD8257965
_publ_section_title
;
Structure prediction by ZEFSAII (Michael W. Deem and Ramdas Pophale) SiO2 
 PCOD8257965
Probable space group: C M C M
;
_chemical_formula_sum "Si O2"
_cell_formula_units_Z 96
_cell_length_a 23.343334
_cell_length_b 25.520762
_cell_length_c 9.057496
_cell_angle_alpha 90.000000
_cell_angle_beta 90.000000
_cell_angle_gamma 90.000000
_cell_volume 5395.909690
_symmetry_space_group_name_H-M "C M C M"
_symmetry_group_IT_number 63
_symmetry_cell_setting 'orthorhombic'
loop_
_space_group_symop_operation_xyz
x,y,z
-x,-y,1/2+z
x,-y,-z
-x,y,1/2-z
-x,-y,-z
x,y,1/2-z
-x,y,z
x,-y,1/2+z
1/2+x,1/2+y,z
1/2-x,1/2-y,1/2+z
1/2+x,1/2-y,-z
1/2-x,1/2+y,1/2-z
1/2-x,1/2-y,-z
1/2+x,1/2+y,1/2-z
1/2-x,1/2+y,z
1/2+x,1/2-y,1/2+z
loop_
_atom_site_type_symbol
_atom_site_label
_atom_site_fract_x
_atom_site_fract_y
_atom_site_fract_z
Si Si1 0.318209 0.051971 0.578080
Si Si2 0.885595 0.152641 0.576091
Si Si3 0.120993 0.342450 0.076329
Si Si4 0.500000 0.316847 0.573844
Si Si5 0.500000 0.198317 0.576710
Si Si6 0.310633 0.752585 0.576066
Si Si7 0.311933 0.447074 0.423536
O O1 0.319450 0.040778 0.750000
O O2 0.360600 0.098914 0.535089
O O3 0.253364 0.065362 0.527059
O O4 0.341615 0.000000 0.500000
O O5 0.898518 0.152624 0.750000
O O6 0.944620 0.153251 0.487015
O O7 0.847915 0.202493 0.529645
O O8 0.851454 0.100964 0.525773
O O9 0.130288 0.330756 0.250000
O O10 0.055423 0.334281 0.025977
O O11 0.159184 0.304413 0.980225
O O12 0.500000 0.318917 0.750000
O O13 0.500000 0.257181 0.510682
O O14 0.500000 0.205004 0.750000
O O15 0.301746 0.755043 0.750000
O O16 0.250000 0.750000 0.500000
O O17 0.334439 0.500000 0.500000
O O18 0.315777 0.455400 0.250000
#
# Coordination Sequence:
#
# PCOD8257965 Si02
#       7
#    16  16  16   8   8  16  16
#     4   9  18  33  55  78 107 142 177 219 267 320
#     4  10  21  37  55  77 108 142 176 216 269 322
#     4  10  19  35  55  77 107 143 181 222 269 318
#     4  11  21  35  56  81 106 140 184 222 261 314
#     4   9  18  33  54  77 105 142 181 221 264 313
#     4  11  22  34  52  79 109 140 174 218 270 326
#     4   9  18  34  54  77 103 136 175 216 265 318
#
# _framework density 17.791253000000001
#
# number of rings (size 3 to 8) (size 9 to 14) (size 15 to 20)
#    0.000    2.167    1.667    1.750    0.000    4.667 
#    0.000    4.583    0.000    0.000    0.000    0.000 
#    0.000    0.000    0.000    0.000    0.000    0.000 
#
# Total GULP energy -595295.428535 kJ/mol
# GULP energy per Si atom -12401.988094 kJ/mol
# Density = 1.775076 g / cm^3
# Si number density = 17.791253 Si / 1000 Ang^3
#
#
#
# Elastic Constant Matrix: (Units=GPa)
#
#
# Indices 1 2 3 4 5 6 
#
# 1 122.6301 55.0198 32.8089 0.0000 0.0000 0.0000
# 2 55.0198 120.5804 28.7945 0.0000 0.0000 0.0000
# 3 32.8089 28.7945 36.1754 0.0000 0.0000 0.0000
# 4 0.0000 0.0000 0.0000 32.1063 0.0000 0.0000
# 5 0.0000 0.0000 0.0000 0.0000 25.8075 0.0000
# 6 0.0000 0.0000 0.0000 0.0000 0.0000 -290.8938
#
#
#
# Elastic Compliance Matrix: (Units=1/GPa)
#
#
# Indices 1 2 3 4 5 6 
#
# 1 0.011860 -0.003510 -0.007962 0.000000 0.000000 0.000000
# 2 -0.003510 0.011278 -0.005794 0.000000 0.000000 0.000000
# 3 -0.007962 -0.005794 0.039476 0.000000 0.000000 0.000000
# 4 0.000000 0.000000 0.000000 0.031147 0.000000 0.000000
# 5 0.000000 0.000000 0.000000 0.000000 0.038748 0.000000
# 6 0.000000 0.000000 0.000000 0.000000 0.000000 -0.003438
#
#
# Mechanical properties :
#
#
# Convention : Reuss Voigt Hill
#
# Bulk Modulus (GPa) = 35.60995 56.95915 46.28455
# Shear Modulus (GPa) = 28.90773 -35.74517 -3.41872
#
# Velocity S-wave (km/s) = 4.03529 -4.48721 -1.38771
# Velocity P-wave (km/s) = 6.46299 2.28868 4.84811
#
# Compressibility (1/GPa) = 0.02808204
#
# Stress axis : x y z
#
# Youngs Moduli (GPa) = 84.31934 88.66492 25.33187
#
# Poissons Ratio (x) = 0.31123 0.20169
# Poissons Ratio (y) = 0.29597 0.14677
# Poissons Ratio (z) = 0.67136 0.51371
#
# Static dielectric constant tensor:
#      x y z
#    x 3.368210 0.000000 0.000000 
#    y 0.000000 3.359630 0.000000 
#    z 0.000000 0.000000 3.195530 
# 
# 
# High freq. dielectric constant tensor:
#      x y z
#    x 1.690280 0.000000 0.000000 
#    y 0.000000 1.690950 0.000000 
#    z 0.000000 0.000000 1.678690 
# 
# From -- ./inp_files/10528.got.cif
#   From: 2010.03.12/outbox.cif.g09.slc.cpg/sg63_6_cif.got.tgz:10528.got - 2010.04.10 19:34:48.
