data_PCOD8257110
_publ_section_title
;
Structure prediction by ZEFSAII (Michael W. Deem and Ramdas Pophale) SiO2 
 PCOD8257110
Probable space group: C M C M
;
_chemical_formula_sum "Si O2"
_cell_formula_units_Z 96
_cell_length_a 24.275896
_cell_length_b 10.372750
_cell_length_c 19.215089
_cell_angle_alpha 90.000000
_cell_angle_beta 90.000000
_cell_angle_gamma 90.000000
_cell_volume 4838.509292
_symmetry_space_group_name_H-M "C M C M"
_symmetry_group_IT_number 63
_symmetry_cell_setting 'orthorhombic'
loop_
_space_group_symop_operation_xyz
x,y,z
-x,-y,1/2+z
x,-y,-z
-x,y,1/2-z
-x,-y,-z
x,y,1/2-z
-x,y,z
x,-y,1/2+z
1/2+x,1/2+y,z
1/2-x,1/2-y,1/2+z
1/2+x,1/2-y,-z
1/2-x,1/2+y,1/2-z
1/2-x,1/2-y,-z
1/2+x,1/2+y,1/2-z
1/2-x,1/2+y,z
1/2+x,1/2-y,1/2+z
loop_
_atom_site_type_symbol
_atom_site_label
_atom_site_fract_x
_atom_site_fract_y
_atom_site_fract_z
Si Si1 0.437212 0.786009 0.170388
Si Si2 0.866063 0.122013 0.543397
Si Si3 0.373719 0.869166 0.462592
Si Si4 0.245095 0.628644 0.911304
Si Si5 0.766593 0.116968 0.329297
Si Si6 0.111729 0.023108 0.172557
O O1 0.417522 0.817380 0.250000
O O2 0.500000 0.829726 0.159533
O O3 0.399778 0.862437 0.114704
O O4 0.434571 0.631078 0.158475
O O5 0.893296 0.249717 0.510679
O O6 0.799548 0.126157 0.541263
O O7 0.886633 0.000000 0.500000
O O8 0.890076 0.099839 0.621285
O O9 0.307632 0.857593 0.460528
O O10 0.392982 0.000000 0.500000
O O11 0.252029 0.745714 0.857934
O O12 0.235614 0.496872 0.869325
O O13 0.747856 0.109847 0.250000
O O14 0.831837 0.101988 0.339103
O O15 0.107334 0.965080 0.250000
#
# Coordination Sequence:
#
# PCOD8257110 Si02
#       6
#    16  16  16  16  16  16
#     4  10  21  40  65  87 110 150 200 246 296 348
#     4  11  20  36  56  83 115 156 194 234 286 346
#     4  12  23  37  56  86 122 156 192 238 289 343
#     4  11  20  33  50  80 113 159 193 229 281 347
#     4  10  19  31  51  77 111 149 192 238 284 335
#     4   9  18  36  58  81 109 145 192 247 292 339
#
# _framework density 19.840820999999998
#
# number of rings (size 3 to 8) (size 9 to 14) (size 15 to 20)
#    0.000    1.500    3.333    3.500    0.000    1.667 
#    0.000    2.500    0.000    0.000    0.000    2.333 
#    0.000    0.000    0.000    0.000    0.000    0.000 
#
# Total GULP energy -595226.716852 kJ/mol
# GULP energy per Si atom -12400.556601 kJ/mol
# Density = 1.979566 g / cm^3
# Si number density = 19.840821 Si / 1000 Ang^3
#
#
#
# Elastic Constant Matrix: (Units=GPa)
#
#
# Indices 1 2 3 4 5 6 
#
# 1 28.9933 23.5508 27.3396 0.0000 0.0000 0.0000
# 2 23.5508 117.6649 63.7528 0.0000 0.0000 0.0000
# 3 27.3396 63.7528 130.5993 0.0000 0.0000 0.0000
# 4 0.0000 0.0000 0.0000 36.1645 0.0000 0.0000
# 5 0.0000 0.0000 0.0000 0.0000 19.0796 0.0000
# 6 0.0000 0.0000 0.0000 0.0000 0.0000 13.2774
#
#
#
# Elastic Compliance Matrix: (Units=1/GPa)
#
#
# Indices 1 2 3 4 5 6 
#
# 1 0.045317 -0.005344 -0.006878 0.000000 0.000000 0.000000
# 2 -0.005344 0.012185 -0.004830 0.000000 0.000000 0.000000
# 3 -0.006878 -0.004830 0.011454 0.000000 0.000000 0.000000
# 4 0.000000 0.000000 0.000000 0.027651 0.000000 0.000000
# 5 0.000000 0.000000 0.000000 0.000000 0.052412 0.000000
# 6 0.000000 0.000000 0.000000 0.000000 0.000000 0.075316
#
#
# Mechanical properties :
#
#
# Convention : Reuss Voigt Hill
#
# Bulk Modulus (GPa) = 28.69118 56.28265 42.48692
# Shear Modulus (GPa) = 18.51465 24.54525 21.52995
#
# Velocity S-wave (km/s) = 3.05808 3.52107 3.29771
# Velocity P-wave (km/s) = 5.19242 6.70517 5.99669
#
# Compressibility (1/GPa) = 0.03485392
#
# Stress axis : x y z
#
# Youngs Moduli (GPa) = 22.06675 82.06845 87.30228
#
# Poissons Ratio (x) = 0.43854 0.60048
# Poissons Ratio (y) = 0.11791 0.42163
# Poissons Ratio (z) = 0.15178 0.39635
#
# Static dielectric constant tensor:
#      x y z
#    x 3.245050 0.000000 0.000000 
#    y 0.000000 3.583810 0.000000 
#    z 0.000000 0.000000 3.830380 
# 
# 
# High freq. dielectric constant tensor:
#      x y z
#    x 1.731210 0.000000 0.000000 
#    y 0.000000 1.763830 0.000000 
#    z 0.000000 0.000000 1.790500 
# 
# From -- ./inp_files/58057.got.cif
#   From: 2010.03.12/outbox.cif.g09.slc.cpg/sg63_30_cif.got.tgz:58057.got - 2010.04.10 19:34:48.
