data_PCOD8257151
_publ_section_title
;
Structure prediction by ZEFSAII (Michael W. Deem and Ramdas Pophale) SiO2 
 PCOD8257151
Probable space group: C M C M
;
_chemical_formula_sum "Si O2"
_cell_formula_units_Z 128
_cell_length_a 22.296937
_cell_length_b 18.248443
_cell_length_c 18.420111
_cell_angle_alpha 90.000000
_cell_angle_beta 90.000000
_cell_angle_gamma 90.000000
_cell_volume 7494.855516
_symmetry_space_group_name_H-M "C M C M"
_symmetry_group_IT_number 63
_symmetry_cell_setting 'orthorhombic'
loop_
_space_group_symop_operation_xyz
x,y,z
-x,-y,1/2+z
x,-y,-z
-x,y,1/2-z
-x,-y,-z
x,y,1/2-z
-x,y,z
x,-y,1/2+z
1/2+x,1/2+y,z
1/2-x,1/2-y,1/2+z
1/2+x,1/2-y,-z
1/2-x,1/2+y,1/2-z
1/2-x,1/2-y,-z
1/2+x,1/2+y,1/2-z
1/2-x,1/2+y,z
1/2+x,1/2-y,1/2+z
loop_
_atom_site_type_symbol
_atom_site_label
_atom_site_fract_x
_atom_site_fract_y
_atom_site_fract_z
Si Si1 0.929713 0.558513 0.936738
Si Si2 0.659004 0.817531 0.439633
Si Si3 0.567143 0.811395 0.832960
Si Si4 0.635274 0.959075 0.833075
Si Si5 0.772910 0.904665 0.434123
Si Si6 0.825192 0.756452 0.409344
Si Si7 0.705294 0.294047 0.834289
Si Si8 0.263397 0.561241 0.102015
O O1 0.903488 0.639792 0.953759
O O2 0.897002 0.531233 0.863935
O O3 0.000000 0.567501 0.924073
O O4 0.915145 0.500000 0.000000
O O5 0.707377 0.876074 0.410527
O O6 0.683935 0.781979 0.513275
O O7 0.655709 0.752610 0.379376
O O8 0.569756 0.785764 0.750000
O O9 0.500000 0.804899 0.864389
O O10 0.586714 0.895171 0.840668
O O11 0.609320 0.758303 0.878479
O O12 0.653968 0.973699 0.750000
O O13 0.693194 0.934725 0.878368
O O14 0.822830 0.844197 0.416593
O O15 0.771592 0.919276 0.518907
O O16 0.786960 0.977888 0.387241
O O17 0.773034 0.727696 0.356408
O O18 0.694768 0.278322 0.750000
O O19 0.698431 0.381321 0.849838
#
# Coordination Sequence:
#
# PCOD8257151 Si02
#       8
#    16  16  16  16  16  16  16  16
#     4  11  23  37  54  76 106 147 187 222 255 301
#     4  11  20  35  51  75 105 139 182 223 260 313
#     4  10  20  33  51  75 104 138 173 212 262 315
#     4  11  21  33  50  74 106 142 178 213 253 309
#     4  10  19  31  54  76 102 135 172 218 268 315
#     4  11  19  34  52  75 102 137 173 218 265 319
#     4  11  21  34  51  75 106 141 178 220 271 319
#     4  11  18  33  53  78 104 138 172 215 265 321
#
# _framework density 17.078381
#
# number of rings (size 3 to 8) (size 9 to 14) (size 15 to 20)
#    0.000    1.250    5.000    3.375    0.000    2.750 
#    0.000    1.875    0.000    0.000    0.000    2.625 
#    0.000    0.000    0.000    0.000    0.000    0.000 
#
# Total GULP energy -793570.932411 kJ/mol
# GULP energy per Si atom -12399.545819 kJ/mol
# Density = 1.703951 g / cm^3
# Si number density = 17.078381 Si / 1000 Ang^3
#
#
#
# Elastic Constant Matrix: (Units=GPa)
#
#
# Indices 1 2 3 4 5 6 
#
# 1 62.9154 37.6631 20.9717 0.0000 0.0000 0.0000
# 2 37.6631 122.8565 35.5858 0.0000 0.0000 0.0000
# 3 20.9717 35.5858 73.4336 0.0000 0.0000 0.0000
# 4 0.0000 0.0000 0.0000 25.5272 0.0000 0.0000
# 5 0.0000 0.0000 0.0000 0.0000 19.0718 0.0000
# 6 0.0000 0.0000 0.0000 0.0000 0.0000 26.5752
#
#
#
# Elastic Compliance Matrix: (Units=1/GPa)
#
#
# Indices 1 2 3 4 5 6 
#
# 1 0.020094 -0.005232 -0.003203 0.000000 0.000000 0.000000
# 2 -0.005232 0.010831 -0.003754 0.000000 0.000000 0.000000
# 3 -0.003203 -0.003754 0.016352 0.000000 0.000000 0.000000
# 4 0.000000 0.000000 0.000000 0.039174 0.000000 0.000000
# 5 0.000000 0.000000 0.000000 0.000000 0.052433 0.000000
# 6 0.000000 0.000000 0.000000 0.000000 0.000000 0.037629
#
#
# Mechanical properties :
#
#
# Convention : Reuss Voigt Hill
#
# Bulk Modulus (GPa) = 43.67284 49.73854 46.70569
# Shear Modulus (GPa) = 23.97784 25.23384 24.60584
#
# Velocity S-wave (km/s) = 3.75105 3.84804 3.79985
# Velocity P-wave (km/s) = 6.66243 6.99500 6.83074
#
# Compressibility (1/GPa) = 0.02289753
#
# Stress axis : x y z
#
# Youngs Moduli (GPa) = 49.76532 92.32671 61.15498
#
# Poissons Ratio (x) = 0.48309 0.19589
# Poissons Ratio (y) = 0.26039 0.22960
# Poissons Ratio (z) = 0.15940 0.34663
#
# Static dielectric constant tensor:
#      x y z
#    x 2.937880 0.000000 0.000000 
#    y 0.000000 3.543010 0.000000 
#    z 0.000000 0.000000 3.308560 
# 
# 
# High freq. dielectric constant tensor:
#      x y z
#    x 1.618360 0.000000 0.000000 
#    y 0.000000 1.662010 0.000000 
#    z 0.000000 0.000000 1.660390 
# 
# From -- ./inp_files/48404.got.cif
#   From: 2010.03.12/outbox.cif.g09.slc.cpg/sg63_25_cif.got.tgz:48404.got - 2010.04.10 19:34:48.
