data_PCOD8257534
_publ_section_title
;
Structure prediction by ZEFSAII (Michael W. Deem and Ramdas Pophale) SiO2 
 PCOD8257534
Probable space group: C M C M
;
_chemical_formula_sum "Si O2"
_cell_formula_units_Z 80
_cell_length_a 27.567163
_cell_length_b 18.027430
_cell_length_c 8.534933
_cell_angle_alpha 90.000000
_cell_angle_beta 90.000000
_cell_angle_gamma 90.000000
_cell_volume 4241.563843
_symmetry_space_group_name_H-M "C M C M"
_symmetry_group_IT_number 63
_symmetry_cell_setting 'orthorhombic'
loop_
_space_group_symop_operation_xyz
x,y,z
-x,-y,1/2+z
x,-y,-z
-x,y,1/2-z
-x,-y,-z
x,y,1/2-z
-x,y,z
x,-y,1/2+z
1/2+x,1/2+y,z
1/2-x,1/2-y,1/2+z
1/2+x,1/2-y,-z
1/2-x,1/2+y,1/2-z
1/2-x,1/2-y,-z
1/2+x,1/2+y,1/2-z
1/2-x,1/2+y,z
1/2+x,1/2-y,1/2+z
loop_
_atom_site_type_symbol
_atom_site_label
_atom_site_fract_x
_atom_site_fract_y
_atom_site_fract_z
Si Si1 0.088186 0.922563 0.934023
Si Si2 0.054403 0.227929 0.567793
Si Si3 0.289362 0.920672 0.065685
Si Si4 0.184912 0.867549 0.065360
Si Si5 0.649419 0.217929 0.933732
O O1 0.079774 0.918171 0.750000
O O2 0.058237 0.857293 0.015710
O O3 0.145092 0.915336 0.973325
O O4 0.068043 0.000000 0.000000
O O5 0.067345 0.233004 0.750000
O O6 0.092180 0.279163 0.473210
O O7 0.000000 0.256647 0.533566
O O8 0.287375 0.926027 0.250000
O O9 0.236896 0.894992 0.002620
O O10 0.329746 0.861283 0.012089
O O11 0.304801 0.000000 0.000000
O O12 0.178518 0.880248 0.250000
O O13 0.178681 0.780802 0.027322
O O14 0.657230 0.231653 0.750000
#
# Coordination Sequence:
#
# PCOD8257534 Si02
#       5
#    16  16  16  16  16
#     4  11  21  33  50  74 106 141 175 211 252 296
#     4  10  21  37  56  77  99 128 169 213 259 310
#     4  10  22  35  51  77 107 139 173 210 252 300
#     4  10  19  33  52  76 106 141 178 209 245 294
#     4  10  20  35  54  78 105 134 171 211 254 303
#
# _framework density 18.860969000000001
#
# number of rings (size 3 to 8) (size 9 to 14) (size 15 to 20)
#    0.000    1.800    0.000    7.200    0.000    6.800 
#    0.000    0.000    0.000    0.600    0.000    0.000 
#    0.000    0.000    0.000    0.000    0.000    0.000 
#
# Total GULP energy -496102.146453 kJ/mol
# GULP energy per Si atom -12402.553661 kJ/mol
# Density = 1.881804 g / cm^3
# Si number density = 18.860969 Si / 1000 Ang^3
#
#
#
# Elastic Constant Matrix: (Units=GPa)
#
#
# Indices 1 2 3 4 5 6 
#
# 1 77.8677 28.0422 2.9076 0.0000 0.0000 0.0000
# 2 28.0422 85.0680 -0.8028 0.0000 0.0000 0.0000
# 3 2.9076 -0.8028 30.5725 0.0000 0.0000 0.0000
# 4 0.0000 0.0000 0.0000 31.2071 0.0000 0.0000
# 5 0.0000 0.0000 0.0000 0.0000 26.8396 0.0000
# 6 0.0000 0.0000 0.0000 0.0000 0.0000 7.7768
#
#
#
# Elastic Compliance Matrix: (Units=1/GPa)
#
#
# Indices 1 2 3 4 5 6 
#
# 1 0.014642 -0.004841 -0.001520 0.000000 0.000000 0.000000
# 2 -0.004841 0.013359 0.000811 0.000000 0.000000 0.000000
# 3 -0.001520 0.000811 0.032875 0.000000 0.000000 0.000000
# 4 0.000000 0.000000 0.000000 0.032044 0.000000 0.000000
# 5 0.000000 0.000000 0.000000 0.000000 0.037258 0.000000
# 6 0.000000 0.000000 0.000000 0.000000 0.000000 0.128587
#
#
# Mechanical properties :
#
#
# Convention : Reuss Voigt Hill
#
# Bulk Modulus (GPa) = 20.08963 28.20025 24.14494
# Shear Modulus (GPa) = 17.45461 24.05546 20.75504
#
# Velocity S-wave (km/s) = 3.04540 3.57516 3.32086
# Velocity P-wave (km/s) = 4.80005 5.65919 5.24724
#
# Compressibility (1/GPa) = 0.04977693
#
# Stress axis : x y z
#
# Youngs Moduli (GPa) = 68.29448 74.85694 30.41831
#
# Poissons Ratio (x) = 0.36239 0.04623
# Poissons Ratio (y) = 0.33062 -0.02468
# Poissons Ratio (z) = 0.10379 -0.06073
#
# Static dielectric constant tensor:
#      x y z
#    x 3.519730 0.000000 0.000000 
#    y 0.000000 3.687820 0.000000 
#    z 0.000000 0.000000 3.483190 
# 
# 
# High freq. dielectric constant tensor:
#      x y z
#    x 1.727830 0.000000 0.000000 
#    y 0.000000 1.716160 0.000000 
#    z 0.000000 0.000000 1.741820 
# 
# From -- ./inp_files/12045.got.cif
#   From: 2010.03.12/outbox.cif.g09.slc.cpg/sg63_7_cif.got.tgz:12045.got - 2010.04.10 19:34:48.
