data_PCOD8257324
_publ_section_title
;
Structure prediction by ZEFSAII (Michael W. Deem and Ramdas Pophale) SiO2 
 PCOD8257324
Probable space group: C M C M
;
_chemical_formula_sum "Si O2"
_cell_formula_units_Z 64
_cell_length_a 12.914941
_cell_length_b 21.588670
_cell_length_c 11.394462
_cell_angle_alpha 90.000000
_cell_angle_beta 90.000000
_cell_angle_gamma 90.000000
_cell_volume 3176.962867
_symmetry_space_group_name_H-M "C M C M"
_symmetry_group_IT_number 63
_symmetry_cell_setting 'orthorhombic'
loop_
_space_group_symop_operation_xyz
x,y,z
-x,-y,1/2+z
x,-y,-z
-x,y,1/2-z
-x,-y,-z
x,y,1/2-z
-x,y,z
x,-y,1/2+z
1/2+x,1/2+y,z
1/2-x,1/2-y,1/2+z
1/2+x,1/2-y,-z
1/2-x,1/2+y,1/2-z
1/2-x,1/2-y,-z
1/2+x,1/2+y,1/2-z
1/2-x,1/2+y,z
1/2+x,1/2-y,1/2+z
loop_
_atom_site_type_symbol
_atom_site_label
_atom_site_fract_x
_atom_site_fract_y
_atom_site_fract_z
Si Si1 0.382461 0.264581 0.118021
Si Si2 0.114706 0.436108 0.382035
Si Si3 0.300772 0.524918 0.120256
Si Si4 0.244751 0.651913 0.462534
O O1 0.378327 0.290556 0.250000
O O2 0.500000 0.249907 0.079798
O O3 0.315077 0.202114 0.114565
O O4 0.338353 0.316977 0.033127
O O5 0.107809 0.412262 0.250000
O O6 0.184300 0.498087 0.389610
O O7 0.163418 0.378756 0.450047
O O8 0.000000 0.451812 0.430353
O O9 0.348759 0.505743 0.250000
O O10 0.295408 0.599243 0.119707
O O11 0.360241 0.500000 0.000000
#
# Coordination Sequence:
#
# PCOD8257324 Si02
#       4
#    16  16  16  16
#     4  10  21  35  51  73 102 140 185 227 266 312
#     4   9  17  29  48  77 109 137 167 210 268 329
#     4   9  18  31  50  77 107 136 166 205 259 321
#     4  10  19  32  52  74 103 138 176 217 266 314
#
# _framework density 20.145026000000001
#
# number of rings (size 3 to 8) (size 9 to 14) (size 15 to 20)
#    0.000    2.500    0.000    2.250    0.000    6.500 
#    0.000    2.500    0.000   21.750    0.000    7.000 
#    0.000    0.000    0.000    0.000    0.000    0.000 
#
# Total GULP energy -396469.975349 kJ/mol
# GULP energy per Si atom -12389.686730 kJ/mol
# Density = 2.009918 g / cm^3
# Si number density = 20.145026 Si / 1000 Ang^3
#
#
#
# Elastic Constant Matrix: (Units=GPa)
#
#
# Indices 1 2 3 4 5 6 
#
# 1 48.0839 9.2576 25.2938 0.0000 0.0000 0.0000
# 2 9.2576 82.8667 28.2409 0.0000 0.0000 0.0000
# 3 25.2938 28.2409 135.5604 0.0000 0.0000 0.0000
# 4 0.0000 0.0000 0.0000 23.2714 0.0000 0.0000
# 5 0.0000 0.0000 0.0000 0.0000 20.1672 0.0000
# 6 0.0000 0.0000 0.0000 0.0000 0.0000 15.6561
#
#
#
# Elastic Compliance Matrix: (Units=1/GPa)
#
#
# Indices 1 2 3 4 5 6 
#
# 1 0.023171 -0.001200 -0.004073 0.000000 0.000000 0.000000
# 2 -0.001200 0.013052 -0.002495 0.000000 0.000000 0.000000
# 3 -0.004073 -0.002495 0.008657 0.000000 0.000000 0.000000
# 4 0.000000 0.000000 0.000000 0.042971 0.000000 0.000000
# 5 0.000000 0.000000 0.000000 0.000000 0.049585 0.000000
# 6 0.000000 0.000000 0.000000 0.000000 0.000000 0.063873
#
#
# Mechanical properties :
#
#
# Convention : Reuss Voigt Hill
#
# Bulk Modulus (GPa) = 34.08105 43.56618 38.82362
# Shear Modulus (GPa) = 22.06266 25.40017 23.73141
#
# Velocity S-wave (km/s) = 3.31296 3.55472 3.43597
# Velocity P-wave (km/s) = 5.62039 6.20655 5.92073
#
# Compressibility (1/GPa) = 0.02934182
#
# Stress axis : x y z
#
# Youngs Moduli (GPa) = 43.15776 76.61653 115.51866
#
# Poissons Ratio (x) = 0.09197 0.47054
# Poissons Ratio (y) = 0.05181 0.28823
# Poissons Ratio (z) = 0.17579 0.19117
#
# Static dielectric constant tensor:
#      x y z
#    x 3.328450 0.000000 0.000000 
#    y 0.000000 3.546260 0.000000 
#    z 0.000000 0.000000 4.090390 
# 
# 
# High freq. dielectric constant tensor:
#      x y z
#    x 1.747680 0.000000 0.000000 
#    y 0.000000 1.782170 0.000000 
#    z 0.000000 0.000000 1.806270 
# 
# From -- ./inp_files/17120.got.cif
#   From: 2010.03.12/outbox.cif.g09.slc.cpg/sg63_9_cif.got.tgz:17120.got - 2010.04.10 19:34:48.
