data_PCOD8258893
_publ_section_title
;
Structure prediction by ZEFSAII (Michael W. Deem and Ramdas Pophale) SiO2 
 PCOD8258893
Probable space group: C M C M
;
_chemical_formula_sum "Si O2"
_cell_formula_units_Z 80
_cell_length_a 10.603913
_cell_length_b 25.633988
_cell_length_c 13.440799
_cell_angle_alpha 90.000000
_cell_angle_beta 90.000000
_cell_angle_gamma 90.000000
_cell_volume 3653.485761
_symmetry_space_group_name_H-M "C M C M"
_symmetry_group_IT_number 63
_symmetry_cell_setting 'orthorhombic'
loop_
_space_group_symop_operation_xyz
x,y,z
-x,-y,1/2+z
x,-y,-z
-x,y,1/2-z
-x,-y,-z
x,y,1/2-z
-x,y,z
x,-y,1/2+z
1/2+x,1/2+y,z
1/2-x,1/2-y,1/2+z
1/2+x,1/2-y,-z
1/2-x,1/2+y,1/2-z
1/2-x,1/2-y,-z
1/2+x,1/2+y,1/2-z
1/2-x,1/2+y,z
1/2+x,1/2-y,1/2+z
loop_
_atom_site_type_symbol
_atom_site_label
_atom_site_fract_x
_atom_site_fract_y
_atom_site_fract_z
Si Si1 0.770264 0.287541 0.860811
Si Si2 0.639215 0.811886 0.436042
Si Si3 0.142216 0.466887 0.869503
Si Si4 0.148852 0.418911 0.359619
Si Si5 0.361747 0.607655 0.134967
O O1 0.830077 0.293485 0.750000
O O2 0.718052 0.229446 0.872739
O O3 0.660758 0.330434 0.877379
O O4 0.871880 0.297528 0.947106
O O5 0.500000 0.811284 0.390387
O O6 0.701078 0.869529 0.422785
O O7 0.140136 0.469167 0.750000
O O8 0.179812 0.524917 0.910507
O O9 0.245460 0.425808 0.911542
O O10 0.000000 0.450570 0.906278
O O11 0.210828 0.415778 0.250000
O O12 0.000000 0.415267 0.349769
O O13 0.367215 0.592477 0.250000
O O14 0.500000 0.594822 0.086936
#
# Coordination Sequence:
#
# PCOD8258893 Si02
#       5
#    16  16  16  16  16
#     4  10  21  35  52  76 106 139 175 219 271 324
#     4  10  20  34  54  79 104 134 177 224 270 324
#     4   8  14  26  47  76 106 134 169 219 274 318
#     4   8  14  27  50  78 104 131 169 220 272 317
#     4   9  17  30  50  75 103 140 183 218 256 319
#
# _framework density 21.896896000000002
#
# number of rings (size 3 to 8) (size 9 to 14) (size 15 to 20)
#    0.000    3.000    0.000    2.400    0.000    3.200 
#    0.000    3.000    0.000   10.800    0.000    5.600 
#    0.000    0.000    0.000    0.000    0.000    1.600 
#
# Total GULP energy -495557.347833 kJ/mol
# GULP energy per Si atom -12388.933696 kJ/mol
# Density = 2.184706 g / cm^3
# Si number density = 21.896896 Si / 1000 Ang^3
#
#
#
# Elastic Constant Matrix: (Units=GPa)
#
#
# Indices 1 2 3 4 5 6 
#
# 1 88.4427 57.8853 -4.9236 0.0000 0.0000 0.0000
# 2 57.8853 172.6798 33.4682 0.0000 0.0000 0.0000
# 3 -4.9236 33.4682 53.3115 0.0000 0.0000 0.0000
# 4 0.0000 0.0000 0.0000 31.1534 0.0000 0.0000
# 5 0.0000 0.0000 0.0000 0.0000 4.5385 0.0000
# 6 0.0000 0.0000 0.0000 0.0000 0.0000 27.0214
#
#
#
# Elastic Compliance Matrix: (Units=1/GPa)
#
#
# Indices 1 2 3 4 5 6 
#
# 1 0.015755 -0.006334 0.005431 0.000000 0.000000 0.000000
# 2 -0.006334 0.009140 -0.006323 0.000000 0.000000 0.000000
# 3 0.005431 -0.006323 0.023229 0.000000 0.000000 0.000000
# 4 0.000000 0.000000 0.000000 0.032099 0.000000 0.000000
# 5 0.000000 0.000000 0.000000 0.000000 0.220336 0.000000
# 6 0.000000 0.000000 0.000000 0.000000 0.000000 0.037008
#
#
# Mechanical properties :
#
#
# Convention : Reuss Voigt Hill
#
# Bulk Modulus (GPa) = 29.69797 54.14376 41.92086
# Shear Modulus (GPa) = 13.76499 27.74297 20.75398
#
# Velocity S-wave (km/s) = 2.50996 3.56333 3.08198
# Velocity P-wave (km/s) = 4.68956 6.45834 5.64367
#
# Compressibility (1/GPa) = 0.03367234
#
# Stress axis : x y z
#
# Youngs Moduli (GPa) = 63.47343 109.41211 43.05037
#
# Poissons Ratio (x) = 0.69301 -0.23382
# Poissons Ratio (y) = 0.40203 0.27220
# Poissons Ratio (z) = -0.34475 0.69179
#
# Static dielectric constant tensor:
#      x y z
#    x 3.625650 0.000000 0.000000 
#    y 0.000000 4.317580 0.000000 
#    z 0.000000 0.000000 3.912230 
# 
# 
# High freq. dielectric constant tensor:
#      x y z
#    x 1.804000 0.000000 0.000000 
#    y 0.000000 1.877340 0.000000 
#    z 0.000000 0.000000 1.858180 
# 
# From -- ./inp_files/29708.got.cif
#   From: 2010.03.12/outbox.cif.g09.slc.cpg/sg63_15_cif.got.tgz:29708.got - 2010.04.10 19:34:48.
