data_PCOD8258300
_publ_section_title
;
Structure prediction by ZEFSAII (Michael W. Deem and Ramdas Pophale) SiO2 
 PCOD8258300
Probable space group: C M C M
;
_chemical_formula_sum "Si O2"
_cell_formula_units_Z 96
_cell_length_a 9.264242
_cell_length_b 30.991042
_cell_length_c 18.858362
_cell_angle_alpha 90.000000
_cell_angle_beta 90.000000
_cell_angle_gamma 90.000000
_cell_volume 5414.396270
_symmetry_space_group_name_H-M "C M C M"
_symmetry_group_IT_number 63
_symmetry_cell_setting 'orthorhombic'
loop_
_space_group_symop_operation_xyz
x,y,z
-x,-y,1/2+z
x,-y,-z
-x,y,1/2-z
-x,-y,-z
x,y,1/2-z
-x,y,z
x,-y,1/2+z
1/2+x,1/2+y,z
1/2-x,1/2-y,1/2+z
1/2+x,1/2-y,-z
1/2-x,1/2+y,1/2-z
1/2-x,1/2-y,-z
1/2+x,1/2+y,1/2-z
1/2-x,1/2+y,z
1/2+x,1/2-y,1/2+z
loop_
_atom_site_type_symbol
_atom_site_label
_atom_site_fract_x
_atom_site_fract_y
_atom_site_fract_z
Si Si1 0.328421 0.577717 0.829339
Si Si2 0.168207 0.331508 0.831159
Si Si3 0.172167 0.000865 0.079882
Si Si4 0.668770 0.582681 0.168307
Si Si5 0.828628 0.173214 0.670856
Si Si6 0.671136 0.750279 0.925682
O O1 0.270628 0.568918 0.750000
O O2 0.500000 0.574983 0.829117
O O3 0.263858 0.541497 0.881351
O O4 0.279584 0.625466 0.854840
O O5 0.207628 0.319486 0.750000
O O6 0.252321 0.373938 0.856492
O O7 0.216144 0.292387 0.881308
O O8 0.000000 0.341281 0.838670
O O9 0.227487 0.043497 0.120307
O O10 0.000000 0.999943 0.080976
O O11 0.232053 0.000000 0.000000
O O12 0.703653 0.571603 0.250000
O O13 0.500000 0.590029 0.156445
O O14 0.768199 0.182221 0.750000
O O15 0.768890 0.208787 0.616851
O O16 0.000000 0.176145 0.673572
O O17 0.500000 0.748128 0.937310
O O18 0.750000 0.750000 0.000000
#
# Coordination Sequence:
#
# PCOD8258300 Si02
#       6
#    16  16  16  16  16  16
#     4   8  13  22  37  57  81 109 142 180 219 256
#     4   9  18  33  51  68  89 122 161 194 224 265
#     4   9  16  24  36  59  92 123 145 172 219 274
#     4   9  17  29  46  68  92 117 148 189 232 269
#     4   8  14  26  45  66  86 113 152 192 224 259
#     4  10  20  32  47  69  96 122 148 183 228 274
#
# _framework density 17.730509000000001
#
# number of rings (size 3 to 8) (size 9 to 14) (size 15 to 20)
#    0.000    3.167    0.000    2.000    0.000    6.000 
#    0.000    3.333    0.000    2.000    0.000    1.167 
#    0.000    1.333    0.000    0.000    0.000    0.000 
#
# Total GULP energy -595018.336342 kJ/mol
# GULP energy per Si atom -12396.215340 kJ/mol
# Density = 1.769015 g / cm^3
# Si number density = 17.730509 Si / 1000 Ang^3
#
#
#
# Elastic Constant Matrix: (Units=GPa)
#
#
# Indices 1 2 3 4 5 6 
#
# 1 16.0056 32.2809 25.2396 0.0000 0.0000 0.0000
# 2 32.2809 195.1243 115.5563 0.0000 0.0000 0.0000
# 3 25.2396 115.5563 141.2503 0.0000 0.0000 0.0000
# 4 0.0000 0.0000 0.0000 19.8214 0.0000 0.0000
# 5 0.0000 0.0000 0.0000 0.0000 19.2287 0.0000
# 6 0.0000 0.0000 0.0000 0.0000 0.0000 20.7385
#
#
#
# Elastic Compliance Matrix: (Units=1/GPa)
#
#
# Indices 1 2 3 4 5 6 
#
# 1 0.098518 -0.011393 -0.008283 0.000000 0.000000 0.000000
# 2 -0.011393 0.011259 -0.007175 0.000000 0.000000 0.000000
# 3 -0.008283 -0.007175 0.014430 0.000000 0.000000 0.000000
# 4 0.000000 0.000000 0.000000 0.050451 0.000000 0.000000
# 5 0.000000 0.000000 0.000000 0.000000 0.052006 0.000000
# 6 0.000000 0.000000 0.000000 0.000000 0.000000 0.048220
#
#
# Mechanical properties :
#
#
# Convention : Reuss Voigt Hill
#
# Bulk Modulus (GPa) = 14.18359 77.61487 45.89923
# Shear Modulus (GPa) = 14.20102 23.91128 19.05615
#
# Velocity S-wave (km/s) = 2.83315 3.67631 3.28192
# Velocity P-wave (km/s) = 4.32657 7.86703 6.34860
#
# Compressibility (1/GPa) = 0.07050399
#
# Stress axis : x y z
#
# Youngs Moduli (GPa) = 10.15039 88.81730 69.30131
#
# Poissons Ratio (x) = 1.01191 0.57404
# Poissons Ratio (y) = 0.11564 0.49725
# Poissons Ratio (z) = 0.08408 0.63728
#
# Static dielectric constant tensor:
#      x y z
#    x 2.703200 0.000000 0.000000 
#    y 0.000000 3.626620 0.000000 
#    z 0.000000 0.000000 3.423490 
# 
# 
# High freq. dielectric constant tensor:
#      x y z
#    x 1.620440 0.000000 0.000000 
#    y 0.000000 1.703740 0.000000 
#    z 0.000000 0.000000 1.686250 
# 
# From -- ./inp_files/42715.got.cif
#   From: 2010.03.12/outbox.cif.g09.slc.cpg/sg63_22_cif.got.tgz:42715.got - 2010.04.10 19:34:48.
