data_PCOD8258740
_publ_section_title
;
Structure prediction by ZEFSAII (Michael W. Deem and Ramdas Pophale) SiO2 
 PCOD8258740
Probable space group: C M C M
;
_chemical_formula_sum "Si O2"
_cell_formula_units_Z 96
_cell_length_a 18.294505
_cell_length_b 32.515515
_cell_length_c 9.359116
_cell_angle_alpha 90.000000
_cell_angle_beta 90.000000
_cell_angle_gamma 90.000000
_cell_volume 5567.319304
_symmetry_space_group_name_H-M "C M C M"
_symmetry_group_IT_number 63
_symmetry_cell_setting 'orthorhombic'
loop_
_space_group_symop_operation_xyz
x,y,z
-x,-y,1/2+z
x,-y,-z
-x,y,1/2-z
-x,-y,-z
x,y,1/2-z
-x,y,z
x,-y,1/2+z
1/2+x,1/2+y,z
1/2-x,1/2-y,1/2+z
1/2+x,1/2-y,-z
1/2-x,1/2+y,1/2-z
1/2-x,1/2-y,-z
1/2+x,1/2+y,1/2-z
1/2-x,1/2+y,z
1/2+x,1/2-y,1/2+z
loop_
_atom_site_type_symbol
_atom_site_label
_atom_site_fract_x
_atom_site_fract_y
_atom_site_fract_z
Si Si1 0.584688 0.753652 0.915369
Si Si2 0.855816 0.339402 0.914673
Si Si3 0.224282 0.458272 0.418950
Si Si4 0.083102 0.825900 0.584110
Si Si5 0.581302 0.088546 0.586147
Si Si6 0.790267 0.885604 0.914597
O O1 0.598667 0.744459 0.750000
O O2 0.500000 0.762703 0.947492
O O3 0.631152 0.792946 0.968814
O O4 0.612207 0.713904 0.000776
O O5 0.878568 0.342646 0.750000
O O6 0.771713 0.351225 0.940704
O O7 0.909256 0.370103 0.996872
O O8 0.242908 0.500000 0.500000
O O9 0.236772 0.463524 0.250000
O O10 0.140798 0.445812 0.457189
O O11 0.279099 0.423819 0.479632
O O12 0.089890 0.815203 0.750000
O O13 0.132345 0.865284 0.545481
O O14 0.000000 0.836764 0.540235
O O15 0.592912 0.100951 0.750000
O O16 0.500000 0.070535 0.558582
O O17 0.788237 0.900863 0.750000
#
# Coordination Sequence:
#
# PCOD8258740 Si02
#       6
#    16  16  16  16  16  16
#     4   9  17  28  42  63  93 127 161 196 231 268
#     4   9  17  29  45  66  93 127 165 199 231 268
#     4  10  20  34  52  73  96 122 152 187 229 277
#     4   9  18  32  49  69  93 122 155 191 235 284
#     4   9  18  31  46  67  96 128 161 195 228 263
#     4   9  18  33  51  70  93 121 154 193 235 279
#
# _framework density 17.243487999999999
#
# number of rings (size 3 to 8) (size 9 to 14) (size 15 to 20)
#    0.000    2.833    0.000    1.000    0.000    4.000 
#    0.000    1.667    0.000    0.500    0.000    0.000 
#    0.000    0.000    0.000    0.000    0.000    0.000 
#
# Total GULP energy -595215.248601 kJ/mol
# GULP energy per Si atom -12400.317679 kJ/mol
# Density = 1.720424 g / cm^3
# Si number density = 17.243488 Si / 1000 Ang^3
#
#
#
# Elastic Constant Matrix: (Units=GPa)
#
#
# Indices 1 2 3 4 5 6 
#
# 1 67.7496 56.6289 33.2845 0.0000 0.0000 0.0000
# 2 56.6289 130.0067 62.6536 0.0000 0.0000 0.0000
# 3 33.2845 62.6536 66.6779 0.0000 0.0000 0.0000
# 4 0.0000 0.0000 0.0000 33.6940 0.0000 0.0000
# 5 0.0000 0.0000 0.0000 0.0000 20.5392 0.0000
# 6 0.0000 0.0000 0.0000 0.0000 0.0000 16.4598
#
#
#
# Elastic Compliance Matrix: (Units=1/GPa)
#
#
# Indices 1 2 3 4 5 6 
#
# 1 0.023754 -0.008466 -0.003902 0.000000 0.000000 0.000000
# 2 -0.008466 0.017075 -0.011819 0.000000 0.000000 0.000000
# 3 -0.003902 -0.011819 0.028051 0.000000 0.000000 0.000000
# 4 0.000000 0.000000 0.000000 0.029679 0.000000 0.000000
# 5 0.000000 0.000000 0.000000 0.000000 0.048687 0.000000
# 6 0.000000 0.000000 0.000000 0.000000 0.000000 0.060754
#
#
# Mechanical properties :
#
#
# Convention : Reuss Voigt Hill
#
# Bulk Modulus (GPa) = 48.76684 63.28537 56.02611
# Shear Modulus (GPa) = 18.99628 21.59644 20.29636
#
# Velocity S-wave (km/s) = 3.32271 3.54282 3.43453
# Velocity P-wave (km/s) = 6.56226 7.31547 6.94908
#
# Compressibility (1/GPa) = 0.02050574
#
# Stress axis : x y z
#
# Youngs Moduli (GPa) = 42.09834 58.56406 35.64970
#
# Poissons Ratio (x) = 0.49581 0.13912
# Poissons Ratio (y) = 0.35641 0.42133
# Poissons Ratio (z) = 0.16428 0.69214
#
# Static dielectric constant tensor:
#      x y z
#    x 3.206220 0.000000 0.000000 
#    y 0.000000 3.094270 0.000000 
#    z 0.000000 0.000000 3.224510 
# 
# 
# High freq. dielectric constant tensor:
#      x y z
#    x 1.653550 0.000000 0.000000 
#    y 0.000000 1.653820 0.000000 
#    z 0.000000 0.000000 1.666220 
# 
# From -- ./inp_files/8514.got.cif
#   From: 2010.03.12/outbox.cif.g09.slc.cpg/sg63_5_cif.got.tgz:8514.got - 2010.04.10 19:34:48.
