data_PCOD8258389
_publ_section_title
;
Structure prediction by ZEFSAII (Michael W. Deem and Ramdas Pophale) SiO2 
 PCOD8258389
Probable space group: C M C M
;
_chemical_formula_sum "Si O2"
_cell_formula_units_Z 128
_cell_length_a 9.138234
_cell_length_b 25.983970
_cell_length_c 28.563487
_cell_angle_alpha 90.000000
_cell_angle_beta 90.000000
_cell_angle_gamma 90.000000
_cell_volume 6782.331382
_symmetry_space_group_name_H-M "C M C M"
_symmetry_group_IT_number 63
_symmetry_cell_setting 'orthorhombic'
loop_
_space_group_symop_operation_xyz
x,y,z
-x,-y,1/2+z
x,-y,-z
-x,y,1/2-z
-x,-y,-z
x,y,1/2-z
-x,y,z
x,-y,1/2+z
1/2+x,1/2+y,z
1/2-x,1/2-y,1/2+z
1/2+x,1/2-y,-z
1/2-x,1/2+y,1/2-z
1/2-x,1/2-y,-z
1/2+x,1/2+y,1/2-z
1/2-x,1/2+y,z
1/2+x,1/2-y,1/2+z
loop_
_atom_site_type_symbol
_atom_site_label
_atom_site_fract_x
_atom_site_fract_y
_atom_site_fract_z
Si Si1 0.826879 0.250385 0.950061
Si Si2 0.172786 0.441731 0.052737
Si Si3 0.825412 0.114919 0.303235
Si Si4 0.158535 0.996581 0.694900
Si Si5 0.671939 0.649796 0.896035
Si Si6 0.672608 0.055719 0.052914
Si Si7 0.826169 0.892910 0.301398
Si Si8 0.826742 0.651767 0.110930
O O1 0.770172 0.201545 0.920233
O O2 0.778952 0.300358 0.921013
O O3 0.000000 0.249132 0.958123
O O4 0.750000 0.250000 0.000000
O O5 0.254407 0.399961 0.082745
O O6 0.214824 0.498864 0.071959
O O7 0.000000 0.432358 0.055816
O O8 0.231184 0.436659 0.999699
O O9 0.780482 0.129205 0.250000
O O10 0.750253 0.155740 0.338307
O O11 0.000000 0.116349 0.308487
O O12 0.762228 0.057686 0.317657
O O13 0.133493 0.995253 0.750000
O O14 0.241453 0.050740 0.683284
O O15 0.000000 0.996618 0.669701
O O16 0.500000 0.644924 0.903335
O O17 0.713528 0.649814 0.840500
O O18 0.500000 0.060948 0.050507
O O19 0.735703 0.100384 0.085914
O O20 0.766380 0.875660 0.250000
O O21 0.000000 0.900448 0.298337
O O22 0.000000 0.651078 0.118397
#
# Coordination Sequence:
#
# PCOD8258389 Si02
#       8
#    16  16  16  16  16  16  16  16
#     4  10  22  39  57  78 104 133 173 221 263 309
#     4   9  17  32  52  72  98 134 169 202 252 317
#     4   9  18  32  50  75 106 137 174 215 252 302
#     4   7  11  22  41  65  94 129 164 195 233 289
#     4  10  20  32  50  79 106 126 163 217 258 293
#     4   8  16  31  50  71  97 132 173 209 246 306
#     4   8  14  26  45  69 100 136 166 195 245 306
#     4  10  20  34  52  74 102 137 177 217 258 304
#
# _framework density 18.872565999999999
#
# number of rings (size 3 to 8) (size 9 to 14) (size 15 to 20)
#    0.000    3.125    0.000    3.000    1.750    2.250 
#    0.000    2.500    0.000    2.625    0.000    0.000 
#    0.000    0.000    0.000    0.000    0.000    0.000 
#
# Total GULP energy -792853.585148 kJ/mol
# GULP energy per Si atom -12388.337268 kJ/mol
# Density = 1.882961 g / cm^3
# Si number density = 18.872566 Si / 1000 Ang^3
#
#
#
# Elastic Constant Matrix: (Units=GPa)
#
#
# Indices 1 2 3 4 5 6 
#
# 1 19.1767 27.9773 31.1693 0.0000 0.0000 0.0000
# 2 27.9773 127.9293 89.1845 0.0000 0.0000 0.0000
# 3 31.1693 89.1845 139.8107 0.0000 0.0000 0.0000
# 4 0.0000 0.0000 0.0000 35.2155 0.0000 0.0000
# 5 0.0000 0.0000 0.0000 0.0000 24.9999 0.0000
# 6 0.0000 0.0000 0.0000 0.0000 0.0000 20.1686
#
#
#
# Elastic Compliance Matrix: (Units=1/GPa)
#
#
# Indices 1 2 3 4 5 6 
#
# 1 0.088452 -0.010079 -0.013290 0.000000 0.000000 0.000000
# 2 -0.010079 0.015225 -0.007465 0.000000 0.000000 0.000000
# 3 -0.013290 -0.007465 0.014877 0.000000 0.000000 0.000000
# 4 0.000000 0.000000 0.000000 0.028397 0.000000 0.000000
# 5 0.000000 0.000000 0.000000 0.000000 0.040000 0.000000
# 6 0.000000 0.000000 0.000000 0.000000 0.000000 0.049582
#
#
# Mechanical properties :
#
#
# Convention : Reuss Voigt Hill
#
# Bulk Modulus (GPa) = 17.57881 64.84209 41.21045
# Shear Modulus (GPa) = 15.76470 25.31586 20.54028
#
# Velocity S-wave (km/s) = 2.89333 3.66650 3.30262
# Velocity P-wave (km/s) = 4.52731 7.23580 6.03545
#
# Compressibility (1/GPa) = 0.05688666
#
# Stress axis : x y z
#
# Youngs Moduli (GPa) = 11.30551 65.68057 67.21579
#
# Poissons Ratio (x) = 0.66197 0.89332
# Poissons Ratio (y) = 0.11394 0.50178
# Poissons Ratio (z) = 0.15025 0.49031
#
# Static dielectric constant tensor:
#      x y z
#    x 2.944180 0.000000 0.000000 
#    y 0.000000 3.707160 0.000000 
#    z 0.000000 0.000000 3.647460 
# 
# 
# High freq. dielectric constant tensor:
#      x y z
#    x 1.681530 0.000000 0.000000 
#    y 0.000000 1.728160 0.000000 
#    z 0.000000 0.000000 1.740220 
# 
# From -- ./inp_files/62020.got.cif
#   From: 2010.03.12/outbox.cif.g09.slc.cpg/sg63_32_cif.got.tgz:62020.got - 2010.04.10 19:34:48.
