data_PCOD8258594
_publ_section_title
;
Structure prediction by ZEFSAII (Michael W. Deem and Ramdas Pophale) SiO2 
 PCOD8258594
Probable space group: C M C M
;
_chemical_formula_sum "Si O2"
_cell_formula_units_Z 80
_cell_length_a 13.216095
_cell_length_b 13.776867
_cell_length_c 22.471343
_cell_angle_alpha 90.000000
_cell_angle_beta 90.000000
_cell_angle_gamma 90.000000
_cell_volume 4091.500856
_symmetry_space_group_name_H-M "C M C M"
_symmetry_group_IT_number 63
_symmetry_cell_setting 'orthorhombic'
loop_
_space_group_symop_operation_xyz
x,y,z
-x,-y,1/2+z
x,-y,-z
-x,y,1/2-z
-x,-y,-z
x,y,1/2-z
-x,y,z
x,-y,1/2+z
1/2+x,1/2+y,z
1/2-x,1/2-y,1/2+z
1/2+x,1/2-y,-z
1/2-x,1/2+y,1/2-z
1/2-x,1/2-y,-z
1/2+x,1/2+y,1/2-z
1/2-x,1/2+y,z
1/2+x,1/2-y,1/2+z
loop_
_atom_site_type_symbol
_atom_site_label
_atom_site_fract_x
_atom_site_fract_y
_atom_site_fract_z
Si Si1 0.202719 0.742134 0.317003
Si Si2 0.617084 0.217240 0.061310
Si Si3 0.796786 0.885253 0.992693
Si Si4 0.615869 0.356587 0.869657
Si Si5 0.887004 0.943887 0.316896
O O1 0.169637 0.708975 0.250000
O O2 0.133839 0.692486 0.368476
O O3 0.319433 0.715928 0.328727
O O4 0.192923 0.857739 0.322865
O O5 0.500000 0.207234 0.044736
O O6 0.679277 0.140999 0.020291
O O7 0.659838 0.327179 0.049982
O O8 0.863628 0.840725 0.939129
O O9 0.811206 0.000000 0.000000
O O10 0.500000 0.337017 0.853265
O O11 0.648496 0.467719 0.857852
O O12 0.889389 0.984432 0.250000
O O13 0.000000 0.906690 0.335071
#
# Coordination Sequence:
#
# PCOD8258594 Si02
#       5
#    16  16  16  16  16
#     4  10  20  33  52  78 107 138 175 221 267 310
#     4  10  21  36  54  79 108 138 177 219 261 316
#     4  10  21  36  55  80 109 140 174 217 266 314
#     4  10  20  34  54  79 106 139 178 219 265 316
#     4   9  17  30  50  75 101 133 175 219 263 313
#
# _framework density 19.552727000000001
#
# number of rings (size 3 to 8) (size 9 to 14) (size 15 to 20)
#    0.000    2.200    0.000    3.000    0.000    6.000 
#    0.000    0.000    0.000   13.200    0.000   11.200 
#    0.000    0.000    0.000    0.000    0.000    0.000 
#
# Total GULP energy -495869.384833 kJ/mol
# GULP energy per Si atom -12396.734621 kJ/mol
# Density = 1.950822 g / cm^3
# Si number density = 19.552727 Si / 1000 Ang^3
#
#
#
# Elastic Constant Matrix: (Units=GPa)
#
#
# Indices 1 2 3 4 5 6 
#
# 1 130.8565 47.2900 31.8363 0.0000 0.0000 0.0000
# 2 47.2900 76.3913 12.8801 0.0000 0.0000 0.0000
# 3 31.8363 12.8801 89.6492 0.0000 0.0000 0.0000
# 4 0.0000 0.0000 0.0000 25.0540 0.0000 0.0000
# 5 0.0000 0.0000 0.0000 0.0000 19.2289 0.0000
# 6 0.0000 0.0000 0.0000 0.0000 0.0000 29.4121
#
#
#
# Elastic Compliance Matrix: (Units=1/GPa)
#
#
# Indices 1 2 3 4 5 6 
#
# 1 0.010518 -0.006028 -0.002869 0.000000 0.000000 0.000000
# 2 -0.006028 0.016870 -0.000283 0.000000 0.000000 0.000000
# 3 -0.002869 -0.000283 0.012214 0.000000 0.000000 0.000000
# 4 0.000000 0.000000 0.000000 0.039914 0.000000 0.000000
# 5 0.000000 0.000000 0.000000 0.000000 0.052005 0.000000
# 6 0.000000 0.000000 0.000000 0.000000 0.000000 0.034000
#
#
# Mechanical properties :
#
#
# Convention : Reuss Voigt Hill
#
# Bulk Modulus (GPa) = 47.07641 53.43445 50.25543
# Shear Modulus (GPa) = 26.18328 28.39836 27.29082
#
# Velocity S-wave (km/s) = 3.66336 3.81517 3.74003
# Velocity P-wave (km/s) = 6.48248 6.84069 6.66399
#
# Compressibility (1/GPa) = 0.02124206
#
# Stress axis : x y z
#
# Youngs Moduli (GPa) = 95.07206 59.27818 81.87185
#
# Poissons Ratio (x) = 0.35730 0.23491
# Poissons Ratio (y) = 0.57306 0.02318
# Poissons Ratio (z) = 0.27279 0.01679
#
# Static dielectric constant tensor:
#      x y z
#    x 3.448230 0.000000 0.000000 
#    y 0.000000 3.329550 0.000000 
#    z 0.000000 0.000000 3.810410 
# 
# 
# High freq. dielectric constant tensor:
#      x y z
#    x 1.746910 0.000000 0.000000 
#    y 0.000000 1.737890 0.000000 
#    z 0.000000 0.000000 1.780680 
# 
# From -- ./inp_files/61100.got.cif
#   From: 2010.03.12/outbox.cif.g09.slc.cpg/sg63_31_cif.got.tgz:61100.got - 2010.04.10 19:34:48.
