data_PCOD8258308
_publ_section_title
;
Structure prediction by ZEFSAII (Michael W. Deem and Ramdas Pophale) SiO2 
 PCOD8258308
Probable space group: C M C M
;
_chemical_formula_sum "Si O2"
_cell_formula_units_Z 80
_cell_length_a 8.826019
_cell_length_b 27.307359
_cell_length_c 18.724168
_cell_angle_alpha 90.000000
_cell_angle_beta 90.000000
_cell_angle_gamma 90.000000
_cell_volume 4512.810394
_symmetry_space_group_name_H-M "C M C M"
_symmetry_group_IT_number 63
_symmetry_cell_setting 'orthorhombic'
loop_
_space_group_symop_operation_xyz
x,y,z
-x,-y,1/2+z
x,-y,-z
-x,y,1/2-z
-x,-y,-z
x,y,1/2-z
-x,y,z
x,-y,1/2+z
1/2+x,1/2+y,z
1/2-x,1/2-y,1/2+z
1/2+x,1/2-y,-z
1/2-x,1/2+y,1/2-z
1/2-x,1/2-y,-z
1/2+x,1/2+y,1/2-z
1/2-x,1/2+y,z
1/2+x,1/2-y,1/2+z
loop_
_atom_site_type_symbol
_atom_site_label
_atom_site_fract_x
_atom_site_fract_y
_atom_site_fract_z
Si Si1 0.323113 0.724783 0.108359
Si Si2 0.179113 0.571127 0.962953
Si Si3 0.820841 0.686030 0.250000
Si Si4 0.181017 0.574622 0.250000
Si Si5 0.680298 0.024567 0.392030
Si Si6 0.322769 0.179192 0.974130
O O1 0.500000 0.717086 0.120998
O O2 0.236251 0.714615 0.180963
O O3 0.268421 0.688244 0.046722
O O4 0.284420 0.780496 0.085500
O O5 0.237093 0.531729 0.904065
O O6 0.000000 0.567123 0.965551
O O7 0.240238 0.557086 0.041710
O O8 0.229162 0.626344 0.943248
O O9 0.759265 0.630374 0.250000
O O10 0.000000 0.686534 0.250000
O O11 0.248180 0.546625 0.319119
O O12 0.000000 0.574033 0.250000
O O13 0.500000 0.026530 0.387680
O O14 0.500000 0.179913 0.993943
#
# Coordination Sequence:
#
# PCOD8258308 Si02
#       6
#    16  16   8   8  16  16
#     4  10  20  32  47  70  98 124 155 195 232 270
#     4   8  13  23  40  62  89 118 144 178 226 273
#     4  11  21  33  50  69  93 125 157 191 234 281
#     4   9  16  25  40  65  91 113 143 187 234 275
#     4   8  13  21  36  62  92 114 139 181 229 271
#     4   9  17  31  50  70  94 125 158 190 229 277
#
# _framework density 17.727312999999999
#
# number of rings (size 3 to 8) (size 9 to 14) (size 15 to 20)
#    0.000    3.000    0.000    3.300    0.000    4.000 
#    0.000    1.000    0.000    4.800    0.000   12.600 
#    0.000    0.000    0.000    0.000    0.000    0.000 
#
# Total GULP energy -495769.016419 kJ/mol
# GULP energy per Si atom -12394.225410 kJ/mol
# Density = 1.768696 g / cm^3
# Si number density = 17.727313 Si / 1000 Ang^3
#
#
#
# Elastic Constant Matrix: (Units=GPa)
#
#
# Indices 1 2 3 4 5 6 
#
# 1 31.3245 24.7172 27.8878 0.0000 0.0000 0.0000
# 2 24.7172 158.1464 75.8697 0.0000 0.0000 0.0000
# 3 27.8878 75.8697 135.1936 0.0000 0.0000 0.0000
# 4 0.0000 0.0000 0.0000 32.1599 0.0000 0.0000
# 5 0.0000 0.0000 0.0000 0.0000 21.4744 0.0000
# 6 0.0000 0.0000 0.0000 0.0000 0.0000 16.6879
#
#
#
# Elastic Compliance Matrix: (Units=1/GPa)
#
#
# Indices 1 2 3 4 5 6 
#
# 1 0.040225 -0.003156 -0.006527 0.000000 0.000000 0.000000
# 2 -0.003156 0.008900 -0.004344 0.000000 0.000000 0.000000
# 3 -0.006527 -0.004344 0.011181 0.000000 0.000000 0.000000
# 4 0.000000 0.000000 0.000000 0.031095 0.000000 0.000000
# 5 0.000000 0.000000 0.000000 0.000000 0.046567 0.000000
# 6 0.000000 0.000000 0.000000 0.000000 0.000000 0.059923
#
#
# Mechanical properties :
#
#
# Convention : Reuss Voigt Hill
#
# Bulk Modulus (GPa) = 31.00446 64.62377 47.81412
# Shear Modulus (GPa) = 21.12427 27.14376 24.13401
#
# Velocity S-wave (km/s) = 3.45573 3.91728 3.69372
# Velocity P-wave (km/s) = 5.78363 7.54941 6.72473
#
# Compressibility (1/GPa) = 0.03225343
#
# Stress axis : x y z
#
# Youngs Moduli (GPa) = 24.86044 112.35415 89.43855
#
# Poissons Ratio (x) = 0.35456 0.58373
# Poissons Ratio (y) = 0.07845 0.38851
# Poissons Ratio (z) = 0.16225 0.48805
#
# Static dielectric constant tensor:
#      x y z
#    x 2.841480 0.000000 0.000000 
#    y 0.000000 3.690130 0.000000 
#    z 0.000000 0.000000 3.347570 
# 
# 
# High freq. dielectric constant tensor:
#      x y z
#    x 1.637090 0.000000 0.000000 
#    y 0.000000 1.699590 0.000000 
#    z 0.000000 0.000000 1.675150 
# 
# From -- ./inp_files/40739.got.cif
#   From: 2010.03.12/outbox.cif.g09.slc.cpg/sg63_21_cif.got.tgz:40739.got - 2010.04.10 19:34:48.
