data_PCOD8258634
_publ_section_title
;
Structure prediction by ZEFSAII (Michael W. Deem and Ramdas Pophale) SiO2 
 PCOD8258634
Probable space group: C M C M
;
_chemical_formula_sum "Si O2"
_cell_formula_units_Z 112
_cell_length_a 14.026149
_cell_length_b 14.614567
_cell_length_c 26.194021
_cell_angle_alpha 90.000000
_cell_angle_beta 90.000000
_cell_angle_gamma 90.000000
_cell_volume 5369.410059
_symmetry_space_group_name_H-M "C M C M"
_symmetry_group_IT_number 63
_symmetry_cell_setting 'orthorhombic'
loop_
_space_group_symop_operation_xyz
x,y,z
-x,-y,1/2+z
x,-y,-z
-x,y,1/2-z
-x,-y,-z
x,y,1/2-z
-x,y,z
x,-y,1/2+z
1/2+x,1/2+y,z
1/2-x,1/2-y,1/2+z
1/2+x,1/2-y,-z
1/2-x,1/2+y,1/2-z
1/2-x,1/2-y,-z
1/2+x,1/2+y,1/2-z
1/2-x,1/2+y,z
1/2+x,1/2-y,1/2+z
loop_
_atom_site_type_symbol
_atom_site_label
_atom_site_fract_x
_atom_site_fract_y
_atom_site_fract_z
Si Si1 0.390365 0.733821 0.309721
Si Si2 0.209554 0.073748 0.141442
Si Si3 0.239022 0.371920 0.126018
Si Si4 0.108367 0.088600 0.034766
Si Si5 0.105155 0.550760 0.950668
Si Si6 0.399336 0.875340 0.887890
Si Si7 0.607100 0.703796 0.943634
O O1 0.377634 0.747323 0.250000
O O2 0.500000 0.752646 0.326215
O O3 0.365983 0.627228 0.323306
O O4 0.319894 0.806101 0.336451
O O5 0.178304 0.078958 0.082375
O O6 0.307351 0.132925 0.148444
O O7 0.231759 0.967430 0.154652
O O8 0.177971 0.376711 0.073185
O O9 0.338175 0.330223 0.106996
O O10 0.000000 0.103946 0.054432
O O11 0.145020 0.173037 0.999326
O O12 0.115995 0.000000 0.000000
O O13 0.094494 0.479395 0.904865
O O14 0.000000 0.592865 0.963346
O O15 0.149263 0.500000 0.000000
O O16 0.500000 0.849568 0.859607
O O17 0.390420 0.813773 0.939490
O O18 0.500000 0.663138 0.938770
#
# Coordination Sequence:
#
# PCOD8258634 Si02
#       7
#    16  16  16  16  16  16  16
#     4  11  26  48  69  94 127 163 214 278 332 379
#     4  11  22  37  67  93 123 168 215 259 315 386
#     4  11  22  37  65  93 122 167 208 258 314 386
#     4  10  20  33  52  88 133 171 211 251 306 384
#     4   9  19  33  52  82 123 160 199 250 303 370
#     4   9  19  34  51  79 116 158 200 250 305 360
#     4  10  20  34  54  83 124 168 203 247 303 374
#
# _framework density 20.858902
#
# number of rings (size 3 to 8) (size 9 to 14) (size 15 to 20)
#    0.000    1.857    2.857    0.857    4.000    3.429 
#    0.000    2.857    0.000    1.714    0.000    0.000 
#    0.000    0.000    0.000    0.000    0.000    0.000 
#
# Total GULP energy -693746.483117 kJ/mol
# GULP energy per Si atom -12388.330056 kJ/mol
# Density = 2.081143 g / cm^3
# Si number density = 20.858902 Si / 1000 Ang^3
#
#
#
# Elastic Constant Matrix: (Units=GPa)
#
#
# Indices 1 2 3 4 5 6 
#
# 1 95.4021 30.5930 36.1185 0.0000 0.0000 0.0000
# 2 30.5930 65.4002 14.6189 0.0000 0.0000 0.0000
# 3 36.1185 14.6189 63.7157 0.0000 0.0000 0.0000
# 4 0.0000 0.0000 0.0000 23.7472 0.0000 0.0000
# 5 0.0000 0.0000 0.0000 0.0000 23.2147 0.0000
# 6 0.0000 0.0000 0.0000 0.0000 0.0000 22.4281
#
#
#
# Elastic Compliance Matrix: (Units=1/GPa)
#
#
# Indices 1 2 3 4 5 6 
#
# 1 0.014946 -0.005373 -0.007240 0.000000 0.000000 0.000000
# 2 -0.005373 0.018049 -0.001095 0.000000 0.000000 0.000000
# 3 -0.007240 -0.001095 0.020050 0.000000 0.000000 0.000000
# 4 0.000000 0.000000 0.000000 0.042110 0.000000 0.000000
# 5 0.000000 0.000000 0.000000 0.000000 0.043076 0.000000
# 6 0.000000 0.000000 0.000000 0.000000 0.000000 0.044587
#
#
# Mechanical properties :
#
#
# Convention : Reuss Voigt Hill
#
# Bulk Modulus (GPa) = 39.01880 43.01986 41.01933
# Shear Modulus (GPa) = 22.85440 23.42385 23.13912
#
# Velocity S-wave (km/s) = 3.31368 3.35470 3.33425
# Velocity P-wave (km/s) = 5.77817 5.97280 5.87629
#
# Compressibility (1/GPa) = 0.02562867
#
# Stress axis : x y z
#
# Youngs Moduli (GPa) = 66.90846 55.40551 49.87569
#
# Poissons Ratio (x) = 0.29770 0.36108
# Poissons Ratio (y) = 0.35951 0.05463
# Poissons Ratio (z) = 0.48438 0.06068
#
# Static dielectric constant tensor:
#      x y z
#    x 4.522000 0.000000 0.000000 
#    y 0.000000 3.863020 0.000000 
#    z 0.000000 0.000000 3.235340 
# 
# 
# High freq. dielectric constant tensor:
#      x y z
#    x 1.842630 0.000000 0.000000 
#    y 0.000000 1.818940 0.000000 
#    z 0.000000 0.000000 1.754610 
# 
# From -- ./inp_files/62974.got.cif
#   From: 2010.03.12/outbox.cif.g09.slc.cpg/sg63_32_cif.got.tgz:62974.got - 2010.04.10 19:34:48.
