data_PCOD8258278
_publ_section_title
;
Structure prediction by ZEFSAII (Michael W. Deem and Ramdas Pophale) SiO2 
 PCOD8258278
Probable space group: C M C M
;
_chemical_formula_sum "Si O2"
_cell_formula_units_Z 80
_cell_length_a 24.061432
_cell_length_b 23.508092
_cell_length_c 9.119791
_cell_angle_alpha 90.000000
_cell_angle_beta 90.000000
_cell_angle_gamma 90.000000
_cell_volume 5158.503598
_symmetry_space_group_name_H-M "C M C M"
_symmetry_group_IT_number 63
_symmetry_cell_setting 'orthorhombic'
loop_
_space_group_symop_operation_xyz
x,y,z
-x,-y,1/2+z
x,-y,-z
-x,y,1/2-z
-x,-y,-z
x,y,1/2-z
-x,y,z
x,-y,1/2+z
1/2+x,1/2+y,z
1/2-x,1/2-y,1/2+z
1/2+x,1/2-y,-z
1/2-x,1/2+y,1/2-z
1/2-x,1/2-y,-z
1/2+x,1/2+y,1/2-z
1/2-x,1/2+y,z
1/2+x,1/2-y,1/2+z
loop_
_atom_site_type_symbol
_atom_site_label
_atom_site_fract_x
_atom_site_fract_y
_atom_site_fract_z
Si Si1 0.061797 0.229445 0.917965
Si Si2 0.936486 0.887232 0.580101
Si Si3 0.337298 0.557323 0.575361
Si Si4 0.265085 0.335947 0.079092
Si Si5 0.826356 0.721141 0.418723
O O1 0.070356 0.208026 0.750000
O O2 0.107407 0.278278 0.952879
O O3 0.000000 0.255343 0.939760
O O4 0.071537 0.176847 0.024686
O O5 0.918997 0.889761 0.750000
O O6 0.898641 0.929532 0.485858
O O7 0.000000 0.906842 0.557758
O O8 0.315035 0.500000 0.500000
O O9 0.340352 0.550715 0.750000
O O10 0.294922 0.606740 0.525359
O O11 0.255057 0.338337 0.250000
O O12 0.303471 0.282914 0.032651
O O13 0.204236 0.329191 0.006339
O O14 0.813853 0.709515 0.250000
#
# Coordination Sequence:
#
# PCOD8258278 Si02
#       5
#    16  16  16  16  16
#     4   9  16  28  46  67  93 122 150 184 224 264
#     4  10  20  32  46  65  88 117 155 193 228 265
#     4  11  22  36  50  65  87 116 154 193 231 269
#     4   9  18  31  45  65  89 115 148 184 223 266
#     4   9  16  28  46  68  90 116 148 180 220 269
#
# _framework density 15.508374
#
# number of rings (size 3 to 8) (size 9 to 14) (size 15 to 20)
#    0.000    2.400    2.000    1.200    0.000    4.000 
#    0.000    0.000    0.000    0.000    0.000    0.000 
#    0.000    0.800    0.000    1.800    0.000    2.800 
#
# Total GULP energy -495920.504568 kJ/mol
# GULP energy per Si atom -12398.012614 kJ/mol
# Density = 1.547308 g / cm^3
# Si number density = 15.508374 Si / 1000 Ang^3
#
#
#
# Elastic Constant Matrix: (Units=GPa)
#
#
# Indices 1 2 3 4 5 6 
#
# 1 102.2750 54.5620 39.8532 0.0000 0.0000 0.0000
# 2 54.5620 74.2616 39.0592 0.0000 0.0000 0.0000
# 3 39.8532 39.0592 58.6244 0.0000 0.0000 0.0000
# 4 0.0000 0.0000 0.0000 23.5239 0.0000 0.0000
# 5 0.0000 0.0000 0.0000 0.0000 25.4783 0.0000
# 6 0.0000 0.0000 0.0000 0.0000 0.0000 23.1879
#
#
#
# Elastic Compliance Matrix: (Units=1/GPa)
#
#
# Indices 1 2 3 4 5 6 
#
# 1 0.016972 -0.009855 -0.004972 0.000000 0.000000 0.000000
# 2 -0.009855 0.026453 -0.010925 0.000000 0.000000 0.000000
# 3 -0.004972 -0.010925 0.027717 0.000000 0.000000 0.000000
# 4 0.000000 0.000000 0.000000 0.042510 0.000000 0.000000
# 5 0.000000 0.000000 0.000000 0.000000 0.039249 0.000000
# 6 0.000000 0.000000 0.000000 0.000000 0.000000 0.043126
#
#
# Mechanical properties :
#
#
# Convention : Reuss Voigt Hill
#
# Bulk Modulus (GPa) = 50.92180 55.78998 53.35589
# Shear Modulus (GPa) = 19.67905 21.21709 20.44807
#
# Velocity S-wave (km/s) = 3.56607 3.70280 3.63508
# Velocity P-wave (km/s) = 7.06131 7.37111 7.21787
#
# Compressibility (1/GPa) = 0.01963795
#
# Stress axis : x y z
#
# Youngs Moduli (GPa) = 58.91887 37.80301 36.07939
#
# Poissons Ratio (x) = 0.37255 0.17938
# Poissons Ratio (y) = 0.58065 0.39417
# Poissons Ratio (z) = 0.29294 0.41300
#
# Static dielectric constant tensor:
#      x y z
#    x 3.187610 0.000000 0.000000 
#    y 0.000000 2.713370 0.000000 
#    z 0.000000 0.000000 3.015810 
# 
# 
# High freq. dielectric constant tensor:
#      x y z
#    x 1.594360 0.000000 0.000000 
#    y 0.000000 1.548730 0.000000 
#    z 0.000000 0.000000 1.602710 
# 
# From -- ./inp_files/12055.got.cif
#   From: 2010.03.12/outbox.cif.g09.slc.cpg/sg63_7_cif.got.tgz:12055.got - 2010.04.10 19:34:48.
