data_PCOD8258708
_publ_section_title
;
Structure prediction by ZEFSAII (Michael W. Deem and Ramdas Pophale) SiO2 
 PCOD8258708
Probable space group: C M C M
;
_chemical_formula_sum "Si O2"
_cell_formula_units_Z 96
_cell_length_a 18.952097
_cell_length_b 30.744697
_cell_length_c 9.351319
_cell_angle_alpha 90.000000
_cell_angle_beta 90.000000
_cell_angle_gamma 90.000000
_cell_volume 5448.793636
_symmetry_space_group_name_H-M "C M C M"
_symmetry_group_IT_number 63
_symmetry_cell_setting 'orthorhombic'
loop_
_space_group_symop_operation_xyz
x,y,z
-x,-y,1/2+z
x,-y,-z
-x,y,1/2-z
-x,-y,-z
x,y,1/2-z
-x,y,z
x,-y,1/2+z
1/2+x,1/2+y,z
1/2-x,1/2-y,1/2+z
1/2+x,1/2-y,-z
1/2-x,1/2+y,1/2-z
1/2-x,1/2-y,-z
1/2+x,1/2+y,1/2-z
1/2-x,1/2+y,z
1/2+x,1/2-y,1/2+z
loop_
_atom_site_type_symbol
_atom_site_label
_atom_site_fract_x
_atom_site_fract_y
_atom_site_fract_z
Si Si1 0.415930 0.708503 0.089672
Si Si2 0.166645 0.457021 0.417094
Si Si3 0.416251 0.211903 0.408302
Si Si4 0.082628 0.614132 0.415095
Si Si5 0.830487 0.957775 0.415401
Si Si6 0.918134 0.125041 0.583708
O O1 0.385899 0.705887 0.250000
O O2 0.500000 0.709970 0.089361
O O3 0.385147 0.752331 0.017160
O O4 0.389559 0.666539 0.002830
O O5 0.141276 0.500000 0.500000
O O6 0.149845 0.462923 0.250000
O O7 0.124463 0.416398 0.477769
O O8 0.248768 0.448187 0.445438
O O9 0.386157 0.221719 0.250000
O O10 0.500000 0.215234 0.402935
O O11 0.394871 0.163327 0.456079
O O12 0.102070 0.604255 0.250000
O O13 0.000000 0.606867 0.440192
O O14 0.845425 0.966855 0.250000
O O15 0.874835 0.916631 0.470295
O O16 0.856848 0.000000 0.500000
O O17 0.904626 0.134527 0.750000
O O18 0.000000 0.116062 0.552131
#
# Coordination Sequence:
#
# PCOD8258708 Si02
#       6
#    16  16  16  16  16  16
#     4   9  16  25  40  66  97 124 152 188 227 268
#     4  10  20  34  51  69  92 123 157 192 231 278
#     4   8  14  26  44  65  91 123 153 182 223 274
#     4   9  18  32  50  73  98 122 153 193 233 274
#     4   9  19  34  50  69  92 121 157 193 231 278
#     4   9  17  30  48  69  94 124 156 190 231 277
#
# _framework density 17.618579
#
# number of rings (size 3 to 8) (size 9 to 14) (size 15 to 20)
#    0.000    3.000    0.000    2.000    0.000    5.000 
#    0.000    1.667    0.000    1.000    0.000    0.000 
#    0.000    0.000    0.000    0.000    0.000    0.000 
#
# Total GULP energy -595147.465571 kJ/mol
# GULP energy per Si atom -12398.905533 kJ/mol
# Density = 1.757848 g / cm^3
# Si number density = 17.618579 Si / 1000 Ang^3
#
#
#
# Elastic Constant Matrix: (Units=GPa)
#
#
# Indices 1 2 3 4 5 6 
#
# 1 32.3794 47.5753 34.7785 0.0000 0.0000 0.0000
# 2 47.5753 175.6027 95.7598 0.0000 0.0000 0.0000
# 3 34.7785 95.7598 113.2101 0.0000 0.0000 0.0000
# 4 0.0000 0.0000 0.0000 38.0119 0.0000 0.0000
# 5 0.0000 0.0000 0.0000 0.0000 17.4291 0.0000
# 6 0.0000 0.0000 0.0000 0.0000 0.0000 -2.9337
#
#
#
# Elastic Compliance Matrix: (Units=1/GPa)
#
#
# Indices 1 2 3 4 5 6 
#
# 1 0.054914 -0.010540 -0.007955 0.000000 0.000000 0.000000
# 2 -0.010540 0.012593 -0.007414 0.000000 0.000000 0.000000
# 3 -0.007955 -0.007414 0.017548 0.000000 0.000000 0.000000
# 4 0.000000 0.000000 0.000000 0.026308 0.000000 0.000000
# 5 0.000000 0.000000 0.000000 0.000000 0.057375 0.000000
# 6 0.000000 0.000000 0.000000 0.000000 0.000000 -0.340866
#
#
# Mechanical properties :
#
#
# Convention : Reuss Voigt Hill
#
# Bulk Modulus (GPa) = 30.08587 75.26885 52.67736
# Shear Modulus (GPa) = -45.77477 20.04003 -12.86737
#
# Velocity S-wave (km/s) = -5.10268 3.37625 -2.70539
# Velocity P-wave (km/s) = 4.19562 7.61661 4.49497
#
# Compressibility (1/GPa) = 0.03323819
#
# Stress axis : x y z
#
# Youngs Moduli (GPa) = 18.21029 79.40662 56.98551
#
# Poissons Ratio (x) = 0.83693 0.45329
# Poissons Ratio (y) = 0.19193 0.42251
# Poissons Ratio (z) = 0.14485 0.58875
#
# Static dielectric constant tensor:
#      x y z
#    x 2.876200 0.000000 0.000000 
#    y 0.000000 3.465800 0.000000 
#    z 0.000000 0.000000 3.397210 
# 
# 
# High freq. dielectric constant tensor:
#      x y z
#    x 1.635710 0.000000 0.000000 
#    y 0.000000 1.694400 0.000000 
#    z 0.000000 0.000000 1.684360 
# 
# From -- ./inp_files/8634.got.cif
#   From: 2010.03.12/outbox.cif.g09.slc.cpg/sg63_5_cif.got.tgz:8634.got - 2010.04.10 19:34:48.
