data_PCOD8258584
_publ_section_title
;
Structure prediction by ZEFSAII (Michael W. Deem and Ramdas Pophale) SiO2 
 PCOD8258584
Probable space group: C M C M
;
_chemical_formula_sum "Si O2"
_cell_formula_units_Z 96
_cell_length_a 23.174382
_cell_length_b 13.630125
_cell_length_c 17.590101
_cell_angle_alpha 90.000000
_cell_angle_beta 90.000000
_cell_angle_gamma 90.000000
_cell_volume 5556.180338
_symmetry_space_group_name_H-M "C M C M"
_symmetry_group_IT_number 63
_symmetry_cell_setting 'orthorhombic'
loop_
_space_group_symop_operation_xyz
x,y,z
-x,-y,1/2+z
x,-y,-z
-x,y,1/2-z
-x,-y,-z
x,y,1/2-z
-x,y,z
x,-y,1/2+z
1/2+x,1/2+y,z
1/2-x,1/2-y,1/2+z
1/2+x,1/2-y,-z
1/2-x,1/2+y,1/2-z
1/2-x,1/2-y,-z
1/2+x,1/2+y,1/2-z
1/2-x,1/2+y,z
1/2+x,1/2-y,1/2+z
loop_
_atom_site_type_symbol
_atom_site_label
_atom_site_fract_x
_atom_site_fract_y
_atom_site_fract_z
Si Si1 0.565509 0.936088 0.572184
Si Si2 0.328549 0.220954 0.901922
Si Si3 0.669650 0.799279 0.576949
Si Si4 0.565332 0.121595 0.663531
Si Si5 0.772055 0.902043 0.839958
Si Si6 0.781492 0.875527 0.161881
O O1 0.500000 0.899125 0.559631
O O2 0.605024 0.840896 0.583989
O O3 0.586551 0.000000 0.500000
O O4 0.570655 0.006077 0.645456
O O5 0.393941 0.186397 0.889960
O O6 0.322725 0.331559 0.870457
O O7 0.284605 0.151975 0.855890
O O8 0.311941 0.214690 0.989938
O O9 0.712756 0.875370 0.617381
O O10 0.673534 0.692726 0.616323
O O11 0.584063 0.137577 0.750000
O O12 0.500000 0.157206 0.648369
O O13 0.762387 0.889327 0.750000
O O14 0.791169 0.011777 0.861191
O O15 0.793652 0.858339 0.250000
#
# Coordination Sequence:
#
# PCOD8258584 Si02
#       6
#    16  16  16  16  16  16
#     4  10  20  35  52  75 107 137 166 204 257 308
#     4  11  20  32  51  76 104 135 168 212 263 308
#     4  11  21  31  53  78 101 136 172 210 258 312
#     4  10  20  33  52  77 103 134 172 211 252 306
#     4  10  21  35  52  73 104 141 174 215 261 307
#     4  10  21  35  50  72 102 135 172 213 254 306
#
# _framework density 17.278057
#
# number of rings (size 3 to 8) (size 9 to 14) (size 15 to 20)
#    0.000    1.667    1.667    6.000    0.000    4.667 
#    0.000    0.000    0.000    1.000    0.000    4.667 
#    0.000    0.000    0.000    0.000    0.000    0.000 
#
# Total GULP energy -595254.880066 kJ/mol
# GULP energy per Si atom -12401.143335 kJ/mol
# Density = 1.723873 g / cm^3
# Si number density = 17.278057 Si / 1000 Ang^3
#
#
#
# Elastic Constant Matrix: (Units=GPa)
#
#
# Indices 1 2 3 4 5 6 
#
# 1 87.3036 54.2950 37.7085 0.0000 0.0000 0.0000
# 2 54.2950 131.2755 53.7268 0.0000 0.0000 0.0000
# 3 37.7085 53.7268 98.3032 0.0000 0.0000 0.0000
# 4 0.0000 0.0000 0.0000 27.8299 0.0000 0.0000
# 5 0.0000 0.0000 0.0000 0.0000 23.9688 0.0000
# 6 0.0000 0.0000 0.0000 0.0000 0.0000 26.7447
#
#
#
# Elastic Compliance Matrix: (Units=1/GPa)
#
#
# Indices 1 2 3 4 5 6 
#
# 1 0.016206 -0.005357 -0.003289 0.000000 0.000000 0.000000
# 2 -0.005357 0.011583 -0.004276 0.000000 0.000000 0.000000
# 3 -0.003289 -0.004276 0.013771 0.000000 0.000000 0.000000
# 4 0.000000 0.000000 0.000000 0.035933 0.000000 0.000000
# 5 0.000000 0.000000 0.000000 0.000000 0.041721 0.000000
# 6 0.000000 0.000000 0.000000 0.000000 0.000000 0.037391
#
#
# Mechanical properties :
#
#
# Convention : Reuss Voigt Hill
#
# Bulk Modulus (GPa) = 63.62356 67.59366 65.60861
# Shear Modulus (GPa) = 26.64014 27.11881 26.87948
#
# Velocity S-wave (km/s) = 3.93090 3.96606 3.94852
# Velocity P-wave (km/s) = 7.58326 7.75750 7.67088
#
# Compressibility (1/GPa) = 0.01571745
#
# Stress axis : x y z
#
# Youngs Moduli (GPa) = 61.70440 86.33294 72.61573
#
# Poissons Ratio (x) = 0.46247 0.23883
# Poissons Ratio (y) = 0.33054 0.31049
# Poissons Ratio (z) = 0.20294 0.36914
#
# Static dielectric constant tensor:
#      x y z
#    x 3.061160 0.000000 0.000000 
#    y 0.000000 3.224560 0.000000 
#    z 0.000000 0.000000 3.392280 
# 
# 
# High freq. dielectric constant tensor:
#      x y z
#    x 1.649090 0.000000 0.000000 
#    y 0.000000 1.655820 0.000000 
#    z 0.000000 0.000000 1.687400 
# 
# From -- ./inp_files/48050.got.cif
#   From: 2010.03.12/outbox.cif.g09.slc.cpg/sg63_25_cif.got.tgz:48050.got - 2010.04.10 19:34:48.
