data_PCOD8258417
_publ_section_title
;
Structure prediction by ZEFSAII (Michael W. Deem and Ramdas Pophale) SiO2 
 PCOD8258417
Probable space group: C M C M
;
_chemical_formula_sum "Si O2"
_cell_formula_units_Z 80
_cell_length_a 26.339713
_cell_length_b 20.689886
_cell_length_c 8.904445
_cell_angle_alpha 90.000000
_cell_angle_beta 90.000000
_cell_angle_gamma 90.000000
_cell_volume 4852.616740
_symmetry_space_group_name_H-M "C M C M"
_symmetry_group_IT_number 63
_symmetry_cell_setting 'orthorhombic'
loop_
_space_group_symop_operation_xyz
x,y,z
-x,-y,1/2+z
x,-y,-z
-x,y,1/2-z
-x,-y,-z
x,y,1/2-z
-x,y,z
x,-y,1/2+z
1/2+x,1/2+y,z
1/2-x,1/2-y,1/2+z
1/2+x,1/2-y,-z
1/2-x,1/2+y,1/2-z
1/2-x,1/2-y,-z
1/2+x,1/2+y,1/2-z
1/2-x,1/2+y,z
1/2+x,1/2-y,1/2+z
loop_
_atom_site_type_symbol
_atom_site_label
_atom_site_fract_x
_atom_site_fract_y
_atom_site_fract_z
Si Si1 0.205722 0.208602 0.428942
Si Si2 0.000000 0.766668 0.919052
Si Si3 0.800590 0.062558 0.424644
Si Si4 0.398949 0.271690 0.417099
Si Si5 0.500000 0.579231 0.081366
Si Si6 0.402297 0.422655 0.084158
O O1 0.205519 0.213692 0.250000
O O2 0.250000 0.250000 0.500000
O O3 0.216547 0.134045 0.480458
O O4 0.152541 0.238101 0.487476
O O5 0.000000 0.843564 0.913598
O O6 0.000000 0.738562 0.750000
O O7 0.051341 0.741053 0.001800
O O8 0.791521 0.055987 0.250000
O O9 0.859471 0.056933 0.466451
O O10 0.772105 0.000000 0.500000
O O11 0.392937 0.240716 0.250000
O O12 0.408218 0.346789 0.399438
O O13 0.500000 0.551784 0.250000
O O14 0.452984 0.550165 0.989894
O O15 0.391853 0.452282 0.250000
#
# Coordination Sequence:
#
# PCOD8258417 Si02
#       6
#    16   8  16  16   8  16
#     4  10  20  33  49  69  92 119 152 189 229 273
#     4   9  15  23  37  58  84 113 146 184 224 266
#     4  10  20  33  48  65  85 111 144 181 222 267
#     4   9  16  26  41  61  85 114 148 185 225 268
#     4   9  15  23  36  54  77 105 139 180 222 260
#     4   9  16  26  40  57  78 106 141 180 221 262
#
# _framework density 16.485949999999999
#
# number of rings (size 3 to 8) (size 9 to 14) (size 15 to 20)
#    0.000    2.600    0.000    3.000    0.000    9.600 
#    0.000    0.500    0.000    0.000    0.000    0.000 
#    0.000    0.000    0.000    0.900    0.000   12.300 
#
# Total GULP energy -495580.823624 kJ/mol
# GULP energy per Si atom -12389.520591 kJ/mol
# Density = 1.644843 g / cm^3
# Si number density = 16.485950 Si / 1000 Ang^3
#
#
#
# Elastic Constant Matrix: (Units=GPa)
#
#
# Indices 1 2 3 4 5 6 
#
# 1 102.0069 40.3847 44.9815 0.0000 0.0000 0.0000
# 2 40.3847 53.6436 23.7570 0.0000 0.0000 0.0000
# 3 44.9815 23.7570 94.7260 0.0000 0.0000 0.0000
# 4 0.0000 0.0000 0.0000 18.5044 0.0000 0.0000
# 5 0.0000 0.0000 0.0000 0.0000 23.3309 0.0000
# 6 0.0000 0.0000 0.0000 0.0000 0.0000 -37.4345
#
#
#
# Elastic Compliance Matrix: (Units=1/GPa)
#
#
# Indices 1 2 3 4 5 6 
#
# 1 0.015902 -0.009705 -0.005117 0.000000 0.000000 0.000000
# 2 -0.009705 0.026894 -0.002136 0.000000 0.000000 0.000000
# 3 -0.005117 -0.002136 0.013522 0.000000 0.000000 0.000000
# 4 0.000000 0.000000 0.000000 0.054041 0.000000 0.000000
# 5 0.000000 0.000000 0.000000 0.000000 0.042862 0.000000
# 6 0.000000 0.000000 0.000000 0.000000 0.000000 -0.026713
#
#
# Mechanical properties :
#
#
# Convention : Reuss Voigt Hill
#
# Bulk Modulus (GPa) = 44.64079 52.06922 48.35501
# Shear Modulus (GPa) = 29.78083 10.29704 20.03893
#
# Velocity S-wave (km/s) = 4.25483 2.50190 3.49021
# Velocity P-wave (km/s) = 7.16066 6.32444 6.75550
#
# Compressibility (1/GPa) = 0.02240104
#
# Stress axis : x y z
#
# Youngs Moduli (GPa) = 62.88454 37.18275 73.95086
#
# Poissons Ratio (x) = 0.36087 0.37842
# Poissons Ratio (y) = 0.61032 0.15798
# Poissons Ratio (z) = 0.32179 0.07943
#
# Static dielectric constant tensor:
#      x y z
#    x 2.990530 0.000000 0.000000 
#    y 0.000000 2.958950 0.000000 
#    z 0.000000 0.000000 3.472080 
# 
# 
# High freq. dielectric constant tensor:
#      x y z
#    x 1.609300 0.000000 0.000000 
#    y 0.000000 1.583490 0.000000 
#    z 0.000000 0.000000 1.657530 
# 
# From -- ./inp_files/8469.got.cif
#   From: 2010.03.12/outbox.cif.g09.slc.cpg/sg63_5_cif.got.tgz:8469.got - 2010.04.10 19:34:48.
