data_PCOD8258128
_publ_section_title
;
Structure prediction by ZEFSAII (Michael W. Deem and Ramdas Pophale) SiO2 
 PCOD8258128
Probable space group: C M C M
;
_chemical_formula_sum "Si O2"
_cell_formula_units_Z 96
_cell_length_a 20.076541
_cell_length_b 18.257253
_cell_length_c 14.050948
_cell_angle_alpha 90.000000
_cell_angle_beta 90.000000
_cell_angle_gamma 90.000000
_cell_volume 5150.269444
_symmetry_space_group_name_H-M "C M C M"
_symmetry_group_IT_number 63
_symmetry_cell_setting 'orthorhombic'
loop_
_space_group_symop_operation_xyz
x,y,z
-x,-y,1/2+z
x,-y,-z
-x,y,1/2-z
-x,-y,-z
x,y,1/2-z
-x,y,z
x,-y,1/2+z
1/2+x,1/2+y,z
1/2-x,1/2-y,1/2+z
1/2+x,1/2-y,-z
1/2-x,1/2+y,1/2-z
1/2-x,1/2-y,-z
1/2+x,1/2+y,1/2-z
1/2-x,1/2+y,z
1/2+x,1/2-y,1/2+z
loop_
_atom_site_type_symbol
_atom_site_label
_atom_site_fract_x
_atom_site_fract_y
_atom_site_fract_z
Si Si1 0.923469 0.649119 0.859719
Si Si2 0.311122 0.647638 0.860186
Si Si3 0.576464 0.582877 0.983636
Si Si4 0.723741 0.187575 0.358964
Si Si5 0.878375 0.809775 0.639462
Si Si6 0.810414 0.584052 0.522466
O O1 0.902735 0.638701 0.750000
O O2 0.910753 0.732821 0.890026
O O3 0.880022 0.594569 0.923306
O O4 0.000000 0.628762 0.877047
O O5 0.305230 0.627185 0.750000
O O6 0.380682 0.618111 0.899550
O O7 0.310413 0.734484 0.876459
O O8 0.249371 0.610899 0.912120
O O9 0.500000 0.585716 0.950957
O O10 0.600387 0.500000 0.000000
O O11 0.585858 0.626014 0.082142
O O12 0.716169 0.162306 0.250000
O O13 0.800937 0.193401 0.388138
O O14 0.687141 0.128035 0.423506
O O15 0.889741 0.826822 0.750000
O O16 0.799129 0.500000 0.500000
#
# Coordination Sequence:
#
# PCOD8258128 Si02
#       6
#    16  16  16  16  16  16
#     4  10  21  38  61  88 114 146 192 240 282 332
#     4  11  22  39  61  83 111 153 198 239 284 336
#     4  11  24  39  54  83 122 157 193 236 286 342
#     4  10  21  37  60  87 117 148 191 243 286 332
#     4  10  19  36  61  87 113 148 195 243 286 329
#     4  12  23  37  60  88 120 150 186 230 290 344
#
# _framework density 18.639800999999999
#
# number of rings (size 3 to 8) (size 9 to 14) (size 15 to 20)
#    0.000    1.333    3.333    3.000    0.000    3.667 
#    0.000    1.667    0.000    1.500    0.000    0.000 
#    0.000    0.000    0.000    0.000    0.000    0.000 
#
# Total GULP energy -595506.282318 kJ/mol
# GULP energy per Si atom -12406.380882 kJ/mol
# Density = 1.859738 g / cm^3
# Si number density = 18.639801 Si / 1000 Ang^3
#
#
#
# Elastic Constant Matrix: (Units=GPa)
#
#
# Indices 1 2 3 4 5 6 
#
# 1 89.1674 31.3456 45.7563 0.0000 0.0000 0.0000
# 2 31.3456 91.8775 58.2384 0.0000 0.0000 0.0000
# 3 45.7563 58.2384 105.0201 0.0000 0.0000 0.0000
# 4 0.0000 0.0000 0.0000 9.3610 0.0000 0.0000
# 5 0.0000 0.0000 0.0000 0.0000 22.7041 0.0000
# 6 0.0000 0.0000 0.0000 0.0000 0.0000 20.6333
#
#
#
# Elastic Compliance Matrix: (Units=1/GPa)
#
#
# Indices 1 2 3 4 5 6 
#
# 1 0.014570 -0.001460 -0.005538 0.000000 0.000000 0.000000
# 2 -0.001460 0.016930 -0.008752 0.000000 0.000000 0.000000
# 3 -0.005538 -0.008752 0.016788 0.000000 0.000000 0.000000
# 4 0.000000 0.000000 0.000000 0.106826 0.000000 0.000000
# 5 0.000000 0.000000 0.000000 0.000000 0.044045 0.000000
# 6 0.000000 0.000000 0.000000 0.000000 0.000000 0.048465
#
#
# Mechanical properties :
#
#
# Convention : Reuss Voigt Hill
#
# Bulk Modulus (GPa) = 59.56973 61.86061 60.71517
# Shear Modulus (GPa) = 17.56098 20.58799 19.07448
#
# Velocity S-wave (km/s) = 3.07273 3.32703 3.20241
# Velocity P-wave (km/s) = 6.67957 6.92952 6.80569
#
# Compressibility (1/GPa) = 0.01678705
#
# Stress axis : x y z
#
# Youngs Moduli (GPa) = 68.63332 59.06650 59.56465
#
# Poissons Ratio (x) = 0.08626 0.32989
# Poissons Ratio (y) = 0.10023 0.52132
# Poissons Ratio (z) = 0.38011 0.51696
#
# Static dielectric constant tensor:
#      x y z
#    x 3.433740 0.000000 0.000000 
#    y 0.000000 3.391610 0.000000 
#    z 0.000000 0.000000 3.611950 
# 
# 
# High freq. dielectric constant tensor:
#      x y z
#    x 1.722640 0.000000 0.000000 
#    y 0.000000 1.720240 0.000000 
#    z 0.000000 0.000000 1.732080 
# 
# From -- ./inp_files/35328.got.cif
#   From: 2010.03.12/outbox.cif.g09.slc.cpg/sg63_18_cif.got.tgz:35328.got - 2010.04.10 19:34:48.
