data_PCOD8258892
_publ_section_title
;
Structure prediction by ZEFSAII (Michael W. Deem and Ramdas Pophale) SiO2 
 PCOD8258892
Probable space group: C M C M
;
_chemical_formula_sum "Si O2"
_cell_formula_units_Z 96
_cell_length_a 16.747831
_cell_length_b 30.359032
_cell_length_c 9.082528
_cell_angle_alpha 90.000000
_cell_angle_beta 90.000000
_cell_angle_gamma 90.000000
_cell_volume 4617.992627
_symmetry_space_group_name_H-M "C M C M"
_symmetry_group_IT_number 63
_symmetry_cell_setting 'orthorhombic'
loop_
_space_group_symop_operation_xyz
x,y,z
-x,-y,1/2+z
x,-y,-z
-x,y,1/2-z
-x,-y,-z
x,y,1/2-z
-x,y,z
x,-y,1/2+z
1/2+x,1/2+y,z
1/2-x,1/2-y,1/2+z
1/2+x,1/2-y,-z
1/2-x,1/2+y,1/2-z
1/2-x,1/2-y,-z
1/2+x,1/2+y,1/2-z
1/2-x,1/2+y,z
1/2+x,1/2-y,1/2+z
loop_
_atom_site_type_symbol
_atom_site_label
_atom_site_fract_x
_atom_site_fract_y
_atom_site_fract_z
Si Si1 0.591559 0.705522 0.912026
Si Si2 0.825235 0.274799 0.075263
Si Si3 0.155708 0.455517 0.420874
Si Si4 0.093382 0.875352 0.586911
Si Si5 0.589966 0.137180 0.575264
Si Si6 0.842019 0.956427 0.079252
O O1 0.632777 0.710660 0.750000
O O2 0.500000 0.694626 0.886947
O O3 0.598631 0.748724 0.012545
O O4 0.633842 0.665200 0.998504
O O5 0.818372 0.270332 0.250000
O O6 0.844449 0.325558 0.027613
O O7 0.750000 0.250000 0.000000
O O8 0.124197 0.500000 0.500000
O O9 0.135845 0.461597 0.250000
O O10 0.114299 0.411289 0.485488
O O11 0.248996 0.448748 0.449768
O O12 0.132147 0.879114 0.750000
O O13 0.107117 0.918205 0.491990
O O14 0.000000 0.866651 0.603913
O O15 0.589987 0.135336 0.750000
O O16 0.500000 0.148288 0.518252
O O17 0.862763 0.959514 0.250000
O O18 0.872458 0.000000 0.000000
#
# Coordination Sequence:
#
# PCOD8258892 Si02
#       6
#    16  16  16  16  16  16
#     4  10  21  38  59  82 113 152 192 238 291 349
#     4  11  23  38  59  88 119 156 199 245 295 351
#     4   9  19  36  58  86 116 151 192 238 290 349
#     4  10  21  36  55  81 111 146 192 242 293 353
#     4   9  19  37  61  87 118 156 195 237 291 355
#     4  10  20  34  54  78 110 150 191 241 296 353
#
# _framework density 20.788253000000001
#
# number of rings (size 3 to 8) (size 9 to 14) (size 15 to 20)
#    0.000    2.167    0.000    2.500    2.333    4.000 
#    0.000    1.667    0.000    2.000    0.000    0.000 
#    0.000    0.000    0.000    0.000    0.000    0.000 
#
# Total GULP energy -594861.683759 kJ/mol
# GULP energy per Si atom -12392.951745 kJ/mol
# Density = 2.074094 g / cm^3
# Si number density = 20.788253 Si / 1000 Ang^3
#
#
#
# Elastic Constant Matrix: (Units=GPa)
#
#
# Indices 1 2 3 4 5 6 
#
# 1 44.5771 38.3782 27.5733 0.0000 0.0000 0.0000
# 2 38.3782 186.2766 64.3395 0.0000 0.0000 0.0000
# 3 27.5733 64.3395 115.5418 0.0000 0.0000 0.0000
# 4 0.0000 0.0000 0.0000 37.1827 0.0000 0.0000
# 5 0.0000 0.0000 0.0000 0.0000 22.8055 0.0000
# 6 0.0000 0.0000 0.0000 0.0000 0.0000 38.8222
#
#
#
# Elastic Compliance Matrix: (Units=1/GPa)
#
#
# Indices 1 2 3 4 5 6 
#
# 1 0.029008 -0.004439 -0.004451 0.000000 0.000000 0.000000
# 2 -0.004439 0.007326 -0.003020 0.000000 0.000000 0.000000
# 3 -0.004451 -0.003020 0.011399 0.000000 0.000000 0.000000
# 4 0.000000 0.000000 0.000000 0.026894 0.000000 0.000000
# 5 0.000000 0.000000 0.000000 0.000000 0.043849 0.000000
# 6 0.000000 0.000000 0.000000 0.000000 0.000000 0.025758
#
#
# Mechanical properties :
#
#
# Convention : Reuss Voigt Hill
#
# Bulk Modulus (GPa) = 41.81853 67.44196 54.63024
# Shear Modulus (GPa) = 28.40502 34.16906 31.28704
#
# Velocity S-wave (km/s) = 3.70049 4.05862 3.88369
# Velocity P-wave (km/s) = 6.19825 7.38078 6.81521
#
# Compressibility (1/GPa) = 0.02391284
#
# Stress axis : x y z
#
# Youngs Moduli (GPa) = 34.47342 136.49792 87.72885
#
# Poissons Ratio (x) = 0.60594 0.39044
# Poissons Ratio (y) = 0.15303 0.26496
# Poissons Ratio (z) = 0.15343 0.41225
#
# Static dielectric constant tensor:
#      x y z
#    x 3.602360 0.000000 0.000000 
#    y 0.000000 3.754140 0.000000 
#    z 0.000000 0.000000 3.982720 
# 
# 
# High freq. dielectric constant tensor:
#      x y z
#    x 1.796180 0.000000 0.000000 
#    y 0.000000 1.828410 0.000000 
#    z 0.000000 0.000000 1.805800 
# 
# From -- ./inp_files/8637.got.cif
#   From: 2010.03.12/outbox.cif.g09.slc.cpg/sg63_5_cif.got.tgz:8637.got - 2010.04.10 19:34:48.
