data_PCOD8258765
_publ_section_title
;
Structure prediction by ZEFSAII (Michael W. Deem and Ramdas Pophale) SiO2 
 PCOD8258765
Probable space group: C M C M
;
_chemical_formula_sum "Si O2"
_cell_formula_units_Z 80
_cell_length_a 27.021308
_cell_length_b 18.482288
_cell_length_c 8.824393
_cell_angle_alpha 90.000000
_cell_angle_beta 90.000000
_cell_angle_gamma 90.000000
_cell_volume 4407.039495
_symmetry_space_group_name_H-M "C M C M"
_symmetry_group_IT_number 63
_symmetry_cell_setting 'orthorhombic'
loop_
_space_group_symop_operation_xyz
x,y,z
-x,-y,1/2+z
x,-y,-z
-x,y,1/2-z
-x,-y,-z
x,y,1/2-z
-x,y,z
x,-y,1/2+z
1/2+x,1/2+y,z
1/2-x,1/2-y,1/2+z
1/2+x,1/2-y,-z
1/2-x,1/2+y,1/2-z
1/2-x,1/2-y,-z
1/2+x,1/2+y,1/2-z
1/2-x,1/2+y,z
1/2+x,1/2-y,1/2+z
loop_
_atom_site_type_symbol
_atom_site_label
_atom_site_fract_x
_atom_site_fract_y
_atom_site_fract_z
Si Si1 0.942075 0.075512 0.075089
Si Si2 0.800441 0.277104 0.070851
Si Si3 0.651726 0.925299 0.426564
Si Si4 0.055455 0.655041 0.926386
Si Si5 0.896028 0.213056 0.928873
O O1 0.925404 0.076380 0.250000
O O2 0.000000 0.090880 0.059883
O O3 0.913127 0.134681 0.979772
O O4 0.927438 0.000000 0.000000
O O5 0.798447 0.268339 0.250000
O O6 0.811081 0.360786 0.025232
O O7 0.750000 0.250000 0.000000
O O8 0.843724 0.227359 0.007078
O O9 0.653570 0.938190 0.250000
O O10 0.595578 0.904909 0.477853
O O11 0.669102 0.000000 0.500000
O O12 0.063613 0.674288 0.750000
O O13 0.000000 0.625543 0.957124
O O14 0.063285 0.728353 0.019820
O O15 0.889629 0.215905 0.750000
#
# Coordination Sequence:
#
# PCOD8258765 Si02
#       5
#    16  16  16  16  16
#     4  10  20  34  52  75 106 143 179 218 266 317
#     4  10  21  39  60  81 104 133 173 219 267 316
#     4   9  19  34  53  78 108 139 171 210 257 309
#     4   9  18  33  51  73 105 144 181 217 258 302
#     4  11  21  33  52  78 106 137 176 219 263 315
#
# _framework density 18.152774999999998
#
# number of rings (size 3 to 8) (size 9 to 14) (size 15 to 20)
#    0.000    2.200    0.000    4.800    0.000    8.400 
#    0.000    1.000    0.000    2.400    0.000    0.000 
#    0.000    0.000    0.000    0.000    0.000    0.000 
#
# Total GULP energy -496024.656737 kJ/mol
# GULP energy per Si atom -12400.616418 kJ/mol
# Density = 1.811146 g / cm^3
# Si number density = 18.152775 Si / 1000 Ang^3
#
#
#
# Elastic Constant Matrix: (Units=GPa)
#
#
# Indices 1 2 3 4 5 6 
#
# 1 100.4340 55.4139 41.6585 0.0000 0.0000 0.0000
# 2 55.4139 133.0209 47.9649 0.0000 0.0000 0.0000
# 3 41.6585 47.9649 82.5606 0.0000 0.0000 0.0000
# 4 0.0000 0.0000 0.0000 34.6167 0.0000 0.0000
# 5 0.0000 0.0000 0.0000 0.0000 29.3372 0.0000
# 6 0.0000 0.0000 0.0000 0.0000 0.0000 -4.0193
#
#
#
# Elastic Compliance Matrix: (Units=1/GPa)
#
#
# Indices 1 2 3 4 5 6 
#
# 1 0.014255 -0.004231 -0.004735 0.000000 0.000000 0.000000
# 2 -0.004231 0.010766 -0.004120 0.000000 0.000000 0.000000
# 3 -0.004735 -0.004120 0.016895 0.000000 0.000000 0.000000
# 4 0.000000 0.000000 0.000000 0.028888 0.000000 0.000000
# 5 0.000000 0.000000 0.000000 0.000000 0.034086 0.000000
# 6 0.000000 0.000000 0.000000 0.000000 0.000000 -0.248799
#
#
# Mechanical properties :
#
#
# Convention : Reuss Voigt Hill
#
# Bulk Modulus (GPa) = 63.51350 67.34336 65.42843
# Shear Modulus (GPa) = -44.44844 23.38547 -10.53149
#
# Velocity S-wave (km/s) = -4.95368 3.59313 -2.41126
# Velocity P-wave (km/s) = 1.53157 7.37514 5.32628
#
# Compressibility (1/GPa) = 0.01574468
#
# Stress axis : x y z
#
# Youngs Moduli (GPa) = 70.14976 92.88787 59.19027
#
# Poissons Ratio (x) = 0.39303 0.28025
# Poissons Ratio (y) = 0.29682 0.24383
# Poissons Ratio (z) = 0.33214 0.38265
#
# Static dielectric constant tensor:
#      x y z
#    x 3.331600 0.000000 0.000000 
#    y 0.000000 3.390330 0.000000 
#    z 0.000000 0.000000 3.420950 
# 
# 
# High freq. dielectric constant tensor:
#      x y z
#    x 1.692880 0.000000 0.000000 
#    y 0.000000 1.702660 0.000000 
#    z 0.000000 0.000000 1.711080 
# 
# From -- ./inp_files/11979.got.cif
#   From: 2010.03.12/outbox.cif.g09.slc.cpg/sg63_6_cif.got.tgz:11979.got - 2010.04.10 19:34:48.
