data_PCOD8258534
_publ_section_title
;
Structure prediction by ZEFSAII (Michael W. Deem and Ramdas Pophale) SiO2 
 PCOD8258534
Probable space group: C M C M
;
_chemical_formula_sum "Si O2"
_cell_formula_units_Z 96
_cell_length_a 18.749247
_cell_length_b 21.223463
_cell_length_c 13.100359
_cell_angle_alpha 90.000000
_cell_angle_beta 90.000000
_cell_angle_gamma 90.000000
_cell_volume 5212.946599
_symmetry_space_group_name_H-M "C M C M"
_symmetry_group_IT_number 63
_symmetry_cell_setting 'orthorhombic'
loop_
_space_group_symop_operation_xyz
x,y,z
-x,-y,1/2+z
x,-y,-z
-x,y,1/2-z
-x,-y,-z
x,y,1/2-z
-x,y,z
x,-y,1/2+z
1/2+x,1/2+y,z
1/2-x,1/2-y,1/2+z
1/2+x,1/2-y,-z
1/2-x,1/2+y,1/2-z
1/2-x,1/2-y,-z
1/2+x,1/2+y,1/2-z
1/2-x,1/2+y,z
1/2+x,1/2-y,1/2+z
loop_
_atom_site_type_symbol
_atom_site_label
_atom_site_fract_x
_atom_site_fract_y
_atom_site_fract_z
Si Si1 0.693470 0.929643 0.525287
Si Si2 0.306383 0.599885 0.631022
Si Si3 0.581381 0.651027 0.137173
Si Si4 0.082550 0.205000 0.569227
Si Si5 0.582403 0.156090 0.367403
Si Si6 0.828704 0.037665 0.367196
O O1 0.732582 0.891719 0.432065
O O2 0.626029 0.889341 0.559079
O O3 0.748745 0.936504 0.618561
O O4 0.665787 0.000000 0.500000
O O5 0.286063 0.593604 0.750000
O O6 0.364653 0.654186 0.618729
O O7 0.337215 0.532915 0.585889
O O8 0.612538 0.670045 0.250000
O O9 0.500000 0.632764 0.150147
O O10 0.618351 0.589798 0.085992
O O11 0.591732 0.706738 0.054433
O O12 0.105757 0.272042 0.613149
O O13 0.000000 0.189075 0.598382
O O14 0.597151 0.139022 0.250000
O O15 0.500000 0.147241 0.396107
O O16 0.848858 0.032803 0.250000
#
# Coordination Sequence:
#
# PCOD8258534 Si02
#       6
#    16  16  16  16  16  16
#     4  10  20  36  58  80 105 136 174 219 278 324
#     4  10  20  33  50  78 115 146 181 225 265 315
#     4   9  17  30  49  75 109 148 190 228 260 305
#     4  10  20  35  54  77 111 150 185 222 265 311
#     4  10  22  40  61  83 106 136 177 222 270 329
#     4   9  17  31  51  76 107 144 183 222 268 316
#
# _framework density 18.415689
#
# number of rings (size 3 to 8) (size 9 to 14) (size 15 to 20)
#    0.000    2.333    1.667    1.000    0.000    3.333 
#    0.000    4.167    0.000    1.500    0.000    0.000 
#    0.000    0.000    0.000    0.000    0.000    0.000 
#
# Total GULP energy -594846.945117 kJ/mol
# GULP energy per Si atom -12392.644690 kJ/mol
# Density = 1.837377 g / cm^3
# Si number density = 18.415689 Si / 1000 Ang^3
#
#
#
# Elastic Constant Matrix: (Units=GPa)
#
#
# Indices 1 2 3 4 5 6 
#
# 1 75.9216 59.3125 34.5154 0.0000 0.0000 0.0000
# 2 59.3125 91.2239 35.7884 0.0000 0.0000 0.0000
# 3 34.5154 35.7884 64.0373 0.0000 0.0000 0.0000
# 4 0.0000 0.0000 0.0000 27.4413 0.0000 0.0000
# 5 0.0000 0.0000 0.0000 0.0000 28.6281 0.0000
# 6 0.0000 0.0000 0.0000 0.0000 0.0000 33.2162
#
#
#
# Elastic Compliance Matrix: (Units=1/GPa)
#
#
# Indices 1 2 3 4 5 6 
#
# 1 0.028713 -0.016135 -0.006459 0.000000 0.000000 0.000000
# 2 -0.016135 0.023107 -0.004217 0.000000 0.000000 0.000000
# 3 -0.006459 -0.004217 0.021454 0.000000 0.000000 0.000000
# 4 0.000000 0.000000 0.000000 0.036441 0.000000 0.000000
# 5 0.000000 0.000000 0.000000 0.000000 0.034931 0.000000
# 6 0.000000 0.000000 0.000000 0.000000 0.000000 0.030106
#
#
# Mechanical properties :
#
#
# Convention : Reuss Voigt Hill
#
# Bulk Modulus (GPa) = 50.88467 54.49061 52.68764
# Shear Modulus (GPa) = 21.28344 24.62822 22.95583
#
# Velocity S-wave (km/s) = 3.40328 3.66095 3.53446
# Velocity P-wave (km/s) = 6.56767 6.89373 6.73267
#
# Compressibility (1/GPa) = 0.01965228
#
# Stress axis : x y z
#
# Youngs Moduli (GPa) = 34.82769 43.27656 46.61131
#
# Poissons Ratio (x) = 0.69826 0.30105
# Poissons Ratio (y) = 0.56194 0.19658
# Poissons Ratio (z) = 0.22494 0.18251
#
# Static dielectric constant tensor:
#      x y z
#    x 3.173760 0.000000 0.000000 
#    y 0.000000 3.311930 0.000000 
#    z 0.000000 0.000000 3.768640 
# 
# 
# High freq. dielectric constant tensor:
#      x y z
#    x 1.692620 0.000000 0.000000 
#    y 0.000000 1.700050 0.000000 
#    z 0.000000 0.000000 1.733410 
# 
# From -- ./inp_files/31904.got.cif
#   From: 2010.03.12/outbox.cif.g09.slc.cpg/sg63_16_cif.got.tgz:31904.got - 2010.04.10 19:34:48.
