data_PCOD8258990
_publ_section_title
;
Structure prediction by ZEFSAII (Michael W. Deem and Ramdas Pophale) SiO2 
 PCOD8258990
Probable space group: C M C M
;
_chemical_formula_sum "Si O2"
_cell_formula_units_Z 96
_cell_length_a 8.704509
_cell_length_b 25.266529
_cell_length_c 23.176727
_cell_angle_alpha 90.000000
_cell_angle_beta 90.000000
_cell_angle_gamma 90.000000
_cell_volume 5097.320820
_symmetry_space_group_name_H-M "C M C M"
_symmetry_group_IT_number 63
_symmetry_cell_setting 'orthorhombic'
loop_
_space_group_symop_operation_xyz
x,y,z
-x,-y,1/2+z
x,-y,-z
-x,y,1/2-z
-x,-y,-z
x,y,1/2-z
-x,y,z
x,-y,1/2+z
1/2+x,1/2+y,z
1/2-x,1/2-y,1/2+z
1/2+x,1/2-y,-z
1/2-x,1/2+y,1/2-z
1/2-x,1/2-y,-z
1/2+x,1/2+y,1/2-z
1/2-x,1/2+y,z
1/2+x,1/2-y,1/2+z
loop_
_atom_site_type_symbol
_atom_site_label
_atom_site_fract_x
_atom_site_fract_y
_atom_site_fract_z
Si Si1 0.178908 0.651965 0.620127
Si Si2 0.178714 0.056285 0.683378
Si Si3 0.178077 0.554186 0.316217
Si Si4 0.181309 0.345763 0.890093
Si Si5 0.322569 0.745389 0.683816
Si Si6 0.680475 0.308148 0.496129
O O1 0.221409 0.594259 0.643323
O O2 0.220733 0.694650 0.668924
O O3 0.273342 0.663417 0.562603
O O4 0.000000 0.654462 0.605752
O O5 0.220738 0.067258 0.750000
O O6 0.000000 0.066277 0.671603
O O7 0.220917 0.996391 0.666818
O O8 0.205389 0.570959 0.250000
O O9 0.234954 0.602148 0.356127
O O10 0.000000 0.540735 0.326949
O O11 0.233850 0.294547 0.854197
O O12 0.000000 0.345609 0.899065
O O13 0.262852 0.345051 0.951789
O O14 0.297340 0.760898 0.750000
O O15 0.500000 0.731594 0.671238
O O16 0.500000 0.301820 0.498714
O O17 0.750000 0.250000 0.500000
#
# Coordination Sequence:
#
# PCOD8258990 Si02
#       6
#    16  16  16  16  16  16
#     4  12  24  38  58  84 114 151 195 243 291 343
#     4  10  21  38  60  86 118 156 194 237 291 345
#     4   9  18  35  60  89 120 155 193 233 282 342
#     4  10  20  36  59  86 118 154 193 235 284 344
#     4  10  20  34  55  84 118 153 187 230 286 347
#     4  12  24  40  60  83 114 154 196 240 289 346
#
# _framework density 18.833423
#
# number of rings (size 3 to 8) (size 9 to 14) (size 15 to 20)
#    0.000    1.500    1.667    4.500    0.000    6.000 
#    0.000    0.833    0.000    8.000    0.000    0.000 
#    0.000    0.000    0.000    0.000    0.000    0.000 
#
# Total GULP energy -595483.455012 kJ/mol
# GULP energy per Si atom -12405.905313 kJ/mol
# Density = 1.879056 g / cm^3
# Si number density = 18.833423 Si / 1000 Ang^3
#
#
#
# Elastic Constant Matrix: (Units=GPa)
#
#
# Indices 1 2 3 4 5 6 
#
# 1 57.7505 32.7753 20.4165 0.0000 0.0000 0.0000
# 2 32.7753 109.0303 48.2698 0.0000 0.0000 0.0000
# 3 20.4165 48.2698 94.1720 0.0000 0.0000 0.0000
# 4 0.0000 0.0000 0.0000 29.2400 0.0000 0.0000
# 5 0.0000 0.0000 0.0000 0.0000 30.9134 0.0000
# 6 0.0000 0.0000 0.0000 0.0000 0.0000 30.9997
#
#
#
# Elastic Compliance Matrix: (Units=1/GPa)
#
#
# Indices 1 2 3 4 5 6 
#
# 1 0.021089 -0.005582 -0.001711 0.000000 0.000000 0.000000
# 2 -0.005582 0.013341 -0.005628 0.000000 0.000000 0.000000
# 3 -0.001711 -0.005628 0.013875 0.000000 0.000000 0.000000
# 4 0.000000 0.000000 0.000000 0.034200 0.000000 0.000000
# 5 0.000000 0.000000 0.000000 0.000000 0.032348 0.000000
# 6 0.000000 0.000000 0.000000 0.000000 0.000000 0.032258
#
#
# Mechanical properties :
#
#
# Convention : Reuss Voigt Hill
#
# Bulk Modulus (GPa) = 44.51850 51.54179 48.03014
# Shear Modulus (GPa) = 27.70988 28.86338 28.28663
#
# Velocity S-wave (km/s) = 3.83993 3.91904 3.87969
# Velocity P-wave (km/s) = 6.58403 6.92135 6.75480
#
# Compressibility (1/GPa) = 0.02246257
#
# Stress axis : x y z
#
# Youngs Moduli (GPa) = 47.41888 74.95416 72.07382
#
# Poissons Ratio (x) = 0.41839 0.12331
# Poissons Ratio (y) = 0.26469 0.40565
# Poissons Ratio (z) = 0.08113 0.42186
#
# Static dielectric constant tensor:
#      x y z
#    x 3.453300 0.000000 0.000000 
#    y 0.000000 3.467270 0.000000 
#    z 0.000000 0.000000 3.632460 
# 
# 
# High freq. dielectric constant tensor:
#      x y z
#    x 1.731200 0.000000 0.000000 
#    y 0.000000 1.732340 0.000000 
#    z 0.000000 0.000000 1.734050 
# 
# From -- ./inp_files/59913.got.cif
#   From: 2010.03.12/outbox.cif.g09.slc.cpg/sg63_30_cif.got.tgz:59913.got - 2010.04.10 19:34:48.
