data_PCOD8258772
_publ_section_title
;
Structure prediction by ZEFSAII (Michael W. Deem and Ramdas Pophale) SiO2 
 PCOD8258772
Probable space group: C M C M
;
_chemical_formula_sum "Si O2"
_cell_formula_units_Z 80
_cell_length_a 25.362913
_cell_length_b 18.281440
_cell_length_c 9.108518
_cell_angle_alpha 90.000000
_cell_angle_beta 90.000000
_cell_angle_gamma 90.000000
_cell_volume 4223.351753
_symmetry_space_group_name_H-M "C M C M"
_symmetry_group_IT_number 63
_symmetry_cell_setting 'orthorhombic'
loop_
_space_group_symop_operation_xyz
x,y,z
-x,-y,1/2+z
x,-y,-z
-x,y,1/2-z
-x,-y,-z
x,y,1/2-z
-x,y,z
x,-y,1/2+z
1/2+x,1/2+y,z
1/2-x,1/2-y,1/2+z
1/2+x,1/2-y,-z
1/2-x,1/2+y,1/2-z
1/2-x,1/2-y,-z
1/2+x,1/2+y,1/2-z
1/2-x,1/2+y,z
1/2+x,1/2-y,1/2+z
loop_
_atom_site_type_symbol
_atom_site_label
_atom_site_fract_x
_atom_site_fract_y
_atom_site_fract_z
Si Si1 0.561216 0.658664 0.081398
Si Si2 0.346879 0.922328 0.424215
Si Si3 0.941884 0.323093 0.075559
Si Si4 0.149165 0.074816 0.922333
Si Si5 0.752146 0.173172 0.578745
O O1 0.579605 0.650549 0.250000
O O2 0.500000 0.638690 0.065810
O O3 0.571846 0.740980 0.022989
O O4 0.593201 0.602592 0.981251
O O5 0.348344 0.932943 0.250000
O O6 0.398503 0.879590 0.483453
O O7 0.295847 0.877377 0.475363
O O8 0.345344 0.000000 0.500000
O O9 0.942644 0.322186 0.250000
O O10 0.000000 0.346259 0.016699
O O11 0.145122 0.060522 0.750000
O O12 0.193338 0.134231 0.962025
O O13 0.165579 0.000000 0.000000
O O14 0.746775 0.188235 0.750000
O O15 0.750000 0.250000 0.500000
#
# Coordination Sequence:
#
# PCOD8258772 Si02
#       5
#    16  16  16  16  16
#     4   9  18  35  59  82 104 137 180 222 267 318
#     4  10  20  34  52  76 107 139 172 212 257 307
#     4   8  15  30  53  78 103 135 175 215 257 308
#     4  11  23  37  54  79 110 142 177 218 267 321
#     4  10  22  38  57  80 104 136 178 221 266 316
#
# _framework density 18.942301
#
# number of rings (size 3 to 8) (size 9 to 14) (size 15 to 20)
#    0.000    2.400    0.000    3.600    0.000    5.200 
#    0.000    1.000    0.000    1.200    0.000    0.000 
#    0.000    0.000    0.000    0.000    0.000    0.000 
#
# Total GULP energy -496061.714917 kJ/mol
# GULP energy per Si atom -12401.542873 kJ/mol
# Density = 1.889919 g / cm^3
# Si number density = 18.942301 Si / 1000 Ang^3
#
#
#
# Elastic Constant Matrix: (Units=GPa)
#
#
# Indices 1 2 3 4 5 6 
#
# 1 109.5374 59.2756 45.6937 0.0000 0.0000 0.0000
# 2 59.2756 133.8090 57.4981 0.0000 0.0000 0.0000
# 3 45.6937 57.4981 58.8826 0.0000 0.0000 0.0000
# 4 0.0000 0.0000 0.0000 35.3646 0.0000 0.0000
# 5 0.0000 0.0000 0.0000 0.0000 22.2272 0.0000
# 6 0.0000 0.0000 0.0000 0.0000 0.0000 25.4202
#
#
#
# Elastic Compliance Matrix: (Units=1/GPa)
#
#
# Indices 1 2 3 4 5 6 
#
# 1 0.014023 -0.002646 -0.008298 0.000000 0.000000 0.000000
# 2 -0.002646 0.013376 -0.011007 0.000000 0.000000 0.000000
# 3 -0.008298 -0.011007 0.034171 0.000000 0.000000 0.000000
# 4 0.000000 0.000000 0.000000 0.028277 0.000000 0.000000
# 5 0.000000 0.000000 0.000000 0.000000 0.044990 0.000000
# 6 0.000000 0.000000 0.000000 0.000000 0.000000 0.039339
#
#
# Mechanical properties :
#
#
# Convention : Reuss Voigt Hill
#
# Bulk Modulus (GPa) = 56.60598 69.68485 63.14542
# Shear Modulus (GPa) = 22.32478 25.91984 24.12231
#
# Velocity S-wave (km/s) = 3.43675 3.70314 3.57243
# Velocity P-wave (km/s) = 6.75993 7.42645 7.10101
#
# Compressibility (1/GPa) = 0.01766598
#
# Stress axis : x y z
#
# Youngs Moduli (GPa) = 71.31260 74.76321 29.26484
#
# Poissons Ratio (x) = 0.19785 0.24283
# Poissons Ratio (y) = 0.18872 0.32213
# Poissons Ratio (z) = 0.59173 0.82295
#
# Static dielectric constant tensor:
#      x y z
#    x 3.854800 0.000000 0.000000 
#    y 0.000000 3.462930 0.000000 
#    z 0.000000 0.000000 3.224340 
# 
# 
# High freq. dielectric constant tensor:
#      x y z
#    x 1.752010 0.000000 0.000000 
#    y 0.000000 1.742090 0.000000 
#    z 0.000000 0.000000 1.709120 
# 
# From -- ./inp_files/12027.got.cif
#   From: 2010.03.12/outbox.cif.g09.slc.cpg/sg63_7_cif.got.tgz:12027.got - 2010.04.10 19:34:48.
