data_PCOD8258215
_publ_section_title
;
Structure prediction by ZEFSAII (Michael W. Deem and Ramdas Pophale) SiO2 
 PCOD8258215
Probable space group: C M C M
;
_chemical_formula_sum "Si O2"
_cell_formula_units_Z 96
_cell_length_a 23.653017
_cell_length_b 14.043179
_cell_length_c 18.161710
_cell_angle_alpha 90.000000
_cell_angle_beta 90.000000
_cell_angle_gamma 90.000000
_cell_volume 6032.658097
_symmetry_space_group_name_H-M "C M C M"
_symmetry_group_IT_number 63
_symmetry_cell_setting 'orthorhombic'
loop_
_space_group_symop_operation_xyz
x,y,z
-x,-y,1/2+z
x,-y,-z
-x,y,1/2-z
-x,-y,-z
x,y,1/2-z
-x,y,z
x,-y,1/2+z
1/2+x,1/2+y,z
1/2-x,1/2-y,1/2+z
1/2+x,1/2-y,-z
1/2-x,1/2+y,1/2-z
1/2-x,1/2-y,-z
1/2+x,1/2+y,1/2-z
1/2-x,1/2+y,z
1/2+x,1/2-y,1/2+z
loop_
_atom_site_type_symbol
_atom_site_label
_atom_site_fract_x
_atom_site_fract_y
_atom_site_fract_z
Si Si1 0.773904 0.296427 0.337280
Si Si2 0.565057 0.494223 0.585931
Si Si3 0.660151 0.385685 0.836577
Si Si4 0.436143 0.309989 0.336282
Si Si5 0.665828 0.812883 0.662537
Si Si6 0.727221 0.993479 0.662605
O O1 0.770179 0.303353 0.250000
O O2 0.823529 0.222740 0.359046
O O3 0.713923 0.258538 0.367893
O O4 0.784850 0.401685 0.371155
O O5 0.577219 0.500000 0.500000
O O6 0.500000 0.468195 0.602504
O O7 0.603259 0.411484 0.620415
O O8 0.581470 0.594579 0.621992
O O9 0.648555 0.393845 0.750000
O O10 0.710736 0.456465 0.860679
O O11 0.428333 0.330443 0.250000
O O12 0.500000 0.279022 0.355327
O O13 0.395521 0.224235 0.363459
O O14 0.669302 0.814641 0.750000
O O15 0.679171 0.919786 0.633101
O O16 0.724488 0.997560 0.750000
#
# Coordination Sequence:
#
# PCOD8258215 Si02
#       6
#    16  16  16  16  16  16
#     4   8  13  21  36  60  85 107 132 161 196 237
#     4  10  20  31  42  58  81 108 134 163 206 252
#     4   9  16  26  43  64  82 105 138 170 197 232
#     4   9  16  26  42  62  80 101 133 170 202 234
#     4   8  13  21  36  60  86 108 131 163 201 236
#     4   8  13  22  39  63  88 111 134 163 200 240
#
# _framework density 15.913384000000001
#
# number of rings (size 3 to 8) (size 9 to 14) (size 15 to 20)
#    0.000    3.333    0.000    3.500    0.000    3.667 
#    0.000    0.000    0.000   10.000    0.000    4.667 
#    0.000    4.000    0.000    0.000    0.000    0.000 
#
# Total GULP energy -594820.671727 kJ/mol
# GULP energy per Si atom -12392.097328 kJ/mol
# Density = 1.587716 g / cm^3
# Si number density = 15.913384 Si / 1000 Ang^3
#
#
#
# Elastic Constant Matrix: (Units=GPa)
#
#
# Indices 1 2 3 4 5 6 
#
# 1 103.4985 75.9928 25.8120 0.0000 0.0000 0.0000
# 2 75.9928 156.4694 22.3528 0.0000 0.0000 0.0000
# 3 25.8120 22.3528 24.2213 0.0000 0.0000 0.0000
# 4 0.0000 0.0000 0.0000 3.2743 0.0000 0.0000
# 5 0.0000 0.0000 0.0000 0.0000 9.8898 0.0000
# 6 0.0000 0.0000 0.0000 0.0000 0.0000 27.4181
#
#
#
# Elastic Compliance Matrix: (Units=1/GPa)
#
#
# Indices 1 2 3 4 5 6 
#
# 1 0.017872 -0.006864 -0.012711 0.000000 0.000000 0.000000
# 2 -0.006864 0.009998 -0.001912 0.000000 0.000000 0.000000
# 3 -0.012711 -0.001912 0.056596 0.000000 0.000000 0.000000
# 4 0.000000 0.000000 0.000000 0.305406 0.000000 0.000000
# 5 0.000000 0.000000 0.000000 0.000000 0.101114 0.000000
# 6 0.000000 0.000000 0.000000 0.000000 0.000000 0.036472
#
#
# Mechanical properties :
#
#
# Convention : Reuss Voigt Hill
#
# Bulk Modulus (GPa) = 24.10099 59.16716 41.63407
# Shear Modulus (GPa) = 8.55780 18.78522 13.67151
#
# Velocity S-wave (km/s) = 2.32151 3.43952 2.93426
# Velocity P-wave (km/s) = 4.72905 7.28253 6.13999
#
# Compressibility (1/GPa) = 0.04149207
#
# Stress axis : x y z
#
# Youngs Moduli (GPa) = 55.95372 100.02213 17.66907
#
# Poissons Ratio (x) = 0.68655 0.22459
# Poissons Ratio (y) = 0.38407 0.03378
# Poissons Ratio (z) = 0.71124 0.19121
#
# Static dielectric constant tensor:
#      x y z
#    x 3.063710 0.000000 0.000000 
#    y 0.000000 3.435240 0.000000 
#    z 0.000000 0.000000 2.553180 
# 
# 
# High freq. dielectric constant tensor:
#      x y z
#    x 1.603320 0.000000 0.000000 
#    y 0.000000 1.612150 0.000000 
#    z 0.000000 0.000000 1.559840 
# 
# From -- ./inp_files/56708.got.cif
#   From: 2010.03.12/outbox.cif.g09.slc.cpg/sg63_29_cif.got.tgz:56708.got - 2010.04.10 19:34:48.
