data_PCOD8258791
_publ_section_title
;
Structure prediction by ZEFSAII (Michael W. Deem and Ramdas Pophale) SiO2 
 PCOD8258791
Probable space group: C M C M
;
_chemical_formula_sum "Si O2"
_cell_formula_units_Z 88
_cell_length_a 21.519538
_cell_length_b 23.219554
_cell_length_c 8.903551
_cell_angle_alpha 90.000000
_cell_angle_beta 90.000000
_cell_angle_gamma 90.000000
_cell_volume 4448.873607
_symmetry_space_group_name_H-M "C M C M"
_symmetry_group_IT_number 63
_symmetry_cell_setting 'orthorhombic'
loop_
_space_group_symop_operation_xyz
x,y,z
-x,-y,1/2+z
x,-y,-z
-x,y,1/2-z
-x,-y,-z
x,y,1/2-z
-x,y,z
x,-y,1/2+z
1/2+x,1/2+y,z
1/2-x,1/2-y,1/2+z
1/2+x,1/2-y,-z
1/2-x,1/2+y,1/2-z
1/2-x,1/2-y,-z
1/2+x,1/2+y,1/2-z
1/2-x,1/2+y,z
1/2+x,1/2-y,1/2+z
loop_
_atom_site_type_symbol
_atom_site_label
_atom_site_fract_x
_atom_site_fract_y
_atom_site_fract_z
Si Si1 0.872954 0.621204 0.072119
Si Si2 0.355705 0.646560 0.073899
Si Si3 0.000000 0.563419 0.429460
Si Si4 0.072613 0.944874 0.416649
Si Si5 0.317366 0.241529 0.071639
Si Si6 0.251902 0.941035 0.574457
O O1 0.874713 0.623946 0.250000
O O2 0.853091 0.684408 0.012330
O O3 0.820747 0.575893 0.017622
O O4 0.939857 0.599377 0.012474
O O5 0.359646 0.659611 0.250000
O O6 0.293891 0.611009 0.030545
O O7 0.414950 0.610668 0.018807
O O8 0.359150 0.705363 0.981023
O O9 0.000000 0.500000 0.500000
O O10 0.000000 0.556962 0.250000
O O11 0.102447 0.939205 0.250000
O O12 0.000000 0.953426 0.400462
O O13 0.102596 0.000000 0.500000
O O14 0.309206 0.239479 0.250000
O O15 0.250000 0.250000 0.000000
O O16 0.250623 0.951210 0.750000
O O17 0.229864 0.000000 0.500000
#
# Coordination Sequence:
#
# PCOD8258791 Si02
#       6
#    16  16   8  16  16  16
#     4   9  19  37  58  82 115 152 190 235 292 352
#     4  11  22  37  57  82 116 153 193 241 293 350
#     4  10  20  38  64  88 116 156 195 238 293 350
#     4  10  21  38  59  84 115 152 193 237 288 347
#     4  11  21  38  60  83 114 152 195 242 296 358
#     4  10  20  34  52  80 114 145 183 232 286 344
#
# _framework density 19.780287000000001
#
# number of rings (size 3 to 8) (size 9 to 14) (size 15 to 20)
#    0.000    1.818    1.818    2.727    0.000    4.000 
#    1.636    1.818    0.000    0.000    0.000    0.000 
#    0.000    0.000    0.000    0.000    0.000    0.000 
#
# Total GULP energy -545557.183083 kJ/mol
# GULP energy per Si atom -12399.026888 kJ/mol
# Density = 1.973527 g / cm^3
# Si number density = 19.780287 Si / 1000 Ang^3
#
#
#
# Elastic Constant Matrix: (Units=GPa)
#
#
# Indices 1 2 3 4 5 6 
#
# 1 75.3871 42.0163 31.3726 0.0000 0.0000 0.0000
# 2 42.0163 150.5436 42.5657 0.0000 0.0000 0.0000
# 3 31.3726 42.5657 60.0115 0.0000 0.0000 0.0000
# 4 0.0000 0.0000 0.0000 36.1913 0.0000 0.0000
# 5 0.0000 0.0000 0.0000 0.0000 23.2771 0.0000
# 6 0.0000 0.0000 0.0000 0.0000 0.0000 10.4062
#
#
#
# Elastic Compliance Matrix: (Units=1/GPa)
#
#
# Indices 1 2 3 4 5 6 
#
# 1 0.017940 -0.002946 -0.007289 0.000000 0.000000 0.000000
# 2 -0.002946 0.008793 -0.004696 0.000000 0.000000 0.000000
# 3 -0.007289 -0.004696 0.023805 0.000000 0.000000 0.000000
# 4 0.000000 0.000000 0.000000 0.027631 0.000000 0.000000
# 5 0.000000 0.000000 0.000000 0.000000 0.042961 0.000000
# 6 0.000000 0.000000 0.000000 0.000000 0.000000 0.096097
#
#
# Mechanical properties :
#
#
# Convention : Reuss Voigt Hill
#
# Bulk Modulus (GPa) = 48.36793 57.53906 52.95350
# Shear Modulus (GPa) = 19.68646 25.30741 22.49693
#
# Velocity S-wave (km/s) = 3.15819 3.58079 3.37611
# Velocity P-wave (km/s) = 6.14854 6.80061 6.48278
#
# Compressibility (1/GPa) = 0.02067486
#
# Stress axis : x y z
#
# Youngs Moduli (GPa) = 55.74066 113.73000 42.00759
#
# Poissons Ratio (x) = 0.33506 0.30620
# Poissons Ratio (y) = 0.16422 0.19729
# Poissons Ratio (z) = 0.40630 0.53413
#
# Static dielectric constant tensor:
#      x y z
#    x 3.688970 0.000000 0.000000 
#    y 0.000000 3.876350 0.000000 
#    z 0.000000 0.000000 3.609270 
# 
# 
# High freq. dielectric constant tensor:
#      x y z
#    x 1.767390 0.000000 0.000000 
#    y 0.000000 1.780390 0.000000 
#    z 0.000000 0.000000 1.757070 
# 
# From -- ./inp_files/8202.got.cif
#   From: 2010.03.12/outbox.cif.g09.slc.cpg/sg63_5_cif.got.tgz:8202.got - 2010.04.10 19:34:48.
