data_PCOD8258536
_publ_section_title
;
Structure prediction by ZEFSAII (Michael W. Deem and Ramdas Pophale) SiO2 
 PCOD8258536
Probable space group: C M C M
;
_chemical_formula_sum "Si O2"
_cell_formula_units_Z 96
_cell_length_a 9.392017
_cell_length_b 30.104055
_cell_length_c 19.646715
_cell_angle_alpha 90.000000
_cell_angle_beta 90.000000
_cell_angle_gamma 90.000000
_cell_volume 5554.868904
_symmetry_space_group_name_H-M "C M C M"
_symmetry_group_IT_number 63
_symmetry_cell_setting 'orthorhombic'
loop_
_space_group_symop_operation_xyz
x,y,z
-x,-y,1/2+z
x,-y,-z
-x,y,1/2-z
-x,-y,-z
x,y,1/2-z
-x,y,z
x,-y,1/2+z
1/2+x,1/2+y,z
1/2-x,1/2-y,1/2+z
1/2+x,1/2-y,-z
1/2-x,1/2+y,1/2-z
1/2-x,1/2-y,-z
1/2+x,1/2+y,1/2-z
1/2-x,1/2+y,z
1/2+x,1/2-y,1/2+z
loop_
_atom_site_type_symbol
_atom_site_label
_atom_site_fract_x
_atom_site_fract_y
_atom_site_fract_z
Si Si1 0.335151 0.138920 0.829472
Si Si2 0.335132 0.873792 0.672165
Si Si3 0.166091 0.198711 0.930427
Si Si4 0.159910 0.958357 0.831090
Si Si5 0.836211 0.301166 0.937062
Si Si6 0.158017 0.539450 0.830944
O O1 0.305038 0.145033 0.750000
O O2 0.500000 0.148848 0.846150
O O3 0.233862 0.172815 0.867867
O O4 0.295155 0.088899 0.853270
O O5 0.294704 0.862603 0.750000
O O6 0.500000 0.886999 0.665840
O O7 0.245106 0.915180 0.643659
O O8 0.297014 0.830611 0.628268
O O9 0.195485 0.250539 0.916952
O O10 0.000000 0.187702 0.934896
O O11 0.238834 0.183227 0.000475
O O12 0.161160 0.959973 0.750000
O O13 0.000000 0.956128 0.859817
O O14 0.233568 0.002873 0.860786
O O15 0.000000 0.307472 0.958985
O O16 0.154381 0.537279 0.750000
O O17 0.000000 0.528928 0.859075
#
# Coordination Sequence:
#
# PCOD8258536 Si02
#       6
#    16  16  16  16  16  16
#     4   9  18  32  50  73 100 129 161 197 237 282
#     4   9  17  30  49  71  94 123 160 198 234 276
#     4  10  20  33  51  73  96 125 161 201 243 286
#     4   9  16  25  40  66  98 126 152 188 235 281
#     4   9  19  35  52  69  93 128 165 197 234 287
#     4   8  14  26  44  65  91 125 161 191 223 273
#
# _framework density 17.282136000000001
#
# number of rings (size 3 to 8) (size 9 to 14) (size 15 to 20)
#    0.000    3.000    0.000    2.000    0.000    5.000 
#    0.000    3.333    0.000    3.000    0.000    7.000 
#    0.000    0.000    0.000    0.000    0.000    0.000 
#
# Total GULP energy -595143.005277 kJ/mol
# GULP energy per Si atom -12398.812610 kJ/mol
# Density = 1.724280 g / cm^3
# Si number density = 17.282136 Si / 1000 Ang^3
#
#
#
# Elastic Constant Matrix: (Units=GPa)
#
#
# Indices 1 2 3 4 5 6 
#
# 1 108.4466 71.2115 49.2996 0.0000 0.0000 0.0000
# 2 71.2115 110.5942 52.6582 0.0000 0.0000 0.0000
# 3 49.2996 52.6582 60.1874 0.0000 0.0000 0.0000
# 4 0.0000 0.0000 0.0000 3.4427 0.0000 0.0000
# 5 0.0000 0.0000 0.0000 0.0000 24.5251 0.0000
# 6 0.0000 0.0000 0.0000 0.0000 0.0000 31.9637
#
#
#
# Elastic Compliance Matrix: (Units=1/GPa)
#
#
# Indices 1 2 3 4 5 6 
#
# 1 0.017906 -0.007792 -0.007850 0.000000 0.000000 0.000000
# 2 -0.007792 0.018889 -0.010144 0.000000 0.000000 0.000000
# 3 -0.007850 -0.010144 0.031919 0.000000 0.000000 0.000000
# 4 0.000000 0.000000 0.000000 0.290474 0.000000 0.000000
# 5 0.000000 0.000000 0.000000 0.000000 0.040775 0.000000
# 6 0.000000 0.000000 0.000000 0.000000 0.000000 0.031285
#
#
# Mechanical properties :
#
#
# Convention : Reuss Voigt Hill
#
# Bulk Modulus (GPa) = 58.33060 69.50744 63.91902
# Shear Modulus (GPa) = 10.23469 19.05687 14.64578
#
# Velocity S-wave (km/s) = 2.43618 3.32428 2.91426
# Velocity P-wave (km/s) = 6.46054 7.41896 6.95628
#
# Compressibility (1/GPa) = 0.01714366
#
# Stress axis : x y z
#
# Youngs Moduli (GPa) = 55.84574 52.93972 31.32928
#
# Poissons Ratio (x) = 0.41253 0.24592
# Poissons Ratio (y) = 0.43518 0.31779
# Poissons Ratio (z) = 0.43836 0.53700
#
# Static dielectric constant tensor:
#      x y z
#    x 3.357680 0.000000 0.000000 
#    y 0.000000 3.342170 0.000000 
#    z 0.000000 0.000000 2.851150 
# 
# 
# High freq. dielectric constant tensor:
#      x y z
#    x 1.671330 0.000000 0.000000 
#    y 0.000000 1.674310 0.000000 
#    z 0.000000 0.000000 1.625870 
# 
# From -- ./inp_files/51325.got.cif
#   From: 2010.03.12/outbox.cif.g09.slc.cpg/sg63_26_cif.got.tgz:51325.got - 2010.04.10 19:34:48.
