data_PCOD8258376
_publ_section_title
;
Structure prediction by ZEFSAII (Michael W. Deem and Ramdas Pophale) SiO2 
 PCOD8258376
Probable space group: C M C M
;
_chemical_formula_sum "Si O2"
_cell_formula_units_Z 64
_cell_length_a 17.002558
_cell_length_b 18.132027
_cell_length_c 9.494546
_cell_angle_alpha 90.000000
_cell_angle_beta 90.000000
_cell_angle_gamma 90.000000
_cell_volume 2927.081569
_symmetry_space_group_name_H-M "C M C M"
_symmetry_group_IT_number 63
_symmetry_cell_setting 'orthorhombic'
loop_
_space_group_symop_operation_xyz
x,y,z
-x,-y,1/2+z
x,-y,-z
-x,y,1/2-z
-x,-y,-z
x,y,1/2-z
-x,y,z
x,-y,1/2+z
1/2+x,1/2+y,z
1/2-x,1/2-y,1/2+z
1/2+x,1/2-y,-z
1/2-x,1/2+y,1/2-z
1/2-x,1/2-y,-z
1/2+x,1/2+y,1/2-z
1/2-x,1/2+y,z
1/2+x,1/2-y,1/2+z
loop_
_atom_site_type_symbol
_atom_site_label
_atom_site_fract_x
_atom_site_fract_y
_atom_site_fract_z
Si Si1 0.409283 0.667973 0.589521
Si Si2 0.089480 0.438531 0.402524
Si Si3 0.198681 0.926878 0.914603
Si Si4 0.152592 0.325696 0.591794
O O1 0.401097 0.639397 0.750000
O O2 0.500000 0.688717 0.556813
O O3 0.381888 0.603969 0.483133
O O4 0.351695 0.738307 0.567688
O O5 0.132172 0.500000 0.500000
O O6 0.132392 0.436384 0.250000
O O7 0.092758 0.360144 0.479070
O O8 0.000000 0.461416 0.378271
O O9 0.185589 0.945113 0.750000
O O10 0.262254 0.861518 0.935732
O O11 0.224114 0.000000 0.000000
O O12 0.123997 0.344956 0.750000
#
# Coordination Sequence:
#
# PCOD8258376 Si02
#       4
#    16  16  16  16
#     4  10  22  41  65  92 123 160 201 248 304 363
#     4  10  20  32  49  77 114 157 202 246 294 351
#     4  11  24  41  63  91 123 161 205 252 302 358
#     4  10  21  38  61  89 120 155 195 243 302 363
#
# _framework density 21.864781000000001
#
# number of rings (size 3 to 8) (size 9 to 14) (size 15 to 20)
#    0.000    1.750    0.000    3.750    0.000    8.500 
#    0.000    0.000    0.000    0.000    0.000    0.000 
#    0.000    0.000    0.000    0.000    0.000    0.000 
#
# Total GULP energy -396665.484473 kJ/mol
# GULP energy per Si atom -12395.796390 kJ/mol
# Density = 2.181502 g / cm^3
# Si number density = 21.864781 Si / 1000 Ang^3
#
#
#
# Elastic Constant Matrix: (Units=GPa)
#
#
# Indices 1 2 3 4 5 6 
#
# 1 76.2066 39.5910 41.5702 0.0000 0.0000 0.0000
# 2 39.5910 81.0450 66.0789 0.0000 0.0000 0.0000
# 3 41.5702 66.0789 176.5388 0.0000 0.0000 0.0000
# 4 0.0000 0.0000 0.0000 41.4374 0.0000 0.0000
# 5 0.0000 0.0000 0.0000 0.0000 26.5016 0.0000
# 6 0.0000 0.0000 0.0000 0.0000 0.0000 32.0559
#
#
#
# Elastic Compliance Matrix: (Units=1/GPa)
#
#
# Indices 1 2 3 4 5 6 
#
# 1 0.017805 -0.007599 -0.001349 0.000000 0.000000 0.000000
# 2 -0.007599 0.021001 -0.006071 0.000000 0.000000 0.000000
# 3 -0.001349 -0.006071 0.008255 0.000000 0.000000 0.000000
# 4 0.000000 0.000000 0.000000 0.024133 0.000000 0.000000
# 5 0.000000 0.000000 0.000000 0.000000 0.037734 0.000000
# 6 0.000000 0.000000 0.000000 0.000000 0.000000 0.031195
#
#
# Mechanical properties :
#
#
# Convention : Reuss Voigt Hill
#
# Bulk Modulus (GPa) = 58.74085 69.80784 64.27434
# Shear Modulus (GPa) = 28.43577 32.43567 30.43572
#
# Velocity S-wave (km/s) = 3.61020 3.85576 3.73500
# Velocity P-wave (km/s) = 6.65596 7.19853 6.93256
#
# Compressibility (1/GPa) = 0.01702393
#
# Stress axis : x y z
#
# Youngs Moduli (GPa) = 56.16249 47.61665 121.14455
#
# Poissons Ratio (x) = 0.36182 0.16337
# Poissons Ratio (y) = 0.42675 0.73553
# Poissons Ratio (z) = 0.07574 0.28910
#
# Static dielectric constant tensor:
#      x y z
#    x 3.606930 0.000000 0.000000 
#    y 0.000000 3.778660 0.000000 
#    z 0.000000 0.000000 4.295560 
# 
# 
# High freq. dielectric constant tensor:
#      x y z
#    x 1.841880 0.000000 0.000000 
#    y 0.000000 1.849520 0.000000 
#    z 0.000000 0.000000 1.871480 
# 
# From -- ./inp_files/5706.got.cif
#   From: 2010.03.12/outbox.cif.g09.slc.cpg/sg63_3_cif.got.tgz:5706.got - 2010.04.10 19:34:48.
