data_PCOD8258789
_publ_section_title
;
Structure prediction by ZEFSAII (Michael W. Deem and Ramdas Pophale) SiO2 
 PCOD8258789
Probable space group: C M C M
;
_chemical_formula_sum "Si O2"
_cell_formula_units_Z 112
_cell_length_a 14.056907
_cell_length_b 26.597038
_cell_length_c 14.375376
_cell_angle_alpha 90.000000
_cell_angle_beta 90.000000
_cell_angle_gamma 90.000000
_cell_volume 5374.551865
_symmetry_space_group_name_H-M "C M C M"
_symmetry_group_IT_number 63
_symmetry_cell_setting 'orthorhombic'
loop_
_space_group_symop_operation_xyz
x,y,z
-x,-y,1/2+z
x,-y,-z
-x,y,1/2-z
-x,-y,-z
x,y,1/2-z
-x,y,z
x,-y,1/2+z
1/2+x,1/2+y,z
1/2-x,1/2-y,1/2+z
1/2+x,1/2-y,-z
1/2-x,1/2+y,1/2-z
1/2-x,1/2-y,-z
1/2+x,1/2+y,1/2-z
1/2-x,1/2+y,z
1/2+x,1/2-y,1/2+z
loop_
_atom_site_type_symbol
_atom_site_label
_atom_site_fract_x
_atom_site_fract_y
_atom_site_fract_z
Si Si1 0.395551 0.650588 0.975831
Si Si2 0.103858 0.036941 0.913859
Si Si3 0.108047 0.756724 0.145504
Si Si4 0.387513 0.126558 0.641718
Si Si5 0.696262 0.829313 0.532844
Si Si6 0.805668 0.477681 0.146725
Si Si7 0.388863 0.078792 0.357326
O O1 0.500000 0.659210 0.023077
O O2 0.309996 0.664146 0.045801
O O3 0.384027 0.593522 0.946822
O O4 0.387027 0.685015 0.883872
O O5 0.191055 0.024687 0.846280
O O6 0.000000 0.029858 0.865034
O O7 0.112024 0.000000 0.000000
O O8 0.148389 0.751507 0.250000
O O9 0.170762 0.724994 0.073395
O O10 0.000000 0.736650 0.141619
O O11 0.358164 0.135063 0.750000
O O12 0.500000 0.130790 0.628933
O O13 0.335375 0.167723 0.576207
O O14 0.351737 0.072385 0.602266
O O15 0.641409 0.871627 0.589424
O O16 0.848507 0.480501 0.250000
O O17 0.837908 0.529482 0.096769
O O18 0.358689 0.085940 0.250000
O O19 0.500000 0.070675 0.368604
#
# Coordination Sequence:
#
# PCOD8258789 Si02
#       7
#    16  16  16  16  16  16  16
#     4  10  22  39  59  84 117 156 198 248 301 353
#     4  10  20  36  57  83 114 150 196 247 297 351
#     4  10  22  40  63  92 122 153 197 252 301 350
#     4  10  21  35  52  81 121 158 194 240 295 357
#     4  12  21  37  62  88 118 155 204 247 300 359
#     4  10  20  34  52  79 115 156 197 243 296 356
#     4  10  21  36  57  87 122 159 201 248 298 357
#
# _framework density 20.838947999999998
#
# number of rings (size 3 to 8) (size 9 to 14) (size 15 to 20)
#    0.000    1.714    1.429    3.429    0.000    4.286 
#    0.000    2.857    0.000    2.571    0.000    2.000 
#    0.000    0.000    0.000    0.000    0.000    0.000 
#
# Total GULP energy -694226.354507 kJ/mol
# GULP energy per Si atom -12396.899188 kJ/mol
# Density = 2.079152 g / cm^3
# Si number density = 20.838948 Si / 1000 Ang^3
#
#
#
# Elastic Constant Matrix: (Units=GPa)
#
#
# Indices 1 2 3 4 5 6 
#
# 1 127.1645 32.7046 25.8296 0.0000 0.0000 0.0000
# 2 32.7046 116.3252 44.2798 0.0000 0.0000 0.0000
# 3 25.8296 44.2798 70.0296 0.0000 0.0000 0.0000
# 4 0.0000 0.0000 0.0000 20.5616 0.0000 0.0000
# 5 0.0000 0.0000 0.0000 0.0000 24.4062 0.0000
# 6 0.0000 0.0000 0.0000 0.0000 0.0000 49.0865
#
#
#
# Elastic Compliance Matrix: (Units=1/GPa)
#
#
# Indices 1 2 3 4 5 6 
#
# 1 0.008726 -0.001617 -0.002196 0.000000 0.000000 0.000000
# 2 -0.001617 0.011621 -0.006752 0.000000 0.000000 0.000000
# 3 -0.002196 -0.006752 0.019359 0.000000 0.000000 0.000000
# 4 0.000000 0.000000 0.000000 0.048634 0.000000 0.000000
# 5 0.000000 0.000000 0.000000 0.000000 0.040973 0.000000
# 6 0.000000 0.000000 0.000000 0.000000 0.000000 0.020372
#
#
# Mechanical properties :
#
#
# Convention : Reuss Voigt Hill
#
# Bulk Modulus (GPa) = 53.83224 57.68303 55.75764
# Shear Modulus (GPa) = 28.24744 32.85787 30.55266
#
# Velocity S-wave (km/s) = 3.68572 3.97514 3.83316
# Velocity P-wave (km/s) = 6.63335 6.98638 6.81215
#
# Compressibility (1/GPa) = 0.01857623
#
# Stress axis : x y z
#
# Youngs Moduli (GPa) = 114.60263 86.04832 51.65658
#
# Poissons Ratio (x) = 0.13918 0.11342
# Poissons Ratio (y) = 0.18536 0.34877
# Poissons Ratio (z) = 0.25163 0.58097
#
# Static dielectric constant tensor:
#      x y z
#    x 4.107470 0.000000 0.000000 
#    y 0.000000 3.822710 0.000000 
#    z 0.000000 0.000000 3.590160 
# 
# 
# High freq. dielectric constant tensor:
#      x y z
#    x 1.829910 0.000000 0.000000 
#    y 0.000000 1.820840 0.000000 
#    z 0.000000 0.000000 1.789590 
# 
# From -- ./inp_files/32304.got.cif
#   From: 2010.03.12/outbox.cif.g09.slc.cpg/sg63_17_cif.got.tgz:32304.got - 2010.04.10 19:34:48.
