data_PCOD8258071
_publ_section_title
;
Structure prediction by ZEFSAII (Michael W. Deem and Ramdas Pophale) SiO2 
 PCOD8258071
Probable space group: C M C M
;
_chemical_formula_sum "Si O2"
_cell_formula_units_Z 88
_cell_length_a 20.418074
_cell_length_b 18.648261
_cell_length_c 13.482357
_cell_angle_alpha 90.000000
_cell_angle_beta 90.000000
_cell_angle_gamma 90.000000
_cell_volume 5133.563460
_symmetry_space_group_name_H-M "C M C M"
_symmetry_group_IT_number 63
_symmetry_cell_setting 'orthorhombic'
loop_
_space_group_symop_operation_xyz
x,y,z
-x,-y,1/2+z
x,-y,-z
-x,y,1/2-z
-x,-y,-z
x,y,1/2-z
-x,y,z
x,-y,1/2+z
1/2+x,1/2+y,z
1/2-x,1/2-y,1/2+z
1/2+x,1/2-y,-z
1/2-x,1/2+y,1/2-z
1/2-x,1/2-y,-z
1/2+x,1/2+y,1/2-z
1/2-x,1/2+y,z
1/2+x,1/2-y,1/2+z
loop_
_atom_site_type_symbol
_atom_site_label
_atom_site_fract_x
_atom_site_fract_y
_atom_site_fract_z
Si Si1 0.626233 0.196358 0.138359
Si Si2 0.500000 0.050398 0.866680
Si Si3 0.277712 0.000000 0.000000
Si Si4 0.500000 0.107668 0.133988
Si Si5 0.138740 0.393705 0.133509
Si Si6 0.321872 0.255268 0.541790
Si Si7 0.235135 0.883177 0.861453
O O1 0.617292 0.227493 0.250000
O O2 0.565441 0.148918 0.102656
O O3 0.691316 0.148255 0.131021
O O4 0.631275 0.259769 0.056137
O O5 0.500000 0.037547 0.750000
O O6 0.563069 0.096475 0.897969
O O7 0.500000 0.970767 0.917488
O O8 0.320680 0.952345 0.073697
O O9 0.230102 0.049347 0.065844
O O10 0.500000 0.097785 0.250000
O O11 0.149824 0.407843 0.250000
O O12 0.160628 0.313218 0.108621
O O13 0.250000 0.250000 0.500000
O O14 0.322328 0.326768 0.608597
O O15 0.220539 0.908195 0.750000
#
# Coordination Sequence:
#
# PCOD8258071 Si02
#       7
#    16   8   8   8  16  16  16
#     4   9  17  30  49  70  98 134 173 206 237 281
#     4   9  20  32  46  72 106 140 170 197 240 291
#     4  12  20  33  50  78  98 127 178 204 252 304
#     4   9  16  29  47  73 109 142 166 200 242 284
#     4  11  22  35  50  72 104 139 172 208 242 291
#     4  10  19  36  48  68  93 133 183 207 252 296
#     4  10  20  35  51  69  99 133 168 214 252 295
#
# _framework density 17.142088999999999
#
# number of rings (size 3 to 8) (size 9 to 14) (size 15 to 20)
#    0.000    2.000    3.636    2.182    0.000    4.727 
#    0.000    0.000    0.000    0.000    0.000    0.000 
#    0.000    2.909    0.000    7.273    0.000    0.000 
#
# Total GULP energy -545289.739976 kJ/mol
# GULP energy per Si atom -12392.948636 kJ/mol
# Density = 1.710307 g / cm^3
# Si number density = 17.142089 Si / 1000 Ang^3
#
#
#
# Elastic Constant Matrix: (Units=GPa)
#
#
# Indices 1 2 3 4 5 6 
#
# 1 65.0170 56.6023 36.6859 0.0000 0.0000 0.0000
# 2 56.6023 115.8256 64.0086 0.0000 0.0000 0.0000
# 3 36.6859 64.0086 129.6506 0.0000 0.0000 0.0000
# 4 0.0000 0.0000 0.0000 33.2560 0.0000 0.0000
# 5 0.0000 0.0000 0.0000 0.0000 14.6437 0.0000
# 6 0.0000 0.0000 0.0000 0.0000 0.0000 62.7469
#
#
#
# Elastic Compliance Matrix: (Units=1/GPa)
#
#
# Indices 1 2 3 4 5 6 
#
# 1 0.026993 -0.012336 -0.001548 0.000000 0.000000 0.000000
# 2 -0.012336 0.017510 -0.005154 0.000000 0.000000 0.000000
# 3 -0.001548 -0.005154 0.010696 0.000000 0.000000 0.000000
# 4 0.000000 0.000000 0.000000 0.030070 0.000000 0.000000
# 5 0.000000 0.000000 0.000000 0.000000 0.068289 0.000000
# 6 0.000000 0.000000 0.000000 0.000000 0.000000 0.015937
#
#
# Mechanical properties :
#
#
# Convention : Reuss Voigt Hill
#
# Bulk Modulus (GPa) = 58.39964 69.45410 63.92687
# Shear Modulus (GPa) = 23.44350 32.34241 27.89296
#
# Velocity S-wave (km/s) = 3.70212 4.34836 4.03819
# Velocity P-wave (km/s) = 7.23990 8.11268 7.68869
#
# Compressibility (1/GPa) = 0.01712339
#
# Stress axis : x y z
#
# Youngs Moduli (GPa) = 37.04637 57.10868 93.49525
#
# Poissons Ratio (x) = 0.70448 0.14471
# Poissons Ratio (y) = 0.45700 0.48191
# Poissons Ratio (z) = 0.05734 0.29436
#
# Static dielectric constant tensor:
#      x y z
#    x 4.772210 0.000000 0.000000 
#    y 0.000000 3.384130 0.000000 
#    z 0.000000 0.000000 3.401020 
# 
# 
# High freq. dielectric constant tensor:
#      x y z
#    x 1.625180 0.000000 0.000000 
#    y 0.000000 1.633200 0.000000 
#    z 0.000000 0.000000 1.695900 
# 
# From -- ./inp_files/35583.got.cif
#   From: 2010.03.12/outbox.cif.g09.slc.cpg/sg63_18_cif.got.tgz:35583.got - 2010.04.10 19:34:48.
