data_PCOD8258155
_publ_section_title
;
Structure prediction by ZEFSAII (Michael W. Deem and Ramdas Pophale) SiO2 
 PCOD8258155
Probable space group: C M C M
;
_chemical_formula_sum "Si O2"
_cell_formula_units_Z 80
_cell_length_a 8.482007
_cell_length_b 24.895999
_cell_length_c 18.578819
_cell_angle_alpha 90.000000
_cell_angle_beta 90.000000
_cell_angle_gamma 90.000000
_cell_volume 3923.252753
_symmetry_space_group_name_H-M "C M C M"
_symmetry_group_IT_number 63
_symmetry_cell_setting 'orthorhombic'
loop_
_space_group_symop_operation_xyz
x,y,z
-x,-y,1/2+z
x,-y,-z
-x,y,1/2-z
-x,-y,-z
x,y,1/2-z
-x,y,z
x,-y,1/2+z
1/2+x,1/2+y,z
1/2-x,1/2-y,1/2+z
1/2+x,1/2-y,-z
1/2-x,1/2+y,1/2-z
1/2-x,1/2-y,-z
1/2+x,1/2+y,1/2-z
1/2-x,1/2+y,z
1/2+x,1/2-y,1/2+z
loop_
_atom_site_type_symbol
_atom_site_label
_atom_site_fract_x
_atom_site_fract_y
_atom_site_fract_z
Si Si1 0.812555 0.066076 0.669673
Si Si2 0.681409 0.145371 0.062977
Si Si3 0.315523 0.670857 0.912779
Si Si4 0.183946 0.228046 0.167730
Si Si5 0.181379 0.969543 0.925419
O O1 0.743618 0.071170 0.750000
O O2 0.750992 0.115760 0.622249
O O3 0.000000 0.067291 0.669535
O O4 0.755830 0.009735 0.636284
O O5 0.500000 0.154021 0.043026
O O6 0.723172 0.177605 0.135085
O O7 0.712058 0.082896 0.077033
O O8 0.786046 0.168579 0.997919
O O9 0.500000 0.679655 0.898291
O O10 0.220132 0.718858 0.877316
O O11 0.239749 0.236060 0.250000
O O12 0.000000 0.215388 0.163622
O O13 0.000000 0.952559 0.913227
O O14 0.200661 0.000000 0.000000
#
# Coordination Sequence:
#
# PCOD8258155 Si02
#       5
#    16  16  16  16  16
#     4   9  18  33  58  90 120 155 200 249 304 366
#     4  12  25  40  62  91 124 162 209 256 305 365
#     4  11  21  39  65  92 123 159 205 255 308 368
#     4  11  25  44  64  89 123 162 204 253 311 369
#     4  10  19  37  61  87 120 159 203 250 303 365
#
# _framework density 20.391242999999999
#
# number of rings (size 3 to 8) (size 9 to 14) (size 15 to 20)
#    0.000    1.400    2.000    4.200    0.000    3.600 
#    0.000    2.000    0.000    2.400    0.000    0.000 
#    0.000    0.000    0.000    0.000    0.000    0.000 
#
# Total GULP energy -496209.518391 kJ/mol
# GULP energy per Si atom -12405.237960 kJ/mol
# Density = 2.034483 g / cm^3
# Si number density = 20.391243 Si / 1000 Ang^3
#
#
#
# Elastic Constant Matrix: (Units=GPa)
#
#
# Indices 1 2 3 4 5 6 
#
# 1 50.5956 23.5763 15.7814 0.0000 0.0000 0.0000
# 2 23.5763 121.0003 41.9270 0.0000 0.0000 0.0000
# 3 15.7814 41.9270 93.0643 0.0000 0.0000 0.0000
# 4 0.0000 0.0000 0.0000 31.9770 0.0000 0.0000
# 5 0.0000 0.0000 0.0000 0.0000 19.9751 0.0000
# 6 0.0000 0.0000 0.0000 0.0000 0.0000 36.1701
#
#
#
# Elastic Compliance Matrix: (Units=1/GPa)
#
#
# Indices 1 2 3 4 5 6 
#
# 1 0.022093 -0.003563 -0.002141 0.000000 0.000000 0.000000
# 2 -0.003563 0.010368 -0.004067 0.000000 0.000000 0.000000
# 3 -0.002141 -0.004067 0.012940 0.000000 0.000000 0.000000
# 4 0.000000 0.000000 0.000000 0.031272 0.000000 0.000000
# 5 0.000000 0.000000 0.000000 0.000000 0.050062 0.000000
# 6 0.000000 0.000000 0.000000 0.000000 0.000000 0.027647
#
#
# Mechanical properties :
#
#
# Convention : Reuss Voigt Hill
#
# Bulk Modulus (GPa) = 38.67058 47.46997 43.07028
# Shear Modulus (GPa) = 27.39068 29.84948 28.62008
#
# Velocity S-wave (km/s) = 3.66902 3.83016 3.75046
# Velocity P-wave (km/s) = 6.07902 6.54907 6.31842
#
# Compressibility (1/GPa) = 0.02585945
#
# Stress axis : x y z
#
# Youngs Moduli (GPa) = 45.26406 96.45316 77.27691
#
# Poissons Ratio (x) = 0.34363 0.16547
# Poissons Ratio (y) = 0.16126 0.31426
# Poissons Ratio (z) = 0.09692 0.39224
#
# Static dielectric constant tensor:
#      x y z
#    x 3.420930 0.000000 0.000000 
#    y 0.000000 3.834810 0.000000 
#    z 0.000000 0.000000 3.947040 
# 
# 
# High freq. dielectric constant tensor:
#      x y z
#    x 1.775350 0.000000 0.000000 
#    y 0.000000 1.809940 0.000000 
#    z 0.000000 0.000000 1.804170 
# 
# From -- ./inp_files/40530.got.cif
#   From: 2010.03.12/outbox.cif.g09.slc.cpg/sg63_21_cif.got.tgz:40530.got - 2010.04.10 19:34:48.
