data_PCOD8258572
_publ_section_title
;
Structure prediction by ZEFSAII (Michael W. Deem and Ramdas Pophale) SiO2 
 PCOD8258572
Probable space group: C M C M
;
_chemical_formula_sum "Si O2"
_cell_formula_units_Z 80
_cell_length_a 9.646916
_cell_length_b 15.437218
_cell_length_c 28.444169
_cell_angle_alpha 90.000000
_cell_angle_beta 90.000000
_cell_angle_gamma 90.000000
_cell_volume 4235.949603
_symmetry_space_group_name_H-M "C M C M"
_symmetry_group_IT_number 63
_symmetry_cell_setting 'orthorhombic'
loop_
_space_group_symop_operation_xyz
x,y,z
-x,-y,1/2+z
x,-y,-z
-x,y,1/2-z
-x,-y,-z
x,y,1/2-z
-x,y,z
x,-y,1/2+z
1/2+x,1/2+y,z
1/2-x,1/2-y,1/2+z
1/2+x,1/2-y,-z
1/2-x,1/2+y,1/2-z
1/2-x,1/2-y,-z
1/2+x,1/2+y,1/2-z
1/2-x,1/2+y,z
1/2+x,1/2-y,1/2+z
loop_
_atom_site_type_symbol
_atom_site_label
_atom_site_fract_x
_atom_site_fract_y
_atom_site_fract_z
Si Si1 0.340613 0.978043 0.135841
Si Si2 0.158909 0.714474 0.644986
Si Si3 0.342608 0.726203 0.044013
Si Si4 0.338217 0.143143 0.195644
Si Si5 0.159101 0.026383 0.051331
O O1 0.500000 0.991488 0.121069
O O2 0.321450 0.885104 0.161499
O O3 0.291100 0.054237 0.170562
O O4 0.249976 0.976029 0.089015
O O5 0.198898 0.718334 0.589738
O O6 0.256084 0.775022 0.675841
O O7 0.000000 0.745216 0.651798
O O8 0.500000 0.743878 0.028506
O O9 0.320262 0.627686 0.059186
O O10 0.250000 0.750000 0.000000
O O11 0.301521 0.132066 0.250000
O O12 0.500000 0.161112 0.187583
O O13 0.000000 0.997517 0.057764
O O14 0.213328 0.000000 0.000000
#
# Coordination Sequence:
#
# PCOD8258572 Si02
#       5
#    16  16  16  16  16
#     4  10  21  37  59  85 114 149 189 236 287 339
#     4  10  21  38  59  85 115 149 192 238 284 340
#     4  10  20  33  51  79 114 150 191 234 278 337
#     4  10  22  40  60  84 114 148 189 237 290 345
#     4  10  20  34  53  80 116 154 191 234 284 338
#
# _framework density 18.885967000000001
#
# number of rings (size 3 to 8) (size 9 to 14) (size 15 to 20)
#    0.000    2.000    2.000    1.200    0.000    4.000 
#    0.000    2.000    0.000    0.000    0.000    0.000 
#    0.000    0.000    0.000    0.000    0.000    0.000 
#
# Total GULP energy -496104.730395 kJ/mol
# GULP energy per Si atom -12402.618260 kJ/mol
# Density = 1.884298 g / cm^3
# Si number density = 18.885967 Si / 1000 Ang^3
#
#
#
# Elastic Constant Matrix: (Units=GPa)
#
#
# Indices 1 2 3 4 5 6 
#
# 1 68.6537 46.3006 60.8041 0.0000 0.0000 0.0000
# 2 46.3006 107.1595 56.7813 0.0000 0.0000 0.0000
# 3 60.8041 56.7813 112.9016 0.0000 0.0000 0.0000
# 4 0.0000 0.0000 0.0000 27.4676 0.0000 0.0000
# 5 0.0000 0.0000 0.0000 0.0000 32.1075 0.0000
# 6 0.0000 0.0000 0.0000 0.0000 0.0000 29.5363
#
#
#
# Elastic Compliance Matrix: (Units=1/GPa)
#
#
# Indices 1 2 3 4 5 6 
#
# 1 0.030522 -0.006104 -0.013368 0.000000 0.000000 0.000000
# 2 -0.006104 0.013943 -0.003725 0.000000 0.000000 0.000000
# 3 -0.013368 -0.003725 0.017930 0.000000 0.000000 0.000000
# 4 0.000000 0.000000 0.000000 0.036406 0.000000 0.000000
# 5 0.000000 0.000000 0.000000 0.000000 0.031145 0.000000
# 6 0.000000 0.000000 0.000000 0.000000 0.000000 0.033857
#
#
# Mechanical properties :
#
#
# Convention : Reuss Voigt Hill
#
# Bulk Modulus (GPa) = 62.49591 68.49851 65.49721
# Shear Modulus (GPa) = 23.19844 26.14420 24.67132
#
# Velocity S-wave (km/s) = 3.50857 3.72468 3.61824
# Velocity P-wave (km/s) = 7.04106 7.40580 7.22573
#
# Compressibility (1/GPa) = 0.01600105
#
# Stress axis : x y z
#
# Youngs Moduli (GPa) = 32.76304 71.71998 55.77257
#
# Poissons Ratio (x) = 0.43781 0.74556
# Poissons Ratio (y) = 0.20000 0.20774
# Poissons Ratio (z) = 0.43797 0.26714
#
# Static dielectric constant tensor:
#      x y z
#    x 3.421540 0.000000 0.000000 
#    y 0.000000 3.616730 0.000000 
#    z 0.000000 0.000000 3.338370 
# 
# 
# High freq. dielectric constant tensor:
#      x y z
#    x 1.728570 0.000000 0.000000 
#    y 0.000000 1.745960 0.000000 
#    z 0.000000 0.000000 1.726040 
# 
# From -- ./inp_files/61112.got.cif
#   From: 2010.03.12/outbox.cif.g09.slc.cpg/sg63_31_cif.got.tgz:61112.got - 2010.04.10 19:34:48.
