data_PCOD8258087
_publ_section_title
;
Structure prediction by ZEFSAII (Michael W. Deem and Ramdas Pophale) SiO2 
 PCOD8258087
Probable space group: C M C M
;
_chemical_formula_sum "Si O2"
_cell_formula_units_Z 88
_cell_length_a 15.968567
_cell_length_b 12.688278
_cell_length_c 22.367704
_cell_angle_alpha 90.000000
_cell_angle_beta 90.000000
_cell_angle_gamma 90.000000
_cell_volume 4532.001419
_symmetry_space_group_name_H-M "C M C M"
_symmetry_group_IT_number 63
_symmetry_cell_setting 'orthorhombic'
loop_
_space_group_symop_operation_xyz
x,y,z
-x,-y,1/2+z
x,-y,-z
-x,y,1/2-z
-x,-y,-z
x,y,1/2-z
-x,y,z
x,-y,1/2+z
1/2+x,1/2+y,z
1/2-x,1/2-y,1/2+z
1/2+x,1/2-y,-z
1/2-x,1/2+y,1/2-z
1/2-x,1/2-y,-z
1/2+x,1/2+y,1/2-z
1/2-x,1/2+y,z
1/2+x,1/2-y,1/2+z
loop_
_atom_site_type_symbol
_atom_site_label
_atom_site_fract_x
_atom_site_fract_y
_atom_site_fract_z
Si Si1 0.000000 0.839537 0.105503
Si Si2 0.816631 0.326650 0.081121
Si Si3 0.663753 0.059963 0.122727
Si Si4 0.500000 0.548362 0.181402
Si Si5 0.500000 0.868844 0.818662
Si Si6 0.676855 0.656951 0.180115
Si Si7 0.353285 0.255248 0.036346
O O1 0.000000 0.744244 0.151295
O O2 0.920848 0.834049 0.062791
O O3 0.000000 0.947460 0.140372
O O4 0.840249 0.446168 0.092858
O O5 0.812957 0.265797 0.144081
O O6 0.730349 0.323435 0.044049
O O7 0.878474 0.270558 0.032849
O O8 0.583555 0.065967 0.165946
O O9 0.750901 0.075529 0.158982
O O10 0.653982 0.145044 0.070912
O O11 0.500000 0.511531 0.250000
O O12 0.583899 0.613928 0.167444
O O13 0.500000 0.843921 0.750000
O O14 0.689670 0.682025 0.250000
#
# Coordination Sequence:
#
# PCOD8258087 Si02
#       7
#     8  16  16   8   8  16  16
#     4  10  19  36  58  80 105 139 179 227 270 311
#     4  10  20  37  56  78 111 146 173 220 278 319
#     4  10  20  36  57  79 109 145 181 222 270 321
#     4  10  21  38  58  80 109 144 181 221 267 318
#     4  10  21  34  52  82 110 137 181 224 261 317
#     4  10  22  37  54  80 109 141 185 225 263 323
#     4   9  20  35  56  83 107 136 184 225 264 324
#
# _framework density 19.417469000000001
#
# number of rings (size 3 to 8) (size 9 to 14) (size 15 to 20)
#    0.000    2.182    0.000    2.455    0.000    3.636 
#    0.000   11.818    0.000    0.000    0.000    0.000 
#    0.000    0.000    0.000    0.000    0.000    0.000 
#
# Total GULP energy -545482.170596 kJ/mol
# GULP energy per Si atom -12397.322059 kJ/mol
# Density = 1.937327 g / cm^3
# Si number density = 19.417469 Si / 1000 Ang^3
#
#
#
# Elastic Constant Matrix: (Units=GPa)
#
#
# Indices 1 2 3 4 5 6 
#
# 1 99.8957 2.7342 15.6781 0.0000 0.0000 0.0000
# 2 2.7342 43.5210 -0.0718 0.0000 0.0000 0.0000
# 3 15.6781 -0.0718 89.7372 0.0000 0.0000 0.0000
# 4 0.0000 0.0000 0.0000 24.0647 0.0000 0.0000
# 5 0.0000 0.0000 0.0000 0.0000 6.4918 0.0000
# 6 0.0000 0.0000 0.0000 0.0000 0.0000 20.4932
#
#
#
# Elastic Compliance Matrix: (Units=1/GPa)
#
#
# Indices 1 2 3 4 5 6 
#
# 1 0.010311 -0.000651 -0.001802 0.000000 0.000000 0.000000
# 2 -0.000651 0.023019 0.000132 0.000000 0.000000 0.000000
# 3 -0.001802 0.000132 0.011459 0.000000 0.000000 0.000000
# 4 0.000000 0.000000 0.000000 0.041555 0.000000 0.000000
# 5 0.000000 0.000000 0.000000 0.000000 0.154041 0.000000
# 6 0.000000 0.000000 0.000000 0.000000 0.000000 0.048797
#
#
# Mechanical properties :
#
#
# Convention : Reuss Voigt Hill
#
# Bulk Modulus (GPa) = 24.90854 29.98167 27.44510
# Shear Modulus (GPa) = 16.27583 24.53083 20.40333
#
# Velocity S-wave (km/s) = 2.89832 3.55820 3.24508
# Velocity P-wave (km/s) = 4.90470 5.68816 5.31090
#
# Compressibility (1/GPa) = 0.04014688
#
# Stress axis : x y z
#
# Youngs Moduli (GPa) = 96.98322 43.44332 87.27081
#
# Poissons Ratio (x) = 0.02827 0.15726
# Poissons Ratio (y) = 0.06311 -0.01153
# Poissons Ratio (z) = 0.17476 -0.00574
#
# Static dielectric constant tensor:
#      x y z
#    x 3.961850 0.000000 0.000000 
#    y 0.000000 3.267230 0.000000 
#    z 0.000000 0.000000 3.689910 
# 
# 
# High freq. dielectric constant tensor:
#      x y z
#    x 1.764450 0.000000 0.000000 
#    y 0.000000 1.743200 0.000000 
#    z 0.000000 0.000000 1.769120 
# 
# From -- ./inp_files/55446.got.cif
#   From: 2010.03.12/outbox.cif.g09.slc.cpg/sg63_28_cif.got.tgz:55446.got - 2010.04.10 19:34:48.
