data_PCOD8258057
_publ_section_title
;
Structure prediction by ZEFSAII (Michael W. Deem and Ramdas Pophale) SiO2 
 PCOD8258057
Probable space group: C M C M
;
_chemical_formula_sum "Si O2"
_cell_formula_units_Z 48
_cell_length_a 7.492673
_cell_length_b 19.111634
_cell_length_c 17.745601
_cell_angle_alpha 90.000000
_cell_angle_beta 90.000000
_cell_angle_gamma 90.000000
_cell_volume 2541.120802
_symmetry_space_group_name_H-M "C M C M"
_symmetry_group_IT_number 63
_symmetry_cell_setting 'orthorhombic'
loop_
_space_group_symop_operation_xyz
x,y,z
-x,-y,1/2+z
x,-y,-z
-x,y,1/2-z
-x,-y,-z
x,y,1/2-z
-x,y,z
x,-y,1/2+z
1/2+x,1/2+y,z
1/2-x,1/2-y,1/2+z
1/2+x,1/2-y,-z
1/2-x,1/2+y,1/2-z
1/2-x,1/2-y,-z
1/2+x,1/2+y,1/2-z
1/2-x,1/2+y,z
1/2+x,1/2-y,1/2+z
loop_
_atom_site_type_symbol
_atom_site_label
_atom_site_fract_x
_atom_site_fract_y
_atom_site_fract_z
Si Si1 0.000000 0.838140 0.160589
Si Si2 0.296059 0.899240 0.662904
Si Si3 0.205466 0.754805 0.587127
Si Si4 0.500000 0.494585 0.161121
O O1 0.177959 0.800447 0.132779
O O2 0.000000 0.836888 0.250000
O O3 0.000000 0.916750 0.126525
O O4 0.255129 0.880961 0.750000
O O5 0.500000 0.921823 0.651328
O O6 0.250187 0.832479 0.613484
O O7 0.175968 0.963793 0.634354
O O8 0.250000 0.750000 0.500000
O O9 0.000000 0.736749 0.602651
O O10 0.500000 0.487008 0.250000
#
# Coordination Sequence:
#
# PCOD8258057 Si02
#       4
#     8  16  16   8
#     4  11  24  41  63  97 128 153 203 265 307 354
#     4  10  19  35  61  88 117 158 208 250 297 368
#     4  12  23  39  62  89 124 165 207 251 307 366
#     4   9  20  37  59  89 124 157 196 251 307 358
#
# _framework density 18.889303999999999
#
# number of rings (size 3 to 8) (size 9 to 14) (size 15 to 20)
#    0.000    1.333    5.000    1.000    0.000    3.333 
#    0.000    6.667    0.000    4.000    0.000    0.000 
#    0.000    0.000    0.000    0.000    0.000    0.000 
#
# Total GULP energy -297667.854401 kJ/mol
# GULP energy per Si atom -12402.827267 kJ/mol
# Density = 1.884631 g / cm^3
# Si number density = 18.889304 Si / 1000 Ang^3
#
#
#
# Elastic Constant Matrix: (Units=GPa)
#
#
# Indices 1 2 3 4 5 6 
#
# 1 184.8088 80.3696 38.4023 0.0000 0.0000 0.0000
# 2 80.3696 170.8627 43.5005 0.0000 0.0000 0.0000
# 3 38.4023 43.5005 76.7343 0.0000 0.0000 0.0000
# 4 0.0000 0.0000 0.0000 -5.4242 0.0000 0.0000
# 5 0.0000 0.0000 0.0000 0.0000 25.7406 0.0000
# 6 0.0000 0.0000 0.0000 0.0000 0.0000 -10.6228
#
#
#
# Elastic Compliance Matrix: (Units=1/GPa)
#
#
# Indices 1 2 3 4 5 6 
#
# 1 0.007037 -0.002821 -0.001923 0.000000 0.000000 0.000000
# 2 -0.002821 0.007970 -0.003107 0.000000 0.000000 0.000000
# 3 -0.001923 -0.003107 0.015756 0.000000 0.000000 0.000000
# 4 0.000000 0.000000 0.000000 -0.184358 0.000000 0.000000
# 5 0.000000 0.000000 0.000000 0.000000 0.038849 0.000000
# 6 0.000000 0.000000 0.000000 0.000000 0.000000 -0.094137
#
#
# Mechanical properties :
#
#
# Convention : Reuss Voigt Hill
#
# Bulk Modulus (GPa) = 66.38948 84.10563 75.24755
# Shear Modulus (GPa) = -26.57291 19.94760 -3.31265
#
# Velocity S-wave (km/s) = -3.75476 3.25318 -1.32572
# Velocity P-wave (km/s) = 4.05281 7.66375 6.13019
#
# Compressibility (1/GPa) = 0.01506263
#
# Stress axis : x y z
#
# Youngs Moduli (GPa) = 142.10282 125.46511 63.46987
#
# Poissons Ratio (x) = 0.35388 0.12204
# Poissons Ratio (y) = 0.40081 0.19719
# Poissons Ratio (z) = 0.27324 0.38979
#
# Static dielectric constant tensor:
#      x y z
#    x 4.016020 0.000000 0.000000 
#    y 0.000000 3.691300 0.000000 
#    z 0.000000 0.000000 3.306750 
# 
# 
# High freq. dielectric constant tensor:
#      x y z
#    x 1.755030 0.000000 0.000000 
#    y 0.000000 1.736080 0.000000 
#    z 0.000000 0.000000 1.720980 
# 
# From -- ./inp_files/26965.got.cif
#   From: 2010.03.12/outbox.cif.g09.slc.cpg/sg63_14_cif.got.tgz:26965.got - 2010.04.10 19:34:48.
