data_PCOD8258746
_publ_section_title
;
Structure prediction by ZEFSAII (Michael W. Deem and Ramdas Pophale) SiO2 
 PCOD8258746
Probable space group: C M C M
;
_chemical_formula_sum "Si O2"
_cell_formula_units_Z 80
_cell_length_a 9.109350
_cell_length_b 18.358563
_cell_length_c 25.676026
_cell_angle_alpha 90.000000
_cell_angle_beta 90.000000
_cell_angle_gamma 90.000000
_cell_volume 4293.919318
_symmetry_space_group_name_H-M "C M C M"
_symmetry_group_IT_number 63
_symmetry_cell_setting 'orthorhombic'
loop_
_space_group_symop_operation_xyz
x,y,z
-x,-y,1/2+z
x,-y,-z
-x,y,1/2-z
-x,-y,-z
x,y,1/2-z
-x,y,z
x,-y,1/2+z
1/2+x,1/2+y,z
1/2-x,1/2-y,1/2+z
1/2+x,1/2-y,-z
1/2-x,1/2+y,1/2-z
1/2-x,1/2-y,-z
1/2+x,1/2+y,1/2-z
1/2-x,1/2+y,z
1/2+x,1/2-y,1/2+z
loop_
_atom_site_type_symbol
_atom_site_label
_atom_site_fract_x
_atom_site_fract_y
_atom_site_fract_z
Si Si1 0.326766 0.921120 0.057155
Si Si2 0.826100 0.415622 0.941238
Si Si3 0.672088 0.335195 0.649697
Si Si4 0.674033 0.579178 0.250000
Si Si5 0.672141 0.833332 0.343916
Si Si6 0.325696 0.412768 0.250000
O O1 0.500000 0.924792 0.054065
O O2 0.273782 0.863361 0.100121
O O3 0.272195 0.002293 0.072124
O O4 0.271317 0.896966 0.999950
O O5 0.750056 0.359205 0.902962
O O6 0.000000 0.407441 0.935383
O O7 0.500000 0.347813 0.642543
O O8 0.735416 0.380860 0.698492
O O9 0.709167 0.251310 0.659888
O O10 0.500000 0.585572 0.250000
O O11 0.728177 0.496251 0.250000
O O12 0.500000 0.848402 0.334974
O O13 0.763833 0.874629 0.300779
O O14 0.500000 0.407303 0.250000
#
# Coordination Sequence:
#
# PCOD8258746 Si02
#       6
#    16  16  16   8  16   8
#     4   8  16  32  53  75 100 135 175 208 244 293
#     4   9  17  32  53  75 102 134 169 212 252 287
#     4  10  20  34  52  74 101 133 166 202 249 303
#     4   9  19  35  51  69  98 131 160 198 252 303
#     4  10  20  35  54  74 100 135 170 201 242 304
#     4  11  22  35  53  75  98 125 162 210 254 291
#
# _framework density 18.630997000000001
#
# number of rings (size 3 to 8) (size 9 to 14) (size 15 to 20)
#    0.000    2.600    0.000    3.300    0.000    3.200 
#    0.000    4.500    0.000    0.000    0.000    0.000 
#    0.000    0.000    0.000    0.000    0.000    0.000 
#
# Total GULP energy -495965.335909 kJ/mol
# GULP energy per Si atom -12399.133398 kJ/mol
# Density = 1.858859 g / cm^3
# Si number density = 18.630997 Si / 1000 Ang^3
#
#
#
# Elastic Constant Matrix: (Units=GPa)
#
#
# Indices 1 2 3 4 5 6 
#
# 1 37.4352 49.6985 46.0249 0.0000 0.0000 0.0000
# 2 49.6985 142.2296 92.4542 0.0000 0.0000 0.0000
# 3 46.0249 92.4542 157.8525 0.0000 0.0000 0.0000
# 4 0.0000 0.0000 0.0000 -4.7614 0.0000 0.0000
# 5 0.0000 0.0000 0.0000 0.0000 907.5525 0.0000
# 6 0.0000 0.0000 0.0000 0.0000 0.0000 6.8387
#
#
#
# Elastic Compliance Matrix: (Units=1/GPa)
#
#
# Indices 1 2 3 4 5 6 
#
# 1 0.055115 -0.014230 -0.007735 0.000000 0.000000 0.000000
# 2 -0.014230 0.015028 -0.004653 0.000000 0.000000 0.000000
# 3 -0.007735 -0.004653 0.011315 0.000000 0.000000 0.000000
# 4 0.000000 0.000000 0.000000 -0.210024 0.000000 0.000000
# 5 0.000000 0.000000 0.000000 0.000000 0.001102 0.000000
# 6 0.000000 0.000000 0.000000 0.000000 0.000000 0.146227
#
#
# Mechanical properties :
#
#
# Convention : Reuss Voigt Hill
#
# Bulk Modulus (GPa) = 35.43364 79.31917 57.37641
# Shear Modulus (GPa) = 61.42098 191.88195 126.65146
#
# Velocity S-wave (km/s) = 5.74793 10.15944 8.25388
# Velocity P-wave (km/s) = 7.94427 13.42703 11.03170
#
# Compressibility (1/GPa) = 0.02822177
#
# Stress axis : x y z
#
# Youngs Moduli (GPa) = 18.14396 66.54403 88.37577
#
# Poissons Ratio (x) = 0.94695 0.68359
# Poissons Ratio (y) = 0.25820 0.41117
# Poissons Ratio (z) = 0.14034 0.30960
#
# Static dielectric constant tensor:
#      x y z
#    x 3.047230 0.000000 0.000000 
#    y 0.000000 3.533690 0.000000 
#    z 0.000000 0.000000 3.890560 
# 
# 
# High freq. dielectric constant tensor:
#      x y z
#    x 1.685810 0.000000 0.000000 
#    y 0.000000 1.729540 0.000000 
#    z 0.000000 0.000000 1.740610 
# 
# From -- ./inp_files/66671.got.cif
#   From: 2010.03.12/outbox.cif.g09.slc.cpg/sg63_34_cif.got.tgz:66671.got - 2010.04.10 19:34:48.
