data_PCOD8258178
_publ_section_title
;
Structure prediction by ZEFSAII (Michael W. Deem and Ramdas Pophale) SiO2 
 PCOD8258178
Probable space group: C M C M
;
_chemical_formula_sum "Si O2"
_cell_formula_units_Z 96
_cell_length_a 14.069551
_cell_length_b 13.781667
_cell_length_c 26.033912
_cell_angle_alpha 90.000000
_cell_angle_beta 90.000000
_cell_angle_gamma 90.000000
_cell_volume 5048.024135
_symmetry_space_group_name_H-M "C M C M"
_symmetry_group_IT_number 63
_symmetry_cell_setting 'orthorhombic'
loop_
_space_group_symop_operation_xyz
x,y,z
-x,-y,1/2+z
x,-y,-z
-x,y,1/2-z
-x,-y,-z
x,y,1/2-z
-x,y,z
x,-y,1/2+z
1/2+x,1/2+y,z
1/2-x,1/2-y,1/2+z
1/2+x,1/2-y,-z
1/2-x,1/2+y,1/2-z
1/2-x,1/2-y,-z
1/2+x,1/2+y,1/2-z
1/2-x,1/2+y,z
1/2+x,1/2-y,1/2+z
loop_
_atom_site_type_symbol
_atom_site_label
_atom_site_fract_x
_atom_site_fract_y
_atom_site_fract_z
Si Si1 0.500000 0.311298 0.529301
Si Si2 0.833181 0.943184 0.544964
Si Si3 0.500000 0.656220 0.351992
Si Si4 0.813887 0.642687 0.124034
Si Si5 0.000000 0.957565 0.399662
Si Si6 0.179169 0.259610 0.309673
Si Si7 0.500000 0.763695 0.579133
Si Si8 0.890592 0.471316 0.189854
O O1 0.403028 0.367397 0.517209
O O2 0.500000 0.290792 0.591214
O O3 0.500000 0.231333 0.483716
O O4 0.761576 0.888136 0.581455
O O5 0.775742 0.000000 0.500000
O O6 0.901270 0.020988 0.572068
O O7 0.500000 0.537657 0.353275
O O8 0.592575 0.687236 0.320931
O O9 0.771386 0.729899 0.157884
O O10 0.908888 0.677452 0.097272
O O11 0.831152 0.551478 0.160390
O O12 0.000000 0.841401 0.391679
O O13 0.205099 0.253936 0.250000
O O14 0.150921 0.367610 0.326170
O O15 0.879391 0.490468 0.250000
O O16 0.000000 0.475184 0.173084
#
# Coordination Sequence:
#
# PCOD8258178 Si02
#       8
#     8  16   8  16   8  16   8  16
#     4  10  19  39  62  89 123 161 207 250 319 372
#     4  10  19  39  65  87 120 167 208 246 308 375
#     4  10  19  38  65  97 122 156 209 266 306 358
#     4  12  25  41  60  97 128 161 211 266 309 370
#     4  10  19  39  64  86 124 159 197 252 312 360
#     4  11  22  39  69  99 121 162 215 261 317 377
#     4  12  26  40  59  90 132 171 205 257 317 377
#     4  10  22  43  65  85 123 170 203 250 319 385
#
# _framework density 19.017341999999999
#
# number of rings (size 3 to 8) (size 9 to 14) (size 15 to 20)
#    0.000    1.500    6.667    1.250    2.333    0.667 
#    3.000    0.417    0.000    3.000    0.000    0.000 
#    0.000    0.000    0.000    0.000    0.000    0.000 
#
# Total GULP energy -594707.106747 kJ/mol
# GULP energy per Si atom -12389.731391 kJ/mol
# Density = 1.897406 g / cm^3
# Si number density = 19.017342 Si / 1000 Ang^3
#
#
#
# Elastic Constant Matrix: (Units=GPa)
#
#
# Indices 1 2 3 4 5 6 
#
# 1 109.9173 35.8192 36.1562 0.0000 0.0000 0.0000
# 2 35.8192 88.2224 25.3445 0.0000 0.0000 0.0000
# 3 36.1562 25.3445 55.5050 0.0000 0.0000 0.0000
# 4 0.0000 0.0000 0.0000 23.4753 0.0000 0.0000
# 5 0.0000 0.0000 0.0000 0.0000 7.4610 0.0000
# 6 0.0000 0.0000 0.0000 0.0000 0.0000 -483.9325
#
#
#
# Elastic Compliance Matrix: (Units=1/GPa)
#
#
# Indices 1 2 3 4 5 6 
#
# 1 0.012270 -0.003091 -0.006581 0.000000 0.000000 0.000000
# 2 -0.003091 0.013825 -0.004299 0.000000 0.000000 0.000000
# 3 -0.006581 -0.004299 0.024267 0.000000 0.000000 0.000000
# 4 0.000000 0.000000 0.000000 0.042598 0.000000 0.000000
# 5 0.000000 0.000000 0.000000 0.000000 0.134031 0.000000
# 6 0.000000 0.000000 0.000000 0.000000 0.000000 -0.002066
#
#
# Mechanical properties :
#
#
# Convention : Reuss Voigt Hill
#
# Bulk Modulus (GPa) = 44.60608 49.80939 47.20773
# Shear Modulus (GPa) = 19.20567 -80.17759 -30.48596
#
# Velocity S-wave (km/s) = 3.18134 -6.50014 -4.00817
# Velocity P-wave (km/s) = 6.08285 5.48519 1.85926
#
# Compressibility (1/GPa) = 0.02241847
#
# Stress axis : x y z
#
# Youngs Moduli (GPa) = 81.50042 72.33241 41.20902
#
# Poissons Ratio (x) = 0.22358 0.27121
# Poissons Ratio (y) = 0.25192 0.17717
# Poissons Ratio (z) = 0.53637 0.31097
#
# Static dielectric constant tensor:
#      x y z
#    x 3.505850 0.000000 0.000000 
#    y 0.000000 3.456340 0.000000 
#    z 0.000000 0.000000 3.498800 
# 
# 
# High freq. dielectric constant tensor:
#      x y z
#    x 1.740990 0.000000 0.000000 
#    y 0.000000 1.731110 0.000000 
#    z 0.000000 0.000000 1.738520 
# 
# From -- ./inp_files/72815.got.cif
#   From: 2010.03.12/outbox.cif.g09.slc.cpg/sg63_37_cif.got.tgz:72815.got - 2010.04.10 19:34:48.
