data_PCOD8258042
_publ_section_title
;
Structure prediction by ZEFSAII (Michael W. Deem and Ramdas Pophale) SiO2 
 PCOD8258042
Probable space group: C M C M
;
_chemical_formula_sum "Si O2"
_cell_formula_units_Z 112
_cell_length_a 13.690560
_cell_length_b 14.713404
_cell_length_c 27.651867
_cell_angle_alpha 90.000000
_cell_angle_beta 90.000000
_cell_angle_gamma 90.000000
_cell_volume 5570.046647
_symmetry_space_group_name_H-M "C M C M"
_symmetry_group_IT_number 63
_symmetry_cell_setting 'orthorhombic'
loop_
_space_group_symop_operation_xyz
x,y,z
-x,-y,1/2+z
x,-y,-z
-x,y,1/2-z
-x,-y,-z
x,y,1/2-z
-x,y,z
x,-y,1/2+z
1/2+x,1/2+y,z
1/2-x,1/2-y,1/2+z
1/2+x,1/2-y,-z
1/2-x,1/2+y,1/2-z
1/2-x,1/2-y,-z
1/2+x,1/2+y,1/2-z
1/2-x,1/2+y,z
1/2+x,1/2-y,1/2+z
loop_
_atom_site_type_symbol
_atom_site_label
_atom_site_fract_x
_atom_site_fract_y
_atom_site_fract_z
Si Si1 0.393299 0.284766 0.615110
Si Si2 0.614427 0.960942 0.951068
Si Si3 0.383359 0.702019 0.639713
Si Si4 0.392672 0.916582 0.133190
Si Si5 0.258090 0.336539 0.806517
Si Si6 0.278228 0.450198 0.194305
Si Si7 0.281647 0.219972 0.052930
O O1 0.500000 0.330589 0.608046
O O2 0.400572 0.177772 0.604423
O O3 0.357328 0.297501 0.670243
O O4 0.314616 0.325121 0.577571
O O5 0.500000 0.980425 0.951372
O O6 0.634277 0.854697 0.949148
O O7 0.656927 0.011881 0.903932
O O8 0.662979 0.000000 0.000000
O O9 0.500000 0.715645 0.635829
O O10 0.337014 0.787256 0.669839
O O11 0.361877 0.603636 0.664167
O O12 0.329696 0.701297 0.586866
O O13 0.500000 0.948469 0.150674
O O14 0.325191 0.905160 0.180337
O O15 0.256465 0.315019 0.750000
O O16 0.264888 0.443736 0.817528
O O17 0.302143 0.433120 0.250000
O O18 0.250000 0.250000 0.000000
#
# Coordination Sequence:
#
# PCOD8258042 Si02
#       7
#    16  16  16  16  16  16  16
#     4  10  21  37  58  85 119 159 201 251 305 365
#     4  10  21  36  61  95 124 155 205 263 323 384
#     4  11  24  43  66  95 130 168 215 269 324 384
#     4  10  19  35  59  87 119 156 200 254 313 368
#     4  10  22  40  63  92 127 168 213 261 317 380
#     4  11  23  39  62  93 128 168 210 258 320 382
#     4  11  22  39  62  89 122 164 204 256 318 379
#
# _framework density 20.107551000000001
#
# number of rings (size 3 to 8) (size 9 to 14) (size 15 to 20)
#    0.000    1.571    2.857    3.429    0.000    6.286 
#    0.000    4.286    0.000    0.429    0.000    0.000 
#    0.000    0.000    0.000    0.000    0.000    0.000 
#
# Total GULP energy -693978.698919 kJ/mol
# GULP energy per Si atom -12392.476766 kJ/mol
# Density = 2.006179 g / cm^3
# Si number density = 20.107551 Si / 1000 Ang^3
#
#
#
# Elastic Constant Matrix: (Units=GPa)
#
#
# Indices 1 2 3 4 5 6 
#
# 1 122.7633 8.6010 48.5511 0.0000 0.0000 0.0000
# 2 8.6010 76.5208 30.2961 0.0000 0.0000 0.0000
# 3 48.5511 30.2961 129.4669 0.0000 0.0000 0.0000
# 4 0.0000 0.0000 0.0000 31.3147 0.0000 0.0000
# 5 0.0000 0.0000 0.0000 0.0000 17.7097 0.0000
# 6 0.0000 0.0000 0.0000 0.0000 0.0000 28.9507
#
#
#
# Elastic Compliance Matrix: (Units=1/GPa)
#
#
# Indices 1 2 3 4 5 6 
#
# 1 0.009574 0.000381 -0.003679 0.000000 0.000000 0.000000
# 2 0.000381 0.014418 -0.003517 0.000000 0.000000 0.000000
# 3 -0.003679 -0.003517 0.009927 0.000000 0.000000 0.000000
# 4 0.000000 0.000000 0.000000 0.031934 0.000000 0.000000
# 5 0.000000 0.000000 0.000000 0.000000 0.056466 0.000000
# 6 0.000000 0.000000 0.000000 0.000000 0.000000 0.034542
#
#
# Mechanical properties :
#
#
# Convention : Reuss Voigt Hill
#
# Bulk Modulus (GPa) = 49.29045 55.96082 52.62563
# Shear Modulus (GPa) = 28.20807 31.68185 29.94496
#
# Velocity S-wave (km/s) = 3.74954 3.97371 3.86325
# Velocity P-wave (km/s) = 6.58119 6.99607 6.79180
#
# Compressibility (1/GPa) = 0.02028790
#
# Stress axis : x y z
#
# Youngs Moduli (GPa) = 104.44652 69.35844 100.73809
#
# Poissons Ratio (x) = -0.02640 0.37067
# Poissons Ratio (y) = -0.03975 0.35426
# Poissons Ratio (z) = 0.38431 0.24391
#
# Static dielectric constant tensor:
#      x y z
#    x 3.666060 0.000000 0.000000 
#    y 0.000000 3.694810 0.000000 
#    z 0.000000 0.000000 3.800200 
# 
# 
# High freq. dielectric constant tensor:
#      x y z
#    x 1.776870 0.000000 0.000000 
#    y 0.000000 1.779760 0.000000 
#    z 0.000000 0.000000 1.787410 
# 
# From -- ./inp_files/69407.got.cif
#   From: 2010.03.12/outbox.cif.g09.slc.cpg/sg63_35_cif.got.tgz:69407.got - 2010.04.10 19:34:48.
