data_PCOD8258604
_publ_section_title
;
Structure prediction by ZEFSAII (Michael W. Deem and Ramdas Pophale) SiO2 
 PCOD8258604
Probable space group: C M C M
;
_chemical_formula_sum "Si O2"
_cell_formula_units_Z 64
_cell_length_a 9.708441
_cell_length_b 36.743722
_cell_length_c 9.681794
_cell_angle_alpha 90.000000
_cell_angle_beta 90.000000
_cell_angle_gamma 90.000000
_cell_volume 3453.730773
_symmetry_space_group_name_H-M "C M C M"
_symmetry_group_IT_number 63
_symmetry_cell_setting 'orthorhombic'
loop_
_space_group_symop_operation_xyz
x,y,z
-x,-y,1/2+z
x,-y,-z
-x,y,1/2-z
-x,-y,-z
x,y,1/2-z
-x,y,z
x,-y,1/2+z
1/2+x,1/2+y,z
1/2-x,1/2-y,1/2+z
1/2+x,1/2-y,-z
1/2-x,1/2+y,1/2-z
1/2-x,1/2-y,-z
1/2+x,1/2+y,1/2-z
1/2-x,1/2+y,z
1/2+x,1/2-y,1/2+z
loop_
_atom_site_type_symbol
_atom_site_label
_atom_site_fract_x
_atom_site_fract_y
_atom_site_fract_z
Si Si1 0.836107 0.033190 0.407637
Si Si2 0.657554 0.599184 0.904975
Si Si3 0.842099 0.299093 0.750000
Si Si4 0.841957 0.271756 0.250000
Si Si5 0.841777 0.667401 0.964101
O O1 0.778313 0.031889 0.250000
O O2 0.787296 0.070126 0.483215
O O3 0.000000 0.031143 0.404535
O O4 0.777342 0.000000 0.500000
O O5 0.668377 0.582531 0.750000
O O6 0.500000 0.609643 0.938285
O O7 0.747426 0.635216 0.910646
O O8 0.750357 0.263592 0.750000
O O9 0.808669 0.325100 0.622537
O O10 0.000000 0.285834 0.750000
O O11 0.806875 0.295538 0.115846
O O12 0.000000 0.258986 0.250000
O O13 0.000000 0.656138 0.938049
#
# Coordination Sequence:
#
# PCOD8258604 Si02
#       5
#    16  16   8   8  16
#     4   9  17  30  50  77 110 143 174 214 263 310
#     4  10  20  33  52  79 107 138 179 222 262 308
#     4  10  22  36  54  78 105 136 175 221 268 317
#     4  10  20  36  56  76 101 138 179 217 264 319
#     4  10  21  37  54  76 107 142 176 214 266 321
#
# _framework density 18.530685999999999
#
# number of rings (size 3 to 8) (size 9 to 14) (size 15 to 20)
#    0.000    2.250    1.250    1.500    1.750    5.000 
#    0.000    0.000    0.000    0.750    0.000    0.000 
#    0.000    0.000    0.000    0.000    0.000    0.000 
#
# Total GULP energy -396799.879400 kJ/mol
# GULP energy per Si atom -12399.996231 kJ/mol
# Density = 1.848851 g / cm^3
# Si number density = 18.530686 Si / 1000 Ang^3
#
#
#
# Elastic Constant Matrix: (Units=GPa)
#
#
# Indices 1 2 3 4 5 6 
#
# 1 50.1413 42.7606 26.7637 0.0000 0.0000 0.0000
# 2 42.7606 88.6802 36.6961 0.0000 0.0000 0.0000
# 3 26.7637 36.6961 137.7095 0.0000 0.0000 0.0000
# 4 0.0000 0.0000 0.0000 24.9922 0.0000 0.0000
# 5 0.0000 0.0000 0.0000 0.0000 21.5187 0.0000
# 6 0.0000 0.0000 0.0000 0.0000 0.0000 12.9029
#
#
#
# Elastic Compliance Matrix: (Units=1/GPa)
#
#
# Indices 1 2 3 4 5 6 
#
# 1 0.034660 -0.015651 -0.002566 0.000000 0.000000 0.000000
# 2 -0.015651 0.019741 -0.002219 0.000000 0.000000 0.000000
# 3 -0.002566 -0.002219 0.008352 0.000000 0.000000 0.000000
# 4 0.000000 0.000000 0.000000 0.040012 0.000000 0.000000
# 5 0.000000 0.000000 0.000000 0.000000 0.046471 0.000000
# 6 0.000000 0.000000 0.000000 0.000000 0.000000 0.077502
#
#
# Mechanical properties :
#
#
# Convention : Reuss Voigt Hill
#
# Bulk Modulus (GPa) = 45.69914 54.33021 50.01468
# Shear Modulus (GPa) = 18.18815 23.23680 20.71248
#
# Velocity S-wave (km/s) = 3.13631 3.54498 3.34689
# Velocity P-wave (km/s) = 6.15062 6.79253 6.47953
#
# Compressibility (1/GPa) = 0.02188225
#
# Stress axis : x y z
#
# Youngs Moduli (GPa) = 28.85130 50.65480 119.73850
#
# Poissons Ratio (x) = 0.79281 0.30720
# Poissons Ratio (y) = 0.45156 0.26568
# Poissons Ratio (z) = 0.07402 0.11239
#
# Static dielectric constant tensor:
#      x y z
#    x 3.094320 0.000000 0.000000 
#    y 0.000000 3.223840 0.000000 
#    z 0.000000 0.000000 3.769980 
# 
# 
# High freq. dielectric constant tensor:
#      x y z
#    x 1.682730 0.000000 0.000000 
#    y 0.000000 1.714780 0.000000 
#    z 0.000000 0.000000 1.744090 
# 
# From -- ./inp_files/3207.got.cif
#   From: 2010.03.12/outbox.cif.g09.slc.cpg/sg63_2_cif.got.tgz:3207.got - 2010.04.10 19:34:48.
