data_PCOD8258391
_publ_section_title
;
Structure prediction by ZEFSAII (Michael W. Deem and Ramdas Pophale) SiO2 
 PCOD8258391
Probable space group: C M C M
;
_chemical_formula_sum "Si O2"
_cell_formula_units_Z 64
_cell_length_a 16.813468
_cell_length_b 11.816496
_cell_length_c 13.974401
_cell_angle_alpha 90.000000
_cell_angle_beta 90.000000
_cell_angle_gamma 90.000000
_cell_volume 2776.381969
_symmetry_space_group_name_H-M "C M C M"
_symmetry_group_IT_number 63
_symmetry_cell_setting 'orthorhombic'
loop_
_space_group_symop_operation_xyz
x,y,z
-x,-y,1/2+z
x,-y,-z
-x,y,1/2-z
-x,-y,-z
x,y,1/2-z
-x,y,z
x,-y,1/2+z
1/2+x,1/2+y,z
1/2-x,1/2-y,1/2+z
1/2+x,1/2-y,-z
1/2-x,1/2+y,1/2-z
1/2-x,1/2-y,-z
1/2+x,1/2+y,1/2-z
1/2-x,1/2+y,z
1/2+x,1/2-y,1/2+z
loop_
_atom_site_type_symbol
_atom_site_label
_atom_site_fract_x
_atom_site_fract_y
_atom_site_fract_z
Si Si1 0.411042 0.337723 0.636762
Si Si2 0.593969 0.786584 0.857809
Si Si3 0.315962 0.445950 0.138081
Si Si4 0.684799 0.161180 0.970585
O O1 0.411866 0.341701 0.750000
O O2 0.500000 0.350190 0.595765
O O3 0.358403 0.441943 0.597190
O O4 0.375829 0.218292 0.604027
O O5 0.617306 0.823487 0.750000
O O6 0.500000 0.786316 0.871624
O O7 0.626451 0.660970 0.880915
O O8 0.634794 0.873658 0.933528
O O9 0.297155 0.456587 0.250000
O O10 0.231251 0.440606 0.082308
O O11 0.750000 0.250000 0.000000
#
# Coordination Sequence:
#
# PCOD8258391 Si02
#       4
#    16  16  16  16
#     4  10  20  35  58  88 118 148 186 232 280 334
#     4   9  17  30  48  71 102 142 187 233 279 327
#     4   9  18  33  53  80 114 147 181 228 287 343
#     4  10  20  32  50  79 115 150 184 229 284 337
#
# _framework density 23.051583000000001
#
# number of rings (size 3 to 8) (size 9 to 14) (size 15 to 20)
#    0.000    2.500    0.000    2.250    0.000    8.000 
#    0.000    6.250    0.000    1.500    0.000   36.750 
#    0.000   64.000    0.000    0.000    0.000    0.250 
#
# Total GULP energy -396694.038813 kJ/mol
# GULP energy per Si atom -12396.688713 kJ/mol
# Density = 2.299912 g / cm^3
# Si number density = 23.051583 Si / 1000 Ang^3
#
#
#
# Elastic Constant Matrix: (Units=GPa)
#
#
# Indices 1 2 3 4 5 6 
#
# 1 169.5982 58.6650 78.2992 0.0000 0.0000 0.0000
# 2 58.6650 45.0078 21.0466 0.0000 0.0000 0.0000
# 3 78.2992 21.0466 56.7657 0.0000 0.0000 0.0000
# 4 0.0000 0.0000 0.0000 23.0778 0.0000 0.0000
# 5 0.0000 0.0000 0.0000 0.0000 43.9968 0.0000
# 6 0.0000 0.0000 0.0000 0.0000 0.0000 36.5661
#
#
#
# Elastic Compliance Matrix: (Units=1/GPa)
#
#
# Indices 1 2 3 4 5 6 
#
# 1 0.026321 -0.020966 -0.028533 0.000000 0.000000 0.000000
# 2 -0.020966 0.043578 0.012762 0.000000 0.000000 0.000000
# 3 -0.028533 0.012762 0.052241 0.000000 0.000000 0.000000
# 4 0.000000 0.000000 0.000000 0.043332 0.000000 0.000000
# 5 0.000000 0.000000 0.000000 0.000000 0.022729 0.000000
# 6 0.000000 0.000000 0.000000 0.000000 0.000000 0.027348
#
#
# Mechanical properties :
#
#
# Convention : Reuss Voigt Hill
#
# Bulk Modulus (GPa) = 20.54777 65.26594 42.90685
# Shear Modulus (GPa) = 16.38030 28.28553 22.33291
#
# Velocity S-wave (km/s) = 2.66859 3.50673 3.11597
# Velocity P-wave (km/s) = 4.29282 6.69109 5.62134
#
# Compressibility (1/GPa) = 0.04866708
#
# Stress axis : x y z
#
# Youngs Moduli (GPa) = 37.99206 22.94718 19.14207
#
# Poissons Ratio (x) = 0.48111 0.54617
# Poissons Ratio (y) = 0.79653 -0.24429
# Poissons Ratio (z) = 1.08402 -0.29284
#
# Static dielectric constant tensor:
#      x y z
#    x 4.561230 0.000000 0.000000 
#    y 0.000000 3.972220 0.000000 
#    z 0.000000 0.000000 4.773190 
# 
# 
# High freq. dielectric constant tensor:
#      x y z
#    x 1.919350 0.000000 0.000000 
#    y 0.000000 1.868920 0.000000 
#    z 0.000000 0.000000 1.934560 
# 
# From -- ./inp_files/33332.got.cif
#   From: 2010.03.12/outbox.cif.g09.slc.cpg/sg63_17_cif.got.tgz:33332.got - 2010.04.10 19:34:48.
