data_PCOD8258728
_publ_section_title
;
Structure prediction by ZEFSAII (Michael W. Deem and Ramdas Pophale) SiO2 
 PCOD8258728
Probable space group: C M C M
;
_chemical_formula_sum "Si O2"
_cell_formula_units_Z 96
_cell_length_a 13.483401
_cell_length_b 25.745935
_cell_length_c 15.923575
_cell_angle_alpha 90.000000
_cell_angle_beta 90.000000
_cell_angle_gamma 90.000000
_cell_volume 5527.753866
_symmetry_space_group_name_H-M "C M C M"
_symmetry_group_IT_number 63
_symmetry_cell_setting 'orthorhombic'
loop_
_space_group_symop_operation_xyz
x,y,z
-x,-y,1/2+z
x,-y,-z
-x,y,1/2-z
-x,-y,-z
x,y,1/2-z
-x,y,z
x,-y,1/2+z
1/2+x,1/2+y,z
1/2-x,1/2-y,1/2+z
1/2+x,1/2-y,-z
1/2-x,1/2+y,1/2-z
1/2-x,1/2-y,-z
1/2+x,1/2+y,1/2-z
1/2-x,1/2+y,z
1/2+x,1/2-y,1/2+z
loop_
_atom_site_type_symbol
_atom_site_label
_atom_site_fract_x
_atom_site_fract_y
_atom_site_fract_z
Si Si1 0.617702 0.035487 0.921624
Si Si2 0.887424 0.190414 0.848368
Si Si3 0.609919 0.243670 0.847133
Si Si4 0.700777 0.850218 0.074967
Si Si5 0.881775 0.364992 0.750000
Si Si6 0.383100 0.015681 0.250000
Si Si7 0.697494 0.797761 0.897971
O O1 0.500000 0.041650 0.920751
O O2 0.666283 0.091253 0.932158
O O3 0.658330 0.011301 0.834481
O O4 0.651306 0.000000 0.000000
O O5 0.860487 0.190972 0.750000
O O6 0.816367 0.150395 0.897723
O O7 0.872364 0.248163 0.884173
O O8 0.000000 0.172573 0.863624
O O9 0.613749 0.257565 0.750000
O O10 0.500000 0.254062 0.883679
O O11 0.638280 0.182847 0.857169
O O12 0.687283 0.281300 0.893520
O O13 0.679190 0.821272 0.988383
O O14 0.851119 0.424830 0.750000
O O15 0.831726 0.341202 0.668365
O O16 0.000000 0.356132 0.750000
O O17 0.500000 0.010747 0.250000
#
# Coordination Sequence:
#
# PCOD8258728 Si02
#       7
#    16  16  16  16   8   8  16
#     4  10  21  37  53  78 109 135 176 222 266 321
#     4  10  20  35  53  78 111 143 178 218 259 313
#     4  10  20  34  51  76 112 143 171 209 255 315
#     4  11  22  32  54  79 107 141 178 217 263 318
#     4  11  20  34  54  75 103 141 180 214 260 315
#     4   9  20  34  53  73  99 139 171 214 269 311
#     4  11  20  33  51  78 108 139 177 216 256 313
#
# _framework density 17.366910000000001
#
# number of rings (size 3 to 8) (size 9 to 14) (size 15 to 20)
#    0.000    1.667    1.667    5.500    2.333    6.000 
#    0.000    0.000    0.000    0.500    0.000    2.333 
#    0.000    0.000    0.000    0.000    0.000    0.000 
#
# Total GULP energy -595208.454097 kJ/mol
# GULP energy per Si atom -12400.176127 kJ/mol
# Density = 1.732738 g / cm^3
# Si number density = 17.366910 Si / 1000 Ang^3
#
#
#
# Elastic Constant Matrix: (Units=GPa)
#
#
# Indices 1 2 3 4 5 6 
#
# 1 70.9329 27.5253 21.4172 0.0000 0.0000 0.0000
# 2 27.5253 109.9955 39.2768 0.0000 0.0000 0.0000
# 3 21.4172 39.2768 96.9653 0.0000 0.0000 0.0000
# 4 0.0000 0.0000 0.0000 36.1752 0.0000 0.0000
# 5 0.0000 0.0000 0.0000 0.0000 34.8899 0.0000
# 6 0.0000 0.0000 0.0000 0.0000 0.0000 21.4002
#
#
#
# Elastic Compliance Matrix: (Units=1/GPa)
#
#
# Indices 1 2 3 4 5 6 
#
# 1 0.016019 -0.003209 -0.002238 0.000000 0.000000 0.000000
# 2 -0.003209 0.011272 -0.003857 0.000000 0.000000 0.000000
# 3 -0.002238 -0.003857 0.012370 0.000000 0.000000 0.000000
# 4 0.000000 0.000000 0.000000 0.027643 0.000000 0.000000
# 5 0.000000 0.000000 0.000000 0.000000 0.028662 0.000000
# 6 0.000000 0.000000 0.000000 0.000000 0.000000 0.046728
#
#
# Mechanical properties :
#
#
# Convention : Reuss Voigt Hill
#
# Bulk Modulus (GPa) = 47.50283 50.48136 48.99209
# Shear Modulus (GPa) = 29.70546 31.13805 30.42175
#
# Velocity S-wave (km/s) = 4.14026 4.23892 4.18988
# Velocity P-wave (km/s) = 7.08996 7.28619 7.18875
#
# Compressibility (1/GPa) = 0.02105138
#
# Stress axis : x y z
#
# Youngs Moduli (GPa) = 62.42582 88.71882 80.84365
#
# Poissons Ratio (x) = 0.28473 0.18094
# Poissons Ratio (y) = 0.20035 0.31180
# Poissons Ratio (z) = 0.13972 0.34217
#
# Static dielectric constant tensor:
#      x y z
#    x 3.251180 0.000000 0.000000 
#    y 0.000000 3.117180 0.000000 
#    z 0.000000 0.000000 1.294010 
# 
# 
# High freq. dielectric constant tensor:
#      x y z
#    x 1.656610 0.000000 0.000000 
#    y 0.000000 1.653810 0.000000 
#    z 0.000000 0.000000 1.691890 
# 
# From -- ./inp_files/32212.got.cif
#   From: 2010.03.12/outbox.cif.g09.slc.cpg/sg63_17_cif.got.tgz:32212.got - 2010.04.10 19:34:48.
