data_PCOD8258475
_publ_section_title
;
Structure prediction by ZEFSAII (Michael W. Deem and Ramdas Pophale) SiO2 
 PCOD8258475
Probable space group: C M C M
;
_chemical_formula_sum "Si O2"
_cell_formula_units_Z 96
_cell_length_a 9.107896
_cell_length_b 30.867977
_cell_length_c 18.836179
_cell_angle_alpha 90.000000
_cell_angle_beta 90.000000
_cell_angle_gamma 90.000000
_cell_volume 5295.647144
_symmetry_space_group_name_H-M "C M C M"
_symmetry_group_IT_number 63
_symmetry_cell_setting 'orthorhombic'
loop_
_space_group_symop_operation_xyz
x,y,z
-x,-y,1/2+z
x,-y,-z
-x,y,1/2-z
-x,-y,-z
x,y,1/2-z
-x,y,z
x,-y,1/2+z
1/2+x,1/2+y,z
1/2-x,1/2-y,1/2+z
1/2+x,1/2-y,-z
1/2-x,1/2+y,1/2-z
1/2-x,1/2-y,-z
1/2+x,1/2+y,1/2-z
1/2-x,1/2+y,z
1/2+x,1/2-y,1/2+z
loop_
_atom_site_type_symbol
_atom_site_label
_atom_site_fract_x
_atom_site_fract_y
_atom_site_fract_z
Si Si1 0.829927 0.793171 0.585928
Si Si2 0.169598 0.794224 0.421550
Si Si3 0.665780 0.453960 0.834589
Si Si4 0.831574 0.631270 0.165985
Si Si5 0.829106 0.876874 0.331933
Si Si6 0.165585 0.537767 0.834545
O O1 0.804560 0.804821 0.503865
O O2 0.768364 0.745708 0.603537
O O3 0.742856 0.826965 0.632987
O O4 0.000000 0.794584 0.607001
O O5 0.221710 0.835552 0.376859
O O6 0.000000 0.782753 0.406408
O O7 0.666545 0.455012 0.750000
O O8 0.500000 0.452883 0.863992
O O9 0.750473 0.411647 0.862553
O O10 0.746348 0.496538 0.865070
O O11 0.817316 0.634993 0.250000
O O12 0.000000 0.628727 0.141777
O O13 0.791784 0.867501 0.250000
O O14 0.741378 0.918247 0.361441
O O15 0.000000 0.886894 0.342572
O O16 0.168129 0.536403 0.750000
O O17 0.000000 0.536004 0.863709
#
# Coordination Sequence:
#
# PCOD8258475 Si02
#       6
#    16  16  16  16  16  16
#     4  10  20  34  52  72  96 128 165 203 243 291
#     4   9  19  35  52  71  97 130 166 201 241 291
#     4   9  16  27  45  69  97 128 161 195 234 284
#     4  10  20  33  50  73 100 128 160 201 247 291
#     4   9  17  30  49  72  97 126 161 199 238 281
#     4   9  16  26  42  67  99 130 159 193 235 282
#
# _framework density 18.128094999999998
#
# number of rings (size 3 to 8) (size 9 to 14) (size 15 to 20)
#    0.000    2.667    0.000    2.000    0.000    7.000 
#    0.000    1.667    0.000    1.000    0.000    7.000 
#    0.000    0.000    0.000    0.000    0.000    0.000 
#
# Total GULP energy -595287.263741 kJ/mol
# GULP energy per Si atom -12401.817995 kJ/mol
# Density = 1.808683 g / cm^3
# Si number density = 18.128095 Si / 1000 Ang^3
#
#
#
# Elastic Constant Matrix: (Units=GPa)
#
#
# Indices 1 2 3 4 5 6 
#
# 1 148.4919 96.3139 30.0461 0.0000 0.0000 0.0000
# 2 96.3139 155.2040 33.9690 0.0000 0.0000 0.0000
# 3 30.0461 33.9690 16.7844 0.0000 0.0000 0.0000
# 4 0.0000 0.0000 0.0000 -2.6732 0.0000 0.0000
# 5 0.0000 0.0000 0.0000 0.0000 18.3117 0.0000
# 6 0.0000 0.0000 0.0000 0.0000 0.0000 42.6465
#
#
#
# Elastic Compliance Matrix: (Units=1/GPa)
#
#
# Indices 1 2 3 4 5 6 
#
# 1 0.012481 -0.005125 -0.011969 0.000000 0.000000 0.000000
# 2 -0.005125 0.013671 -0.018494 0.000000 0.000000 0.000000
# 3 -0.011969 -0.018494 0.118432 0.000000 0.000000 0.000000
# 4 0.000000 0.000000 0.000000 -0.374078 0.000000 0.000000
# 5 0.000000 0.000000 0.000000 0.000000 0.054610 0.000000
# 6 0.000000 0.000000 0.000000 0.000000 0.000000 0.023449
#
#
# Mechanical properties :
#
#
# Convention : Reuss Voigt Hill
#
# Bulk Modulus (GPa) = 13.62231 71.23760 42.42996
# Shear Modulus (GPa) = -89.62050 22.33377 -33.64336
#
# Velocity S-wave (km/s) = -7.03880 3.51379 -4.31265
# Velocity P-wave (km/s) = 7.65041 7.47291 1.15853
#
# Compressibility (1/GPa) = 0.07340898
#
# Stress axis : x y z
#
# Youngs Moduli (GPa) = 80.12470 73.14520 8.44364
#
# Poissons Ratio (x) = 0.37490 0.10106
# Poissons Ratio (y) = 0.41067 0.15615
# Poissons Ratio (z) = 0.95898 1.35272
#
# Static dielectric constant tensor:
#      x y z
#    x 3.517370 0.000000 0.000000 
#    y 0.000000 3.478370 0.000000 
#    z 0.000000 0.000000 2.944790 
# 
# 
# High freq. dielectric constant tensor:
#      x y z
#    x 1.714730 0.000000 0.000000 
#    y 0.000000 1.716740 0.000000 
#    z 0.000000 0.000000 1.654300 
# 
# From -- ./inp_files/51343.got.cif
#   From: 2010.03.12/outbox.cif.g09.slc.cpg/sg63_26_cif.got.tgz:51343.got - 2010.04.10 19:34:48.
