data_PCOD8258960
_publ_section_title
;
Structure prediction by ZEFSAII (Michael W. Deem and Ramdas Pophale) SiO2 
 PCOD8258960
Probable space group: C M C M
;
_chemical_formula_sum "Si O2"
_cell_formula_units_Z 72
_cell_length_a 22.226062
_cell_length_b 19.503631
_cell_length_c 8.738577
_cell_angle_alpha 90.000000
_cell_angle_beta 90.000000
_cell_angle_gamma 90.000000
_cell_volume 3788.076235
_symmetry_space_group_name_H-M "C M C M"
_symmetry_group_IT_number 63
_symmetry_cell_setting 'orthorhombic'
loop_
_space_group_symop_operation_xyz
x,y,z
-x,-y,1/2+z
x,-y,-z
-x,y,1/2-z
-x,-y,-z
x,y,1/2-z
-x,y,z
x,-y,1/2+z
1/2+x,1/2+y,z
1/2-x,1/2-y,1/2+z
1/2+x,1/2-y,-z
1/2-x,1/2+y,1/2-z
1/2-x,1/2-y,-z
1/2+x,1/2+y,1/2-z
1/2-x,1/2+y,z
1/2+x,1/2-y,1/2+z
loop_
_atom_site_type_symbol
_atom_site_label
_atom_site_fract_x
_atom_site_fract_y
_atom_site_fract_z
Si Si1 0.000000 0.073980 0.928415
Si Si2 0.432430 0.806694 0.431218
Si Si3 0.347637 0.072780 0.932119
Si Si4 0.394653 0.342022 0.927641
Si Si5 0.779767 0.071223 0.071054
O O1 0.000000 0.064013 0.750000
O O2 0.059389 0.113912 0.975563
O O3 0.000000 0.000000 0.000000
O O4 0.435706 0.810886 0.250000
O O5 0.500000 0.808751 0.500080
O O6 0.394501 0.870801 0.494596
O O7 0.399134 0.736787 0.481495
O O8 0.346922 0.068822 0.750000
O O9 0.281775 0.093889 0.990518
O O10 0.367941 0.000000 0.000000
O O11 0.412157 0.349687 0.750000
O O12 0.327519 0.368704 0.959654
O O13 0.767985 0.059549 0.250000
O O14 0.803951 0.000000 0.000000
#
# Coordination Sequence:
#
# PCOD8258960 Si02
#       5
#     8  16  16  16  16
#     4  12  24  36  54  82 113 148 187 226 271 316
#     4   9  18  35  59  81 107 145 186 223 274 337
#     4  10  20  35  57  82 108 144 183 227 279 330
#     4  10  20  37  59  80 108 147 186 225 272 328
#     4  10  20  34  55  81 109 144 182 226 275 322
#
# _framework density 19.007009
#
# number of rings (size 3 to 8) (size 9 to 14) (size 15 to 20)
#    0.000    2.000    1.111    4.333    0.000    4.889 
#    0.000    2.222    0.000    0.000    0.000    0.000 
#    0.000    0.000    0.000    0.000    0.000    0.000 
#
# Total GULP energy -446455.838513 kJ/mol
# GULP energy per Si atom -12401.551070 kJ/mol
# Density = 1.896375 g / cm^3
# Si number density = 19.007009 Si / 1000 Ang^3
#
#
#
# Elastic Constant Matrix: (Units=GPa)
#
#
# Indices 1 2 3 4 5 6 
#
# 1 128.8909 105.2930 40.6140 0.0000 0.0000 0.0000
# 2 105.2930 179.2127 51.2920 0.0000 0.0000 0.0000
# 3 40.6140 51.2920 85.3362 0.0000 0.0000 0.0000
# 4 0.0000 0.0000 0.0000 20.6286 0.0000 0.0000
# 5 0.0000 0.0000 0.0000 0.0000 10.9142 0.0000
# 6 0.0000 0.0000 0.0000 0.0000 0.0000 49.7941
#
#
#
# Elastic Compliance Matrix: (Units=1/GPa)
#
#
# Indices 1 2 3 4 5 6 
#
# 1 0.015273 -0.008325 -0.002265 0.000000 0.000000 0.000000
# 2 -0.008325 0.011277 -0.002816 0.000000 0.000000 0.000000
# 3 -0.002265 -0.002816 0.014489 0.000000 0.000000 0.000000
# 4 0.000000 0.000000 0.000000 0.048476 0.000000 0.000000
# 5 0.000000 0.000000 0.000000 0.000000 0.091624 0.000000
# 6 0.000000 0.000000 0.000000 0.000000 0.000000 0.020083
#
#
# Mechanical properties :
#
#
# Convention : Reuss Voigt Hill
#
# Bulk Modulus (GPa) = 70.28982 87.53754 78.91368
# Shear Modulus (GPa) = 21.47974 29.35009 25.41492
#
# Velocity S-wave (km/s) = 3.36534 3.93386 3.66065
# Velocity P-wave (km/s) = 7.22232 8.17246 7.71204
#
# Compressibility (1/GPa) = 0.01422681
#
# Stress axis : x y z
#
# Youngs Moduli (GPa) = 65.47404 88.67387 69.01800
#
# Poissons Ratio (x) = 0.73823 0.15633
# Poissons Ratio (y) = 0.54509 0.19436
# Poissons Ratio (z) = 0.14830 0.24971
#
# Static dielectric constant tensor:
#      x y z
#    x 3.632200 0.000000 0.000000 
#    y 0.000000 3.641430 0.000000 
#    z 0.000000 0.000000 3.348500 
# 
# 
# High freq. dielectric constant tensor:
#      x y z
#    x 1.744260 0.000000 0.000000 
#    y 0.000000 1.746350 0.000000 
#    z 0.000000 0.000000 1.724550 
# 
# From -- ./inp_files/7837.got.cif
#   From: 2010.03.12/outbox.cif.g09.slc.cpg/sg63_4_cif.got.tgz:7837.got - 2010.04.10 19:34:48.
