data_PCOD8258521
_publ_section_title
;
Structure prediction by ZEFSAII (Michael W. Deem and Ramdas Pophale) SiO2 
 PCOD8258521
Probable space group: C M C M
;
_chemical_formula_sum "Si O2"
_cell_formula_units_Z 104
_cell_length_a 21.261666
_cell_length_b 28.278220
_cell_length_c 8.711460
_cell_angle_alpha 90.000000
_cell_angle_beta 90.000000
_cell_angle_gamma 90.000000
_cell_volume 5237.696232
_symmetry_space_group_name_H-M "C M C M"
_symmetry_group_IT_number 63
_symmetry_cell_setting 'orthorhombic'
loop_
_space_group_symop_operation_xyz
x,y,z
-x,-y,1/2+z
x,-y,-z
-x,y,1/2-z
-x,-y,-z
x,y,1/2-z
-x,y,z
x,-y,1/2+z
1/2+x,1/2+y,z
1/2-x,1/2-y,1/2+z
1/2+x,1/2-y,-z
1/2-x,1/2+y,1/2-z
1/2-x,1/2-y,-z
1/2+x,1/2+y,1/2-z
1/2-x,1/2+y,z
1/2+x,1/2-y,1/2+z
loop_
_atom_site_type_symbol
_atom_site_label
_atom_site_fract_x
_atom_site_fract_y
_atom_site_fract_z
Si Si1 0.000000 0.449087 0.930359
Si Si2 0.927845 0.311244 0.430438
Si Si3 0.572800 0.454864 0.419479
Si Si4 0.352774 0.617493 0.428631
Si Si5 0.570148 0.704722 0.068050
Si Si6 0.126342 0.399342 0.930675
Si Si7 0.753443 0.551967 0.568969
O O1 0.061317 0.421844 0.987668
O O2 0.000000 0.453446 0.750000
O O3 0.000000 0.500000 0.000000
O O4 0.918455 0.318028 0.250000
O O5 0.911454 0.257766 0.481534
O O6 0.878000 0.344542 0.518575
O O7 0.000000 0.322730 0.477321
O O8 0.605355 0.500000 0.500000
O O9 0.603479 0.447295 0.250000
O O10 0.500000 0.463890 0.398569
O O11 0.583926 0.411517 0.534313
O O12 0.335017 0.617138 0.250000
O O13 0.372970 0.670056 0.487156
O O14 0.297223 0.592046 0.521801
O O15 0.565299 0.701094 0.250000
O O16 0.500000 0.692065 0.001533
O O17 0.137966 0.402563 0.750000
O O18 0.179921 0.428637 0.014527
O O19 0.739429 0.500000 0.500000
O O20 0.754030 0.546412 0.750000
#
# Coordination Sequence:
#
# PCOD8258521 Si02
#       7
#     8  16  16  16  16  16  16
#     4  10  22  36  56  86 120 148 180 228 281 340
#     4   9  17  33  59  90 121 155 192 233 285 345
#     4  10  20  33  50  75 107 142 184 236 291 348
#     4  11  21  36  58  82 111 151 195 242 293 345
#     4   8  16  32  57  89 121 152 193 242 291 343
#     4  11  22  39  60  88 120 153 191 235 288 345
#     4  12  26  44  62  83 113 153 198 242 290 349
#
# _framework density 19.856057
#
# number of rings (size 3 to 8) (size 9 to 14) (size 15 to 20)
#    0.000    1.846    0.769    5.077    0.000    4.000 
#    0.000    2.308    0.000    1.846    0.000    0.000 
#    0.000    0.000    0.000    0.000    0.000    0.000 
#
# Total GULP energy -644425.186410 kJ/mol
# GULP energy per Si atom -12392.792046 kJ/mol
# Density = 1.981086 g / cm^3
# Si number density = 19.856057 Si / 1000 Ang^3
#
#
#
# Elastic Constant Matrix: (Units=GPa)
#
#
# Indices 1 2 3 4 5 6 
#
# 1 103.3664 61.6156 40.5255 0.0000 0.0000 0.0000
# 2 61.6156 136.3336 37.3578 0.0000 0.0000 0.0000
# 3 40.5255 37.3578 80.4262 0.0000 0.0000 0.0000
# 4 0.0000 0.0000 0.0000 27.2444 0.0000 0.0000
# 5 0.0000 0.0000 0.0000 0.0000 25.8134 0.0000
# 6 0.0000 0.0000 0.0000 0.0000 0.0000 26.1419
#
#
#
# Elastic Compliance Matrix: (Units=1/GPa)
#
#
# Indices 1 2 3 4 5 6 
#
# 1 0.014802 -0.005324 -0.004986 0.000000 0.000000 0.000000
# 2 -0.005324 0.010319 -0.002111 0.000000 0.000000 0.000000
# 3 -0.004986 -0.002111 0.015927 0.000000 0.000000 0.000000
# 4 0.000000 0.000000 0.000000 0.036705 0.000000 0.000000
# 5 0.000000 0.000000 0.000000 0.000000 0.038740 0.000000
# 6 0.000000 0.000000 0.000000 0.000000 0.000000 0.038253
#
#
# Mechanical properties :
#
#
# Convention : Reuss Voigt Hill
#
# Bulk Modulus (GPa) = 61.69945 66.56933 64.13439
# Shear Modulus (GPa) = 27.02866 27.88177 27.45522
#
# Velocity S-wave (km/s) = 3.69349 3.75132 3.72252
# Velocity P-wave (km/s) = 7.02353 7.23616 7.13064
#
# Compressibility (1/GPa) = 0.01620760
#
# Stress axis : x y z
#
# Youngs Moduli (GPa) = 67.55618 96.90495 62.78835
#
# Poissons Ratio (x) = 0.51590 0.31306
# Poissons Ratio (y) = 0.35965 0.13253
# Poissons Ratio (z) = 0.33683 0.20455
#
# Static dielectric constant tensor:
#      x y z
#    x 3.616670 0.000000 0.000000 
#    y 0.000000 3.892500 0.000000 
#    z 0.000000 0.000000 3.817990 
# 
# 
# High freq. dielectric constant tensor:
#      x y z
#    x 1.763600 0.000000 0.000000 
#    y 0.000000 1.784340 0.000000 
#    z 0.000000 0.000000 1.764770 
# 
# From -- ./inp_files/8750.got.cif
#   From: 2010.03.12/outbox.cif.g09.slc.cpg/sg63_5_cif.got.tgz:8750.got - 2010.04.10 19:34:48.
