data_PCOD8258377
_publ_section_title
;
Structure prediction by ZEFSAII (Michael W. Deem and Ramdas Pophale) SiO2 
 PCOD8258377
Probable space group: C M C M
;
_chemical_formula_sum "Si O2"
_cell_formula_units_Z 64
_cell_length_a 13.146996
_cell_length_b 12.398167
_cell_length_c 20.691321
_cell_angle_alpha 90.000000
_cell_angle_beta 90.000000
_cell_angle_gamma 90.000000
_cell_volume 3372.657430
_symmetry_space_group_name_H-M "C M C M"
_symmetry_group_IT_number 63
_symmetry_cell_setting 'orthorhombic'
loop_
_space_group_symop_operation_xyz
x,y,z
-x,-y,1/2+z
x,-y,-z
-x,y,1/2-z
-x,-y,-z
x,y,1/2-z
-x,y,z
x,-y,1/2+z
1/2+x,1/2+y,z
1/2-x,1/2-y,1/2+z
1/2+x,1/2-y,-z
1/2-x,1/2+y,1/2-z
1/2-x,1/2-y,-z
1/2+x,1/2+y,1/2-z
1/2-x,1/2+y,z
1/2+x,1/2-y,1/2+z
loop_
_atom_site_type_symbol
_atom_site_label
_atom_site_fract_x
_atom_site_fract_y
_atom_site_fract_z
Si Si1 0.749324 0.270250 0.093984
Si Si2 0.883814 0.530411 0.928427
Si Si3 0.619196 0.625744 0.012840
Si Si4 0.885560 0.651612 0.178243
O O1 0.822905 0.370879 0.101490
O O2 0.815304 0.164286 0.074580
O O3 0.694475 0.246721 0.162432
O O4 0.657437 0.296760 0.044668
O O5 0.870465 0.435255 0.877812
O O6 0.000000 0.567024 0.935535
O O7 0.841396 0.500000 0.000000
O O8 0.500000 0.646954 0.024084
O O9 0.640727 0.500000 0.000000
O O10 0.862423 0.605037 0.250000
O O11 0.000000 0.697625 0.176140
#
# Coordination Sequence:
#
# PCOD8258377 Si02
#       4
#    16  16  16  16
#     4  11  19  32  54  78 102 139 180 214 259 319
#     4  10  20  35  57  85 112 139 179 231 278 322
#     4  10  20  32  49  78 111 136 165 212 265 314
#     4  10  22  38  54  76 108 143 180 225 277 332
#
# _framework density 18.976133999999998
#
# number of rings (size 3 to 8) (size 9 to 14) (size 15 to 20)
#    0.000    1.750    0.000    6.750    0.000    3.000 
#    0.000    0.000    0.000    3.000    0.000    0.000 
#    0.000    0.000    0.000    0.000    0.000    0.000 
#
# Total GULP energy -396676.720332 kJ/mol
# GULP energy per Si atom -12396.147510 kJ/mol
# Density = 1.893294 g / cm^3
# Si number density = 18.976134 Si / 1000 Ang^3
#
#
#
# Elastic Constant Matrix: (Units=GPa)
#
#
# Indices 1 2 3 4 5 6 
#
# 1 122.4179 58.9939 54.0726 0.0000 0.0000 0.0000
# 2 58.9939 97.1172 40.9150 0.0000 0.0000 0.0000
# 3 54.0726 40.9150 121.4561 0.0000 0.0000 0.0000
# 4 0.0000 0.0000 0.0000 20.8273 0.0000 0.0000
# 5 0.0000 0.0000 0.0000 0.0000 26.7344 0.0000
# 6 0.0000 0.0000 0.0000 0.0000 0.0000 35.5842
#
#
#
# Elastic Compliance Matrix: (Units=1/GPa)
#
#
# Indices 1 2 3 4 5 6 
#
# 1 0.012757 -0.006242 -0.003576 0.000000 0.000000 0.000000
# 2 -0.006242 0.015054 -0.002292 0.000000 0.000000 0.000000
# 3 -0.003576 -0.002292 0.010598 0.000000 0.000000 0.000000
# 4 0.000000 0.000000 0.000000 0.048014 0.000000 0.000000
# 5 0.000000 0.000000 0.000000 0.000000 0.037405 0.000000
# 6 0.000000 0.000000 0.000000 0.000000 0.000000 0.028102
#
#
# Mechanical properties :
#
#
# Convention : Reuss Voigt Hill
#
# Bulk Modulus (GPa) = 70.48766 72.10601 71.29683
# Shear Modulus (GPa) = 27.64241 29.09649 28.36945
#
# Velocity S-wave (km/s) = 3.82081 3.92001 3.87073
# Velocity P-wave (km/s) = 7.52933 7.65306 7.59145
#
# Compressibility (1/GPa) = 0.01418688
#
# Stress axis : x y z
#
# Youngs Moduli (GPa) = 78.39028 66.42546 94.35833
#
# Poissons Ratio (x) = 0.41465 0.33747
# Poissons Ratio (y) = 0.48934 0.21630
# Poissons Ratio (z) = 0.28036 0.15227
#
# Static dielectric constant tensor:
#      x y z
#    x 3.775310 0.000000 0.000000 
#    y 0.000000 3.412210 0.000000 
#    z 0.000000 0.000000 3.358990 
# 
# 
# High freq. dielectric constant tensor:
#      x y z
#    x 1.762690 0.000000 0.000000 
#    y 0.000000 1.733250 0.000000 
#    z 0.000000 0.000000 1.706470 
# 
# From -- ./inp_files/53774.got.cif
#   From: 2010.03.12/outbox.cif.g09.slc.cpg/sg63_27_cif.got.tgz:53774.got - 2010.04.10 19:34:48.
