data_PCOD8258093
_publ_section_title
;
Structure prediction by ZEFSAII (Michael W. Deem and Ramdas Pophale) SiO2 
 PCOD8258093
Probable space group: C M C M
;
_chemical_formula_sum "Si O2"
_cell_formula_units_Z 72
_cell_length_a 27.502260
_cell_length_b 11.540449
_cell_length_c 11.733755
_cell_angle_alpha 90.000000
_cell_angle_beta 90.000000
_cell_angle_gamma 90.000000
_cell_volume 3724.158065
_symmetry_space_group_name_H-M "C M C M"
_symmetry_group_IT_number 63
_symmetry_cell_setting 'orthorhombic'
loop_
_space_group_symop_operation_xyz
x,y,z
-x,-y,1/2+z
x,-y,-z
-x,y,1/2-z
-x,-y,-z
x,y,1/2-z
-x,y,z
x,-y,1/2+z
1/2+x,1/2+y,z
1/2-x,1/2-y,1/2+z
1/2+x,1/2-y,-z
1/2-x,1/2+y,1/2-z
1/2-x,1/2-y,-z
1/2+x,1/2+y,1/2-z
1/2-x,1/2+y,z
1/2+x,1/2-y,1/2+z
loop_
_atom_site_type_symbol
_atom_site_label
_atom_site_fract_x
_atom_site_fract_y
_atom_site_fract_z
Si Si1 0.633258 0.874808 0.045740
Si Si2 0.609858 0.500000 0.500000
Si Si3 0.733283 0.068711 0.621983
Si Si4 0.054215 0.795387 0.619765
Si Si5 0.330794 0.315605 0.376610
O O1 0.678770 0.881466 0.132091
O O2 0.586654 0.819508 0.106398
O O3 0.650392 0.794641 0.942989
O O4 0.617355 0.000000 0.000000
O O5 0.575807 0.404729 0.555492
O O6 0.645044 0.562144 0.589837
O O7 0.742315 0.007439 0.750000
O O8 0.772528 0.171497 0.611042
O O9 0.736338 0.000000 0.500000
O O10 0.052000 0.831488 0.750000
O O11 0.000000 0.769090 0.572789
O O12 0.346895 0.287475 0.250000
#
# Coordination Sequence:
#
# PCOD8258093 Si02
#       5
#    16   8  16  16  16
#     4  10  22  37  55  79 113 153 194 234 281 332
#     4  10  19  36  58  86 114 142 179 230 300 348
#     4  10  20  36  57  86 118 155 193 235 287 344
#     4  10  21  37  58  82 108 143 188 239 289 338
#     4  10  20  35  57  84 117 150 188 233 287 348
#
# _framework density 19.333228999999999
#
# number of rings (size 3 to 8) (size 9 to 14) (size 15 to 20)
#    0.000    2.000    1.111    2.333    0.000    4.889 
#    0.000    1.111    0.000    6.000    0.000    0.000 
#    0.000    0.000    0.000    0.000    0.000    0.000 
#
# Total GULP energy -445977.191056 kJ/mol
# GULP energy per Si atom -12388.255307 kJ/mol
# Density = 1.928923 g / cm^3
# Si number density = 19.333229 Si / 1000 Ang^3
#
#
#
# Elastic Constant Matrix: (Units=GPa)
#
#
# Indices 1 2 3 4 5 6 
#
# 1 120.3339 40.4805 21.0243 0.0000 0.0000 0.0000
# 2 40.4805 90.7129 26.6554 0.0000 0.0000 0.0000
# 3 21.0243 26.6554 118.9210 0.0000 0.0000 0.0000
# 4 0.0000 0.0000 0.0000 18.4072 0.0000 0.0000
# 5 0.0000 0.0000 0.0000 0.0000 31.3231 0.0000
# 6 0.0000 0.0000 0.0000 0.0000 0.0000 24.8562
#
#
#
# Elastic Compliance Matrix: (Units=1/GPa)
#
#
# Indices 1 2 3 4 5 6 
#
# 1 0.009850 -0.004158 -0.000810 0.000000 0.000000 0.000000
# 2 -0.004158 0.013556 -0.002303 0.000000 0.000000 0.000000
# 3 -0.000810 -0.002303 0.009068 0.000000 0.000000 0.000000
# 4 0.000000 0.000000 0.000000 0.054327 0.000000 0.000000
# 5 0.000000 0.000000 0.000000 0.000000 0.031925 0.000000
# 6 0.000000 0.000000 0.000000 0.000000 0.000000 0.040231
#
#
# Mechanical properties :
#
#
# Convention : Reuss Voigt Hill
#
# Bulk Modulus (GPa) = 55.76245 56.25424 56.00834
# Shear Modulus (GPa) = 27.85868 31.03781 29.44825
#
# Velocity S-wave (km/s) = 3.80013 4.01111 3.90704
# Velocity P-wave (km/s) = 6.93975 7.11423 7.02753
#
# Compressibility (1/GPa) = 0.01793322
#
# Stress axis : x y z
#
# Youngs Moduli (GPa) = 101.51935 73.76772 110.27350
#
# Poissons Ratio (x) = 0.30671 0.08927
# Poissons Ratio (y) = 0.42210 0.25401
# Poissons Ratio (z) = 0.08218 0.16992
#
# Static dielectric constant tensor:
#      x y z
#    x 3.868550 0.000000 0.000000 
#    y 0.000000 3.405830 0.000000 
#    z 0.000000 0.000000 3.761470 
# 
# 
# High freq. dielectric constant tensor:
#      x y z
#    x 1.758720 0.000000 0.000000 
#    y 0.000000 1.737430 0.000000 
#    z 0.000000 0.000000 1.763420 
# 
# From -- ./inp_files/24717.got.cif
#   From: 2010.03.12/outbox.cif.g09.slc.cpg/sg63_13_cif.got.tgz:24717.got - 2010.04.10 19:34:48.
