data_PCOD8258925
_publ_section_title
;
Structure prediction by ZEFSAII (Michael W. Deem and Ramdas Pophale) SiO2 
 PCOD8258925
Probable space group: C M C M
;
_chemical_formula_sum "Si O2"
_cell_formula_units_Z 64
_cell_length_a 7.933803
_cell_length_b 23.737152
_cell_length_c 18.813057
_cell_angle_alpha 90.000000
_cell_angle_beta 90.000000
_cell_angle_gamma 90.000000
_cell_volume 3542.985661
_symmetry_space_group_name_H-M "C M C M"
_symmetry_group_IT_number 63
_symmetry_cell_setting 'orthorhombic'
loop_
_space_group_symop_operation_xyz
x,y,z
-x,-y,1/2+z
x,-y,-z
-x,y,1/2-z
-x,-y,-z
x,y,1/2-z
-x,y,z
x,-y,1/2+z
1/2+x,1/2+y,z
1/2-x,1/2-y,1/2+z
1/2+x,1/2-y,-z
1/2-x,1/2+y,1/2-z
1/2-x,1/2-y,-z
1/2+x,1/2+y,1/2-z
1/2-x,1/2+y,z
1/2+x,1/2-y,1/2+z
loop_
_atom_site_type_symbol
_atom_site_label
_atom_site_fract_x
_atom_site_fract_y
_atom_site_fract_z
Si Si1 0.000000 0.946068 0.166024
Si Si2 0.188391 0.157507 0.829078
Si Si3 0.688843 0.854528 0.667954
Si Si4 0.309724 0.253533 0.580027
Si Si5 0.500000 0.570562 0.165570
O O1 0.832851 0.908560 0.146332
O O2 0.000000 0.953504 0.250000
O O3 0.000000 0.007845 0.130407
O O4 0.269547 0.161282 0.750000
O O5 0.300666 0.191529 0.884991
O O6 0.000000 0.184272 0.826947
O O7 0.725555 0.839536 0.750000
O O8 0.500000 0.880128 0.658930
O O9 0.696458 0.797124 0.623588
O O10 0.829657 0.898303 0.639516
O O11 0.500000 0.275338 0.582581
O O12 0.250000 0.250000 0.500000
O O13 0.500000 0.566389 0.250000
#
# Coordination Sequence:
#
# PCOD8258925 Si02
#       5
#     8  16  16  16   8
#     4   7  14  30  55  79 107 143 174 213 262 319
#     4   8  16  32  53  76 103 138 172 209 263 318
#     4  10  20  34  54  81 111 141 176 222 268 317
#     4  12  23  34  50  75 108 142 182 227 270 325
#     4   9  16  32  55  83 111 141 182 215 264 323
#
# _framework density 18.063862
#
# number of rings (size 3 to 8) (size 9 to 14) (size 15 to 20)
#    0.750    1.750    1.250    3.000    0.000    3.500 
#    0.000    1.250    0.000    7.500    0.000    3.500 
#    0.000    0.000    0.000    0.000    0.000    0.000 
#
# Total GULP energy -396437.061562 kJ/mol
# GULP energy per Si atom -12388.658174 kJ/mol
# Density = 1.802275 g / cm^3
# Si number density = 18.063862 Si / 1000 Ang^3
#
#
#
# Elastic Constant Matrix: (Units=GPa)
#
#
# Indices 1 2 3 4 5 6 
#
# 1 100.2912 42.7287 25.2890 0.0000 0.0000 0.0000
# 2 42.7287 134.0068 45.5305 0.0000 0.0000 0.0000
# 3 25.2890 45.5305 75.0929 0.0000 0.0000 0.0000
# 4 0.0000 0.0000 0.0000 4.3587 0.0000 0.0000
# 5 0.0000 0.0000 0.0000 0.0000 20.9710 0.0000
# 6 0.0000 0.0000 0.0000 0.0000 0.0000 25.4527
#
#
#
# Elastic Compliance Matrix: (Units=1/GPa)
#
#
# Indices 1 2 3 4 5 6 
#
# 1 0.011803 -0.003039 -0.002132 0.000000 0.000000 0.000000
# 2 -0.003039 0.010181 -0.005149 0.000000 0.000000 0.000000
# 3 -0.002132 -0.005149 0.017157 0.000000 0.000000 0.000000
# 4 0.000000 0.000000 0.000000 0.229427 0.000000 0.000000
# 5 0.000000 0.000000 0.000000 0.000000 0.047685 0.000000
# 6 0.000000 0.000000 0.000000 0.000000 0.000000 0.039289
#
#
# Mechanical properties :
#
#
# Convention : Reuss Voigt Hill
#
# Bulk Modulus (GPa) = 54.05485 59.60972 56.83229
# Shear Modulus (GPa) = 13.07702 23.21265 18.14483
#
# Velocity S-wave (km/s) = 2.69352 3.58862 3.17280
# Velocity P-wave (km/s) = 6.29783 7.08816 6.70465
#
# Compressibility (1/GPa) = 0.01849973
#
# Stress axis : x y z
#
# Youngs Moduli (GPa) = 84.72097 98.22289 58.28461
#
# Poissons Ratio (x) = 0.29851 0.12428
# Poissons Ratio (y) = 0.25747 0.30013
# Poissons Ratio (z) = 0.18066 0.50579
#
# Static dielectric constant tensor:
#      x y z
#    x 3.257320 0.000000 0.000000 
#    y 0.000000 3.670890 0.000000 
#    z 0.000000 0.000000 3.036570 
# 
# 
# High freq. dielectric constant tensor:
#      x y z
#    x 1.689190 0.000000 0.000000 
#    y 0.000000 1.688910 0.000000 
#    z 0.000000 0.000000 1.668170 
# 
# From -- ./inp_files/40128.got.cif
#   From: 2010.03.12/outbox.cif.g09.slc.cpg/sg63_21_cif.got.tgz:40128.got - 2010.04.10 19:34:48.
