data_PCOD8258613
_publ_section_title
;
Structure prediction by ZEFSAII (Michael W. Deem and Ramdas Pophale) SiO2 
 PCOD8258613
Probable space group: C M C M
;
_chemical_formula_sum "Si O2"
_cell_formula_units_Z 72
_cell_length_a 15.095968
_cell_length_b 15.570698
_cell_length_c 15.857632
_cell_angle_alpha 90.000000
_cell_angle_beta 90.000000
_cell_angle_gamma 90.000000
_cell_volume 3727.411864
_symmetry_space_group_name_H-M "C M C M"
_symmetry_group_IT_number 63
_symmetry_cell_setting 'orthorhombic'
loop_
_space_group_symop_operation_xyz
x,y,z
-x,-y,1/2+z
x,-y,-z
-x,y,1/2-z
-x,-y,-z
x,y,1/2-z
-x,y,z
x,-y,1/2+z
1/2+x,1/2+y,z
1/2-x,1/2-y,1/2+z
1/2+x,1/2-y,-z
1/2-x,1/2+y,1/2-z
1/2-x,1/2-y,-z
1/2+x,1/2+y,1/2-z
1/2-x,1/2+y,z
1/2+x,1/2-y,1/2+z
loop_
_atom_site_type_symbol
_atom_site_label
_atom_site_fract_x
_atom_site_fract_y
_atom_site_fract_z
Si Si1 0.898022 0.936824 0.929002
Si Si2 0.102384 0.452042 0.912014
Si Si3 0.401526 0.581687 0.250000
Si Si4 0.295653 0.758122 0.250000
Si Si5 0.603977 0.063165 0.750000
Si Si6 0.753619 0.694348 0.418067
O O1 0.887795 0.977057 0.834114
O O2 0.841209 0.851411 0.925171
O O3 0.000000 0.914052 0.950744
O O4 0.858807 0.000000 0.000000
O O5 0.133928 0.511565 0.833839
O O6 0.162548 0.368132 0.914273
O O7 0.000000 0.424492 0.899926
O O8 0.115940 0.500000 0.000000
O O9 0.500000 0.619443 0.250000
O O10 0.343184 0.666282 0.250000
O O11 0.355849 0.842117 0.250000
O O12 0.238625 0.756454 0.163849
O O13 0.500000 0.076599 0.750000
O O14 0.750000 0.750000 0.500000
#
# Coordination Sequence:
#
# PCOD8258613 Si02
#       6
#    16  16   8   8   8  16
#     4   9  18  33  53  77 105 139 176 214 261 315
#     4  10  21  37  57  81 110 146 186 228 273 323
#     4   8  15  29  50  75 104 135 170 215 257 302
#     4  10  20  33  52  80 107 138 179 220 269 321
#     4  10  20  36  59  83 109 143 183 227 272 323
#     4  11  22  36  55  80 110 142 177 222 273 322
#
# _framework density 19.316352999999999
#
# number of rings (size 3 to 8) (size 9 to 14) (size 15 to 20)
#    0.000    2.222    0.000    3.000    0.000    1.778 
#    0.000    1.111    0.000    0.000    0.000    1.556 
#    0.000    0.000    0.000    0.000    0.000    0.000 
#
# Total GULP energy -445998.573013 kJ/mol
# GULP energy per Si atom -12388.849250 kJ/mol
# Density = 1.927239 g / cm^3
# Si number density = 19.316353 Si / 1000 Ang^3
#
#
#
# Elastic Constant Matrix: (Units=GPa)
#
#
# Indices 1 2 3 4 5 6 
#
# 1 65.3407 32.1538 32.9702 0.0000 0.0000 0.0000
# 2 32.1538 82.3998 68.0695 0.0000 0.0000 0.0000
# 3 32.9702 68.0695 210.3234 0.0000 0.0000 0.0000
# 4 0.0000 0.0000 0.0000 38.9749 0.0000 0.0000
# 5 0.0000 0.0000 0.0000 0.0000 18.6598 0.0000
# 6 0.0000 0.0000 0.0000 0.0000 0.0000 25.2667
#
#
#
# Elastic Compliance Matrix: (Units=1/GPa)
#
#
# Indices 1 2 3 4 5 6 
#
# 1 0.019038 -0.006775 -0.000792 0.000000 0.000000 0.000000
# 2 -0.006775 0.018976 -0.005079 0.000000 0.000000 0.000000
# 3 -0.000792 -0.005079 0.006523 0.000000 0.000000 0.000000
# 4 0.000000 0.000000 0.000000 0.025658 0.000000 0.000000
# 5 0.000000 0.000000 0.000000 0.000000 0.053591 0.000000
# 6 0.000000 0.000000 0.000000 0.000000 0.000000 0.039578
#
#
# Mechanical properties :
#
#
# Convention : Reuss Voigt Hill
#
# Bulk Modulus (GPa) = 51.96368 69.38345 60.67357
# Shear Modulus (GPa) = 25.63201 31.57163 28.60182
#
# Velocity S-wave (km/s) = 3.64670 4.04722 3.85217
# Velocity P-wave (km/s) = 6.68513 7.60510 7.15991
#
# Compressibility (1/GPa) = 0.01924421
#
# Stress axis : x y z
#
# Youngs Moduli (GPa) = 52.52722 52.69953 153.31409
#
# Poissons Ratio (x) = 0.35703 0.12139
# Poissons Ratio (y) = 0.35586 0.77872
# Poissons Ratio (z) = 0.04159 0.26767
#
# Static dielectric constant tensor:
#      x y z
#    x 3.143420 0.000000 0.000000 
#    y 0.000000 3.214370 0.000000 
#    z 0.000000 0.000000 4.609320 
# 
# 
# High freq. dielectric constant tensor:
#      x y z
#    x 1.750970 0.000000 0.000000 
#    y 0.000000 1.717200 0.000000 
#    z 0.000000 0.000000 1.790160 
# 
# From -- ./inp_files/33723.got.cif
#   From: 2010.03.12/outbox.cif.g09.slc.cpg/sg63_17_cif.got.tgz:33723.got - 2010.04.10 19:34:48.
