data_PCOD8258638
_publ_section_title
;
Structure prediction by ZEFSAII (Michael W. Deem and Ramdas Pophale) SiO2 
 PCOD8258638
Probable space group: C M C M
;
_chemical_formula_sum "Si O2"
_cell_formula_units_Z 112
_cell_length_a 15.524842
_cell_length_b 15.587601
_cell_length_c 27.039704
_cell_angle_alpha 90.000000
_cell_angle_beta 90.000000
_cell_angle_gamma 90.000000
_cell_volume 6543.474324
_symmetry_space_group_name_H-M "C M C M"
_symmetry_group_IT_number 63
_symmetry_cell_setting 'orthorhombic'
loop_
_space_group_symop_operation_xyz
x,y,z
-x,-y,1/2+z
x,-y,-z
-x,y,1/2-z
-x,-y,-z
x,y,1/2-z
-x,y,z
x,-y,1/2+z
1/2+x,1/2+y,z
1/2-x,1/2-y,1/2+z
1/2+x,1/2-y,-z
1/2-x,1/2+y,1/2-z
1/2-x,1/2-y,-z
1/2+x,1/2+y,1/2-z
1/2-x,1/2+y,z
1/2+x,1/2-y,1/2+z
loop_
_atom_site_type_symbol
_atom_site_label
_atom_site_fract_x
_atom_site_fract_y
_atom_site_fract_z
Si Si1 0.195234 0.443984 0.104847
Si Si2 0.748623 0.109927 0.444111
Si Si3 0.900405 0.712370 0.305081
Si Si4 0.813737 0.780324 0.398891
Si Si5 0.900921 0.514988 0.193829
Si Si6 0.597126 0.316435 0.001125
Si Si7 0.903171 0.374675 0.481471
O O1 0.254602 0.525391 0.089719
O O2 0.251603 0.359959 0.103729
O O3 0.158258 0.456562 0.159503
O O4 0.115188 0.428372 0.068045
O O5 0.740302 0.194751 0.410918
O O6 0.834059 0.116718 0.478366
O O7 0.664295 0.096101 0.477312
O O8 0.861417 0.728131 0.250000
O O9 0.856239 0.772891 0.345188
O O10 0.887803 0.613904 0.321133
O O11 0.000000 0.736034 0.303877
O O12 0.884733 0.797502 0.441152
O O13 0.871480 0.499328 0.250000
O O14 0.000000 0.488609 0.187014
O O15 0.500000 0.353401 0.995864
O O16 0.606521 0.227057 0.971484
O O17 0.000000 0.395980 0.499776
#
# Coordination Sequence:
#
# PCOD8258638 Si02
#       7
#    16  16  16  16  16  16  16
#     4  12  21  32  56  78 109 138 179 215 266 318
#     4  11  21  37  50  77 113 145 176 221 262 313
#     4   9  18  35  57  79 105 136 172 219 275 324
#     4  11  20  35  53  79 109 139 180 223 262 317
#     4   9  19  35  54  80 109 135 168 216 277 335
#     4  10  20  37  55  73 108 151 186 222 263 308
#     4  10  20  33  53  79 107 138 176 219 266 317
#
# _framework density 17.116288999999998
#
# number of rings (size 3 to 8) (size 9 to 14) (size 15 to 20)
#    0.000    1.714    4.286    3.000    0.000    2.857 
#    0.000    2.143    0.000    0.000    0.000    0.000 
#    0.000    3.429    0.000    0.000    0.000    0.000 
#
# Total GULP energy -694336.946728 kJ/mol
# GULP energy per Si atom -12398.874049 kJ/mol
# Density = 1.707733 g / cm^3
# Si number density = 17.116289 Si / 1000 Ang^3
#
#
#
# Elastic Constant Matrix: (Units=GPa)
#
#
# Indices 1 2 3 4 5 6 
#
# 1 94.4427 43.1906 43.2750 0.0000 0.0000 0.0000
# 2 43.1906 86.2266 46.3843 0.0000 0.0000 0.0000
# 3 43.2750 46.3843 97.0538 0.0000 0.0000 0.0000
# 4 0.0000 0.0000 0.0000 23.0662 0.0000 0.0000
# 5 0.0000 0.0000 0.0000 0.0000 28.4355 0.0000
# 6 0.0000 0.0000 0.0000 0.0000 0.0000 11.3183
#
#
#
# Elastic Compliance Matrix: (Units=1/GPa)
#
#
# Indices 1 2 3 4 5 6 
#
# 1 0.014873 -0.005226 -0.004134 0.000000 0.000000 0.000000
# 2 -0.005226 0.017447 -0.006008 0.000000 0.000000 0.000000
# 3 -0.004134 -0.006008 0.015018 0.000000 0.000000 0.000000
# 4 0.000000 0.000000 0.000000 0.043353 0.000000 0.000000
# 5 0.000000 0.000000 0.000000 0.000000 0.035167 0.000000
# 6 0.000000 0.000000 0.000000 0.000000 0.000000 0.088352
#
#
# Mechanical properties :
#
#
# Convention : Reuss Voigt Hill
#
# Bulk Modulus (GPa) = 60.23402 60.38031 60.30716
# Shear Modulus (GPa) = 19.96161 22.22222 21.09192
#
# Velocity S-wave (km/s) = 3.41872 3.60711 3.51418
# Velocity P-wave (km/s) = 7.13099 7.25958 7.19557
#
# Compressibility (1/GPa) = 0.01660191
#
# Stress axis : x y z
#
# Youngs Moduli (GPa) = 67.23804 57.31657 66.58553
#
# Poissons Ratio (x) = 0.29953 0.27526
# Poissons Ratio (y) = 0.35137 0.40006
# Poissons Ratio (z) = 0.27796 0.34437
#
# Static dielectric constant tensor:
#      x y z
#    x 3.116260 0.000000 0.000000 
#    y 0.000000 3.129440 0.000000 
#    z 0.000000 0.000000 3.240340 
# 
# 
# High freq. dielectric constant tensor:
#      x y z
#    x 1.648690 0.000000 0.000000 
#    y 0.000000 1.654150 0.000000 
#    z 0.000000 0.000000 1.654630 
# 
# From -- ./inp_files/69406.got.cif
#   From: 2010.03.12/outbox.cif.g09.slc.cpg/sg63_35_cif.got.tgz:69406.got - 2010.04.10 19:34:48.
