data_PCOD8258263
_publ_section_title
;
Structure prediction by ZEFSAII (Michael W. Deem and Ramdas Pophale) SiO2 
 PCOD8258263
Probable space group: C M C M
;
_chemical_formula_sum "Si O2"
_cell_formula_units_Z 104
_cell_length_a 31.812019
_cell_length_b 20.592567
_cell_length_c 9.011230
_cell_angle_alpha 90.000000
_cell_angle_beta 90.000000
_cell_angle_gamma 90.000000
_cell_volume 5903.176867
_symmetry_space_group_name_H-M "C M C M"
_symmetry_group_IT_number 63
_symmetry_cell_setting 'orthorhombic'
loop_
_space_group_symop_operation_xyz
x,y,z
-x,-y,1/2+z
x,-y,-z
-x,y,1/2-z
-x,-y,-z
x,y,1/2-z
-x,y,z
x,-y,1/2+z
1/2+x,1/2+y,z
1/2-x,1/2-y,1/2+z
1/2+x,1/2-y,-z
1/2-x,1/2+y,1/2-z
1/2-x,1/2-y,-z
1/2+x,1/2+y,1/2-z
1/2-x,1/2+y,z
1/2+x,1/2-y,1/2+z
loop_
_atom_site_type_symbol
_atom_site_label
_atom_site_fract_x
_atom_site_fract_y
_atom_site_fract_z
Si Si1 0.573859 0.654802 0.918365
Si Si2 0.132823 0.679393 0.926609
Si Si3 0.452527 0.800091 0.919408
Si Si4 0.655775 0.677594 0.424353
Si Si5 0.782449 0.933221 0.923778
Si Si6 0.000000 0.932749 0.424853
Si Si7 0.185111 0.566407 0.075448
O O1 0.588623 0.642099 0.750000
O O2 0.550535 0.723115 0.930393
O O3 0.541420 0.602976 0.979972
O O4 0.612936 0.644570 0.025736
O O5 0.134579 0.672904 0.750000
O O6 0.154067 0.747530 0.982453
O O7 0.084180 0.670472 0.977037
O O8 0.159595 0.624277 0.003450
O O9 0.445197 0.823386 0.750000
O O10 0.500000 0.820688 0.971161
O O11 0.658592 0.679931 0.250000
O O12 0.693507 0.631498 0.485023
O O13 0.790645 0.942059 0.750000
O O14 0.733853 0.921301 0.960613
O O15 0.798441 0.000000 0.000000
O O16 0.000000 0.937619 0.250000
O O17 0.000000 0.000000 0.500000
O O18 0.176276 0.562869 0.250000
O O19 0.169717 0.500000 0.000000
#
# Coordination Sequence:
#
# PCOD8258263 Si02
#       7
#    16  16  16  16  16   8  16
#     4   9  17  31  48  66  91 126 167 211 255 298
#     4  10  20  33  51  79 110 137 168 209 257 308
#     4   9  16  30  53  75  97 129 168 209 250 297
#     4   9  19  34  50  73 105 135 167 213 262 305
#     4   9  19  35  53  73 100 136 177 216 258 306
#     4  10  20  32  44  62  90 126 169 214 257 302
#     4  10  20  36  57  78 102 135 172 210 253 307
#
# _framework density 17.617633000000001
#
# number of rings (size 3 to 8) (size 9 to 14) (size 15 to 20)
#    0.000    2.615    0.769    0.923    0.000    4.000 
#    0.000    3.077    0.000    0.462    0.000    0.000 
#    0.000    0.000    0.000    0.000    0.000    0.000 
#
# Total GULP energy -644484.663411 kJ/mol
# GULP energy per Si atom -12393.935835 kJ/mol
# Density = 1.757753 g / cm^3
# Si number density = 17.617633 Si / 1000 Ang^3
#
#
#
# Elastic Constant Matrix: (Units=GPa)
#
#
# Indices 1 2 3 4 5 6 
#
# 1 107.6680 79.7272 39.6636 0.0000 0.0000 0.0000
# 2 79.7272 123.5928 45.1082 0.0000 0.0000 0.0000
# 3 39.6636 45.1082 43.1407 0.0000 0.0000 0.0000
# 4 0.0000 0.0000 0.0000 29.9269 0.0000 0.0000
# 5 0.0000 0.0000 0.0000 0.0000 30.0524 0.0000
# 6 0.0000 0.0000 0.0000 0.0000 0.0000 25.0535
#
#
#
# Elastic Compliance Matrix: (Units=1/GPa)
#
#
# Indices 1 2 3 4 5 6 
#
# 1 0.019211 -0.009616 -0.007608 0.000000 0.000000 0.000000
# 2 -0.009616 0.017897 -0.009873 0.000000 0.000000 0.000000
# 3 -0.007608 -0.009873 0.040498 0.000000 0.000000 0.000000
# 4 0.000000 0.000000 0.000000 0.033415 0.000000 0.000000
# 5 0.000000 0.000000 0.000000 0.000000 0.033275 0.000000
# 6 0.000000 0.000000 0.000000 0.000000 0.000000 0.039915
#
#
# Mechanical properties :
#
#
# Convention : Reuss Voigt Hill
#
# Bulk Modulus (GPa) = 42.71191 67.04439 54.87815
# Shear Modulus (GPa) = 20.30793 24.33338 22.32066
#
# Velocity S-wave (km/s) = 3.39883 3.72047 3.56329
# Velocity P-wave (km/s) = 6.30073 7.52289 6.93877
#
# Compressibility (1/GPa) = 0.02341267
#
# Stress axis : x y z
#
# Youngs Moduli (GPa) = 52.05342 55.87410 24.69249
#
# Poissons Ratio (x) = 0.53727 0.18787
# Poissons Ratio (y) = 0.50054 0.24378
# Poissons Ratio (z) = 0.39604 0.55164
#
# Static dielectric constant tensor:
#      x y z
#    x 3.400010 0.000000 0.000000 
#    y 0.000000 3.305020 0.000000 
#    z 0.000000 0.000000 3.323330 
# 
# 
# High freq. dielectric constant tensor:
#      x y z
#    x 1.682930 0.000000 0.000000 
#    y 0.000000 1.669740 0.000000 
#    z 0.000000 0.000000 1.677290 
# 
# From -- ./inp_files/12530.got.cif
#   From: 2010.03.12/outbox.cif.g09.slc.cpg/sg63_7_cif.got.tgz:12530.got - 2010.04.10 19:34:48.
