data_PCOD8258506
_publ_section_title
;
Structure prediction by ZEFSAII (Michael W. Deem and Ramdas Pophale) SiO2 
 PCOD8258506
Probable space group: C M C M
;
_chemical_formula_sum "Si O2"
_cell_formula_units_Z 104
_cell_length_a 26.285115
_cell_length_b 23.452350
_cell_length_c 8.596046
_cell_angle_alpha 90.000000
_cell_angle_beta 90.000000
_cell_angle_gamma 90.000000
_cell_volume 5299.012930
_symmetry_space_group_name_H-M "C M C M"
_symmetry_group_IT_number 63
_symmetry_cell_setting 'orthorhombic'
loop_
_space_group_symop_operation_xyz
x,y,z
-x,-y,1/2+z
x,-y,-z
-x,y,1/2-z
-x,-y,-z
x,y,1/2-z
-x,y,z
x,-y,1/2+z
1/2+x,1/2+y,z
1/2-x,1/2-y,1/2+z
1/2+x,1/2-y,-z
1/2-x,1/2+y,1/2-z
1/2-x,1/2-y,-z
1/2+x,1/2+y,1/2-z
1/2-x,1/2+y,z
1/2+x,1/2-y,1/2+z
loop_
_atom_site_type_symbol
_atom_site_label
_atom_site_fract_x
_atom_site_fract_y
_atom_site_fract_z
Si Si1 0.944838 0.939839 0.924457
Si Si2 0.175333 0.560009 0.066119
Si Si3 0.371306 0.358904 0.428378
Si Si4 0.592657 0.861708 0.066033
Si Si5 0.000000 0.437966 0.432808
Si Si6 0.292034 0.439834 0.932112
Si Si7 0.058452 0.242544 0.934543
O O1 0.920014 0.941519 0.750000
O O2 0.000000 0.910022 0.911703
O O3 0.911553 0.908679 0.051924
O O4 0.952522 0.000000 0.000000
O O5 0.167513 0.560916 0.250000
O O6 0.233784 0.567395 0.015382
O O7 0.154091 0.500000 0.000000
O O8 0.146380 0.613141 0.989102
O O9 0.356965 0.348448 0.250000
O O10 0.320554 0.381789 0.514069
O O11 0.400209 0.303422 0.500667
O O12 0.592192 0.852522 0.250000
O O13 0.549661 0.905226 0.007702
O O14 0.581398 0.802425 0.984044
O O15 0.000000 0.500000 0.500000
O O16 0.000000 0.442015 0.250000
O O17 0.297133 0.445113 0.750000
O O18 0.314149 0.500000 0.000000
O O19 0.056846 0.237253 0.750000
O O20 0.000000 0.234392 0.998380
#
# Coordination Sequence:
#
# PCOD8258506 Si02
#       7
#    16  16  16  16   8  16  16
#     4  10  20  33  50  74 105 141 181 230 290 348
#     4  10  21  38  61  89 119 152 190 233 286 346
#     4  11  22  36  56  81 110 146 193 241 288 345
#     4  11  22  38  59  86 119 153 192 234 283 341
#     4  10  22  36  54  86 120 150 183 224 275 334
#     4  10  21  38  60  86 117 151 191 240 293 346
#     4  10  22  40  60  82 112 154 197 239 289 341
#
# _framework density 19.626297999999998
#
# number of rings (size 3 to 8) (size 9 to 14) (size 15 to 20)
#    0.000    1.692    0.769    3.692    0.000    7.077 
#    0.000    0.769    0.000    0.000    0.000    0.000 
#    0.000    0.000    0.000    0.000    0.000    0.000 
#
# Total GULP energy -644488.861149 kJ/mol
# GULP energy per Si atom -12394.016561 kJ/mol
# Density = 1.958163 g / cm^3
# Si number density = 19.626298 Si / 1000 Ang^3
#
#
#
# Elastic Constant Matrix: (Units=GPa)
#
#
# Indices 1 2 3 4 5 6 
#
# 1 104.1287 61.5313 17.7697 0.0000 0.0000 0.0000
# 2 61.5313 116.5397 17.9400 0.0000 0.0000 0.0000
# 3 17.7697 17.9400 36.3680 0.0000 0.0000 0.0000
# 4 0.0000 0.0000 0.0000 31.8896 0.0000 0.0000
# 5 0.0000 0.0000 0.0000 0.0000 41.6671 0.0000
# 6 0.0000 0.0000 0.0000 0.0000 0.0000-2132.9727
#
#
#
# Elastic Compliance Matrix: (Units=1/GPa)
#
#
# Indices 1 2 3 4 5 6 
#
# 1 0.014369 -0.007041 -0.003548 0.000000 0.000000 0.000000
# 2 -0.007041 0.012736 -0.002842 0.000000 0.000000 0.000000
# 3 -0.003548 -0.002842 0.030632 0.000000 0.000000 0.000000
# 4 0.000000 0.000000 0.000000 0.031358 0.000000 0.000000
# 5 0.000000 0.000000 0.000000 0.000000 0.024000 0.000000
# 6 0.000000 0.000000 0.000000 0.000000 0.000000 -0.000469
#
#
# Mechanical properties :
#
#
# Convention : Reuss Voigt Hill
#
# Bulk Modulus (GPa) = 32.38791 50.16871 41.27831
# Shear Modulus (GPa) = 33.38225 -401.23018 -183.92396
#
# Velocity S-wave (km/s) = 4.12866 -14.31359 -9.69105
# Velocity P-wave (km/s) = 6.26625 15.73386 10.20510
#
# Compressibility (1/GPa) = 0.03087572
#
# Stress axis : x y z
#
# Youngs Moduli (GPa) = 69.59229 78.51953 32.64523
#
# Poissons Ratio (x) = 0.55283 0.11582
# Poissons Ratio (y) = 0.48998 0.09279
# Poissons Ratio (z) = 0.24691 0.22317
#
# Static dielectric constant tensor:
#      x y z
#    x 3.852390 0.000000 0.000000 
#    y 0.000000 3.580340 0.000000 
#    z 0.000000 0.000000 3.448880 
# 
# 
# High freq. dielectric constant tensor:
#      x y z
#    x 1.770320 0.000000 0.000000 
#    y 0.000000 1.757410 0.000000 
#    z 0.000000 0.000000 1.765910 
# 
# From -- ./inp_files/12489.got.cif
#   From: 2010.03.12/outbox.cif.g09.slc.cpg/sg63_7_cif.got.tgz:12489.got - 2010.04.10 19:34:48.
