data_PCOD8258611
_publ_section_title
;
Structure prediction by ZEFSAII (Michael W. Deem and Ramdas Pophale) SiO2 
 PCOD8258611
Probable space group: C M C M
;
_chemical_formula_sum "Si O2"
_cell_formula_units_Z 72
_cell_length_a 26.902826
_cell_length_b 14.328766
_cell_length_c 9.329083
_cell_angle_alpha 90.000000
_cell_angle_beta 90.000000
_cell_angle_gamma 90.000000
_cell_volume 3596.215016
_symmetry_space_group_name_H-M "C M C M"
_symmetry_group_IT_number 63
_symmetry_cell_setting 'orthorhombic'
loop_
_space_group_symop_operation_xyz
x,y,z
-x,-y,1/2+z
x,-y,-z
-x,y,1/2-z
-x,-y,-z
x,y,1/2-z
-x,y,z
x,-y,1/2+z
1/2+x,1/2+y,z
1/2-x,1/2-y,1/2+z
1/2+x,1/2-y,-z
1/2-x,1/2+y,1/2-z
1/2-x,1/2-y,-z
1/2+x,1/2+y,1/2-z
1/2-x,1/2+y,z
1/2+x,1/2-y,1/2+z
loop_
_atom_site_type_symbol
_atom_site_label
_atom_site_fract_x
_atom_site_fract_y
_atom_site_fract_z
Si Si1 0.833192 0.084655 0.090757
Si Si2 0.123082 0.595023 0.421384
Si Si3 0.730324 0.164034 0.088537
Si Si4 0.000000 0.097683 0.417171
Si Si5 0.090210 0.232619 0.417290
O O1 0.851977 0.063527 0.250000
O O2 0.773541 0.086492 0.080950
O O3 0.857174 0.183275 0.043849
O O4 0.854966 0.000000 0.000000
O O5 0.107362 0.500000 0.500000
O O6 0.116980 0.585513 0.250000
O O7 0.179597 0.618683 0.469215
O O8 0.086876 0.675584 0.483233
O O9 0.721874 0.199643 0.250000
O O10 0.750000 0.250000 0.000000
O O11 0.047490 0.159792 0.459598
O O12 0.000000 0.073498 0.250000
O O13 0.000000 0.000000 0.500000
O O14 0.086801 0.261988 0.250000
#
# Coordination Sequence:
#
# PCOD8258611 Si02
#       5
#    16  16  16   8  16
#     4  10  20  33  52  79 112 149 186 229 279 333
#     4  11  23  38  59  86 116 155 198 240 289 343
#     4  10  20  34  53  80 113 152 194 235 282 335
#     4  10  22  40  65  94 121 152 187 234 294 350
#     4  10  21  39  60  84 117 151 190 239 289 343
#
# _framework density 20.021049999999999
#
# number of rings (size 3 to 8) (size 9 to 14) (size 15 to 20)
#    0.000    1.778    2.222    2.000    0.000    3.556 
#    0.000    0.556    0.000    0.000    0.000    0.000 
#    0.000    0.000    0.000    0.000    0.000    0.000 
#
# Total GULP energy -446355.807066 kJ/mol
# GULP energy per Si atom -12398.772418 kJ/mol
# Density = 1.997548 g / cm^3
# Si number density = 20.021050 Si / 1000 Ang^3
#
#
#
# Elastic Constant Matrix: (Units=GPa)
#
#
# Indices 1 2 3 4 5 6 
#
# 1 76.9213 37.1792 25.3565 0.0000 0.0000 0.0000
# 2 37.1792 158.1856 81.0501 0.0000 0.0000 0.0000
# 3 25.3565 81.0501 91.3921 0.0000 0.0000 0.0000
# 4 0.0000 0.0000 0.0000 45.4093 0.0000 0.0000
# 5 0.0000 0.0000 0.0000 0.0000 21.4821 0.0000
# 6 0.0000 0.0000 0.0000 0.0000 0.0000 26.4962
#
#
#
# Elastic Compliance Matrix: (Units=1/GPa)
#
#
# Indices 1 2 3 4 5 6 
#
# 1 0.014840 -0.002526 -0.001877 0.000000 0.000000 0.000000
# 2 -0.002526 0.012017 -0.009956 0.000000 0.000000 0.000000
# 3 -0.001877 -0.009956 0.020292 0.000000 0.000000 0.000000
# 4 0.000000 0.000000 0.000000 0.022022 0.000000 0.000000
# 5 0.000000 0.000000 0.000000 0.000000 0.046550 0.000000
# 6 0.000000 0.000000 0.000000 0.000000 0.000000 0.037741
#
#
# Mechanical properties :
#
#
# Convention : Reuss Voigt Hill
#
# Bulk Modulus (GPa) = 54.25829 68.18561 61.22195
# Shear Modulus (GPa) = 26.55002 30.87171 28.71087
#
# Velocity S-wave (km/s) = 3.64552 3.93104 3.79097
# Velocity P-wave (km/s) = 6.69920 7.39831 7.05742
#
# Compressibility (1/GPa) = 0.01843036
#
# Stress axis : x y z
#
# Youngs Moduli (GPa) = 67.38515 83.21848 49.28076
#
# Poissons Ratio (x) = 0.21023 0.09250
# Poissons Ratio (y) = 0.17023 0.49063
# Poissons Ratio (z) = 0.12648 0.82851
#
# Static dielectric constant tensor:
#      x y z
#    x 3.713390 0.000000 0.000000 
#    y 0.000000 3.468130 0.000000 
#    z 0.000000 0.000000 3.564690 
# 
# 
# High freq. dielectric constant tensor:
#      x y z
#    x 1.770940 0.000000 0.000000 
#    y 0.000000 1.780060 0.000000 
#    z 0.000000 0.000000 1.776680 
# 
# From -- ./inp_files/11716.got.cif
#   From: 2010.03.12/outbox.cif.g09.slc.cpg/sg63_6_cif.got.tgz:11716.got - 2010.04.10 19:34:48.
