data_PCOD8258052
_publ_section_title
;
Structure prediction by ZEFSAII (Michael W. Deem and Ramdas Pophale) SiO2 
 PCOD8258052
Probable space group: C M C M
;
_chemical_formula_sum "Si O2"
_cell_formula_units_Z 112
_cell_length_a 15.818032
_cell_length_b 14.207617
_cell_length_c 24.250789
_cell_angle_alpha 90.000000
_cell_angle_beta 90.000000
_cell_angle_gamma 90.000000
_cell_volume 5450.038421
_symmetry_space_group_name_H-M "C M C M"
_symmetry_group_IT_number 63
_symmetry_cell_setting 'orthorhombic'
loop_
_space_group_symop_operation_xyz
x,y,z
-x,-y,1/2+z
x,-y,-z
-x,y,1/2-z
-x,-y,-z
x,y,1/2-z
-x,y,z
x,-y,1/2+z
1/2+x,1/2+y,z
1/2-x,1/2-y,1/2+z
1/2+x,1/2-y,-z
1/2-x,1/2+y,1/2-z
1/2-x,1/2-y,-z
1/2+x,1/2+y,1/2-z
1/2-x,1/2+y,z
1/2+x,1/2-y,1/2+z
loop_
_atom_site_type_symbol
_atom_site_label
_atom_site_fract_x
_atom_site_fract_y
_atom_site_fract_z
Si Si1 0.748846 0.107365 0.486987
Si Si2 0.594005 0.934300 0.584549
Si Si3 0.662805 0.152751 0.187528
Si Si4 0.787216 0.860021 0.312521
Si Si5 0.339863 0.861283 0.092645
Si Si6 0.846278 0.936869 0.811856
Si Si7 0.407665 0.334741 0.915677
O O1 0.666059 0.121932 0.448761
O O2 0.729927 0.160905 0.544544
O O3 0.833618 0.143388 0.458459
O O4 0.766528 0.000000 0.500000
O O5 0.500000 0.911250 0.561764
O O6 0.597576 0.900748 0.647979
O O7 0.607948 0.045689 0.577374
O O8 0.630780 0.139848 0.250000
O O9 0.665263 0.263483 0.171424
O O10 0.753601 0.105412 0.178892
O O11 0.753614 0.852625 0.250000
O O12 0.705790 0.876999 0.349628
O O13 0.848253 0.950003 0.319457
O O14 0.403593 0.775153 0.099252
O O15 0.878632 0.911338 0.750000
O O16 0.904708 0.893479 0.858893
O O17 0.500000 0.355284 0.942114
#
# Coordination Sequence:
#
# PCOD8258052 Si02
#       7
#    16  16  16  16  16  16  16
#     4  10  22  41  62  84 119 160 203 249 300 356
#     4  11  22  38  61  89 121 155 197 248 307 363
#     4  10  19  35  60  88 120 157 199 244 296 356
#     4  10  19  35  64  90 115 157 201 242 298 359
#     4  11  21  37  60  90 121 154 195 249 307 363
#     4  10  19  36  60  86 119 160 200 242 297 357
#     4  12  24  39  60  89 123 161 204 250 299 355
#
# _framework density 20.550314
#
# number of rings (size 3 to 8) (size 9 to 14) (size 15 to 20)
#    0.000    1.429    4.286    1.714    0.000    4.000 
#    0.000    0.714    0.000    5.143    0.000    0.000 
#    0.000    0.000    0.000    0.000    0.000    0.000 
#
# Total GULP energy -694321.306190 kJ/mol
# GULP energy per Si atom -12398.594753 kJ/mol
# Density = 2.050354 g / cm^3
# Si number density = 20.550314 Si / 1000 Ang^3
#
#
#
# Elastic Constant Matrix: (Units=GPa)
#
#
# Indices 1 2 3 4 5 6 
#
# 1 126.7004 28.5346 46.3413 0.0000 0.0000 0.0000
# 2 28.5346 98.0682 32.4631 0.0000 0.0000 0.0000
# 3 46.3413 32.4631 92.2575 0.0000 0.0000 0.0000
# 4 0.0000 0.0000 0.0000 27.5312 0.0000 0.0000
# 5 0.0000 0.0000 0.0000 0.0000 10.5050 0.0000
# 6 0.0000 0.0000 0.0000 0.0000 0.0000 10.0185
#
#
#
# Elastic Compliance Matrix: (Units=1/GPa)
#
#
# Indices 1 2 3 4 5 6 
#
# 1 0.009833 -0.001388 -0.004451 0.000000 0.000000 0.000000
# 2 -0.001388 0.011737 -0.003433 0.000000 0.000000 0.000000
# 3 -0.004451 -0.003433 0.014283 0.000000 0.000000 0.000000
# 4 0.000000 0.000000 0.000000 0.036322 0.000000 0.000000
# 5 0.000000 0.000000 0.000000 0.000000 0.095193 0.000000
# 6 0.000000 0.000000 0.000000 0.000000 0.000000 0.099815
#
#
# Mechanical properties :
#
#
# Convention : Reuss Voigt Hill
#
# Bulk Modulus (GPa) = 57.77009 59.07824 58.42417
# Shear Modulus (GPa) = 17.15288 23.59009 20.37148
#
# Velocity S-wave (km/s) = 2.89221 3.39177 3.15190
# Velocity P-wave (km/s) = 6.27103 6.64450 6.46046
#
# Compressibility (1/GPa) = 0.01731000
#
# Stress axis : x y z
#
# Youngs Moduli (GPa) = 101.69720 85.19937 70.01383
#
# Poissons Ratio (x) = 0.11824 0.31162
# Poissons Ratio (y) = 0.14113 0.24035
# Poissons Ratio (z) = 0.45264 0.29249
#
# Static dielectric constant tensor:
#      x y z
#    x 3.331230 0.000000 0.000000 
#    y 0.000000 3.958950 0.000000 
#    z 0.000000 0.000000 3.944480 
# 
# 
# High freq. dielectric constant tensor:
#      x y z
#    x 1.766340 0.000000 0.000000 
#    y 0.000000 1.816240 0.000000 
#    z 0.000000 0.000000 1.813900 
# 
# From -- ./inp_files/63013.got.cif
#   From: 2010.03.12/outbox.cif.g09.slc.cpg/sg63_32_cif.got.tgz:63013.got - 2010.04.10 19:34:48.
