data_PCOD8258045
_publ_section_title
;
Structure prediction by ZEFSAII (Michael W. Deem and Ramdas Pophale) SiO2 
 PCOD8258045
Probable space group: C M C M
;
_chemical_formula_sum "Si O2"
_cell_formula_units_Z 80
_cell_length_a 9.116483
_cell_length_b 24.877632
_cell_length_c 18.651165
_cell_angle_alpha 90.000000
_cell_angle_beta 90.000000
_cell_angle_gamma 90.000000
_cell_volume 4230.019115
_symmetry_space_group_name_H-M "C M C M"
_symmetry_group_IT_number 63
_symmetry_cell_setting 'orthorhombic'
loop_
_space_group_symop_operation_xyz
x,y,z
-x,-y,1/2+z
x,-y,-z
-x,y,1/2-z
-x,-y,-z
x,y,1/2-z
-x,y,z
x,-y,1/2+z
1/2+x,1/2+y,z
1/2-x,1/2-y,1/2+z
1/2+x,1/2-y,-z
1/2-x,1/2+y,1/2-z
1/2-x,1/2-y,-z
1/2+x,1/2+y,1/2-z
1/2-x,1/2+y,z
1/2+x,1/2-y,1/2+z
loop_
_atom_site_type_symbol
_atom_site_label
_atom_site_fract_x
_atom_site_fract_y
_atom_site_fract_z
Si Si1 0.671407 0.224052 0.433215
Si Si2 0.173440 0.601415 0.066803
Si Si3 0.826937 0.184161 0.829441
Si Si4 0.827908 0.915864 0.420753
Si Si5 0.330537 0.477811 0.666861
O O1 0.500000 0.227465 0.448860
O O2 0.750000 0.250000 0.500000
O O3 0.722871 0.163042 0.422282
O O4 0.713826 0.257917 0.362448
O O5 0.231063 0.569494 0.135539
O O6 0.000000 0.595480 0.061401
O O7 0.244516 0.576872 0.995426
O O8 0.756611 0.180572 0.750000
O O9 0.765386 0.136735 0.880033
O O10 0.000000 0.176407 0.823454
O O11 0.000000 0.910729 0.437256
O O12 0.791588 0.966583 0.371632
O O13 0.292430 0.484821 0.750000
O O14 0.500000 0.462704 0.655011
#
# Coordination Sequence:
#
# PCOD8258045 Si02
#       5
#    16  16  16  16  16
#     4  10  20  35  56  81 110 146 185 227 271 328
#     4  11  23  36  55  84 116 151 187 225 275 340
#     4   9  17  31  55  84 108 136 180 233 282 323
#     4  10  19  35  60  84 107 142 188 237 280 327
#     4  10  22  39  58  82 111 145 189 237 281 328
#
# _framework density 18.912445000000002
#
# number of rings (size 3 to 8) (size 9 to 14) (size 15 to 20)
#    0.000    2.000    2.000    1.800    0.000    7.600 
#    0.000    2.000    0.000    3.600    0.000    0.000 
#    0.000    0.000    0.000    0.000    0.000    0.000 
#
# Total GULP energy -496116.998858 kJ/mol
# GULP energy per Si atom -12402.924971 kJ/mol
# Density = 1.886940 g / cm^3
# Si number density = 18.912445 Si / 1000 Ang^3
#
#
#
# Elastic Constant Matrix: (Units=GPa)
#
#
# Indices 1 2 3 4 5 6 
#
# 1 42.9024 47.1386 29.5929 0.0000 0.0000 0.0000
# 2 47.1386 140.7652 58.9854 0.0000 0.0000 0.0000
# 3 29.5929 58.9854 98.8710 0.0000 0.0000 0.0000
# 4 0.0000 0.0000 0.0000 34.9602 0.0000 0.0000
# 5 0.0000 0.0000 0.0000 0.0000 22.2003 0.0000
# 6 0.0000 0.0000 0.0000 0.0000 0.0000 25.9624
#
#
#
# Elastic Compliance Matrix: (Units=1/GPa)
#
#
# Indices 1 2 3 4 5 6 
#
# 1 0.038743 -0.010820 -0.005141 0.000000 0.000000 0.000000
# 2 -0.010820 0.012494 -0.004215 0.000000 0.000000 0.000000
# 3 -0.005141 -0.004215 0.014168 0.000000 0.000000 0.000000
# 4 0.000000 0.000000 0.000000 0.028604 0.000000 0.000000
# 5 0.000000 0.000000 0.000000 0.000000 0.045044 0.000000
# 6 0.000000 0.000000 0.000000 0.000000 0.000000 0.038517
#
#
# Mechanical properties :
#
#
# Convention : Reuss Voigt Hill
#
# Bulk Modulus (GPa) = 39.91653 61.55248 50.73450
# Shear Modulus (GPa) = 22.09727 26.41272 24.25499
#
# Velocity S-wave (km/s) = 3.42189 3.74114 3.58507
# Velocity P-wave (km/s) = 6.06335 7.16088 6.63485
#
# Compressibility (1/GPa) = 0.02505228
#
# Stress axis : x y z
#
# Youngs Moduli (GPa) = 25.81111 80.04145 70.58331
#
# Poissons Ratio (x) = 0.86602 0.36288
# Poissons Ratio (y) = 0.27927 0.29751
# Poissons Ratio (z) = 0.13270 0.33738
#
# Static dielectric constant tensor:
#      x y z
#    x 3.224840 0.000000 0.000000 
#    y 0.000000 3.746810 0.000000 
#    z 0.000000 0.000000 2.140190 
# 
# 
# High freq. dielectric constant tensor:
#      x y z
#    x 1.705720 0.000000 0.000000 
#    y 0.000000 1.749830 0.000000 
#    z 0.000000 0.000000 1.743010 
# 
# From -- ./inp_files/40462.got.cif
#   From: 2010.03.12/outbox.cif.g09.slc.cpg/sg63_21_cif.got.tgz:40462.got - 2010.04.10 19:34:48.
