data_PCOD8258124
_publ_section_title
;
Structure prediction by ZEFSAII (Michael W. Deem and Ramdas Pophale) SiO2 
 PCOD8258124
Probable space group: C M C M
;
_chemical_formula_sum "Si O2"
_cell_formula_units_Z 112
_cell_length_a 30.951974
_cell_length_b 12.539576
_cell_length_c 13.848486
_cell_angle_alpha 90.000000
_cell_angle_beta 90.000000
_cell_angle_gamma 90.000000
_cell_volume 5374.938509
_symmetry_space_group_name_H-M "C M C M"
_symmetry_group_IT_number 63
_symmetry_cell_setting 'orthorhombic'
loop_
_space_group_symop_operation_xyz
x,y,z
-x,-y,1/2+z
x,-y,-z
-x,y,1/2-z
-x,-y,-z
x,y,1/2-z
-x,y,z
x,-y,1/2+z
1/2+x,1/2+y,z
1/2-x,1/2-y,1/2+z
1/2+x,1/2-y,-z
1/2-x,1/2+y,1/2-z
1/2-x,1/2-y,-z
1/2+x,1/2+y,1/2-z
1/2-x,1/2+y,z
1/2+x,1/2-y,1/2+z
loop_
_atom_site_type_symbol
_atom_site_label
_atom_site_fract_x
_atom_site_fract_y
_atom_site_fract_z
Si Si1 0.103366 0.677754 0.862385
Si Si2 0.175441 0.709977 0.505034
Si Si3 0.144935 0.545057 0.356570
Si Si4 0.050805 0.155532 0.460455
Si Si5 0.821401 0.929175 0.090161
Si Si6 0.229087 0.411821 0.354881
Si Si7 0.414736 0.550413 0.856340
O O1 0.098303 0.703871 0.750000
O O2 0.145106 0.741247 0.903887
O O3 0.110970 0.550831 0.878932
O O4 0.062163 0.726212 0.919897
O O5 0.144681 0.631675 0.441091
O O6 0.188269 0.807789 0.439262
O O7 0.219236 0.662120 0.551922
O O8 0.134070 0.593224 0.250000
O O9 0.194094 0.504998 0.355639
O O10 0.068036 0.140900 0.569996
O O11 0.000000 0.139005 0.459447
O O12 0.072703 0.066996 0.392701
O O13 0.776497 0.966254 0.138255
O O14 0.863006 0.938107 0.158134
O O15 0.833780 0.000000 0.000000
O O16 0.226129 0.352253 0.250000
O O17 0.435172 0.568672 0.750000
#
# Coordination Sequence:
#
# PCOD8258124 Si02
#       7
#    16  16  16  16  16  16  16
#     4  10  19  36  60  89 115 148 197 253 304 356
#     4  11  20  38  60  82 120 163 209 249 302 367
#     4   9  20  37  61  87 119 159 209 255 304 365
#     4  11  23  41  63  91 121 158 210 257 309 381
#     4  12  22  37  56  85 124 162 205 254 304 360
#     4  10  21  36  55  86 119 161 208 255 302 351
#     4  11  22  39  58  87 126 165 203 249 309 375
#
# _framework density 20.837447999999998
#
# number of rings (size 3 to 8) (size 9 to 14) (size 15 to 20)
#    0.000    1.429    2.857    6.000    0.000    3.143 
#    0.000    3.571    0.000    1.714    0.000    0.000 
#    0.000    0.000    0.000    0.000    0.000    0.000 
#
# Total GULP energy -693907.240541 kJ/mol
# GULP energy per Si atom -12391.200724 kJ/mol
# Density = 2.079002 g / cm^3
# Si number density = 20.837448 Si / 1000 Ang^3
#
#
#
# Elastic Constant Matrix: (Units=GPa)
#
#
# Indices 1 2 3 4 5 6 
#
# 1 103.1407 21.4297 28.0078 0.0000 0.0000 0.0000
# 2 21.4297 70.1974 41.7442 0.0000 0.0000 0.0000
# 3 28.0078 41.7442 147.1259 0.0000 0.0000 0.0000
# 4 0.0000 0.0000 0.0000 8.1260 0.0000 0.0000
# 5 0.0000 0.0000 0.0000 0.0000 -0.2065 0.0000
# 6 0.0000 0.0000 0.0000 0.0000 0.0000 19.0365
#
#
#
# Elastic Compliance Matrix: (Units=1/GPa)
#
#
# Indices 1 2 3 4 5 6 
#
# 1 0.010560 -0.002440 -0.001318 0.000000 0.000000 0.000000
# 2 -0.002440 0.017701 -0.004558 0.000000 0.000000 0.000000
# 3 -0.001318 -0.004558 0.008341 0.000000 0.000000 0.000000
# 4 0.000000 0.000000 0.000000 0.123062 0.000000 0.000000
# 5 0.000000 0.000000 0.000000 0.000000 -4.841775 0.000000
# 6 0.000000 0.000000 0.000000 0.000000 0.000000 0.052531
#
#
# Mechanical properties :
#
#
# Convention : Reuss Voigt Hill
#
# Bulk Modulus (GPa) = 50.07391 55.86970 52.97180
# Shear Modulus (GPa) = -1.08547 20.67669 9.79561
#
# Velocity S-wave (km/s) = -0.72253 3.15347 2.17052
# Velocity P-wave (km/s) = 4.83599 6.33479 5.63544
#
# Compressibility (1/GPa) = 0.01997048
#
# Stress axis : x y z
#
# Youngs Moduli (GPa) = 94.69360 56.49466 119.88987
#
# Poissons Ratio (x) = 0.13785 0.15802
# Poissons Ratio (y) = 0.23106 0.54643
# Poissons Ratio (z) = 0.12481 0.25749
#
# Static dielectric constant tensor:
#      x y z
#    x 3.603930 0.000000 0.000000 
#    y 0.000000 3.570390 0.000000 
#    z 0.000000 0.000000 4.113590 
# 
# 
# High freq. dielectric constant tensor:
#      x y z
#    x 1.797090 0.000000 0.000000 
#    y 0.000000 1.782720 0.000000 
#    z 0.000000 0.000000 1.835100 
# 
# From -- ./inp_files/38512.got.cif
#   From: 2010.03.12/outbox.cif.g09.slc.cpg/sg63_20_cif.got.tgz:38512.got - 2010.04.10 19:34:48.
