data_PCOD8258335
_publ_section_title
;
Structure prediction by ZEFSAII (Michael W. Deem and Ramdas Pophale) SiO2 
 PCOD8258335
Probable space group: C M C M
;
_chemical_formula_sum "Si O2"
_cell_formula_units_Z 96
_cell_length_a 9.148532
_cell_length_b 28.478554
_cell_length_c 20.858192
_cell_angle_alpha 90.000000
_cell_angle_beta 90.000000
_cell_angle_gamma 90.000000
_cell_volume 5434.329989
_symmetry_space_group_name_H-M "C M C M"
_symmetry_group_IT_number 63
_symmetry_cell_setting 'orthorhombic'
loop_
_space_group_symop_operation_xyz
x,y,z
-x,-y,1/2+z
x,-y,-z
-x,y,1/2-z
-x,-y,-z
x,y,1/2-z
-x,y,z
x,-y,1/2+z
1/2+x,1/2+y,z
1/2-x,1/2-y,1/2+z
1/2+x,1/2-y,-z
1/2-x,1/2+y,1/2-z
1/2-x,1/2-y,-z
1/2+x,1/2+y,1/2-z
1/2-x,1/2+y,z
1/2+x,1/2-y,1/2+z
loop_
_atom_site_type_symbol
_atom_site_label
_atom_site_fract_x
_atom_site_fract_y
_atom_site_fract_z
Si Si1 0.672720 0.069672 0.894920
Si Si2 0.660627 0.357748 0.324163
Si Si3 0.160513 0.983104 0.572776
Si Si4 0.330368 0.766883 0.176825
Si Si5 0.671681 0.610894 0.017261
Si Si6 0.670347 0.284267 0.549679
O O1 0.500000 0.071653 0.894401
O O2 0.740528 0.096277 0.834288
O O3 0.721798 0.015152 0.890537
O O4 0.734249 0.097829 0.955552
O O5 0.637948 0.351240 0.250000
O O6 0.500000 0.362116 0.357400
O O7 0.741956 0.311569 0.349881
O O8 0.205086 0.927885 0.572973
O O9 0.000000 0.989855 0.604351
O O10 0.154642 0.000000 0.500000
O O11 0.285554 0.751675 0.250000
O O12 0.500000 0.780697 0.175994
O O13 0.295501 0.726589 0.124659
O O14 0.500000 0.608922 0.999902
O O15 0.721836 0.662083 0.040389
O O16 0.500000 0.278672 0.535224
O O17 0.750000 0.250000 0.500000
#
# Coordination Sequence:
#
# PCOD8258335 Si02
#       6
#    16  16  16  16  16  16
#     4  11  20  29  46  71  97 122 151 192 241 288
#     4  10  20  33  49  68  91 122 159 194 231 282
#     4   8  15  29  47  65  89 123 156 187 227 277
#     4   9  18  33  51  71  97 127 159 196 240 288
#     4   9  18  32  48  67  95 128 160 194 232 278
#     4  10  20  32  48  72  99 128 161 200 244 284
#
# _framework density 17.665471
#
# number of rings (size 3 to 8) (size 9 to 14) (size 15 to 20)
#    0.000    2.500    0.000    4.000    0.000    8.000 
#    0.000    0.000    0.000    1.000    0.000    4.667 
#    0.000    0.000    0.000    0.000    0.000    0.000 
#
# Total GULP energy -594846.135888 kJ/mol
# GULP energy per Si atom -12392.627831 kJ/mol
# Density = 1.762526 g / cm^3
# Si number density = 17.665471 Si / 1000 Ang^3
#
#
#
# Elastic Constant Matrix: (Units=GPa)
#
#
# Indices 1 2 3 4 5 6 
#
# 1 93.6749 50.7957 21.2816 0.0000 0.0000 0.0000
# 2 50.7957 151.6567 37.2551 0.0000 0.0000 0.0000
# 3 21.2816 37.2551 49.4504 0.0000 0.0000 0.0000
# 4 0.0000 0.0000 0.0000 24.4790 0.0000 0.0000
# 5 0.0000 0.0000 0.0000 0.0000 19.8840 0.0000
# 6 0.0000 0.0000 0.0000 0.0000 0.0000 27.8051
#
#
#
# Elastic Compliance Matrix: (Units=1/GPa)
#
#
# Indices 1 2 3 4 5 6 
#
# 1 0.013380 -0.003763 -0.002923 0.000000 0.000000 0.000000
# 2 -0.003763 0.009150 -0.005274 0.000000 0.000000 0.000000
# 3 -0.002923 -0.005274 0.025453 0.000000 0.000000 0.000000
# 4 0.000000 0.000000 0.000000 0.040851 0.000000 0.000000
# 5 0.000000 0.000000 0.000000 0.000000 0.050292 0.000000
# 6 0.000000 0.000000 0.000000 0.000000 0.000000 0.035965
#
#
# Mechanical properties :
#
#
# Convention : Reuss Voigt Hill
#
# Bulk Modulus (GPa) = 41.55755 57.04964 49.30360
# Shear Modulus (GPa) = 24.15085 26.79693 25.47389
#
# Velocity S-wave (km/s) = 3.70147 3.89898 3.80151
# Velocity P-wave (km/s) = 6.46867 7.25492 6.87305
#
# Compressibility (1/GPa) = 0.02406302
#
# Stress axis : x y z
#
# Youngs Moduli (GPa) = 74.73830 109.29108 39.28765
#
# Poissons Ratio (x) = 0.41131 0.11483
# Poissons Ratio (y) = 0.28127 0.20719
# Poissons Ratio (z) = 0.21845 0.57637
#
# Static dielectric constant tensor:
#      x y z
#    x 3.470600 0.000000 0.000000 
#    y 0.000000 3.666950 0.000000 
#    z 0.000000 0.000000 3.096070 
# 
# 
# High freq. dielectric constant tensor:
#      x y z
#    x 1.682980 0.000000 0.000000 
#    y 0.000000 1.685970 0.000000 
#    z 0.000000 0.000000 1.650400 
# 
# From -- ./inp_files/60188.got.cif
#   From: 2010.03.12/outbox.cif.g09.slc.cpg/sg63_31_cif.got.tgz:60188.got - 2010.04.10 19:34:48.
