data_PCOD8258467
_publ_section_title
;
Structure prediction by ZEFSAII (Michael W. Deem and Ramdas Pophale) SiO2 
 PCOD8258467
Probable space group: C M C M
;
_chemical_formula_sum "Si O2"
_cell_formula_units_Z 80
_cell_length_a 9.189126
_cell_length_b 25.984717
_cell_length_c 18.475218
_cell_angle_alpha 90.000000
_cell_angle_beta 90.000000
_cell_angle_gamma 90.000000
_cell_volume 4411.454146
_symmetry_space_group_name_H-M "C M C M"
_symmetry_group_IT_number 63
_symmetry_cell_setting 'orthorhombic'
loop_
_space_group_symop_operation_xyz
x,y,z
-x,-y,1/2+z
x,-y,-z
-x,y,1/2-z
-x,-y,-z
x,y,1/2-z
-x,y,z
x,-y,1/2+z
1/2+x,1/2+y,z
1/2-x,1/2-y,1/2+z
1/2+x,1/2-y,-z
1/2-x,1/2+y,1/2-z
1/2-x,1/2-y,-z
1/2+x,1/2+y,1/2-z
1/2-x,1/2+y,z
1/2+x,1/2-y,1/2+z
loop_
_atom_site_type_symbol
_atom_site_label
_atom_site_fract_x
_atom_site_fract_y
_atom_site_fract_z
Si Si1 0.162408 0.212087 0.663776
Si Si2 0.330540 0.499469 0.084674
Si Si3 0.672812 0.599626 0.669589
Si Si4 0.329613 0.089858 0.334263
Si Si5 0.163204 0.191009 0.336121
O O1 0.155861 0.214930 0.750000
O O2 0.226203 0.155828 0.641478
O O3 0.265547 0.256827 0.632184
O O4 0.000000 0.220397 0.632288
O O5 0.500000 0.508701 0.103128
O O6 0.275014 0.444601 0.114976
O O7 0.236001 0.543099 0.121480
O O8 0.301010 0.500000 0.000000
O O9 0.735338 0.587805 0.750000
O O10 0.500000 0.601977 0.673799
O O11 0.295580 0.080724 0.250000
O O12 0.500000 0.094139 0.349269
O O13 0.255703 0.142192 0.362606
O O14 0.162173 0.193348 0.250000
O O15 0.000000 0.186157 0.366971
#
# Coordination Sequence:
#
# PCOD8258467 Si02
#       5
#    16  16  16  16  16
#     4   8  13  23  41  65  92 121 152 186 227 278
#     4  10  20  33  50  72  98 129 164 202 244 289
#     4   8  14  26  46  70  95 125 159 193 232 281
#     4  10  20  33  50  72  97 127 163 200 238 283
#     4   9  16  26  43  69  98 123 148 187 239 286
#
# _framework density 18.134609000000001
#
# number of rings (size 3 to 8) (size 9 to 14) (size 15 to 20)
#    0.000    3.000    0.000    3.000    0.000    4.800 
#    0.000    1.000    0.000    4.800    0.000    0.000 
#    0.000    0.000    0.000    0.000    0.000    0.000 
#
# Total GULP energy -495844.749497 kJ/mol
# GULP energy per Si atom -12396.118737 kJ/mol
# Density = 1.809333 g / cm^3
# Si number density = 18.134609 Si / 1000 Ang^3
#
#
#
# Elastic Constant Matrix: (Units=GPa)
#
#
# Indices 1 2 3 4 5 6 
#
# 1 96.3172 79.7151 37.1652 0.0000 0.0000 0.0000
# 2 79.7151 193.6362 52.9462 0.0000 0.0000 0.0000
# 3 37.1652 52.9462 46.5447 0.0000 0.0000 0.0000
# 4 0.0000 0.0000 0.0000 -2.3370 0.0000 0.0000
# 5 0.0000 0.0000 0.0000 0.0000 13.4364 0.0000
# 6 0.0000 0.0000 0.0000 0.0000 0.0000 30.8833
#
#
#
# Elastic Compliance Matrix: (Units=1/GPa)
#
#
# Indices 1 2 3 4 5 6 
#
# 1 0.017814 -0.004999 -0.008538 0.000000 0.000000 0.000000
# 2 -0.004999 0.008899 -0.006131 0.000000 0.000000 0.000000
# 3 -0.008538 -0.006131 0.035276 0.000000 0.000000 0.000000
# 4 0.000000 0.000000 0.000000 -0.427898 0.000000 0.000000
# 5 0.000000 0.000000 0.000000 0.000000 0.074424 0.000000
# 6 0.000000 0.000000 0.000000 0.000000 0.000000 0.032380
#
#
# Mechanical properties :
#
#
# Convention : Reuss Voigt Hill
#
# Bulk Modulus (GPa) = 44.14319 75.12791 59.63555
# Shear Modulus (GPa) = -23.56064 19.50800 -2.02632
#
# Velocity S-wave (km/s) = -3.60836 3.28340 -1.05821
# Velocity P-wave (km/s) = 2.65225 7.47610 5.60921
#
# Compressibility (1/GPa) = 0.02265355
#
# Stress axis : x y z
#
# Youngs Moduli (GPa) = 56.13498 112.37568 28.34801
#
# Poissons Ratio (x) = 0.56179 0.24202
# Poissons Ratio (y) = 0.28063 0.17380
# Poissons Ratio (z) = 0.47926 0.68895
#
# Static dielectric constant tensor:
#      x y z
#    x 3.279250 0.000000 0.000000 
#    y 0.000000 3.781820 0.000000 
#    z 0.000000 0.000000 2.770860 
# 
# 
# High freq. dielectric constant tensor:
#      x y z
#    x 1.683630 0.000000 0.000000 
#    y 0.000000 1.724480 0.000000 
#    z 0.000000 0.000000 1.648680 
# 
# From -- ./inp_files/40495.got.cif
#   From: 2010.03.12/outbox.cif.g09.slc.cpg/sg63_21_cif.got.tgz:40495.got - 2010.04.10 19:34:48.
