data_PCOD8258261
_publ_section_title
;
Structure prediction by ZEFSAII (Michael W. Deem and Ramdas Pophale) SiO2 
 PCOD8258261
Probable space group: C M C M
;
_chemical_formula_sum "Si O2"
_cell_formula_units_Z 104
_cell_length_a 20.166740
_cell_length_b 31.478980
_cell_length_c 9.073749
_cell_angle_alpha 90.000000
_cell_angle_beta 90.000000
_cell_angle_gamma 90.000000
_cell_volume 5760.273606
_symmetry_space_group_name_H-M "C M C M"
_symmetry_group_IT_number 63
_symmetry_cell_setting 'orthorhombic'
loop_
_space_group_symop_operation_xyz
x,y,z
-x,-y,1/2+z
x,-y,-z
-x,y,1/2-z
-x,-y,-z
x,y,1/2-z
-x,y,z
x,-y,1/2+z
1/2+x,1/2+y,z
1/2-x,1/2-y,1/2+z
1/2+x,1/2-y,-z
1/2-x,1/2+y,1/2-z
1/2-x,1/2-y,-z
1/2+x,1/2+y,1/2-z
1/2-x,1/2+y,z
1/2+x,1/2-y,1/2+z
loop_
_atom_site_type_symbol
_atom_site_label
_atom_site_fract_x
_atom_site_fract_y
_atom_site_fract_z
Si Si1 0.575628 0.824093 0.082020
Si Si2 0.806914 0.634790 0.076496
Si Si3 0.139476 0.925682 0.417292
Si Si4 0.683905 0.669277 0.918331
Si Si5 0.000000 0.956101 0.078262
Si Si6 0.075037 0.774951 0.578640
Si Si7 0.760960 0.458021 0.576799
O O1 0.596535 0.833788 0.250000
O O2 0.500000 0.837966 0.054725
O O3 0.584527 0.774643 0.047658
O O4 0.620015 0.851744 0.972275
O O5 0.798027 0.639300 0.250000
O O6 0.797956 0.585443 0.027955
O O7 0.754317 0.667130 0.002080
O O8 0.151233 0.941657 0.250000
O O9 0.151788 0.876339 0.431698
O O10 0.064369 0.930236 0.471169
O O11 0.185041 0.953696 0.524303
O O12 0.697338 0.682824 0.750000
O O13 0.632108 0.701982 0.987443
O O14 0.000000 0.964594 0.250000
O O15 0.000000 0.000000 0.000000
O O16 0.084743 0.785570 0.750000
O O17 0.000000 0.788445 0.530012
O O18 0.792883 0.500000 0.500000
O O19 0.764156 0.464951 0.750000
#
# Coordination Sequence:
#
# PCOD8258261 Si02
#       7
#    16  16  16  16   8  16  16
#     4   9  19  37  59  81 106 137 172 210 258 315
#     4  10  21  36  55  80 109 137 171 215 261 311
#     4   9  19  33  48  67  96 132 170 216 262 303
#     4  10  20  33  52  76 103 138 180 222 264 307
#     4  10  20  32  44  62  90 124 166 214 260 304
#     4   9  19  35  53  75 106 142 178 219 264 310
#     4  10  20  34  53  76 102 131 167 209 254 306
#
# _framework density 18.054698999999999
#
# number of rings (size 3 to 8) (size 9 to 14) (size 15 to 20)
#    0.000    2.462    0.000    2.769    1.077    6.154 
#    0.000    1.538    0.000    0.462    0.000    0.000 
#    0.000    0.000    0.000    0.000    0.000    0.000 
#
# Total GULP energy -644714.705969 kJ/mol
# GULP energy per Si atom -12398.359730 kJ/mol
# Density = 1.801361 g / cm^3
# Si number density = 18.054699 Si / 1000 Ang^3
#
#
#
# Elastic Constant Matrix: (Units=GPa)
#
#
# Indices 1 2 3 4 5 6 
#
# 1 103.0196 48.6742 46.0684 0.0000 0.0000 0.0000
# 2 48.6742 68.9347 43.7193 0.0000 0.0000 0.0000
# 3 46.0684 43.7193 78.9911 0.0000 0.0000 0.0000
# 4 0.0000 0.0000 0.0000 31.3466 0.0000 0.0000
# 5 0.0000 0.0000 0.0000 0.0000 33.0876 0.0000
# 6 0.0000 0.0000 0.0000 0.0000 0.0000 17.9220
#
#
#
# Elastic Compliance Matrix: (Units=1/GPa)
#
#
# Indices 1 2 3 4 5 6 
#
# 1 0.015590 -0.008076 -0.004622 0.000000 0.000000 0.000000
# 2 -0.008076 0.026537 -0.009977 0.000000 0.000000 0.000000
# 3 -0.004622 -0.009977 0.020877 0.000000 0.000000 0.000000
# 4 0.000000 0.000000 0.000000 0.031901 0.000000 0.000000
# 5 0.000000 0.000000 0.000000 0.000000 0.030223 0.000000
# 6 0.000000 0.000000 0.000000 0.000000 0.000000 0.055797
#
#
# Mechanical properties :
#
#
# Convention : Reuss Voigt Hill
#
# Bulk Modulus (GPa) = 56.64845 58.65212 57.65029
# Shear Modulus (GPa) = 21.53684 23.97016 22.75350
#
# Velocity S-wave (km/s) = 3.45754 3.64763 3.55386
# Velocity P-wave (km/s) = 6.88357 7.09201 6.98857
#
# Compressibility (1/GPa) = 0.01765273
#
# Stress axis : x y z
#
# Youngs Moduli (GPa) = 64.14517 37.68360 47.89898
#
# Poissons Ratio (x) = 0.30435 0.22139
# Poissons Ratio (y) = 0.51806 0.47789
# Poissons Ratio (z) = 0.29648 0.37597
#
# Static dielectric constant tensor:
#      x y z
#    x 3.325680 0.000000 0.000000 
#    y 0.000000 3.298100 0.000000 
#    z 0.000000 0.000000 3.270650 
# 
# 
# High freq. dielectric constant tensor:
#      x y z
#    x 1.691590 0.000000 0.000000 
#    y 0.000000 1.695420 0.000000 
#    z 0.000000 0.000000 1.701450 
# 
# From -- ./inp_files/9107.got.cif
#   From: 2010.03.12/outbox.cif.g09.slc.cpg/sg63_5_cif.got.tgz:9107.got - 2010.04.10 19:34:48.
