data_PCOD8258304
_publ_section_title
;
Structure prediction by ZEFSAII (Michael W. Deem and Ramdas Pophale) SiO2 
 PCOD8258304
Probable space group: C M C M
;
_chemical_formula_sum "Si O2"
_cell_formula_units_Z 80
_cell_length_a 13.586205
_cell_length_b 34.294473
_cell_length_c 9.288577
_cell_angle_alpha 90.000000
_cell_angle_beta 90.000000
_cell_angle_gamma 90.000000
_cell_volume 4327.842849
_symmetry_space_group_name_H-M "C M C M"
_symmetry_group_IT_number 63
_symmetry_cell_setting 'orthorhombic'
loop_
_space_group_symop_operation_xyz
x,y,z
-x,-y,1/2+z
x,-y,-z
-x,y,1/2-z
-x,-y,-z
x,y,1/2-z
-x,y,z
x,-y,1/2+z
1/2+x,1/2+y,z
1/2-x,1/2-y,1/2+z
1/2+x,1/2-y,-z
1/2-x,1/2+y,1/2-z
1/2-x,1/2-y,-z
1/2+x,1/2+y,1/2-z
1/2-x,1/2+y,z
1/2+x,1/2-y,1/2+z
loop_
_atom_site_type_symbol
_atom_site_label
_atom_site_fract_x
_atom_site_fract_y
_atom_site_fract_z
Si Si1 0.384069 0.188426 0.910933
Si Si2 0.382602 0.738441 0.912899
Si Si3 0.613383 0.037892 0.417489
Si Si4 0.798929 0.381463 0.584298
Si Si5 0.389445 0.663378 0.414359
O O1 0.339180 0.187740 0.750000
O O2 0.500000 0.193722 0.903093
O O3 0.337712 0.225223 0.997255
O O4 0.361799 0.148318 0.990880
O O5 0.342725 0.740581 0.750000
O O6 0.500000 0.740479 0.915994
O O7 0.348646 0.697886 0.984722
O O8 0.626769 0.029554 0.250000
O O9 0.500000 0.046385 0.457229
O O10 0.677928 0.074831 0.468213
O O11 0.653234 0.000000 0.500000
O O12 0.832102 0.376311 0.750000
O O13 0.682258 0.373610 0.565047
O O14 0.387249 0.678552 0.250000
O O15 0.500000 0.650493 0.457772
#
# Coordination Sequence:
#
# PCOD8258304 Si02
#       5
#    16  16  16  16  16
#     4  10  20  32  47  70 100 131 163 202 246 291
#     4   9  17  30  48  68  93 129 169 206 245 288
#     4   9  18  33  53  76 101 127 154 186 229 286
#     4  10  20  33  51  74  98 127 162 200 243 289
#     4   9  18  33  51  70  94 126 166 209 247 283
#
# _framework density 18.484960000000001
#
# number of rings (size 3 to 8) (size 9 to 14) (size 15 to 20)
#    0.000    2.600    0.000    1.800    0.000    6.800 
#    0.000    2.000    0.000    0.600    0.000    0.000 
#    0.000    0.000    0.000    0.000    0.000    0.000 
#
# Total GULP energy -496060.459670 kJ/mol
# GULP energy per Si atom -12401.511492 kJ/mol
# Density = 1.844289 g / cm^3
# Si number density = 18.484960 Si / 1000 Ang^3
#
#
#
# Elastic Constant Matrix: (Units=GPa)
#
#
# Indices 1 2 3 4 5 6 
#
# 1 47.8159 52.5834 31.1454 0.0000 0.0000 0.0000
# 2 52.5834 171.8362 76.6031 0.0000 0.0000 0.0000
# 3 31.1454 76.6031 102.6746 0.0000 0.0000 0.0000
# 4 0.0000 0.0000 0.0000 32.9034 0.0000 0.0000
# 5 0.0000 0.0000 0.0000 0.0000 15.4354 0.0000
# 6 0.0000 0.0000 0.0000 0.0000 0.0000 30.4214
#
#
#
# Elastic Compliance Matrix: (Units=1/GPa)
#
#
# Indices 1 2 3 4 5 6 
#
# 1 0.032406 -0.008292 -0.003643 0.000000 0.000000 0.000000
# 2 -0.008292 0.010841 -0.005573 0.000000 0.000000 0.000000
# 3 -0.003643 -0.005573 0.015003 0.000000 0.000000 0.000000
# 4 0.000000 0.000000 0.000000 0.030392 0.000000 0.000000
# 5 0.000000 0.000000 0.000000 0.000000 0.064786 0.000000
# 6 0.000000 0.000000 0.000000 0.000000 0.000000 0.032872
#
#
# Mechanical properties :
#
#
# Convention : Reuss Voigt Hill
#
# Bulk Modulus (GPa) = 43.04343 71.44338 57.24341
# Shear Modulus (GPa) = 21.82820 26.55169 24.18994
#
# Velocity S-wave (km/s) = 3.44010 3.79409 3.62142
# Velocity P-wave (km/s) = 6.25422 7.61097 6.96570
#
# Compressibility (1/GPa) = 0.02323235
#
# Stress axis : x y z
#
# Youngs Moduli (GPa) = 30.85875 92.23839 66.65466
#
# Poissons Ratio (x) = 0.76487 0.24284
# Poissons Ratio (y) = 0.25589 0.37148
# Poissons Ratio (z) = 0.11243 0.51406
#
# Static dielectric constant tensor:
#      x y z
#    x 3.347920 0.000000 0.000000 
#    y 0.000000 3.289740 0.000000 
#    z 0.000000 0.000000 3.564900 
# 
# 
# High freq. dielectric constant tensor:
#      x y z
#    x 1.713810 0.000000 0.000000 
#    y 0.000000 1.695460 0.000000 
#    z 0.000000 0.000000 1.721170 
# 
# From -- ./inp_files/6664.got.cif
#   From: 2010.03.12/outbox.cif.g09.slc.cpg/sg63_4_cif.got.tgz:6664.got - 2010.04.10 19:34:48.
