data_PCOD8258011
_publ_section_title
;
Structure prediction by ZEFSAII (Michael W. Deem and Ramdas Pophale) SiO2 
 PCOD8258011
Probable space group: C M C M
;
_chemical_formula_sum "Si O2"
_cell_formula_units_Z 104
_cell_length_a 26.369737
_cell_length_b 8.379085
_cell_length_c 24.269868
_cell_angle_alpha 90.000000
_cell_angle_beta 90.000000
_cell_angle_gamma 90.000000
_cell_volume 5362.530912
_symmetry_space_group_name_H-M "C M C M"
_symmetry_group_IT_number 63
_symmetry_cell_setting 'orthorhombic'
loop_
_space_group_symop_operation_xyz
x,y,z
-x,-y,1/2+z
x,-y,-z
-x,y,1/2-z
-x,-y,-z
x,y,1/2-z
-x,y,z
x,-y,1/2+z
1/2+x,1/2+y,z
1/2-x,1/2-y,1/2+z
1/2+x,1/2-y,-z
1/2-x,1/2+y,1/2-z
1/2-x,1/2-y,-z
1/2+x,1/2+y,1/2-z
1/2-x,1/2+y,z
1/2+x,1/2-y,1/2+z
loop_
_atom_site_type_symbol
_atom_site_label
_atom_site_fract_x
_atom_site_fract_y
_atom_site_fract_z
Si Si1 0.093925 0.476002 0.940950
Si Si2 0.249902 0.670958 0.630738
Si Si3 0.795504 0.421527 0.942883
Si Si4 0.000000 0.022959 0.066294
Si Si5 0.500000 0.181735 0.115075
Si Si6 0.679994 0.577421 0.184854
Si Si7 0.500000 0.097603 0.813012
Si Si8 0.415122 0.720223 0.122949
O O1 0.145433 0.374935 0.947887
O O2 0.052177 0.379722 0.909148
O O3 0.110692 0.644848 0.914649
O O4 0.068353 0.500000 0.000000
O O5 0.211410 0.537494 0.609448
O O6 0.266219 0.761140 0.574275
O O7 0.298044 0.590146 0.661635
O O8 0.220708 0.782656 0.674140
O O9 0.775192 0.500000 0.000000
O O10 0.948858 0.114374 0.081797
O O11 0.000000 0.869971 0.107222
O O12 0.000000 0.000000 0.000000
O O13 0.500000 0.094649 0.174845
O O14 0.669972 0.562980 0.250000
O O15 0.627066 0.614622 0.153911
O O16 0.500000 0.123436 0.750000
O O17 0.450247 0.187015 0.834235
#
# Coordination Sequence:
#
# PCOD8258011 Si02
#       8
#    16  16  16   8   8  16   8  16
#     4  10  19  35  58  83 114 152 188 225 286 348
#     4  10  22  38  58  85 118 150 199 241 285 352
#     4  10  20  36  59  85 118 149 185 232 294 349
#     4  11  23  39  60  92 126 151 185 237 304 362
#     4  10  21  34  58  84 118 144 190 238 277 348
#     4  11  22  40  61  84 116 157 201 247 294 334
#     4   9  19  39  62  82 112 153 193 237 290 340
#     4  10  21  38  60  87 117 153 196 238 287 359
#
# _framework density 19.393827999999999
#
# number of rings (size 3 to 8) (size 9 to 14) (size 15 to 20)
#    0.000    1.846    1.538    3.000    2.154    0.000 
#    0.000    3.077    0.000    0.000    0.000    0.000 
#    0.000    0.000    0.000    0.000    0.000    0.000 
#
# Total GULP energy -644324.608737 kJ/mol
# GULP energy per Si atom -12390.857860 kJ/mol
# Density = 1.934969 g / cm^3
# Si number density = 19.393828 Si / 1000 Ang^3
#
#
#
# Elastic Constant Matrix: (Units=GPa)
#
#
# Indices 1 2 3 4 5 6 
#
# 1 86.4682 14.4623 21.8393 0.0000 0.0000 0.0000
# 2 14.4623 59.0600 14.6520 0.0000 0.0000 0.0000
# 3 21.8393 14.6520 108.4088 0.0000 0.0000 0.0000
# 4 0.0000 0.0000 0.0000 24.7749 0.0000 0.0000
# 5 0.0000 0.0000 0.0000 0.0000 25.3393 0.0000
# 6 0.0000 0.0000 0.0000 0.0000 0.0000 48.5576
#
#
#
# Elastic Compliance Matrix: (Units=1/GPa)
#
#
# Indices 1 2 3 4 5 6 
#
# 1 0.012540 -0.002529 -0.002184 0.000000 0.000000 0.000000
# 2 -0.002529 0.018029 -0.001927 0.000000 0.000000 0.000000
# 3 -0.002184 -0.001927 0.009925 0.000000 0.000000 0.000000
# 4 0.000000 0.000000 0.000000 0.040363 0.000000 0.000000
# 5 0.000000 0.000000 0.000000 0.000000 0.039464 0.000000
# 6 0.000000 0.000000 0.000000 0.000000 0.000000 0.020594
#
#
# Mechanical properties :
#
#
# Convention : Reuss Voigt Hill
#
# Bulk Modulus (GPa) = 36.74723 39.53825 38.14274
# Shear Modulus (GPa) = 30.62457 33.26657 31.94557
#
# Velocity S-wave (km/s) = 3.97809 4.14613 4.06298
# Velocity P-wave (km/s) = 6.33161 6.58421 6.45914
#
# Compressibility (1/GPa) = 0.02721294
#
# Stress axis : x y z
#
# Youngs Moduli (GPa) = 79.74739 55.46525 100.75685
#
# Poissons Ratio (x) = 0.14026 0.22009
# Poissons Ratio (y) = 0.20166 0.19419
# Poissons Ratio (z) = 0.17420 0.10690
#
# Static dielectric constant tensor:
#      x y z
#    x 3.462210 0.000000 0.000000 
#    y 0.000000 3.719140 0.000000 
#    z 0.000000 0.000000 3.507900 
# 
# 
# High freq. dielectric constant tensor:
#      x y z
#    x 1.762980 0.000000 0.000000 
#    y 0.000000 1.751230 0.000000 
#    z 0.000000 0.000000 1.751240 
# 
# From -- ./inp_files/65463.got.cif
#   From: 2010.03.12/outbox.cif.g09.slc.cpg/sg63_33_cif.got.tgz:65463.got - 2010.04.10 19:34:48.
