data_PCOD8258923
_publ_section_title
;
Structure prediction by ZEFSAII (Michael W. Deem and Ramdas Pophale) SiO2 
 PCOD8258923
Probable space group: C M C M
;
_chemical_formula_sum "Si O2"
_cell_formula_units_Z 80
_cell_length_a 9.574418
_cell_length_b 14.398981
_cell_length_c 29.497221
_cell_angle_alpha 90.000000
_cell_angle_beta 90.000000
_cell_angle_gamma 90.000000
_cell_volume 4066.541836
_symmetry_space_group_name_H-M "C M C M"
_symmetry_group_IT_number 63
_symmetry_cell_setting 'orthorhombic'
loop_
_space_group_symop_operation_xyz
x,y,z
-x,-y,1/2+z
x,-y,-z
-x,y,1/2-z
-x,-y,-z
x,y,1/2-z
-x,y,z
x,-y,1/2+z
1/2+x,1/2+y,z
1/2-x,1/2-y,1/2+z
1/2+x,1/2-y,-z
1/2-x,1/2+y,1/2-z
1/2-x,1/2-y,-z
1/2+x,1/2+y,1/2-z
1/2-x,1/2+y,z
1/2+x,1/2-y,1/2+z
loop_
_atom_site_type_symbol
_atom_site_label
_atom_site_fract_x
_atom_site_fract_y
_atom_site_fract_z
Si Si1 0.335279 0.634559 0.884153
Si Si2 0.341759 0.848512 0.880434
Si Si3 0.843635 0.144818 0.299639
Si Si4 0.839417 0.508900 0.947814
Si Si5 0.343164 0.865550 0.300313
O O1 0.500000 0.614440 0.883157
O O2 0.299655 0.742907 0.891191
O O3 0.264250 0.583606 0.926271
O O4 0.267097 0.596620 0.837254
O O5 0.500000 0.852673 0.863680
O O6 0.254338 0.894180 0.839308
O O7 0.315900 0.908133 0.925449
O O8 0.792935 0.109502 0.250000
O O9 0.838641 0.255247 0.300009
O O10 0.000000 0.109369 0.309161
O O11 0.000000 0.541829 0.941777
O O12 0.798365 0.500000 0.000000
O O13 0.302135 0.902338 0.250000
O O14 0.500000 0.899113 0.313155
#
# Coordination Sequence:
#
# PCOD8258923 Si02
#       5
#    16  16  16  16  16
#     4  10  20  34  54  81 110 136 168 216 267 310
#     4   9  19  35  54  78 107 137 171 213 261 310
#     4   8  14  26  47  76 107 138 172 208 248 299
#     4  10  22  40  58  75 100 137 179 220 264 319
#     4   8  14  27  49  76 106 141 177 208 244 300
#
# _framework density 19.672736
#
# number of rings (size 3 to 8) (size 9 to 14) (size 15 to 20)
#    0.000    3.000    0.000    1.800    0.000    3.600 
#    0.000    5.000    0.000    1.200    0.000    0.000 
#    0.000    0.000    0.000    0.000    0.000    0.000 
#
# Total GULP energy -495888.918256 kJ/mol
# GULP energy per Si atom -12397.222956 kJ/mol
# Density = 1.962796 g / cm^3
# Si number density = 19.672736 Si / 1000 Ang^3
#
#
#
# Elastic Constant Matrix: (Units=GPa)
#
#
# Indices 1 2 3 4 5 6 
#
# 1 118.2153 45.4549 96.6767 0.0000 0.0000 0.0000
# 2 45.4549 55.2560 48.0173 0.0000 0.0000 0.0000
# 3 96.6767 48.0173 186.0465 0.0000 0.0000 0.0000
# 4 0.0000 0.0000 0.0000 -8.4793 0.0000 0.0000
# 5 0.0000 0.0000 0.0000 0.0000 20.3909 0.0000
# 6 0.0000 0.0000 0.0000 0.0000 0.0000 21.6692
#
#
#
# Elastic Compliance Matrix: (Units=1/GPa)
#
#
# Indices 1 2 3 4 5 6 
#
# 1 0.017191 -0.008223 -0.006811 0.000000 0.000000 0.000000
# 2 -0.008223 0.027264 -0.002764 0.000000 0.000000 0.000000
# 3 -0.006811 -0.002764 0.009627 0.000000 0.000000 0.000000
# 4 0.000000 0.000000 0.000000 -0.117934 0.000000 0.000000
# 5 0.000000 0.000000 0.000000 0.000000 0.049041 0.000000
# 6 0.000000 0.000000 0.000000 0.000000 0.000000 0.046148
#
#
# Mechanical properties :
#
#
# Convention : Reuss Voigt Hill
#
# Bulk Modulus (GPa) = 54.09160 82.20173 68.14667
# Shear Modulus (GPa) = 68.40509 18.00743 43.20626
#
# Velocity S-wave (km/s) = 5.90314 3.02876 4.69150
# Velocity P-wave (km/s) = 8.60338 7.35571 8.00389
#
# Compressibility (1/GPa) = 0.01848716
#
# Stress axis : x y z
#
# Youngs Moduli (GPa) = 58.17089 36.67892 103.87140
#
# Poissons Ratio (x) = 0.30161 0.70743
# Poissons Ratio (y) = 0.47835 0.28705
# Poissons Ratio (z) = 0.39618 0.10136
#
# Static dielectric constant tensor:
#      x y z
#    x 3.672500 0.000000 0.000000 
#    y 0.000000 3.351590 0.000000 
#    z 0.000000 0.000000 3.759560 
# 
# 
# High freq. dielectric constant tensor:
#      x y z
#    x 1.764320 0.000000 0.000000 
#    y 0.000000 1.751480 0.000000 
#    z 0.000000 0.000000 1.764830 
# 
# From -- ./inp_files/71565.got.cif
#   From: 2010.03.12/outbox.cif.g09.slc.cpg/sg63_36_cif.got.tgz:71565.got - 2010.04.10 19:34:48.
