data_PCOD8258632
_publ_section_title
;
Structure prediction by ZEFSAII (Michael W. Deem and Ramdas Pophale) SiO2 
 PCOD8258632
Probable space group: C M C M
;
_chemical_formula_sum "Si O2"
_cell_formula_units_Z 72
_cell_length_a 9.813519
_cell_length_b 24.810420
_cell_length_c 14.683209
_cell_angle_alpha 90.000000
_cell_angle_beta 90.000000
_cell_angle_gamma 90.000000
_cell_volume 3575.031431
_symmetry_space_group_name_H-M "C M C M"
_symmetry_group_IT_number 63
_symmetry_cell_setting 'orthorhombic'
loop_
_space_group_symop_operation_xyz
x,y,z
-x,-y,1/2+z
x,-y,-z
-x,y,1/2-z
-x,-y,-z
x,y,1/2-z
-x,y,z
x,-y,1/2+z
1/2+x,1/2+y,z
1/2-x,1/2-y,1/2+z
1/2+x,1/2-y,-z
1/2-x,1/2+y,1/2-z
1/2-x,1/2-y,-z
1/2+x,1/2+y,1/2-z
1/2-x,1/2+y,z
1/2+x,1/2-y,1/2+z
loop_
_atom_site_type_symbol
_atom_site_label
_atom_site_fract_x
_atom_site_fract_y
_atom_site_fract_z
Si Si1 0.228903 0.500000 0.000000
Si Si2 0.351885 0.563688 0.151059
Si Si3 0.334577 0.363535 0.250000
Si Si4 0.348549 0.109836 0.582821
Si Si5 0.340032 0.758512 0.750000
Si Si6 0.158412 0.343034 0.603754
O O1 0.325899 0.484639 0.917288
O O2 0.141921 0.551743 0.967824
O O3 0.350666 0.536238 0.250000
O O4 0.500000 0.589714 0.129713
O O5 0.238920 0.609212 0.150752
O O6 0.500000 0.370555 0.250000
O O7 0.268069 0.390026 0.159835
O O8 0.282146 0.301792 0.250000
O O9 0.500000 0.120862 0.623681
O O10 0.313325 0.155545 0.505628
O O11 0.500000 0.753463 0.750000
O O12 0.293476 0.788553 0.843858
O O13 0.000000 0.353340 0.623242
#
# Coordination Sequence:
#
# PCOD8258632 Si02
#       6
#     8  16   8  16   8  16
#     4  10  22  38  60  82 114 160 194 234 292 354
#     4  10  20  33  52  84 118 149 190 241 289 343
#     4  11  25  41  60  87 124 161 194 233 296 359
#     4  10  22  41  62  89 118 151 200 249 291 343
#     4   9  18  37  62  89 118 157 198 237 290 355
#     4   9  18  36  63  86 112 151 198 244 287 340
#
# _framework density 20.139685
#
# number of rings (size 3 to 8) (size 9 to 14) (size 15 to 20)
#    0.000    2.222    1.111    1.000    1.556    6.222 
#    0.000    2.222    0.000    0.000    0.000    0.000 
#    0.000    0.000    0.000    0.000    0.000    0.000 
#
# Total GULP energy -446006.322496 kJ/mol
# GULP energy per Si atom -12389.064514 kJ/mol
# Density = 2.009385 g / cm^3
# Si number density = 20.139685 Si / 1000 Ang^3
#
#
#
# Elastic Constant Matrix: (Units=GPa)
#
#
# Indices 1 2 3 4 5 6 
#
# 1 96.4691 16.9913 56.7087 0.0000 0.0000 0.0000
# 2 16.9913 79.6738 34.8698 0.0000 0.0000 0.0000
# 3 56.7087 34.8698 120.7512 0.0000 0.0000 0.0000
# 4 0.0000 0.0000 0.0000 29.0580 0.0000 0.0000
# 5 0.0000 0.0000 0.0000 0.0000 27.7493 0.0000
# 6 0.0000 0.0000 0.0000 0.0000 0.0000 14.4984
#
#
#
# Elastic Compliance Matrix: (Units=1/GPa)
#
#
# Indices 1 2 3 4 5 6 
#
# 1 0.014320 -0.000127 -0.006689 0.000000 0.000000 0.000000
# 2 -0.000127 0.014368 -0.004090 0.000000 0.000000 0.000000
# 3 -0.006689 -0.004090 0.012604 0.000000 0.000000 0.000000
# 4 0.000000 0.000000 0.000000 0.034414 0.000000 0.000000
# 5 0.000000 0.000000 0.000000 0.000000 0.036037 0.000000
# 6 0.000000 0.000000 0.000000 0.000000 0.000000 0.068973
#
#
# Mechanical properties :
#
#
# Convention : Reuss Voigt Hill
#
# Bulk Modulus (GPa) = 51.32922 57.11484 54.22203
# Shear Modulus (GPa) = 23.92120 26.81611 25.36866
#
# Velocity S-wave (km/s) = 3.45013 3.65294 3.55298
# Velocity P-wave (km/s) = 6.43531 6.79801 6.61914
#
# Compressibility (1/GPa) = 0.01948208
#
# Stress axis : x y z
#
# Youngs Moduli (GPa) = 69.83144 69.59888 79.34183
#
# Poissons Ratio (x) = 0.00881 0.53069
# Poissons Ratio (y) = 0.00884 0.32448
# Poissons Ratio (z) = 0.46708 0.28464
#
# Static dielectric constant tensor:
#      x y z
#    x 3.545470 0.000000 0.000000 
#    y 0.000000 3.652020 0.000000 
#    z 0.000000 0.000000 3.907620 
# 
# 
# High freq. dielectric constant tensor:
#      x y z
#    x 1.780450 0.000000 0.000000 
#    y 0.000000 1.763030 0.000000 
#    z 0.000000 0.000000 1.799230 
# 
# From -- ./inp_files/27952.got.cif
#   From: 2010.03.12/outbox.cif.g09.slc.cpg/sg63_14_cif.got.tgz:27952.got - 2010.04.10 19:34:48.
