data_PCOD8258921
_publ_section_title
;
Structure prediction by ZEFSAII (Michael W. Deem and Ramdas Pophale) SiO2 
 PCOD8258921
Probable space group: C M C M
;
_chemical_formula_sum "Si O2"
_cell_formula_units_Z 80
_cell_length_a 9.528125
_cell_length_b 15.751568
_cell_length_c 28.805824
_cell_angle_alpha 90.000000
_cell_angle_beta 90.000000
_cell_angle_gamma 90.000000
_cell_volume 4323.261858
_symmetry_space_group_name_H-M "C M C M"
_symmetry_group_IT_number 63
_symmetry_cell_setting 'orthorhombic'
loop_
_space_group_symop_operation_xyz
x,y,z
-x,-y,1/2+z
x,-y,-z
-x,y,1/2-z
-x,-y,-z
x,y,1/2-z
-x,y,z
x,-y,1/2+z
1/2+x,1/2+y,z
1/2-x,1/2-y,1/2+z
1/2+x,1/2-y,-z
1/2-x,1/2+y,1/2-z
1/2-x,1/2-y,-z
1/2+x,1/2+y,1/2-z
1/2-x,1/2+y,z
1/2+x,1/2-y,1/2+z
loop_
_atom_site_type_symbol
_atom_site_label
_atom_site_fract_x
_atom_site_fract_y
_atom_site_fract_z
Si Si1 0.340794 0.826091 0.052579
Si Si2 0.665835 0.083760 0.357638
Si Si3 0.162540 0.601818 0.650254
Si Si4 0.663383 0.751063 0.804257
Si Si5 0.837287 0.339343 0.549476
O O1 0.500000 0.791765 0.051228
O O2 0.319744 0.891071 0.094595
O O3 0.240571 0.747441 0.060788
O O4 0.305401 0.871609 0.003027
O O5 0.500000 0.082111 0.352943
O O6 0.724523 0.163422 0.328169
O O7 0.710963 0.092485 0.411881
O O8 0.719616 0.993105 0.337883
O O9 0.253751 0.669428 0.677818
O O10 0.000000 0.614190 0.664617
O O11 0.689059 0.760997 0.750000
O O12 0.500000 0.738116 0.816285
O O13 0.000000 0.318757 0.556375
#
# Coordination Sequence:
#
# PCOD8258921 Si02
#       5
#    16  16  16  16  16
#     4   9  17  28  47  77 107 134 168 211 251 293
#     4   9  18  33  54  78 103 137 174 207 251 308
#     4  10  20  34  54  81 108 133 168 213 260 306
#     4  10  21  38  57  75  99 133 173 215 259 309
#     4   9  16  29  50  73 102 140 175 204 244 300
#
# _framework density 18.504546999999999
#
# number of rings (size 3 to 8) (size 9 to 14) (size 15 to 20)
#    0.000    2.600    2.000    0.000    0.000    2.000 
#    0.000    8.000    0.000    0.000    0.000    7.000 
#    0.000    0.000    0.000    0.000    0.000    0.000 
#
# Total GULP energy -495696.432325 kJ/mol
# GULP energy per Si atom -12392.410808 kJ/mol
# Density = 1.846243 g / cm^3
# Si number density = 18.504547 Si / 1000 Ang^3
#
#
#
# Elastic Constant Matrix: (Units=GPa)
#
#
# Indices 1 2 3 4 5 6 
#
# 1 41.1285 39.3081 32.0493 0.0000 0.0000 0.0000
# 2 39.3081 137.5496 52.9055 0.0000 0.0000 0.0000
# 3 32.0493 52.9055 85.2436 0.0000 0.0000 0.0000
# 4 0.0000 0.0000 0.0000 14.9207 0.0000 0.0000
# 5 0.0000 0.0000 0.0000 0.0000 22.5086 0.0000
# 6 0.0000 0.0000 0.0000 0.0000 0.0000 24.6258
#
#
#
# Elastic Compliance Matrix: (Units=1/GPa)
#
#
# Indices 1 2 3 4 5 6 
#
# 1 0.039249 -0.007278 -0.010240 0.000000 0.000000 0.000000
# 2 -0.007278 0.010899 -0.004028 0.000000 0.000000 0.000000
# 3 -0.010240 -0.004028 0.018081 0.000000 0.000000 0.000000
# 4 0.000000 0.000000 0.000000 0.067021 0.000000 0.000000
# 5 0.000000 0.000000 0.000000 0.000000 0.044427 0.000000
# 6 0.000000 0.000000 0.000000 0.000000 0.000000 0.040608
#
#
# Mechanical properties :
#
#
# Convention : Reuss Voigt Hill
#
# Bulk Modulus (GPa) = 39.78072 56.93861 48.35966
# Shear Modulus (GPa) = 18.39882 21.72161 20.06021
#
# Velocity S-wave (km/s) = 3.15665 3.42987 3.29609
# Velocity P-wave (km/s) = 5.90173 6.82072 6.37780
#
# Compressibility (1/GPa) = 0.02513781
#
# Stress axis : x y z
#
# Youngs Moduli (GPa) = 25.47830 91.74877 55.30669
#
# Poissons Ratio (x) = 0.66774 0.56632
# Poissons Ratio (y) = 0.18543 0.22279
# Poissons Ratio (z) = 0.26089 0.36959
#
# Static dielectric constant tensor:
#      x y z
#    x 3.221170 0.000000 0.000000 
#    y 0.000000 3.496770 0.000000 
#    z 0.000000 0.000000 3.661990 
# 
# 
# High freq. dielectric constant tensor:
#      x y z
#    x 1.687760 0.000000 0.000000 
#    y 0.000000 1.708410 0.000000 
#    z 0.000000 0.000000 1.729350 
# 
# From -- ./inp_files/61138.got.cif
#   From: 2010.03.12/outbox.cif.g09.slc.cpg/sg63_31_cif.got.tgz:61138.got - 2010.04.10 19:34:48.
