data_PCOD8258937
_publ_section_title
;
Structure prediction by ZEFSAII (Michael W. Deem and Ramdas Pophale) SiO2 
 PCOD8258937
Probable space group: C M C M
;
_chemical_formula_sum "Si O2"
_cell_formula_units_Z 96
_cell_length_a 8.545608
_cell_length_b 23.082161
_cell_length_c 23.440026
_cell_angle_alpha 90.000000
_cell_angle_beta 90.000000
_cell_angle_gamma 90.000000
_cell_volume 4623.570905
_symmetry_space_group_name_H-M "C M C M"
_symmetry_group_IT_number 63
_symmetry_cell_setting 'orthorhombic'
loop_
_space_group_symop_operation_xyz
x,y,z
-x,-y,1/2+z
x,-y,-z
-x,y,1/2-z
-x,-y,-z
x,y,1/2-z
-x,y,z
x,-y,1/2+z
1/2+x,1/2+y,z
1/2-x,1/2-y,1/2+z
1/2+x,1/2-y,-z
1/2-x,1/2+y,1/2-z
1/2-x,1/2-y,-z
1/2+x,1/2+y,1/2-z
1/2-x,1/2+y,z
1/2+x,1/2-y,1/2+z
loop_
_atom_site_type_symbol
_atom_site_label
_atom_site_fract_x
_atom_site_fract_y
_atom_site_fract_z
Si Si1 0.817197 0.941239 0.684462
Si Si2 0.318760 0.234284 0.590749
Si Si3 0.815648 0.444682 0.133999
Si Si4 0.676643 0.663201 0.684978
Si Si5 0.815232 0.376731 0.025640
Si Si6 0.317823 0.141863 0.402024
O O1 0.757293 0.938052 0.750000
O O2 0.779868 0.881161 0.652089
O O3 0.000000 0.953951 0.683351
O O4 0.727803 0.989750 0.648156
O O5 0.500000 0.251024 0.582298
O O6 0.296764 0.204536 0.652220
O O7 0.255390 0.187321 0.544525
O O8 0.211396 0.290553 0.587998
O O9 0.729143 0.403632 0.179226
O O10 0.758548 0.426602 0.069793
O O11 0.000000 0.436314 0.139961
O O12 0.684499 0.682063 0.750000
O O13 0.500000 0.670152 0.661404
O O14 0.000000 0.373239 0.028317
O O15 0.762539 0.390450 0.960751
O O16 0.500000 0.131144 0.389905
#
# Coordination Sequence:
#
# PCOD8258937 Si02
#       6
#    16  16  16  16  16  16
#     4  11  25  43  59  79 112 152 192 233 278 330
#     4  10  20  36  57  83 116 151 188 229 280 336
#     4  10  20  37  61  87 114 144 183 230 283 338
#     4  10  20  34  54  82 114 148 189 236 283 331
#     4   8  18  36  59  88 117 145 178 225 281 334
#     4  11  22  38  60  84 113 149 189 230 276 332
#
# _framework density 20.763171
#
# number of rings (size 3 to 8) (size 9 to 14) (size 15 to 20)
#    0.000    2.000    0.000    4.500    0.000    6.000 
#    0.000   12.500    0.000    0.000    0.000    0.000 
#    0.000    0.000    0.000    0.000    0.000    0.000 
#
# Total GULP energy -595120.596571 kJ/mol
# GULP energy per Si atom -12398.345762 kJ/mol
# Density = 2.071591 g / cm^3
# Si number density = 20.763171 Si / 1000 Ang^3
#
#
#
# Elastic Constant Matrix: (Units=GPa)
#
#
# Indices 1 2 3 4 5 6 
#
# 1 51.0872 9.7070 28.7480 0.0000 0.0000 0.0000
# 2 9.7070 73.7525 50.1100 0.0000 0.0000 0.0000
# 3 28.7480 50.1100 125.5259 0.0000 0.0000 0.0000
# 4 0.0000 0.0000 0.0000 15.3318 0.0000 0.0000
# 5 0.0000 0.0000 0.0000 0.0000 24.3088 0.0000
# 6 0.0000 0.0000 0.0000 0.0000 0.0000 36.5213
#
#
#
# Elastic Compliance Matrix: (Units=1/GPa)
#
#
# Indices 1 2 3 4 5 6 
#
# 1 0.022500 0.000741 -0.005449 0.000000 0.000000 0.000000
# 2 0.000741 0.018630 -0.007607 0.000000 0.000000 0.000000
# 3 -0.005449 -0.007607 0.012251 0.000000 0.000000 0.000000
# 4 0.000000 0.000000 0.000000 0.065224 0.000000 0.000000
# 5 0.000000 0.000000 0.000000 0.000000 0.041137 0.000000
# 6 0.000000 0.000000 0.000000 0.000000 0.000000 0.027381
#
#
# Mechanical properties :
#
#
# Convention : Reuss Voigt Hill
#
# Bulk Modulus (GPa) = 34.78125 47.49952 41.14038
# Shear Modulus (GPa) = 22.59016 26.01908 24.30462
#
# Velocity S-wave (km/s) = 3.30205 3.54381 3.42506
# Velocity P-wave (km/s) = 5.59695 6.29851 5.95806
#
# Compressibility (1/GPa) = 0.02875113
#
# Stress axis : x y z
#
# Youngs Moduli (GPa) = 44.44502 53.67822 81.62696
#
# Poissons Ratio (x) = -0.03975 0.44475
# Poissons Ratio (y) = -0.03292 0.62090
# Poissons Ratio (z) = 0.24216 0.40831
#
# Static dielectric constant tensor:
#      x y z
#    x 3.598650 0.000000 0.000000 
#    y 0.000000 3.591860 0.000000 
#    z 0.000000 0.000000 4.040560 
# 
# 
# High freq. dielectric constant tensor:
#      x y z
#    x 1.803460 0.000000 0.000000 
#    y 0.000000 1.802270 0.000000 
#    z 0.000000 0.000000 1.819770 
# 
# From -- ./inp_files/59954.got.cif
#   From: 2010.03.12/outbox.cif.g09.slc.cpg/sg63_30_cif.got.tgz:59954.got - 2010.04.10 19:34:48.
