data_PCOD8258673
_publ_section_title
;
Structure prediction by ZEFSAII (Michael W. Deem and Ramdas Pophale) SiO2 
 PCOD8258673
Probable space group: C M C M
;
_chemical_formula_sum "Si O2"
_cell_formula_units_Z 64
_cell_length_a 7.588468
_cell_length_b 17.913617
_cell_length_c 23.986797
_cell_angle_alpha 90.000000
_cell_angle_beta 90.000000
_cell_angle_gamma 90.000000
_cell_volume 3260.691050
_symmetry_space_group_name_H-M "C M C M"
_symmetry_group_IT_number 63
_symmetry_cell_setting 'orthorhombic'
loop_
_space_group_symop_operation_xyz
x,y,z
-x,-y,1/2+z
x,-y,-z
-x,y,1/2-z
-x,-y,-z
x,y,1/2-z
-x,y,z
x,-y,1/2+z
1/2+x,1/2+y,z
1/2-x,1/2-y,1/2+z
1/2+x,1/2-y,-z
1/2-x,1/2+y,1/2-z
1/2-x,1/2-y,-z
1/2+x,1/2+y,1/2-z
1/2-x,1/2+y,z
1/2+x,1/2-y,1/2+z
loop_
_atom_site_type_symbol
_atom_site_label
_atom_site_fract_x
_atom_site_fract_y
_atom_site_fract_z
Si Si1 0.000000 0.593437 0.185536
Si Si2 0.500000 0.082069 0.814636
Si Si3 0.710573 0.666489 0.112551
Si Si4 0.302521 0.580702 0.005186
Si Si5 0.193431 0.666538 0.598741
O O1 0.180927 0.626205 0.160964
O O2 0.000000 0.613677 0.250000
O O3 0.000000 0.505426 0.175150
O O4 0.500000 0.104059 0.750000
O O5 0.325954 0.117959 0.844189
O O6 0.500000 0.658991 0.123544
O O7 0.778600 0.631296 0.054139
O O8 0.772970 0.752645 0.112409
O O9 0.500000 0.564070 0.024633
O O10 0.203758 0.500000 0.000000
O O11 0.308968 0.623128 0.946312
O O12 0.000000 0.677729 0.571015
#
# Coordination Sequence:
#
# PCOD8258673 Si02
#       5
#     8   8  16  16  16
#     4  11  24  39  63  89 111 153 204 246 290 346
#     4   9  20  39  59  83 113 151 202 242 288 352
#     4  10  22  39  58  89 121 155 192 243 297 351
#     4  10  20  33  55  86 120 153 190 239 295 355
#     4   9  20  35  58  83 109 159 189 233 297 341
#
# _framework density 19.627742000000001
#
# number of rings (size 3 to 8) (size 9 to 14) (size 15 to 20)
#    0.750    1.500    0.000    2.250    3.500    2.000 
#    0.000    0.000    0.000    1.500    0.000    0.000 
#    0.000    0.000    0.000    0.000    0.000    0.000 
#
# Total GULP energy -396562.786893 kJ/mol
# GULP energy per Si atom -12392.587090 kJ/mol
# Density = 1.958307 g / cm^3
# Si number density = 19.627742 Si / 1000 Ang^3
#
#
#
# Elastic Constant Matrix: (Units=GPa)
#
#
# Indices 1 2 3 4 5 6 
#
# 1 51.5140 29.2198 33.3105 0.0000 0.0000 0.0000
# 2 29.2198 175.4214 96.4226 0.0000 0.0000 0.0000
# 3 33.3105 96.4226 163.2529 0.0000 0.0000 0.0000
# 4 0.0000 0.0000 0.0000 28.8881 0.0000 0.0000
# 5 0.0000 0.0000 0.0000 0.0000 15.4358 0.0000
# 6 0.0000 0.0000 0.0000 0.0000 0.0000 27.3200
#
#
#
# Elastic Compliance Matrix: (Units=1/GPa)
#
#
# Indices 1 2 3 4 5 6 
#
# 1 0.022754 -0.001833 -0.003560 0.000000 0.000000 0.000000
# 2 -0.001833 0.008589 -0.004699 0.000000 0.000000 0.000000
# 3 -0.003560 -0.004699 0.009627 0.000000 0.000000 0.000000
# 4 0.000000 0.000000 0.000000 0.034616 0.000000 0.000000
# 5 0.000000 0.000000 0.000000 0.000000 0.064784 0.000000
# 6 0.000000 0.000000 0.000000 0.000000 0.000000 0.036603
#
#
# Mechanical properties :
#
#
# Convention : Reuss Voigt Hill
#
# Bulk Modulus (GPa) = 48.10970 78.67712 63.39341
# Shear Modulus (GPa) = 24.49946 29.74448 27.12197
#
# Velocity S-wave (km/s) = 3.53683 3.89708 3.72131
# Velocity P-wave (km/s) = 6.42208 7.77311 7.12967
#
# Compressibility (1/GPa) = 0.02078583
#
# Stress axis : x y z
#
# Youngs Moduli (GPa) = 43.94812 116.43344 103.87438
#
# Poissons Ratio (x) = 0.21346 0.36979
# Poissons Ratio (y) = 0.08057 0.48807
# Poissons Ratio (z) = 0.15645 0.54708
#
# Static dielectric constant tensor:
#      x y z
#    x 3.216360 0.000000 0.000000 
#    y 0.000000 3.790610 0.000000 
#    z 0.000000 0.000000 3.403840 
# 
# 
# High freq. dielectric constant tensor:
#      x y z
#    x 1.739940 0.000000 0.000000 
#    y 0.000000 1.785730 0.000000 
#    z 0.000000 0.000000 1.752590 
# 
# From -- ./inp_files/59411.got.cif
#   From: 2010.03.12/outbox.cif.g09.slc.cpg/sg63_30_cif.got.tgz:59411.got - 2010.04.10 19:34:48.
