data_PCOD8258306
_publ_section_title
;
Structure prediction by ZEFSAII (Michael W. Deem and Ramdas Pophale) SiO2 
 PCOD8258306
Probable space group: C M C M
;
_chemical_formula_sum "Si O2"
_cell_formula_units_Z 80
_cell_length_a 9.284799
_cell_length_b 27.520811
_cell_length_c 17.838685
_cell_angle_alpha 90.000000
_cell_angle_beta 90.000000
_cell_angle_gamma 90.000000
_cell_volume 4558.233525
_symmetry_space_group_name_H-M "C M C M"
_symmetry_group_IT_number 63
_symmetry_cell_setting 'orthorhombic'
loop_
_space_group_symop_operation_xyz
x,y,z
-x,-y,1/2+z
x,-y,-z
-x,y,1/2-z
-x,-y,-z
x,y,1/2-z
-x,y,z
x,-y,1/2+z
1/2+x,1/2+y,z
1/2-x,1/2-y,1/2+z
1/2+x,1/2-y,-z
1/2-x,1/2+y,1/2-z
1/2-x,1/2-y,-z
1/2+x,1/2+y,1/2-z
1/2-x,1/2+y,z
1/2+x,1/2-y,1/2+z
loop_
_atom_site_type_symbol
_atom_site_label
_atom_site_fract_x
_atom_site_fract_y
_atom_site_fract_z
Si Si1 0.332590 0.310164 0.888343
Si Si2 0.334067 0.098355 0.164597
Si Si3 0.830476 0.705079 0.835453
Si Si4 0.663990 0.647549 0.546431
Si Si5 0.168424 0.050437 0.036673
O O1 0.500000 0.317802 0.867098
O O2 0.240975 0.349423 0.843062
O O3 0.276124 0.257337 0.864485
O O4 0.308677 0.316106 0.977107
O O5 0.320382 0.080467 0.250000
O O6 0.500000 0.103397 0.140160
O O7 0.257055 0.058149 0.112947
O O8 0.781544 0.698062 0.750000
O O9 0.761886 0.662203 0.883898
O O10 0.000000 0.701253 0.844601
O O11 0.500000 0.650242 0.573418
O O12 0.705172 0.593024 0.522021
O O13 0.000000 0.051154 0.057509
O O14 0.216506 0.000000 0.000000
#
# Coordination Sequence:
#
# PCOD8258306 Si02
#       5
#    16  16  16  16  16
#     4   9  18  33  52  72  97 132 171 205 239 286
#     4  10  20  32  49  78 109 131 158 201 252 300
#     4  10  20  32  47  70 101 137 171 199 235 288
#     4   9  18  32  51  74  96 122 160 206 252 293
#     4   9  19  37  58  76  95 125 168 211 250 297
#
# _framework density 17.550659
#
# number of rings (size 3 to 8) (size 9 to 14) (size 15 to 20)
#    0.000    2.600    0.000    3.000    0.000    7.200 
#    0.000    1.000    0.000    6.000    0.000    0.000 
#    0.000    0.000    0.000    0.000    0.000    0.000 
#
# Total GULP energy -496091.788420 kJ/mol
# GULP energy per Si atom -12402.294710 kJ/mol
# Density = 1.751071 g / cm^3
# Si number density = 17.550659 Si / 1000 Ang^3
#
#
#
# Elastic Constant Matrix: (Units=GPa)
#
#
# Indices 1 2 3 4 5 6 
#
# 1 67.4703 45.5398 55.5986 0.0000 0.0000 0.0000
# 2 45.5398 106.0440 72.3246 0.0000 0.0000 0.0000
# 3 55.5986 72.3246 121.1246 0.0000 0.0000 0.0000
# 4 0.0000 0.0000 0.0000 20.4040 0.0000 0.0000
# 5 0.0000 0.0000 0.0000 0.0000 32.5827 0.0000
# 6 0.0000 0.0000 0.0000 0.0000 0.0000 23.4405
#
#
#
# Elastic Compliance Matrix: (Units=1/GPa)
#
#
# Indices 1 2 3 4 5 6 
#
# 1 0.025300 -0.004967 -0.008647 0.000000 0.000000 0.000000
# 2 -0.004967 0.016884 -0.007802 0.000000 0.000000 0.000000
# 3 -0.008647 -0.007802 0.016884 0.000000 0.000000 0.000000
# 4 0.000000 0.000000 0.000000 0.049010 0.000000 0.000000
# 5 0.000000 0.000000 0.000000 0.000000 0.030691 0.000000
# 6 0.000000 0.000000 0.000000 0.000000 0.000000 0.042661
#
#
# Mechanical properties :
#
#
# Convention : Reuss Voigt Hill
#
# Bulk Modulus (GPa) = 61.59348 71.28500 66.43924
# Shear Modulus (GPa) = 21.77007 23.36381 22.56694
#
# Velocity S-wave (km/s) = 3.52577 3.65255 3.58972
# Velocity P-wave (km/s) = 7.19344 7.64807 7.42424
#
# Compressibility (1/GPa) = 0.01623548
#
# Stress axis : x y z
#
# Youngs Moduli (GPa) = 39.52634 59.22754 59.22931
#
# Poissons Ratio (x) = 0.29420 0.51216
# Poissons Ratio (y) = 0.19634 0.46208
# Poissons Ratio (z) = 0.34179 0.46207
#
# Static dielectric constant tensor:
#      x y z
#    x 3.207030 0.000000 0.000000 
#    y 0.000000 3.200800 0.000000 
#    z 0.000000 0.000000 3.203730 
# 
# 
# High freq. dielectric constant tensor:
#      x y z
#    x 1.676300 0.000000 0.000000 
#    y 0.000000 1.665770 0.000000 
#    z 0.000000 0.000000 1.676980 
# 
# From -- ./inp_files/40469.got.cif
#   From: 2010.03.12/outbox.cif.g09.slc.cpg/sg63_21_cif.got.tgz:40469.got - 2010.04.10 19:34:48.
