data_PCOD8258657
_publ_section_title
;
Structure prediction by ZEFSAII (Michael W. Deem and Ramdas Pophale) SiO2 
 PCOD8258657
Probable space group: C M C M
;
_chemical_formula_sum "Si O2"
_cell_formula_units_Z 64
_cell_length_a 14.325876
_cell_length_b 14.035653
_cell_length_c 18.426221
_cell_angle_alpha 90.000000
_cell_angle_beta 90.000000
_cell_angle_gamma 90.000000
_cell_volume 3705.015986
_symmetry_space_group_name_H-M "C M C M"
_symmetry_group_IT_number 63
_symmetry_cell_setting 'orthorhombic'
loop_
_space_group_symop_operation_xyz
x,y,z
-x,-y,1/2+z
x,-y,-z
-x,y,1/2-z
-x,-y,-z
x,y,1/2-z
-x,y,z
x,-y,1/2+z
1/2+x,1/2+y,z
1/2-x,1/2-y,1/2+z
1/2+x,1/2-y,-z
1/2-x,1/2+y,1/2-z
1/2-x,1/2-y,-z
1/2+x,1/2+y,1/2-z
1/2-x,1/2+y,z
1/2+x,1/2-y,1/2+z
loop_
_atom_site_type_symbol
_atom_site_label
_atom_site_fract_x
_atom_site_fract_y
_atom_site_fract_z
Si Si1 0.704907 0.228656 0.923272
Si Si2 0.604451 0.952861 0.424294
Si Si3 0.392480 0.390387 0.834128
Si Si4 0.270800 0.433070 0.333491
O O1 0.613722 0.161771 0.933892
O O2 0.673290 0.323804 0.882552
O O3 0.781271 0.167751 0.876143
O O4 0.750000 0.250000 0.000000
O O5 0.500000 0.979675 0.399819
O O6 0.631737 0.000000 0.500000
O O7 0.677880 0.988280 0.363228
O O8 0.380616 0.360904 0.750000
O O9 0.500000 0.382612 0.858466
O O10 0.360291 0.499662 0.846002
O O11 0.255358 0.408977 0.250000
#
# Coordination Sequence:
#
# PCOD8258657 Si02
#       4
#    16  16  16  16
#     4  10  20  33  54  78 113 148 182 233 281 336
#     4   9  18  32  52  77 109 145 181 227 276 328
#     4  10  20  36  58  85 113 147 194 238 280 336
#     4   9  20  35  54  80 111 148 184 236 286 328
#
# _framework density 17.273879000000001
#
# number of rings (size 3 to 8) (size 9 to 14) (size 15 to 20)
#    1.500    1.000    0.000    3.000    0.000    0.500 
#    0.000    3.750    0.000    1.500    0.000    3.500 
#    0.000    0.000    0.000    0.000    0.000    0.000 
#
# Total GULP energy -396436.984024 kJ/mol
# GULP energy per Si atom -12388.655751 kJ/mol
# Density = 1.723456 g / cm^3
# Si number density = 17.273879 Si / 1000 Ang^3
#
#
#
# Elastic Constant Matrix: (Units=GPa)
#
#
# Indices 1 2 3 4 5 6 
#
# 1 69.0564 32.3889 44.6981 0.0000 0.0000 0.0000
# 2 32.3889 80.8527 53.6430 0.0000 0.0000 0.0000
# 3 44.6981 53.6430 116.7323 0.0000 0.0000 0.0000
# 4 0.0000 0.0000 0.0000 34.5487 0.0000 0.0000
# 5 0.0000 0.0000 0.0000 0.0000 17.6389 0.0000
# 6 0.0000 0.0000 0.0000 0.0000 0.0000 25.8738
#
#
#
# Elastic Compliance Matrix: (Units=1/GPa)
#
#
# Indices 1 2 3 4 5 6 
#
# 1 0.020225 -0.004264 -0.005785 0.000000 0.000000 0.000000
# 2 -0.004264 0.018692 -0.006957 0.000000 0.000000 0.000000
# 3 -0.005785 -0.006957 0.013979 0.000000 0.000000 0.000000
# 4 0.000000 0.000000 0.000000 0.028945 0.000000 0.000000
# 5 0.000000 0.000000 0.000000 0.000000 0.056693 0.000000
# 6 0.000000 0.000000 0.000000 0.000000 0.000000 0.038649
#
#
# Mechanical properties :
#
#
# Convention : Reuss Voigt Hill
#
# Bulk Modulus (GPa) = 52.95448 58.67793 55.81621
# Shear Modulus (GPa) = 22.98966 24.67306 23.83136
#
# Velocity S-wave (km/s) = 3.65210 3.78345 3.71835
# Velocity P-wave (km/s) = 6.96463 7.28895 7.12864
#
# Compressibility (1/GPa) = 0.01888414
#
# Stress axis : x y z
#
# Youngs Moduli (GPa) = 49.44311 53.49892 71.53704
#
# Poissons Ratio (x) = 0.22811 0.41385
# Poissons Ratio (y) = 0.21082 0.49768
# Poissons Ratio (z) = 0.28603 0.37219
#
# Static dielectric constant tensor:
#      x y z
#    x 2.990830 0.000000 0.000000 
#    y 0.000000 3.104810 0.000000 
#    z 0.000000 0.000000 3.186800 
# 
# 
# High freq. dielectric constant tensor:
#      x y z
#    x 1.650140 0.000000 0.000000 
#    y 0.000000 1.659930 0.000000 
#    z 0.000000 0.000000 1.670790 
# 
# From -- ./inp_files/33558.got.cif
#   From: 2010.03.12/outbox.cif.g09.slc.cpg/sg63_17_cif.got.tgz:33558.got - 2010.04.10 19:34:48.
