data_PCOD8258411
_publ_section_title
;
Structure prediction by ZEFSAII (Michael W. Deem and Ramdas Pophale) SiO2 
 PCOD8258411
Probable space group: C M C M
;
_chemical_formula_sum "Si O2"
_cell_formula_units_Z 88
_cell_length_a 13.656223
_cell_length_b 13.681823
_cell_length_c 25.950150
_cell_angle_alpha 90.000000
_cell_angle_beta 90.000000
_cell_angle_gamma 90.000000
_cell_volume 4848.578599
_symmetry_space_group_name_H-M "C M C M"
_symmetry_group_IT_number 63
_symmetry_cell_setting 'orthorhombic'
loop_
_space_group_symop_operation_xyz
x,y,z
-x,-y,1/2+z
x,-y,-z
-x,y,1/2-z
-x,-y,-z
x,y,1/2-z
-x,y,z
x,-y,1/2+z
1/2+x,1/2+y,z
1/2-x,1/2-y,1/2+z
1/2+x,1/2-y,-z
1/2-x,1/2+y,1/2-z
1/2-x,1/2-y,-z
1/2+x,1/2+y,1/2-z
1/2-x,1/2+y,z
1/2+x,1/2-y,1/2+z
loop_
_atom_site_type_symbol
_atom_site_label
_atom_site_fract_x
_atom_site_fract_y
_atom_site_fract_z
Si Si1 0.614992 0.954974 0.191145
Si Si2 0.309319 0.799309 0.111952
Si Si3 0.707595 0.536601 0.945534
Si Si4 0.000000 0.329773 0.944617
Si Si5 0.000000 0.115966 0.540589
Si Si6 0.500000 0.747115 0.448636
Si Si7 0.184487 0.386605 0.618898
O O1 0.649331 0.947775 0.250000
O O2 0.500000 0.939781 0.185148
O O3 0.667719 0.868627 0.160078
O O4 0.643699 0.062765 0.170643
O O5 0.258788 0.860197 0.066288
O O6 0.406027 0.751716 0.087965
O O7 0.233355 0.717283 0.131740
O O8 0.591717 0.549732 0.945815
O O9 0.730878 0.455576 0.903207
O O10 0.748186 0.500000 0.000000
O O11 0.903315 0.381109 0.922518
O O12 0.000000 0.216197 0.926136
O O13 0.000000 0.334011 0.007648
O O14 0.000000 0.855900 0.520548
#
# Coordination Sequence:
#
# PCOD8258411 Si02
#       7
#    16  16  16   8   8   8  16
#     4  10  22  41  62  83 108 140 188 244 295 342
#     4  11  21  38  56  88 112 151 187 236 282 336
#     4  11  22  33  54  84 119 156 195 225 271 325
#     4  10  20  36  56  81 119 155 189 228 265 326
#     4  10  21  36  52  78 123 158 189 226 266 318
#     4  10  20  32  58  78 120 157 189 216 275 327
#     4  11  22  37  61  84 113 151 194 231 282 339
#
# _framework density 18.149649
#
# number of rings (size 3 to 8) (size 9 to 14) (size 15 to 20)
#    0.545    0.909    3.636    2.455    0.000    3.636 
#    0.000    2.727    0.000    0.000    0.000    3.818 
#    0.000    0.000    0.000    0.000    0.000    0.000 
#
# Total GULP energy -545560.868422 kJ/mol
# GULP energy per Si atom -12399.110646 kJ/mol
# Density = 1.810834 g / cm^3
# Si number density = 18.149649 Si / 1000 Ang^3
#
#
#
# Elastic Constant Matrix: (Units=GPa)
#
#
# Indices 1 2 3 4 5 6 
#
# 1 96.7167 37.3621 35.2217 0.0000 0.0000 0.0000
# 2 37.3621 88.9521 23.9447 0.0000 0.0000 0.0000
# 3 35.2217 23.9447 84.3884 0.0000 0.0000 0.0000
# 4 0.0000 0.0000 0.0000 22.3285 0.0000 0.0000
# 5 0.0000 0.0000 0.0000 0.0000 15.5856 0.0000
# 6 0.0000 0.0000 0.0000 0.0000 0.0000 25.0128
#
#
#
# Elastic Compliance Matrix: (Units=1/GPa)
#
#
# Indices 1 2 3 4 5 6 
#
# 1 0.013718 -0.004570 -0.004429 0.000000 0.000000 0.000000
# 2 -0.004570 0.013694 -0.001978 0.000000 0.000000 0.000000
# 3 -0.004429 -0.001978 0.014260 0.000000 0.000000 0.000000
# 4 0.000000 0.000000 0.000000 0.044786 0.000000 0.000000
# 5 0.000000 0.000000 0.000000 0.000000 0.064162 0.000000
# 6 0.000000 0.000000 0.000000 0.000000 0.000000 0.039979
#
#
# Mechanical properties :
#
#
# Convention : Reuss Voigt Hill
#
# Bulk Modulus (GPa) = 50.71546 51.45714 51.08630
# Shear Modulus (GPa) = 22.81808 24.15395 23.48601
#
# Velocity S-wave (km/s) = 3.54957 3.65200 3.60115
# Velocity P-wave (km/s) = 6.69350 6.79676 6.74533
#
# Compressibility (1/GPa) = 0.01971785
#
# Stress axis : x y z
#
# Youngs Moduli (GPa) = 72.89922 73.02538 70.12728
#
# Poissons Ratio (x) = 0.33369 0.31058
# Poissons Ratio (y) = 0.33312 0.13874
# Poissons Ratio (z) = 0.32286 0.14447
#
# Static dielectric constant tensor:
#      x y z
#    x 3.343770 0.000000 0.000000 
#    y 0.000000 3.393640 0.000000 
#    z 0.000000 0.000000 3.168680 
# 
# 
# High freq. dielectric constant tensor:
#      x y z
#    x 1.714020 0.000000 0.000000 
#    y 0.000000 1.710990 0.000000 
#    z 0.000000 0.000000 1.673560 
# 
# From -- ./inp_files/62710.got.cif
#   From: 2010.03.12/outbox.cif.g09.slc.cpg/sg63_32_cif.got.tgz:62710.got - 2010.04.10 19:34:48.
