data_PCOD8258790
_publ_section_title
;
Structure prediction by ZEFSAII (Michael W. Deem and Ramdas Pophale) SiO2 
 PCOD8258790
Probable space group: C M C M
;
_chemical_formula_sum "Si O2"
_cell_formula_units_Z 112
_cell_length_a 24.763547
_cell_length_b 16.291984
_cell_length_c 14.587068
_cell_angle_alpha 90.000000
_cell_angle_beta 90.000000
_cell_angle_gamma 90.000000
_cell_volume 5885.113367
_symmetry_space_group_name_H-M "C M C M"
_symmetry_group_IT_number 63
_symmetry_cell_setting 'orthorhombic'
loop_
_space_group_symop_operation_xyz
x,y,z
-x,-y,1/2+z
x,-y,-z
-x,y,1/2-z
-x,-y,-z
x,y,1/2-z
-x,y,z
x,-y,1/2+z
1/2+x,1/2+y,z
1/2-x,1/2-y,1/2+z
1/2+x,1/2-y,-z
1/2-x,1/2+y,1/2-z
1/2-x,1/2-y,-z
1/2+x,1/2+y,1/2-z
1/2-x,1/2+y,z
1/2+x,1/2-y,1/2+z
loop_
_atom_site_type_symbol
_atom_site_label
_atom_site_fract_x
_atom_site_fract_y
_atom_site_fract_z
Si Si1 0.098762 0.799656 0.012965
Si Si2 0.698038 0.199484 0.521038
Si Si3 0.360823 0.443380 0.141626
Si Si4 0.844854 0.443287 0.587315
Si Si5 0.560798 0.840220 0.647522
Si Si6 0.239871 0.565158 0.850791
Si Si7 0.439380 0.591773 0.145402
O O1 0.114969 0.867225 0.087279
O O2 0.068411 0.728592 0.069407
O O3 0.150066 0.762690 0.959431
O O4 0.063045 0.835435 0.929672
O O5 0.750000 0.250000 0.500000
O O6 0.682817 0.143373 0.434886
O O7 0.709322 0.141710 0.606386
O O8 0.365096 0.425669 0.250000
O O9 0.298754 0.457344 0.106779
O O10 0.395598 0.523611 0.116448
O O11 0.857460 0.500000 0.500000
O O12 0.901032 0.420635 0.636168
O O13 0.800630 0.488071 0.650132
O O14 0.570716 0.803560 0.750000
O O15 0.500000 0.873469 0.638505
O O16 0.252683 0.594537 0.750000
O O17 0.427988 0.623167 0.250000
O O18 0.500000 0.554420 0.141023
#
# Coordination Sequence:
#
# PCOD8258790 Si02
#       7
#    16  16  16  16  16  16  16
#     4  11  21  35  59  80 112 148 185 227 283 337
#     4  10  20  34  52  80 111 144 177 222 272 328
#     4  10  21  35  54  82 111 146 185 228 274 330
#     4   9  20  35  56  80 110 148 183 226 275 323
#     4  10  21  37  57  84 113 144 186 233 281 331
#     4  10  20  36  56  81 112 144 184 224 270 330
#     4  10  23  40  56  79 110 145 192 238 276 326
#
# _framework density 19.03107
#
# number of rings (size 3 to 8) (size 9 to 14) (size 15 to 20)
#    0.000    2.000    1.429    1.714    2.000    3.714 
#    0.000    2.143    0.000    0.000    0.000   14.000 
#    0.000    0.000    0.000    0.000    0.000    0.000 
#
# Total GULP energy -694028.327011 kJ/mol
# GULP energy per Si atom -12393.362982 kJ/mol
# Density = 1.898775 g / cm^3
# Si number density = 19.031070 Si / 1000 Ang^3
#
#
#
# Elastic Constant Matrix: (Units=GPa)
#
#
# Indices 1 2 3 4 5 6 
#
# 1 126.9365 40.3872 35.7457 0.0000 0.0000 0.0000
# 2 40.3872 74.2771 25.8422 0.0000 0.0000 0.0000
# 3 35.7457 25.8422 70.6713 0.0000 0.0000 0.0000
# 4 0.0000 0.0000 0.0000 19.1076 0.0000 0.0000
# 5 0.0000 0.0000 0.0000 0.0000 19.8350 0.0000
# 6 0.0000 0.0000 0.0000 0.0000 0.0000 31.0970
#
#
#
# Elastic Compliance Matrix: (Units=1/GPa)
#
#
# Indices 1 2 3 4 5 6 
#
# 1 0.010273 -0.004329 -0.003613 0.000000 0.000000 0.000000
# 2 -0.004329 0.017249 -0.004118 0.000000 0.000000 0.000000
# 3 -0.003613 -0.004118 0.017483 0.000000 0.000000 0.000000
# 4 0.000000 0.000000 0.000000 0.052335 0.000000 0.000000
# 5 0.000000 0.000000 0.000000 0.000000 0.050416 0.000000
# 6 0.000000 0.000000 0.000000 0.000000 0.000000 0.032157
#
#
# Mechanical properties :
#
#
# Convention : Reuss Voigt Hill
#
# Bulk Modulus (GPa) = 47.87931 52.87055 50.37493
# Shear Modulus (GPa) = 23.69719 25.33526 24.51622
#
# Velocity S-wave (km/s) = 3.53254 3.65260 3.59307
# Velocity P-wave (km/s) = 6.46928 6.75501 6.61369
#
# Compressibility (1/GPa) = 0.02088585
#
# Stress axis : x y z
#
# Youngs Moduli (GPa) = 97.34619 57.97276 57.19700
#
# Poissons Ratio (x) = 0.25094 0.20666
# Poissons Ratio (y) = 0.42137 0.23555
# Poissons Ratio (z) = 0.35172 0.23874
#
# Static dielectric constant tensor:
#      x y z
#    x 3.789290 0.000000 0.000000 
#    y 0.000000 3.320540 0.000000 
#    z 0.000000 0.000000 4.996650 
# 
# 
# High freq. dielectric constant tensor:
#      x y z
#    x 1.753550 0.000000 0.000000 
#    y 0.000000 1.728230 0.000000 
#    z 0.000000 0.000000 1.740110 
# 
# From -- ./inp_files/36876.got.cif
#   From: 2010.03.12/outbox.cif.g09.slc.cpg/sg63_19_cif.got.tgz:36876.got - 2010.04.10 19:34:48.
