data_PCOD8258244
_publ_section_title
;
Structure prediction by ZEFSAII (Michael W. Deem and Ramdas Pophale) SiO2 
 PCOD8258244
Probable space group: C M C M
;
_chemical_formula_sum "Si O2"
_cell_formula_units_Z 84
_cell_length_a 20.533001
_cell_length_b 16.771084
_cell_length_c 14.250085
_cell_angle_alpha 90.000000
_cell_angle_beta 90.000000
_cell_angle_gamma 90.000000
_cell_volume 4907.169025
_symmetry_space_group_name_H-M "C M C M"
_symmetry_group_IT_number 63
_symmetry_cell_setting 'orthorhombic'
loop_
_space_group_symop_operation_xyz
x,y,z
-x,-y,1/2+z
x,-y,-z
-x,y,1/2-z
-x,-y,-z
x,y,1/2-z
-x,y,z
x,-y,1/2+z
1/2+x,1/2+y,z
1/2-x,1/2-y,1/2+z
1/2+x,1/2-y,-z
1/2-x,1/2+y,1/2-z
1/2-x,1/2-y,-z
1/2+x,1/2+y,1/2-z
1/2-x,1/2+y,z
1/2+x,1/2-y,1/2+z
loop_
_atom_site_type_symbol
_atom_site_label
_atom_site_fract_x
_atom_site_fract_y
_atom_site_fract_z
Si Si1 0.854534 0.809853 0.250000
Si Si2 0.183045 0.006335 0.750000
Si Si3 0.000000 0.139610 0.750000
Si Si4 0.575663 0.377245 0.750000
Si Si5 0.616091 0.668351 0.448638
Si Si6 0.188844 0.277496 0.938659
Si Si7 0.500000 0.414888 0.047380
Si Si8 0.256878 0.566405 0.071503
O O1 0.832845 0.901259 0.250000
O O2 0.934177 0.805175 0.250000
O O3 0.822261 0.768894 0.340956
O O4 0.114025 0.960350 0.750000
O O5 0.227923 0.981703 0.664472
O O6 0.000000 0.081013 0.659980
O O7 0.500000 0.398227 0.750000
O O8 0.594388 0.324636 0.659381
O O9 0.628825 0.756891 0.490937
O O10 0.563023 0.630766 0.514990
O O11 0.678912 0.612619 0.462776
O O12 0.197272 0.371015 0.914972
O O13 0.250000 0.250000 0.000000
O O14 0.500000 0.500000 0.000000
O O15 0.232765 0.500000 0.000000
#
# Coordination Sequence:
#
# PCOD8258244 Si02
#       8
#     8   8   4   8  16  16   8  16
#     4  12  23  37  57  86 120 153 193 233 295 368
#     4  10  21  31  50  78 110 144 186 223 273 333
#     4  12  28  36  56  90 120 166 194 230 292 364
#     4  10  20  31  50  76 115 151 190 218 270 342
#     4  10  20  34  51  80 112 153 187 236 283 348
#     4  10  21  37  54  75 112 151 192 242 291 334
#     4  12  24  34  54  80 120 154 202 234 284 358
#     4  10  20  36  54  77 105 146 190 239 282 330
#
# _framework density 17.117813000000002
#
# number of rings (size 3 to 8) (size 9 to 14) (size 15 to 20)
#    0.000    1.524    2.857    3.429    6.000    2.286 
#    0.000    0.952    0.000    0.000    0.000    2.667 
#    2.857    0.000    0.000    0.000    0.000    0.000 
#
# Total GULP energy -520460.735889 kJ/mol
# GULP energy per Si atom -12391.922283 kJ/mol
# Density = 1.707885 g / cm^3
# Si number density = 17.117813 Si / 1000 Ang^3
#
#
#
# Elastic Constant Matrix: (Units=GPa)
#
#
# Indices 1 2 3 4 5 6 
#
# 1 79.6719 63.7546 54.7652 0.0000 0.0000 0.0000
# 2 63.7546 111.2718 66.1556 0.0000 0.0000 0.0000
# 3 54.7652 66.1556 162.3396 0.0000 0.0000 0.0000
# 4 0.0000 0.0000 0.0000 33.4537 0.0000 0.0000
# 5 0.0000 0.0000 0.0000 0.0000 28.2807 0.0000
# 6 0.0000 0.0000 0.0000 0.0000 0.0000 22.9213
#
#
#
# Elastic Compliance Matrix: (Units=1/GPa)
#
#
# Indices 1 2 3 4 5 6 
#
# 1 0.024491 -0.012036 -0.003357 0.000000 0.000000 0.000000
# 2 -0.012036 0.017776 -0.003184 0.000000 0.000000 0.000000
# 3 -0.003357 -0.003184 0.008590 0.000000 0.000000 0.000000
# 4 0.000000 0.000000 0.000000 0.029892 0.000000 0.000000
# 5 0.000000 0.000000 0.000000 0.000000 0.035360 0.000000
# 6 0.000000 0.000000 0.000000 0.000000 0.000000 0.043627
#
#
# Mechanical properties :
#
#
# Convention : Reuss Voigt Hill
#
# Bulk Modulus (GPa) = 72.97780 80.29268 76.63524
# Shear Modulus (GPa) = 24.81914 28.17167 26.49540
#
# Velocity S-wave (km/s) = 3.81189 4.06119 3.93851
# Velocity P-wave (km/s) = 7.88030 8.30655 8.09623
#
# Compressibility (1/GPa) = 0.01370280
#
# Stress axis : x y z
#
# Youngs Moduli (GPa) = 40.83176 56.25500 116.41821
#
# Poissons Ratio (x) = 0.67711 0.39081
# Poissons Ratio (y) = 0.49147 0.37062
# Poissons Ratio (z) = 0.13707 0.17909
#
# Static dielectric constant tensor:
#      x y z
#    x 3.442160 0.000000 0.000000 
#    y 0.000000 3.715280 0.000000 
#    z 0.000000 0.000000 3.525000 
# 
# 
# High freq. dielectric constant tensor:
#      x y z
#    x 1.643960 0.000000 0.000000 
#    y 0.000000 1.634860 0.000000 
#    z 0.000000 0.000000 1.689320 
# 
# From -- ./inp_files/35285.got.cif
#   From: 2010.03.12/outbox.cif.g09.slc.cpg/sg63_18_cif.got.tgz:35285.got - 2010.04.10 19:34:48.
