data_PCOD8258309
_publ_section_title
;
Structure prediction by ZEFSAII (Michael W. Deem and Ramdas Pophale) SiO2 
 PCOD8258309
Probable space group: C M C M
;
_chemical_formula_sum "Si O2"
_cell_formula_units_Z 96
_cell_length_a 18.759342
_cell_length_b 30.754884
_cell_length_c 9.419513
_cell_angle_alpha 90.000000
_cell_angle_beta 90.000000
_cell_angle_gamma 90.000000
_cell_volume 5434.506896
_symmetry_space_group_name_H-M "C M C M"
_symmetry_group_IT_number 63
_symmetry_cell_setting 'orthorhombic'
loop_
_space_group_symop_operation_xyz
x,y,z
-x,-y,1/2+z
x,-y,-z
-x,y,1/2-z
-x,-y,-z
x,y,1/2-z
-x,y,z
x,-y,1/2+z
1/2+x,1/2+y,z
1/2-x,1/2-y,1/2+z
1/2+x,1/2-y,-z
1/2-x,1/2+y,1/2-z
1/2-x,1/2-y,-z
1/2+x,1/2+y,1/2-z
1/2-x,1/2+y,z
1/2+x,1/2-y,1/2+z
loop_
_atom_site_type_symbol
_atom_site_label
_atom_site_fract_x
_atom_site_fract_y
_atom_site_fract_z
Si Si1 0.917587 0.042621 0.915164
Si Si2 0.583185 0.801384 0.914314
Si Si3 0.578985 0.296309 0.418471
Si Si4 0.082293 0.458120 0.414832
Si Si5 0.166752 0.626712 0.581886
Si Si6 0.671297 0.624884 0.918722
O O1 0.903107 0.033810 0.750000
O O2 0.870569 0.082493 0.973834
O O3 0.000000 0.054175 0.943094
O O4 0.893820 0.000000 0.000000
O O5 0.601671 0.809595 0.750000
O O6 0.500000 0.810245 0.942336
O O7 0.603344 0.752249 0.960430
O O8 0.630063 0.832270 0.010925
O O9 0.575554 0.299749 0.250000
O O10 0.500000 0.305915 0.479860
O O11 0.633845 0.331736 0.481329
O O12 0.109586 0.500000 0.500000
O O13 0.094899 0.467691 0.250000
O O14 0.127240 0.416992 0.467395
O O15 0.000000 0.448192 0.448720
O O16 0.161715 0.632887 0.750000
O O17 0.247744 0.623536 0.527444
O O18 0.668259 0.625827 0.750000
#
# Coordination Sequence:
#
# PCOD8258309 Si02
#       6
#    16  16  16  16  16  16
#     4   9  17  30  49  71  94 123 160 199 236 275
#     4   9  18  32  50  71  93 120 157 197 232 269
#     4   8  14  27  48  71  93 120 158 199 229 260
#     4   9  18  32  48  65  86 115 151 188 225 267
#     4  10  20  32  47  70  99 126 151 186 235 286
#     4   9  17  29  46  69  96 126 158 190 229 279
#
# _framework density 17.664897
#
# number of rings (size 3 to 8) (size 9 to 14) (size 15 to 20)
#    0.000    3.000    0.000    2.000    0.000    5.000 
#    0.000    2.500    0.000    1.000    0.000    2.333 
#    0.000    0.000    0.000    0.000    0.000    0.000 
#
# Total GULP energy -595151.782560 kJ/mol
# GULP energy per Si atom -12398.995470 kJ/mol
# Density = 1.762469 g / cm^3
# Si number density = 17.664897 Si / 1000 Ang^3
#
#
#
# Elastic Constant Matrix: (Units=GPa)
#
#
# Indices 1 2 3 4 5 6 
#
# 1 118.5063 101.3565 32.2385 0.0000 0.0000 0.0000
# 2 101.3565 179.1972 43.9221 0.0000 0.0000 0.0000
# 3 32.2385 43.9221 28.1648 0.0000 0.0000 0.0000
# 4 0.0000 0.0000 0.0000 26.0270 0.0000 0.0000
# 5 0.0000 0.0000 0.0000 0.0000 17.5244 0.0000
# 6 0.0000 0.0000 0.0000 0.0000 0.0000 10.7688
#
#
#
# Elastic Compliance Matrix: (Units=1/GPa)
#
#
# Indices 1 2 3 4 5 6 
#
# 1 0.017231 -0.007951 -0.007324 0.000000 0.000000 0.000000
# 2 -0.007951 0.012702 -0.010708 0.000000 0.000000 0.000000
# 3 -0.007324 -0.010708 0.060587 0.000000 0.000000 0.000000
# 4 0.000000 0.000000 0.000000 0.038422 0.000000 0.000000
# 5 0.000000 0.000000 0.000000 0.000000 0.057063 0.000000
# 6 0.000000 0.000000 0.000000 0.000000 0.000000 0.092861
#
#
# Mechanical properties :
#
#
# Convention : Reuss Voigt Hill
#
# Bulk Modulus (GPa) = 25.93706 75.65582 50.79644
# Shear Modulus (GPa) = 14.54828 20.75411 17.65120
#
# Velocity S-wave (km/s) = 2.87290 3.43137 3.16448
# Velocity P-wave (km/s) = 5.07144 7.65639 6.49384
#
# Compressibility (1/GPa) = 0.03855488
#
# Stress axis : x y z
#
# Youngs Moduli (GPa) = 58.03411 78.72692 16.50521
#
# Poissons Ratio (x) = 0.62596 0.12089
# Poissons Ratio (y) = 0.46143 0.17673
# Poissons Ratio (z) = 0.42505 0.84297
#
# Static dielectric constant tensor:
#      x y z
#    x 3.408630 0.000000 0.000000 
#    y 0.000000 3.473470 0.000000 
#    z 0.000000 0.000000 2.878970 
# 
# 
# High freq. dielectric constant tensor:
#      x y z
#    x 1.683180 0.000000 0.000000 
#    y 0.000000 1.696960 0.000000 
#    z 0.000000 0.000000 1.640310 
# 
# From -- ./inp_files/8517.got.cif
#   From: 2010.03.12/outbox.cif.g09.slc.cpg/sg63_5_cif.got.tgz:8517.got - 2010.04.10 19:34:48.
