data_PCOD8258225
_publ_section_title
;
Structure prediction by ZEFSAII (Michael W. Deem and Ramdas Pophale) SiO2 
 PCOD8258225
Probable space group: C M C M
;
_chemical_formula_sum "Si O2"
_cell_formula_units_Z 96
_cell_length_a 9.361339
_cell_length_b 19.102557
_cell_length_c 30.389630
_cell_angle_alpha 90.000000
_cell_angle_beta 90.000000
_cell_angle_gamma 90.000000
_cell_volume 5434.441139
_symmetry_space_group_name_H-M "C M C M"
_symmetry_group_IT_number 63
_symmetry_cell_setting 'orthorhombic'
loop_
_space_group_symop_operation_xyz
x,y,z
-x,-y,1/2+z
x,-y,-z
-x,y,1/2-z
-x,-y,-z
x,y,1/2-z
-x,y,z
x,-y,1/2+z
1/2+x,1/2+y,z
1/2-x,1/2-y,1/2+z
1/2+x,1/2-y,-z
1/2-x,1/2+y,1/2-z
1/2-x,1/2-y,-z
1/2+x,1/2+y,1/2-z
1/2-x,1/2+y,z
1/2+x,1/2-y,1/2+z
loop_
_atom_site_type_symbol
_atom_site_label
_atom_site_fract_x
_atom_site_fract_y
_atom_site_fract_z
Si Si1 0.668045 0.667590 0.377387
Si Si2 0.168969 0.578183 0.548009
Si Si3 0.667163 0.928337 0.300044
Si Si4 0.669016 0.920515 0.551062
Si Si5 0.165142 0.934150 0.700067
Si Si6 0.169661 0.674547 0.874843
O O1 0.500000 0.665739 0.387267
O O2 0.748062 0.630970 0.417183
O O3 0.704733 0.630494 0.331246
O O4 0.727866 0.746525 0.374002
O O5 0.220981 0.499945 0.560216
O O6 0.214172 0.599728 0.498749
O O7 0.233329 0.633690 0.582726
O O8 0.000000 0.577218 0.550849
O O9 0.706363 0.908439 0.250000
O O10 0.500000 0.942335 0.306035
O O11 0.720221 0.864754 0.330568
O O12 0.744993 0.998899 0.315166
O O13 0.500000 0.912254 0.558321
O O14 0.203757 0.912080 0.750000
O O15 0.000000 0.954657 0.695836
O O16 0.000000 0.675573 0.877061
#
# Coordination Sequence:
#
# PCOD8258225 Si02
#       6
#    16  16  16  16  16  16
#     4  10  20  31  45  68  96 124 151 182 226 275
#     4   8  15  29  49  69  88 118 157 190 225 271
#     4   9  17  30  51  75  92 113 153 198 229 257
#     4   9  17  31  51  70  88 116 156 195 228 267
#     4   9  18  32  48  66  91 122 151 181 223 274
#     4   9  17  29  45  67  96 124 149 183 226 271
#
# _framework density 17.665109999999999
#
# number of rings (size 3 to 8) (size 9 to 14) (size 15 to 20)
#    0.000    3.000    0.000    2.000    0.000    3.333 
#    0.000    5.833    0.000    2.000    0.000    4.667 
#    0.000    0.000    0.000    0.000    0.000    0.000 
#
# Total GULP energy -595088.941328 kJ/mol
# GULP energy per Si atom -12397.686278 kJ/mol
# Density = 1.762490 g / cm^3
# Si number density = 17.665110 Si / 1000 Ang^3
#
#
#
# Elastic Constant Matrix: (Units=GPa)
#
#
# Indices 1 2 3 4 5 6 
#
# 1 26.3208 38.5125 34.3261 0.0000 0.0000 0.0000
# 2 38.5125 171.9868 106.5856 0.0000 0.0000 0.0000
# 3 34.3261 106.5856 138.6073 0.0000 0.0000 0.0000
# 4 0.0000 0.0000 0.0000 20.8000 0.0000 0.0000
# 5 0.0000 0.0000 0.0000 0.0000 24.0425 0.0000
# 6 0.0000 0.0000 0.0000 0.0000 0.0000 21.3338
#
#
#
# Elastic Compliance Matrix: (Units=1/GPa)
#
#
# Indices 1 2 3 4 5 6 
#
# 1 0.061770 -0.008314 -0.008904 0.000000 0.000000 0.000000
# 2 -0.008314 0.012227 -0.007343 0.000000 0.000000 0.000000
# 3 -0.008904 -0.007343 0.015067 0.000000 0.000000 0.000000
# 4 0.000000 0.000000 0.000000 0.048077 0.000000 0.000000
# 5 0.000000 0.000000 0.000000 0.000000 0.041593 0.000000
# 6 0.000000 0.000000 0.000000 0.000000 0.000000 0.046874
#
#
# Mechanical properties :
#
#
# Convention : Reuss Voigt Hill
#
# Bulk Modulus (GPa) = 25.03711 77.30702 51.17207
# Shear Modulus (GPa) = 17.35850 23.73463 20.54657
#
# Velocity S-wave (km/s) = 3.13811 3.66948 3.41415
# Velocity P-wave (km/s) = 5.22822 7.86199 6.67627
#
# Compressibility (1/GPa) = 0.03994072
#
# Stress axis : x y z
#
# Youngs Moduli (GPa) = 16.18918 81.78642 66.37183
#
# Poissons Ratio (x) = 0.67994 0.59099
# Poissons Ratio (y) = 0.13459 0.48739
# Poissons Ratio (z) = 0.14415 0.60059
#
# Static dielectric constant tensor:
#      x y z
#    x 2.901590 0.000000 0.000000 
#    y 0.000000 3.477760 0.000000 
#    z 0.000000 0.000000 3.574320 
# 
# 
# High freq. dielectric constant tensor:
#      x y z
#    x 1.641460 0.000000 0.000000 
#    y 0.000000 1.681450 0.000000 
#    z 0.000000 0.000000 1.698510 
# 
# From -- ./inp_files/68297.got.cif
#   From: 2010.03.12/outbox.cif.g09.slc.cpg/sg63_35_cif.got.tgz:68297.got - 2010.04.10 19:34:48.
