data_PCOD8258900
_publ_section_title
;
Structure prediction by ZEFSAII (Michael W. Deem and Ramdas Pophale) SiO2 
 PCOD8258900
Probable space group: C M C M
;
_chemical_formula_sum "Si O2"
_cell_formula_units_Z 80
_cell_length_a 9.022262
_cell_length_b 26.531368
_cell_length_c 18.400801
_cell_angle_alpha 90.000000
_cell_angle_beta 90.000000
_cell_angle_gamma 90.000000
_cell_volume 4404.654079
_symmetry_space_group_name_H-M "C M C M"
_symmetry_group_IT_number 63
_symmetry_cell_setting 'orthorhombic'
loop_
_space_group_symop_operation_xyz
x,y,z
-x,-y,1/2+z
x,-y,-z
-x,y,1/2-z
-x,-y,-z
x,y,1/2-z
-x,y,z
x,-y,1/2+z
1/2+x,1/2+y,z
1/2-x,1/2-y,1/2+z
1/2+x,1/2-y,-z
1/2-x,1/2+y,1/2-z
1/2-x,1/2-y,-z
1/2+x,1/2+y,1/2-z
1/2-x,1/2+y,z
1/2+x,1/2-y,1/2+z
loop_
_atom_site_type_symbol
_atom_site_label
_atom_site_fract_x
_atom_site_fract_y
_atom_site_fract_z
Si Si1 0.325238 0.571776 0.750000
Si Si2 0.671429 0.222881 0.607640
Si Si3 0.171148 0.526311 0.612413
Si Si4 0.675887 0.313256 0.250000
Si Si5 0.328757 0.923237 0.539009
Si Si6 0.170806 0.824280 0.974869
O O1 0.500000 0.570721 0.750000
O O2 0.270706 0.543257 0.678859
O O3 0.266954 0.629164 0.750000
O O4 0.500000 0.209836 0.620731
O O5 0.762571 0.215658 0.680534
O O6 0.732619 0.185367 0.546514
O O7 0.694638 0.280542 0.583887
O O8 0.211107 0.559629 0.542451
O O9 0.205703 0.467976 0.595296
O O10 0.000000 0.533280 0.633408
O O11 0.500000 0.310058 0.250000
O O12 0.500000 0.907494 0.544069
O O13 0.226491 0.876129 0.561064
O O14 0.000000 0.828406 0.998166
#
# Coordination Sequence:
#
# PCOD8258900 Si02
#       6
#     8  16  16   8  16  16
#     4  11  23  35  50  77 108 135 166 209 260 307
#     4  10  21  36  54  77 106 140 176 212 255 310
#     4   9  19  35  54  77 104 135 173 212 251 306
#     4  11  23  37  54  79 108 135 170 217 264 309
#     4   9  18  34  56  79 102 133 174 215 256 304
#     4  10  20  34  54  80 107 136 173 216 259 304
#
# _framework density 18.162607000000001
#
# number of rings (size 3 to 8) (size 9 to 14) (size 15 to 20)
#    0.000    2.200    0.000    4.200    0.000    8.800 
#    0.000    3.000    0.000    0.000    0.000    0.000 
#    0.000    0.000    0.000    0.000    0.000    0.000 
#
# Total GULP energy -496150.141399 kJ/mol
# GULP energy per Si atom -12403.753535 kJ/mol
# Density = 1.812127 g / cm^3
# Si number density = 18.162607 Si / 1000 Ang^3
#
#
#
# Elastic Constant Matrix: (Units=GPa)
#
#
# Indices 1 2 3 4 5 6 
#
# 1 88.3257 55.4266 49.4540 0.0000 0.0000 0.0000
# 2 55.4266 113.1344 39.7412 0.0000 0.0000 0.0000
# 3 49.4540 39.7412 103.6570 0.0000 0.0000 0.0000
# 4 0.0000 0.0000 0.0000 16.2279 0.0000 0.0000
# 5 0.0000 0.0000 0.0000 0.0000 31.9457 0.0000
# 6 0.0000 0.0000 0.0000 0.0000 0.0000 34.8137
#
#
#
# Elastic Compliance Matrix: (Units=1/GPa)
#
#
# Indices 1 2 3 4 5 6 
#
# 1 0.019551 -0.007283 -0.006536 0.000000 0.000000 0.000000
# 2 -0.007283 0.012927 -0.001482 0.000000 0.000000 0.000000
# 3 -0.006536 -0.001482 0.013333 0.000000 0.000000 0.000000
# 4 0.000000 0.000000 0.000000 0.061622 0.000000 0.000000
# 5 0.000000 0.000000 0.000000 0.000000 0.031303 0.000000
# 6 0.000000 0.000000 0.000000 0.000000 0.000000 0.028724
#
#
# Mechanical properties :
#
#
# Convention : Reuss Voigt Hill
#
# Bulk Modulus (GPa) = 65.73793 66.04006 65.88899
# Shear Modulus (GPa) = 24.61450 27.29715 25.95582
#
# Velocity S-wave (km/s) = 3.68534 3.88097 3.78442
# Velocity P-wave (km/s) = 7.37439 7.51811 7.44660
#
# Compressibility (1/GPa) = 0.01521192
#
# Stress axis : x y z
#
# Youngs Moduli (GPa) = 51.14802 77.35468 74.99975
#
# Poissons Ratio (x) = 0.56335 0.49017
# Poissons Ratio (y) = 0.37249 0.11113
# Poissons Ratio (z) = 0.33428 0.11462
#
# Static dielectric constant tensor:
#      x y z
#    x 3.347880 0.000000 0.000000 
#    y 0.000000 3.428950 0.000000 
#    z 0.000000 0.000000 3.192140 
# 
# 
# High freq. dielectric constant tensor:
#      x y z
#    x 1.710360 0.000000 0.000000 
#    y 0.000000 1.712430 0.000000 
#    z 0.000000 0.000000 1.690090 
# 
# From -- ./inp_files/40563.got.cif
#   From: 2010.03.12/outbox.cif.g09.slc.cpg/sg63_21_cif.got.tgz:40563.got - 2010.04.10 19:34:48.
