data_PCOD8258981
_publ_section_title
;
Structure prediction by ZEFSAII (Michael W. Deem and Ramdas Pophale) SiO2 
 PCOD8258981
Probable space group: C M C M
;
_chemical_formula_sum "Si O2"
_cell_formula_units_Z 112
_cell_length_a 13.395474
_cell_length_b 19.742126
_cell_length_c 21.963876
_cell_angle_alpha 90.000000
_cell_angle_beta 90.000000
_cell_angle_gamma 90.000000
_cell_volume 5808.459805
_symmetry_space_group_name_H-M "C M C M"
_symmetry_group_IT_number 63
_symmetry_cell_setting 'orthorhombic'
loop_
_space_group_symop_operation_xyz
x,y,z
-x,-y,1/2+z
x,-y,-z
-x,y,1/2-z
-x,-y,-z
x,y,1/2-z
-x,y,z
x,-y,1/2+z
1/2+x,1/2+y,z
1/2-x,1/2-y,1/2+z
1/2+x,1/2-y,-z
1/2-x,1/2+y,1/2-z
1/2-x,1/2-y,-z
1/2+x,1/2+y,1/2-z
1/2-x,1/2+y,z
1/2+x,1/2-y,1/2+z
loop_
_atom_site_type_symbol
_atom_site_label
_atom_site_fract_x
_atom_site_fract_y
_atom_site_fract_z
Si Si1 0.116687 0.232914 0.179177
Si Si2 0.715826 0.868056 0.182176
Si Si3 0.724262 0.681702 0.074715
Si Si4 0.884789 0.504553 0.181351
Si Si5 0.738849 0.969702 0.561331
Si Si6 0.885793 0.916570 0.098549
Si Si7 0.111844 0.774455 0.464120
O O1 0.137127 0.220017 0.250000
O O2 0.167853 0.301270 0.152408
O O3 0.170970 0.173883 0.140680
O O4 0.000000 0.234799 0.165444
O O5 0.743566 0.848106 0.250000
O O6 0.819291 0.895086 0.155718
O O7 0.629272 0.924033 0.178386
O O8 0.734390 0.607368 0.046015
O O9 0.829195 0.722016 0.079654
O O10 0.654331 0.728694 0.032331
O O11 0.849632 0.529540 0.250000
O O12 0.825495 0.535080 0.123677
O O13 0.000000 0.523137 0.172544
O O14 0.683808 0.000000 0.500000
O O15 0.838137 0.015757 0.569242
O O16 0.882324 0.852929 0.054049
O O17 0.000000 0.932869 0.118088
O O18 0.000000 0.747027 0.463168
#
# Coordination Sequence:
#
# PCOD8258981 Si02
#       7
#    16  16  16  16  16  16  16
#     4  10  20  34  55  83 112 145 190 240 291 345
#     4   9  17  33  56  84 114 144 186 239 289 340
#     4  11  22  38  58  82 118 150 192 242 296 349
#     4   9  19  36  59  84 113 152 191 231 287 350
#     4  11  23  38  57  86 120 153 195 240 294 347
#     4  10  20  36  57  82 115 151 192 235 279 342
#     4  10  21  37  59  83 111 151 193 236 286 342
#
# _framework density 19.282219000000001
#
# number of rings (size 3 to 8) (size 9 to 14) (size 15 to 20)
#    0.000    2.000    2.857    0.857    0.000    4.857 
#    0.000    1.429    0.000    0.429    0.000    0.000 
#    0.000    0.000    0.000    0.000    0.000    0.000 
#
# Total GULP energy -693855.569016 kJ/mol
# GULP energy per Si atom -12390.278018 kJ/mol
# Density = 1.923833 g / cm^3
# Si number density = 19.282219 Si / 1000 Ang^3
#
#
#
# Elastic Constant Matrix: (Units=GPa)
#
#
# Indices 1 2 3 4 5 6 
#
# 1 126.7874 38.6397 51.9645 0.0000 0.0000 0.0000
# 2 38.6397 72.7101 24.8464 0.0000 0.0000 0.0000
# 3 51.9645 24.8464 105.2655 0.0000 0.0000 0.0000
# 4 0.0000 0.0000 0.0000 27.5327 0.0000 0.0000
# 5 0.0000 0.0000 0.0000 0.0000 29.0875 0.0000
# 6 0.0000 0.0000 0.0000 0.0000 0.0000 18.2476
#
#
#
# Elastic Compliance Matrix: (Units=1/GPa)
#
#
# Indices 1 2 3 4 5 6 
#
# 1 0.011022 -0.004349 -0.004414 0.000000 0.000000 0.000000
# 2 -0.004349 0.016676 -0.001789 0.000000 0.000000 0.000000
# 3 -0.004414 -0.001789 0.012101 0.000000 0.000000 0.000000
# 4 0.000000 0.000000 0.000000 0.036320 0.000000 0.000000
# 5 0.000000 0.000000 0.000000 0.000000 0.034379 0.000000
# 6 0.000000 0.000000 0.000000 0.000000 0.000000 0.054802
#
#
# Mechanical properties :
#
#
# Convention : Reuss Voigt Hill
#
# Bulk Modulus (GPa) = 53.49355 59.51822 56.50589
# Shear Modulus (GPa) = 25.95564 27.59440 26.77502
#
# Velocity S-wave (km/s) = 3.67289 3.78707 3.73042
# Velocity P-wave (km/s) = 6.76679 7.07505 6.92264
#
# Compressibility (1/GPa) = 0.01869384
#
# Stress axis : x y z
#
# Youngs Moduli (GPa) = 90.72901 59.96760 82.63540
#
# Poissons Ratio (x) = 0.26078 0.36479
# Poissons Ratio (y) = 0.39455 0.14786
# Poissons Ratio (z) = 0.40052 0.10730
#
# Static dielectric constant tensor:
#      x y z
#    x 3.508790 0.000000 0.000000 
#    y 0.000000 3.359670 0.000000 
#    z 0.000000 0.000000 3.609480 
# 
# 
# High freq. dielectric constant tensor:
#      x y z
#    x 1.741880 0.000000 0.000000 
#    y 0.000000 1.738720 0.000000 
#    z 0.000000 0.000000 1.755460 
# 
# From -- ./inp_files/61801.got.cif
#   From: 2010.03.12/outbox.cif.g09.slc.cpg/sg63_31_cif.got.tgz:61801.got - 2010.04.10 19:34:48.
