data_PCOD8258447
_publ_section_title
;
Structure prediction by ZEFSAII (Michael W. Deem and Ramdas Pophale) SiO2 
 PCOD8258447
Probable space group: C M C M
;
_chemical_formula_sum "Si O2"
_cell_formula_units_Z 88
_cell_length_a 18.899965
_cell_length_b 27.394495
_cell_length_c 9.290709
_cell_angle_alpha 90.000000
_cell_angle_beta 90.000000
_cell_angle_gamma 90.000000
_cell_volume 4810.311008
_symmetry_space_group_name_H-M "C M C M"
_symmetry_group_IT_number 63
_symmetry_cell_setting 'orthorhombic'
loop_
_space_group_symop_operation_xyz
x,y,z
-x,-y,1/2+z
x,-y,-z
-x,y,1/2-z
-x,-y,-z
x,y,1/2-z
-x,y,z
x,-y,1/2+z
1/2+x,1/2+y,z
1/2-x,1/2-y,1/2+z
1/2+x,1/2-y,-z
1/2-x,1/2+y,1/2-z
1/2-x,1/2-y,-z
1/2+x,1/2+y,1/2-z
1/2-x,1/2+y,z
1/2+x,1/2-y,1/2+z
loop_
_atom_site_type_symbol
_atom_site_label
_atom_site_fract_x
_atom_site_fract_y
_atom_site_fract_z
Si Si1 0.274044 0.452342 0.921409
Si Si2 0.000000 0.452010 0.412271
Si Si3 0.148324 0.590882 0.917638
Si Si4 0.332053 0.653039 0.412649
Si Si5 0.177918 0.315123 0.914627
Si Si6 0.419775 0.275565 0.417449
O O1 0.269513 0.460494 0.750000
O O2 0.317140 0.403038 0.960020
O O3 0.308356 0.500000 0.000000
O O4 0.195802 0.445642 0.987216
O O5 0.000000 0.500000 0.500000
O O6 0.067564 0.420228 0.449581
O O7 0.000000 0.469589 0.250000
O O8 0.169535 0.586003 0.750000
O O9 0.154381 0.646007 0.968699
O O10 0.359037 0.653070 0.250000
O O11 0.263046 0.688055 0.428114
O O12 0.395427 0.674403 0.507482
O O13 0.158569 0.330557 0.750000
O O14 0.136535 0.266241 0.958601
O O15 0.417877 0.286233 0.250000
O O16 0.500000 0.261746 0.466043
#
# Coordination Sequence:
#
# PCOD8258447 Si02
#       6
#    16   8  16  16  16  16
#     4  10  20  35  55  80 105 131 170 216 263 315
#     4  10  22  34  44  64  96 134 176 218 259 306
#     4  10  20  33  49  72 102 135 176 220 260 308
#     4   9  19  35  54  78 107 138 174 215 259 312
#     4   9  19  35  53  76 105 138 177 218 261 311
#     4  10  21  35  53  79 109 140 177 218 263 317
#
# _framework density 18.294035999999998
#
# number of rings (size 3 to 8) (size 9 to 14) (size 15 to 20)
#    0.000    2.364    0.000    3.273    1.273    7.636 
#    0.000    0.000    0.000    0.545    0.000    0.000 
#    0.000    0.000    0.000    0.000    0.000    0.000 
#
# Total GULP energy -545403.527561 kJ/mol
# GULP energy per Si atom -12395.534717 kJ/mol
# Density = 1.825240 g / cm^3
# Si number density = 18.294036 Si / 1000 Ang^3
#
#
#
# Elastic Constant Matrix: (Units=GPa)
#
#
# Indices 1 2 3 4 5 6 
#
# 1 57.5851 40.1887 27.6027 0.0000 0.0000 0.0000
# 2 40.1887 101.9142 41.4521 0.0000 0.0000 0.0000
# 3 27.6027 41.4521 60.3320 0.0000 0.0000 0.0000
# 4 0.0000 0.0000 0.0000 37.0109 0.0000 0.0000
# 5 0.0000 0.0000 0.0000 0.0000 27.7053 0.0000
# 6 0.0000 0.0000 0.0000 0.0000 0.0000 6.9048
#
#
#
# Elastic Compliance Matrix: (Units=1/GPa)
#
#
# Indices 1 2 3 4 5 6 
#
# 1 0.025758 -0.007445 -0.006670 0.000000 0.000000 0.000000
# 2 -0.007445 0.015769 -0.007429 0.000000 0.000000 0.000000
# 3 -0.006670 -0.007429 0.024730 0.000000 0.000000 0.000000
# 4 0.000000 0.000000 0.000000 0.027019 0.000000 0.000000
# 5 0.000000 0.000000 0.000000 0.000000 0.036094 0.000000
# 6 0.000000 0.000000 0.000000 0.000000 0.000000 0.144826
#
#
# Mechanical properties :
#
#
# Convention : Reuss Voigt Hill
#
# Bulk Modulus (GPa) = 43.15549 48.70204 45.92877
# Shear Modulus (GPa) = 15.38424 21.69671 18.54048
#
# Velocity S-wave (km/s) = 2.90305 3.44757 3.18696
# Velocity P-wave (km/s) = 5.90576 6.52129 6.22115
#
# Compressibility (1/GPa) = 0.02317202
#
# Stress axis : x y z
#
# Youngs Moduli (GPa) = 38.82234 63.41414 40.43610
#
# Poissons Ratio (x) = 0.47210 0.26970
# Poissons Ratio (y) = 0.28902 0.30038
# Poissons Ratio (z) = 0.25894 0.47108
#
# Static dielectric constant tensor:
#      x y z
#    x 3.342640 0.000000 0.000000 
#    y 0.000000 3.287150 0.000000 
#    z 0.000000 0.000000 3.409690 
# 
# 
# High freq. dielectric constant tensor:
#      x y z
#    x 1.687210 0.000000 0.000000 
#    y 0.000000 1.708380 0.000000 
#    z 0.000000 0.000000 1.715570 
# 
# From -- ./inp_files/6781.got.cif
#   From: 2010.03.12/outbox.cif.g09.slc.cpg/sg63_4_cif.got.tgz:6781.got - 2010.04.10 19:34:48.
