data_PCOD8258854
_publ_section_title
;
Structure prediction by ZEFSAII (Michael W. Deem and Ramdas Pophale) SiO2 
 PCOD8258854
Probable space group: C M C M
;
_chemical_formula_sum "Si O2"
_cell_formula_units_Z 80
_cell_length_a 25.509054
_cell_length_b 10.376985
_cell_length_c 16.591166
_cell_angle_alpha 90.000000
_cell_angle_beta 90.000000
_cell_angle_gamma 90.000000
_cell_volume 4391.798952
_symmetry_space_group_name_H-M "C M C M"
_symmetry_group_IT_number 63
_symmetry_cell_setting 'orthorhombic'
loop_
_space_group_symop_operation_xyz
x,y,z
-x,-y,1/2+z
x,-y,-z
-x,y,1/2-z
-x,-y,-z
x,y,1/2-z
-x,y,z
x,-y,1/2+z
1/2+x,1/2+y,z
1/2-x,1/2-y,1/2+z
1/2+x,1/2-y,-z
1/2-x,1/2+y,1/2-z
1/2-x,1/2-y,-z
1/2+x,1/2+y,1/2-z
1/2-x,1/2+y,z
1/2+x,1/2-y,1/2+z
loop_
_atom_site_type_symbol
_atom_site_label
_atom_site_fract_x
_atom_site_fract_y
_atom_site_fract_z
Si Si1 0.127546 0.643518 0.492814
Si Si2 0.676993 0.734475 0.659464
Si Si3 0.059978 0.870597 0.551000
Si Si4 0.218858 0.749371 0.581902
Si Si5 0.148823 0.948044 0.658095
O O1 0.103877 0.500000 0.500000
O O2 0.155450 0.663747 0.405753
O O3 0.081112 0.747213 0.501550
O O4 0.169564 0.654516 0.566664
O O5 0.666461 0.786492 0.750000
O O6 0.739781 0.707825 0.650575
O O7 0.647145 0.600605 0.645491
O O8 0.092817 0.889273 0.632754
O O9 0.000000 0.845074 0.574238
O O10 0.066993 0.000000 0.500000
O O11 0.250000 0.750000 0.500000
O O12 0.195373 0.889899 0.603176
O O13 0.159402 0.908822 0.750000
#
# Coordination Sequence:
#
# PCOD8258854 Si02
#       5
#    16  16  16  16  16
#     4  10  21  36  55  83 112 147 187 232 279 335
#     4  10  20  34  53  78 115 152 186 228 279 332
#     4  10  20  38  61  81 107 144 191 239 284 338
#     4   9  20  31  52  76 110 150 189 218 267 328
#     4  10  20  35  55  83 112 144 191 242 282 329
#
# _framework density 18.215771
#
# number of rings (size 3 to 8) (size 9 to 14) (size 15 to 20)
#    0.000    2.200    2.000    0.600    5.600    0.800 
#    0.000    4.000    0.000    0.600    0.000    0.000 
#    0.000    0.000    0.000    0.000    0.000    0.000 
#
# Total GULP energy -495749.731672 kJ/mol
# GULP energy per Si atom -12393.743292 kJ/mol
# Density = 1.817431 g / cm^3
# Si number density = 18.215771 Si / 1000 Ang^3
#
#
#
# Elastic Constant Matrix: (Units=GPa)
#
#
# Indices 1 2 3 4 5 6 
#
# 1 109.1016 41.5428 34.0069 0.0000 0.0000 0.0000
# 2 41.5428 110.8714 42.8965 0.0000 0.0000 0.0000
# 3 34.0069 42.8965 93.6438 0.0000 0.0000 0.0000
# 4 0.0000 0.0000 0.0000 25.1183 0.0000 0.0000
# 5 0.0000 0.0000 0.0000 0.0000 17.6673 0.0000
# 6 0.0000 0.0000 0.0000 0.0000 0.0000 21.5510
#
#
#
# Elastic Compliance Matrix: (Units=1/GPa)
#
#
# Indices 1 2 3 4 5 6 
#
# 1 0.011191 -0.003185 -0.002605 0.000000 0.000000 0.000000
# 2 -0.003185 0.011869 -0.004280 0.000000 0.000000 0.000000
# 3 -0.002605 -0.004280 0.013585 0.000000 0.000000 0.000000
# 4 0.000000 0.000000 0.000000 0.039812 0.000000 0.000000
# 5 0.000000 0.000000 0.000000 0.000000 0.056602 0.000000
# 6 0.000000 0.000000 0.000000 0.000000 0.000000 0.046402
#
#
# Mechanical properties :
#
#
# Convention : Reuss Voigt Hill
#
# Bulk Modulus (GPa) = 60.58979 61.16768 60.87874
# Shear Modulus (GPa) = 24.37816 25.87870 25.12843
#
# Velocity S-wave (km/s) = 3.66225 3.77327 3.71817
# Velocity P-wave (km/s) = 7.15662 7.25506 7.20601
#
# Compressibility (1/GPa) = 0.01650443
#
# Stress axis : x y z
#
# Youngs Moduli (GPa) = 89.36134 84.25320 73.60847
#
# Poissons Ratio (x) = 0.26837 0.19173
# Poissons Ratio (y) = 0.28464 0.31506
# Poissons Ratio (z) = 0.23277 0.36062
#
# Static dielectric constant tensor:
#      x y z
#    x 3.457250 0.000000 0.000000 
#    y 0.000000 3.182150 0.000000 
#    z 0.000000 0.000000 3.463400 
# 
# 
# High freq. dielectric constant tensor:
#      x y z
#    x 1.694250 0.000000 0.000000 
#    y 0.000000 1.693440 0.000000 
#    z 0.000000 0.000000 1.701080 
# 
# From -- ./inp_files/48732.got.cif
#   From: 2010.03.12/outbox.cif.g09.slc.cpg/sg63_25_cif.got.tgz:48732.got - 2010.04.10 19:34:48.
