data_PCOD8258864
_publ_section_title
;
Structure prediction by ZEFSAII (Michael W. Deem and Ramdas Pophale) SiO2 
 PCOD8258864
Probable space group: C M C M
;
_chemical_formula_sum "Si O2"
_cell_formula_units_Z 112
_cell_length_a 11.551995
_cell_length_b 26.817681
_cell_length_c 18.946844
_cell_angle_alpha 90.000000
_cell_angle_beta 90.000000
_cell_angle_gamma 90.000000
_cell_volume 5869.689012
_symmetry_space_group_name_H-M "C M C M"
_symmetry_group_IT_number 63
_symmetry_cell_setting 'orthorhombic'
loop_
_space_group_symop_operation_xyz
x,y,z
-x,-y,1/2+z
x,-y,-z
-x,y,1/2-z
-x,-y,-z
x,y,1/2-z
-x,y,z
x,-y,1/2+z
1/2+x,1/2+y,z
1/2-x,1/2-y,1/2+z
1/2+x,1/2-y,-z
1/2-x,1/2+y,1/2-z
1/2-x,1/2-y,-z
1/2+x,1/2+y,1/2-z
1/2-x,1/2+y,z
1/2+x,1/2-y,1/2+z
loop_
_atom_site_type_symbol
_atom_site_label
_atom_site_fract_x
_atom_site_fract_y
_atom_site_fract_z
Si Si1 0.635272 0.269299 0.457318
Si Si2 0.182915 0.513108 0.332005
Si Si3 0.128517 0.401836 0.327880
Si Si4 0.869671 0.609384 0.084564
Si Si5 0.371068 0.518129 0.927534
Si Si6 0.365831 0.202234 0.172234
Si Si7 0.215722 0.877487 0.448620
O O1 0.500000 0.254095 0.481688
O O2 0.750000 0.250000 0.500000
O O3 0.655706 0.249932 0.377765
O O4 0.638530 0.328855 0.460385
O O5 0.179912 0.526857 0.250000
O O6 0.121365 0.460457 0.348989
O O7 0.121581 0.557208 0.374455
O O8 0.313712 0.507123 0.359356
O O9 0.185713 0.396970 0.250000
O O10 0.197598 0.368391 0.383403
O O11 0.000000 0.380046 0.326791
O O12 0.816149 0.652309 0.135103
O O13 0.000000 0.623729 0.060060
O O14 0.788167 0.606444 0.016909
O O15 0.500000 0.497530 0.925635
O O16 0.368933 0.578008 0.925523
O O17 0.309567 0.500000 0.000000
O O18 0.307702 0.210380 0.250000
O O19 0.500000 0.193221 0.184237
#
# Coordination Sequence:
#
# PCOD8258864 Si02
#       7
#    16  16  16  16  16  16  16
#     4  11  23  40  63  89 117 151 193 243 298 354
#     4  10  20  34  53  81 113 148 189 234 289 343
#     4   9  19  34  52  79 118 157 191 235 290 346
#     4  11  20  32  55  86 116 149 189 235 287 347
#     4  10  20  36  54  74 106 148 192 233 281 339
#     4   9  19  36  58  85 115 147 186 236 293 349
#     4  11  21  35  56  84 112 150 193 241 286 348
#
# _framework density 19.081078999999999
#
# number of rings (size 3 to 8) (size 9 to 14) (size 15 to 20)
#    0.000    1.857    2.857    1.714    0.000    2.857 
#    0.000    2.143    0.000    3.000    0.000    0.000 
#    0.000    0.000    0.000    0.000    0.000    0.000 
#
# Total GULP energy -693832.988996 kJ/mol
# GULP energy per Si atom -12389.874803 kJ/mol
# Density = 1.903765 g / cm^3
# Si number density = 19.081079 Si / 1000 Ang^3
#
#
#
# Elastic Constant Matrix: (Units=GPa)
#
#
# Indices 1 2 3 4 5 6 
#
# 1 79.9965 11.5080 34.7896 0.0000 0.0000 0.0000
# 2 11.5080 64.2099 9.0806 0.0000 0.0000 0.0000
# 3 34.7896 9.0806 98.8225 0.0000 0.0000 0.0000
# 4 0.0000 0.0000 0.0000 29.2999 0.0000 0.0000
# 5 0.0000 0.0000 0.0000 0.0000 21.0085 0.0000
# 6 0.0000 0.0000 0.0000 0.0000 0.0000 13.8737
#
#
#
# Elastic Compliance Matrix: (Units=1/GPa)
#
#
# Indices 1 2 3 4 5 6 
#
# 1 0.015002 -0.001967 -0.005100 0.000000 0.000000 0.000000
# 2 -0.001967 0.016037 -0.000781 0.000000 0.000000 0.000000
# 3 -0.005100 -0.000781 0.011986 0.000000 0.000000 0.000000
# 4 0.000000 0.000000 0.000000 0.034130 0.000000 0.000000
# 5 0.000000 0.000000 0.000000 0.000000 0.047600 0.000000
# 6 0.000000 0.000000 0.000000 0.000000 0.000000 0.072079
#
#
# Mechanical properties :
#
#
# Convention : Reuss Voigt Hill
#
# Bulk Modulus (GPa) = 36.59318 39.30950 37.95134
# Shear Modulus (GPa) = 22.55907 25.34647 23.95277
#
# Velocity S-wave (km/s) = 3.44215 3.64862 3.54689
# Velocity P-wave (km/s) = 5.91754 6.19644 6.05859
#
# Compressibility (1/GPa) = 0.02732750
#
# Stress axis : x y z
#
# Youngs Moduli (GPa) = 66.65909 62.35594 83.42730
#
# Poissons Ratio (x) = 0.12268 0.42552
# Poissons Ratio (y) = 0.13114 0.06516
# Poissons Ratio (z) = 0.33999 0.04870
#
# Static dielectric constant tensor:
#      x y z
#    x 3.375160 0.000000 0.000000 
#    y 0.000000 3.408160 0.000000 
#    z 0.000000 0.000000 3.722530 
# 
# 
# High freq. dielectric constant tensor:
#      x y z
#    x 1.721760 0.000000 0.000000 
#    y 0.000000 1.735670 0.000000 
#    z 0.000000 0.000000 1.745200 
# 
# From -- ./inp_files/53181.got.cif
#   From: 2010.03.12/outbox.cif.g09.slc.cpg/sg63_27_cif.got.tgz:53181.got - 2010.04.10 19:34:48.
