data_PCOD8258694
_publ_section_title
;
Structure prediction by ZEFSAII (Michael W. Deem and Ramdas Pophale) SiO2 
 PCOD8258694
Probable space group: C M C M
;
_chemical_formula_sum "Si O2"
_cell_formula_units_Z 96
_cell_length_a 9.028905
_cell_length_b 23.248466
_cell_length_c 26.058168
_cell_angle_alpha 90.000000
_cell_angle_beta 90.000000
_cell_angle_gamma 90.000000
_cell_volume 5469.822903
_symmetry_space_group_name_H-M "C M C M"
_symmetry_group_IT_number 63
_symmetry_cell_setting 'orthorhombic'
loop_
_space_group_symop_operation_xyz
x,y,z
-x,-y,1/2+z
x,-y,-z
-x,y,1/2-z
-x,-y,-z
x,y,1/2-z
-x,y,z
x,-y,1/2+z
1/2+x,1/2+y,z
1/2-x,1/2-y,1/2+z
1/2+x,1/2-y,-z
1/2-x,1/2+y,1/2-z
1/2-x,1/2-y,-z
1/2+x,1/2+y,1/2-z
1/2-x,1/2+y,z
1/2+x,1/2-y,1/2+z
loop_
_atom_site_type_symbol
_atom_site_label
_atom_site_fract_x
_atom_site_fract_y
_atom_site_fract_z
Si Si1 0.326302 0.502755 0.122243
Si Si2 0.175154 0.270588 0.947884
Si Si3 0.165236 0.569491 0.958781
Si Si4 0.173861 0.415172 0.191430
Si Si5 0.667250 0.823976 0.108409
Si Si6 0.670655 0.100722 0.072440
O O1 0.500000 0.505752 0.129789
O O2 0.287076 0.466891 0.071230
O O3 0.255981 0.472453 0.172048
O O4 0.263191 0.567498 0.116187
O O5 0.224684 0.229789 0.900768
O O6 0.229880 0.334491 0.933438
O O7 0.000000 0.268266 0.955438
O O8 0.250000 0.250000 0.000000
O O9 0.173966 0.636084 0.942131
O O10 0.000000 0.545814 0.945224
O O11 0.193794 0.565809 0.019296
O O12 0.218029 0.403257 0.250000
O O13 0.222989 0.359857 0.158015
O O14 0.000000 0.425875 0.184176
O O15 0.500000 0.801507 0.117133
O O16 0.500000 0.101388 0.088879
#
# Coordination Sequence:
#
# PCOD8258694 Si02
#       6
#    16  16  16  16  16  16
#     4  11  22  32  47  77 107 130 165 217 267 305
#     4  11  21  33  50  73 104 143 182 215 251 299
#     4   9  17  32  50  68  99 142 178 208 245 301
#     4   9  19  38  62  80  98 132 172 209 258 321
#     4   9  17  32  52  78 105 131 171 216 257 303
#     4  10  20  34  49  67  99 145 184 208 243 304
#
# _framework density 17.550843
#
# number of rings (size 3 to 8) (size 9 to 14) (size 15 to 20)
#    0.000    2.167    1.667    3.500    0.000    7.000 
#    0.000    0.000    0.000    1.000    0.000    4.667 
#    0.000    0.000    0.000    0.000    0.000    0.000 
#
# Total GULP energy -595206.844298 kJ/mol
# GULP energy per Si atom -12400.142590 kJ/mol
# Density = 1.751090 g / cm^3
# Si number density = 17.550843 Si / 1000 Ang^3
#
#
#
# Elastic Constant Matrix: (Units=GPa)
#
#
# Indices 1 2 3 4 5 6 
#
# 1 75.6526 47.5104 34.0036 0.0000 0.0000 0.0000
# 2 47.5104 102.5879 39.7404 0.0000 0.0000 0.0000
# 3 34.0036 39.7404 88.9514 0.0000 0.0000 0.0000
# 4 0.0000 0.0000 0.0000 18.4265 0.0000 0.0000
# 5 0.0000 0.0000 0.0000 0.0000 19.5202 0.0000
# 6 0.0000 0.0000 0.0000 0.0000 0.0000 30.4926
#
#
#
# Elastic Compliance Matrix: (Units=1/GPa)
#
#
# Indices 1 2 3 4 5 6 
#
# 1 0.019864 -0.007568 -0.004213 0.000000 0.000000 0.000000
# 2 -0.007568 0.014671 -0.003662 0.000000 0.000000 0.000000
# 3 -0.004213 -0.003662 0.014488 0.000000 0.000000 0.000000
# 4 0.000000 0.000000 0.000000 0.054270 0.000000 0.000000
# 5 0.000000 0.000000 0.000000 0.000000 0.051229 0.000000
# 6 0.000000 0.000000 0.000000 0.000000 0.000000 0.032795
#
#
# Mechanical properties :
#
#
# Convention : Reuss Voigt Hill
#
# Bulk Modulus (GPa) = 55.12710 56.63339 55.88025
# Shear Modulus (GPa) = 22.29682 23.41701 22.85692
#
# Velocity S-wave (km/s) = 3.56815 3.65669 3.61269
# Velocity P-wave (km/s) = 6.96087 7.08285 7.02212
#
# Compressibility (1/GPa) = 0.01813990
#
# Stress axis : x y z
#
# Youngs Moduli (GPa) = 50.34156 68.16229 69.02120
#
# Poissons Ratio (x) = 0.51583 0.29076
# Poissons Ratio (y) = 0.38097 0.25272
# Poissons Ratio (z) = 0.21207 0.24958
#
# Static dielectric constant tensor:
#      x y z
#    x 3.134290 0.000000 0.000000 
#    y 0.000000 3.375670 0.000000 
#    z 0.000000 0.000000 3.092440 
# 
# 
# High freq. dielectric constant tensor:
#      x y z
#    x 1.669730 0.000000 0.000000 
#    y 0.000000 1.680530 0.000000 
#    z 0.000000 0.000000 1.647150 
# 
# From -- ./inp_files/67236.got.cif
#   From: 2010.03.12/outbox.cif.g09.slc.cpg/sg63_34_cif.got.tgz:67236.got - 2010.04.10 19:34:48.
