data_PCOD8258479
_publ_section_title
;
Structure prediction by ZEFSAII (Michael W. Deem and Ramdas Pophale) SiO2 
 PCOD8258479
Probable space group: C M C M
;
_chemical_formula_sum "Si O2"
_cell_formula_units_Z 80
_cell_length_a 9.249246
_cell_length_b 19.433406
_cell_length_c 25.025455
_cell_angle_alpha 90.000000
_cell_angle_beta 90.000000
_cell_angle_gamma 90.000000
_cell_volume 4498.184210
_symmetry_space_group_name_H-M "C M C M"
_symmetry_group_IT_number 63
_symmetry_cell_setting 'orthorhombic'
loop_
_space_group_symop_operation_xyz
x,y,z
-x,-y,1/2+z
x,-y,-z
-x,y,1/2-z
-x,-y,-z
x,y,1/2-z
-x,y,z
x,-y,1/2+z
1/2+x,1/2+y,z
1/2-x,1/2-y,1/2+z
1/2+x,1/2-y,-z
1/2-x,1/2+y,1/2-z
1/2-x,1/2-y,-z
1/2+x,1/2+y,1/2-z
1/2-x,1/2+y,z
1/2+x,1/2-y,1/2+z
loop_
_atom_site_type_symbol
_atom_site_label
_atom_site_fract_x
_atom_site_fract_y
_atom_site_fract_z
Si Si1 0.828582 0.200826 0.750000
Si Si2 0.168688 0.303964 0.840124
Si Si3 0.334081 0.439006 0.960548
Si Si4 0.331022 0.197653 0.037599
Si Si5 0.167269 0.057295 0.338781
Si Si6 0.171407 0.046958 0.750000
O O1 0.776324 0.241699 0.697229
O O2 0.760536 0.123906 0.750000
O O3 0.000000 0.195205 0.750000
O O4 0.203074 0.283032 0.901018
O O5 0.248923 0.373552 0.823318
O O6 0.000000 0.318240 0.831666
O O7 0.500000 0.415023 0.968140
O O8 0.227996 0.377602 0.975692
O O9 0.306510 0.464129 0.900101
O O10 0.293438 0.500000 0.000000
O O11 0.500000 0.199960 0.025095
O O12 0.250000 0.250000 0.000000
O O13 0.000000 0.072108 0.326906
O O14 0.224172 0.994255 0.302564
O O15 0.000000 0.053616 0.750000
#
# Coordination Sequence:
#
# PCOD8258479 Si02
#       6
#     8  16  16  16  16   8
#     4   9  17  30  49  73  98 123 156 198 240 281
#     4   9  18  32  51  72  94 125 161 196 235 283
#     4   9  18  32  50  72  97 126 161 200 242 288
#     4  10  20  33  50  73 100 130 165 203 243 288
#     4   9  17  30  49  70  93 123 156 192 233 281
#     4   9  17  28  45  71  96 119 152 192 234 279
#
# _framework density 17.784955
#
# number of rings (size 3 to 8) (size 9 to 14) (size 15 to 20)
#    0.000    2.800    0.000    1.200    0.000    2.800 
#    0.000    6.000    0.000    2.400    0.000    0.000 
#    0.000    0.000    0.000    0.000    0.000    0.000 
#
# Total GULP energy -495991.664001 kJ/mol
# GULP energy per Si atom -12399.791600 kJ/mol
# Density = 1.774448 g / cm^3
# Si number density = 17.784955 Si / 1000 Ang^3
#
#
#
# Elastic Constant Matrix: (Units=GPa)
#
#
# Indices 1 2 3 4 5 6 
#
# 1 57.0909 57.2604 47.2927 0.0000 0.0000 0.0000
# 2 57.2604 167.3683 105.6430 0.0000 0.0000 0.0000
# 3 47.2927 105.6430 125.5493 0.0000 0.0000 0.0000
# 4 0.0000 0.0000 0.0000 38.4290 0.0000 0.0000
# 5 0.0000 0.0000 0.0000 0.0000 18.0383 0.0000
# 6 0.0000 0.0000 0.0000 0.0000 0.0000 29.4893
#
#
#
# Elastic Compliance Matrix: (Units=1/GPa)
#
#
# Indices 1 2 3 4 5 6 
#
# 1 0.028257 -0.006289 -0.005352 0.000000 0.000000 0.000000
# 2 -0.006289 0.014143 -0.009531 0.000000 0.000000 0.000000
# 3 -0.005352 -0.009531 0.018001 0.000000 0.000000 0.000000
# 4 0.000000 0.000000 0.000000 0.026022 0.000000 0.000000
# 5 0.000000 0.000000 0.000000 0.000000 0.055438 0.000000
# 6 0.000000 0.000000 0.000000 0.000000 0.000000 0.033911
#
#
# Mechanical properties :
#
#
# Convention : Reuss Voigt Hill
#
# Bulk Modulus (GPa) = 55.38332 85.60008 70.49170
# Shear Modulus (GPa) = 22.30796 26.51213 24.41004
#
# Velocity S-wave (km/s) = 3.54548 3.86515 3.70876
# Velocity P-wave (km/s) = 6.92594 8.25556 7.61981
#
# Compressibility (1/GPa) = 0.01805598
#
# Stress axis : x y z
#
# Youngs Moduli (GPa) = 35.38900 70.70816 55.55218
#
# Poissons Ratio (x) = 0.44470 0.29732
# Poissons Ratio (y) = 0.22257 0.52948
# Poissons Ratio (z) = 0.18941 0.67394
#
# Static dielectric constant tensor:
#      x y z
#    x 3.140590 0.000000 0.000000 
#    y 0.000000 3.465030 0.000000 
#    z 0.000000 0.000000 3.502770 
# 
# 
# High freq. dielectric constant tensor:
#      x y z
#    x 1.666000 0.000000 0.000000 
#    y 0.000000 1.684850 0.000000 
#    z 0.000000 0.000000 1.699960 
# 
# From -- ./inp_files/66699.got.cif
#   From: 2010.03.12/outbox.cif.g09.slc.cpg/sg63_34_cif.got.tgz:66699.got - 2010.04.10 19:34:48.
