data_PCOD8258731
_publ_section_title
;
Structure prediction by ZEFSAII (Michael W. Deem and Ramdas Pophale) SiO2 
 PCOD8258731
Probable space group: C M C M
;
_chemical_formula_sum "Si O2"
_cell_formula_units_Z 104
_cell_length_a 26.309045
_cell_length_b 23.859481
_cell_length_c 9.291787
_cell_angle_alpha 90.000000
_cell_angle_beta 90.000000
_cell_angle_gamma 90.000000
_cell_volume 5832.642016
_symmetry_space_group_name_H-M "C M C M"
_symmetry_group_IT_number 63
_symmetry_cell_setting 'orthorhombic'
loop_
_space_group_symop_operation_xyz
x,y,z
-x,-y,1/2+z
x,-y,-z
-x,y,1/2-z
-x,-y,-z
x,y,1/2-z
-x,y,z
x,-y,1/2+z
1/2+x,1/2+y,z
1/2-x,1/2-y,1/2+z
1/2+x,1/2-y,-z
1/2-x,1/2+y,1/2-z
1/2-x,1/2-y,-z
1/2+x,1/2+y,1/2-z
1/2-x,1/2+y,z
1/2+x,1/2-y,1/2+z
loop_
_atom_site_type_symbol
_atom_site_label
_atom_site_fract_x
_atom_site_fract_y
_atom_site_fract_z
Si Si1 0.000000 0.944457 0.087733
Si Si2 0.328199 0.353664 0.916608
Si Si3 0.372257 0.941131 0.919819
Si Si4 0.390848 0.441589 0.417788
Si Si5 0.058791 0.644221 0.582433
Si Si6 0.209684 0.649285 0.414190
Si Si7 0.642718 0.768862 0.416441
O O1 0.946821 0.912247 0.057409
O O2 0.000000 0.965722 0.250000
O O3 0.000000 0.000000 0.000000
O O4 0.339457 0.367145 0.750000
O O5 0.268666 0.354728 0.949120
O O6 0.355635 0.295907 0.963578
O O7 0.349177 0.401325 0.018213
O O8 0.381744 0.950209 0.750000
O O9 0.319304 0.908846 0.950454
O O10 0.419049 0.905680 0.985127
O O11 0.369006 0.000000 0.000000
O O12 0.387741 0.500000 0.500000
O O13 0.379465 0.451670 0.250000
O O14 0.065443 0.627918 0.750000
O O15 0.088360 0.702420 0.547686
O O16 0.000000 0.653537 0.542393
O O17 0.199728 0.665365 0.250000
O O18 0.188313 0.699894 0.506165
O O19 0.655750 0.773332 0.250000
#
# Coordination Sequence:
#
# PCOD8258731 Si02
#       7
#     8  16  16  16  16  16  16
#     4   8  16  32  52  70  92 124 162 200 241 290
#     4  10  20  34  51  78 109 135 170 212 255 305
#     4  10  20  34  52  75 102 135 174 213 257 307
#     4  10  20  35  54  75 101 133 169 210 256 304
#     4   9  18  34  54  75 103 137 171 211 258 305
#     4   9  19  34  52  73 103 138 171 213 257 302
#     4   9  18  33  53  76 102 134 173 214 254 303
#
# _framework density 17.830684000000002
#
# number of rings (size 3 to 8) (size 9 to 14) (size 15 to 20)
#    0.000    2.615    0.000    1.385    0.000    3.692 
#    1.385    1.538    0.000    0.000    0.000    0.000 
#    0.000    0.000    0.000    0.000    0.000    0.000 
#
# Total GULP energy -644544.391498 kJ/mol
# GULP energy per Si atom -12395.084452 kJ/mol
# Density = 1.779010 g / cm^3
# Si number density = 17.830684 Si / 1000 Ang^3
#
#
#
# Elastic Constant Matrix: (Units=GPa)
#
#
# Indices 1 2 3 4 5 6 
#
# 1 102.7797 65.6924 53.0634 0.0000 0.0000 0.0000
# 2 65.6924 113.6158 58.9226 0.0000 0.0000 0.0000
# 3 53.0634 58.9226 78.7264 0.0000 0.0000 0.0000
# 4 0.0000 0.0000 0.0000 27.2748 0.0000 0.0000
# 5 0.0000 0.0000 0.0000 0.0000 23.5014 0.0000
# 6 0.0000 0.0000 0.0000 0.0000 0.0000 15.8653
#
#
#
# Elastic Compliance Matrix: (Units=1/GPa)
#
#
# Indices 1 2 3 4 5 6 
#
# 1 0.017450 -0.006521 -0.006881 0.000000 0.000000 0.000000
# 2 -0.006521 0.016822 -0.008195 0.000000 0.000000 0.000000
# 3 -0.006881 -0.008195 0.023474 0.000000 0.000000 0.000000
# 4 0.000000 0.000000 0.000000 0.036664 0.000000 0.000000
# 5 0.000000 0.000000 0.000000 0.000000 0.042551 0.000000
# 6 0.000000 0.000000 0.000000 0.000000 0.000000 0.063031
#
#
# Mechanical properties :
#
#
# Convention : Reuss Voigt Hill
#
# Bulk Modulus (GPa) = 68.72132 72.27543 70.49837
# Shear Modulus (GPa) = 20.15831 21.15786 20.65808
#
# Velocity S-wave (km/s) = 3.36600 3.44844 3.40747
# Velocity P-wave (km/s) = 7.33016 7.51518 7.42325
#
# Compressibility (1/GPa) = 0.01455152
#
# Stress axis : x y z
#
# Youngs Moduli (GPa) = 57.30626 59.44546 42.60030
#
# Poissons Ratio (x) = 0.38764 0.29314
# Poissons Ratio (y) = 0.37369 0.34912
# Poissons Ratio (z) = 0.39434 0.48717
#
# Static dielectric constant tensor:
#      x y z
#    x 3.591580 0.000000 0.000000 
#    y 0.000000 3.233270 0.000000 
#    z 0.000000 0.000000 3.378080 
# 
# 
# High freq. dielectric constant tensor:
#      x y z
#    x 1.697460 0.000000 0.000000 
#    y 0.000000 1.676960 0.000000 
#    z 0.000000 0.000000 1.696440 
# 
# From -- ./inp_files/12578.got.cif
#   From: 2010.03.12/outbox.cif.g09.slc.cpg/sg63_7_cif.got.tgz:12578.got - 2010.04.10 19:34:48.
