data_PCOD8258383
_publ_section_title
;
Structure prediction by ZEFSAII (Michael W. Deem and Ramdas Pophale) SiO2 
 PCOD8258383
Probable space group: C M C M
;
_chemical_formula_sum "Si O2"
_cell_formula_units_Z 80
_cell_length_a 8.515452
_cell_length_b 19.354200
_cell_length_c 24.516336
_cell_angle_alpha 90.000000
_cell_angle_beta 90.000000
_cell_angle_gamma 90.000000
_cell_volume 4040.531479
_symmetry_space_group_name_H-M "C M C M"
_symmetry_group_IT_number 63
_symmetry_cell_setting 'orthorhombic'
loop_
_space_group_symop_operation_xyz
x,y,z
-x,-y,1/2+z
x,-y,-z
-x,y,1/2-z
-x,-y,-z
x,y,1/2-z
-x,y,z
x,-y,1/2+z
1/2+x,1/2+y,z
1/2-x,1/2-y,1/2+z
1/2+x,1/2-y,-z
1/2-x,1/2+y,1/2-z
1/2-x,1/2-y,-z
1/2+x,1/2+y,1/2-z
1/2-x,1/2+y,z
1/2+x,1/2-y,1/2+z
loop_
_atom_site_type_symbol
_atom_site_label
_atom_site_fract_x
_atom_site_fract_y
_atom_site_fract_z
Si Si1 0.685989 0.102662 0.750000
Si Si2 0.312523 0.816809 0.528948
Si Si3 0.686934 0.149986 0.149914
Si Si4 0.173493 0.561640 0.958793
Si Si5 0.686392 0.757591 0.750000
Si Si6 0.687616 0.993849 0.347669
O O1 0.500000 0.109587 0.750000
O O2 0.756697 0.178948 0.750000
O O3 0.746277 0.058550 0.698572
O O4 0.500000 0.820079 0.529907
O O5 0.250000 0.750000 0.500000
O O6 0.249913 0.824114 0.590997
O O7 0.239110 0.877169 0.490983
O O8 0.500000 0.149845 0.150468
O O9 0.750694 0.202145 0.196449
O O10 0.749450 0.072124 0.161983
O O11 0.260749 0.536439 0.903902
O O12 0.000000 0.587609 0.941602
O O13 0.157613 0.500000 0.000000
O O14 0.500000 0.757673 0.750000
O O15 0.500000 0.997397 0.350656
#
# Coordination Sequence:
#
# PCOD8258383 Si02
#       6
#     8  16  16  16   8  16
#     4  10  21  33  51  79 101 122 160 214 260 288
#     4  10  20  32  50  76 104 133 164 201 249 301
#     4   9  17  32  52  73  97 132 174 206 238 290
#     4   9  15  27  48  74  99 123 157 204 247 283
#     4  10  21  35  51  71 101 136 166 200 244 298
#     4   9  16  29  50  74  97 122 163 211 246 280
#
# _framework density 19.799375000000001
#
# number of rings (size 3 to 8) (size 9 to 14) (size 15 to 20)
#    0.000    2.600    2.000    0.600    2.800    2.400 
#    0.000    0.000    0.000    4.200    0.000    0.000 
#    0.000    0.000    0.000    0.000    0.000    0.000 
#
# Total GULP energy -495659.651862 kJ/mol
# GULP energy per Si atom -12391.491297 kJ/mol
# Density = 1.975431 g / cm^3
# Si number density = 19.799375 Si / 1000 Ang^3
#
#
#
# Elastic Constant Matrix: (Units=GPa)
#
#
# Indices 1 2 3 4 5 6 
#
# 1 5.6250 8.9592 10.1262 0.0000 0.0000 0.0000
# 2 8.9592 194.3024 109.4291 0.0000 0.0000 0.0000
# 3 10.1262 109.4291 195.6234 0.0000 0.0000 0.0000
# 4 0.0000 0.0000 0.0000 45.9014 0.0000 0.0000
# 5 0.0000 0.0000 0.0000 0.0000 8.4160 0.0000
# 6 0.0000 0.0000 0.0000 0.0000 0.0000 18.2735
#
#
#
# Elastic Compliance Matrix: (Units=1/GPa)
#
#
# Indices 1 2 3 4 5 6 
#
# 1 0.199233 -0.004932 -0.007554 0.000000 0.000000 0.000000
# 2 -0.004932 0.007636 -0.004016 0.000000 0.000000 0.000000
# 3 -0.007554 -0.004016 0.007749 0.000000 0.000000 0.000000
# 4 0.000000 0.000000 0.000000 0.021786 0.000000 0.000000
# 5 0.000000 0.000000 0.000000 0.000000 0.118821 0.000000
# 6 0.000000 0.000000 0.000000 0.000000 0.000000 0.054724
#
#
# Mechanical properties :
#
#
# Convention : Reuss Voigt Hill
#
# Bulk Modulus (GPa) = 5.50618 72.50887 39.00753
# Shear Modulus (GPa) = 9.93064 32.32060 21.12562
#
# Velocity S-wave (km/s) = 2.24199 4.04469 3.27002
# Velocity P-wave (km/s) = 3.08043 7.64944 5.83108
#
# Compressibility (1/GPa) = 0.18161406
#
# Stress axis : x y z
#
# Youngs Moduli (GPa) = 5.01924 130.96118 129.04157
#
# Poissons Ratio (x) = 0.64592 0.97480
# Poissons Ratio (y) = 0.02476 0.51824
# Poissons Ratio (z) = 0.03792 0.52595
#
# Static dielectric constant tensor:
#      x y z
#    x 2.893300 0.000000 0.000000 
#    y 0.000000 1.267530 0.000000 
#    z 0.000000 0.000000 3.922320 
# 
# 
# High freq. dielectric constant tensor:
#      x y z
#    x 1.691670 0.000000 0.000000 
#    y 0.000000 1.786830 0.000000 
#    z 0.000000 0.000000 1.793650 
# 
# From -- ./inp_files/61405.got.cif
#   From: 2010.03.12/outbox.cif.g09.slc.cpg/sg63_31_cif.got.tgz:61405.got - 2010.04.10 19:34:48.
