data_PCOD8258688
_publ_section_title
;
Structure prediction by ZEFSAII (Michael W. Deem and Ramdas Pophale) SiO2 
 PCOD8258688
Probable space group: C M C M
;
_chemical_formula_sum "Si O2"
_cell_formula_units_Z 84
_cell_length_a 20.337311
_cell_length_b 16.175443
_cell_length_c 15.614812
_cell_angle_alpha 90.000000
_cell_angle_beta 90.000000
_cell_angle_gamma 90.000000
_cell_volume 5136.726862
_symmetry_space_group_name_H-M "C M C M"
_symmetry_group_IT_number 63
_symmetry_cell_setting 'orthorhombic'
loop_
_space_group_symop_operation_xyz
x,y,z
-x,-y,1/2+z
x,-y,-z
-x,y,1/2-z
-x,-y,-z
x,y,1/2-z
-x,y,z
x,-y,1/2+z
1/2+x,1/2+y,z
1/2-x,1/2-y,1/2+z
1/2+x,1/2-y,-z
1/2-x,1/2+y,1/2-z
1/2-x,1/2-y,-z
1/2+x,1/2+y,1/2-z
1/2-x,1/2+y,z
1/2+x,1/2-y,1/2+z
loop_
_atom_site_type_symbol
_atom_site_label
_atom_site_fract_x
_atom_site_fract_y
_atom_site_fract_z
Si Si1 0.214594 0.092877 0.006130
Si Si2 0.130591 0.758509 0.938810
Si Si3 0.334973 0.838228 0.897150
Si Si4 0.500000 0.069926 0.750000
Si Si5 0.500000 0.230436 0.655341
Si Si6 0.749938 0.810960 0.344458
Si Si7 0.074327 0.589347 0.250000
O O1 0.158165 0.149435 0.047010
O O2 0.282130 0.098624 0.061014
O O3 0.224016 0.120540 0.908677
O O4 0.188939 0.000000 0.000000
O O5 0.060158 0.765285 0.897701
O O6 0.176598 0.712478 0.871153
O O7 0.125668 0.707167 0.026917
O O8 0.295840 0.769815 0.843662
O O9 0.386115 0.885273 0.835511
O O10 0.500000 0.129583 0.665631
O O11 0.435035 0.010853 0.750000
O O12 0.500000 0.271044 0.750000
O O13 0.748923 0.849840 0.250000
O O14 0.000000 0.629435 0.250000
#
# Coordination Sequence:
#
# PCOD8258688 Si02
#       7
#    16  16  16   4   8  16   8
#     4   9  19  35  51  82 106 131 176 228 272 303
#     4   9  19  33  55  73 102 139 183 209 259 322
#     4   9  18  33  53  74 105 142 170 210 266 321
#     4   8  24  34  46  76 110 130 172 214 238 308
#     4  10  20  37  51  73 100 144 179 203 255 317
#     4   9  16  32  54  77 100 137 178 220 255 321
#     4  10  20  34  47  79 113 133 174 212 252 306
#
# _framework density 16.352826
#
# number of rings (size 3 to 8) (size 9 to 14) (size 15 to 20)
#    0.571    2.286    0.952    2.857    1.333    3.048 
#    1.714    1.429    0.000    0.000    0.000    0.000 
#    0.000    0.000    0.000    0.000    0.000    0.000 
#
# Total GULP energy -520500.989278 kJ/mol
# GULP energy per Si atom -12392.880697 kJ/mol
# Density = 1.631561 g / cm^3
# Si number density = 16.352826 Si / 1000 Ang^3
#
#
#
# Elastic Constant Matrix: (Units=GPa)
#
#
# Indices 1 2 3 4 5 6 
#
# 1 107.3155 35.7603 52.5283 0.0000 0.0000 0.0000
# 2 35.7603 93.6541 33.1847 0.0000 0.0000 0.0000
# 3 52.5283 33.1847 116.2220 0.0000 0.0000 0.0000
# 4 0.0000 0.0000 0.0000 14.2480 0.0000 0.0000
# 5 0.0000 0.0000 0.0000 0.0000 26.6073 0.0000
# 6 0.0000 0.0000 0.0000 0.0000 0.0000 19.0140
#
#
#
# Elastic Compliance Matrix: (Units=1/GPa)
#
#
# Indices 1 2 3 4 5 6 
#
# 1 0.012746 -0.003144 -0.004863 0.000000 0.000000 0.000000
# 2 -0.003144 0.012655 -0.002192 0.000000 0.000000 0.000000
# 3 -0.004863 -0.002192 0.011428 0.000000 0.000000 0.000000
# 4 0.000000 0.000000 0.000000 0.070185 0.000000 0.000000
# 5 0.000000 0.000000 0.000000 0.000000 0.037584 0.000000
# 6 0.000000 0.000000 0.000000 0.000000 0.000000 0.052593
#
#
# Mechanical properties :
#
#
# Convention : Reuss Voigt Hill
#
# Bulk Modulus (GPa) = 60.86250 62.23759 61.55004
# Shear Modulus (GPa) = 22.41481 25.02176 23.71829
#
# Velocity S-wave (km/s) = 3.70631 3.91592 3.81256
# Velocity P-wave (km/s) = 7.45753 7.65426 7.55654
#
# Compressibility (1/GPa) = 0.01643048
#
# Stress axis : x y z
#
# Youngs Moduli (GPa) = 78.45374 79.02110 87.50237
#
# Poissons Ratio (x) = 0.24842 0.42555
# Poissons Ratio (y) = 0.24664 0.19184
# Poissons Ratio (z) = 0.38154 0.17325
#
# Static dielectric constant tensor:
#      x y z
#    x 2.947290 0.000000 0.000000 
#    y 0.000000 2.844200 0.000000 
#    z 0.000000 0.000000 3.108360 
# 
# 
# High freq. dielectric constant tensor:
#      x y z
#    x 1.617200 0.000000 0.000000 
#    y 0.000000 1.608710 0.000000 
#    z 0.000000 0.000000 1.639300 
# 
# From -- ./inp_files/35244.got.cif
#   From: 2010.03.12/outbox.cif.g09.slc.cpg/sg63_18_cif.got.tgz:35244.got - 2010.04.10 19:34:48.
