data_PCOD8258950
_publ_section_title
;
Structure prediction by ZEFSAII (Michael W. Deem and Ramdas Pophale) SiO2 
 PCOD8258950
Probable space group: C M C M
;
_chemical_formula_sum "Si O2"
_cell_formula_units_Z 96
_cell_length_a 23.605168
_cell_length_b 21.539009
_cell_length_c 8.833164
_cell_angle_alpha 90.000000
_cell_angle_beta 90.000000
_cell_angle_gamma 90.000000
_cell_volume 4491.062585
_symmetry_space_group_name_H-M "C M C M"
_symmetry_group_IT_number 63
_symmetry_cell_setting 'orthorhombic'
loop_
_space_group_symop_operation_xyz
x,y,z
-x,-y,1/2+z
x,-y,-z
-x,y,1/2-z
-x,-y,-z
x,y,1/2-z
-x,y,z
x,-y,1/2+z
1/2+x,1/2+y,z
1/2-x,1/2-y,1/2+z
1/2+x,1/2-y,-z
1/2-x,1/2+y,1/2-z
1/2-x,1/2-y,-z
1/2+x,1/2+y,1/2-z
1/2-x,1/2+y,z
1/2+x,1/2-y,1/2+z
loop_
_atom_site_type_symbol
_atom_site_label
_atom_site_fract_x
_atom_site_fract_y
_atom_site_fract_z
Si Si1 0.322557 0.437018 0.070870
Si Si2 0.063876 0.560872 0.072644
Si Si3 0.437300 0.276507 0.076328
Si Si4 0.936973 0.092811 0.073867
Si Si5 0.254303 0.683495 0.918839
Si Si6 0.374384 0.170959 0.920447
O O1 0.314946 0.440415 0.250000
O O2 0.293907 0.371910 0.009744
O O3 0.294426 0.500000 0.000000
O O4 0.388957 0.440105 0.026348
O O5 0.066608 0.554300 0.250000
O O6 0.000000 0.568336 0.012821
O O7 0.092030 0.500000 0.000000
O O8 0.098271 0.619394 0.022342
O O9 0.421602 0.293318 0.250000
O O10 0.500000 0.244555 0.070885
O O11 0.438414 0.335974 0.971883
O O12 0.388025 0.234800 0.005835
O O13 0.920863 0.086586 0.250000
O O14 0.000000 0.064312 0.042427
O O15 0.276606 0.697092 0.750000
O O16 0.191599 0.656069 0.916477
O O17 0.250000 0.750000 0.000000
O O18 0.399300 0.172258 0.750000
#
# Coordination Sequence:
#
# PCOD8258950 Si02
#       6
#    16  16  16  16  16  16
#     4  11  24  43  65  90 122 159 201 248 300 358
#     4  10  21  37  56  80 112 150 192 239 293 352
#     4  10  20  34  54  84 121 157 195 241 292 347
#     4  10  21  38  61  90 122 155 192 236 290 351
#     4  10  24  43  63  89 120 157 202 252 303 357
#     4  11  22  36  56  83 114 149 193 242 294 352
#
# _framework density 21.375786999999999
#
# number of rings (size 3 to 8) (size 9 to 14) (size 15 to 20)
#    0.000    1.667    0.000    4.000    0.000   11.333 
#    0.000    1.667    0.000    0.000    0.000    0.000 
#    0.000    0.000    0.000    0.000    0.000    0.000 
#
# Total GULP energy -594954.069279 kJ/mol
# GULP energy per Si atom -12394.876443 kJ/mol
# Density = 2.132713 g / cm^3
# Si number density = 21.375787 Si / 1000 Ang^3
#
#
#
# Elastic Constant Matrix: (Units=GPa)
#
#
# Indices 1 2 3 4 5 6 
#
# 1 74.1263 29.2980 24.5533 0.0000 0.0000 0.0000
# 2 29.2980 124.1373 31.4274 0.0000 0.0000 0.0000
# 3 24.5533 31.4274 73.6853 0.0000 0.0000 0.0000
# 4 0.0000 0.0000 0.0000 40.9785 0.0000 0.0000
# 5 0.0000 0.0000 0.0000 0.0000 24.6213 0.0000
# 6 0.0000 0.0000 0.0000 0.0000 0.0000 60.4735
#
#
#
# Elastic Compliance Matrix: (Units=1/GPa)
#
#
# Indices 1 2 3 4 5 6 
#
# 1 0.015938 -0.002710 -0.004155 0.000000 0.000000 0.000000
# 2 -0.002710 0.009491 -0.003145 0.000000 0.000000 0.000000
# 3 -0.004155 -0.003145 0.016297 0.000000 0.000000 0.000000
# 4 0.000000 0.000000 0.000000 0.024403 0.000000 0.000000
# 5 0.000000 0.000000 0.000000 0.000000 0.040615 0.000000
# 6 0.000000 0.000000 0.000000 0.000000 0.000000 0.016536
#
#
# Mechanical properties :
#
#
# Convention : Reuss Voigt Hill
#
# Bulk Modulus (GPa) = 46.06916 49.16739 47.61827
# Shear Modulus (GPa) = 33.21458 37.65933 35.43695
#
# Velocity S-wave (km/s) = 3.94616 4.20190 4.07604
# Velocity P-wave (km/s) = 6.50858 6.82588 6.66912
#
# Compressibility (1/GPa) = 0.02170650
#
# Stress axis : x y z
#
# Youngs Moduli (GPa) = 62.74406 105.35889 61.35996
#
# Poissons Ratio (x) = 0.28548 0.25496
# Poissons Ratio (y) = 0.17001 0.19299
# Poissons Ratio (z) = 0.26071 0.33138
#
# Static dielectric constant tensor:
#      x y z
#    x 4.158710 0.000000 0.000000 
#    y 0.000000 3.833270 0.000000 
#    z 0.000000 0.000000 3.851770 
# 
# 
# High freq. dielectric constant tensor:
#      x y z
#    x 1.836470 0.000000 0.000000 
#    y 0.000000 1.844710 0.000000 
#    z 0.000000 0.000000 1.841220 
# 
# From -- ./inp_files/12334.got.cif
#   From: 2010.03.12/outbox.cif.g09.slc.cpg/sg63_7_cif.got.tgz:12334.got - 2010.04.10 19:34:48.
