data_PCOD8258933
_publ_section_title
;
Structure prediction by ZEFSAII (Michael W. Deem and Ramdas Pophale) SiO2 
 PCOD8258933
Probable space group: C M C M
;
_chemical_formula_sum "Si O2"
_cell_formula_units_Z 104
_cell_length_a 20.440109
_cell_length_b 29.076801
_cell_length_c 8.959390
_cell_angle_alpha 90.000000
_cell_angle_beta 90.000000
_cell_angle_gamma 90.000000
_cell_volume 5324.860974
_symmetry_space_group_name_H-M "C M C M"
_symmetry_group_IT_number 63
_symmetry_cell_setting 'orthorhombic'
loop_
_space_group_symop_operation_xyz
x,y,z
-x,-y,1/2+z
x,-y,-z
-x,y,1/2-z
-x,-y,-z
x,y,1/2-z
-x,y,z
x,-y,1/2+z
1/2+x,1/2+y,z
1/2-x,1/2-y,1/2+z
1/2+x,1/2-y,-z
1/2-x,1/2+y,1/2-z
1/2-x,1/2-y,-z
1/2+x,1/2+y,1/2-z
1/2-x,1/2+y,z
1/2+x,1/2-y,1/2+z
loop_
_atom_site_type_symbol
_atom_site_label
_atom_site_fract_x
_atom_site_fract_y
_atom_site_fract_z
Si Si1 0.319081 0.806813 0.075154
Si Si2 0.125830 0.390223 0.927106
Si Si3 0.500000 0.949503 0.573605
Si Si4 0.315294 0.298457 0.575852
Si Si5 0.073020 0.133104 0.419662
Si Si6 0.379583 0.453972 0.077056
Si Si7 0.271730 0.046790 0.574667
O O1 0.322244 0.817635 0.250000
O O2 0.334387 0.753894 0.037276
O O3 0.373805 0.838151 0.991692
O O4 0.245982 0.817343 0.017320
O O5 0.130739 0.388616 0.750000
O O6 0.062687 0.419635 0.978044
O O7 0.190507 0.411803 0.998148
O O8 0.500000 0.957134 0.750000
O O9 0.500000 0.000000 0.500000
O O10 0.298187 0.303525 0.750000
O O11 0.377603 0.327827 0.525101
O O12 0.089065 0.118891 0.250000
O O13 0.078081 0.088364 0.521067
O O14 0.000000 0.153275 0.434385
O O15 0.391028 0.460528 0.250000
O O16 0.303933 0.445172 0.037551
O O17 0.405622 0.500000 0.000000
O O18 0.286397 0.044873 0.750000
O O19 0.297456 0.000000 0.500000
#
# Coordination Sequence:
#
# PCOD8258933 Si02
#       7
#    16  16   8  16  16  16  16
#     4  10  20  35  58  88 114 141 182 231 281 334
#     4  11  22  37  56  80 111 149 188 232 283 337
#     4  10  24  42  58  78 110 152 196 238 285 344
#     4   9  19  37  59  84 113 147 183 225 279 335
#     4  10  21  37  56  78 107 144 183 222 266 319
#     4  10  21  36  55  80 110 142 179 224 269 320
#     4  10  20  34  54  82 111 140 179 228 278 330
#
# _framework density 19.531027000000002
#
# number of rings (size 3 to 8) (size 9 to 14) (size 15 to 20)
#    0.000    2.000    0.000    3.231    0.000    8.615 
#    1.385    0.000    0.000    0.000    0.000    0.000 
#    0.000    0.000    0.000    0.000    0.000    0.000 
#
# Total GULP energy -644951.672338 kJ/mol
# GULP energy per Si atom -12402.916776 kJ/mol
# Density = 1.948657 g / cm^3
# Si number density = 19.531027 Si / 1000 Ang^3
#
#
#
# Elastic Constant Matrix: (Units=GPa)
#
#
# Indices 1 2 3 4 5 6 
#
# 1 89.3676 63.0028 39.7515 0.0000 0.0000 0.0000
# 2 63.0028 123.8325 41.8426 0.0000 0.0000 0.0000
# 3 39.7515 41.8426 72.4682 0.0000 0.0000 0.0000
# 4 0.0000 0.0000 0.0000 37.2055 0.0000 0.0000
# 5 0.0000 0.0000 0.0000 0.0000 25.5242 0.0000
# 6 0.0000 0.0000 0.0000 0.0000 0.0000 13.2537
#
#
#
# Elastic Compliance Matrix: (Units=1/GPa)
#
#
# Indices 1 2 3 4 5 6 
#
# 1 0.019429 -0.007807 -0.006150 0.000000 0.000000 0.000000
# 2 -0.007807 0.013170 -0.003322 0.000000 0.000000 0.000000
# 3 -0.006150 -0.003322 0.019091 0.000000 0.000000 0.000000
# 4 0.000000 0.000000 0.000000 0.026878 0.000000 0.000000
# 5 0.000000 0.000000 0.000000 0.000000 0.039179 0.000000
# 6 0.000000 0.000000 0.000000 0.000000 0.000000 0.075451
#
#
# Mechanical properties :
#
#
# Convention : Reuss Voigt Hill
#
# Bulk Modulus (GPa) = 58.36948 63.87356 61.12152
# Shear Modulus (GPa) = 21.41656 24.60143 23.00900
#
# Velocity S-wave (km/s) = 3.31500 3.55295 3.43603
# Velocity P-wave (km/s) = 6.67852 7.04314 6.86325
#
# Compressibility (1/GPa) = 0.01713224
#
# Stress axis : x y z
#
# Youngs Moduli (GPa) = 51.46933 75.93114 52.38204
#
# Poissons Ratio (x) = 0.59279 0.32214
# Poissons Ratio (y) = 0.40182 0.17400
# Poissons Ratio (z) = 0.31653 0.25222
#
# Static dielectric constant tensor:
#      x y z
#    x 3.492820 0.000000 0.000000 
#    y 0.000000 3.894130 0.000000 
#    z 0.000000 0.000000 3.570330 
# 
# 
# High freq. dielectric constant tensor:
#      x y z
#    x 1.749530 0.000000 0.000000 
#    y 0.000000 1.770270 0.000000 
#    z 0.000000 0.000000 1.764290 
# 
# From -- ./inp_files/8770.got.cif
#   From: 2010.03.12/outbox.cif.g09.slc.cpg/sg63_5_cif.got.tgz:8770.got - 2010.04.10 19:34:48.
