data_PCOD8258432
_publ_section_title
;
Structure prediction by ZEFSAII (Michael W. Deem and Ramdas Pophale) SiO2 
 PCOD8258432
Probable space group: C M C M
;
_chemical_formula_sum "Si O2"
_cell_formula_units_Z 80
_cell_length_a 9.150989
_cell_length_b 25.775782
_cell_length_c 18.993440
_cell_angle_alpha 90.000000
_cell_angle_beta 90.000000
_cell_angle_gamma 90.000000
_cell_volume 4480.056721
_symmetry_space_group_name_H-M "C M C M"
_symmetry_group_IT_number 63
_symmetry_cell_setting 'orthorhombic'
loop_
_space_group_symop_operation_xyz
x,y,z
-x,-y,1/2+z
x,-y,-z
-x,y,1/2-z
-x,-y,-z
x,y,1/2-z
-x,y,z
x,-y,1/2+z
1/2+x,1/2+y,z
1/2-x,1/2-y,1/2+z
1/2+x,1/2-y,-z
1/2-x,1/2+y,1/2-z
1/2-x,1/2-y,-z
1/2+x,1/2+y,1/2-z
1/2-x,1/2+y,z
1/2+x,1/2-y,1/2+z
loop_
_atom_site_type_symbol
_atom_site_label
_atom_site_fract_x
_atom_site_fract_y
_atom_site_fract_z
Si Si1 0.826081 0.101296 0.671483
Si Si2 0.170828 0.805289 0.424109
Si Si3 0.837350 0.987577 0.833673
Si Si4 0.670718 0.700601 0.413698
Si Si5 0.165681 0.611572 0.333669
O O1 0.764409 0.112613 0.750000
O O2 0.768318 0.145033 0.618203
O O3 0.000000 0.101170 0.673997
O O4 0.775479 0.044336 0.644028
O O5 0.257028 0.755618 0.395710
O O6 0.203093 0.815253 0.505956
O O7 0.000000 0.795747 0.410074
O O8 0.846517 0.986164 0.750000
O O9 0.730396 0.942870 0.862212
O O10 0.000000 0.978065 0.865005
O O11 0.500000 0.704571 0.397976
O O12 0.739241 0.658188 0.363141
O O13 0.173819 0.613977 0.250000
O O14 0.000000 0.616358 0.360751
#
# Coordination Sequence:
#
# PCOD8258432 Si02
#       5
#    16  16  16  16  16
#     4   8  14  27  50  76  97 120 154 194 233 277
#     4   9  18  33  51  71  97 129 163 196 234 284
#     4   8  14  27  48  72  96 121 150 188 235 283
#     4  10  20  33  49  69  96 130 163 198 240 283
#     4  10  20  33  50  71  94 123 160 200 240 284
#
# _framework density 17.856918
#
# number of rings (size 3 to 8) (size 9 to 14) (size 15 to 20)
#    0.000    3.000    0.000    2.400    0.000    2.800 
#    0.000    4.000    0.000    7.200    0.000    0.000 
#    0.000    0.000    0.000    0.000    0.000    0.000 
#
# Total GULP energy -495895.509677 kJ/mol
# GULP energy per Si atom -12397.387742 kJ/mol
# Density = 1.781627 g / cm^3
# Si number density = 17.856918 Si / 1000 Ang^3
#
#
#
# Elastic Constant Matrix: (Units=GPa)
#
#
# Indices 1 2 3 4 5 6 
#
# 1 69.8613 57.5244 22.6989 0.0000 0.0000 0.0000
# 2 57.5244 149.0607 37.4072 0.0000 0.0000 0.0000
# 3 22.6989 37.4072 29.5238 0.0000 0.0000 0.0000
# 4 0.0000 0.0000 0.0000 7.5488 0.0000 0.0000
# 5 0.0000 0.0000 0.0000 0.0000 18.9775 0.0000
# 6 0.0000 0.0000 0.0000 0.0000 0.0000 32.4185
#
#
#
# Elastic Compliance Matrix: (Units=1/GPa)
#
#
# Indices 1 2 3 4 5 6 
#
# 1 0.022588 -0.006391 -0.009269 0.000000 0.000000 0.000000
# 2 -0.006391 0.011644 -0.009840 0.000000 0.000000 0.000000
# 3 -0.009269 -0.009840 0.053465 0.000000 0.000000 0.000000
# 4 0.000000 0.000000 0.000000 0.132472 0.000000 0.000000
# 5 0.000000 0.000000 0.000000 0.000000 0.052694 0.000000
# 6 0.000000 0.000000 0.000000 0.000000 0.000000 0.030847
#
#
# Mechanical properties :
#
#
# Convention : Reuss Voigt Hill
#
# Bulk Modulus (GPa) = 27.24998 53.74521 40.49760
# Shear Modulus (GPa) = 13.62610 20.50997 17.06804
#
# Velocity S-wave (km/s) = 2.76537 3.39274 3.09499
# Velocity P-wave (km/s) = 5.04873 6.74615 5.95820
#
# Compressibility (1/GPa) = 0.03669728
#
# Stress axis : x y z
#
# Youngs Moduli (GPa) = 44.27113 85.87796 18.70377
#
# Poissons Ratio (x) = 0.54884 0.17337
# Poissons Ratio (y) = 0.28293 0.18405
# Poissons Ratio (z) = 0.41035 0.84505
#
# Static dielectric constant tensor:
#      x y z
#    x 3.247970 0.000000 0.000000 
#    y 0.000000 3.677970 0.000000 
#    z 0.000000 0.000000 3.112440 
# 
# 
# High freq. dielectric constant tensor:
#      x y z
#    x 1.673800 0.000000 0.000000 
#    y 0.000000 1.706660 0.000000 
#    z 0.000000 0.000000 1.661570 
# 
# From -- ./inp_files/40441.got.cif
#   From: 2010.03.12/outbox.cif.g09.slc.cpg/sg63_21_cif.got.tgz:40441.got - 2010.04.10 19:34:48.
