data_PCOD8258691
_publ_section_title
;
Structure prediction by ZEFSAII (Michael W. Deem and Ramdas Pophale) SiO2 
 PCOD8258691
Probable space group: C M C M
;
_chemical_formula_sum "Si O2"
_cell_formula_units_Z 104
_cell_length_a 26.634149
_cell_length_b 23.413157
_cell_length_c 8.924851
_cell_angle_alpha 90.000000
_cell_angle_beta 90.000000
_cell_angle_gamma 90.000000
_cell_volume 5565.443481
_symmetry_space_group_name_H-M "C M C M"
_symmetry_group_IT_number 63
_symmetry_cell_setting 'orthorhombic'
loop_
_space_group_symop_operation_xyz
x,y,z
-x,-y,1/2+z
x,-y,-z
-x,y,1/2-z
-x,-y,-z
x,y,1/2-z
-x,y,z
x,-y,1/2+z
1/2+x,1/2+y,z
1/2-x,1/2-y,1/2+z
1/2+x,1/2-y,-z
1/2-x,1/2+y,1/2-z
1/2-x,1/2-y,-z
1/2+x,1/2+y,1/2-z
1/2-x,1/2+y,z
1/2+x,1/2-y,1/2+z
loop_
_atom_site_type_symbol
_atom_site_label
_atom_site_fract_x
_atom_site_fract_y
_atom_site_fract_z
Si Si1 0.921308 0.353205 0.072999
Si Si2 0.500000 0.063115 0.430149
Si Si3 0.323364 0.211713 0.574950
Si Si4 0.789270 0.821187 0.426195
Si Si5 0.430589 0.554854 0.582514
Si Si6 0.500000 0.761912 0.075380
Si Si7 0.500000 0.362793 0.928085
Si Si8 0.812341 0.055330 0.583234
O O1 0.924668 0.367592 0.250000
O O2 0.864218 0.336569 0.022581
O O3 0.950691 0.296129 0.028183
O O4 0.948410 0.405369 0.985061
O O5 0.500000 0.060203 0.250000
O O6 0.500000 0.000000 0.500000
O O7 0.331269 0.222296 0.750000
O O8 0.268584 0.189057 0.533342
O O9 0.327033 0.274108 0.497044
O O10 0.799798 0.820317 0.250000
O O11 0.799330 0.884195 0.494626
O O12 0.453448 0.500000 0.500000
O O13 0.452364 0.557405 0.750000
O O14 0.449206 0.609157 0.489841
O O15 0.371493 0.551251 0.585734
O O16 0.500000 0.751719 0.250000
O O17 0.500000 0.700286 0.999905
O O18 0.500000 0.364787 0.750000
O O19 0.789445 0.054124 0.750000
O O20 0.789143 0.000000 0.500000
#
# Coordination Sequence:
#
# PCOD8258691 Si02
#       8
#    16   8  16  16  16   8   8  16
#     4   9  18  36  57  79 110 143 176 216 258 310
#     4  11  22  38  61  87 112 145 181 218 268 326
#     4   9  18  32  55  81 107 142 178 214 264 320
#     4   9  18  33  51  77 110 140 175 221 269 314
#     4  10  20  34  48  64  88 124 165 207 253 299
#     4   8  17  31  47  70 100 131 164 203 248 295
#     4  11  21  31  46  69  94 124 161 207 251 297
#     4   9  19  34  51  70  97 132 170 213 257 300
#
# _framework density 18.68674
#
# number of rings (size 3 to 8) (size 9 to 14) (size 15 to 20)
#    0.000    2.615    0.000    2.077    2.154    1.846 
#    0.000    3.846    0.000    1.846    0.000    0.000 
#    0.000    0.000    0.000    0.000    0.000    0.000 
#
# Total GULP energy -644282.077293 kJ/mol
# GULP energy per Si atom -12390.039948 kJ/mol
# Density = 1.864421 g / cm^3
# Si number density = 18.686740 Si / 1000 Ang^3
#
#
#
# Elastic Constant Matrix: (Units=GPa)
#
#
# Indices 1 2 3 4 5 6 
#
# 1 69.7259 37.8178 26.4048 0.0000 0.0000 0.0000
# 2 37.8178 167.8768 54.9295 0.0000 0.0000 0.0000
# 3 26.4048 54.9295 80.0165 0.0000 0.0000 0.0000
# 4 0.0000 0.0000 0.0000 30.1828 0.0000 0.0000
# 5 0.0000 0.0000 0.0000 0.0000 19.5155 0.0000
# 6 0.0000 0.0000 0.0000 0.0000 0.0000 31.5777
#
#
#
# Elastic Compliance Matrix: (Units=1/GPa)
#
#
# Indices 1 2 3 4 5 6 
#
# 1 0.017231 -0.002607 -0.003897 0.000000 0.000000 0.000000
# 2 -0.002607 0.008077 -0.004684 0.000000 0.000000 0.000000
# 3 -0.003897 -0.004684 0.016999 0.000000 0.000000 0.000000
# 4 0.000000 0.000000 0.000000 0.033131 0.000000 0.000000
# 5 0.000000 0.000000 0.000000 0.000000 0.051241 0.000000
# 6 0.000000 0.000000 0.000000 0.000000 0.000000 0.031668
#
#
# Mechanical properties :
#
#
# Convention : Reuss Voigt Hill
#
# Bulk Modulus (GPa) = 50.17172 61.76926 55.97049
# Shear Modulus (GPa) = 26.68562 29.48636 28.08599
#
# Velocity S-wave (km/s) = 3.78306 3.97663 3.88105
# Velocity P-wave (km/s) = 6.78153 7.36285 7.07816
#
# Compressibility (1/GPa) = 0.01993155
#
# Stress axis : x y z
#
# Youngs Moduli (GPa) = 58.03370 123.81358 58.82711
#
# Poissons Ratio (x) = 0.32275 0.22924
# Poissons Ratio (y) = 0.15128 0.27556
# Poissons Ratio (z) = 0.22614 0.57997
#
# Static dielectric constant tensor:
#      x y z
#    x 3.337130 0.000000 0.000000 
#    y 0.000000 3.730550 0.000000 
#    z 0.000000 0.000000 3.470990 
# 
# 
# High freq. dielectric constant tensor:
#      x y z
#    x 1.715880 0.000000 0.000000 
#    y 0.000000 1.730840 0.000000 
#    z 0.000000 0.000000 1.711050 
# 
# From -- ./inp_files/14706.got.cif
#   From: 2010.03.12/outbox.cif.g09.slc.cpg/sg63_8_cif.got.tgz:14706.got - 2010.04.10 19:34:48.
