data_PCOD8258513
_publ_section_title
;
Structure prediction by ZEFSAII (Michael W. Deem and Ramdas Pophale) SiO2 
 PCOD8258513
Probable space group: C M C M
;
_chemical_formula_sum "Si O2"
_cell_formula_units_Z 80
_cell_length_a 28.179900
_cell_length_b 17.325953
_cell_length_c 9.294055
_cell_angle_alpha 90.000000
_cell_angle_beta 90.000000
_cell_angle_gamma 90.000000
_cell_volume 4537.763085
_symmetry_space_group_name_H-M "C M C M"
_symmetry_group_IT_number 63
_symmetry_cell_setting 'orthorhombic'
loop_
_space_group_symop_operation_xyz
x,y,z
-x,-y,1/2+z
x,-y,-z
-x,y,1/2-z
-x,-y,-z
x,y,1/2-z
-x,y,z
x,-y,1/2+z
1/2+x,1/2+y,z
1/2-x,1/2-y,1/2+z
1/2+x,1/2-y,-z
1/2-x,1/2+y,1/2-z
1/2-x,1/2-y,-z
1/2+x,1/2+y,1/2-z
1/2-x,1/2+y,z
1/2+x,1/2-y,1/2+z
loop_
_atom_site_type_symbol
_atom_site_label
_atom_site_fract_x
_atom_site_fract_y
_atom_site_fract_z
Si Si1 0.141428 0.716841 0.920370
Si Si2 0.555468 0.431829 0.093329
Si Si3 0.945971 0.241260 0.580609
Si Si4 0.210329 0.577336 0.913740
Si Si5 0.713967 0.304490 0.081719
O O1 0.140412 0.731549 0.750000
O O2 0.171842 0.641459 0.961493
O O3 0.088628 0.705287 0.984865
O O4 0.163582 0.792391 0.001929
O O5 0.579815 0.435207 0.250000
O O6 0.500000 0.448586 0.110090
O O7 0.562560 0.346763 0.027306
O O8 0.579447 0.500000 0.000000
O O9 0.934983 0.249420 0.750000
O O10 0.000000 0.266777 0.549219
O O11 0.201085 0.555551 0.750000
O O12 0.264232 0.609351 0.934714
O O13 0.202104 0.500000 0.000000
O O14 0.710161 0.281956 0.250000
O O15 0.750000 0.250000 0.000000
#
# Coordination Sequence:
#
# PCOD8258513 Si02
#       5
#    16  16  16  16  16
#     4  10  20  33  50  75 102 130 167 206 246 294
#     4   8  14  25  41  61  85 113 149 193 238 284
#     4   9  18  32  49  70  97 132 173 213 253 296
#     4   9  19  33  51  76 102 127 159 199 244 296
#     4   9  17  31  50  73  99 126 157 194 238 290
#
# _framework density 17.629833000000001
#
# number of rings (size 3 to 8) (size 9 to 14) (size 15 to 20)
#    0.000    3.000    0.000    3.600    0.000    6.000 
#    0.000    3.000    0.000    0.600    0.000    0.000 
#    0.000    0.000    0.000    0.000    0.000    0.000 
#
# Total GULP energy -495607.473733 kJ/mol
# GULP energy per Si atom -12390.186843 kJ/mol
# Density = 1.758971 g / cm^3
# Si number density = 17.629833 Si / 1000 Ang^3
#
#
#
# Elastic Constant Matrix: (Units=GPa)
#
#
# Indices 1 2 3 4 5 6 
#
# 1 95.4813 39.6235 54.1084 0.0000 0.0000 0.0000
# 2 39.6235 78.7439 49.2169 0.0000 0.0000 0.0000
# 3 54.1084 49.2169 96.9839 0.0000 0.0000 0.0000
# 4 0.0000 0.0000 0.0000 31.7650 0.0000 0.0000
# 5 0.0000 0.0000 0.0000 0.0000 30.5435 0.0000
# 6 0.0000 0.0000 0.0000 0.0000 0.0000 16.1373
#
#
#
# Elastic Compliance Matrix: (Units=1/GPa)
#
#
# Indices 1 2 3 4 5 6 
#
# 1 0.015989 -0.003618 -0.007085 0.000000 0.000000 0.000000
# 2 -0.003618 0.019417 -0.007835 0.000000 0.000000 0.000000
# 3 -0.007085 -0.007835 0.018240 0.000000 0.000000 0.000000
# 4 0.000000 0.000000 0.000000 0.031481 0.000000 0.000000
# 5 0.000000 0.000000 0.000000 0.000000 0.032740 0.000000
# 6 0.000000 0.000000 0.000000 0.000000 0.000000 0.061968
#
#
# Mechanical properties :
#
#
# Convention : Reuss Voigt Hill
#
# Bulk Modulus (GPa) = 60.34706 61.90078 61.12392
# Shear Modulus (GPa) = 22.47844 24.23984 23.35914
#
# Velocity S-wave (km/s) = 3.57462 3.71203 3.64397
# Velocity P-wave (km/s) = 7.16531 7.31846 7.24229
#
# Compressibility (1/GPa) = 0.01657082
#
# Stress axis : x y z
#
# Youngs Moduli (GPa) = 62.54133 51.50113 54.82471
#
# Poissons Ratio (x) = 0.18631 0.38842
# Poissons Ratio (y) = 0.22625 0.42957
# Poissons Ratio (z) = 0.44310 0.40353
#
# Static dielectric constant tensor:
#      x y z
#    x 3.540240 0.000000 0.000000 
#    y 0.000000 3.056350 0.000000 
#    z 0.000000 0.000000 3.505150 
# 
# 
# High freq. dielectric constant tensor:
#      x y z
#    x 1.667700 0.000000 0.000000 
#    y 0.000000 1.650030 0.000000 
#    z 0.000000 0.000000 1.687420 
# 
# From -- ./inp_files/12049.got.cif
#   From: 2010.03.12/outbox.cif.g09.slc.cpg/sg63_7_cif.got.tgz:12049.got - 2010.04.10 19:34:48.
