data_PCOD8258072
_publ_section_title
;
Structure prediction by ZEFSAII (Michael W. Deem and Ramdas Pophale) SiO2 
 PCOD8258072
Probable space group: C M C M
;
_chemical_formula_sum "Si O2"
_cell_formula_units_Z 112
_cell_length_a 17.026239
_cell_length_b 14.476744
_cell_length_c 26.826892
_cell_angle_alpha 90.000000
_cell_angle_beta 90.000000
_cell_angle_gamma 90.000000
_cell_volume 6612.413149
_symmetry_space_group_name_H-M "C M C M"
_symmetry_group_IT_number 63
_symmetry_cell_setting 'orthorhombic'
loop_
_space_group_symop_operation_xyz
x,y,z
-x,-y,1/2+z
x,-y,-z
-x,y,1/2-z
-x,-y,-z
x,y,1/2-z
-x,y,z
x,-y,1/2+z
1/2+x,1/2+y,z
1/2-x,1/2-y,1/2+z
1/2+x,1/2-y,-z
1/2-x,1/2+y,1/2-z
1/2-x,1/2-y,-z
1/2+x,1/2+y,1/2-z
1/2-x,1/2+y,z
1/2+x,1/2-y,1/2+z
loop_
_atom_site_type_symbol
_atom_site_label
_atom_site_fract_x
_atom_site_fract_y
_atom_site_fract_z
Si Si1 0.588051 0.718934 0.805017
Si Si2 0.086718 0.000872 0.693540
Si Si3 0.587627 0.202737 0.499334
Si Si4 0.232087 0.636154 0.942317
Si Si5 0.675154 0.199518 0.101380
Si Si6 0.364447 0.595364 0.018250
Si Si7 0.285841 0.538682 0.385309
O O1 0.621484 0.746496 0.750000
O O2 0.500000 0.757918 0.810124
O O3 0.587584 0.610023 0.810324
O O4 0.638726 0.757785 0.849522
O O5 0.097491 0.966822 0.750000
O O6 0.000000 0.966914 0.674019
O O7 0.161910 0.963328 0.664177
O O8 0.500000 0.164385 0.507301
O O9 0.642520 0.148441 0.538940
O O10 0.611956 0.182306 0.442277
O O11 0.584447 0.313626 0.508406
O O12 0.257622 0.734786 0.921010
O O13 0.247151 0.559682 0.899956
O O14 0.281035 0.607414 0.990781
O O15 0.711799 0.104858 0.120900
O O16 0.347121 0.580997 0.075792
O O17 0.406887 0.500000 0.000000
#
# Coordination Sequence:
#
# PCOD8258072 Si02
#       7
#    16  16  16  16  16  16  16
#     4   9  18  34  54  77 105 131 161 214 273 311
#     4   9  19  35  54  80 108 129 159 213 275 320
#     4  11  21  34  50  73 109 143 174 214 260 304
#     4  10  19  36  50  73 106 142 173 208 252 301
#     4  11  19  34  53  76 103 137 180 210 251 307
#     4   9  18  32  51  73 101 133 172 214 254 302
#     4  11  19  32  58  75 101 140 174 209 251 307
#
# _framework density 16.937840999999999
#
# number of rings (size 3 to 8) (size 9 to 14) (size 15 to 20)
#    0.000    2.000    4.286    2.143    0.000    1.429 
#    0.000    2.143    0.000    0.000    0.000    0.000 
#    0.000    3.429    0.000    0.000    0.000    0.000 
#
# Total GULP energy -694002.036147 kJ/mol
# GULP energy per Si atom -12392.893503 kJ/mol
# Density = 1.689929 g / cm^3
# Si number density = 16.937841 Si / 1000 Ang^3
#
#
#
# Elastic Constant Matrix: (Units=GPa)
#
#
# Indices 1 2 3 4 5 6 
#
# 1 106.6875 28.9698 46.8779 0.0000 0.0000 0.0000
# 2 28.9698 53.4406 17.5941 0.0000 0.0000 0.0000
# 3 46.8779 17.5941 88.8278 0.0000 0.0000 0.0000
# 4 0.0000 0.0000 0.0000 18.8903 0.0000 0.0000
# 5 0.0000 0.0000 0.0000 0.0000 20.3110 0.0000
# 6 0.0000 0.0000 0.0000 0.0000 0.0000 6.7954
#
#
#
# Elastic Compliance Matrix: (Units=1/GPa)
#
#
# Indices 1 2 3 4 5 6 
#
# 1 0.013479 -0.005311 -0.006061 0.000000 0.000000 0.000000
# 2 -0.005311 0.022111 -0.001577 0.000000 0.000000 0.000000
# 3 -0.006061 -0.001577 0.014769 0.000000 0.000000 0.000000
# 4 0.000000 0.000000 0.000000 0.052937 0.000000 0.000000
# 5 0.000000 0.000000 0.000000 0.000000 0.049234 0.000000
# 6 0.000000 0.000000 0.000000 0.000000 0.000000 0.147159
#
#
# Mechanical properties :
#
#
# Convention : Reuss Voigt Hill
#
# Bulk Modulus (GPa) = 40.88289 48.42662 44.65475
# Shear Modulus (GPa) = 14.98175 19.56693 17.27434
#
# Velocity S-wave (km/s) = 2.97730 3.40254 3.19700
# Velocity P-wave (km/s) = 6.00071 6.63997 6.32842
#
# Compressibility (1/GPa) = 0.02446011
#
# Stress axis : x y z
#
# Youngs Moduli (GPa) = 74.19157 45.22728 67.71052
#
# Poissons Ratio (x) = 0.24021 0.41041
# Poissons Ratio (y) = 0.39404 0.10675
# Poissons Ratio (z) = 0.44969 0.07130
#
# Static dielectric constant tensor:
#      x y z
#    x 3.486430 0.000000 0.000000 
#    y 0.000000 3.221830 0.000000 
#    z 0.000000 0.000000 3.216190 
# 
# 
# High freq. dielectric constant tensor:
#      x y z
#    x 1.639280 0.000000 0.000000 
#    y 0.000000 1.641440 0.000000 
#    z 0.000000 0.000000 1.648520 
# 
# From -- ./inp_files/73539.got.cif
#   From: 2010.03.12/outbox.cif.g09.slc.cpg/sg63_37_cif.got.tgz:73539.got - 2010.04.10 19:34:48.
