data_PCOD8258549
_publ_section_title
;
Structure prediction by ZEFSAII (Michael W. Deem and Ramdas Pophale) SiO2 
 PCOD8258549
Probable space group: C M C M
;
_chemical_formula_sum "Si O2"
_cell_formula_units_Z 112
_cell_length_a 27.606932
_cell_length_b 15.144028
_cell_length_c 14.889761
_cell_angle_alpha 90.000000
_cell_angle_beta 90.000000
_cell_angle_gamma 90.000000
_cell_volume 6225.113530
_symmetry_space_group_name_H-M "C M C M"
_symmetry_group_IT_number 63
_symmetry_cell_setting 'orthorhombic'
loop_
_space_group_symop_operation_xyz
x,y,z
-x,-y,1/2+z
x,-y,-z
-x,y,1/2-z
-x,-y,-z
x,y,1/2-z
-x,y,z
x,-y,1/2+z
1/2+x,1/2+y,z
1/2-x,1/2-y,1/2+z
1/2+x,1/2-y,-z
1/2-x,1/2+y,1/2-z
1/2-x,1/2-y,-z
1/2+x,1/2+y,1/2-z
1/2-x,1/2+y,z
1/2+x,1/2-y,1/2+z
loop_
_atom_site_type_symbol
_atom_site_label
_atom_site_fract_x
_atom_site_fract_y
_atom_site_fract_z
Si Si1 0.689065 0.810443 0.645641
Si Si2 0.731558 0.838076 0.145321
Si Si3 0.641888 0.771865 0.470527
Si Si4 0.244989 0.030759 0.351868
Si Si5 0.850663 0.070663 0.432004
Si Si6 0.552005 0.569383 0.350081
Si Si7 0.554302 0.221268 0.649430
O O1 0.671318 0.817353 0.750000
O O2 0.722567 0.725117 0.632579
O O3 0.644497 0.802419 0.575048
O O4 0.717760 0.896656 0.611059
O O5 0.715991 0.839647 0.250000
O O6 0.687388 0.803237 0.086854
O O7 0.747048 0.933833 0.104652
O O8 0.640574 0.666180 0.473117
O O9 0.593432 0.812385 0.423901
O O10 0.258054 0.015994 0.250000
O O11 0.190625 0.071018 0.355892
O O12 0.901911 0.028758 0.400381
O O13 0.828363 0.000000 0.500000
O O14 0.552388 0.530626 0.250000
O O15 0.500000 0.544110 0.395574
O O16 0.557763 0.673968 0.346266
O O17 0.566117 0.184621 0.750000
O O18 0.500000 0.191298 0.620702
#
# Coordination Sequence:
#
# PCOD8258549 Si02
#       7
#    16  16  16  16  16  16  16
#     4  10  21  35  48  68 101 140 177 214 253 298
#     4  10  20  33  51  76 102 132 170 213 259 311
#     4  11  20  32  52  73  99 136 172 212 256 306
#     4  10  21  34  48  69 101 135 167 206 255 308
#     4  11  21  29  46  71  97 132 171 209 253 303
#     4   8  15  29  47  66  92 127 165 206 252 300
#     4   8  15  29  51  79 104 124 157 210 266 312
#
# _framework density 17.99164
#
# number of rings (size 3 to 8) (size 9 to 14) (size 15 to 20)
#    0.000    2.286    1.429    3.000    2.000    1.429 
#    0.000    0.714    0.000    0.429    0.000    2.000 
#    0.000    3.429    0.000    0.000    0.000    1.286 
#
# Total GULP energy -693823.608581 kJ/mol
# GULP energy per Si atom -12389.707296 kJ/mol
# Density = 1.795069 g / cm^3
# Si number density = 17.991640 Si / 1000 Ang^3
#
#
#
# Elastic Constant Matrix: (Units=GPa)
#
#
# Indices 1 2 3 4 5 6 
#
# 1 108.5812 17.8198 62.0067 0.0000 0.0000 0.0000
# 2 17.8198 71.8574 21.3599 0.0000 0.0000 0.0000
# 3 62.0067 21.3599 93.2301 0.0000 0.0000 0.0000
# 4 0.0000 0.0000 0.0000 14.8334 0.0000 0.0000
# 5 0.0000 0.0000 0.0000 0.0000 28.7701 0.0000
# 6 0.0000 0.0000 0.0000 0.0000 0.0000 13.0248
#
#
#
# Elastic Compliance Matrix: (Units=1/GPa)
#
#
# Indices 1 2 3 4 5 6 
#
# 1 0.014893 -0.000804 -0.009721 0.000000 0.000000 0.000000
# 2 -0.000804 0.014977 -0.002897 0.000000 0.000000 0.000000
# 3 -0.009721 -0.002897 0.017855 0.000000 0.000000 0.000000
# 4 0.000000 0.000000 0.000000 0.067415 0.000000 0.000000
# 5 0.000000 0.000000 0.000000 0.000000 0.034758 0.000000
# 6 0.000000 0.000000 0.000000 0.000000 0.000000 0.076777
#
#
# Mechanical properties :
#
#
# Convention : Reuss Voigt Hill
#
# Bulk Modulus (GPa) = 47.88828 52.89349 50.39089
# Shear Modulus (GPa) = 19.19541 22.82449 21.00995
#
# Velocity S-wave (km/s) = 3.26990 3.56563 3.42096
# Velocity P-wave (km/s) = 6.39774 6.81281 6.60853
#
# Compressibility (1/GPa) = 0.02088193
#
# Stress axis : x y z
#
# Youngs Moduli (GPa) = 67.14597 66.76979 56.00589
#
# Poissons Ratio (x) = 0.05366 0.54444
# Poissons Ratio (y) = 0.05396 0.16224
# Poissons Ratio (z) = 0.65273 0.19342
#
# Static dielectric constant tensor:
#      x y z
#    x 3.420690 0.000000 0.000000 
#    y 0.000000 3.337670 0.000000 
#    z 0.000000 0.000000 3.455310 
# 
# 
# High freq. dielectric constant tensor:
#      x y z
#    x 1.683320 0.000000 0.000000 
#    y 0.000000 1.667350 0.000000 
#    z 0.000000 0.000000 1.695260 
# 
# From -- ./inp_files/38686.got.cif
#   From: 2010.03.12/outbox.cif.g09.slc.cpg/sg63_20_cif.got.tgz:38686.got - 2010.04.10 19:34:48.
