data_PCOD8258598
_publ_section_title
;
Structure prediction by ZEFSAII (Michael W. Deem and Ramdas Pophale) SiO2 
 PCOD8258598
Probable space group: C M C M
;
_chemical_formula_sum "Si O2"
_cell_formula_units_Z 64
_cell_length_a 9.408032
_cell_length_b 41.025345
_cell_length_c 9.141995
_cell_angle_alpha 90.000000
_cell_angle_beta 90.000000
_cell_angle_gamma 90.000000
_cell_volume 3528.515319
_symmetry_space_group_name_H-M "C M C M"
_symmetry_group_IT_number 63
_symmetry_cell_setting 'orthorhombic'
loop_
_space_group_symop_operation_xyz
x,y,z
-x,-y,1/2+z
x,-y,-z
-x,y,1/2-z
-x,-y,-z
x,y,1/2-z
-x,y,z
x,-y,1/2+z
1/2+x,1/2+y,z
1/2-x,1/2-y,1/2+z
1/2+x,1/2-y,-z
1/2-x,1/2+y,1/2-z
1/2-x,1/2-y,-z
1/2+x,1/2+y,1/2-z
1/2-x,1/2+y,z
1/2+x,1/2-y,1/2+z
loop_
_atom_site_type_symbol
_atom_site_label
_atom_site_fract_x
_atom_site_fract_y
_atom_site_fract_z
Si Si1 0.333559 0.089314 0.579266
Si Si2 0.157617 0.849282 0.076282
Si Si3 0.663595 0.466577 0.921300
Si Si4 0.333927 0.722571 0.916790
O O1 0.299350 0.083514 0.750000
O O2 0.500000 0.089886 0.548196
O O3 0.269617 0.123664 0.523681
O O4 0.263883 0.061063 0.485107
O O5 0.152184 0.847278 0.250000
O O6 0.202453 0.813427 0.017940
O O7 0.000000 0.858584 0.017615
O O8 0.692770 0.470668 0.750000
O O9 0.500000 0.457378 0.953290
O O10 0.705267 0.500000 0.000000
O O11 0.284616 0.724296 0.750000
O O12 0.500000 0.729487 0.933032
O O13 0.250000 0.750000 0.000000
#
# Coordination Sequence:
#
# PCOD8258598 Si02
#       4
#    16  16  16  16
#     4  10  20  33  52  79 106 132 165 206 253 302
#     4   8  15  30  51  72  97 132 172 211 249 294
#     4  10  21  37  57  79 102 132 170 208 247 294
#     4   9  18  32  50  74 102 132 169 211 254 301
#
# _framework density 18.137941000000001
#
# number of rings (size 3 to 8) (size 9 to 14) (size 15 to 20)
#    0.000    2.750    0.000    3.000    0.000    5.000 
#    0.000    3.750    0.000    1.500    0.000    0.000 
#    0.000    0.000    0.000    0.000    0.000    0.000 
#
# Total GULP energy -396729.551100 kJ/mol
# GULP energy per Si atom -12397.798472 kJ/mol
# Density = 1.809666 g / cm^3
# Si number density = 18.137941 Si / 1000 Ang^3
#
#
#
# Elastic Constant Matrix: (Units=GPa)
#
#
# Indices 1 2 3 4 5 6 
#
# 1 98.4359 91.5338 50.1210 0.0000 0.0000 0.0000
# 2 91.5338 171.0487 62.4673 0.0000 0.0000 0.0000
# 3 50.1210 62.4673 65.2910 0.0000 0.0000 0.0000
# 4 0.0000 0.0000 0.0000 31.6904 0.0000 0.0000
# 5 0.0000 0.0000 0.0000 0.0000 27.6155 0.0000
# 6 0.0000 0.0000 0.0000 0.0000 0.0000 37.4765
#
#
#
# Elastic Compliance Matrix: (Units=1/GPa)
#
#
# Indices 1 2 3 4 5 6 
#
# 1 0.023314 -0.009130 -0.009162 0.000000 0.000000 0.000000
# 2 -0.009130 0.012562 -0.005010 0.000000 0.000000 0.000000
# 3 -0.009162 -0.005010 0.027142 0.000000 0.000000 0.000000
# 4 0.000000 0.000000 0.000000 0.031555 0.000000 0.000000
# 5 0.000000 0.000000 0.000000 0.000000 0.036212 0.000000
# 6 0.000000 0.000000 0.000000 0.000000 0.000000 0.026683
#
#
# Mechanical properties :
#
#
# Convention : Reuss Voigt Hill
#
# Bulk Modulus (GPa) = 60.92132 82.55774 71.73953
# Shear Modulus (GPa) = 23.86163 28.06672 25.96418
#
# Velocity S-wave (km/s) = 3.63101 3.93797 3.78760
# Velocity P-wave (km/s) = 7.15819 8.14201 7.66590
#
# Compressibility (1/GPa) = 0.01641461
#
# Stress axis : x y z
#
# Youngs Moduli (GPa) = 42.89335 79.60774 36.84336
#
# Poissons Ratio (x) = 0.72682 0.33755
# Poissons Ratio (y) = 0.39162 0.18457
# Poissons Ratio (z) = 0.39297 0.39880
#
# Static dielectric constant tensor:
#      x y z
#    x 3.342400 0.000000 0.000000 
#    y 0.000000 3.605060 0.000000 
#    z 0.000000 0.000000 3.096060 
# 
# 
# High freq. dielectric constant tensor:
#      x y z
#    x 1.700120 0.000000 0.000000 
#    y 0.000000 1.718660 0.000000 
#    z 0.000000 0.000000 1.673820 
# 
# From -- ./inp_files/16174.got.cif
#   From: 2010.03.12/outbox.cif.g09.slc.cpg/sg63_9_cif.got.tgz:16174.got - 2010.04.10 19:34:48.
