data_PCOD8258396
_publ_section_title
;
Structure prediction by ZEFSAII (Michael W. Deem and Ramdas Pophale) SiO2 
 PCOD8258396
Probable space group: C M C M
;
_chemical_formula_sum "Si O2"
_cell_formula_units_Z 88
_cell_length_a 30.152476
_cell_length_b 8.785940
_cell_length_c 18.800684
_cell_angle_alpha 90.000000
_cell_angle_beta 90.000000
_cell_angle_gamma 90.000000
_cell_volume 4980.636690
_symmetry_space_group_name_H-M "C M C M"
_symmetry_group_IT_number 63
_symmetry_cell_setting 'orthorhombic'
loop_
_space_group_symop_operation_xyz
x,y,z
-x,-y,1/2+z
x,-y,-z
-x,y,1/2-z
-x,-y,-z
x,y,1/2-z
-x,y,z
x,-y,1/2+z
1/2+x,1/2+y,z
1/2-x,1/2-y,1/2+z
1/2+x,1/2-y,-z
1/2-x,1/2+y,1/2-z
1/2-x,1/2-y,-z
1/2+x,1/2+y,1/2-z
1/2-x,1/2+y,z
1/2+x,1/2-y,1/2+z
loop_
_atom_site_type_symbol
_atom_site_label
_atom_site_fract_x
_atom_site_fract_y
_atom_site_fract_z
Si Si1 0.809770 0.728966 0.445616
Si Si2 0.449786 0.592963 0.428475
Si Si3 0.384765 0.131069 0.948423
Si Si4 0.049777 0.824933 0.332011
Si Si5 0.241088 0.000000 0.500000
Si Si6 0.628816 0.894972 0.666467
O O1 0.842264 0.703823 0.512905
O O2 0.789911 0.897823 0.449224
O O3 0.770621 0.605045 0.448786
O O4 0.834274 0.712958 0.369863
O O5 0.446109 0.500000 0.500000
O O6 0.500000 0.643894 0.412096
O O7 0.421152 0.744051 0.431685
O O8 0.431702 0.478107 0.368408
O O9 0.370299 0.058000 0.872927
O O10 0.404786 0.000000 0.000000
O O11 0.048893 0.864215 0.250000
O O12 0.080864 0.680855 0.347473
O O13 0.000000 0.786308 0.360382
O O14 0.639074 0.915169 0.750000
#
# Coordination Sequence:
#
# PCOD8258396 Si02
#       6
#    16  16  16  16   8  16
#     4  10  20  37  57  83 100 138 177 218 260 328
#     4  10  20  32  51  78 107 139 180 231 268 299
#     4  10  20  34  52  78 107 141 177 217 261 324
#     4   9  19  35  53  74 105 146 183 212 254 315
#     4  10  20  36  64  76 102 134 178 212 264 330
#     4  10  20  36  55  79 114 142 174 223 271 314
#
# _framework density 17.668424000000002
#
# number of rings (size 3 to 8) (size 9 to 14) (size 15 to 20)
#    0.000    2.182    2.727    2.182    3.818    1.818 
#    0.000    0.909    0.000    0.000    0.000    0.000 
#    0.000    0.000    0.000    0.000    0.000    0.000 
#
# Total GULP energy -545516.981665 kJ/mol
# GULP energy per Si atom -12398.113220 kJ/mol
# Density = 1.762821 g / cm^3
# Si number density = 17.668424 Si / 1000 Ang^3
#
#
#
# Elastic Constant Matrix: (Units=GPa)
#
#
# Indices 1 2 3 4 5 6 
#
# 1 76.6547 40.1267 45.7695 0.0000 0.0000 0.0000
# 2 40.1267 80.7438 37.4011 0.0000 0.0000 0.0000
# 3 45.7695 37.4011 102.8469 0.0000 0.0000 0.0000
# 4 0.0000 0.0000 0.0000 23.8138 0.0000 0.0000
# 5 0.0000 0.0000 0.0000 0.0000 31.8635 0.0000
# 6 0.0000 0.0000 0.0000 0.0000 0.0000 27.6109
#
#
#
# Elastic Compliance Matrix: (Units=1/GPa)
#
#
# Indices 1 2 3 4 5 6 
#
# 1 0.020801 -0.007275 -0.006612 0.000000 0.000000 0.000000
# 2 -0.007275 0.017438 -0.003104 0.000000 0.000000 0.000000
# 3 -0.006612 -0.003104 0.013794 0.000000 0.000000 0.000000
# 4 0.000000 0.000000 0.000000 0.041993 0.000000 0.000000
# 5 0.000000 0.000000 0.000000 0.000000 0.031384 0.000000
# 6 0.000000 0.000000 0.000000 0.000000 0.000000 0.036218
#
#
# Mechanical properties :
#
#
# Convention : Reuss Voigt Hill
#
# Bulk Modulus (GPa) = 55.39319 56.31555 55.85437
# Shear Modulus (GPa) = 24.79836 25.78753 25.29295
#
# Velocity S-wave (km/s) = 3.75045 3.82452 3.78767
# Velocity P-wave (km/s) = 7.08337 7.17254 7.12809
#
# Compressibility (1/GPa) = 0.01805276
#
# Stress axis : x y z
#
# Youngs Moduli (GPa) = 48.07353 57.34601 72.49388
#
# Poissons Ratio (x) = 0.41719 0.47930
# Poissons Ratio (y) = 0.34974 0.22501
# Poissons Ratio (z) = 0.31784 0.17800
#
# Static dielectric constant tensor:
#      x y z
#    x 3.477680 0.000000 0.000000 
#    y 0.000000 2.837980 0.000000 
#    z 0.000000 0.000000 3.218760 
# 
# 
# High freq. dielectric constant tensor:
#      x y z
#    x 1.684920 0.000000 0.000000 
#    y 0.000000 1.683220 0.000000 
#    z 0.000000 0.000000 1.672050 
# 
# From -- ./inp_files/58468.got.cif
#   From: 2010.03.12/outbox.cif.g09.slc.cpg/sg63_30_cif.got.tgz:58468.got - 2010.04.10 19:34:48.
