data_PCOD8258964
_publ_section_title
;
Structure prediction by ZEFSAII (Michael W. Deem and Ramdas Pophale) SiO2 
 PCOD8258964
Probable space group: C M C M
;
_chemical_formula_sum "Si O2"
_cell_formula_units_Z 96
_cell_length_a 14.211132
_cell_length_b 17.428497
_cell_length_c 22.296365
_cell_angle_alpha 90.000000
_cell_angle_beta 90.000000
_cell_angle_gamma 90.000000
_cell_volume 5522.334061
_symmetry_space_group_name_H-M "C M C M"
_symmetry_group_IT_number 63
_symmetry_cell_setting 'orthorhombic'
loop_
_space_group_symop_operation_xyz
x,y,z
-x,-y,1/2+z
x,-y,-z
-x,y,1/2-z
-x,-y,-z
x,y,1/2-z
-x,y,z
x,-y,1/2+z
1/2+x,1/2+y,z
1/2-x,1/2-y,1/2+z
1/2+x,1/2-y,-z
1/2-x,1/2+y,1/2-z
1/2-x,1/2-y,-z
1/2+x,1/2+y,1/2-z
1/2-x,1/2+y,z
1/2+x,1/2-y,1/2+z
loop_
_atom_site_type_symbol
_atom_site_label
_atom_site_fract_x
_atom_site_fract_y
_atom_site_fract_z
Si Si1 0.110591 0.798585 0.318921
Si Si2 0.606832 0.997461 0.319301
Si Si3 0.394940 0.449636 0.940772
Si Si4 0.746679 0.340332 0.509244
Si Si5 0.107478 0.650343 0.108930
Si Si6 0.226269 0.924812 0.384802
O O1 0.137187 0.783040 0.250000
O O2 0.145049 0.726862 0.358537
O O3 0.162224 0.873650 0.342138
O O4 0.000000 0.811887 0.326611
O O5 0.634209 0.999720 0.250000
O O6 0.500000 0.968807 0.329026
O O7 0.620096 0.082633 0.343997
O O8 0.674632 0.938674 0.352856
O O9 0.500000 0.435242 0.914668
O O10 0.329943 0.495358 0.893645
O O11 0.402586 0.500000 0.000000
O O12 0.348306 0.367081 0.956135
O O13 0.750000 0.250000 0.500000
O O14 0.835365 0.366798 0.548566
O O15 0.751814 0.383500 0.446493
O O16 0.000000 0.660343 0.089006
#
# Coordination Sequence:
#
# PCOD8258964 Si02
#       6
#    16  16  16  16  16  16
#     4  10  20  34  55  82 107 137 181 230 273 312
#     4  10  21  37  57  80 108 145 184 224 273 324
#     4   9  19  34  53  77 105 138 172 213 268 322
#     4  11  21  35  53  80 111 143 179 219 268 328
#     4  10  20  36  56  79 108 141 183 229 268 318
#     4  11  20  34  57  79 113 140 175 224 272 327
#
# _framework density 17.383953999999999
#
# number of rings (size 3 to 8) (size 9 to 14) (size 15 to 20)
#    0.000    1.833    3.333    1.500    0.000    4.000 
#    0.000    1.667    0.000    0.000    0.000    0.000 
#    0.000    0.000    0.000    0.000    0.000    0.000 
#
# Total GULP energy -595241.914431 kJ/mol
# GULP energy per Si atom -12400.873217 kJ/mol
# Density = 1.734439 g / cm^3
# Si number density = 17.383954 Si / 1000 Ang^3
#
#
#
# Elastic Constant Matrix: (Units=GPa)
#
#
# Indices 1 2 3 4 5 6 
#
# 1 98.2761 47.2763 67.3102 0.0000 0.0000 0.0000
# 2 47.2763 91.5775 32.6723 0.0000 0.0000 0.0000
# 3 67.3102 32.6723 81.8747 0.0000 0.0000 0.0000
# 4 0.0000 0.0000 0.0000 24.0405 0.0000 0.0000
# 5 0.0000 0.0000 0.0000 0.0000 32.6366 0.0000
# 6 0.0000 0.0000 0.0000 0.0000 0.0000 28.9648
#
#
#
# Elastic Compliance Matrix: (Units=1/GPa)
#
#
# Indices 1 2 3 4 5 6 
#
# 1 0.026573 -0.006907 -0.019089 0.000000 0.000000 0.000000
# 2 -0.006907 0.014528 -0.000119 0.000000 0.000000 0.000000
# 3 -0.019089 -0.000119 0.027955 0.000000 0.000000 0.000000
# 4 0.000000 0.000000 0.000000 0.041596 0.000000 0.000000
# 5 0.000000 0.000000 0.000000 0.000000 0.030640 0.000000
# 6 0.000000 0.000000 0.000000 0.000000 0.000000 0.034525
#
#
# Mechanical properties :
#
#
# Convention : Reuss Voigt Hill
#
# Bulk Modulus (GPa) = 59.43737 62.91621 61.17679
# Shear Modulus (GPa) = 21.39894 25.42635 23.41265
#
# Velocity S-wave (km/s) = 3.51231 3.82859 3.67385
# Velocity P-wave (km/s) = 7.12135 7.47093 7.29823
#
# Compressibility (1/GPa) = 0.01682443
#
# Stress axis : x y z
#
# Youngs Moduli (GPa) = 37.63248 68.83257 35.77205
#
# Poissons Ratio (x) = 0.47546 0.68287
# Poissons Ratio (y) = 0.25994 0.00425
# Poissons Ratio (z) = 0.71838 0.00817
#
# Static dielectric constant tensor:
#      x y z
#    x 3.633560 0.000000 0.000000 
#    y 0.000000 3.302410 0.000000 
#    z 0.000000 0.000000 3.433370 
# 
# 
# High freq. dielectric constant tensor:
#      x y z
#    x 1.674040 0.000000 0.000000 
#    y 0.000000 1.668710 0.000000 
#    z 0.000000 0.000000 1.669810 
# 
# From -- ./inp_files/54184.got.cif
#   From: 2010.03.12/outbox.cif.g09.slc.cpg/sg63_28_cif.got.tgz:54184.got - 2010.04.10 19:34:48.
