data_PCOD8258878
_publ_section_title
;
Structure prediction by ZEFSAII (Michael W. Deem and Ramdas Pophale) SiO2 
 PCOD8258878
Probable space group: C M C M
;
_chemical_formula_sum "Si O2"
_cell_formula_units_Z 96
_cell_length_a 12.049592
_cell_length_b 25.359166
_cell_length_c 17.640857
_cell_angle_alpha 90.000000
_cell_angle_beta 90.000000
_cell_angle_gamma 90.000000
_cell_volume 5390.474402
_symmetry_space_group_name_H-M "C M C M"
_symmetry_group_IT_number 63
_symmetry_cell_setting 'orthorhombic'
loop_
_space_group_symop_operation_xyz
x,y,z
-x,-y,1/2+z
x,-y,-z
-x,y,1/2-z
-x,-y,-z
x,y,1/2-z
-x,y,z
x,-y,1/2+z
1/2+x,1/2+y,z
1/2-x,1/2-y,1/2+z
1/2+x,1/2-y,-z
1/2-x,1/2+y,1/2-z
1/2-x,1/2-y,-z
1/2+x,1/2+y,1/2-z
1/2-x,1/2+y,z
1/2+x,1/2-y,1/2+z
loop_
_atom_site_type_symbol
_atom_site_label
_atom_site_fract_x
_atom_site_fract_y
_atom_site_fract_z
Si Si1 0.000000 0.456579 0.665846
Si Si2 0.871237 0.080252 0.160817
Si Si3 0.623073 0.218722 0.659801
Si Si4 0.500000 0.833177 0.833277
Si Si5 0.739353 0.183272 0.159074
Si Si6 0.629346 0.898885 0.338549
Si Si7 0.284444 0.001233 0.589451
O O1 0.108122 0.471738 0.619996
O O2 0.000000 0.483393 0.750000
O O3 0.000000 0.395071 0.676583
O O4 0.853347 0.073530 0.250000
O O5 0.806991 0.132148 0.130494
O O6 0.000000 0.086590 0.139819
O O7 0.824733 0.027791 0.120837
O O8 0.621475 0.220360 0.750000
O O9 0.500000 0.231130 0.629126
O O10 0.704427 0.263478 0.627416
O O11 0.659387 0.160229 0.633398
O O12 0.500000 0.806672 0.750000
O O13 0.613983 0.816305 0.875359
O O14 0.736222 0.181927 0.250000
O O15 0.653268 0.904818 0.250000
O O16 0.500000 0.911988 0.356030
O O17 0.710751 0.938118 0.383289
O O18 0.282265 0.000000 0.500000
#
# Coordination Sequence:
#
# PCOD8258878 Si02
#       7
#     8  16  16   8  16  16  16
#     4  11  19  33  53  77 105 133 167 211 259 307
#     4  10  20  34  54  77  99 131 172 214 260 306
#     4   8  14  25  44  71  98 126 164 210 251 287
#     4   9  16  25  45  75 103 129 154 195 263 311
#     4   9  15  26  46  75 103 124 158 211 260 302
#     4   9  17  30  50  73 100 137 174 210 250 295
#     4  12  23  33  50  77 107 138 170 214 262 312
#
# _framework density 17.809194000000002
#
# number of rings (size 3 to 8) (size 9 to 14) (size 15 to 20)
#    0.000    2.333    2.500    3.250    0.000    2.333 
#    0.000    0.000    1.833    1.000    0.000    0.000 
#    0.000    0.000    0.000    0.000    0.000    0.000 
#
# Total GULP energy -594976.701131 kJ/mol
# GULP energy per Si atom -12395.347940 kJ/mol
# Density = 1.776866 g / cm^3
# Si number density = 17.809194 Si / 1000 Ang^3
#
#
#
# Elastic Constant Matrix: (Units=GPa)
#
#
# Indices 1 2 3 4 5 6 
#
# 1 139.2104 81.5196 36.6719 0.0000 0.0000 0.0000
# 2 81.5196 142.4881 32.5303 0.0000 0.0000 0.0000
# 3 36.6719 32.5303 48.5537 0.0000 0.0000 0.0000
# 4 0.0000 0.0000 0.0000 12.7467 0.0000 0.0000
# 5 0.0000 0.0000 0.0000 0.0000 18.6641 0.0000
# 6 0.0000 0.0000 0.0000 0.0000 0.0000 42.5505
#
#
#
# Elastic Compliance Matrix: (Units=1/GPa)
#
#
# Indices 1 2 3 4 5 6 
#
# 1 0.011815 -0.005575 -0.005188 0.000000 0.000000 0.000000
# 2 -0.005575 0.010916 -0.003103 0.000000 0.000000 0.000000
# 3 -0.005188 -0.003103 0.026593 0.000000 0.000000 0.000000
# 4 0.000000 0.000000 0.000000 0.078452 0.000000 0.000000
# 5 0.000000 0.000000 0.000000 0.000000 0.053579 0.000000
# 6 0.000000 0.000000 0.000000 0.000000 0.000000 0.023502
#
#
# Mechanical properties :
#
#
# Convention : Reuss Voigt Hill
#
# Bulk Modulus (GPa) = 46.31412 70.18843 58.25127
# Shear Modulus (GPa) = 20.85194 26.76094 23.80644
#
# Velocity S-wave (km/s) = 3.42548 3.88061 3.66013
# Velocity P-wave (km/s) = 6.45813 7.71853 7.11629
#
# Compressibility (1/GPa) = 0.02159169
#
# Stress axis : x y z
#
# Youngs Moduli (GPa) = 84.64042 91.60868 37.60328
#
# Poissons Ratio (x) = 0.51070 0.19510
# Poissons Ratio (y) = 0.47186 0.11668
# Poissons Ratio (z) = 0.43915 0.28426
#
# Static dielectric constant tensor:
#      x y z
#    x 3.416270 0.000000 0.000000 
#    y 0.000000 3.563950 0.000000 
#    z 0.000000 0.000000 2.787680 
# 
# 
# High freq. dielectric constant tensor:
#      x y z
#    x 1.681510 0.000000 0.000000 
#    y 0.000000 1.699410 0.000000 
#    z 0.000000 0.000000 1.635210 
# 
# From -- ./inp_files/42732.got.cif
#   From: 2010.03.12/outbox.cif.g09.slc.cpg/sg63_22_cif.got.tgz:42732.got - 2010.04.10 19:34:48.
