data_PCOD8258794
_publ_section_title
;
Structure prediction by ZEFSAII (Michael W. Deem and Ramdas Pophale) SiO2 
 PCOD8258794
Probable space group: C M C M
;
_chemical_formula_sum "Si O2"
_cell_formula_units_Z 64
_cell_length_a 7.596246
_cell_length_b 48.095120
_cell_length_c 9.679423
_cell_angle_alpha 90.000000
_cell_angle_beta 90.000000
_cell_angle_gamma 90.000000
_cell_volume 3536.303271
_symmetry_space_group_name_H-M "C M C M"
_symmetry_group_IT_number 63
_symmetry_cell_setting 'orthorhombic'
loop_
_space_group_symop_operation_xyz
x,y,z
-x,-y,1/2+z
x,-y,-z
-x,y,1/2-z
-x,-y,-z
x,y,1/2-z
-x,y,z
x,-y,1/2+z
1/2+x,1/2+y,z
1/2-x,1/2-y,1/2+z
1/2+x,1/2-y,-z
1/2-x,1/2+y,1/2-z
1/2-x,1/2-y,-z
1/2+x,1/2+y,1/2-z
1/2-x,1/2+y,z
1/2+x,1/2-y,1/2+z
loop_
_atom_site_type_symbol
_atom_site_label
_atom_site_fract_x
_atom_site_fract_y
_atom_site_fract_z
Si Si1 0.709087 0.523989 0.903266
Si Si2 0.500000 0.874440 0.414513
Si Si3 0.500000 0.819239 0.910044
Si Si4 0.700526 0.723869 0.091495
Si Si5 0.805067 0.914867 0.414310
O O1 0.789120 0.520140 0.750000
O O2 0.500000 0.521450 0.896141
O O3 0.757989 0.554495 0.964328
O O4 0.790763 0.500000 0.000000
O O5 0.500000 0.869764 0.250000
O O6 0.500000 0.845334 0.490385
O O7 0.671011 0.891381 0.465389
O O8 0.500000 0.828509 0.750000
O O9 0.325963 0.801730 0.946592
O O10 0.729211 0.732772 0.250000
O O11 0.500000 0.714548 0.063351
O O12 0.750000 0.750000 0.000000
O O13 0.811222 0.915912 0.250000
O O14 0.000000 0.907747 0.472642
#
# Coordination Sequence:
#
# PCOD8258794 Si02
#       5
#    16   8   8  16  16
#     4   8  13  23  41  64  90 120 153 195 248 300
#     4  10  20  34  53  73  93 128 178 214 238 288
#     4  10  22  38  52  75 111 140 161 204 260 298
#     4  10  20  35  57  82 108 138 169 201 245 299
#     4   8  15  29  48  69  95 126 162 208 255 292
#
# _framework density 18.097996999999999
#
# number of rings (size 3 to 8) (size 9 to 14) (size 15 to 20)
#    0.000    3.000    1.250    1.500    0.000    2.000 
#    0.000    1.875    0.000    1.500    0.000    0.000 
#    0.000    0.000    0.000    0.000    0.000    0.000 
#
# Total GULP energy -396657.585511 kJ/mol
# GULP energy per Si atom -12395.549547 kJ/mol
# Density = 1.805681 g / cm^3
# Si number density = 18.097997 Si / 1000 Ang^3
#
#
#
# Elastic Constant Matrix: (Units=GPa)
#
#
# Indices 1 2 3 4 5 6 
#
# 1 123.1789 81.0172 38.7829 0.0000 0.0000 0.0000
# 2 81.0172 167.7431 69.7120 0.0000 0.0000 0.0000
# 3 38.7829 69.7120 60.4947 0.0000 0.0000 0.0000
# 4 0.0000 0.0000 0.0000 37.2191 0.0000 0.0000
# 5 0.0000 0.0000 0.0000 0.0000 14.3272 0.0000
# 6 0.0000 0.0000 0.0000 0.0000 0.0000 -227.5470
#
#
#
# Elastic Compliance Matrix: (Units=1/GPa)
#
#
# Indices 1 2 3 4 5 6 
#
# 1 0.012016 -0.004994 -0.001949 0.000000 0.000000 0.000000
# 2 -0.004994 0.013516 -0.012374 0.000000 0.000000 0.000000
# 3 -0.001949 -0.012374 0.032039 0.000000 0.000000 0.000000
# 4 0.000000 0.000000 0.000000 0.026868 0.000000 0.000000
# 5 0.000000 0.000000 0.000000 0.000000 0.069798 0.000000
# 6 0.000000 0.000000 0.000000 0.000000 0.000000 -0.004395
#
#
# Mechanical properties :
#
#
# Convention : Reuss Voigt Hill
#
# Bulk Modulus (GPa) = 52.80351 81.16009 66.98180
# Shear Modulus (GPa) = 25.66908 -24.40650 0.63129
#
# Velocity S-wave (km/s) = 3.77017 -3.67628 0.59125
# Velocity P-wave (km/s) = 6.94205 5.18865 6.12838
#
# Compressibility (1/GPa) = 0.01893814
#
# Stress axis : x y z
#
# Youngs Moduli (GPa) = 83.21957 73.98829 31.21224
#
# Poissons Ratio (x) = 0.36948 0.06084
# Poissons Ratio (y) = 0.41557 0.38620
# Poissons Ratio (z) = 0.16220 0.91549
#
# Static dielectric constant tensor:
#      x y z
#    x 3.414450 0.000000 0.000000 
#    y 0.000000 3.338910 0.000000 
#    z 0.000000 0.000000 3.211680 
# 
# 
# High freq. dielectric constant tensor:
#      x y z
#    x 1.705680 0.000000 0.000000 
#    y 0.000000 1.697340 0.000000 
#    z 0.000000 0.000000 1.667940 
# 
# From -- ./inp_files/16267.got.cif
#   From: 2010.03.12/outbox.cif.g09.slc.cpg/sg63_9_cif.got.tgz:16267.got - 2010.04.10 19:34:48.
