data_PCOD8258217
_publ_section_title
;
Structure prediction by ZEFSAII (Michael W. Deem and Ramdas Pophale) SiO2 
 PCOD8258217
Probable space group: C M C M
;
_chemical_formula_sum "Si O2"
_cell_formula_units_Z 96
_cell_length_a 24.325441
_cell_length_b 24.210202
_cell_length_c 9.227664
_cell_angle_alpha 90.000000
_cell_angle_beta 90.000000
_cell_angle_gamma 90.000000
_cell_volume 5434.391320
_symmetry_space_group_name_H-M "C M C M"
_symmetry_group_IT_number 63
_symmetry_cell_setting 'orthorhombic'
loop_
_space_group_symop_operation_xyz
x,y,z
-x,-y,1/2+z
x,-y,-z
-x,y,1/2-z
-x,-y,-z
x,y,1/2-z
-x,y,z
x,-y,1/2+z
1/2+x,1/2+y,z
1/2-x,1/2-y,1/2+z
1/2+x,1/2-y,-z
1/2-x,1/2+y,1/2-z
1/2-x,1/2-y,-z
1/2+x,1/2+y,1/2-z
1/2-x,1/2+y,z
1/2+x,1/2-y,1/2+z
loop_
_atom_site_type_symbol
_atom_site_label
_atom_site_fract_x
_atom_site_fract_y
_atom_site_fract_z
Si Si1 0.261252 0.448139 0.412251
Si Si2 0.111454 0.048649 0.593402
Si Si3 0.334334 0.753981 0.583462
Si Si4 0.060930 0.864822 0.589897
Si Si5 0.060804 0.264662 0.415863
Si Si6 0.732378 0.665348 0.417738
O O1 0.234060 0.500000 0.500000
O O2 0.234722 0.442596 0.250000
O O3 0.324544 0.462354 0.390807
O O4 0.254261 0.391730 0.501776
O O5 0.082852 0.048440 0.750000
O O6 0.103067 0.108164 0.521379
O O7 0.083563 0.000000 0.500000
O O8 0.344219 0.736544 0.750000
O O9 0.389337 0.783739 0.519507
O O10 0.317749 0.698962 0.492954
O O11 0.287260 0.799134 0.570551
O O12 0.082457 0.879161 0.750000
O O13 0.058659 0.800378 0.565388
O O14 0.000000 0.889478 0.566115
O O15 0.073446 0.281815 0.250000
O O16 0.000000 0.288308 0.460789
O O17 0.716243 0.654410 0.250000
#
# Coordination Sequence:
#
# PCOD8258217 Si02
#       6
#    16  16  16  16  16  16
#     4  10  20  33  49  69  92 119 153 191 233 282
#     4  10  20  31  43  59  78 104 140 181 224 268
#     4  10  20  32  48  72  99 128 162 199 241 286
#     4   9  18  31  44  58  78 106 141 181 224 267
#     4   9  18  32  49  68  91 121 154 188 231 282
#     4  10  20  33  49  70  98 130 162 198 240 286
#
# _framework density 17.665272000000002
#
# number of rings (size 3 to 8) (size 9 to 14) (size 15 to 20)
#    0.000    2.333    0.000    4.000    0.000    8.333 
#    0.000    1.667    0.000    0.000    0.000    0.000 
#    0.000    0.667    0.000    2.167    0.000    3.167 
#
# Total GULP energy -594903.310293 kJ/mol
# GULP energy per Si atom -12393.818964 kJ/mol
# Density = 1.762506 g / cm^3
# Si number density = 17.665272 Si / 1000 Ang^3
#
#
#
# Elastic Constant Matrix: (Units=GPa)
#
#
# Indices 1 2 3 4 5 6 
#
# 1 60.0177 -4.7618 22.8664 0.0000 0.0000 0.0000
# 2 -4.7618 54.8766 30.5605 0.0000 0.0000 0.0000
# 3 22.8664 30.5605 127.0303 0.0000 0.0000 0.0000
# 4 0.0000 0.0000 0.0000 26.6748 0.0000 0.0000
# 5 0.0000 0.0000 0.0000 0.0000 25.4039 0.0000
# 6 0.0000 0.0000 0.0000 0.0000 0.0000 15.3407
#
#
#
# Elastic Compliance Matrix: (Units=1/GPa)
#
#
# Indices 1 2 3 4 5 6 
#
# 1 0.018627 0.004023 -0.004321 0.000000 0.000000 0.000000
# 2 0.004023 0.021910 -0.005995 0.000000 0.000000 0.000000
# 3 -0.004321 -0.005995 0.010092 0.000000 0.000000 0.000000
# 4 0.000000 0.000000 0.000000 0.037489 0.000000 0.000000
# 5 0.000000 0.000000 0.000000 0.000000 0.039364 0.000000
# 6 0.000000 0.000000 0.000000 0.000000 0.000000 0.065186
#
#
# Mechanical properties :
#
#
# Convention : Reuss Voigt Hill
#
# Bulk Modulus (GPa) = 26.28613 37.69499 31.99056
# Shear Modulus (GPa) = 22.94248 26.36785 24.65517
#
# Velocity S-wave (km/s) = 3.60770 3.86766 3.73994
# Velocity P-wave (km/s) = 5.68036 6.42883 6.06615
#
# Compressibility (1/GPa) = 0.03804287
#
# Stress axis : x y z
#
# Youngs Moduli (GPa) = 53.68526 45.64031 99.08620
#
# Poissons Ratio (x) = -0.18359 0.42813
# Poissons Ratio (y) = -0.21595 0.59405
# Poissons Ratio (z) = 0.23196 0.27362
#
# Static dielectric constant tensor:
#      x y z
#    x 4.172520 0.000000 0.000000 
#    y 0.000000 2.975690 0.000000 
#    z 0.000000 0.000000 3.673690 
# 
# 
# High freq. dielectric constant tensor:
#      x y z
#    x 1.657230 0.000000 0.000000 
#    y 0.000000 1.649520 0.000000 
#    z 0.000000 0.000000 1.699670 
# 
# From -- ./inp_files/10402.got.cif
#   From: 2010.03.12/outbox.cif.g09.slc.cpg/sg63_6_cif.got.tgz:10402.got - 2010.04.10 19:34:48.
