data_PCOD8258382
_publ_section_title
;
Structure prediction by ZEFSAII (Michael W. Deem and Ramdas Pophale) SiO2 
 PCOD8258382
Probable space group: C M C M
;
_chemical_formula_sum "Si O2"
_cell_formula_units_Z 96
_cell_length_a 24.424688
_cell_length_b 9.345536
_cell_length_c 24.807262
_cell_angle_alpha 90.000000
_cell_angle_beta 90.000000
_cell_angle_gamma 90.000000
_cell_volume 5662.550302
_symmetry_space_group_name_H-M "C M C M"
_symmetry_group_IT_number 63
_symmetry_cell_setting 'orthorhombic'
loop_
_space_group_symop_operation_xyz
x,y,z
-x,-y,1/2+z
x,-y,-z
-x,y,1/2-z
-x,-y,-z
x,y,1/2-z
-x,y,z
x,-y,1/2+z
1/2+x,1/2+y,z
1/2-x,1/2-y,1/2+z
1/2+x,1/2-y,-z
1/2-x,1/2+y,1/2-z
1/2-x,1/2-y,-z
1/2+x,1/2+y,1/2-z
1/2-x,1/2+y,z
1/2+x,1/2-y,1/2+z
loop_
_atom_site_type_symbol
_atom_site_label
_atom_site_fract_x
_atom_site_fract_y
_atom_site_fract_z
Si Si1 0.779780 0.454116 0.810878
Si Si2 0.178113 0.946459 0.627501
Si Si3 0.563260 0.929631 0.687833
Si Si4 0.769603 0.372326 0.961522
Si Si5 0.362962 0.188727 0.687424
Si Si6 0.651598 0.237671 0.123309
O O1 0.796395 0.444450 0.750000
O O2 0.715605 0.473392 0.819913
O O3 0.812685 0.590648 0.834132
O O4 0.800108 0.303372 0.835227
O O5 0.219294 0.910026 0.578625
O O6 0.135602 0.822152 0.645481
O O7 0.144571 0.091467 0.615918
O O8 0.573954 0.880793 0.750000
O O9 0.500000 0.919698 0.672679
O O10 0.594760 0.827657 0.645404
O O11 0.581974 0.094900 0.681217
O O12 0.826743 0.329534 0.932766
O O13 0.785994 0.500000 0.000000
O O14 0.750000 0.250000 0.000000
O O15 0.355488 0.238258 0.750000
#
# Coordination Sequence:
#
# PCOD8258382 Si02
#       6
#    16  16  16  16  16  16
#     4   9  17  28  43  67 104 140 164 192 240 313
#     4  11  20  29  46  75 106 134 168 208 257 307
#     4   9  19  37  57  75 100 137 179 220 262 311
#     4  11  22  36  51  77 109 143 175 208 255 312
#     4   9  18  30  47  72 101 136 171 205 251 308
#     4  10  20  32  50  76 101 134 174 214 257 306
#
# _framework density 16.953492000000001
#
# number of rings (size 3 to 8) (size 9 to 14) (size 15 to 20)
#    0.000    2.167    1.667    4.000    4.667    4.000 
#    0.000    0.833    0.000    2.500    0.000    1.167 
#    0.000    0.000    0.000    0.000    0.000    0.000 
#
# Total GULP energy -594681.574283 kJ/mol
# GULP energy per Si atom -12389.199464 kJ/mol
# Density = 1.691491 g / cm^3
# Si number density = 16.953492 Si / 1000 Ang^3
#
#
#
# Elastic Constant Matrix: (Units=GPa)
#
#
# Indices 1 2 3 4 5 6 
#
# 1 99.0929 39.2030 38.7419 0.0000 0.0000 0.0000
# 2 39.2030 120.6543 51.6576 0.0000 0.0000 0.0000
# 3 38.7419 51.6576 73.8605 0.0000 0.0000 0.0000
# 4 0.0000 0.0000 0.0000 30.6164 0.0000 0.0000
# 5 0.0000 0.0000 0.0000 0.0000 23.2061 0.0000
# 6 0.0000 0.0000 0.0000 0.0000 0.0000 14.3607
#
#
#
# Elastic Compliance Matrix: (Units=1/GPa)
#
#
# Indices 1 2 3 4 5 6 
#
# 1 0.012981 -0.001859 -0.005508 0.000000 0.000000 0.000000
# 2 -0.001859 0.012097 -0.007485 0.000000 0.000000 0.000000
# 3 -0.005508 -0.007485 0.021664 0.000000 0.000000 0.000000
# 4 0.000000 0.000000 0.000000 0.032662 0.000000 0.000000
# 5 0.000000 0.000000 0.000000 0.000000 0.043092 0.000000
# 6 0.000000 0.000000 0.000000 0.000000 0.000000 0.069634
#
#
# Mechanical properties :
#
#
# Convention : Reuss Voigt Hill
#
# Bulk Modulus (GPa) = 58.70176 61.42365 60.06270
# Shear Modulus (GPa) = 21.97661 24.57032 23.27346
#
# Velocity S-wave (km/s) = 3.60431 3.81107 3.70913
# Velocity P-wave (km/s) = 7.21261 7.46157 7.33814
#
# Compressibility (1/GPa) = 0.01703526
#
# Stress axis : x y z
#
# Youngs Moduli (GPa) = 77.03749 82.66451 46.16055
#
# Poissons Ratio (x) = 0.15370 0.25427
# Poissons Ratio (y) = 0.14324 0.34553
# Poissons Ratio (z) = 0.42435 0.61877
#
# Static dielectric constant tensor:
#      x y z
#    x 2.896430 0.000000 0.000000 
#    y 0.000000 3.279830 0.000000 
#    z 0.000000 0.000000 3.238220 
# 
# 
# High freq. dielectric constant tensor:
#      x y z
#    x 1.612060 0.000000 0.000000 
#    y 0.000000 1.660090 0.000000 
#    z 0.000000 0.000000 1.647450 
# 
# From -- ./inp_files/64959.got.cif
#   From: 2010.03.12/outbox.cif.g09.slc.cpg/sg63_33_cif.got.tgz:64959.got - 2010.04.10 19:34:48.
