data_PCOD8258294
_publ_section_title
;
Structure prediction by ZEFSAII (Michael W. Deem and Ramdas Pophale) SiO2 
 PCOD8258294
Probable space group: C M C M
;
_chemical_formula_sum "Si O2"
_cell_formula_units_Z 80
_cell_length_a 13.570697
_cell_length_b 20.962234
_cell_length_c 16.905857
_cell_angle_alpha 90.000000
_cell_angle_beta 90.000000
_cell_angle_gamma 90.000000
_cell_volume 4809.245084
_symmetry_space_group_name_H-M "C M C M"
_symmetry_group_IT_number 63
_symmetry_cell_setting 'orthorhombic'
loop_
_space_group_symop_operation_xyz
x,y,z
-x,-y,1/2+z
x,-y,-z
-x,y,1/2-z
-x,-y,-z
x,y,1/2-z
-x,y,z
x,-y,1/2+z
1/2+x,1/2+y,z
1/2-x,1/2-y,1/2+z
1/2+x,1/2-y,-z
1/2-x,1/2+y,1/2-z
1/2-x,1/2-y,-z
1/2+x,1/2+y,1/2-z
1/2-x,1/2+y,z
1/2+x,1/2-y,1/2+z
loop_
_atom_site_type_symbol
_atom_site_label
_atom_site_fract_x
_atom_site_fract_y
_atom_site_fract_z
Si Si1 0.389480 0.210656 0.479090
Si Si2 0.612177 0.881854 0.660403
Si Si3 0.269663 0.456798 0.928090
Si Si4 0.301936 0.654703 0.962566
Si Si5 0.385326 0.438717 0.342101
O O1 0.500000 0.196382 0.509825
O O2 0.372948 0.181861 0.391473
O O3 0.374725 0.286215 0.474394
O O4 0.311997 0.178303 0.539424
O O5 0.642952 0.864739 0.750000
O O6 0.500000 0.906040 0.656243
O O7 0.678372 0.939728 0.628195
O O8 0.352160 0.493752 0.878231
O O9 0.228474 0.500000 0.000000
O O10 0.319972 0.393307 0.964023
O O11 0.325039 0.619696 0.880325
O O12 0.361816 0.438189 0.250000
O O13 0.500000 0.429519 0.360436
#
# Coordination Sequence:
#
# PCOD8258294 Si02
#       5
#    16  16  16  16  16
#     4   9  17  30  48  70  94 120 154 191 227 270
#     4   9  17  29  46  68  93 120 150 186 227 269
#     4   9  18  31  47  67  92 121 153 188 224 267
#     4   9  18  31  48  70  92 121 154 187 230 271
#     4  10  20  32  47  68  93 120 151 189 231 274
#
# _framework density 16.634627999999999
#
# number of rings (size 3 to 8) (size 9 to 14) (size 15 to 20)
#    0.000    2.800    0.000    1.200    0.000    5.600 
#    0.000    5.000    0.000    1.800    0.000    0.000 
#    0.000    0.000    0.000    0.000    0.000    0.000 
#
# Total GULP energy -495958.106753 kJ/mol
# GULP energy per Si atom -12398.952669 kJ/mol
# Density = 1.659677 g / cm^3
# Si number density = 16.634628 Si / 1000 Ang^3
#
#
#
# Elastic Constant Matrix: (Units=GPa)
#
#
# Indices 1 2 3 4 5 6 
#
# 1 94.8222 49.9266 59.9497 0.0000 0.0000 0.0000
# 2 49.9266 108.3069 51.9626 0.0000 0.0000 0.0000
# 3 59.9497 51.9626 102.2233 0.0000 0.0000 0.0000
# 4 0.0000 0.0000 0.0000 15.4936 0.0000 0.0000
# 5 0.0000 0.0000 0.0000 0.0000 26.3168 0.0000
# 6 0.0000 0.0000 0.0000 0.0000 0.0000 24.2462
#
#
#
# Elastic Compliance Matrix: (Units=1/GPa)
#
#
# Indices 1 2 3 4 5 6 
#
# 1 0.018167 -0.004315 -0.008461 0.000000 0.000000 0.000000
# 2 -0.004315 0.013236 -0.004197 0.000000 0.000000 0.000000
# 3 -0.008461 -0.004197 0.016878 0.000000 0.000000 0.000000
# 4 0.000000 0.000000 0.000000 0.064543 0.000000 0.000000
# 5 0.000000 0.000000 0.000000 0.000000 0.037999 0.000000
# 6 0.000000 0.000000 0.000000 0.000000 0.000000 0.041244
#
#
# Mechanical properties :
#
#
# Convention : Reuss Voigt Hill
#
# Bulk Modulus (GPa) = 69.76272 69.89224 69.82748
# Shear Modulus (GPa) = 21.66454 22.77889 22.22172
#
# Velocity S-wave (km/s) = 3.61276 3.70451 3.65892
# Velocity P-wave (km/s) = 7.70922 7.77208 7.74071
#
# Compressibility (1/GPa) = 0.01433430
#
# Stress axis : x y z
#
# Youngs Moduli (GPa) = 55.04343 75.55076 59.24849
#
# Poissons Ratio (x) = 0.32604 0.50129
# Poissons Ratio (y) = 0.23754 0.24869
# Poissons Ratio (z) = 0.46571 0.31712
#
# Static dielectric constant tensor:
#      x y z
#    x 3.159870 0.000000 0.000000 
#    y 0.000000 3.206470 0.000000 
#    z 0.000000 0.000000 3.113200 
# 
# 
# High freq. dielectric constant tensor:
#      x y z
#    x 1.639540 0.000000 0.000000 
#    y 0.000000 1.645560 0.000000 
#    z 0.000000 0.000000 1.630120 
# 
# From -- ./inp_files/31661.got.cif
#   From: 2010.03.12/outbox.cif.g09.slc.cpg/sg63_16_cif.got.tgz:31661.got - 2010.04.10 19:34:48.
