data_PCOD8258326
_publ_section_title
;
Structure prediction by ZEFSAII (Michael W. Deem and Ramdas Pophale) SiO2 
 PCOD8258326
Probable space group: C M C M
;
_chemical_formula_sum "Si O2"
_cell_formula_units_Z 80
_cell_length_a 27.743879
_cell_length_b 17.583866
_cell_length_c 9.072314
_cell_angle_alpha 90.000000
_cell_angle_beta 90.000000
_cell_angle_gamma 90.000000
_cell_volume 4425.879854
_symmetry_space_group_name_H-M "C M C M"
_symmetry_group_IT_number 63
_symmetry_cell_setting 'orthorhombic'
loop_
_space_group_symop_operation_xyz
x,y,z
-x,-y,1/2+z
x,-y,-z
-x,y,1/2-z
-x,-y,-z
x,y,1/2-z
-x,y,z
x,-y,1/2+z
1/2+x,1/2+y,z
1/2-x,1/2-y,1/2+z
1/2+x,1/2-y,-z
1/2-x,1/2+y,1/2-z
1/2-x,1/2-y,-z
1/2+x,1/2+y,1/2-z
1/2-x,1/2+y,z
1/2+x,1/2-y,1/2+z
loop_
_atom_site_type_symbol
_atom_site_label
_atom_site_fract_x
_atom_site_fract_y
_atom_site_fract_z
Si Si1 0.214496 0.921763 0.575845
Si Si2 0.443067 0.927772 0.414266
Si Si3 0.220993 0.684742 0.920472
Si Si4 0.445172 0.226243 0.077702
Si Si5 0.861852 0.791739 0.917209
O O1 0.221475 0.931670 0.750000
O O2 0.265397 0.893668 0.504209
O O3 0.172729 0.861249 0.536917
O O4 0.198981 0.000000 0.500000
O O5 0.420713 0.924095 0.250000
O O6 0.500000 0.937772 0.403809
O O7 0.429719 0.851611 0.500088
O O8 0.420603 0.000000 0.500000
O O9 0.236553 0.678706 0.750000
O O10 0.165155 0.709804 0.933949
O O11 0.250000 0.750000 0.000000
O O12 0.438681 0.214671 0.250000
O O13 0.500000 0.249467 0.038145
O O14 0.409252 0.291953 0.020007
O O15 0.879100 0.803163 0.750000
#
# Coordination Sequence:
#
# PCOD8258326 Si02
#       5
#    16  16  16  16  16
#     4  10  20  34  54  80 107 135 168 206 253 307
#     4   9  16  27  44  64  88 119 155 198 246 293
#     4   9  17  31  51  75 102 130 162 200 245 299
#     4  10  20  32  48  72 100 133 175 218 258 301
#     4   9  19  34  52  75 102 134 171 208 250 301
#
# _framework density 18.075503000000001
#
# number of rings (size 3 to 8) (size 9 to 14) (size 15 to 20)
#    0.000    2.600    0.000    3.600    0.000    8.400 
#    0.000    1.000    0.000    5.400    0.000    0.000 
#    0.000    0.000    0.000    0.000    0.000    0.000 
#
# Total GULP energy -495793.200334 kJ/mol
# GULP energy per Si atom -12394.830008 kJ/mol
# Density = 1.803436 g / cm^3
# Si number density = 18.075503 Si / 1000 Ang^3
#
#
#
# Elastic Constant Matrix: (Units=GPa)
#
#
# Indices 1 2 3 4 5 6 
#
# 1 70.6003 41.2807 50.9610 0.0000 0.0000 0.0000
# 2 41.2807 91.9929 54.0033 0.0000 0.0000 0.0000
# 3 50.9610 54.0033 127.4326 0.0000 0.0000 0.0000
# 4 0.0000 0.0000 0.0000 34.0614 0.0000 0.0000
# 5 0.0000 0.0000 0.0000 0.0000 28.4158 0.0000
# 6 0.0000 0.0000 0.0000 0.0000 0.0000 19.0188
#
#
#
# Elastic Compliance Matrix: (Units=1/GPa)
#
#
# Indices 1 2 3 4 5 6 
#
# 1 0.022415 -0.006385 -0.006258 0.000000 0.000000 0.000000
# 2 -0.006385 0.016289 -0.004350 0.000000 0.000000 0.000000
# 3 -0.006258 -0.004350 0.012193 0.000000 0.000000 0.000000
# 4 0.000000 0.000000 0.000000 0.029359 0.000000 0.000000
# 5 0.000000 0.000000 0.000000 0.000000 0.035192 0.000000
# 6 0.000000 0.000000 0.000000 0.000000 0.000000 0.052580
#
#
# Mechanical properties :
#
#
# Convention : Reuss Voigt Hill
#
# Bulk Modulus (GPa) = 59.12938 64.72397 61.92667
# Shear Modulus (GPa) = 24.07916 25.88459 24.98187
#
# Velocity S-wave (km/s) = 3.65381 3.78832 3.72167
# Velocity P-wave (km/s) = 7.11224 7.41758 7.26651
#
# Compressibility (1/GPa) = 0.01691207
#
# Stress axis : x y z
#
# Youngs Moduli (GPa) = 44.61382 61.39198 82.01282
#
# Poissons Ratio (x) = 0.39196 0.51324
# Poissons Ratio (y) = 0.28484 0.35673
# Poissons Ratio (z) = 0.27920 0.26703
#
# Static dielectric constant tensor:
#      x y z
#    x 3.172390 0.000000 0.000000 
#    y 0.000000 3.243200 0.000000 
#    z 0.000000 0.000000 3.613660 
# 
# 
# High freq. dielectric constant tensor:
#      x y z
#    x 1.675440 0.000000 0.000000 
#    y 0.000000 1.677490 0.000000 
#    z 0.000000 0.000000 1.717670 
# 
# From -- ./inp_files/12043.got.cif
#   From: 2010.03.12/outbox.cif.g09.slc.cpg/sg63_7_cif.got.tgz:12043.got - 2010.04.10 19:34:48.
