data_PCOD8258146
_publ_section_title
;
Structure prediction by ZEFSAII (Michael W. Deem and Ramdas Pophale) SiO2 
 PCOD8258146
Probable space group: C M C M
;
_chemical_formula_sum "Si O2"
_cell_formula_units_Z 72
_cell_length_a 9.776834
_cell_length_b 13.947647
_cell_length_c 29.041060
_cell_angle_alpha 90.000000
_cell_angle_beta 90.000000
_cell_angle_gamma 90.000000
_cell_volume 3960.150152
_symmetry_space_group_name_H-M "C M C M"
_symmetry_group_IT_number 63
_symmetry_cell_setting 'orthorhombic'
loop_
_space_group_symop_operation_xyz
x,y,z
-x,-y,1/2+z
x,-y,-z
-x,y,1/2-z
-x,-y,-z
x,y,1/2-z
-x,y,z
x,-y,1/2+z
1/2+x,1/2+y,z
1/2-x,1/2-y,1/2+z
1/2+x,1/2-y,-z
1/2-x,1/2+y,1/2-z
1/2-x,1/2-y,-z
1/2+x,1/2+y,1/2-z
1/2-x,1/2+y,z
1/2+x,1/2-y,1/2+z
loop_
_atom_site_type_symbol
_atom_site_label
_atom_site_fract_x
_atom_site_fract_y
_atom_site_fract_z
Si Si1 0.339333 0.012446 0.750000
Si Si2 0.714157 0.897893 0.575889
Si Si3 0.000000 0.702950 0.487420
Si Si4 0.500000 0.041638 0.949025
Si Si5 0.161211 0.201381 0.750000
Si Si6 0.659733 0.856625 0.823374
Si Si7 0.000000 0.094456 0.028850
O O1 0.500000 0.038288 0.750000
O O2 0.249135 0.106462 0.750000
O O3 0.299339 0.951483 0.704936
O O4 0.634148 0.826020 0.541734
O O5 0.729301 0.855104 0.626910
O O6 0.867838 0.908682 0.560366
O O7 0.635521 0.001585 0.576940
O O8 0.000000 0.816028 0.494185
O O9 0.000000 0.655654 0.539793
O O10 0.500000 0.000000 0.000000
O O11 0.202305 0.261958 0.795210
O O12 0.000000 0.177600 0.750000
O O13 0.500000 0.856483 0.831800
O O14 0.000000 0.000000 0.000000
#
# Coordination Sequence:
#
# PCOD8258146 Si02
#       7
#     8  16   8   8   8  16   8
#     4   9  19  37  60  84 112 147 181 221 272 326
#     4  10  19  37  58  81 107 140 192 230 268 326
#     4  10  20  38  60  74 104 151 190 222 269 334
#     4   8  16  34  60  74  97 143 185 222 260 320
#     4   9  19  37  60  82 118 145 175 219 282 334
#     4   9  17  38  61  80 109 150 186 221 261 333
#     4  12  24  38  50  81 121 145 175 232 297 318
#
# _framework density 18.181128000000001
#
# number of rings (size 3 to 8) (size 9 to 14) (size 15 to 20)
#    0.000    2.667    2.222    4.000    0.000    0.000 
#   12.000    1.111    0.000    0.000    0.000    0.000 
#    0.000    0.000    0.000    0.000    0.000    0.000 
#
# Total GULP energy -446185.287202 kJ/mol
# GULP energy per Si atom -12394.035756 kJ/mol
# Density = 1.813975 g / cm^3
# Si number density = 18.181128 Si / 1000 Ang^3
#
#
#
# Elastic Constant Matrix: (Units=GPa)
#
#
# Indices 1 2 3 4 5 6 
#
# 1 124.9150 56.1062 49.7813 0.0000 0.0000 0.0000
# 2 56.1062 139.1626 49.1000 0.0000 0.0000 0.0000
# 3 49.7813 49.1000 100.6291 0.0000 0.0000 0.0000
# 4 0.0000 0.0000 0.0000 12.4693 0.0000 0.0000
# 5 0.0000 0.0000 0.0000 0.0000 18.7764 0.0000
# 6 0.0000 0.0000 0.0000 0.0000 0.0000 18.8569
#
#
#
# Elastic Compliance Matrix: (Units=1/GPa)
#
#
# Indices 1 2 3 4 5 6 
#
# 1 0.010929 -0.003018 -0.003934 0.000000 0.000000 0.000000
# 2 -0.003018 0.009514 -0.003149 0.000000 0.000000 0.000000
# 3 -0.003934 -0.003149 0.013420 0.000000 0.000000 0.000000
# 4 0.000000 0.000000 0.000000 0.080197 0.000000 0.000000
# 5 0.000000 0.000000 0.000000 0.000000 0.053258 0.000000
# 6 0.000000 0.000000 0.000000 0.000000 0.000000 0.053031
#
#
# Mechanical properties :
#
#
# Convention : Reuss Voigt Hill
#
# Bulk Modulus (GPa) = 73.20310 74.96464 74.08387
# Shear Modulus (GPa) = 20.39952 24.00182 22.20067
#
# Velocity S-wave (km/s) = 3.35328 3.63733 3.49819
# Velocity P-wave (km/s) = 7.43931 7.67866 7.55993
#
# Compressibility (1/GPa) = 0.01366062
#
# Stress axis : x y z
#
# Youngs Moduli (GPa) = 91.50141 105.11149 74.51573
#
# Poissons Ratio (x) = 0.31725 0.29313
# Poissons Ratio (y) = 0.27617 0.23464
# Poissons Ratio (z) = 0.35995 0.33099
#
# Static dielectric constant tensor:
#      x y z
#    x 3.205980 0.000000 0.000000 
#    y 0.000000 3.685520 0.000000 
#    z 0.000000 0.000000 4.913480 
# 
# 
# High freq. dielectric constant tensor:
#      x y z
#    x 1.694280 0.000000 0.000000 
#    y 0.000000 1.695510 0.000000 
#    z 0.000000 0.000000 1.703520 
# 
# From -- ./inp_files/71508.got.cif
#   From: 2010.03.12/outbox.cif.g09.slc.cpg/sg63_36_cif.got.tgz:71508.got - 2010.04.10 19:34:48.
