data_PCOD8258802
_publ_section_title
;
Structure prediction by ZEFSAII (Michael W. Deem and Ramdas Pophale) SiO2 
 PCOD8258802
Probable space group: C M C M
;
_chemical_formula_sum "Si O2"
_cell_formula_units_Z 88
_cell_length_a 30.262255
_cell_length_b 17.656266
_cell_length_c 8.969133
_cell_angle_alpha 90.000000
_cell_angle_beta 90.000000
_cell_angle_gamma 90.000000
_cell_volume 4792.373010
_symmetry_space_group_name_H-M "C M C M"
_symmetry_group_IT_number 63
_symmetry_cell_setting 'orthorhombic'
loop_
_space_group_symop_operation_xyz
x,y,z
-x,-y,1/2+z
x,-y,-z
-x,y,1/2-z
-x,-y,-z
x,y,1/2-z
-x,y,z
x,-y,1/2+z
1/2+x,1/2+y,z
1/2-x,1/2-y,1/2+z
1/2+x,1/2-y,-z
1/2-x,1/2+y,1/2-z
1/2-x,1/2-y,-z
1/2+x,1/2+y,1/2-z
1/2-x,1/2+y,z
1/2+x,1/2-y,1/2+z
loop_
_atom_site_type_symbol
_atom_site_label
_atom_site_fract_x
_atom_site_fract_y
_atom_site_fract_z
Si Si1 0.584043 0.367506 0.581267
Si Si2 0.878415 0.701118 0.581991
Si Si3 0.500000 0.581186 0.925564
Si Si4 0.449831 0.920468 0.073475
Si Si5 0.296163 0.736464 0.576863
Si Si6 0.333358 0.427366 0.424380
O O1 0.574653 0.395345 0.750000
O O2 0.598086 0.281166 0.580059
O O3 0.541510 0.370922 0.478616
O O4 0.620057 0.422039 0.508180
O O5 0.864808 0.678482 0.750000
O O6 0.913623 0.640554 0.516174
O O7 0.833609 0.706486 0.485687
O O8 0.500000 0.572101 0.750000
O O9 0.500000 0.500000 0.000000
O O10 0.446928 0.928893 0.250000
O O11 0.500000 0.896061 0.027274
O O12 0.437218 0.000000 0.000000
O O13 0.292104 0.754120 0.750000
O O14 0.250000 0.750000 0.500000
O O15 0.306340 0.648750 0.544869
O O16 0.308788 0.500000 0.500000
O O17 0.340487 0.441170 0.250000
#
# Coordination Sequence:
#
# PCOD8258802 Si02
#       6
#    16  16   8  16  16  16
#     4  10  20  34  53  75 101 137 176 216 259 308
#     4   9  19  35  57  80 106 141 180 220 267 324
#     4  12  24  36  48  68 101 138 175 216 257 300
#     4   9  18  33  54  80 111 146 184 227 273 326
#     4  10  21  37  58  82 110 139 176 224 273 326
#     4  10  20  35  55  79 106 136 172 215 260 314
#
# _framework density 18.36251
#
# number of rings (size 3 to 8) (size 9 to 14) (size 15 to 20)
#    0.000    2.182    0.000    3.000    1.273    3.636 
#    0.000    0.909    0.000    0.000    0.000    0.000 
#    0.000    0.000    0.000    0.000    0.000    0.000 
#
# Total GULP energy -545538.935177 kJ/mol
# GULP energy per Si atom -12398.612163 kJ/mol
# Density = 1.832072 g / cm^3
# Si number density = 18.362510 Si / 1000 Ang^3
#
#
#
# Elastic Constant Matrix: (Units=GPa)
#
#
# Indices 1 2 3 4 5 6 
#
# 1 136.2862 53.3474 70.1045 0.0000 0.0000 0.0000
# 2 53.3474 89.1585 46.1142 0.0000 0.0000 0.0000
# 3 70.1045 46.1142 119.0421 0.0000 0.0000 0.0000
# 4 0.0000 0.0000 0.0000 31.7134 0.0000 0.0000
# 5 0.0000 0.0000 0.0000 0.0000 31.9284 0.0000
# 6 0.0000 0.0000 0.0000 0.0000 0.0000 19.0525
#
#
#
# Elastic Compliance Matrix: (Units=1/GPa)
#
#
# Indices 1 2 3 4 5 6 
#
# 1 0.011712 -0.004303 -0.005231 0.000000 0.000000 0.000000
# 2 -0.004303 0.015607 -0.003512 0.000000 0.000000 0.000000
# 3 -0.005231 -0.003512 0.012841 0.000000 0.000000 0.000000
# 4 0.000000 0.000000 0.000000 0.031532 0.000000 0.000000
# 5 0.000000 0.000000 0.000000 0.000000 0.031320 0.000000
# 6 0.000000 0.000000 0.000000 0.000000 0.000000 0.052487
#
#
# Mechanical properties :
#
#
# Convention : Reuss Voigt Hill
#
# Bulk Modulus (GPa) = 71.07357 75.95766 73.51562
# Shear Modulus (GPa) = 26.84132 28.20023 27.52078
#
# Velocity S-wave (km/s) = 3.82743 3.92312 3.87557
# Velocity P-wave (km/s) = 7.63689 7.87252 7.75560
#
# Compressibility (1/GPa) = 0.01406993
#
# Stress axis : x y z
#
# Youngs Moduli (GPa) = 85.38006 64.07455 77.87418
#
# Poissons Ratio (x) = 0.27569 0.40734
# Poissons Ratio (y) = 0.36736 0.27349
# Poissons Ratio (z) = 0.44660 0.22502
#
# Static dielectric constant tensor:
#      x y z
#    x 3.433610 0.000000 0.000000 
#    y 0.000000 3.471590 0.000000 
#    z 0.000000 0.000000 3.558230 
# 
# 
# High freq. dielectric constant tensor:
#      x y z
#    x 1.704150 0.000000 0.000000 
#    y 0.000000 1.710910 0.000000 
#    z 0.000000 0.000000 1.720760 
# 
# From -- ./inp_files/14147.got.cif
#   From: 2010.03.12/outbox.cif.g09.slc.cpg/sg63_8_cif.got.tgz:14147.got - 2010.04.10 19:34:48.
