data_PCOD8258070
_publ_section_title
;
Structure prediction by ZEFSAII (Michael W. Deem and Ramdas Pophale) SiO2 
 PCOD8258070
Probable space group: C M C M
;
_chemical_formula_sum "Si O2"
_cell_formula_units_Z 64
_cell_length_a 14.917907
_cell_length_b 9.751304
_cell_length_c 19.708719
_cell_angle_alpha 90.000000
_cell_angle_beta 90.000000
_cell_angle_gamma 90.000000
_cell_volume 2867.008555
_symmetry_space_group_name_H-M "C M C M"
_symmetry_group_IT_number 63
_symmetry_cell_setting 'orthorhombic'
loop_
_space_group_symop_operation_xyz
x,y,z
-x,-y,1/2+z
x,-y,-z
-x,y,1/2-z
-x,-y,-z
x,y,1/2-z
-x,y,z
x,-y,1/2+z
1/2+x,1/2+y,z
1/2-x,1/2-y,1/2+z
1/2+x,1/2-y,-z
1/2-x,1/2+y,1/2-z
1/2-x,1/2-y,-z
1/2+x,1/2+y,1/2-z
1/2-x,1/2+y,z
1/2+x,1/2-y,1/2+z
loop_
_atom_site_type_symbol
_atom_site_label
_atom_site_fract_x
_atom_site_fract_y
_atom_site_fract_z
Si Si1 0.000000 0.089854 0.671237
Si Si2 0.500000 0.125714 0.827637
Si Si3 0.187349 0.043804 0.173327
Si Si4 0.500000 0.870456 0.594872
Si Si5 0.144616 0.500000 0.000000
Si Si6 0.308965 0.177485 0.883280
O O1 0.000000 0.214803 0.618532
O O2 0.000000 0.138745 0.750000
O O3 0.086613 0.999274 0.654449
O O4 0.500000 0.169876 0.750000
O O5 0.500000 0.961419 0.836609
O O6 0.413398 0.187053 0.864208
O O7 0.190716 0.100763 0.250000
O O8 0.223225 0.164080 0.122569
O O9 0.252875 0.913815 0.169296
O O10 0.586971 0.906356 0.550729
O O11 0.204398 0.390507 0.042342
#
# Coordination Sequence:
#
# PCOD8258070 Si02
#       6
#     8   8  16   8   8  16
#     4  10  23  42  66  95 131 166 213 273 329 376
#     4  10  19  35  64  92 121 164 209 256 328 376
#     4  11  24  42  65  96 130 164 214 271 329 383
#     4   9  19  39  64  94 123 167 212 267 304 379
#     4   9  22  42  64  89 134 170 218 255 318 393
#     4  11  24  42  65  93 131 173 211 267 320 385
#
# _framework density 22.322918999999999
#
# number of rings (size 3 to 8) (size 9 to 14) (size 15 to 20)
#    0.000    1.750    0.000    4.125    7.000    2.000 
#    0.000    1.250    0.000    0.000    0.000    0.000 
#    0.000    0.000    0.000    0.000    0.000    0.000 
#
# Total GULP energy -396766.785222 kJ/mol
# GULP energy per Si atom -12398.962038 kJ/mol
# Density = 2.227211 g / cm^3
# Si number density = 22.322919 Si / 1000 Ang^3
#
#
#
# Elastic Constant Matrix: (Units=GPa)
#
#
# Indices 1 2 3 4 5 6 
#
# 1 85.1913 27.8642 0.7988 0.0000 0.0000 0.0000
# 2 27.8642 157.3962 41.6984 0.0000 0.0000 0.0000
# 3 0.7988 41.6984 83.1462 0.0000 0.0000 0.0000
# 4 0.0000 0.0000 0.0000 39.9130 0.0000 0.0000
# 5 0.0000 0.0000 0.0000 0.0000 22.3855 0.0000
# 6 0.0000 0.0000 0.0000 0.0000 0.0000 20.2299
#
#
#
# Elastic Compliance Matrix: (Units=1/GPa)
#
#
# Indices 1 2 3 4 5 6 
#
# 1 0.012554 -0.002526 0.001146 0.000000 0.000000 0.000000
# 2 -0.002526 0.007835 -0.003905 0.000000 0.000000 0.000000
# 3 0.001146 -0.003905 0.013974 0.000000 0.000000 0.000000
# 4 0.000000 0.000000 0.000000 0.025054 0.000000 0.000000
# 5 0.000000 0.000000 0.000000 0.000000 0.044672 0.000000
# 6 0.000000 0.000000 0.000000 0.000000 0.000000 0.049432
#
#
# Mechanical properties :
#
#
# Convention : Reuss Voigt Hill
#
# Bulk Modulus (GPa) = 42.02840 51.82850 46.92845
# Shear Modulus (GPa) = 29.06599 33.53052 31.29826
#
# Velocity S-wave (km/s) = 3.61233 3.87986 3.74848
# Velocity P-wave (km/s) = 6.02221 6.58324 6.30896
#
# Compressibility (1/GPa) = 0.02379343
#
# Stress axis : x y z
#
# Youngs Moduli (GPa) = 79.65740 127.62984 71.55923
#
# Poissons Ratio (x) = 0.32240 -0.08202
# Poissons Ratio (y) = 0.20122 0.27945
# Poissons Ratio (z) = -0.09131 0.49841
#
# Static dielectric constant tensor:
#      x y z
#    x 3.976350 0.000000 0.000000 
#    y 0.000000 3.963650 0.000000 
#    z 0.000000 0.000000 3.974940 
# 
# 
# High freq. dielectric constant tensor:
#      x y z
#    x 1.878040 0.000000 0.000000 
#    y 0.000000 1.882730 0.000000 
#    z 0.000000 0.000000 1.868860 
# 
# From -- ./inp_files/55095.got.cif
#   From: 2010.03.12/outbox.cif.g09.slc.cpg/sg63_28_cif.got.tgz:55095.got - 2010.04.10 19:34:48.
