data_PCOD8258852
_publ_section_title
;
Structure prediction by ZEFSAII (Michael W. Deem and Ramdas Pophale) SiO2 
 PCOD8258852
Probable space group: C M C M
;
_chemical_formula_sum "Si O2"
_cell_formula_units_Z 96
_cell_length_a 19.508896
_cell_length_b 30.433848
_cell_length_c 8.769173
_cell_angle_alpha 90.000000
_cell_angle_beta 90.000000
_cell_angle_gamma 90.000000
_cell_volume 5206.527886
_symmetry_space_group_name_H-M "C M C M"
_symmetry_group_IT_number 63
_symmetry_cell_setting 'orthorhombic'
loop_
_space_group_symop_operation_xyz
x,y,z
-x,-y,1/2+z
x,-y,-z
-x,y,1/2-z
-x,-y,-z
x,y,1/2-z
-x,y,z
x,-y,1/2+z
1/2+x,1/2+y,z
1/2-x,1/2-y,1/2+z
1/2+x,1/2-y,-z
1/2-x,1/2+y,1/2-z
1/2-x,1/2-y,-z
1/2+x,1/2+y,1/2-z
1/2-x,1/2+y,z
1/2+x,1/2-y,1/2+z
loop_
_atom_site_type_symbol
_atom_site_label
_atom_site_fract_x
_atom_site_fract_y
_atom_site_fract_z
Si Si1 0.720495 0.451630 0.930990
Si Si2 0.072073 0.952727 0.928233
Si Si3 0.077939 0.671581 0.425316
Si Si4 0.301597 0.125586 0.929739
Si Si5 0.211351 0.208587 0.570628
Si Si6 0.577211 0.735307 0.070509
O O1 0.732244 0.453271 0.750000
O O2 0.644841 0.430975 0.974530
O O3 0.728877 0.500000 0.000000
O O4 0.775849 0.420840 0.009359
O O5 0.073643 0.960157 0.750000
O O6 0.000000 0.927258 0.973571
O O7 0.069155 0.000000 0.000000
O O8 0.095604 0.682228 0.250000
O O9 0.125410 0.633151 0.490138
O O10 0.092276 0.714781 0.524222
O O11 0.000000 0.655537 0.443331
O O12 0.311760 0.123442 0.750000
O O13 0.249614 0.164186 0.978550
O O14 0.210574 0.214875 0.750000
O O15 0.250000 0.250000 0.500000
O O16 0.133212 0.204442 0.510321
O O17 0.586271 0.730860 0.250000
O O18 0.500000 0.721484 0.020064
#
# Coordination Sequence:
#
# PCOD8258852 Si02
#       6
#    16  16  16  16  16  16
#     4  10  20  35  56  80 109 144 183 230 278 329
#     4   8  14  26  46  72  99 129 168 213 261 311
#     4  10  20  34  55  82 109 140 180 224 271 327
#     4  11  23  37  55  81 111 145 184 227 275 329
#     4  11  22  35  54  79 110 146 184 228 275 326
#     4  10  20  34  53  78 110 148 187 227 274 328
#
# _framework density 18.438392
#
# number of rings (size 3 to 8) (size 9 to 14) (size 15 to 20)
#    0.000    2.000    1.667    2.500    0.000    4.667 
#    0.000    0.833    0.000    3.500    0.000    0.000 
#    0.000    0.000    0.000    0.000    0.000    0.000 
#
# Total GULP energy -594885.025054 kJ/mol
# GULP energy per Si atom -12393.438022 kJ/mol
# Density = 1.839643 g / cm^3
# Si number density = 18.438392 Si / 1000 Ang^3
#
#
#
# Elastic Constant Matrix: (Units=GPa)
#
#
# Indices 1 2 3 4 5 6 
#
# 1 126.3258 43.8853 42.1420 0.0000 0.0000 0.0000
# 2 43.8853 67.0220 26.6008 0.0000 0.0000 0.0000
# 3 42.1420 26.6008 62.4830 0.0000 0.0000 0.0000
# 4 0.0000 0.0000 0.0000 25.4863 0.0000 0.0000
# 5 0.0000 0.0000 0.0000 0.0000 31.2715 0.0000
# 6 0.0000 0.0000 0.0000 0.0000 0.0000 24.8793
#
#
#
# Elastic Compliance Matrix: (Units=1/GPa)
#
#
# Indices 1 2 3 4 5 6 
#
# 1 0.011653 -0.005428 -0.005548 0.000000 0.000000 0.000000
# 2 -0.005428 0.020483 -0.005059 0.000000 0.000000 0.000000
# 3 -0.005548 -0.005059 0.021900 0.000000 0.000000 0.000000
# 4 0.000000 0.000000 0.000000 0.039237 0.000000 0.000000
# 5 0.000000 0.000000 0.000000 0.000000 0.031978 0.000000
# 6 0.000000 0.000000 0.000000 0.000000 0.000000 0.040194
#
#
# Mechanical properties :
#
#
# Convention : Reuss Voigt Hill
#
# Bulk Modulus (GPa) = 45.52765 53.45412 49.49088
# Shear Modulus (GPa) = 24.40970 25.87426 25.14198
#
# Velocity S-wave (km/s) = 3.64242 3.75010 3.69666
# Velocity P-wave (km/s) = 6.51422 6.91409 6.71713
#
# Compressibility (1/GPa) = 0.02196468
#
# Stress axis : x y z
#
# Youngs Moduli (GPa) = 85.81781 48.82209 45.66146
#
# Poissons Ratio (x) = 0.26500 0.25335
# Poissons Ratio (y) = 0.46581 0.23101
# Poissons Ratio (z) = 0.47615 0.24700
#
# Static dielectric constant tensor:
#      x y z
#    x 3.957640 0.000000 0.000000 
#    y 0.000000 3.019540 0.000000 
#    z 0.000000 0.000000 3.451200 
# 
# 
# High freq. dielectric constant tensor:
#      x y z
#    x 1.734340 0.000000 0.000000 
#    y 0.000000 1.669170 0.000000 
#    z 0.000000 0.000000 1.728840 
# 
# From -- ./inp_files/8574.got.cif
#   From: 2010.03.12/outbox.cif.g09.slc.cpg/sg63_5_cif.got.tgz:8574.got - 2010.04.10 19:34:48.
