data_PCOD8258771
_publ_section_title
;
Structure prediction by ZEFSAII (Michael W. Deem and Ramdas Pophale) SiO2 
 PCOD8258771
Probable space group: C M C M
;
_chemical_formula_sum "Si O2"
_cell_formula_units_Z 64
_cell_length_a 10.554391
_cell_length_b 26.414963
_cell_length_c 11.857077
_cell_angle_alpha 90.000000
_cell_angle_beta 90.000000
_cell_angle_gamma 90.000000
_cell_volume 3305.680120
_symmetry_space_group_name_H-M "C M C M"
_symmetry_group_IT_number 63
_symmetry_cell_setting 'orthorhombic'
loop_
_space_group_symop_operation_xyz
x,y,z
-x,-y,1/2+z
x,-y,-z
-x,y,1/2-z
-x,-y,-z
x,y,1/2-z
-x,y,z
x,-y,1/2+z
1/2+x,1/2+y,z
1/2-x,1/2-y,1/2+z
1/2+x,1/2-y,-z
1/2-x,1/2+y,1/2-z
1/2-x,1/2-y,-z
1/2+x,1/2+y,1/2-z
1/2-x,1/2+y,z
1/2+x,1/2-y,1/2+z
loop_
_atom_site_type_symbol
_atom_site_label
_atom_site_fract_x
_atom_site_fract_y
_atom_site_fract_z
Si Si1 0.000000 0.969020 0.878405
Si Si2 0.500000 0.289216 0.382801
Si Si3 0.249406 0.149965 0.621235
Si Si4 0.000000 0.597695 0.129378
Si Si5 0.500000 0.190266 0.965994
Si Si6 0.754246 0.556743 0.456314
O O1 0.873631 0.934739 0.883044
O O2 0.000000 0.995787 0.750000
O O3 0.000000 0.000000 0.000000
O O4 0.500000 0.275689 0.250000
O O5 0.624222 0.320403 0.418232
O O6 0.500000 0.238747 0.455574
O O7 0.236755 0.134051 0.750000
O O8 0.371149 0.187117 0.607126
O O9 0.259802 0.097185 0.556596
O O10 0.123543 0.562620 0.121706
O O11 0.000000 0.624821 0.250000
O O12 0.000000 0.640308 0.038266
O O13 0.756477 0.500000 0.500000
#
# Coordination Sequence:
#
# PCOD8258771 Si02
#       6
#     8   8  16   8   8  16
#     4  10  21  36  55  80 111 151 196 240 286 338
#     4  10  20  36  58  82 109 146 190 238 296 355
#     4  10  21  36  57  85 114 148 192 238 289 352
#     4  10  20  34  52  76 106 142 184 229 282 343
#     4  10  20  36  56  80 111 143 182 237 290 344
#     4  10  21  36  55  81 113 150 190 235 283 338
#
# _framework density 19.360614999999999
#
# number of rings (size 3 to 8) (size 9 to 14) (size 15 to 20)
#    0.000    2.000    0.000    3.375    0.000    5.000 
#    0.000    1.250    0.000   10.500    0.000    0.000 
#    0.000    0.000    0.000    0.000    0.000    0.000 
#
# Total GULP energy -396444.915044 kJ/mol
# GULP energy per Si atom -12388.903595 kJ/mol
# Density = 1.931655 g / cm^3
# Si number density = 19.360615 Si / 1000 Ang^3
#
#
#
# Elastic Constant Matrix: (Units=GPa)
#
#
# Indices 1 2 3 4 5 6 
#
# 1 191.2993 40.6454 34.1017 0.0000 0.0000 0.0000
# 2 40.6454 93.5635 22.8791 0.0000 0.0000 0.0000
# 3 34.1017 22.8791 84.8407 0.0000 0.0000 0.0000
# 4 0.0000 0.0000 0.0000 21.9690 0.0000 0.0000
# 5 0.0000 0.0000 0.0000 0.0000 9.4201 0.0000
# 6 0.0000 0.0000 0.0000 0.0000 0.0000 24.4336
#
#
#
# Elastic Compliance Matrix: (Units=1/GPa)
#
#
# Indices 1 2 3 4 5 6 
#
# 1 0.006014 -0.002164 -0.001834 0.000000 0.000000 0.000000
# 2 -0.002164 0.012221 -0.002426 0.000000 0.000000 0.000000
# 3 -0.001834 -0.002426 0.013178 0.000000 0.000000 0.000000
# 4 0.000000 0.000000 0.000000 0.045519 0.000000 0.000000
# 5 0.000000 0.000000 0.000000 0.000000 0.106156 0.000000
# 6 0.000000 0.000000 0.000000 0.000000 0.000000 0.040927
#
#
# Mechanical properties :
#
#
# Convention : Reuss Voigt Hill
#
# Bulk Modulus (GPa) = 53.86225 62.77289 58.31757
# Shear Modulus (GPa) = 20.57178 29.30303 24.93740
#
# Velocity S-wave (km/s) = 3.26323 3.89464 3.59283
# Velocity P-wave (km/s) = 6.48684 7.26069 6.88465
#
# Compressibility (1/GPa) = 0.01856588
#
# Stress axis : x y z
#
# Youngs Moduli (GPa) = 166.27492 81.82450 75.88379
#
# Poissons Ratio (x) = 0.17709 0.13915
# Poissons Ratio (y) = 0.35986 0.18408
# Poissons Ratio (z) = 0.30491 0.19849
#
# Static dielectric constant tensor:
#      x y z
#    x 4.915700 0.000000 0.000000 
#    y 0.000000 3.293550 0.000000 
#    z 0.000000 0.000000 3.618340 
# 
# 
# High freq. dielectric constant tensor:
#      x y z
#    x 1.788890 0.000000 0.000000 
#    y 0.000000 1.728830 0.000000 
#    z 0.000000 0.000000 1.752850 
# 
# From -- ./inp_files/17405.got.cif
#   From: 2010.03.12/outbox.cif.g09.slc.cpg/sg63_9_cif.got.tgz:17405.got - 2010.04.10 19:34:48.
