data_PCOD8258462
_publ_section_title
;
Structure prediction by ZEFSAII (Michael W. Deem and Ramdas Pophale) SiO2 
 PCOD8258462
Probable space group: C M C M
;
_chemical_formula_sum "Si O2"
_cell_formula_units_Z 96
_cell_length_a 23.381608
_cell_length_b 12.024629
_cell_length_c 18.769105
_cell_angle_alpha 90.000000
_cell_angle_beta 90.000000
_cell_angle_gamma 90.000000
_cell_volume 5277.030750
_symmetry_space_group_name_H-M "C M C M"
_symmetry_group_IT_number 63
_symmetry_cell_setting 'orthorhombic'
loop_
_space_group_symop_operation_xyz
x,y,z
-x,-y,1/2+z
x,-y,-z
-x,y,1/2-z
-x,-y,-z
x,y,1/2-z
-x,y,z
x,-y,1/2+z
1/2+x,1/2+y,z
1/2-x,1/2-y,1/2+z
1/2+x,1/2-y,-z
1/2-x,1/2+y,1/2-z
1/2-x,1/2-y,-z
1/2+x,1/2+y,1/2-z
1/2-x,1/2+y,z
1/2+x,1/2-y,1/2+z
loop_
_atom_site_type_symbol
_atom_site_label
_atom_site_fract_x
_atom_site_fract_y
_atom_site_fract_z
Si Si1 0.064397 0.477343 0.077052
Si Si2 0.564996 0.400473 0.165510
Si Si3 0.112576 0.663227 0.334361
Si Si4 0.359453 0.171721 0.832250
Si Si5 0.156219 0.074944 0.334301
Si Si6 0.279540 0.027292 0.332131
O O1 0.066375 0.586123 0.126738
O O2 0.091854 0.372803 0.116387
O O3 0.000000 0.441018 0.063306
O O4 0.093981 0.500000 0.000000
O O5 0.560462 0.406122 0.250000
O O6 0.500000 0.403731 0.133981
O O7 0.599324 0.289256 0.142866
O O8 0.602833 0.503188 0.134973
O O9 0.105998 0.645489 0.250000
O O10 0.175314 0.620246 0.360918
O O11 0.379375 0.163681 0.750000
O O12 0.349133 0.297220 0.855950
O O13 0.302536 0.097727 0.843893
O O14 0.156363 0.057916 0.250000
O O15 0.216893 0.035070 0.368216
O O16 0.270838 0.055329 0.250000
#
# Coordination Sequence:
#
# PCOD8258462 Si02
#       6
#    16  16  16  16  16  16
#     4  10  20  33  50  71  96 128 164 204 249 292
#     4   9  17  27  41  67 101 131 158 196 245 291
#     4   9  17  30  50  74  97 126 164 205 243 288
#     4   9  18  31  48  73  99 126 161 201 245 291
#     4   9  17  27  44  71 102 131 160 199 243 294
#     4   8  15  26  43  69  97 123 157 199 243 282
#
# _framework density 18.192049000000001
#
# number of rings (size 3 to 8) (size 9 to 14) (size 15 to 20)
#    0.000    3.000    0.000    2.000    2.333    2.667 
#    0.000    1.667    0.000    5.000    0.000    3.500 
#    0.000    0.000    0.000    0.000    0.000    0.000 
#
# Total GULP energy -594801.149975 kJ/mol
# GULP energy per Si atom -12391.690624 kJ/mol
# Density = 1.815064 g / cm^3
# Si number density = 18.192049 Si / 1000 Ang^3
#
#
#
# Elastic Constant Matrix: (Units=GPa)
#
#
# Indices 1 2 3 4 5 6 
#
# 1 128.6925 73.7841 16.7843 0.0000 0.0000 0.0000
# 2 73.7841 152.1224 21.3048 0.0000 0.0000 0.0000
# 3 16.7843 21.3048 36.1926 0.0000 0.0000 0.0000
# 4 0.0000 0.0000 0.0000 4.9313 0.0000 0.0000
# 5 0.0000 0.0000 0.0000 0.0000 7.6742 0.0000
# 6 0.0000 0.0000 0.0000 0.0000 0.0000 19.0743
#
#
#
# Elastic Compliance Matrix: (Units=1/GPa)
#
#
# Indices 1 2 3 4 5 6 
#
# 1 0.010911 -0.004995 -0.002119 0.000000 0.000000 0.000000
# 2 -0.004995 0.009451 -0.003247 0.000000 0.000000 0.000000
# 3 -0.002119 -0.003247 0.030524 0.000000 0.000000 0.000000
# 4 0.000000 0.000000 0.000000 0.202785 0.000000 0.000000
# 5 0.000000 0.000000 0.000000 0.000000 0.130307 0.000000
# 6 0.000000 0.000000 0.000000 0.000000 0.000000 0.052426
#
#
# Mechanical properties :
#
#
# Convention : Reuss Voigt Hill
#
# Bulk Modulus (GPa) = 33.15323 60.08375 46.61849
# Shear Modulus (GPa) = 10.70248 20.01160 15.35704
#
# Velocity S-wave (km/s) = 2.42813 3.32025 2.90860
# Velocity P-wave (km/s) = 5.11123 6.91361 6.07958
#
# Compressibility (1/GPa) = 0.03016298
#
# Stress axis : x y z
#
# Youngs Moduli (GPa) = 91.65188 105.80619 32.76097
#
# Poissons Ratio (x) = 0.52853 0.06943
# Poissons Ratio (y) = 0.45783 0.10637
# Poissons Ratio (z) = 0.19425 0.34354
#
# Static dielectric constant tensor:
#      x y z
#    x 3.609280 0.000000 0.000000 
#    y 0.000000 3.451910 0.000000 
#    z 0.000000 0.000000 2.871760 
# 
# 
# High freq. dielectric constant tensor:
#      x y z
#    x 1.710150 0.000000 0.000000 
#    y 0.000000 1.708150 0.000000 
#    z 0.000000 0.000000 1.641590 
# 
# From -- ./inp_files/47966.got.cif
#   From: 2010.03.12/outbox.cif.g09.slc.cpg/sg63_24_cif.got.tgz:47966.got - 2010.04.10 19:34:48.
