data_PCOD8258372
_publ_section_title
;
Structure prediction by ZEFSAII (Michael W. Deem and Ramdas Pophale) SiO2 
 PCOD8258372
Probable space group: C M C M
;
_chemical_formula_sum "Si O2"
_cell_formula_units_Z 80
_cell_length_a 26.469810
_cell_length_b 18.684280
_cell_length_c 9.061686
_cell_angle_alpha 90.000000
_cell_angle_beta 90.000000
_cell_angle_gamma 90.000000
_cell_volume 4481.632079
_symmetry_space_group_name_H-M "C M C M"
_symmetry_group_IT_number 63
_symmetry_cell_setting 'orthorhombic'
loop_
_space_group_symop_operation_xyz
x,y,z
-x,-y,1/2+z
x,-y,-z
-x,y,1/2-z
-x,-y,-z
x,y,1/2-z
-x,y,z
x,-y,1/2+z
1/2+x,1/2+y,z
1/2-x,1/2-y,1/2+z
1/2+x,1/2-y,-z
1/2-x,1/2+y,1/2-z
1/2-x,1/2-y,-z
1/2+x,1/2+y,1/2-z
1/2-x,1/2+y,z
1/2+x,1/2-y,1/2+z
loop_
_atom_site_type_symbol
_atom_site_label
_atom_site_fract_x
_atom_site_fract_y
_atom_site_fract_z
Si Si1 0.058051 0.569524 0.422123
Si Si2 0.851053 0.926888 0.426219
Si Si3 0.942111 0.145404 0.421508
Si Si4 0.703693 0.715003 0.917724
Si Si5 0.902967 0.279727 0.579606
O O1 0.082023 0.500000 0.500000
O O2 0.064707 0.558010 0.250000
O O3 0.087078 0.640083 0.476438
O O4 0.000000 0.578698 0.468654
O O5 0.854486 0.933876 0.250000
O O6 0.906813 0.908687 0.487015
O O7 0.811814 0.864443 0.474056
O O8 0.831498 0.000000 0.500000
O O9 0.926711 0.142777 0.250000
O O10 0.935471 0.225925 0.480656
O O11 0.000000 0.121510 0.444172
O O12 0.720535 0.709164 0.750000
O O13 0.656297 0.766931 0.939262
O O14 0.750000 0.750000 0.000000
O O15 0.919838 0.269466 0.750000
#
# Coordination Sequence:
#
# PCOD8258372 Si02
#       5
#    16  16  16  16  16
#     4   9  17  29  46  68  96 130 164 200 244 291
#     4  10  21  37  56  78 104 135 170 207 250 298
#     4  10  20  32  49  76 106 136 170 206 247 297
#     4   9  19  35  55  77  99 126 163 206 251 298
#     4   9  18  33  51  71  97 131 171 211 251 299
#
# _framework density 17.850639999999999
#
# number of rings (size 3 to 8) (size 9 to 14) (size 15 to 20)
#    0.000    2.600    0.000    3.000    0.000    7.600 
#    0.000    3.000    0.000    4.800    0.000    0.000 
#    0.000    0.000    0.000    0.000    0.000    0.000 
#
# Total GULP energy -495975.745242 kJ/mol
# GULP energy per Si atom -12399.393631 kJ/mol
# Density = 1.781001 g / cm^3
# Si number density = 17.850640 Si / 1000 Ang^3
#
#
#
# Elastic Constant Matrix: (Units=GPa)
#
#
# Indices 1 2 3 4 5 6 
#
# 1 78.1936 52.3052 41.4696 0.0000 0.0000 0.0000
# 2 52.3052 156.0789 48.0235 0.0000 0.0000 0.0000
# 3 41.4696 48.0235 72.9170 0.0000 0.0000 0.0000
# 4 0.0000 0.0000 0.0000 35.6746 0.0000 0.0000
# 5 0.0000 0.0000 0.0000 0.0000 29.7900 0.0000
# 6 0.0000 0.0000 0.0000 0.0000 0.0000 19.2238
#
#
#
# Elastic Compliance Matrix: (Units=1/GPa)
#
#
# Indices 1 2 3 4 5 6 
#
# 1 0.020166 -0.004050 -0.008801 0.000000 0.000000 0.000000
# 2 -0.004050 0.008849 -0.003525 0.000000 0.000000 0.000000
# 3 -0.008801 -0.003525 0.021041 0.000000 0.000000 0.000000
# 4 0.000000 0.000000 0.000000 0.028031 0.000000 0.000000
# 5 0.000000 0.000000 0.000000 0.000000 0.033568 0.000000
# 6 0.000000 0.000000 0.000000 0.000000 0.000000 0.052019
#
#
# Mechanical properties :
#
#
# Convention : Reuss Voigt Hill
#
# Bulk Modulus (GPa) = 57.79088 65.64289 61.71689
# Shear Modulus (GPa) = 24.72886 27.96376 26.34631
#
# Velocity S-wave (km/s) = 3.72603 3.96225 3.84595
# Velocity P-wave (km/s) = 7.13835 7.60170 7.37366
#
# Compressibility (1/GPa) = 0.01730377
#
# Stress axis : x y z
#
# Youngs Moduli (GPa) = 49.58960 113.01171 47.52619
#
# Poissons Ratio (x) = 0.45768 0.41830
# Poissons Ratio (y) = 0.20083 0.16751
# Poissons Ratio (z) = 0.43646 0.39831
#
# Static dielectric constant tensor:
#      x y z
#    x 3.110380 0.000000 0.000000 
#    y 0.000000 3.555630 0.000000 
#    z 0.000000 0.000000 3.335210 
# 
# 
# High freq. dielectric constant tensor:
#      x y z
#    x 1.669890 0.000000 0.000000 
#    y 0.000000 1.698080 0.000000 
#    z 0.000000 0.000000 1.692360 
# 
# From -- ./inp_files/12022.got.cif
#   From: 2010.03.12/outbox.cif.g09.slc.cpg/sg63_7_cif.got.tgz:12022.got - 2010.04.10 19:34:48.
