data_PCOD8258446
_publ_section_title
;
Structure prediction by ZEFSAII (Michael W. Deem and Ramdas Pophale) SiO2 
 PCOD8258446
Probable space group: C M C M
;
_chemical_formula_sum "Si O2"
_cell_formula_units_Z 80
_cell_length_a 13.530444
_cell_length_b 13.548992
_cell_length_c 24.335515
_cell_angle_alpha 90.000000
_cell_angle_beta 90.000000
_cell_angle_gamma 90.000000
_cell_volume 4461.280971
_symmetry_space_group_name_H-M "C M C M"
_symmetry_group_IT_number 63
_symmetry_cell_setting 'orthorhombic'
loop_
_space_group_symop_operation_xyz
x,y,z
-x,-y,1/2+z
x,-y,-z
-x,y,1/2-z
-x,-y,-z
x,y,1/2-z
-x,y,z
x,-y,1/2+z
1/2+x,1/2+y,z
1/2-x,1/2-y,1/2+z
1/2+x,1/2-y,-z
1/2-x,1/2+y,1/2-z
1/2-x,1/2-y,-z
1/2+x,1/2+y,1/2-z
1/2-x,1/2+y,z
1/2+x,1/2-y,1/2+z
loop_
_atom_site_type_symbol
_atom_site_label
_atom_site_fract_x
_atom_site_fract_y
_atom_site_fract_z
Si Si1 0.616931 0.726999 0.809636
Si Si2 0.700699 0.454949 0.578507
Si Si3 0.383796 0.495542 0.311392
Si Si4 0.113482 0.139042 0.978017
Si Si5 0.385614 0.162974 0.082777
O O1 0.651118 0.769081 0.750000
O O2 0.500000 0.719749 0.812099
O O3 0.657070 0.616046 0.817051
O O4 0.652870 0.797060 0.858389
O O5 0.670726 0.439876 0.642153
O O6 0.681192 0.566569 0.558660
O O7 0.637175 0.377521 0.542155
O O8 0.817077 0.431075 0.569731
O O9 0.359471 0.535975 0.250000
O O10 0.500000 0.500229 0.322504
O O11 0.133280 0.252444 0.962626
O O12 0.000000 0.111683 0.965162
O O13 0.500000 0.129380 0.083636
#
# Coordination Sequence:
#
# PCOD8258446 Si02
#       5
#    16  16  16  16  16
#     4   8  14  27  47  69  95 126 158 197 243 283
#     4  11  19  30  52  77  99 126 168 202 244 289
#     4   9  16  28  49  76 101 124 158 206 250 287
#     4  10  20  35  53  73 100 130 161 204 249 292
#     4  10  20  33  49  72 102 131 166 203 240 288
#
# _framework density 17.93207
#
# number of rings (size 3 to 8) (size 9 to 14) (size 15 to 20)
#    0.000    2.400    2.000    4.200    0.000    0.800 
#    0.000    2.000    0.000    3.600    0.000    0.000 
#    0.000    0.000    0.000    0.000    0.000    0.000 
#
# Total GULP energy -495746.289596 kJ/mol
# GULP energy per Si atom -12393.657240 kJ/mol
# Density = 1.789126 g / cm^3
# Si number density = 17.932070 Si / 1000 Ang^3
#
#
#
# Elastic Constant Matrix: (Units=GPa)
#
#
# Indices 1 2 3 4 5 6 
#
# 1 89.2480 47.5725 33.5363 0.0000 0.0000 0.0000
# 2 47.5725 45.4957 24.0497 0.0000 0.0000 0.0000
# 3 33.5363 24.0497 107.7722 0.0000 0.0000 0.0000
# 4 0.0000 0.0000 0.0000 14.4583 0.0000 0.0000
# 5 0.0000 0.0000 0.0000 0.0000 18.0980 0.0000
# 6 0.0000 0.0000 0.0000 0.0000 0.0000 30.4805
#
#
#
# Elastic Compliance Matrix: (Units=1/GPa)
#
#
# Indices 1 2 3 4 5 6 
#
# 1 0.025797 -0.025772 -0.002277 0.000000 0.000000 0.000000
# 2 -0.025772 0.050666 -0.003287 0.000000 0.000000 0.000000
# 3 -0.002277 -0.003287 0.010721 0.000000 0.000000 0.000000
# 4 0.000000 0.000000 0.000000 0.069165 0.000000 0.000000
# 5 0.000000 0.000000 0.000000 0.000000 0.055255 0.000000
# 6 0.000000 0.000000 0.000000 0.000000 0.000000 0.032808
#
#
# Mechanical properties :
#
#
# Convention : Reuss Voigt Hill
#
# Bulk Modulus (GPa) = 40.79297 50.31479 45.55388
# Shear Modulus (GPa) = 15.86032 21.76449 18.81240
#
# Velocity S-wave (km/s) = 2.97722 3.48763 3.24248
# Velocity P-wave (km/s) = 5.88358 6.65864 6.28307
#
# Compressibility (1/GPa) = 0.02451403
#
# Stress axis : x y z
#
# Youngs Moduli (GPa) = 38.76350 19.73723 93.27776
#
# Poissons Ratio (x) = 0.50866 0.21235
# Poissons Ratio (y) = 0.99900 0.30657
# Poissons Ratio (z) = 0.08825 0.06487
#
# Static dielectric constant tensor:
#      x y z
#    x 3.062480 0.000000 0.000000 
#    y 0.000000 2.966190 0.000000 
#    z 0.000000 0.000000 3.955730 
# 
# 
# High freq. dielectric constant tensor:
#      x y z
#    x 1.664760 0.000000 0.000000 
#    y 0.000000 1.656250 0.000000 
#    z 0.000000 0.000000 1.714450 
# 
# From -- ./inp_files/61134.got.cif
#   From: 2010.03.12/outbox.cif.g09.slc.cpg/sg63_31_cif.got.tgz:61134.got - 2010.04.10 19:34:48.
