data_PCOD8258683
_publ_section_title
;
Structure prediction by ZEFSAII (Michael W. Deem and Ramdas Pophale) SiO2 
 PCOD8258683
Probable space group: C M C M
;
_chemical_formula_sum "Si O2"
_cell_formula_units_Z 112
_cell_length_a 22.653646
_cell_length_b 11.748062
_cell_length_c 20.976284
_cell_angle_alpha 90.000000
_cell_angle_beta 90.000000
_cell_angle_gamma 90.000000
_cell_volume 5582.553501
_symmetry_space_group_name_H-M "C M C M"
_symmetry_group_IT_number 63
_symmetry_cell_setting 'orthorhombic'
loop_
_space_group_symop_operation_xyz
x,y,z
-x,-y,1/2+z
x,-y,-z
-x,y,1/2-z
-x,-y,-z
x,y,1/2-z
-x,y,z
x,-y,1/2+z
1/2+x,1/2+y,z
1/2-x,1/2-y,1/2+z
1/2+x,1/2-y,-z
1/2-x,1/2+y,1/2-z
1/2-x,1/2-y,-z
1/2+x,1/2+y,1/2-z
1/2-x,1/2+y,z
1/2+x,1/2-y,1/2+z
loop_
_atom_site_type_symbol
_atom_site_label
_atom_site_fract_x
_atom_site_fract_y
_atom_site_fract_z
Si Si1 0.235879 0.386653 0.320542
Si Si2 0.931702 0.409351 0.674626
Si Si3 0.932793 0.892956 0.678254
Si Si4 0.870888 0.015838 0.933092
Si Si5 0.104897 0.654290 0.822071
Si Si6 0.756483 0.443601 0.935548
Si Si7 0.832374 0.250094 0.615491
O O1 0.240998 0.441891 0.250000
O O2 0.174417 0.319376 0.326344
O O3 0.231402 0.485867 0.371711
O O4 0.290859 0.301209 0.328865
O O5 0.920499 0.404948 0.750000
O O6 0.914928 0.534469 0.645985
O O7 0.888672 0.317225 0.642686
O O8 0.000000 0.381265 0.658013
O O9 0.904410 0.900513 0.750000
O O10 0.926273 0.765923 0.648283
O O11 0.000000 0.927887 0.683179
O O12 0.904706 0.984357 0.631073
O O13 0.854232 0.147980 0.928724
O O14 0.814185 0.932431 0.940654
O O15 0.907141 0.000000 0.000000
O O16 0.082011 0.645216 0.750000
O O17 0.789931 0.324560 0.929443
O O18 0.782144 0.500000 0.000000
#
# Coordination Sequence:
#
# PCOD8258683 Si02
#       7
#    16  16  16  16  16  16  16
#     4  10  20  33  57  90 123 155 195 246 304 365
#     4  10  20  35  58  90 127 162 199 249 311 370
#     4  10  21  38  61  87 116 155 205 251 295 358
#     4  10  24  41  59  86 119 159 201 248 307 370
#     4   9  17  33  58  88 119 155 196 250 304 354
#     4  10  22  39  60  87 120 159 197 251 307 370
#     4  11  22  38  60  87 120 159 202 253 308 368
#
# _framework density 20.062504000000001
#
# number of rings (size 3 to 8) (size 9 to 14) (size 15 to 20)
#    0.000    2.000    1.429    1.714    0.000   12.286 
#    0.000    1.429    0.000    0.429    0.000    0.000 
#    0.000    0.000    0.000    0.000    0.000    0.000 
#
# Total GULP energy -694010.256763 kJ/mol
# GULP energy per Si atom -12393.040299 kJ/mol
# Density = 2.001684 g / cm^3
# Si number density = 20.062504 Si / 1000 Ang^3
#
#
#
# Elastic Constant Matrix: (Units=GPa)
#
#
# Indices 1 2 3 4 5 6 
#
# 1 84.3587 42.2733 32.3750 0.0000 0.0000 0.0000
# 2 42.2733 116.3846 49.7006 0.0000 0.0000 0.0000
# 3 32.3750 49.7006 124.4092 0.0000 0.0000 0.0000
# 4 0.0000 0.0000 0.0000 20.6777 0.0000 0.0000
# 5 0.0000 0.0000 0.0000 0.0000 15.9917 0.0000
# 6 0.0000 0.0000 0.0000 0.0000 0.0000 30.4514
#
#
#
# Elastic Compliance Matrix: (Units=1/GPa)
#
#
# Indices 1 2 3 4 5 6 
#
# 1 0.014922 -0.004535 -0.002071 0.000000 0.000000 0.000000
# 2 -0.004535 0.011738 -0.003509 0.000000 0.000000 0.000000
# 3 -0.002071 -0.003509 0.009979 0.000000 0.000000 0.000000
# 4 0.000000 0.000000 0.000000 0.048361 0.000000 0.000000
# 5 0.000000 0.000000 0.000000 0.000000 0.062533 0.000000
# 6 0.000000 0.000000 0.000000 0.000000 0.000000 0.032839
#
#
# Mechanical properties :
#
#
# Convention : Reuss Voigt Hill
#
# Bulk Modulus (GPa) = 60.94837 63.76115 62.35476
# Shear Modulus (GPa) = 24.26333 26.81105 25.53719
#
# Velocity S-wave (km/s) = 3.48140 3.65961 3.57162
# Velocity P-wave (km/s) = 6.82681 7.05034 6.93948
#
# Compressibility (1/GPa) = 0.01640733
#
# Stress axis : x y z
#
# Youngs Moduli (GPa) = 67.01609 85.19317 100.21234
#
# Poissons Ratio (x) = 0.38639 0.20756
# Poissons Ratio (y) = 0.30395 0.35165
# Poissons Ratio (z) = 0.13881 0.29894
#
# Static dielectric constant tensor:
#      x y z
#    x 3.650320 0.000000 0.000000 
#    y 0.000000 3.658570 0.000000 
#    z 0.000000 0.000000 3.707930 
# 
# 
# High freq. dielectric constant tensor:
#      x y z
#    x 1.778110 0.000000 0.000000 
#    y 0.000000 1.780760 0.000000 
#    z 0.000000 0.000000 1.766770 
# 
# From -- ./inp_files/57576.got.cif
#   From: 2010.03.12/outbox.cif.g09.slc.cpg/sg63_29_cif.got.tgz:57576.got - 2010.04.10 19:34:48.
