data_PCOD8258968
_publ_section_title
;
Structure prediction by ZEFSAII (Michael W. Deem and Ramdas Pophale) SiO2 
 PCOD8258968
Probable space group: C M C M
;
_chemical_formula_sum "Si O2"
_cell_formula_units_Z 96
_cell_length_a 23.017468
_cell_length_b 12.853345
_cell_length_c 18.195207
_cell_angle_alpha 90.000000
_cell_angle_beta 90.000000
_cell_angle_gamma 90.000000
_cell_volume 5383.078506
_symmetry_space_group_name_H-M "C M C M"
_symmetry_group_IT_number 63
_symmetry_cell_setting 'orthorhombic'
loop_
_space_group_symop_operation_xyz
x,y,z
-x,-y,1/2+z
x,-y,-z
-x,y,1/2-z
-x,-y,-z
x,y,1/2-z
-x,y,z
x,-y,1/2+z
1/2+x,1/2+y,z
1/2-x,1/2-y,1/2+z
1/2+x,1/2-y,-z
1/2-x,1/2+y,1/2-z
1/2-x,1/2-y,-z
1/2+x,1/2+y,1/2-z
1/2-x,1/2+y,z
1/2+x,1/2-y,1/2+z
loop_
_atom_site_type_symbol
_atom_site_label
_atom_site_fract_x
_atom_site_fract_y
_atom_site_fract_z
Si Si1 0.434654 0.408835 0.166218
Si Si2 0.675455 0.682680 0.900663
Si Si3 0.739855 0.858750 0.666622
Si Si4 0.065291 0.916493 0.559903
Si Si5 0.718027 0.048305 0.919842
Si Si6 0.666748 0.735300 0.436665
O O1 0.413070 0.406413 0.250000
O O2 0.500000 0.362929 0.158416
O O3 0.391757 0.342130 0.114916
O O4 0.434028 0.528262 0.139348
O O5 0.696807 0.760598 0.837341
O O6 0.715263 0.580014 0.902524
O O7 0.686618 0.737857 0.978769
O O8 0.761640 0.872419 0.750000
O O9 0.794403 0.841849 0.612382
O O10 0.703940 0.960628 0.640772
O O11 0.101535 0.809856 0.565238
O O12 0.000000 0.884995 0.536259
O O13 0.090420 0.000000 0.500000
O O14 0.673758 0.145838 0.908349
O O15 0.711003 0.000000 0.000000
#
# Coordination Sequence:
#
# PCOD8258968 Si02
#       6
#    16  16  16  16  16  16
#     4  10  21  35  54  82 112 141 175 221 276 324
#     4  11  20  34  57  79 108 145 179 222 266 327
#     4  11  23  36  53  81 111 143 185 227 270 322
#     4  10  20  34  55  82 110 141 176 216 267 327
#     4  11  20  35  53  77 107 149 179 214 271 325
#     4  11  21  34  58  80 108 143 180 221 270 324
#
# _framework density 17.833662
#
# number of rings (size 3 to 8) (size 9 to 14) (size 15 to 20)
#    0.000    1.333    5.000    2.500    0.000    5.333 
#    0.000    0.000    0.000    1.500    0.000    0.000 
#    0.000    0.000    0.000    0.000    0.000    0.000 
#
# Total GULP energy -595030.092104 kJ/mol
# GULP energy per Si atom -12396.460252 kJ/mol
# Density = 1.779307 g / cm^3
# Si number density = 17.833662 Si / 1000 Ang^3
#
#
#
# Elastic Constant Matrix: (Units=GPa)
#
#
# Indices 1 2 3 4 5 6 
#
# 1 94.0704 41.2061 24.5412 0.0000 0.0000 0.0000
# 2 41.2061 96.6998 31.1561 0.0000 0.0000 0.0000
# 3 24.5412 31.1561 109.3921 0.0000 0.0000 0.0000
# 4 0.0000 0.0000 0.0000 22.8067 0.0000 0.0000
# 5 0.0000 0.0000 0.0000 0.0000 22.9603 0.0000
# 6 0.0000 0.0000 0.0000 0.0000 0.0000 25.8210
#
#
#
# Elastic Compliance Matrix: (Units=1/GPa)
#
#
# Indices 1 2 3 4 5 6 
#
# 1 0.013292 -0.005178 -0.001507 0.000000 0.000000 0.000000
# 2 -0.005178 0.013404 -0.002656 0.000000 0.000000 0.000000
# 3 -0.001507 -0.002656 0.010236 0.000000 0.000000 0.000000
# 4 0.000000 0.000000 0.000000 0.043847 0.000000 0.000000
# 5 0.000000 0.000000 0.000000 0.000000 0.043553 0.000000
# 6 0.000000 0.000000 0.000000 0.000000 0.000000 0.038728
#
#
# Mechanical properties :
#
#
# Convention : Reuss Voigt Hill
#
# Bulk Modulus (GPa) = 54.79779 54.88545 54.84162
# Shear Modulus (GPa) = 26.62051 27.86820 27.24435
#
# Velocity S-wave (km/s) = 3.86775 3.95736 3.91281
# Velocity P-wave (km/s) = 7.12319 7.19194 7.15765
#
# Compressibility (1/GPa) = 0.01824891
#
# Stress axis : x y z
#
# Youngs Moduli (GPa) = 75.23429 74.60687 97.69534
#
# Poissons Ratio (x) = 0.38634 0.14723
# Poissons Ratio (y) = 0.38959 0.25946
# Poissons Ratio (z) = 0.11338 0.19814
#
# Static dielectric constant tensor:
#      x y z
#    x 3.159360 0.000000 0.000000 
#    y 0.000000 3.236760 0.000000 
#    z 0.000000 0.000000 3.364640 
# 
# 
# High freq. dielectric constant tensor:
#      x y z
#    x 1.669750 0.000000 0.000000 
#    y 0.000000 1.676340 0.000000 
#    z 0.000000 0.000000 1.697240 
# 
# From -- ./inp_files/47988.got.cif
#   From: 2010.03.12/outbox.cif.g09.slc.cpg/sg63_24_cif.got.tgz:47988.got - 2010.04.10 19:34:48.
