data_PCOD8258175
_publ_section_title
;
Structure prediction by ZEFSAII (Michael W. Deem and Ramdas Pophale) SiO2 
 PCOD8258175
Probable space group: C M C M
;
_chemical_formula_sum "Si O2"
_cell_formula_units_Z 112
_cell_length_a 31.274769
_cell_length_b 11.896068
_cell_length_c 15.422032
_cell_angle_alpha 90.000000
_cell_angle_beta 90.000000
_cell_angle_gamma 90.000000
_cell_volume 5737.717327
_symmetry_space_group_name_H-M "C M C M"
_symmetry_group_IT_number 63
_symmetry_cell_setting 'orthorhombic'
loop_
_space_group_symop_operation_xyz
x,y,z
-x,-y,1/2+z
x,-y,-z
-x,y,1/2-z
-x,-y,-z
x,y,1/2-z
-x,y,z
x,-y,1/2+z
1/2+x,1/2+y,z
1/2-x,1/2-y,1/2+z
1/2+x,1/2-y,-z
1/2-x,1/2+y,1/2-z
1/2-x,1/2-y,-z
1/2+x,1/2+y,1/2-z
1/2-x,1/2+y,z
1/2+x,1/2-y,1/2+z
loop_
_atom_site_type_symbol
_atom_site_label
_atom_site_fract_x
_atom_site_fract_y
_atom_site_fract_z
Si Si1 0.168311 0.371274 0.397765
Si Si2 0.549605 0.368832 0.008673
Si Si3 0.766212 0.185299 0.352366
Si Si4 0.173994 0.624449 0.401735
Si Si5 0.404274 0.711495 0.154058
Si Si6 0.384452 0.312189 0.150894
Si Si7 0.164631 0.020766 0.151817
O O1 0.210829 0.302880 0.373050
O O2 0.175486 0.498218 0.364145
O O3 0.159928 0.371304 0.499423
O O4 0.125757 0.320944 0.354387
O O5 0.500000 0.353059 0.028574
O O6 0.574056 0.314013 0.090165
O O7 0.561572 0.500000 0.000000
O O8 0.560234 0.299047 0.920917
O O9 0.761887 0.172697 0.250000
O O10 0.719941 0.183967 0.394935
O O11 0.794461 0.081605 0.392360
O O12 0.138138 0.691355 0.348251
O O13 0.425861 0.715659 0.250000
O O14 0.375605 0.601847 0.145051
O O15 0.397645 0.343476 0.250000
O O16 0.349907 0.401909 0.110744
O O17 0.177743 0.996378 0.250000
#
# Coordination Sequence:
#
# PCOD8258175 Si02
#       7
#    16  16  16  16  16  16  16
#     4  10  22  40  57  83 118 158 208 254 302 357
#     4  11  23  39  63  96 128 156 192 245 307 373
#     4  10  21  36  55  81 118 160 206 257 300 342
#     4  11  23  37  58  86 118 161 210 257 302 359
#     4  10  19  38  64  85 115 158 199 245 296 358
#     4  11  22  38  60  88 124 164 202 246 304 367
#     4   8  17  33  54  81 114 158 200 237 290 349
#
# _framework density 19.519959
#
# number of rings (size 3 to 8) (size 9 to 14) (size 15 to 20)
#    0.000    1.857    2.857    2.143    2.000    2.857 
#    0.000    1.429    0.000    1.714    0.000    2.000 
#    0.000    0.000    0.000    0.000    0.000    0.000 
#
# Total GULP energy -694243.579248 kJ/mol
# GULP energy per Si atom -12397.206772 kJ/mol
# Density = 1.947553 g / cm^3
# Si number density = 19.519959 Si / 1000 Ang^3
#
#
#
# Elastic Constant Matrix: (Units=GPa)
#
#
# Indices 1 2 3 4 5 6 
#
# 1 101.7728 49.4931 40.9234 0.0000 0.0000 0.0000
# 2 49.4931 109.9298 23.3560 0.0000 0.0000 0.0000
# 3 40.9234 23.3560 90.6587 0.0000 0.0000 0.0000
# 4 0.0000 0.0000 0.0000 22.2034 0.0000 0.0000
# 5 0.0000 0.0000 0.0000 0.0000 15.2088 0.0000
# 6 0.0000 0.0000 0.0000 0.0000 0.0000 20.5920
#
#
#
# Elastic Compliance Matrix: (Units=1/GPa)
#
#
# Indices 1 2 3 4 5 6 
#
# 1 0.014556 -0.005456 -0.005165 0.000000 0.000000 0.000000
# 2 -0.005456 0.011669 -0.000543 0.000000 0.000000 0.000000
# 3 -0.005165 -0.000543 0.013502 0.000000 0.000000 0.000000
# 4 0.000000 0.000000 0.000000 0.045038 0.000000 0.000000
# 5 0.000000 0.000000 0.000000 0.000000 0.065751 0.000000
# 6 0.000000 0.000000 0.000000 0.000000 0.000000 0.048562
#
#
# Mechanical properties :
#
#
# Convention : Reuss Voigt Hill
#
# Bulk Modulus (GPa) = 57.47852 58.87847 58.17850
# Shear Modulus (GPa) = 22.00643 24.17344 23.08994
#
# Velocity S-wave (km/s) = 3.36129 3.52290 3.44305
# Velocity P-wave (km/s) = 6.67640 6.83933 6.75836
#
# Compressibility (1/GPa) = 0.01739780
#
# Stress axis : x y z
#
# Youngs Moduli (GPa) = 68.70007 85.70003 74.06422
#
# Poissons Ratio (x) = 0.46759 0.38254
# Poissons Ratio (y) = 0.37484 0.04023
# Poissons Ratio (z) = 0.35483 0.04656
#
# Static dielectric constant tensor:
#      x y z
#    x 3.310090 0.000000 0.000000 
#    y 0.000000 3.703660 0.000000 
#    z 0.000000 0.000000 3.556890 
# 
# 
# High freq. dielectric constant tensor:
#      x y z
#    x 1.731820 0.000000 0.000000 
#    y 0.000000 1.756660 0.000000 
#    z 0.000000 0.000000 1.762900 
# 
# From -- ./inp_files/38557.got.cif
#   From: 2010.03.12/outbox.cif.g09.slc.cpg/sg63_20_cif.got.tgz:38557.got - 2010.04.10 19:34:48.
