data_PCOD8258339
_publ_section_title
;
Structure prediction by ZEFSAII (Michael W. Deem and Ramdas Pophale) SiO2 
 PCOD8258339
Probable space group: C M C M
;
_chemical_formula_sum "Si O2"
_cell_formula_units_Z 96
_cell_length_a 9.038218
_cell_length_b 32.235695
_cell_length_c 18.069173
_cell_angle_alpha 90.000000
_cell_angle_beta 90.000000
_cell_angle_gamma 90.000000
_cell_volume 5264.512076
_symmetry_space_group_name_H-M "C M C M"
_symmetry_group_IT_number 63
_symmetry_cell_setting 'orthorhombic'
loop_
_space_group_symop_operation_xyz
x,y,z
-x,-y,1/2+z
x,-y,-z
-x,y,1/2-z
-x,-y,-z
x,y,1/2-z
-x,y,z
x,-y,1/2+z
1/2+x,1/2+y,z
1/2-x,1/2-y,1/2+z
1/2+x,1/2-y,-z
1/2-x,1/2+y,1/2-z
1/2-x,1/2-y,-z
1/2+x,1/2+y,1/2-z
1/2-x,1/2+y,z
1/2+x,1/2-y,1/2+z
loop_
_atom_site_type_symbol
_atom_site_label
_atom_site_fract_x
_atom_site_fract_y
_atom_site_fract_z
Si Si1 0.827688 0.421252 0.165615
Si Si2 0.827787 0.758085 0.335245
Si Si3 0.828550 0.825903 0.663599
Si Si4 0.332115 0.834413 0.100156
Si Si5 0.329697 0.119580 0.049710
Si Si6 0.328281 0.454140 0.028888
O O1 0.790308 0.432850 0.250000
O O2 0.786007 0.373309 0.151229
O O3 0.732995 0.450956 0.112584
O O4 0.000000 0.427873 0.146844
O O5 0.790362 0.767741 0.250000
O O6 0.743124 0.717241 0.362513
O O7 0.777049 0.796715 0.384135
O O8 0.000000 0.750219 0.348097
O O9 0.801376 0.833260 0.750000
O O10 0.752192 0.864106 0.622321
O O11 0.000000 0.824582 0.642904
O O12 0.500000 0.820803 0.118104
O O13 0.313724 0.846400 0.014679
O O14 0.500000 0.111040 0.068737
O O15 0.257336 0.076485 0.025674
O O16 0.500000 0.442198 0.029000
O O17 0.299927 0.500000 0.000000
#
# Coordination Sequence:
#
# PCOD8258339 Si02
#       6
#    16  16  16  16  16  16
#     4   9  18  33  54  80 109 140 175 216 261 311
#     4  10  20  32  48  73 104 139 179 218 255 300
#     4  10  21  37  56  76 101 136 176 219 265 309
#     4   9  18  32  50  74 104 137 171 209 256 307
#     4  10  21  37  57  79 103 134 172 214 261 313
#     4  10  21  37  57  81 109 140 173 212 260 314
#
# _framework density 18.235306999999999
#
# number of rings (size 3 to 8) (size 9 to 14) (size 15 to 20)
#    0.000    2.333    0.000    3.500    0.000    8.333 
#    0.000    0.833    0.000    1.000    0.000    0.000 
#    0.000    0.000    0.000    0.000    0.000    0.000 
#
# Total GULP energy -595402.049451 kJ/mol
# GULP energy per Si atom -12404.209364 kJ/mol
# Density = 1.819380 g / cm^3
# Si number density = 18.235307 Si / 1000 Ang^3
#
#
#
# Elastic Constant Matrix: (Units=GPa)
#
#
# Indices 1 2 3 4 5 6 
#
# 1 127.6958 70.8733 58.4441 0.0000 0.0000 0.0000
# 2 70.8733 97.8729 56.4094 0.0000 0.0000 0.0000
# 3 58.4441 56.4094 77.2554 0.0000 0.0000 0.0000
# 4 0.0000 0.0000 0.0000 23.7867 0.0000 0.0000
# 5 0.0000 0.0000 0.0000 0.0000 32.8797 0.0000
# 6 0.0000 0.0000 0.0000 0.0000 0.0000 33.3571
#
#
#
# Elastic Compliance Matrix: (Units=1/GPa)
#
#
# Indices 1 2 3 4 5 6 
#
# 1 0.014398 -0.007163 -0.005662 0.000000 0.000000 0.000000
# 2 -0.007163 0.021205 -0.010064 0.000000 0.000000 0.000000
# 3 -0.005662 -0.010064 0.024576 0.000000 0.000000 0.000000
# 4 0.000000 0.000000 0.000000 0.042040 0.000000 0.000000
# 5 0.000000 0.000000 0.000000 0.000000 0.030414 0.000000
# 6 0.000000 0.000000 0.000000 0.000000 0.000000 0.029979
#
#
# Mechanical properties :
#
#
# Convention : Reuss Voigt Hill
#
# Bulk Modulus (GPa) = 69.44243 74.91977 72.18110
# Shear Modulus (GPa) = 23.45319 25.81119 24.63219
#
# Velocity S-wave (km/s) = 3.59017 3.76633 3.67931
# Velocity P-wave (km/s) = 7.43974 7.75164 7.59729
#
# Compressibility (1/GPa) = 0.01440042
#
# Stress axis : x y z
#
# Youngs Moduli (GPa) = 69.45404 47.15923 40.68967
#
# Poissons Ratio (x) = 0.33779 0.23039
# Poissons Ratio (y) = 0.49748 0.40952
# Poissons Ratio (z) = 0.39326 0.47463
#
# Static dielectric constant tensor:
#      x y z
#    x 3.441070 0.000000 0.000000 
#    y 0.000000 3.159500 0.000000 
#    z 0.000000 0.000000 3.389870 
# 
# 
# High freq. dielectric constant tensor:
#      x y z
#    x 1.717750 0.000000 0.000000 
#    y 0.000000 1.693670 0.000000 
#    z 0.000000 0.000000 1.703610 
# 
# From -- ./inp_files/51373.got.cif
#   From: 2010.03.12/outbox.cif.g09.slc.cpg/sg63_26_cif.got.tgz:51373.got - 2010.04.10 19:34:48.
