data_PCOD8258153
_publ_section_title
;
Structure prediction by ZEFSAII (Michael W. Deem and Ramdas Pophale) SiO2 
 PCOD8258153
Probable space group: C M C M
;
_chemical_formula_sum "Si O2"
_cell_formula_units_Z 96
_cell_length_a 8.730746
_cell_length_b 25.071252
_cell_length_c 23.655369
_cell_angle_alpha 90.000000
_cell_angle_beta 90.000000
_cell_angle_gamma 90.000000
_cell_volume 5177.941062
_symmetry_space_group_name_H-M "C M C M"
_symmetry_group_IT_number 63
_symmetry_cell_setting 'orthorhombic'
loop_
_space_group_symop_operation_xyz
x,y,z
-x,-y,1/2+z
x,-y,-z
-x,y,1/2-z
-x,-y,-z
x,y,1/2-z
-x,y,z
x,-y,1/2+z
1/2+x,1/2+y,z
1/2-x,1/2-y,1/2+z
1/2+x,1/2-y,-z
1/2-x,1/2+y,1/2-z
1/2-x,1/2-y,-z
1/2+x,1/2+y,1/2-z
1/2-x,1/2+y,z
1/2+x,1/2-y,1/2+z
loop_
_atom_site_type_symbol
_atom_site_label
_atom_site_fract_x
_atom_site_fract_y
_atom_site_fract_z
Si Si1 0.678788 0.738680 0.628975
Si Si2 0.322986 0.219358 0.250000
Si Si3 0.819730 0.104030 0.250000
Si Si4 0.319743 0.335160 0.565288
Si Si5 0.320083 0.069657 0.135375
Si Si6 0.320082 0.639551 0.558924
Si Si7 0.679719 0.520398 0.937274
O O1 0.500000 0.749433 0.616557
O O2 0.716860 0.745153 0.695185
O O3 0.778856 0.778646 0.591969
O O4 0.726485 0.678962 0.610066
O O5 0.500000 0.202042 0.250000
O O6 0.224947 0.166025 0.250000
O O7 0.756710 0.073175 0.303821
O O8 0.000000 0.100647 0.250000
O O9 0.500000 0.345848 0.570982
O O10 0.231643 0.381232 0.597504
O O11 0.262718 0.335866 0.500449
O O12 0.500000 0.072306 0.143284
O O13 0.272178 0.014225 0.107499
O O14 0.500000 0.632749 0.554733
O O15 0.253798 0.580423 0.569181
O O16 0.500000 0.515986 0.923711
O O17 0.714912 0.500000 0.000000
#
# Coordination Sequence:
#
# PCOD8258153 Si02
#       7
#    16   8   8  16  16  16  16
#     4  10  20  35  54  81 116 152 190 239 294 348
#     4  10  20  34  55  82 115 149 184 232 288 341
#     4  12  24  40  63  86 113 149 194 238 288 351
#     4  11  20  34  56  84 115 152 193 239 289 344
#     4  12  24  38  58  88 121 150 190 243 297 346
#     4   9  19  35  56  82 116 156 196 236 287 347
#     4  10  19  37  61  84 116 156 199 244 286 341
#
# _framework density 18.540188000000001
#
# number of rings (size 3 to 8) (size 9 to 14) (size 15 to 20)
#    0.000    1.500    3.333    3.250    0.000    0.333 
#    0.000    2.500    0.000    3.000    0.000    0.000 
#    0.000    0.000    0.000    0.000    0.000    0.000 
#
# Total GULP energy -595305.017904 kJ/mol
# GULP energy per Si atom -12402.187873 kJ/mol
# Density = 1.849799 g / cm^3
# Si number density = 18.540188 Si / 1000 Ang^3
#
#
#
# Elastic Constant Matrix: (Units=GPa)
#
#
# Indices 1 2 3 4 5 6 
#
# 1 89.8774 43.8379 56.0621 0.0000 0.0000 0.0000
# 2 43.8379 146.4160 70.5161 0.0000 0.0000 0.0000
# 3 56.0621 70.5161 134.9771 0.0000 0.0000 0.0000
# 4 0.0000 0.0000 0.0000 38.3745 0.0000 0.0000
# 5 0.0000 0.0000 0.0000 0.0000 18.4122 0.0000
# 6 0.0000 0.0000 0.0000 0.0000 0.0000 26.2496
#
#
#
# Elastic Compliance Matrix: (Units=1/GPa)
#
#
# Indices 1 2 3 4 5 6 
#
# 1 0.015465 -0.002053 -0.005351 0.000000 0.000000 0.000000
# 2 -0.002053 0.009399 -0.004057 0.000000 0.000000 0.000000
# 3 -0.005351 -0.004057 0.011751 0.000000 0.000000 0.000000
# 4 0.000000 0.000000 0.000000 0.026059 0.000000 0.000000
# 5 0.000000 0.000000 0.000000 0.000000 0.054312 0.000000
# 6 0.000000 0.000000 0.000000 0.000000 0.000000 0.038096
#
#
# Mechanical properties :
#
#
# Convention : Reuss Voigt Hill
#
# Bulk Modulus (GPa) = 73.03562 79.12251 76.07907
# Shear Modulus (GPa) = 27.38703 29.99757 28.69230
#
# Velocity S-wave (km/s) = 3.84757 4.02677 3.93819
# Velocity P-wave (km/s) = 7.69526 8.02426 7.86148
#
# Compressibility (1/GPa) = 0.01369195
#
# Stress axis : x y z
#
# Youngs Moduli (GPa) = 64.66043 106.39744 85.10131
#
# Poissons Ratio (x) = 0.21848 0.45535
# Poissons Ratio (y) = 0.13278 0.34528
# Poissons Ratio (z) = 0.34598 0.43168
#
# Static dielectric constant tensor:
#      x y z
#    x 3.313840 0.000000 0.000000 
#    y 0.000000 3.731770 0.000000 
#    z 0.000000 0.000000 3.605210 
# 
# 
# High freq. dielectric constant tensor:
#      x y z
#    x 1.706080 0.000000 0.000000 
#    y 0.000000 1.721080 0.000000 
#    z 0.000000 0.000000 1.724830 
# 
# From -- ./inp_files/59982.got.cif
#   From: 2010.03.12/outbox.cif.g09.slc.cpg/sg63_30_cif.got.tgz:59982.got - 2010.04.10 19:34:48.
