data_PCOD8258493
_publ_section_title
;
Structure prediction by ZEFSAII (Michael W. Deem and Ramdas Pophale) SiO2 
 PCOD8258493
Probable space group: C M C M
;
_chemical_formula_sum "Si O2"
_cell_formula_units_Z 96
_cell_length_a 18.360613
_cell_length_b 32.830590
_cell_length_c 9.000159
_cell_angle_alpha 90.000000
_cell_angle_beta 90.000000
_cell_angle_gamma 90.000000
_cell_volume 5425.203662
_symmetry_space_group_name_H-M "C M C M"
_symmetry_group_IT_number 63
_symmetry_cell_setting 'orthorhombic'
loop_
_space_group_symop_operation_xyz
x,y,z
-x,-y,1/2+z
x,-y,-z
-x,y,1/2-z
-x,-y,-z
x,y,1/2-z
-x,y,z
x,-y,1/2+z
1/2+x,1/2+y,z
1/2-x,1/2-y,1/2+z
1/2+x,1/2-y,-z
1/2-x,1/2+y,1/2-z
1/2-x,1/2-y,-z
1/2+x,1/2+y,1/2-z
1/2-x,1/2+y,z
1/2+x,1/2-y,1/2+z
loop_
_atom_site_type_symbol
_atom_site_label
_atom_site_fract_x
_atom_site_fract_y
_atom_site_fract_z
Si Si1 0.295520 0.883302 0.575247
Si Si2 0.085507 0.333997 0.421093
Si Si3 0.580875 0.743674 0.073517
Si Si4 0.652606 0.663038 0.424388
Si Si5 0.221963 0.042791 0.925633
Si Si6 0.081212 0.909677 0.077736
O O1 0.296590 0.892157 0.750000
O O2 0.372975 0.866458 0.522725
O O3 0.234277 0.849863 0.531565
O O4 0.279731 0.925095 0.489532
O O5 0.109087 0.339752 0.250000
O O6 0.106001 0.288543 0.479530
O O7 0.000000 0.341861 0.439967
O O8 0.577488 0.744713 0.250000
O O9 0.500000 0.734008 0.011467
O O10 0.636436 0.708808 0.015869
O O11 0.640523 0.661226 0.250000
O O12 0.594035 0.632347 0.492718
O O13 0.231986 0.039301 0.750000
O O14 0.139930 0.056324 0.970915
O O15 0.239043 0.000000 0.000000
O O16 0.090757 0.899732 0.250000
O O17 0.000000 0.925982 0.040944
#
# Coordination Sequence:
#
# PCOD8258493 Si02
#       6
#    16  16  16  16  16  16
#     4  10  20  33  50  74 101 127 159 200 245 292
#     4   9  18  33  52  72  95 127 165 201 242 294
#     4   8  14  26  45  68  95 130 171 209 241 276
#     4   9  17  29  46  69  97 132 173 209 239 278
#     4  10  20  35  54  74  98 128 161 198 241 290
#     4   9  18  31  46  68 100 135 168 203 243 282
#
# _framework density 17.695188000000002
#
# number of rings (size 3 to 8) (size 9 to 14) (size 15 to 20)
#    0.000    2.833    0.000    2.500    0.000    3.667 
#    0.000    0.833    0.000    1.500    0.000    0.000 
#    0.000    0.000    0.000    0.000    0.000    0.000 
#
# Total GULP energy -595086.029258 kJ/mol
# GULP energy per Si atom -12397.625610 kJ/mol
# Density = 1.765491 g / cm^3
# Si number density = 17.695188 Si / 1000 Ang^3
#
#
#
# Elastic Constant Matrix: (Units=GPa)
#
#
# Indices 1 2 3 4 5 6 
#
# 1 68.4361 61.1909 30.2695 0.0000 0.0000 0.0000
# 2 61.1909 136.5020 45.0420 0.0000 0.0000 0.0000
# 3 30.2695 45.0420 52.0933 0.0000 0.0000 0.0000
# 4 0.0000 0.0000 0.0000 26.0178 0.0000 0.0000
# 5 0.0000 0.0000 0.0000 0.0000 23.6779 0.0000
# 6 0.0000 0.0000 0.0000 0.0000 0.0000 17.9750
#
#
#
# Elastic Compliance Matrix: (Units=1/GPa)
#
#
# Indices 1 2 3 4 5 6 
#
# 1 0.026125 -0.009378 -0.007072 0.000000 0.000000 0.000000
# 2 -0.009378 0.013617 -0.006324 0.000000 0.000000 0.000000
# 3 -0.007072 -0.006324 0.028774 0.000000 0.000000 0.000000
# 4 0.000000 0.000000 0.000000 0.038435 0.000000 0.000000
# 5 0.000000 0.000000 0.000000 0.000000 0.042234 0.000000
# 6 0.000000 0.000000 0.000000 0.000000 0.000000 0.055633
#
#
# Mechanical properties :
#
#
# Convention : Reuss Voigt Hill
#
# Bulk Modulus (GPa) = 43.53997 58.89289 51.21643
# Shear Modulus (GPa) = 19.37825 21.56940 20.47383
#
# Velocity S-wave (km/s) = 3.31284 3.49512 3.40520
# Velocity P-wave (km/s) = 6.26835 7.04571 6.66836
#
# Compressibility (1/GPa) = 0.02296740
#
# Stress axis : x y z
#
# Youngs Moduli (GPa) = 38.27742 73.43957 34.75372
#
# Poissons Ratio (x) = 0.68870 0.24578
# Poissons Ratio (y) = 0.35896 0.21980
# Poissons Ratio (z) = 0.27069 0.46446
#
# Static dielectric constant tensor:
#      x y z
#    x 3.190880 0.000000 0.000000 
#    y 0.000000 3.340840 0.000000 
#    z 0.000000 0.000000 3.102050 
# 
# 
# High freq. dielectric constant tensor:
#      x y z
#    x 1.671830 0.000000 0.000000 
#    y 0.000000 1.678730 0.000000 
#    z 0.000000 0.000000 1.670570 
# 
# From -- ./inp_files/8564.got.cif
#   From: 2010.03.12/outbox.cif.g09.slc.cpg/sg63_5_cif.got.tgz:8564.got - 2010.04.10 19:34:48.
