data_PCOD8258204
_publ_section_title
;
Structure prediction by ZEFSAII (Michael W. Deem and Ramdas Pophale) SiO2 
 PCOD8258204
Probable space group: C M C M
;
_chemical_formula_sum "Si O2"
_cell_formula_units_Z 112
_cell_length_a 26.696891
_cell_length_b 13.692274
_cell_length_c 18.635415
_cell_angle_alpha 90.000000
_cell_angle_beta 90.000000
_cell_angle_gamma 90.000000
_cell_volume 6812.010965
_symmetry_space_group_name_H-M "C M C M"
_symmetry_group_IT_number 63
_symmetry_cell_setting 'orthorhombic'
loop_
_space_group_symop_operation_xyz
x,y,z
-x,-y,1/2+z
x,-y,-z
-x,y,1/2-z
-x,-y,-z
x,y,1/2-z
-x,y,z
x,-y,1/2+z
1/2+x,1/2+y,z
1/2-x,1/2-y,1/2+z
1/2+x,1/2-y,-z
1/2-x,1/2+y,1/2-z
1/2-x,1/2-y,-z
1/2+x,1/2+y,1/2-z
1/2-x,1/2+y,z
1/2+x,1/2-y,1/2+z
loop_
_atom_site_type_symbol
_atom_site_label
_atom_site_fract_x
_atom_site_fract_y
_atom_site_fract_z
Si Si1 0.189595 0.795436 0.949798
Si Si2 0.556963 0.679514 0.166625
Si Si3 0.197217 0.090642 0.665416
Si Si4 0.799310 0.708223 0.089450
Si Si5 0.878775 0.031778 0.076101
Si Si6 0.197987 0.488778 0.666953
Si Si7 0.141473 0.323312 0.168369
O O1 0.248029 0.815755 0.951197
O O2 0.166151 0.900882 0.948484
O O3 0.180292 0.737692 0.877210
O O4 0.167237 0.740402 0.020600
O O5 0.560791 0.651111 0.250000
O O6 0.500000 0.695659 0.142217
O O7 0.580039 0.589695 0.122412
O O8 0.585447 0.783060 0.151726
O O9 0.187800 0.078792 0.750000
O O10 0.203813 0.204886 0.647302
O O11 0.147584 0.052270 0.624008
O O12 0.248366 0.033841 0.642442
O O13 0.818188 0.608952 0.125566
O O14 0.904119 0.000000 0.000000
O O15 0.201779 0.461751 0.750000
O O16 0.151268 0.562557 0.652045
O O17 0.156337 0.301038 0.250000
#
# Coordination Sequence:
#
# PCOD8258204 Si02
#       7
#    16  16  16  16  16  16  16
#     4  10  20  30  46  68  98 140 173 208 240 288
#     4   9  19  36  58  80  99 124 166 220 269 308
#     4  11  21  32  47  69 102 144 177 210 248 296
#     4  11  20  31  44  67 102 140 179 207 239 286
#     4  11  20  34  50  73 107 133 170 206 259 311
#     4  10  20  31  47  70  99 139 179 208 243 299
#     4   9  18  33  50  72  98 125 163 211 258 300
#
# _framework density 16.441547
#
# number of rings (size 3 to 8) (size 9 to 14) (size 15 to 20)
#    0.000    1.857    4.286    0.857    0.000    2.000 
#    0.000    0.000    0.000    0.000    0.000    9.000 
#    0.000    4.571    0.000    0.000    0.000    0.000 
#
# Total GULP energy -693824.439947 kJ/mol
# GULP energy per Si atom -12389.722142 kJ/mol
# Density = 1.640413 g / cm^3
# Si number density = 16.441547 Si / 1000 Ang^3
#
#
#
# Elastic Constant Matrix: (Units=GPa)
#
#
# Indices 1 2 3 4 5 6 
#
# 1 63.7564 29.6776 32.0020 0.0000 0.0000 0.0000
# 2 29.6776 102.1181 41.5113 0.0000 0.0000 0.0000
# 3 32.0020 41.5113 75.1843 0.0000 0.0000 0.0000
# 4 0.0000 0.0000 0.0000 27.9911 0.0000 0.0000
# 5 0.0000 0.0000 0.0000 0.0000 13.8125 0.0000
# 6 0.0000 0.0000 0.0000 0.0000 0.0000 10.6029
#
#
#
# Elastic Compliance Matrix: (Units=1/GPa)
#
#
# Indices 1 2 3 4 5 6 
#
# 1 0.020698 -0.003138 -0.007077 0.000000 0.000000 0.000000
# 2 -0.003138 0.013102 -0.005898 0.000000 0.000000 0.000000
# 3 -0.007077 -0.005898 0.019570 0.000000 0.000000 0.000000
# 4 0.000000 0.000000 0.000000 0.035726 0.000000 0.000000
# 5 0.000000 0.000000 0.000000 0.000000 0.072398 0.000000
# 6 0.000000 0.000000 0.000000 0.000000 0.000000 0.094314
#
#
# Mechanical properties :
#
#
# Convention : Reuss Voigt Hill
#
# Bulk Modulus (GPa) = 47.29896 49.71563 48.50730
# Shear Modulus (GPa) = 16.94437 19.67247 18.30842
#
# Velocity S-wave (km/s) = 3.21375 3.46281 3.34060
# Velocity P-wave (km/s) = 6.52697 6.80379 6.66682
#
# Compressibility (1/GPa) = 0.02114211
#
# Stress axis : x y z
#
# Youngs Moduli (GPa) = 48.31403 76.32232 51.09933
#
# Poissons Ratio (x) = 0.23952 0.36164
# Poissons Ratio (y) = 0.15162 0.30140
# Poissons Ratio (z) = 0.34193 0.45018
#
# Static dielectric constant tensor:
#      x y z
#    x 2.840700 0.000000 0.000000 
#    y 0.000000 3.207420 0.000000 
#    z 0.000000 0.000000 3.369780 
# 
# 
# High freq. dielectric constant tensor:
#      x y z
#    x 1.585430 0.000000 0.000000 
#    y 0.000000 1.633940 0.000000 
#    z 0.000000 0.000000 1.650020 
# 
# From -- ./inp_files/57611.got.cif
#   From: 2010.03.12/outbox.cif.g09.slc.cpg/sg63_29_cif.got.tgz:57611.got - 2010.04.10 19:34:48.
