data_PCOD8258381
_publ_section_title
;
Structure prediction by ZEFSAII (Michael W. Deem and Ramdas Pophale) SiO2 
 PCOD8258381
Probable space group: C M C M
;
_chemical_formula_sum "Si O2"
_cell_formula_units_Z 96
_cell_length_a 12.382676
_cell_length_b 24.853834
_cell_length_c 17.390347
_cell_angle_alpha 90.000000
_cell_angle_beta 90.000000
_cell_angle_gamma 90.000000
_cell_volume 5352.000566
_symmetry_space_group_name_H-M "C M C M"
_symmetry_group_IT_number 63
_symmetry_cell_setting 'orthorhombic'
loop_
_space_group_symop_operation_xyz
x,y,z
-x,-y,1/2+z
x,-y,-z
-x,y,1/2-z
-x,-y,-z
x,y,1/2-z
-x,y,z
x,-y,1/2+z
1/2+x,1/2+y,z
1/2-x,1/2-y,1/2+z
1/2+x,1/2-y,-z
1/2-x,1/2+y,1/2-z
1/2-x,1/2-y,-z
1/2+x,1/2+y,1/2-z
1/2-x,1/2+y,z
1/2+x,1/2-y,1/2+z
loop_
_atom_site_type_symbol
_atom_site_label
_atom_site_fract_x
_atom_site_fract_y
_atom_site_fract_z
Si Si1 0.627713 0.234498 0.162873
Si Si2 0.500000 0.000655 0.619463
Si Si3 0.623844 0.560386 0.838364
Si Si4 0.725763 0.035192 0.335998
Si Si5 0.793948 0.361631 0.937023
Si Si6 0.626469 0.336157 0.437459
Si Si7 0.000000 0.591241 0.993358
O O1 0.670156 0.242387 0.250000
O O2 0.500000 0.229004 0.162941
O O3 0.676783 0.180186 0.129222
O O4 0.664586 0.284756 0.111412
O O5 0.500000 0.062885 0.590367
O O6 0.605992 0.989653 0.669528
O O7 0.500000 0.957856 0.551575
O O8 0.648869 0.574604 0.750000
O O9 0.500000 0.544179 0.850112
O O10 0.694349 0.510561 0.867616
O O11 0.655273 0.611766 0.887998
O O12 0.758890 0.053644 0.250000
O O13 0.739164 0.083569 0.395172
O O14 0.894591 0.371532 0.994651
O O15 0.692839 0.338256 0.983697
O O16 0.500000 0.332863 0.457804
#
# Coordination Sequence:
#
# PCOD8258381 Si02
#       7
#    16   8  16  16  16  16   8
#     4  10  20  36  58  81 104 135 179 225 269 317
#     4   9  17  30  46  70 105 139 172 210 249 315
#     4   9  18  34  53  75 105 140 181 221 256 307
#     4  10  20  32  50  75 105 143 180 218 266 316
#     4  11  20  34  52  80 111 137 172 223 271 325
#     4  10  21  35  55  80 105 139 177 221 270 317
#     4   9  18  30  48  74 104 138 168 205 268 309
#
# _framework density 17.937217
#
# number of rings (size 3 to 8) (size 9 to 14) (size 15 to 20)
#    0.000    2.167    0.833    2.750    0.000    4.667 
#    0.000    1.667    0.000    1.500    0.000    0.000 
#    0.000    0.000    0.000    0.000    0.000    0.000 
#
# Total GULP energy -595272.163074 kJ/mol
# GULP energy per Si atom -12401.503397 kJ/mol
# Density = 1.789639 g / cm^3
# Si number density = 17.937217 Si / 1000 Ang^3
#
#
#
# Elastic Constant Matrix: (Units=GPa)
#
#
# Indices 1 2 3 4 5 6 
#
# 1 44.8570 27.5977 16.7310 0.0000 0.0000 0.0000
# 2 27.5977 94.0914 34.5602 0.0000 0.0000 0.0000
# 3 16.7310 34.5602 70.0642 0.0000 0.0000 0.0000
# 4 0.0000 0.0000 0.0000 32.5532 0.0000 0.0000
# 5 0.0000 0.0000 0.0000 0.0000 28.7247 0.0000
# 6 0.0000 0.0000 0.0000 0.0000 0.0000 27.2863
#
#
#
# Elastic Compliance Matrix: (Units=1/GPa)
#
#
# Indices 1 2 3 4 5 6 
#
# 1 0.027774 -0.006974 -0.003192 0.000000 0.000000 0.000000
# 2 -0.006974 0.014731 -0.005601 0.000000 0.000000 0.000000
# 3 -0.003192 -0.005601 0.017798 0.000000 0.000000 0.000000
# 4 0.000000 0.000000 0.000000 0.030719 0.000000 0.000000
# 5 0.000000 0.000000 0.000000 0.000000 0.034813 0.000000
# 6 0.000000 0.000000 0.000000 0.000000 0.000000 0.036648
#
#
# Mechanical properties :
#
#
# Convention : Reuss Voigt Hill
#
# Bulk Modulus (GPa) = 34.76021 40.75447 37.75734
# Shear Modulus (GPa) = 24.55714 26.38775 25.47245
#
# Velocity S-wave (km/s) = 3.70410 3.83968 3.77250
# Velocity P-wave (km/s) = 6.14123 6.51363 6.33017
#
# Compressibility (1/GPa) = 0.02876853
#
# Stress axis : x y z
#
# Youngs Moduli (GPa) = 36.00449 67.88573 56.18722
#
# Poissons Ratio (x) = 0.47342 0.17937
# Poissons Ratio (y) = 0.25109 0.31469
# Poissons Ratio (z) = 0.11494 0.38021
#
# Static dielectric constant tensor:
#      x y z
#    x 3.277020 0.000000 0.000000 
#    y 0.000000 3.369200 0.000000 
#    z 0.000000 0.000000 3.249100 
# 
# 
# High freq. dielectric constant tensor:
#      x y z
#    x 1.685070 0.000000 0.000000 
#    y 0.000000 1.697870 0.000000 
#    z 0.000000 0.000000 1.690580 
# 
# From -- ./inp_files/42543.got.cif
#   From: 2010.03.12/outbox.cif.g09.slc.cpg/sg63_22_cif.got.tgz:42543.got - 2010.04.10 19:34:48.
