data_PCOD8258782
_publ_section_title
;
Structure prediction by ZEFSAII (Michael W. Deem and Ramdas Pophale) SiO2 
 PCOD8258782
Probable space group: C M C M
;
_chemical_formula_sum "Si O2"
_cell_formula_units_Z 80
_cell_length_a 17.978599
_cell_length_b 27.414513
_cell_length_c 8.454063
_cell_angle_alpha 90.000000
_cell_angle_beta 90.000000
_cell_angle_gamma 90.000000
_cell_volume 4166.792379
_symmetry_space_group_name_H-M "C M C M"
_symmetry_group_IT_number 63
_symmetry_cell_setting 'orthorhombic'
loop_
_space_group_symop_operation_xyz
x,y,z
-x,-y,1/2+z
x,-y,-z
-x,y,1/2-z
-x,-y,-z
x,y,1/2-z
-x,y,z
x,-y,1/2+z
1/2+x,1/2+y,z
1/2-x,1/2-y,1/2+z
1/2+x,1/2-y,-z
1/2-x,1/2+y,1/2-z
1/2-x,1/2-y,-z
1/2+x,1/2+y,1/2-z
1/2-x,1/2+y,z
1/2+x,1/2-y,1/2+z
loop_
_atom_site_type_symbol
_atom_site_label
_atom_site_fract_x
_atom_site_fract_y
_atom_site_fract_z
Si Si1 0.294838 0.351756 0.434747
Si Si2 0.148528 0.310121 0.934512
Si Si3 0.415985 0.904557 0.066099
Si Si4 0.914537 0.213108 0.067441
Si Si5 0.726691 0.948043 0.564988
O O1 0.309881 0.348007 0.250000
O O2 0.228139 0.315355 0.481352
O O3 0.369093 0.335749 0.526828
O O4 0.275760 0.407018 0.480381
O O5 0.159292 0.320746 0.750000
O O6 0.091080 0.349096 0.006568
O O7 0.116161 0.256680 0.959938
O O8 0.394304 0.906497 0.250000
O O9 0.500000 0.922563 0.036617
O O10 0.360644 0.939973 0.971522
O O11 0.904336 0.227411 0.250000
O O12 0.000000 0.202929 0.025540
O O13 0.740680 0.945279 0.750000
O O14 0.752985 0.000000 0.500000
#
# Coordination Sequence:
#
# PCOD8258782 Si02
#       5
#    16  16  16  16  16
#     4  11  22  38  59  82 110 142 181 225 269 320
#     4  11  21  34  54  80 112 149 188 224 263 315
#     4  10  20  34  52  77 111 148 185 225 269 317
#     4  11  23  38  56  80 112 147 182 222 269 320
#     4  11  22  38  59  81 106 138 180 225 273 325
#
# _framework density 19.199421000000001
#
# number of rings (size 3 to 8) (size 9 to 14) (size 15 to 20)
#    0.000    1.200    0.000   10.200    0.000    6.000 
#    0.000    0.000    0.000    0.600    0.000    0.000 
#    0.000    0.000    0.000    0.000    0.000    0.000 
#
# Total GULP energy -496244.648495 kJ/mol
# GULP energy per Si atom -12406.116212 kJ/mol
# Density = 1.915572 g / cm^3
# Si number density = 19.199421 Si / 1000 Ang^3
#
#
#
# Elastic Constant Matrix: (Units=GPa)
#
#
# Indices 1 2 3 4 5 6 
#
# 1 97.4644 50.8687 24.8156 0.0000 0.0000 0.0000
# 2 50.8687 81.5629 4.1930 0.0000 0.0000 0.0000
# 3 24.8156 4.1930 86.0258 0.0000 0.0000 0.0000
# 4 0.0000 0.0000 0.0000 33.2674 0.0000 0.0000
# 5 0.0000 0.0000 0.0000 0.0000 27.3835 0.0000
# 6 0.0000 0.0000 0.0000 0.0000 0.0000 10.7826
#
#
#
# Elastic Compliance Matrix: (Units=1/GPa)
#
#
# Indices 1 2 3 4 5 6 
#
# 1 0.016668 -0.010174 -0.004312 0.000000 0.000000 0.000000
# 2 -0.010174 0.018501 0.002033 0.000000 0.000000 0.000000
# 3 -0.004312 0.002033 0.012769 0.000000 0.000000 0.000000
# 4 0.000000 0.000000 0.000000 0.030059 0.000000 0.000000
# 5 0.000000 0.000000 0.000000 0.000000 0.036518 0.000000
# 6 0.000000 0.000000 0.000000 0.000000 0.000000 0.092742
#
#
# Mechanical properties :
#
#
# Convention : Reuss Voigt Hill
#
# Bulk Modulus (GPa) = 43.41719 47.20087 45.30903
# Shear Modulus (GPa) = 20.84712 26.63175 23.73943
#
# Velocity S-wave (km/s) = 3.29875 3.72844 3.52016
# Velocity P-wave (km/s) = 6.09688 6.57061 6.33817
#
# Compressibility (1/GPa) = 0.02303235
#
# Stress axis : x y z
#
# Youngs Moduli (GPa) = 59.99516 54.05094 78.31288
#
# Poissons Ratio (x) = 0.54990 0.33771
# Poissons Ratio (y) = 0.61037 -0.15921
# Poissons Ratio (z) = 0.25872 -0.10989
#
# Static dielectric constant tensor:
#      x y z
#    x 3.472330 0.000000 0.000000 
#    y 0.000000 3.637570 0.000000 
#    z 0.000000 0.000000 3.615380 
# 
# 
# High freq. dielectric constant tensor:
#      x y z
#    x 1.731860 0.000000 0.000000 
#    y 0.000000 1.737690 0.000000 
#    z 0.000000 0.000000 1.767500 
# 
# From -- ./inp_files/6447.got.cif
#   From: 2010.03.12/outbox.cif.g09.slc.cpg/sg63_4_cif.got.tgz:6447.got - 2010.04.10 19:34:48.
