data_PCOD8258426
_publ_section_title
;
Structure prediction by ZEFSAII (Michael W. Deem and Ramdas Pophale) SiO2 
 PCOD8258426
Probable space group: C M C M
;
_chemical_formula_sum "Si O2"
_cell_formula_units_Z 80
_cell_length_a 18.642782
_cell_length_b 25.963408
_cell_length_c 9.345938
_cell_angle_alpha 90.000000
_cell_angle_beta 90.000000
_cell_angle_gamma 90.000000
_cell_volume 4523.715822
_symmetry_space_group_name_H-M "C M C M"
_symmetry_group_IT_number 63
_symmetry_cell_setting 'orthorhombic'
loop_
_space_group_symop_operation_xyz
x,y,z
-x,-y,1/2+z
x,-y,-z
-x,y,1/2-z
-x,-y,-z
x,y,1/2-z
-x,y,z
x,-y,1/2+z
1/2+x,1/2+y,z
1/2-x,1/2-y,1/2+z
1/2+x,1/2-y,-z
1/2-x,1/2+y,1/2-z
1/2-x,1/2-y,-z
1/2+x,1/2+y,1/2-z
1/2-x,1/2+y,z
1/2+x,1/2-y,1/2+z
loop_
_atom_site_type_symbol
_atom_site_label
_atom_site_fract_x
_atom_site_fract_y
_atom_site_fract_z
Si Si1 0.420441 0.841293 0.920628
Si Si2 0.085272 0.951261 0.587885
Si Si3 0.917048 0.851112 0.084108
Si Si4 0.085523 0.453525 0.591711
Si Si5 0.324163 0.251815 0.081208
O O1 0.424059 0.841579 0.750000
O O2 0.500000 0.830188 0.981761
O O3 0.392734 0.897620 0.973019
O O4 0.367943 0.797291 0.977008
O O5 0.115489 0.952194 0.750000
O O6 0.110198 0.898980 0.510253
O O7 0.000000 0.954123 0.589618
O O8 0.116315 0.000000 0.500000
O O9 0.907493 0.865887 0.250000
O O10 0.868775 0.802573 0.040906
O O11 0.000000 0.837397 0.051990
O O12 0.118946 0.500000 0.500000
O O13 0.117600 0.459806 0.750000
O O14 0.000000 0.456876 0.596267
O O15 0.310638 0.248537 0.250000
O O16 0.250000 0.250000 0.000000
#
# Coordination Sequence:
#
# PCOD8258426 Si02
#       5
#    16  16  16  16  16
#     4   8  14  27  48  70  90 118 157 192 221 264
#     4   9  16  26  43  69  99 126 151 185 231 280
#     4   9  17  30  49  71  93 120 157 198 236 277
#     4   8  13  22  39  64  91 115 141 177 220 263
#     4  10  20  33  49  68  92 122 156 195 238 282
#
# _framework density 17.684577000000001
#
# number of rings (size 3 to 8) (size 9 to 14) (size 15 to 20)
#    0.000    3.200    0.000    2.400    0.000    5.600 
#    0.000    1.000    0.000    4.200    0.000    5.600 
#    0.000    0.000    0.000    0.000    0.000    0.000 
#
# Total GULP energy -495793.972564 kJ/mol
# GULP energy per Si atom -12394.849314 kJ/mol
# Density = 1.764433 g / cm^3
# Si number density = 17.684577 Si / 1000 Ang^3
#
#
#
# Elastic Constant Matrix: (Units=GPa)
#
#
# Indices 1 2 3 4 5 6 
#
# 1 69.0886 67.4605 33.9460 0.0000 0.0000 0.0000
# 2 67.4605 196.5697 75.5749 0.0000 0.0000 0.0000
# 3 33.9460 75.5749 76.3677 0.0000 0.0000 0.0000
# 4 0.0000 0.0000 0.0000 31.0554 0.0000 0.0000
# 5 0.0000 0.0000 0.0000 0.0000 20.4099 0.0000
# 6 0.0000 0.0000 0.0000 0.0000 0.0000 2.2117
#
#
#
# Elastic Compliance Matrix: (Units=1/GPa)
#
#
# Indices 1 2 3 4 5 6 
#
# 1 0.022431 -0.006238 -0.003797 0.000000 0.000000 0.000000
# 2 -0.006238 0.009946 -0.007070 0.000000 0.000000 0.000000
# 3 -0.003797 -0.007070 0.021779 0.000000 0.000000 0.000000
# 4 0.000000 0.000000 0.000000 0.032201 0.000000 0.000000
# 5 0.000000 0.000000 0.000000 0.000000 0.048996 0.000000
# 6 0.000000 0.000000 0.000000 0.000000 0.000000 0.452143
#
#
# Mechanical properties :
#
#
# Convention : Reuss Voigt Hill
#
# Bulk Modulus (GPa) = 50.13720 77.33210 63.73465
# Shear Modulus (GPa) = 7.95727 21.73837 14.84782
#
# Velocity S-wave (km/s) = 2.12352 3.50984 2.90071
# Velocity P-wave (km/s) = 5.86726 7.76201 6.88017
#
# Compressibility (1/GPa) = 0.01994527
#
# Stress axis : x y z
#
# Youngs Moduli (GPa) = 44.58100 100.53905 45.91498
#
# Poissons Ratio (x) = 0.62717 0.17436
# Poissons Ratio (y) = 0.27810 0.32463
# Poissons Ratio (z) = 0.16929 0.71084
#
# Static dielectric constant tensor:
#      x y z
#    x 2.854770 0.000000 0.000000 
#    y 0.000000 3.660820 0.000000 
#    z 0.000000 0.000000 3.193390 
# 
# 
# High freq. dielectric constant tensor:
#      x y z
#    x 1.633410 0.000000 0.000000 
#    y 0.000000 1.705040 0.000000 
#    z 0.000000 0.000000 1.661700 
# 
# From -- ./inp_files/6381.got.cif
#   From: 2010.03.12/outbox.cif.g09.slc.cpg/sg63_4_cif.got.tgz:6381.got - 2010.04.10 19:34:48.
