data_PCOD8258192
_publ_section_title
;
Structure prediction by ZEFSAII (Michael W. Deem and Ramdas Pophale) SiO2 
 PCOD8258192
Probable space group: C M C M
;
_chemical_formula_sum "Si O2"
_cell_formula_units_Z 64
_cell_length_a 19.375288
_cell_length_b 16.039443
_cell_length_c 10.006319
_cell_angle_alpha 90.000000
_cell_angle_beta 90.000000
_cell_angle_gamma 90.000000
_cell_volume 3109.652023
_symmetry_space_group_name_H-M "C M C M"
_symmetry_group_IT_number 63
_symmetry_cell_setting 'orthorhombic'
loop_
_space_group_symop_operation_xyz
x,y,z
-x,-y,1/2+z
x,-y,-z
-x,y,1/2-z
-x,-y,-z
x,y,1/2-z
-x,y,z
x,-y,1/2+z
1/2+x,1/2+y,z
1/2-x,1/2-y,1/2+z
1/2+x,1/2-y,-z
1/2-x,1/2+y,1/2-z
1/2-x,1/2-y,-z
1/2+x,1/2+y,1/2-z
1/2-x,1/2+y,z
1/2+x,1/2-y,1/2+z
loop_
_atom_site_type_symbol
_atom_site_label
_atom_site_fract_x
_atom_site_fract_y
_atom_site_fract_z
Si Si1 0.500000 0.712764 0.750000
Si Si2 0.500000 0.330236 0.750000
Si Si3 0.724305 0.401052 0.007120
Si Si4 0.500000 0.197236 0.972224
Si Si5 0.862307 0.108659 0.750000
Si Si6 0.626970 0.919616 0.409172
Si Si7 0.647238 0.409652 0.750000
O O1 0.500000 0.775913 0.625984
O O2 0.437071 0.648712 0.750000
O O3 0.500000 0.279609 0.614275
O O4 0.567924 0.385417 0.750000
O O5 0.677531 0.359188 0.120259
O O6 0.803360 0.375693 0.036062
O O7 0.720563 0.500000 0.000000
O O8 0.691164 0.369101 0.870148
O O9 0.433245 0.145169 0.932748
O O10 0.858878 0.008941 0.750000
O O11 0.633561 0.942645 0.250000
O O12 0.610519 0.000000 0.500000
#
# Coordination Sequence:
#
# PCOD8258192 Si02
#       7
#     4   4  16   8   8  16   8
#     4  12  27  40  61  88 130 178 206 254 309 376
#     4  12  23  44  61  90 134 176 212 252 319 362
#     4   9  19  35  64  95 124 151 205 269 312 358
#     4  12  27  44  60  90 135 168 209 261 310 377
#     4  10  19  41  60  93 124 159 213 260 304 358
#     4  11  23  43  71  95 122 160 207 263 318 376
#     4  10  21  37  68  97 122 169 213 258 306 376
#
# _framework density 20.58108
#
# number of rings (size 3 to 8) (size 9 to 14) (size 15 to 20)
#    0.000    1.500    2.500    2.250    7.000    0.000 
#    0.000   12.500    0.000    0.000    0.000    0.000 
#    0.000    0.000    0.000    0.000    0.000    0.000 
#
# Total GULP energy -396612.024774 kJ/mol
# GULP energy per Si atom -12394.125774 kJ/mol
# Density = 2.053424 g / cm^3
# Si number density = 20.581080 Si / 1000 Ang^3
#
#
#
# Elastic Constant Matrix: (Units=GPa)
#
#
# Indices 1 2 3 4 5 6 
#
# 1 172.3084 26.1554 70.8679 0.0000 0.0000 0.0000
# 2 26.1554 32.2329 28.8667 0.0000 0.0000 0.0000
# 3 70.8679 28.8667 189.4239 0.0000 0.0000 0.0000
# 4 0.0000 0.0000 0.0000 12.3760 0.0000 0.0000
# 5 0.0000 0.0000 0.0000 0.0000 -6.5374 0.0000
# 6 0.0000 0.0000 0.0000 0.0000 0.0000 -7.1696
#
#
#
# Elastic Compliance Matrix: (Units=1/GPa)
#
#
# Indices 1 2 3 4 5 6 
#
# 1 0.007282 -0.004017 -0.002112 0.000000 0.000000 0.000000
# 2 -0.004017 0.038144 -0.004310 0.000000 0.000000 0.000000
# 3 -0.002112 -0.004310 0.006726 0.000000 0.000000 0.000000
# 4 0.000000 0.000000 0.000000 0.080802 0.000000 0.000000
# 5 0.000000 0.000000 0.000000 0.000000 -0.152965 0.000000
# 6 0.000000 0.000000 0.000000 0.000000 0.000000 -0.139477
#
#
# Mechanical properties :
#
#
# Convention : Reuss Voigt Hill
#
# Bulk Modulus (GPa) = 31.97621 71.74948 51.86285
# Shear Modulus (GPa) = -39.00594 17.60547 -10.70024
#
# Velocity S-wave (km/s) = -4.35815 2.92793 -2.28262
# Velocity P-wave (km/s) = 3.12317 6.80940 4.27865
#
# Compressibility (1/GPa) = 0.03127324
#
# Stress axis : x y z
#
# Youngs Moduli (GPa) = 137.32353 26.21655 148.67333
#
# Poissons Ratio (x) = 0.10532 0.31402
# Poissons Ratio (y) = 0.55169 0.64075
# Poissons Ratio (z) = 0.29005 0.11299
#
# Static dielectric constant tensor:
#      x y z
#    x 4.013460 0.000000 0.000000 
#    y 0.000000 3.336030 0.000000 
#    z 0.000000 0.000000 4.386030 
# 
# 
# High freq. dielectric constant tensor:
#      x y z
#    x 1.827300 0.000000 0.000000 
#    y 0.000000 1.774000 0.000000 
#    z 0.000000 0.000000 1.828930 
# 
# From -- ./inp_files/7587.got.cif
#   From: 2010.03.12/outbox.cif.g09.slc.cpg/sg63_4_cif.got.tgz:7587.got - 2010.04.10 19:34:48.
