data_PCOD8258385
_publ_section_title
;
Structure prediction by ZEFSAII (Michael W. Deem and Ramdas Pophale) SiO2 
 PCOD8258385
Probable space group: C M C M
;
_chemical_formula_sum "Si O2"
_cell_formula_units_Z 48
_cell_length_a 9.434315
_cell_length_b 37.882429
_cell_length_c 7.599831
_cell_angle_alpha 90.000000
_cell_angle_beta 90.000000
_cell_angle_gamma 90.000000
_cell_volume 2716.139838
_symmetry_space_group_name_H-M "C M C M"
_symmetry_group_IT_number 63
_symmetry_cell_setting 'orthorhombic'
loop_
_space_group_symop_operation_xyz
x,y,z
-x,-y,1/2+z
x,-y,-z
-x,y,1/2-z
-x,-y,-z
x,y,1/2-z
-x,y,z
x,-y,1/2+z
1/2+x,1/2+y,z
1/2-x,1/2-y,1/2+z
1/2+x,1/2-y,-z
1/2-x,1/2+y,1/2-z
1/2-x,1/2-y,-z
1/2+x,1/2+y,1/2-z
1/2-x,1/2+y,z
1/2+x,1/2-y,1/2+z
loop_
_atom_site_type_symbol
_atom_site_label
_atom_site_fract_x
_atom_site_fract_y
_atom_site_fract_z
Si Si1 0.163665 0.784352 0.950032
Si Si2 0.668318 0.961844 0.945768
Si Si3 0.831529 0.589546 0.750000
Si Si4 0.334671 0.661699 0.750000
O O1 0.195782 0.795957 0.750000
O O2 0.000000 0.774658 0.977945
O O3 0.250000 0.750000 0.000000
O O4 0.207608 0.816382 0.076397
O O5 0.721199 0.952022 0.750000
O O6 0.500000 0.964048 0.953670
O O7 0.721702 0.931835 0.078835
O O8 0.730972 0.000000 0.000000
O O9 0.758433 0.627041 0.750000
O O10 0.000000 0.594716 0.750000
O O11 0.500000 0.651710 0.750000
#
# Coordination Sequence:
#
# PCOD8258385 Si02
#       4
#    16  16   8   8
#     4  10  20  35  57  81 103 134 176 216 258 310
#     4   9  15  26  47  75 103 130 165 213 262 302
#     4  10  20  32  50  78 105 132 171 215 256 301
#     4  10  22  38  52  74 111 144 167 205 264 315
#
# _framework density 17.672139000000001
#
# number of rings (size 3 to 8) (size 9 to 14) (size 15 to 20)
#    0.000    2.333    3.333    0.000    0.000    2.667 
#    0.000    0.000    0.000    1.000    0.000    0.000 
#    0.000    0.000    0.000    0.000    0.000    0.000 
#
# Total GULP energy -297587.456293 kJ/mol
# GULP energy per Si atom -12399.477346 kJ/mol
# Density = 1.763192 g / cm^3
# Si number density = 17.672139 Si / 1000 Ang^3
#
#
#
# Elastic Constant Matrix: (Units=GPa)
#
#
# Indices 1 2 3 4 5 6 
#
# 1 34.4061 53.4848 37.9283 0.0000 0.0000 0.0000
# 2 53.4848 169.0981 99.0604 0.0000 0.0000 0.0000
# 3 37.9283 99.0604 192.0648 0.0000 0.0000 0.0000
# 4 0.0000 0.0000 0.0000 32.9122 0.0000 0.0000
# 5 0.0000 0.0000 0.0000 0.0000 14.9728 0.0000
# 6 0.0000 0.0000 0.0000 0.0000 0.0000 27.1676
#
#
#
# Elastic Compliance Matrix: (Units=1/GPa)
#
#
# Indices 1 2 3 4 5 6 
#
# 1 0.058260 -0.016748 -0.002867 0.000000 0.000000 0.000000
# 2 -0.016748 0.013289 -0.003546 0.000000 0.000000 0.000000
# 3 -0.002867 -0.003546 0.007602 0.000000 0.000000 0.000000
# 4 0.000000 0.000000 0.000000 0.030384 0.000000 0.000000
# 5 0.000000 0.000000 0.000000 0.000000 0.066788 0.000000
# 6 0.000000 0.000000 0.000000 0.000000 0.000000 0.036809
#
#
# Mechanical properties :
#
#
# Convention : Reuss Voigt Hill
#
# Bulk Modulus (GPa) = 30.46205 86.27956 58.37080
# Shear Modulus (GPa) = 18.49142 28.68353 23.58748
#
# Velocity S-wave (km/s) = 3.23826 4.03313 3.65735
# Velocity P-wave (km/s) = 5.59075 8.40337 7.13698
#
# Compressibility (1/GPa) = 0.03282774
#
# Stress axis : x y z
#
# Youngs Moduli (GPa) = 17.16450 75.25297 131.54587
#
# Poissons Ratio (x) = 1.26031 0.37715
# Poissons Ratio (y) = 0.28747 0.46652
# Poissons Ratio (z) = 0.04921 0.26688
#
# Static dielectric constant tensor:
#      x y z
#    x 2.892320 0.000000 0.000000 
#    y 0.000000 3.186090 0.000000 
#    z 0.000000 0.000000 3.793760 
# 
# 
# High freq. dielectric constant tensor:
#      x y z
#    x 1.640000 0.000000 0.000000 
#    y 0.000000 1.679990 0.000000 
#    z 0.000000 0.000000 1.708180 
# 
# From -- ./inp_files/2010.got.cif
#   From: 2010.03.12/outbox.cif.g09.slc.cpg/sg63_2_cif.got.tgz:2010.got - 2010.04.10 19:34:48.
