data_PCOD8258084
_publ_section_title
;
Structure prediction by ZEFSAII (Michael W. Deem and Ramdas Pophale) SiO2 
 PCOD8258084
Probable space group: C M C M
;
_chemical_formula_sum "Si O2"
_cell_formula_units_Z 112
_cell_length_a 13.791123
_cell_length_b 14.743325
_cell_length_c 26.594882
_cell_angle_alpha 90.000000
_cell_angle_beta 90.000000
_cell_angle_gamma 90.000000
_cell_volume 5407.457799
_symmetry_space_group_name_H-M "C M C M"
_symmetry_group_IT_number 63
_symmetry_cell_setting 'orthorhombic'
loop_
_space_group_symop_operation_xyz
x,y,z
-x,-y,1/2+z
x,-y,-z
-x,y,1/2-z
-x,-y,-z
x,y,1/2-z
-x,y,z
x,-y,1/2+z
1/2+x,1/2+y,z
1/2-x,1/2-y,1/2+z
1/2+x,1/2-y,-z
1/2-x,1/2+y,1/2-z
1/2-x,1/2-y,-z
1/2+x,1/2+y,1/2-z
1/2-x,1/2+y,z
1/2+x,1/2-y,1/2+z
loop_
_atom_site_type_symbol
_atom_site_label
_atom_site_fract_x
_atom_site_fract_y
_atom_site_fract_z
Si Si1 0.759911 0.459214 0.693547
Si Si2 0.891472 0.813230 0.807652
Si Si3 0.107326 0.419959 0.057903
Si Si4 0.789069 0.102637 0.006684
Si Si5 0.781068 0.353454 0.147686
Si Si6 0.106702 0.805080 0.422724
Si Si7 0.336869 0.890809 0.592233
O O1 0.798610 0.436399 0.750000
O O2 0.653207 0.414365 0.686230
O O3 0.757716 0.568418 0.688525
O O4 0.829303 0.415823 0.651073
O O5 0.903129 0.786679 0.750000
O O6 0.812434 0.742517 0.829453
O O7 0.000000 0.809850 0.832403
O O8 0.184528 0.380255 0.019113
O O9 0.129117 0.383545 0.113558
O O10 0.113082 0.529275 0.060159
O O11 0.000000 0.389672 0.041550
O O12 0.864795 0.170869 0.980609
O O13 0.770752 0.124682 0.066076
O O14 0.827310 0.000000 0.000000
O O15 0.683059 0.348314 0.115349
O O16 0.099369 0.697966 0.414248
O O17 0.000000 0.845494 0.412027
#
# Coordination Sequence:
#
# PCOD8258084 Si02
#       7
#    16  16  16  16  16  16  16
#     4  10  21  38  62  86 116 157 195 242 306 361
#     4  10  20  36  61  89 115 151 203 255 302 355
#     4   9  18  32  56  87 115 146 187 240 303 362
#     4   9  20  36  55  81 116 151 195 245 294 354
#     4  10  20  37  58  86 122 157 193 246 301 361
#     4  11  22  36  57  84 117 160 199 235 289 361
#     4  10  19  36  57  81 117 150 190 244 297 359
#
# _framework density 20.712135
#
# number of rings (size 3 to 8) (size 9 to 14) (size 15 to 20)
#    0.000    2.143    1.429    2.571    0.000    4.000 
#    0.000    0.714    0.000   11.571    0.000    0.000 
#    0.000    0.000    0.000    0.000    0.000    0.000 
#
# Total GULP energy -693968.918042 kJ/mol
# GULP energy per Si atom -12392.302108 kJ/mol
# Density = 2.066499 g / cm^3
# Si number density = 20.712135 Si / 1000 Ang^3
#
#
#
# Elastic Constant Matrix: (Units=GPa)
#
#
# Indices 1 2 3 4 5 6 
#
# 1 102.4402 17.0188 12.6269 0.0000 0.0000 0.0000
# 2 17.0188 72.4084 8.5936 0.0000 0.0000 0.0000
# 3 12.6269 8.5936 75.5417 0.0000 0.0000 0.0000
# 4 0.0000 0.0000 0.0000 21.5281 0.0000 0.0000
# 5 0.0000 0.0000 0.0000 0.0000 11.9675 0.0000
# 6 0.0000 0.0000 0.0000 0.0000 0.0000 16.2021
#
#
#
# Elastic Compliance Matrix: (Units=1/GPa)
#
#
# Indices 1 2 3 4 5 6 
#
# 1 0.010317 -0.002251 -0.001468 0.000000 0.000000 0.000000
# 2 -0.002251 0.014491 -0.001272 0.000000 0.000000 0.000000
# 3 -0.001468 -0.001272 0.013628 0.000000 0.000000 0.000000
# 4 0.000000 0.000000 0.000000 0.046451 0.000000 0.000000
# 5 0.000000 0.000000 0.000000 0.000000 0.083560 0.000000
# 6 0.000000 0.000000 0.000000 0.000000 0.000000 0.061720
#
#
# Mechanical properties :
#
#
# Convention : Reuss Voigt Hill
#
# Bulk Modulus (GPa) = 35.14613 36.31878 35.73245
# Shear Modulus (GPa) = 20.02942 24.08294 22.05618
#
# Velocity S-wave (km/s) = 3.11310 3.41360 3.26681
# Velocity P-wave (km/s) = 5.47061 5.75413 5.61416
#
# Compressibility (1/GPa) = 0.02845264
#
# Stress axis : x y z
#
# Youngs Moduli (GPa) = 96.93035 69.01067 73.37882
#
# Poissons Ratio (x) = 0.15531 0.10775
# Poissons Ratio (y) = 0.21815 0.09336
# Poissons Ratio (z) = 0.14234 0.08780
#
# Static dielectric constant tensor:
#      x y z
#    x 3.560210 0.000000 0.000000 
#    y 0.000000 3.735500 0.000000 
#    z 0.000000 0.000000 3.894980 
# 
# 
# High freq. dielectric constant tensor:
#      x y z
#    x 1.782350 0.000000 0.000000 
#    y 0.000000 1.813130 0.000000 
#    z 0.000000 0.000000 1.810070 
# 
# From -- ./inp_files/73521.got.cif
#   From: 2010.03.12/outbox.cif.g09.slc.cpg/sg63_37_cif.got.tgz:73521.got - 2010.04.10 19:34:48.
