data_PCOD8258242
_publ_section_title
;
Structure prediction by ZEFSAII (Michael W. Deem and Ramdas Pophale) SiO2 
 PCOD8258242
Probable space group: C M C M
;
_chemical_formula_sum "Si O2"
_cell_formula_units_Z 112
_cell_length_a 14.196878
_cell_length_b 28.889336
_cell_length_c 14.620095
_cell_angle_alpha 90.000000
_cell_angle_beta 90.000000
_cell_angle_gamma 90.000000
_cell_volume 5996.262060
_symmetry_space_group_name_H-M "C M C M"
_symmetry_group_IT_number 63
_symmetry_cell_setting 'orthorhombic'
loop_
_space_group_symop_operation_xyz
x,y,z
-x,-y,1/2+z
x,-y,-z
-x,y,1/2-z
-x,-y,-z
x,y,1/2-z
-x,y,z
x,-y,1/2+z
1/2+x,1/2+y,z
1/2-x,1/2-y,1/2+z
1/2+x,1/2-y,-z
1/2-x,1/2+y,1/2-z
1/2-x,1/2-y,-z
1/2+x,1/2+y,1/2-z
1/2-x,1/2+y,z
1/2+x,1/2-y,1/2+z
loop_
_atom_site_type_symbol
_atom_site_label
_atom_site_fract_x
_atom_site_fract_y
_atom_site_fract_z
Si Si1 0.389666 0.687813 0.355090
Si Si2 0.897055 0.470858 0.142752
Si Si3 0.788381 0.980672 0.854705
Si Si4 0.111345 0.290895 0.350321
Si Si5 0.393985 0.878041 0.035662
Si Si6 0.609905 0.575260 0.646005
Si Si7 0.702984 0.607536 0.033048
O O1 0.360969 0.678549 0.250000
O O2 0.500000 0.680623 0.368102
O O3 0.358706 0.739735 0.384516
O O4 0.337889 0.652869 0.421335
O O5 0.882889 0.468128 0.250000
O O6 0.812883 0.502606 0.103353
O O7 0.890967 0.418304 0.110362
O O8 0.000000 0.492218 0.116267
O O9 0.777252 0.964377 0.750000
O O10 0.829223 0.938330 0.913271
O O11 0.863699 0.021481 0.863980
O O12 0.155768 0.300173 0.250000
O O13 0.143679 0.330332 0.420102
O O14 0.000000 0.292746 0.340639
O O15 0.500000 0.873127 0.994476
O O16 0.316957 0.889607 0.958457
O O17 0.633679 0.591842 0.750000
O O18 0.500000 0.581225 0.624802
O O19 0.668852 0.605249 0.572662
#
# Coordination Sequence:
#
# PCOD8258242 Si02
#       7
#    16  16  16  16  16  16  16
#     4   9  19  36  57  81 106 133 174 226 272 317
#     4   9  17  31  51  74 102 135 173 216 259 304
#     4  10  21  36  51  73 103 137 179 220 259 309
#     4   8  15  31  54  78 105 135 171 222 275 315
#     4  10  20  31  49  78 108 139 176 216 264 316
#     4  10  22  38  53  72 102 138 177 221 266 316
#     4  12  22  33  54  79 107 142 176 216 267 319
#
# _framework density 18.678303
#
# number of rings (size 3 to 8) (size 9 to 14) (size 15 to 20)
#    0.000    2.286    1.429    2.571    0.000    5.143 
#    0.000    2.857    0.000    1.286    0.000    0.000 
#    0.000    4.571    0.000    0.000    0.000    0.000 
#
# Total GULP energy -694131.622562 kJ/mol
# GULP energy per Si atom -12395.207546 kJ/mol
# Density = 1.863579 g / cm^3
# Si number density = 18.678303 Si / 1000 Ang^3
#
#
#
# Elastic Constant Matrix: (Units=GPa)
#
#
# Indices 1 2 3 4 5 6 
#
# 1 69.0605 12.3314 24.8319 0.0000 0.0000 0.0000
# 2 12.3314 73.0333 28.3796 0.0000 0.0000 0.0000
# 3 24.8319 28.3796 66.5282 0.0000 0.0000 0.0000
# 4 0.0000 0.0000 0.0000 16.9488 0.0000 0.0000
# 5 0.0000 0.0000 0.0000 0.0000 17.1374 0.0000
# 6 0.0000 0.0000 0.0000 0.0000 0.0000 24.6351
#
#
#
# Elastic Compliance Matrix: (Units=1/GPa)
#
#
# Indices 1 2 3 4 5 6 
#
# 1 0.016739 -0.000478 -0.006044 0.000000 0.000000 0.000000
# 2 -0.000478 0.016427 -0.006829 0.000000 0.000000 0.000000
# 3 -0.006044 -0.006829 0.020200 0.000000 0.000000 0.000000
# 4 0.000000 0.000000 0.000000 0.059001 0.000000 0.000000
# 5 0.000000 0.000000 0.000000 0.000000 0.058352 0.000000
# 6 0.000000 0.000000 0.000000 0.000000 0.000000 0.040593
#
#
# Mechanical properties :
#
#
# Convention : Reuss Voigt Hill
#
# Bulk Modulus (GPa) = 37.50338 37.74530 37.62434
# Shear Modulus (GPa) = 20.25109 21.28287 20.76698
#
# Velocity S-wave (km/s) = 3.29630 3.37923 3.33802
# Velocity P-wave (km/s) = 5.88299 5.95630 5.91976
#
# Compressibility (1/GPa) = 0.02666426
#
# Stress axis : x y z
#
# Youngs Moduli (GPa) = 59.74231 60.87660 49.50437
#
# Poissons Ratio (x) = 0.02908 0.29920
# Poissons Ratio (y) = 0.02854 0.33806
# Poissons Ratio (z) = 0.36108 0.41573
#
# Static dielectric constant tensor:
#      x y z
#    x 3.514900 0.000000 0.000000 
#    y 0.000000 3.552330 0.000000 
#    z 0.000000 0.000000 3.385060 
# 
# 
# High freq. dielectric constant tensor:
#      x y z
#    x 1.718360 0.000000 0.000000 
#    y 0.000000 1.717970 0.000000 
#    z 0.000000 0.000000 1.711130 
# 
# From -- ./inp_files/32752.got.cif
#   From: 2010.03.12/outbox.cif.g09.slc.cpg/sg63_17_cif.got.tgz:32752.got - 2010.04.10 19:34:48.
