data_PCOD8258869
_publ_section_title
;
Structure prediction by ZEFSAII (Michael W. Deem and Ramdas Pophale) SiO2 
 PCOD8258869
Probable space group: C M C M
;
_chemical_formula_sum "Si O2"
_cell_formula_units_Z 80
_cell_length_a 18.728689
_cell_length_b 19.868713
_cell_length_c 10.864514
_cell_angle_alpha 90.000000
_cell_angle_beta 90.000000
_cell_angle_gamma 90.000000
_cell_volume 4042.848047
_symmetry_space_group_name_H-M "C M C M"
_symmetry_group_IT_number 63
_symmetry_cell_setting 'orthorhombic'
loop_
_space_group_symop_operation_xyz
x,y,z
-x,-y,1/2+z
x,-y,-z
-x,y,1/2-z
-x,-y,-z
x,y,1/2-z
-x,y,z
x,-y,1/2+z
1/2+x,1/2+y,z
1/2-x,1/2-y,1/2+z
1/2+x,1/2-y,-z
1/2-x,1/2+y,1/2-z
1/2-x,1/2-y,-z
1/2+x,1/2+y,1/2-z
1/2-x,1/2+y,z
1/2+x,1/2-y,1/2+z
loop_
_atom_site_type_symbol
_atom_site_label
_atom_site_fract_x
_atom_site_fract_y
_atom_site_fract_z
Si Si1 0.818714 0.927841 0.034090
Si Si2 0.085321 0.103579 0.750000
Si Si3 0.083202 0.255057 0.750000
Si Si4 0.273481 0.803532 0.392307
Si Si5 0.423035 0.645321 0.385779
Si Si6 0.079789 0.712838 0.511270
O O1 0.883154 0.934625 0.131628
O O2 0.758996 0.876702 0.082125
O O3 0.856378 0.902945 0.909028
O O4 0.783827 0.000000 0.000000
O O5 0.117322 0.180149 0.750000
O O6 0.000000 0.098138 0.750000
O O7 0.103770 0.299490 0.630515
O O8 0.000000 0.240969 0.750000
O O9 0.255776 0.779706 0.250000
O O10 0.250000 0.750000 0.500000
O O11 0.359132 0.816159 0.399895
O O12 0.414066 0.676428 0.250000
O O13 0.500000 0.607914 0.397751
O O14 0.421961 0.706268 0.481873
O O15 0.000000 0.683534 0.541797
#
# Coordination Sequence:
#
# PCOD8258869 Si02
#       6
#    16   8   8  16  16  16
#     4  12  26  41  56  84 127 171 212 255 311 378
#     4  11  20  38  61  80 117 171 217 252 298 359
#     4   9  16  32  59  90 124 159 195 252 315 373
#     4  12  25  42  66  94 128 169 214 264 324 383
#     4  10  20  34  53  82 118 157 203 254 303 360
#     4  10  20  36  62  94 124 155 204 262 319 376
#
# _framework density 19.788029000000002
#
# number of rings (size 3 to 8) (size 9 to 14) (size 15 to 20)
#    0.000    1.200    5.000    1.200    2.800    2.800 
#    0.000    0.000    0.000    0.600    0.000    0.000 
#    0.000    0.000    0.000    0.000    0.000    0.000 
#
# Total GULP energy -495545.841676 kJ/mol
# GULP energy per Si atom -12388.646042 kJ/mol
# Density = 1.974299 g / cm^3
# Si number density = 19.788029 Si / 1000 Ang^3
#
#
#
# Elastic Constant Matrix: (Units=GPa)
#
#
# Indices 1 2 3 4 5 6 
#
# 1 111.9456 43.1220 42.2393 0.0000 0.0000 0.0000
# 2 43.1220 71.6809 26.9415 0.0000 0.0000 0.0000
# 3 42.2393 26.9415 116.4670 0.0000 0.0000 0.0000
# 4 0.0000 0.0000 0.0000 12.2026 0.0000 0.0000
# 5 0.0000 0.0000 0.0000 0.0000 26.8361 0.0000
# 6 0.0000 0.0000 0.0000 0.0000 0.0000 21.4993
#
#
#
# Elastic Compliance Matrix: (Units=1/GPa)
#
#
# Indices 1 2 3 4 5 6 
#
# 1 0.012558 -0.006399 -0.003074 0.000000 0.000000 0.000000
# 2 -0.006399 0.018540 -0.001968 0.000000 0.000000 0.000000
# 3 -0.003074 -0.001968 0.010156 0.000000 0.000000 0.000000
# 4 0.000000 0.000000 0.000000 0.081950 0.000000 0.000000
# 5 0.000000 0.000000 0.000000 0.000000 0.037263 0.000000
# 6 0.000000 0.000000 0.000000 0.000000 0.000000 0.046513
#
#
# Mechanical properties :
#
#
# Convention : Reuss Voigt Hill
#
# Bulk Modulus (GPa) = 54.43163 58.29992 56.36577
# Shear Modulus (GPa) = 21.18768 24.62700 22.90734
#
# Velocity S-wave (km/s) = 3.27575 3.53163 3.40610
# Velocity P-wave (km/s) = 6.47105 6.79383 6.63440
#
# Compressibility (1/GPa) = 0.01837167
#
# Stress axis : x y z
#
# Youngs Moduli (GPa) = 79.63172 53.93748 98.46164
#
# Poissons Ratio (x) = 0.34515 0.30268
# Poissons Ratio (y) = 0.50958 0.19377
# Poissons Ratio (z) = 0.24480 0.10615
#
# Static dielectric constant tensor:
#      x y z
#    x 3.806030 0.000000 0.000000 
#    y 0.000000 3.028580 0.000000 
#    z 0.000000 0.000000 4.155810 
# 
# 
# High freq. dielectric constant tensor:
#      x y z
#    x 1.774740 0.000000 0.000000 
#    y 0.000000 1.695300 0.000000 
#    z 0.000000 0.000000 1.796070 
# 
# From -- ./inp_files/21067.got.cif
#   From: 2010.03.12/outbox.cif.g09.slc.cpg/sg63_11_cif.got.tgz:21067.got - 2010.04.10 19:34:48.
