data_PCOD8258277
_publ_section_title
;
Structure prediction by ZEFSAII (Michael W. Deem and Ramdas Pophale) SiO2 
 PCOD8258277
Probable space group: C M C M
;
_chemical_formula_sum "Si O2"
_cell_formula_units_Z 88
_cell_length_a 19.519057
_cell_length_b 26.866316
_cell_length_c 8.918783
_cell_angle_alpha 90.000000
_cell_angle_beta 90.000000
_cell_angle_gamma 90.000000
_cell_volume 4677.055767
_symmetry_space_group_name_H-M "C M C M"
_symmetry_group_IT_number 63
_symmetry_cell_setting 'orthorhombic'
loop_
_space_group_symop_operation_xyz
x,y,z
-x,-y,1/2+z
x,-y,-z
-x,y,1/2-z
-x,-y,-z
x,y,1/2-z
-x,y,z
x,-y,1/2+z
1/2+x,1/2+y,z
1/2-x,1/2-y,1/2+z
1/2+x,1/2-y,-z
1/2-x,1/2+y,1/2-z
1/2-x,1/2-y,-z
1/2+x,1/2+y,1/2-z
1/2-x,1/2+y,z
1/2+x,1/2-y,1/2+z
loop_
_atom_site_type_symbol
_atom_site_label
_atom_site_fract_x
_atom_site_fract_y
_atom_site_fract_z
Si Si1 0.856007 0.085019 0.417126
Si Si2 0.317150 0.698274 0.084379
Si Si3 0.180884 0.651465 0.074052
Si Si4 0.576632 0.768289 0.575133
Si Si5 0.000000 0.052452 0.426973
Si Si6 0.724801 0.051118 0.927371
O O1 0.848758 0.061271 0.250000
O O2 0.842939 0.142620 0.407294
O O3 0.804228 0.056829 0.527761
O O4 0.932185 0.080372 0.483475
O O5 0.316604 0.722782 0.250000
O O6 0.238909 0.692419 0.020456
O O7 0.370154 0.727681 0.982783
O O8 0.193912 0.640455 0.250000
O O9 0.107198 0.676580 0.043082
O O10 0.183082 0.599179 0.987260
O O11 0.570551 0.758959 0.750000
O O12 0.500000 0.764387 0.502765
O O13 0.000000 0.048301 0.250000
O O14 0.000000 0.000000 0.500000
O O15 0.716457 0.048212 0.750000
O O16 0.695467 0.000000 0.000000
#
# Coordination Sequence:
#
# PCOD8258277 Si02
#       6
#    16  16  16  16   8  16
#     4   9  19  34  50  71 101 137 178 220 261 307
#     4   9  18  32  53  76 101 139 180 218 258 305
#     4   9  19  37  56  76 106 141 177 217 262 311
#     4  10  21  35  53  79 110 141 173 216 268 317
#     4  10  20  32  46  64  94 136 178 218 261 308
#     4  11  21  34  55  80 104 131 169 216 264 314
#
# _framework density 18.815256999999999
#
# number of rings (size 3 to 8) (size 9 to 14) (size 15 to 20)
#    0.000    2.364    0.000    3.818    1.273    6.182 
#    0.000    0.000    0.000    0.545    0.000    0.000 
#    0.000    0.000    0.000    0.000    0.000    0.000 
#
# Total GULP energy -545282.458955 kJ/mol
# GULP energy per Si atom -12392.783158 kJ/mol
# Density = 1.877243 g / cm^3
# Si number density = 18.815257 Si / 1000 Ang^3
#
#
#
# Elastic Constant Matrix: (Units=GPa)
#
#
# Indices 1 2 3 4 5 6 
#
# 1 96.5936 43.2228 26.8179 0.0000 0.0000 0.0000
# 2 43.2228 59.7219 38.0781 0.0000 0.0000 0.0000
# 3 26.8179 38.0781 72.8511 0.0000 0.0000 0.0000
# 4 0.0000 0.0000 0.0000 31.6342 0.0000 0.0000
# 5 0.0000 0.0000 0.0000 0.0000 19.6172 0.0000
# 6 0.0000 0.0000 0.0000 0.0000 0.0000 -6.1619
#
#
#
# Elastic Compliance Matrix: (Units=1/GPa)
#
#
# Indices 1 2 3 4 5 6 
#
# 1 0.015314 -0.011232 0.000233 0.000000 0.000000 0.000000
# 2 -0.011232 0.033352 -0.013298 0.000000 0.000000 0.000000
# 3 0.000233 -0.013298 0.020591 0.000000 0.000000 0.000000
# 4 0.000000 0.000000 0.000000 0.031611 0.000000 0.000000
# 5 0.000000 0.000000 0.000000 0.000000 0.050976 0.000000
# 6 0.000000 0.000000 0.000000 0.000000 0.000000 -0.162289
#
#
# Mechanical properties :
#
#
# Convention : Reuss Voigt Hill
#
# Bulk Modulus (GPa) = 48.39268 49.48935 48.94102
# Shear Modulus (GPa) = 111.02310 17.08777 64.05544
#
# Velocity S-wave (km/s) = 7.68993 3.01688 5.84109
# Velocity P-wave (km/s) = 10.22851 6.20446 8.45925
#
# Compressibility (1/GPa) = 0.02066428
#
# Stress axis : x y z
#
# Youngs Moduli (GPa) = 65.30044 29.98344 48.56449
#
# Poissons Ratio (x) = 0.33677 -0.01134
# Poissons Ratio (y) = 0.73346 0.64580
# Poissons Ratio (z) = -0.01525 0.39871
#
# Static dielectric constant tensor:
#      x y z
#    x 3.645860 0.000000 0.000000 
#    y 0.000000 3.432550 0.000000 
#    z 0.000000 0.000000 3.432940 
# 
# 
# High freq. dielectric constant tensor:
#      x y z
#    x 1.720300 0.000000 0.000000 
#    y 0.000000 1.731800 0.000000 
#    z 0.000000 0.000000 1.719020 
# 
# From -- ./inp_files/8213.got.cif
#   From: 2010.03.12/outbox.cif.g09.slc.cpg/sg63_5_cif.got.tgz:8213.got - 2010.04.10 19:34:48.
