data_PCOD8258724
_publ_section_title
;
Structure prediction by ZEFSAII (Michael W. Deem and Ramdas Pophale) SiO2 
 PCOD8258724
Probable space group: C M C M
;
_chemical_formula_sum "Si O2"
_cell_formula_units_Z 112
_cell_length_a 12.781752
_cell_length_b 16.900587
_cell_length_c 28.620065
_cell_angle_alpha 90.000000
_cell_angle_beta 90.000000
_cell_angle_gamma 90.000000
_cell_volume 6182.481018
_symmetry_space_group_name_H-M "C M C M"
_symmetry_group_IT_number 63
_symmetry_cell_setting 'orthorhombic'
loop_
_space_group_symop_operation_xyz
x,y,z
-x,-y,1/2+z
x,-y,-z
-x,y,1/2-z
-x,-y,-z
x,y,1/2-z
-x,y,z
x,-y,1/2+z
1/2+x,1/2+y,z
1/2-x,1/2-y,1/2+z
1/2+x,1/2-y,-z
1/2-x,1/2+y,1/2-z
1/2-x,1/2-y,-z
1/2+x,1/2+y,1/2-z
1/2-x,1/2+y,z
1/2+x,1/2-y,1/2+z
loop_
_atom_site_type_symbol
_atom_site_label
_atom_site_fract_x
_atom_site_fract_y
_atom_site_fract_z
Si Si1 0.121709 0.843458 0.123703
Si Si2 0.217908 0.714779 0.549460
Si Si3 0.726612 0.508420 0.376137
Si Si4 0.882916 0.562833 0.196609
Si Si5 0.117273 0.453900 0.047864
Si Si6 0.785459 0.269241 0.804075
Si Si7 0.621828 0.675747 0.124300
O O1 0.179058 0.802307 0.080088
O O2 0.155307 0.804489 0.172698
O O3 0.000000 0.831957 0.114734
O O4 0.147609 0.935773 0.127094
O O5 0.250000 0.750000 0.500000
O O6 0.152178 0.635994 0.540680
O O7 0.145928 0.777113 0.576868
O O8 0.797927 0.510252 0.329972
O O9 0.805412 0.501404 0.418973
O O10 0.658229 0.586187 0.382930
O O11 0.873553 0.537034 0.250000
O O12 0.860629 0.655569 0.190207
O O13 0.000000 0.546432 0.177680
O O14 0.000000 0.454200 0.068827
O O15 0.120230 0.500000 0.000000
O O16 0.761449 0.250201 0.750000
O O17 0.676593 0.284422 0.830826
O O18 0.500000 0.677615 0.135057
#
# Coordination Sequence:
#
# PCOD8258724 Si02
#       7
#    16  16  16  16  16  16  16
#     4  10  21  35  53  77 104 136 172 212 260 309
#     4  10  21  37  55  77 105 135 175 220 260 311
#     4  10  20  34  51  75 108 137 169 211 256 308
#     4   9  17  31  52  75  99 131 170 210 252 297
#     4  10  20  34  53  76 103 136 173 215 263 310
#     4   9  19  35  54  77 104 134 173 216 254 300
#     4  10  20  35  56  79 105 139 175 212 259 313
#
# _framework density 18.115704999999998
#
# number of rings (size 3 to 8) (size 9 to 14) (size 15 to 20)
#    0.000    2.286    0.000    2.571    0.000    2.857 
#    0.000    4.286    0.000    7.286    0.000    0.000 
#    0.000    0.000    0.000    0.000    0.000    0.000 
#
# Total GULP energy -694512.333651 kJ/mol
# GULP energy per Si atom -12402.005958 kJ/mol
# Density = 1.807447 g / cm^3
# Si number density = 18.115705 Si / 1000 Ang^3
#
#
#
# Elastic Constant Matrix: (Units=GPa)
#
#
# Indices 1 2 3 4 5 6 
#
# 1 141.6956 46.7682 46.8401 0.0000 0.0000 0.0000
# 2 46.7682 80.8307 40.4389 0.0000 0.0000 0.0000
# 3 46.8401 40.4389 106.2683 0.0000 0.0000 0.0000
# 4 0.0000 0.0000 0.0000 28.6438 0.0000 0.0000
# 5 0.0000 0.0000 0.0000 0.0000 16.6789 0.0000
# 6 0.0000 0.0000 0.0000 0.0000 0.0000 16.7867
#
#
#
# Elastic Compliance Matrix: (Units=1/GPa)
#
#
# Indices 1 2 3 4 5 6 
#
# 1 0.009238 -0.004086 -0.002517 0.000000 0.000000 0.000000
# 2 -0.004086 0.017088 -0.004702 0.000000 0.000000 0.000000
# 3 -0.002517 -0.004702 0.012309 0.000000 0.000000 0.000000
# 4 0.000000 0.000000 0.000000 0.034912 0.000000 0.000000
# 5 0.000000 0.000000 0.000000 0.000000 0.059956 0.000000
# 6 0.000000 0.000000 0.000000 0.000000 0.000000 0.059571
#
#
# Mechanical properties :
#
#
# Convention : Reuss Voigt Hill
#
# Bulk Modulus (GPa) = 62.40034 66.32100 64.36067
# Shear Modulus (GPa) = 22.62199 25.40503 24.01351
#
# Velocity S-wave (km/s) = 3.53760 3.74889 3.64478
# Velocity P-wave (km/s) = 7.15586 7.44500 7.30186
#
# Compressibility (1/GPa) = 0.01602555
#
# Stress axis : x y z
#
# Youngs Moduli (GPa) = 108.24849 58.52160 81.24322
#
# Poissons Ratio (x) = 0.23911 0.20449
# Poissons Ratio (y) = 0.44228 0.38197
# Poissons Ratio (z) = 0.27247 0.27514
#
# Static dielectric constant tensor:
#      x y z
#    x 3.397350 0.000000 0.000000 
#    y 0.000000 3.381040 0.000000 
#    z 0.000000 0.000000 3.315880 
# 
# 
# High freq. dielectric constant tensor:
#      x y z
#    x 1.707790 0.000000 0.000000 
#    y 0.000000 1.706880 0.000000 
#    z 0.000000 0.000000 1.704180 
# 
# From -- ./inp_files/72842.got.cif
#   From: 2010.03.12/outbox.cif.g09.slc.cpg/sg63_37_cif.got.tgz:72842.got - 2010.04.10 19:34:48.
