data_PCOD8258941
_publ_section_title
;
Structure prediction by ZEFSAII (Michael W. Deem and Ramdas Pophale) SiO2 
 PCOD8258941
Probable space group: C M C M
;
_chemical_formula_sum "Si O2"
_cell_formula_units_Z 72
_cell_length_a 17.501838
_cell_length_b 22.869152
_cell_length_c 8.874592
_cell_angle_alpha 90.000000
_cell_angle_beta 90.000000
_cell_angle_gamma 90.000000
_cell_volume 3552.074914
_symmetry_space_group_name_H-M "C M C M"
_symmetry_group_IT_number 63
_symmetry_cell_setting 'orthorhombic'
loop_
_space_group_symop_operation_xyz
x,y,z
-x,-y,1/2+z
x,-y,-z
-x,y,1/2-z
-x,-y,-z
x,y,1/2-z
-x,y,z
x,-y,1/2+z
1/2+x,1/2+y,z
1/2-x,1/2-y,1/2+z
1/2+x,1/2-y,-z
1/2-x,1/2+y,1/2-z
1/2-x,1/2-y,-z
1/2+x,1/2+y,1/2-z
1/2-x,1/2+y,z
1/2+x,1/2-y,1/2+z
loop_
_atom_site_type_symbol
_atom_site_label
_atom_site_fract_x
_atom_site_fract_y
_atom_site_fract_z
Si Si1 0.500000 0.563097 0.071985
Si Si2 0.721345 0.939147 0.072334
Si Si3 0.588017 0.757152 0.421791
Si Si4 0.588349 0.124145 0.074835
Si Si5 0.350954 0.367337 0.926652
O O1 0.500000 0.556979 0.250000
O O2 0.425337 0.597753 0.017088
O O3 0.500000 0.500000 0.000000
O O4 0.722882 0.945711 0.250000
O O5 0.636183 0.923278 0.018187
O O6 0.778238 0.888285 0.020166
O O7 0.748169 0.000000 0.000000
O O8 0.601841 0.777141 0.250000
O O9 0.500000 0.739262 0.445760
O O10 0.612449 0.810192 0.529371
O O11 0.638910 0.701128 0.462714
O O12 0.605651 0.115579 0.250000
O O13 0.500000 0.113269 0.035010
O O14 0.336809 0.377795 0.750000
#
# Coordination Sequence:
#
# PCOD8258941 Si02
#       5
#     8  16  16  16  16
#     4  10  20  34  54  82 116 160 205 244 289 342
#     4  12  26  43  62  86 118 157 200 248 300 355
#     4   9  17  34  61  91 123 159 198 243 294 349
#     4  10  22  41  65  92 120 152 193 245 301 359
#     4  10  20  37  60  87 122 161 201 245 294 347
#
# _framework density 20.269843000000002
#
# number of rings (size 3 to 8) (size 9 to 14) (size 15 to 20)
#    0.000    1.778    1.111    3.333    0.000    6.222 
#    0.000    0.000    0.000    0.000    0.000    0.000 
#    0.000    0.000    0.000    0.000    0.000    0.000 
#
# Total GULP energy -446600.966029 kJ/mol
# GULP energy per Si atom -12405.582390 kJ/mol
# Density = 2.022371 g / cm^3
# Si number density = 20.269843 Si / 1000 Ang^3
#
#
#
# Elastic Constant Matrix: (Units=GPa)
#
#
# Indices 1 2 3 4 5 6 
#
# 1 81.3286 22.5511 37.4506 0.0000 0.0000 0.0000
# 2 22.5511 57.8103 27.9141 0.0000 0.0000 0.0000
# 3 37.4506 27.9141 94.9889 0.0000 0.0000 0.0000
# 4 0.0000 0.0000 0.0000 37.0747 0.0000 0.0000
# 5 0.0000 0.0000 0.0000 0.0000 30.1575 0.0000
# 6 0.0000 0.0000 0.0000 0.0000 0.0000 35.6218
#
#
#
# Elastic Compliance Matrix: (Units=1/GPa)
#
#
# Indices 1 2 3 4 5 6 
#
# 1 0.015655 -0.003644 -0.005102 0.000000 0.000000 0.000000
# 2 -0.003644 0.021006 -0.004737 0.000000 0.000000 0.000000
# 3 -0.005102 -0.004737 0.013931 0.000000 0.000000 0.000000
# 4 0.000000 0.000000 0.000000 0.026973 0.000000 0.000000
# 5 0.000000 0.000000 0.000000 0.000000 0.033159 0.000000
# 6 0.000000 0.000000 0.000000 0.000000 0.000000 0.028073
#
#
# Mechanical properties :
#
#
# Convention : Reuss Voigt Hill
#
# Bulk Modulus (GPa) = 42.32081 45.55105 43.93593
# Shear Modulus (GPa) = 28.79575 30.31827 29.55701
#
# Velocity S-wave (km/s) = 3.77320 3.87167 3.82275
# Velocity P-wave (km/s) = 6.31718 6.51978 6.41928
#
# Compressibility (1/GPa) = 0.02362903
#
# Stress axis : x y z
#
# Youngs Moduli (GPa) = 63.87611 47.60463 71.78334
#
# Poissons Ratio (x) = 0.17345 0.36621
# Poissons Ratio (y) = 0.23274 0.34000
# Poissons Ratio (z) = 0.32587 0.22548
#
# Static dielectric constant tensor:
#      x y z
#    x 3.682830 0.000000 0.000000 
#    y 0.000000 3.657490 0.000000 
#    z 0.000000 0.000000 3.565330 
# 
# 
# High freq. dielectric constant tensor:
#      x y z
#    x 1.792530 0.000000 0.000000 
#    y 0.000000 1.797940 0.000000 
#    z 0.000000 0.000000 1.785190 
# 
# From -- ./inp_files/6141.got.cif
#   From: 2010.03.12/outbox.cif.g09.slc.cpg/sg63_4_cif.got.tgz:6141.got - 2010.04.10 19:34:48.
