data_PCOD8258223
_publ_section_title
;
Structure prediction by ZEFSAII (Michael W. Deem and Ramdas Pophale) SiO2 
 PCOD8258223
Probable space group: C M C M
;
_chemical_formula_sum "Si O2"
_cell_formula_units_Z 128
_cell_length_a 22.951099
_cell_length_b 18.165134
_cell_length_c 18.341241
_cell_angle_alpha 90.000000
_cell_angle_beta 90.000000
_cell_angle_gamma 90.000000
_cell_volume 7646.642911
_symmetry_space_group_name_H-M "C M C M"
_symmetry_group_IT_number 63
_symmetry_cell_setting 'orthorhombic'
loop_
_space_group_symop_operation_xyz
x,y,z
-x,-y,1/2+z
x,-y,-z
-x,y,1/2-z
-x,-y,-z
x,y,1/2-z
-x,y,z
x,-y,1/2+z
1/2+x,1/2+y,z
1/2-x,1/2-y,1/2+z
1/2+x,1/2-y,-z
1/2-x,1/2+y,1/2-z
1/2-x,1/2-y,-z
1/2+x,1/2+y,1/2-z
1/2-x,1/2+y,z
1/2+x,1/2-y,1/2+z
loop_
_atom_site_type_symbol
_atom_site_label
_atom_site_fract_x
_atom_site_fract_y
_atom_site_fract_z
Si Si1 0.824272 0.642834 0.669535
Si Si2 0.759635 0.510928 0.169702
Si Si3 0.666638 0.451472 0.431485
Si Si4 0.936101 0.563280 0.663077
Si Si5 0.374409 0.078752 0.164027
Si Si6 0.433178 0.613560 0.665977
Si Si7 0.369792 0.240660 0.166184
Si Si8 0.768378 0.200673 0.567731
O O1 0.827868 0.680051 0.750000
O O2 0.788645 0.568300 0.677256
O O3 0.889288 0.625054 0.638845
O O4 0.791532 0.694952 0.613008
O O5 0.738513 0.536896 0.250000
O O6 0.704688 0.507033 0.116991
O O7 0.807954 0.566421 0.135719
O O8 0.646947 0.500000 0.500000
O O9 0.608572 0.432335 0.386661
O O10 0.703863 0.378758 0.454014
O O11 0.937131 0.559757 0.750000
O O12 0.918110 0.482627 0.631227
O O13 0.000000 0.583745 0.632106
O O14 0.372048 0.065999 0.250000
O O15 0.395566 0.160776 0.143651
O O16 0.420586 0.591485 0.750000
O O17 0.500000 0.597717 0.644974
O O18 0.420938 0.700325 0.654702
O O19 0.348334 0.240374 0.250000
O O20 0.314317 0.256866 0.117100
O O21 0.750000 0.250000 0.500000
#
# Coordination Sequence:
#
# PCOD8258223 Si02
#       8
#    16  16  16  16  16  16  16  16
#     4   8  14  27  45  63  86 121 157 190 227 263
#     4   8  14  26  44  64  90 121 152 184 223 271
#     4  10  20  31  47  70  94 120 153 190 234 281
#     4   8  13  22  40  68  96 119 151 190 221 258
#     4   8  14  23  39  66  97 123 144 178 228 272
#     4   9  18  33  51  69  89 118 158 197 232 274
#     4   9  17  29  46  68  93 122 152 187 232 280
#     4  10  20  31  45  66  95 122 153 194 234 279
#
# _framework density 16.739373000000001
#
# number of rings (size 3 to 8) (size 9 to 14) (size 15 to 20)
#    0.000    3.250    0.000    2.250    1.750    3.750 
#    0.000    2.500    0.000    3.000    0.000    0.875 
#    0.000    2.000    0.000    0.000    0.000    0.000 
#
# Total GULP energy -793011.476700 kJ/mol
# GULP energy per Si atom -12390.804323 kJ/mol
# Density = 1.670127 g / cm^3
# Si number density = 16.739373 Si / 1000 Ang^3
#
#
#
# Elastic Constant Matrix: (Units=GPa)
#
#
# Indices 1 2 3 4 5 6 
#
# 1 124.1580 32.6167 47.7732 0.0000 0.0000 0.0000
# 2 32.6167 44.5394 33.2458 0.0000 0.0000 0.0000
# 3 47.7732 33.2458 69.4736 0.0000 0.0000 0.0000
# 4 0.0000 0.0000 0.0000 23.3275 0.0000 0.0000
# 5 0.0000 0.0000 0.0000 0.0000 9.7275 0.0000
# 6 0.0000 0.0000 0.0000 0.0000 0.0000 15.6130
#
#
#
# Elastic Compliance Matrix: (Units=1/GPa)
#
#
# Indices 1 2 3 4 5 6 
#
# 1 0.011366 -0.003873 -0.005962 0.000000 0.000000 0.000000
# 2 -0.003873 0.036248 -0.014683 0.000000 0.000000 0.000000
# 3 -0.005962 -0.014683 0.025520 0.000000 0.000000 0.000000
# 4 0.000000 0.000000 0.000000 0.042868 0.000000 0.000000
# 5 0.000000 0.000000 0.000000 0.000000 0.102802 0.000000
# 6 0.000000 0.000000 0.000000 0.000000 0.000000 0.064049
#
#
# Mechanical properties :
#
#
# Convention : Reuss Voigt Hill
#
# Bulk Modulus (GPa) = 41.49737 51.71582 46.60660
# Shear Modulus (GPa) = 14.70927 18.03596 16.37261
#
# Velocity S-wave (km/s) = 2.96754 3.28603 3.13084
# Velocity P-wave (km/s) = 6.04862 6.73491 6.40097
#
# Compressibility (1/GPa) = 0.02409791
#
# Stress axis : x y z
#
# Youngs Moduli (GPa) = 87.98295 27.58770 39.18449
#
# Poissons Ratio (x) = 0.10684 0.23363
# Poissons Ratio (y) = 0.34074 0.57534
# Poissons Ratio (z) = 0.52459 0.40507
#
# Static dielectric constant tensor:
#      x y z
#    x 3.331360 0.000000 0.000000 
#    y 0.000000 3.097030 0.000000 
#    z 0.000000 0.000000 3.040420 
# 
# 
# High freq. dielectric constant tensor:
#      x y z
#    x 1.638850 0.000000 0.000000 
#    y 0.000000 1.624570 0.000000 
#    z 0.000000 0.000000 1.616980 
# 
# From -- ./inp_files/47510.got.cif
#   From: 2010.03.12/outbox.cif.g09.slc.cpg/sg63_24_cif.got.tgz:47510.got - 2010.04.10 19:34:48.
