data_PCOD8258118
_publ_section_title
;
Structure prediction by ZEFSAII (Michael W. Deem and Ramdas Pophale) SiO2 
 PCOD8258118
Probable space group: C M C M
;
_chemical_formula_sum "Si O2"
_cell_formula_units_Z 112
_cell_length_a 12.947439
_cell_length_b 20.572081
_cell_length_c 21.524565
_cell_angle_alpha 90.000000
_cell_angle_beta 90.000000
_cell_angle_gamma 90.000000
_cell_volume 5733.191952
_symmetry_space_group_name_H-M "C M C M"
_symmetry_group_IT_number 63
_symmetry_cell_setting 'orthorhombic'
loop_
_space_group_symop_operation_xyz
x,y,z
-x,-y,1/2+z
x,-y,-z
-x,y,1/2-z
-x,-y,-z
x,y,1/2-z
-x,y,z
x,-y,1/2+z
1/2+x,1/2+y,z
1/2-x,1/2-y,1/2+z
1/2+x,1/2-y,-z
1/2-x,1/2+y,1/2-z
1/2-x,1/2-y,-z
1/2+x,1/2+y,1/2-z
1/2-x,1/2+y,z
1/2+x,1/2-y,1/2+z
loop_
_atom_site_type_symbol
_atom_site_label
_atom_site_fract_x
_atom_site_fract_y
_atom_site_fract_z
Si Si1 0.118796 0.053008 0.590988
Si Si2 0.704090 0.039553 0.438359
Si Si3 0.616914 0.090826 0.180219
Si Si4 0.879080 0.741253 0.569972
Si Si5 0.746380 0.281956 0.821203
Si Si6 0.274971 0.346604 0.009318
Si Si7 0.885069 0.836723 0.177335
O O1 0.143272 0.101980 0.535322
O O2 0.151131 0.092688 0.652949
O O3 0.000000 0.030991 0.590240
O O4 0.185873 0.988488 0.583446
O O5 0.632964 0.038040 0.375764
O O6 0.714326 0.115830 0.454524
O O7 0.661430 0.000000 0.500000
O O8 0.635145 0.060680 0.250000
O O9 0.500000 0.117163 0.176179
O O10 0.694698 0.150530 0.170838
O O11 0.854918 0.777222 0.635468
O O12 0.811593 0.675640 0.559747
O O13 0.844814 0.787470 0.513715
O O14 0.000000 0.724609 0.566795
O O15 0.712418 0.271189 0.750000
O O16 0.817880 0.223400 0.846529
O O17 0.881358 0.840389 0.250000
O O18 0.000000 0.823696 0.151809
#
# Coordination Sequence:
#
# PCOD8258118 Si02
#       7
#    16  16  16  16  16  16  16
#     4  10  20  35  58  82 110 152 193 232 281 340
#     4  10  22  38  58  85 117 151 198 248 292 341
#     4  10  21  39  62  86 115 155 197 240 295 355
#     4  11  22  36  58  85 116 148 183 231 292 353
#     4  10  19  36  60  86 115 147 186 235 287 351
#     4  10  21  39  53  83 115 150 186 233 284 343
#     4   9  17  31  55  86 114 142 183 236 285 331
#
# _framework density 19.535364999999999
#
# number of rings (size 3 to 8) (size 9 to 14) (size 15 to 20)
#    0.000    2.000    2.857    0.857    0.000    6.571 
#    0.000    2.143    0.000    0.000    0.000    0.000 
#    0.000    0.000    0.000    0.000    0.000    0.000 
#
# Total GULP energy -693852.179156 kJ/mol
# GULP energy per Si atom -12390.217485 kJ/mol
# Density = 1.949090 g / cm^3
# Si number density = 19.535365 Si / 1000 Ang^3
#
#
#
# Elastic Constant Matrix: (Units=GPa)
#
#
# Indices 1 2 3 4 5 6 
#
# 1 78.9729 24.0781 53.6548 0.0000 0.0000 0.0000
# 2 24.0781 56.9426 29.1899 0.0000 0.0000 0.0000
# 3 53.6548 29.1899 81.2704 0.0000 0.0000 0.0000
# 4 0.0000 0.0000 0.0000 32.1532 0.0000 0.0000
# 5 0.0000 0.0000 0.0000 0.0000 28.6288 0.0000
# 6 0.0000 0.0000 0.0000 0.0000 0.0000 21.3678
#
#
#
# Elastic Compliance Matrix: (Units=1/GPa)
#
#
# Indices 1 2 3 4 5 6 
#
# 1 0.023227 -0.002403 -0.014472 0.000000 0.000000 0.000000
# 2 -0.002403 0.021773 -0.006234 0.000000 0.000000 0.000000
# 3 -0.014472 -0.006234 0.024098 0.000000 0.000000 0.000000
# 4 0.000000 0.000000 0.000000 0.031101 0.000000 0.000000
# 5 0.000000 0.000000 0.000000 0.000000 0.034930 0.000000
# 6 0.000000 0.000000 0.000000 0.000000 0.000000 0.046799
#
#
# Mechanical properties :
#
#
# Convention : Reuss Voigt Hill
#
# Bulk Modulus (GPa) = 43.70370 47.89238 45.79804
# Shear Modulus (GPa) = 21.20686 23.78083 22.49385
#
# Velocity S-wave (km/s) = 3.29836 3.49280 3.39697
# Velocity P-wave (km/s) = 6.07666 6.39024 6.23542
#
# Compressibility (1/GPa) = 0.02288136
#
# Stress axis : x y z
#
# Youngs Moduli (GPa) = 43.05260 45.92791 41.49775
#
# Poissons Ratio (x) = 0.11038 0.60054
# Poissons Ratio (y) = 0.10347 0.25868
# Poissons Ratio (z) = 0.62304 0.28630
#
# Static dielectric constant tensor:
#      x y z
#    x 3.454210 0.000000 0.000000 
#    y 0.000000 3.519980 0.000000 
#    z 0.000000 0.000000 3.868990 
# 
# 
# High freq. dielectric constant tensor:
#      x y z
#    x 1.738770 0.000000 0.000000 
#    y 0.000000 1.746400 0.000000 
#    z 0.000000 0.000000 1.776790 
# 
# From -- ./inp_files/61804.got.cif
#   From: 2010.03.12/outbox.cif.g09.slc.cpg/sg63_31_cif.got.tgz:61804.got - 2010.04.10 19:34:48.
