data_PCOD8258705
_publ_section_title
;
Structure prediction by ZEFSAII (Michael W. Deem and Ramdas Pophale) SiO2 
 PCOD8258705
Probable space group: C M C M
;
_chemical_formula_sum "Si O2"
_cell_formula_units_Z 80
_cell_length_a 13.470641
_cell_length_b 17.459918
_cell_length_c 19.024767
_cell_angle_alpha 90.000000
_cell_angle_beta 90.000000
_cell_angle_gamma 90.000000
_cell_volume 4474.554565
_symmetry_space_group_name_H-M "C M C M"
_symmetry_group_IT_number 63
_symmetry_cell_setting 'orthorhombic'
loop_
_space_group_symop_operation_xyz
x,y,z
-x,-y,1/2+z
x,-y,-z
-x,y,1/2-z
-x,-y,-z
x,y,1/2-z
-x,y,z
x,-y,1/2+z
1/2+x,1/2+y,z
1/2-x,1/2-y,1/2+z
1/2+x,1/2-y,-z
1/2-x,1/2+y,1/2-z
1/2-x,1/2-y,-z
1/2+x,1/2+y,1/2-z
1/2-x,1/2+y,z
1/2+x,1/2-y,1/2+z
loop_
_atom_site_type_symbol
_atom_site_label
_atom_site_fract_x
_atom_site_fract_y
_atom_site_fract_z
Si Si1 0.299594 0.034445 0.893070
Si Si2 0.618970 0.141076 0.250000
Si Si3 0.617132 0.107284 0.472470
Si Si4 0.884918 0.905374 0.333947
Si Si5 0.384239 0.239506 0.375916
Si Si6 0.615888 0.970466 0.250000
O O1 0.181179 0.031671 0.875665
O O2 0.348201 0.069223 0.821944
O O3 0.340909 0.950551 0.912758
O O4 0.325394 0.093594 0.955214
O O5 0.500000 0.136844 0.250000
O O6 0.663075 0.185586 0.183306
O O7 0.662472 0.055792 0.250000
O O8 0.500000 0.090570 0.480844
O O9 0.636242 0.195883 0.449928
O O10 0.866166 0.905574 0.250000
O O11 0.844923 0.825845 0.368802
O O12 0.000000 0.921949 0.350515
O O13 0.500000 0.245136 0.359998
O O14 0.500000 0.970152 0.250000
#
# Coordination Sequence:
#
# PCOD8258705 Si02
#       6
#    16   8  16  16  16   8
#     4  11  20  31  48  75 105 133 161 200 254 305
#     4   9  14  23  44  73  97 123 161 198 240 291
#     4  10  20  34  51  76 107 132 159 203 254 306
#     4  10  20  34  50  72 100 128 170 218 247 278
#     4   9  16  29  50  71  97 130 163 207 250 285
#     4  11  18  27  47  77 105 129 162 202 253 309
#
# _framework density 17.878874
#
# number of rings (size 3 to 8) (size 9 to 14) (size 15 to 20)
#    0.000    2.000    4.000    2.400    0.000    0.800 
#    0.000    2.000    0.000    0.000    0.000    4.200 
#    0.000    0.000    0.000    0.000    0.000    0.000 
#
# Total GULP energy -495559.019090 kJ/mol
# GULP energy per Si atom -12388.975477 kJ/mol
# Density = 1.783818 g / cm^3
# Si number density = 17.878874 Si / 1000 Ang^3
#
#
#
# Elastic Constant Matrix: (Units=GPa)
#
#
# Indices 1 2 3 4 5 6 
#
# 1 92.4065 24.2198 41.4054 0.0000 0.0000 0.0000
# 2 24.2198 24.7422 8.8683 0.0000 0.0000 0.0000
# 3 41.4054 8.8683 106.4606 0.0000 0.0000 0.0000
# 4 0.0000 0.0000 0.0000 19.7258 0.0000 0.0000
# 5 0.0000 0.0000 0.0000 0.0000 30.9432 0.0000
# 6 0.0000 0.0000 0.0000 0.0000 0.0000 16.1248
#
#
#
# Elastic Compliance Matrix: (Units=1/GPa)
#
#
# Indices 1 2 3 4 5 6 
#
# 1 0.017144 -0.014835 -0.005432 0.000000 0.000000 0.000000
# 2 -0.014835 0.054498 0.001230 0.000000 0.000000 0.000000
# 3 -0.005432 0.001230 0.011403 0.000000 0.000000 0.000000
# 4 0.000000 0.000000 0.000000 0.050695 0.000000 0.000000
# 5 0.000000 0.000000 0.000000 0.000000 0.032317 0.000000
# 6 0.000000 0.000000 0.000000 0.000000 0.000000 0.062016
#
#
# Mechanical properties :
#
#
# Convention : Reuss Voigt Hill
#
# Bulk Modulus (GPa) = 22.23657 41.39960 31.81808
# Shear Modulus (GPa) = 17.78488 23.29982 20.54235
#
# Velocity S-wave (km/s) = 3.15738 3.61391 3.39333
# Velocity P-wave (km/s) = 5.07507 6.37335 5.76090
#
# Compressibility (1/GPa) = 0.04497097
#
# Stress axis : x y z
#
# Youngs Moduli (GPa) = 58.32951 18.34942 87.69375
#
# Poissons Ratio (x) = 0.27221 0.47635
# Poissons Ratio (y) = 0.86532 -0.10787
# Poissons Ratio (z) = 0.31684 -0.02257
#
# Static dielectric constant tensor:
#      x y z
#    x 3.066190 0.000000 0.000000 
#    y 0.000000 3.271300 0.000000 
#    z 0.000000 0.000000 3.394950 
# 
# 
# High freq. dielectric constant tensor:
#      x y z
#    x 1.661960 0.000000 0.000000 
#    y 0.000000 1.668110 0.000000 
#    z 0.000000 0.000000 1.701210 
# 
# From -- ./inp_files/42153.got.cif
#   From: 2010.03.12/outbox.cif.g09.slc.cpg/sg63_22_cif.got.tgz:42153.got - 2010.04.10 19:34:48.
