data_PCOD8258350
_publ_section_title
;
Structure prediction by ZEFSAII (Michael W. Deem and Ramdas Pophale) SiO2 
 PCOD8258350
Probable space group: C M C M
;
_chemical_formula_sum "Si O2"
_cell_formula_units_Z 104
_cell_length_a 27.054599
_cell_length_b 22.957370
_cell_length_c 9.581497
_cell_angle_alpha 90.000000
_cell_angle_beta 90.000000
_cell_angle_gamma 90.000000
_cell_volume 5951.091160
_symmetry_space_group_name_H-M "C M C M"
_symmetry_group_IT_number 63
_symmetry_cell_setting 'orthorhombic'
loop_
_space_group_symop_operation_xyz
x,y,z
-x,-y,1/2+z
x,-y,-z
-x,y,1/2-z
-x,-y,-z
x,y,1/2-z
-x,y,z
x,-y,1/2+z
1/2+x,1/2+y,z
1/2-x,1/2-y,1/2+z
1/2+x,1/2-y,-z
1/2-x,1/2+y,1/2-z
1/2-x,1/2-y,-z
1/2+x,1/2+y,1/2-z
1/2-x,1/2+y,z
1/2+x,1/2-y,1/2+z
loop_
_atom_site_type_symbol
_atom_site_label
_atom_site_fract_x
_atom_site_fract_y
_atom_site_fract_z
Si Si1 0.926283 0.338206 0.911901
Si Si2 0.500000 0.059079 0.409894
Si Si3 0.316641 0.203150 0.089632
Si Si4 0.776616 0.825771 0.412151
Si Si5 0.430696 0.549683 0.595857
Si Si6 0.500000 0.764677 0.082358
Si Si7 0.500000 0.348589 0.089528
Si Si8 0.814597 0.051624 0.592600
O O1 0.937000 0.321024 0.750000
O O2 0.868013 0.330406 0.944094
O O3 0.950040 0.402530 0.939985
O O4 0.951486 0.294375 0.019080
O O5 0.500000 0.038716 0.250000
O O6 0.500000 0.000000 0.500000
O O7 0.302587 0.191847 0.250000
O O8 0.315777 0.273143 0.059428
O O9 0.274600 0.177192 0.993259
O O10 0.763248 0.828095 0.250000
O O11 0.800021 0.885523 0.466115
O O12 0.454342 0.500000 0.500000
O O13 0.447949 0.532915 0.750000
O O14 0.451329 0.613277 0.559596
O O15 0.372727 0.550652 0.581240
O O16 0.500000 0.768347 0.250000
O O17 0.500000 0.699206 0.029717
O O18 0.500000 0.324138 0.250000
O O19 0.795851 0.042119 0.750000
O O20 0.790926 0.000000 0.500000
#
# Coordination Sequence:
#
# PCOD8258350 Si02
#       8
#    16   8  16  16  16   8   8  16
#     4   9  19  37  58  77 103 138 175 208 247 310
#     4   9  18  34  56  82 106 135 171 207 251 308
#     4   9  18  33  56  79 101 134 172 212 256 309
#     4   9  18  32  51  76 105 134 169 215 263 309
#     4   9  18  31  48  68  92 128 172 214 257 301
#     4  11  23  34  48  77 108 133 164 210 259 296
#     4  10  20  32  49  69  94 134 173 207 254 312
#     4   9  18  32  49  70  97 132 173 213 255 303
#
# _framework density 17.475787
#
# number of rings (size 3 to 8) (size 9 to 14) (size 15 to 20)
#    0.000    2.769    0.000    1.385    2.154    3.077 
#    0.000    0.769    0.000    3.692    0.000    0.000 
#    0.000    0.000    0.000    0.000    0.000    0.000 
#
# Total GULP energy -644274.789352 kJ/mol
# GULP energy per Si atom -12389.899795 kJ/mol
# Density = 1.743601 g / cm^3
# Si number density = 17.475787 Si / 1000 Ang^3
#
#
#
# Elastic Constant Matrix: (Units=GPa)
#
#
# Indices 1 2 3 4 5 6 
#
# 1 61.3221 35.6114 29.2815 0.0000 0.0000 0.0000
# 2 35.6114 127.9873 63.2724 0.0000 0.0000 0.0000
# 3 29.2815 63.2724 85.0399 0.0000 0.0000 0.0000
# 4 0.0000 0.0000 0.0000 34.3431 0.0000 0.0000
# 5 0.0000 0.0000 0.0000 0.0000 26.2699 0.0000
# 6 0.0000 0.0000 0.0000 0.0000 0.0000 42.0397
#
#
#
# Elastic Compliance Matrix: (Units=1/GPa)
#
#
# Indices 1 2 3 4 5 6 
#
# 1 0.020459 -0.003496 -0.004444 0.000000 0.000000 0.000000
# 2 -0.003496 0.012957 -0.008436 0.000000 0.000000 0.000000
# 3 -0.004444 -0.008436 0.019566 0.000000 0.000000 0.000000
# 4 0.000000 0.000000 0.000000 0.029118 0.000000 0.000000
# 5 0.000000 0.000000 0.000000 0.000000 0.038066 0.000000
# 6 0.000000 0.000000 0.000000 0.000000 0.000000 0.023787
#
#
# Mechanical properties :
#
#
# Convention : Reuss Voigt Hill
#
# Bulk Modulus (GPa) = 49.43081 58.96444 54.19763
# Shear Modulus (GPa) = 27.25554 30.27614 28.76584
#
# Velocity S-wave (km/s) = 3.95348 4.16680 4.06154
# Velocity P-wave (km/s) = 7.01333 7.54742 7.28527
#
# Compressibility (1/GPa) = 0.02023030
#
# Stress axis : x y z
#
# Youngs Moduli (GPa) = 48.87742 77.18054 51.10845
#
# Poissons Ratio (x) = 0.26981 0.22711
# Poissons Ratio (y) = 0.17087 0.43117
# Poissons Ratio (z) = 0.21720 0.65113
#
# Static dielectric constant tensor:
#      x y z
#    x 3.137490 0.000000 0.000000 
#    y 0.000000 3.356900 0.000000 
#    z 0.000000 0.000000 3.382270 
# 
# 
# High freq. dielectric constant tensor:
#      x y z
#    x 1.666580 0.000000 0.000000 
#    y 0.000000 1.673090 0.000000 
#    z 0.000000 0.000000 1.672890 
# 
# From -- ./inp_files/14702.got.cif
#   From: 2010.03.12/outbox.cif.g09.slc.cpg/sg63_8_cif.got.tgz:14702.got - 2010.04.10 19:34:48.
