data_PCOD8258659
_publ_section_title
;
Structure prediction by ZEFSAII (Michael W. Deem and Ramdas Pophale) SiO2 
 PCOD8258659
Probable space group: C M C M
;
_chemical_formula_sum "Si O2"
_cell_formula_units_Z 96
_cell_length_a 8.997427
_cell_length_b 19.759486
_cell_length_c 29.178216
_cell_angle_alpha 90.000000
_cell_angle_beta 90.000000
_cell_angle_gamma 90.000000
_cell_volume 5187.435501
_symmetry_space_group_name_H-M "C M C M"
_symmetry_group_IT_number 63
_symmetry_cell_setting 'orthorhombic'
loop_
_space_group_symop_operation_xyz
x,y,z
-x,-y,1/2+z
x,-y,-z
-x,y,1/2-z
-x,-y,-z
x,y,1/2-z
-x,y,z
x,-y,1/2+z
1/2+x,1/2+y,z
1/2-x,1/2-y,1/2+z
1/2+x,1/2-y,-z
1/2-x,1/2+y,1/2-z
1/2-x,1/2-y,-z
1/2+x,1/2+y,1/2-z
1/2-x,1/2+y,z
1/2+x,1/2-y,1/2+z
loop_
_atom_site_type_symbol
_atom_site_label
_atom_site_fract_x
_atom_site_fract_y
_atom_site_fract_z
Si Si1 0.176502 0.863219 0.119348
Si Si2 0.830763 0.565442 0.028141
Si Si3 0.674764 0.683914 0.519531
Si Si4 0.671494 0.993135 0.873207
Si Si5 0.676189 0.886484 0.801298
Si Si6 0.676873 0.264408 0.198510
O O1 0.237089 0.938297 0.125167
O O2 0.239502 0.816936 0.160898
O O3 0.000000 0.866916 0.120600
O O4 0.231336 0.831830 0.071129
O O5 0.717998 0.623799 0.014414
O O6 0.810841 0.550397 0.081199
O O7 0.000000 0.587092 0.016515
O O8 0.783790 0.500000 0.000000
O O9 0.500000 0.694594 0.519149
O O10 0.750000 0.750000 0.500000
O O11 0.500000 0.011949 0.864192
O O12 0.740983 0.944765 0.834040
O O13 0.725793 0.905120 0.750000
O O14 0.500000 0.885779 0.806246
O O15 0.735303 0.811172 0.813933
O O16 0.730680 0.284643 0.250000
O O17 0.500000 0.264482 0.197335
#
# Coordination Sequence:
#
# PCOD8258659 Si02
#       6
#    16  16  16  16  16  16
#     4  10  21  35  53  78 107 137 174 217 260 310
#     4  10  20  36  56  77 106 143 179 215 260 314
#     4  11  24  38  55  79 109 141 177 223 266 314
#     4  10  20  33  54  79 106 139 174 216 262 312
#     4   8  15  29  51  78 103 131 173 219 260 307
#     4   8  15  30  52  76 102 134 173 215 258 306
#
# _framework density 18.506253999999998
#
# number of rings (size 3 to 8) (size 9 to 14) (size 15 to 20)
#    0.000    2.500    1.667    1.500    2.333    2.333 
#    0.000    0.000    0.000    0.000    0.000    2.333 
#    0.000    0.000    0.000    0.000    0.000    0.000 
#
# Total GULP energy -595087.685332 kJ/mol
# GULP energy per Si atom -12397.660111 kJ/mol
# Density = 1.846413 g / cm^3
# Si number density = 18.506254 Si / 1000 Ang^3
#
#
#
# Elastic Constant Matrix: (Units=GPa)
#
#
# Indices 1 2 3 4 5 6 
#
# 1 24.3066 34.5240 22.2375 0.0000 0.0000 0.0000
# 2 34.5240 138.8099 85.3275 0.0000 0.0000 0.0000
# 3 22.2375 85.3275 108.3782 0.0000 0.0000 0.0000
# 4 0.0000 0.0000 0.0000 38.2494 0.0000 0.0000
# 5 0.0000 0.0000 0.0000 0.0000 -163.6215 0.0000
# 6 0.0000 0.0000 0.0000 0.0000 0.0000 27.3725
#
#
#
# Elastic Compliance Matrix: (Units=1/GPa)
#
#
# Indices 1 2 3 4 5 6 
#
# 1 0.063688 -0.015129 -0.001156 0.000000 0.000000 0.000000
# 2 -0.015129 0.017555 -0.010717 0.000000 0.000000 0.000000
# 3 -0.001156 -0.010717 0.017902 0.000000 0.000000 0.000000
# 4 0.000000 0.000000 0.000000 0.026144 0.000000 0.000000
# 5 0.000000 0.000000 0.000000 0.000000 -0.006112 0.000000
# 6 0.000000 0.000000 0.000000 0.000000 0.000000 0.036533
#
#
# Mechanical properties :
#
#
# Convention : Reuss Voigt Hill
#
# Bulk Modulus (GPa) = 22.15344 61.74140 41.94742
# Shear Modulus (GPa) = 22.24585 -10.97286 5.63650
#
# Velocity S-wave (km/s) = 3.47085 -2.43765 1.74709
# Velocity P-wave (km/s) = 5.29709 5.05094 5.17548
#
# Compressibility (1/GPa) = 0.04513972
#
# Stress axis : x y z
#
# Youngs Moduli (GPa) = 15.70150 56.96512 55.86116
#
# Poissons Ratio (x) = 0.86185 0.06459
# Poissons Ratio (y) = 0.23755 0.59864
# Poissons Ratio (z) = 0.01815 0.61047
#
# Static dielectric constant tensor:
#      x y z
#    x 3.026700 0.000000 0.000000 
#    y 0.000000 3.489900 0.000000 
#    z 0.000000 0.000000 3.736330 
# 
# 
# High freq. dielectric constant tensor:
#      x y z
#    x 1.674990 0.000000 0.000000 
#    y 0.000000 1.727130 0.000000 
#    z 0.000000 0.000000 1.732040 
# 
# From -- ./inp_files/66949.got.cif
#   From: 2010.03.12/outbox.cif.g09.slc.cpg/sg63_34_cif.got.tgz:66949.got - 2010.04.10 19:34:48.
