data_PCOD8258624
_publ_section_title
;
Structure prediction by ZEFSAII (Michael W. Deem and Ramdas Pophale) SiO2 
 PCOD8258624
Probable space group: C M C M
;
_chemical_formula_sum "Si O2"
_cell_formula_units_Z 80
_cell_length_a 9.281217
_cell_length_b 14.810877
_cell_length_c 29.401851
_cell_angle_alpha 90.000000
_cell_angle_beta 90.000000
_cell_angle_gamma 90.000000
_cell_volume 4041.665568
_symmetry_space_group_name_H-M "C M C M"
_symmetry_group_IT_number 63
_symmetry_cell_setting 'orthorhombic'
loop_
_space_group_symop_operation_xyz
x,y,z
-x,-y,1/2+z
x,-y,-z
-x,y,1/2-z
-x,-y,-z
x,y,1/2-z
-x,y,z
x,-y,1/2+z
1/2+x,1/2+y,z
1/2-x,1/2-y,1/2+z
1/2+x,1/2-y,-z
1/2-x,1/2+y,1/2-z
1/2-x,1/2-y,-z
1/2+x,1/2+y,1/2-z
1/2-x,1/2+y,z
1/2+x,1/2-y,1/2+z
loop_
_atom_site_type_symbol
_atom_site_label
_atom_site_fract_x
_atom_site_fract_y
_atom_site_fract_z
Si Si1 0.833554 0.604500 0.697598
Si Si2 0.334241 0.262102 0.869580
Si Si3 0.159555 0.265129 0.544917
Si Si4 0.840148 0.524383 0.450825
Si Si5 0.168823 0.971006 0.636083
O O1 0.793468 0.617633 0.750000
O O2 0.798935 0.699814 0.673582
O O3 0.737215 0.523666 0.678255
O O4 0.000000 0.577690 0.690760
O O5 0.500000 0.255559 0.884555
O O6 0.241625 0.223262 0.911764
O O7 0.295920 0.365252 0.856901
O O8 0.250000 0.250000 0.500000
O O9 0.145006 0.369899 0.554085
O O10 0.000000 0.221583 0.540133
O O11 0.772025 0.500000 0.500000
O O12 0.737277 0.489307 0.410625
O O13 0.000000 0.479636 0.446360
O O14 0.000000 0.989873 0.634281
#
# Coordination Sequence:
#
# PCOD8258624 Si02
#       5
#    16  16  16  16  16
#     4  10  22  40  62  85 110 149 196 235 282 348
#     4   9  20  39  59  80 113 153 191 231 281 342
#     4  10  20  33  52  80 113 148 187 230 280 334
#     4   9  19  35  54  77 108 151 192 225 271 337
#     4  10  21  37  58  86 117 147 184 240 293 334
#
# _framework density 19.79382
#
# number of rings (size 3 to 8) (size 9 to 14) (size 15 to 20)
#    0.000    2.400    0.000    1.200    2.800    4.000 
#    0.000    2.000    0.000    0.000    0.000    0.000 
#    0.000    0.000    0.000    0.000    0.000    0.000 
#
# Total GULP energy -496004.763640 kJ/mol
# GULP energy per Si atom -12400.119091 kJ/mol
# Density = 1.974877 g / cm^3
# Si number density = 19.793820 Si / 1000 Ang^3
#
#
#
# Elastic Constant Matrix: (Units=GPa)
#
#
# Indices 1 2 3 4 5 6 
#
# 1 125.1566 50.0618 91.5842 0.0000 0.0000 0.0000
# 2 50.0618 64.0723 54.4962 0.0000 0.0000 0.0000
# 3 91.5842 54.4962 183.5105 0.0000 0.0000 0.0000
# 4 0.0000 0.0000 0.0000 34.3608 0.0000 0.0000
# 5 0.0000 0.0000 0.0000 0.0000 29.3065 0.0000
# 6 0.0000 0.0000 0.0000 0.0000 0.0000 26.9835
#
#
#
# Elastic Compliance Matrix: (Units=1/GPa)
#
#
# Indices 1 2 3 4 5 6 
#
# 1 0.014591 -0.006967 -0.005213 0.000000 0.000000 0.000000
# 2 -0.006967 0.024208 -0.003712 0.000000 0.000000 0.000000
# 3 -0.005213 -0.003712 0.009153 0.000000 0.000000 0.000000
# 4 0.000000 0.000000 0.000000 0.029103 0.000000 0.000000
# 5 0.000000 0.000000 0.000000 0.000000 0.034122 0.000000
# 6 0.000000 0.000000 0.000000 0.000000 0.000000 0.037060
#
#
# Mechanical properties :
#
#
# Convention : Reuss Voigt Hill
#
# Bulk Modulus (GPa) = 61.84760 85.00265 73.42512
# Shear Modulus (GPa) = 26.96709 29.90331 28.43520
#
# Velocity S-wave (km/s) = 3.69507 3.89104 3.79432
# Velocity P-wave (km/s) = 7.03694 7.95136 7.50809
#
# Compressibility (1/GPa) = 0.01616878
#
# Stress axis : x y z
#
# Youngs Moduli (GPa) = 68.53323 41.30872 109.24895
#
# Poissons Ratio (x) = 0.28779 0.56954
# Poissons Ratio (y) = 0.47745 0.40554
# Poissons Ratio (z) = 0.35728 0.15334
#
# Static dielectric constant tensor:
#      x y z
#    x 4.145690 0.000000 0.000000 
#    y 0.000000 2.762930 0.000000 
#    z 0.000000 0.000000 3.553060 
# 
# 
# High freq. dielectric constant tensor:
#      x y z
#    x 1.773400 0.000000 0.000000 
#    y 0.000000 1.765440 0.000000 
#    z 0.000000 0.000000 1.769590 
# 
# From -- ./inp_files/66585.got.cif
#   From: 2010.03.12/outbox.cif.g09.slc.cpg/sg63_34_cif.got.tgz:66585.got - 2010.04.10 19:34:48.
