data_PCOD8258371
_publ_section_title
;
Structure prediction by ZEFSAII (Michael W. Deem and Ramdas Pophale) SiO2 
 PCOD8258371
Probable space group: C M C M
;
_chemical_formula_sum "Si O2"
_cell_formula_units_Z 96
_cell_length_a 9.365076
_cell_length_b 23.034861
_cell_length_c 23.453012
_cell_angle_alpha 90.000000
_cell_angle_beta 90.000000
_cell_angle_gamma 90.000000
_cell_volume 5059.359359
_symmetry_space_group_name_H-M "C M C M"
_symmetry_group_IT_number 63
_symmetry_cell_setting 'orthorhombic'
loop_
_space_group_symop_operation_xyz
x,y,z
-x,-y,1/2+z
x,-y,-z
-x,y,1/2-z
-x,-y,-z
x,y,1/2-z
-x,y,z
x,-y,1/2+z
1/2+x,1/2+y,z
1/2-x,1/2-y,1/2+z
1/2+x,1/2-y,-z
1/2-x,1/2+y,1/2-z
1/2-x,1/2-y,-z
1/2+x,1/2+y,1/2-z
1/2-x,1/2+y,z
1/2+x,1/2-y,1/2+z
loop_
_atom_site_type_symbol
_atom_site_label
_atom_site_fract_x
_atom_site_fract_y
_atom_site_fract_z
Si Si1 0.667325 0.697023 0.366102
Si Si2 0.664807 0.474291 0.602070
Si Si3 0.334901 0.608542 0.903144
Si Si4 0.333109 0.629780 0.474951
Si Si5 0.832240 0.680003 0.684077
Si Si6 0.840037 0.594630 0.315898
O O1 0.500000 0.686839 0.354474
O O2 0.704908 0.683416 0.432689
O O3 0.713118 0.761694 0.349292
O O4 0.754443 0.653923 0.326103
O O5 0.500000 0.460449 0.616421
O O6 0.686304 0.540495 0.584866
O O7 0.720438 0.431056 0.552220
O O8 0.759491 0.460396 0.657232
O O9 0.500000 0.623818 0.891408
O O10 0.246650 0.627522 0.847712
O O11 0.271805 0.639121 0.960926
O O12 0.500000 0.623801 0.484370
O O13 0.782893 0.683209 0.750000
O O14 0.000000 0.669141 0.680244
O O15 0.847106 0.581174 0.250000
O O16 0.000000 0.600758 0.341188
#
# Coordination Sequence:
#
# PCOD8258371 Si02
#       6
#    16  16  16  16  16  16
#     4   9  18  35  58  78  98 132 175 212 253 310
#     4   9  18  33  53  75 102 138 174 206 248 308
#     4  10  20  34  54  79 105 135 171 210 253 303
#     4   8  15  31  56  82 103 125 162 214 263 303
#     4  10  22  38  53  72 103 142 178 211 250 298
#     4  10  20  32  49  76 106 133 166 216 270 305
#
# _framework density 18.974734999999999
#
# number of rings (size 3 to 8) (size 9 to 14) (size 15 to 20)
#    0.000    2.667    0.000    2.500    0.000    7.000 
#    0.000    6.667    0.000    5.000    0.000    0.000 
#    0.000    0.000    0.000    0.000    0.000    0.000 
#
# Total GULP energy -594976.926760 kJ/mol
# GULP energy per Si atom -12395.352641 kJ/mol
# Density = 1.893155 g / cm^3
# Si number density = 18.974735 Si / 1000 Ang^3
#
#
#
# Elastic Constant Matrix: (Units=GPa)
#
#
# Indices 1 2 3 4 5 6 
#
# 1 52.7856 19.8781 38.4676 0.0000 0.0000 0.0000
# 2 19.8781 64.9098 46.2956 0.0000 0.0000 0.0000
# 3 38.4676 46.2956 122.4142 0.0000 0.0000 0.0000
# 4 0.0000 0.0000 0.0000 22.8047 0.0000 0.0000
# 5 0.0000 0.0000 0.0000 0.0000 24.7721 0.0000
# 6 0.0000 0.0000 0.0000 0.0000 0.0000 22.6327
#
#
#
# Elastic Compliance Matrix: (Units=1/GPa)
#
#
# Indices 1 2 3 4 5 6 
#
# 1 0.024939 -0.002804 -0.006776 0.000000 0.000000 0.000000
# 2 -0.002804 0.021412 -0.007216 0.000000 0.000000 0.000000
# 3 -0.006776 -0.007216 0.013028 0.000000 0.000000 0.000000
# 4 0.000000 0.000000 0.000000 0.043851 0.000000 0.000000
# 5 0.000000 0.000000 0.000000 0.000000 0.040368 0.000000
# 6 0.000000 0.000000 0.000000 0.000000 0.000000 0.044184
#
#
# Mechanical properties :
#
#
# Convention : Reuss Voigt Hill
#
# Bulk Modulus (GPa) = 38.78351 49.93244 44.35798
# Shear Modulus (GPa) = 21.74203 23.07312 22.40757
#
# Velocity S-wave (km/s) = 3.38870 3.49089 3.44017
# Velocity P-wave (km/s) = 5.98289 6.52846 6.26162
#
# Compressibility (1/GPa) = 0.02578415
#
# Stress axis : x y z
#
# Youngs Moduli (GPa) = 40.09819 46.70324 76.76040
#
# Poissons Ratio (x) = 0.13097 0.52015
# Poissons Ratio (y) = 0.11245 0.55394
# Poissons Ratio (z) = 0.27172 0.33703
#
# Static dielectric constant tensor:
#      x y z
#    x 3.378930 0.000000 0.000000 
#    y 0.000000 3.372010 0.000000 
#    z 0.000000 0.000000 3.633840 
# 
# 
# High freq. dielectric constant tensor:
#      x y z
#    x 1.715230 0.000000 0.000000 
#    y 0.000000 1.728100 0.000000 
#    z 0.000000 0.000000 1.744210 
# 
# From -- ./inp_files/59827.got.cif
#   From: 2010.03.12/outbox.cif.g09.slc.cpg/sg63_30_cif.got.tgz:59827.got - 2010.04.10 19:34:48.
