data_PCOD8258901
_publ_section_title
;
Structure prediction by ZEFSAII (Michael W. Deem and Ramdas Pophale) SiO2 
 PCOD8258901
Probable space group: C M C M
;
_chemical_formula_sum "Si O2"
_cell_formula_units_Z 104
_cell_length_a 26.124222
_cell_length_b 21.671945
_cell_length_c 9.268700
_cell_angle_alpha 90.000000
_cell_angle_beta 90.000000
_cell_angle_gamma 90.000000
_cell_volume 5247.592239
_symmetry_space_group_name_H-M "C M C M"
_symmetry_group_IT_number 63
_symmetry_cell_setting 'orthorhombic'
loop_
_space_group_symop_operation_xyz
x,y,z
-x,-y,1/2+z
x,-y,-z
-x,y,1/2-z
-x,-y,-z
x,y,1/2-z
-x,y,z
x,-y,1/2+z
1/2+x,1/2+y,z
1/2-x,1/2-y,1/2+z
1/2+x,1/2-y,-z
1/2-x,1/2+y,1/2-z
1/2-x,1/2-y,-z
1/2+x,1/2+y,1/2-z
1/2-x,1/2+y,z
1/2+x,1/2-y,1/2+z
loop_
_atom_site_type_symbol
_atom_site_label
_atom_site_fract_x
_atom_site_fract_y
_atom_site_fract_z
Si Si1 0.000000 0.565773 0.076939
Si Si2 0.893526 0.376742 0.919169
Si Si3 0.616080 0.439932 0.910380
Si Si4 0.795121 0.151237 0.419266
Si Si5 0.858667 0.755521 0.079079
Si Si6 0.708033 0.939462 0.582039
Si Si7 0.057825 0.175954 0.088013
O O1 0.949541 0.603187 0.022365
O O2 0.000000 0.556451 0.250000
O O3 0.000000 0.500000 0.000000
O O4 0.898657 0.367747 0.750000
O O5 0.871592 0.312626 0.982481
O O6 0.851513 0.428807 0.957583
O O7 0.628696 0.462313 0.750000
O O8 0.663899 0.400125 0.968008
O O9 0.565265 0.397857 0.917130
O O10 0.605603 0.500000 0.000000
O O11 0.799399 0.166536 0.250000
O O12 0.807699 0.214798 0.505382
O O13 0.739795 0.122568 0.459852
O O14 0.849782 0.755798 0.250000
O O15 0.908195 0.794516 0.036281
O O16 0.715989 0.952726 0.750000
O O17 0.728247 0.000000 0.500000
O O18 0.073292 0.199040 0.250000
O O19 0.000000 0.193299 0.052425
#
# Coordination Sequence:
#
# PCOD8258901 Si02
#       7
#     8  16  16  16  16  16  16
#     4  10  20  38  60  82 114 150 183 226 279 330
#     4   9  20  36  56  82 113 147 179 225 283 329
#     4   9  17  29  45  67  95 129 167 209 262 316
#     4   9  19  35  53  74 107 144 175 219 276 323
#     4  10  20  34  54  80 107 139 185 226 266 327
#     4  10  20  36  57  82 111 145 184 225 275 330
#     4   9  19  35  51  69 100 139 175 222 280 328
#
# _framework density 19.818612000000002
#
# number of rings (size 3 to 8) (size 9 to 14) (size 15 to 20)
#    0.000    2.615    0.000    2.308    1.077    4.308 
#    0.000    3.077    0.000    0.000    0.000    0.000 
#    0.000    0.000    0.000    0.000    0.000    0.000 
#
# Total GULP energy -644447.168159 kJ/mol
# GULP energy per Si atom -12393.214772 kJ/mol
# Density = 1.977350 g / cm^3
# Si number density = 19.818612 Si / 1000 Ang^3
#
#
#
# Elastic Constant Matrix: (Units=GPa)
#
#
# Indices 1 2 3 4 5 6 
#
# 1 116.1444 41.9834 28.4089 0.0000 0.0000 0.0000
# 2 41.9834 115.8826 41.0984 0.0000 0.0000 0.0000
# 3 28.4089 41.0984 50.5126 0.0000 0.0000 0.0000
# 4 0.0000 0.0000 0.0000 28.7921 0.0000 0.0000
# 5 0.0000 0.0000 0.0000 0.0000 20.9247 0.0000
# 6 0.0000 0.0000 0.0000 0.0000 0.0000 20.3007
#
#
#
# Elastic Compliance Matrix: (Units=1/GPa)
#
#
# Indices 1 2 3 4 5 6 
#
# 1 0.010433 -0.002388 -0.003925 0.000000 0.000000 0.000000
# 2 -0.002388 0.012676 -0.008971 0.000000 0.000000 0.000000
# 3 -0.003925 -0.008971 0.029303 0.000000 0.000000 0.000000
# 4 0.000000 0.000000 0.000000 0.034732 0.000000 0.000000
# 5 0.000000 0.000000 0.000000 0.000000 0.047790 0.000000
# 6 0.000000 0.000000 0.000000 0.000000 0.000000 0.049259
#
#
# Mechanical properties :
#
#
# Convention : Reuss Voigt Hill
#
# Bulk Modulus (GPa) = 45.77575 56.16901 50.97238
# Shear Modulus (GPa) = 22.51823 25.40676 23.96249
#
# Velocity S-wave (km/s) = 3.37444 3.58434 3.48097
# Velocity P-wave (km/s) = 6.19112 6.74782 6.47545
#
# Compressibility (1/GPa) = 0.02184563
#
# Stress axis : x y z
#
# Youngs Moduli (GPa) = 95.84818 78.88936 34.12603
#
# Poissons Ratio (x) = 0.18838 0.13394
# Poissons Ratio (y) = 0.22887 0.30613
# Poissons Ratio (z) = 0.37620 0.70768
#
# Static dielectric constant tensor:
#      x y z
#    x 3.787540 0.000000 0.000000 
#    y 0.000000 3.604270 0.000000 
#    z 0.000000 0.000000 3.499800 
# 
# 
# High freq. dielectric constant tensor:
#      x y z
#    x 1.779240 0.000000 0.000000 
#    y 0.000000 1.770010 0.000000 
#    z 0.000000 0.000000 1.745860 
# 
# From -- ./inp_files/12554.got.cif
#   From: 2010.03.12/outbox.cif.g09.slc.cpg/sg63_7_cif.got.tgz:12554.got - 2010.04.10 19:34:48.
