data_PCOD8258588
_publ_section_title
;
Structure prediction by ZEFSAII (Michael W. Deem and Ramdas Pophale) SiO2 
 PCOD8258588
Probable space group: C M C M
;
_chemical_formula_sum "Si O2"
_cell_formula_units_Z 80
_cell_length_a 20.325300
_cell_length_b 22.749891
_cell_length_c 9.189677
_cell_angle_alpha 90.000000
_cell_angle_beta 90.000000
_cell_angle_gamma 90.000000
_cell_volume 4249.291570
_symmetry_space_group_name_H-M "C M C M"
_symmetry_group_IT_number 63
_symmetry_cell_setting 'orthorhombic'
loop_
_space_group_symop_operation_xyz
x,y,z
-x,-y,1/2+z
x,-y,-z
-x,y,1/2-z
-x,-y,-z
x,y,1/2-z
-x,y,z
x,-y,1/2+z
1/2+x,1/2+y,z
1/2-x,1/2-y,1/2+z
1/2+x,1/2-y,-z
1/2-x,1/2+y,1/2-z
1/2-x,1/2-y,-z
1/2+x,1/2+y,1/2-z
1/2-x,1/2+y,z
1/2+x,1/2-y,1/2+z
loop_
_atom_site_type_symbol
_atom_site_label
_atom_site_fract_x
_atom_site_fract_y
_atom_site_fract_z
Si Si1 0.000000 0.061675 0.922034
Si Si2 0.126514 0.633559 0.078611
Si Si3 0.747656 0.438392 0.580930
Si Si4 0.500000 0.060728 0.080069
Si Si5 0.075504 0.257739 0.417893
Si Si6 0.387476 0.374039 0.916020
O O1 0.000000 0.052887 0.750000
O O2 0.064551 0.096303 0.969167
O O3 0.000000 0.000000 0.000000
O O4 0.130146 0.643848 0.250000
O O5 0.190096 0.598286 0.021585
O O6 0.063414 0.596601 0.030392
O O7 0.120987 0.696949 0.004802
O O8 0.740482 0.500000 0.500000
O O9 0.756663 0.453036 0.750000
O O10 0.684954 0.397689 0.551479
O O11 0.500000 0.048087 0.250000
O O12 0.500000 0.000000 0.000000
O O13 0.075561 0.275901 0.250000
O O14 0.110369 0.195373 0.441981
O O15 0.000000 0.256188 0.476279
O O16 0.409330 0.388787 0.750000
#
# Coordination Sequence:
#
# PCOD8258588 Si02
#       6
#     8  16  16   8  16  16
#     4  12  24  37  58  87 115 150 196 242 289 344
#     4  10  21  37  56  83 116 152 190 237 290 340
#     4  10  22  39  60  84 117 155 193 238 291 345
#     4  10  20  33  52  77 109 144 186 236 283 332
#     4  10  20  36  59  85 114 150 192 238 289 343
#     4  10  21  40  61  84 117 154 191 239 292 343
#
# _framework density 18.826668000000002
#
# number of rings (size 3 to 8) (size 9 to 14) (size 15 to 20)
#    0.000    1.800    2.000    2.100    0.000    5.600 
#    0.000    0.000    0.000    0.000    0.000    0.000 
#    0.000    0.000    0.000    0.000    0.000    0.000 
#
# Total GULP energy -496141.552732 kJ/mol
# GULP energy per Si atom -12403.538818 kJ/mol
# Density = 1.878382 g / cm^3
# Si number density = 18.826668 Si / 1000 Ang^3
#
#
#
# Elastic Constant Matrix: (Units=GPa)
#
#
# Indices 1 2 3 4 5 6 
#
# 1 135.6396 67.9318 43.8938 0.0000 0.0000 0.0000
# 2 67.9318 150.4836 60.6195 0.0000 0.0000 0.0000
# 3 43.8938 60.6195 71.5856 0.0000 0.0000 0.0000
# 4 0.0000 0.0000 0.0000 39.4755 0.0000 0.0000
# 5 0.0000 0.0000 0.0000 0.0000 -5.4702 0.0000
# 6 0.0000 0.0000 0.0000 0.0000 0.0000 44.1618
#
#
#
# Elastic Compliance Matrix: (Units=1/GPa)
#
#
# Indices 1 2 3 4 5 6 
#
# 1 0.010083 -0.003128 -0.003533 0.000000 0.000000 0.000000
# 2 -0.003128 0.011056 -0.007444 0.000000 0.000000 0.000000
# 3 -0.003533 -0.007444 0.022440 0.000000 0.000000 0.000000
# 4 0.000000 0.000000 0.000000 0.025332 0.000000 0.000000
# 5 0.000000 0.000000 0.000000 0.000000 -0.182809 0.000000
# 6 0.000000 0.000000 0.000000 0.000000 0.000000 0.022644
#
#
# Mechanical properties :
#
#
# Convention : Reuss Voigt Hill
#
# Bulk Modulus (GPa) = 65.07552 78.06655 71.57104
# Shear Modulus (GPa) = -86.32556 27.98435 -29.17060
#
# Velocity S-wave (km/s) = -6.77882 3.85960 -3.94055
# Velocity P-wave (km/s) = 5.16034 7.83696 4.17066
#
# Compressibility (1/GPa) = 0.01536676
#
# Stress axis : x y z
#
# Youngs Moduli (GPa) = 99.18130 90.44677 44.56370
#
# Poissons Ratio (x) = 0.28293 0.15746
# Poissons Ratio (y) = 0.31026 0.33175
# Poissons Ratio (z) = 0.35044 0.67333
#
# Static dielectric constant tensor:
#      x y z
#    x 3.559540 0.000000 0.000000 
#    y 0.000000 3.504310 0.000000 
#    z 0.000000 0.000000 3.388570 
# 
# 
# High freq. dielectric constant tensor:
#      x y z
#    x 1.739020 0.000000 0.000000 
#    y 0.000000 1.744020 0.000000 
#    z 0.000000 0.000000 1.721310 
# 
# From -- ./inp_files/8115.got.cif
#   From: 2010.03.12/outbox.cif.g09.slc.cpg/sg63_5_cif.got.tgz:8115.got - 2010.04.10 19:34:48.
