data_PCOD8258078
_publ_section_title
;
Structure prediction by ZEFSAII (Michael W. Deem and Ramdas Pophale) SiO2 
 PCOD8258078
Probable space group: C M C M
;
_chemical_formula_sum "Si O2"
_cell_formula_units_Z 72
_cell_length_a 19.093880
_cell_length_b 14.794956
_cell_length_c 14.123389
_cell_angle_alpha 90.000000
_cell_angle_beta 90.000000
_cell_angle_gamma 90.000000
_cell_volume 3989.760145
_symmetry_space_group_name_H-M "C M C M"
_symmetry_group_IT_number 63
_symmetry_cell_setting 'orthorhombic'
loop_
_space_group_symop_operation_xyz
x,y,z
-x,-y,1/2+z
x,-y,-z
-x,y,1/2-z
-x,-y,-z
x,y,1/2-z
-x,y,z
x,-y,1/2+z
1/2+x,1/2+y,z
1/2-x,1/2-y,1/2+z
1/2+x,1/2-y,-z
1/2-x,1/2+y,1/2-z
1/2-x,1/2-y,-z
1/2+x,1/2+y,1/2-z
1/2-x,1/2+y,z
1/2+x,1/2-y,1/2+z
loop_
_atom_site_type_symbol
_atom_site_label
_atom_site_fract_x
_atom_site_fract_y
_atom_site_fract_z
Si Si1 0.919321 0.923272 0.425619
Si Si2 0.324983 0.995506 0.250000
Si Si3 0.678061 0.601711 0.750000
Si Si4 0.080134 0.721612 0.449930
Si Si5 0.921726 0.428701 0.417676
Si Si6 0.350013 0.197143 0.250000
O O1 0.866987 0.931353 0.338713
O O2 0.907848 0.826350 0.475438
O O3 0.000000 0.932836 0.390968
O O4 0.899128 0.000000 0.500000
O O5 0.251435 0.946745 0.250000
O O6 0.368846 0.965861 0.340453
O O7 0.307354 0.103067 0.250000
O O8 0.694600 0.709711 0.750000
O O9 0.113062 0.661869 0.535083
O O10 0.104369 0.697382 0.344668
O O11 0.000000 0.693281 0.449486
O O12 0.928361 0.500000 0.500000
O O13 0.000000 0.411404 0.374389
#
# Coordination Sequence:
#
# PCOD8258078 Si02
#       6
#    16   8   8  16  16   8
#     4   9  18  37  62  85 107 138 183 231 272 315
#     4  12  23  37  54  78 114 148 180 218 273 329
#     4  10  23  39  54  82 110 144 184 224 267 321
#     4   9  17  32  57  85 109 134 176 228 273 316
#     4  10  20  34  55  83 110 140 177 222 273 323
#     4  10  19  36  56  78 103 144 186 222 262 314
#
# _framework density 18.046198
#
# number of rings (size 3 to 8) (size 9 to 14) (size 15 to 20)
#    0.000    2.222    2.222    1.000    0.000    4.444 
#    4.000    2.222    0.000    5.333    0.000    0.000 
#    0.000    0.000    0.000    0.000    0.000    0.000 
#
# Total GULP energy -446114.218417 kJ/mol
# GULP energy per Si atom -12392.061623 kJ/mol
# Density = 1.800512 g / cm^3
# Si number density = 18.046198 Si / 1000 Ang^3
#
#
#
# Elastic Constant Matrix: (Units=GPa)
#
#
# Indices 1 2 3 4 5 6 
#
# 1 89.7596 58.5825 51.0274 0.0000 0.0000 0.0000
# 2 58.5825 156.7762 70.3301 0.0000 0.0000 0.0000
# 3 51.0274 70.3301 94.2710 0.0000 0.0000 0.0000
# 4 0.0000 0.0000 0.0000 35.4923 0.0000 0.0000
# 5 0.0000 0.0000 0.0000 0.0000 -4.5099 0.0000
# 6 0.0000 0.0000 0.0000 0.0000 0.0000 23.7691
#
#
#
# Elastic Compliance Matrix: (Units=1/GPa)
#
#
# Indices 1 2 3 4 5 6 
#
# 1 0.017210 -0.003385 -0.006790 0.000000 0.000000 0.000000
# 2 -0.003385 0.010253 -0.005817 0.000000 0.000000 0.000000
# 3 -0.006790 -0.005817 0.018623 0.000000 0.000000 0.000000
# 4 0.000000 0.000000 0.000000 0.028175 0.000000 0.000000
# 5 0.000000 0.000000 0.000000 0.000000 -0.221737 0.000000
# 6 0.000000 0.000000 0.000000 0.000000 0.000000 0.042071
#
#
# Mechanical properties :
#
#
# Convention : Reuss Voigt Hill
#
# Bulk Modulus (GPa) = 70.91318 77.85409 74.38364
# Shear Modulus (GPa) = -72.75968 21.67477 -25.54245
#
# Velocity S-wave (km/s) = -6.35658 3.46941 -3.76625
# Velocity P-wave (km/s) = 3.80712 7.69963 4.73234
#
# Compressibility (1/GPa) = 0.01410175
#
# Stress axis : x y z
#
# Youngs Moduli (GPa) = 58.10488 97.53469 53.69721
#
# Poissons Ratio (x) = 0.33013 0.36463
# Poissons Ratio (y) = 0.19667 0.31235
# Poissons Ratio (z) = 0.39456 0.56735
#
# Static dielectric constant tensor:
#      x y z
#    x 3.122080 0.000000 0.000000 
#    y 0.000000 3.753230 0.000000 
#    z 0.000000 0.000000 3.006240 
# 
# 
# High freq. dielectric constant tensor:
#      x y z
#    x 1.671770 0.000000 0.000000 
#    y 0.000000 1.717840 0.000000 
#    z 0.000000 0.000000 1.696920 
# 
# From -- ./inp_files/33695.got.cif
#   From: 2010.03.12/outbox.cif.g09.slc.cpg/sg63_17_cif.got.tgz:33695.got - 2010.04.10 19:34:48.
