data_PCOD8258687
_publ_section_title
;
Structure prediction by ZEFSAII (Michael W. Deem and Ramdas Pophale) SiO2 
 PCOD8258687
Probable space group: C M C M
;
_chemical_formula_sum "Si O2"
_cell_formula_units_Z 112
_cell_length_a 17.036057
_cell_length_b 14.547906
_cell_length_c 26.652132
_cell_angle_alpha 90.000000
_cell_angle_beta 90.000000
_cell_angle_gamma 90.000000
_cell_volume 6605.436566
_symmetry_space_group_name_H-M "C M C M"
_symmetry_group_IT_number 63
_symmetry_cell_setting 'orthorhombic'
loop_
_space_group_symop_operation_xyz
x,y,z
-x,-y,1/2+z
x,-y,-z
-x,y,1/2-z
-x,-y,-z
x,y,1/2-z
-x,y,z
x,-y,1/2+z
1/2+x,1/2+y,z
1/2-x,1/2-y,1/2+z
1/2+x,1/2-y,-z
1/2-x,1/2+y,1/2-z
1/2-x,1/2-y,-z
1/2+x,1/2+y,1/2-z
1/2-x,1/2+y,z
1/2+x,1/2-y,1/2+z
loop_
_atom_site_type_symbol
_atom_site_label
_atom_site_fract_x
_atom_site_fract_y
_atom_site_fract_z
Si Si1 0.838047 0.882176 0.537303
Si Si2 0.409119 0.256929 0.114376
Si Si3 0.091941 0.384434 0.694829
Si Si4 0.409590 0.438174 0.065183
Si Si5 0.157591 0.624398 0.035910
Si Si6 0.589818 0.800988 0.063372
Si Si7 0.407988 0.016147 0.891144
O O1 0.891375 0.887726 0.487560
O O2 0.748323 0.880853 0.520171
O O3 0.857255 0.789921 0.568498
O O4 0.856106 0.971124 0.572192
O O5 0.500000 0.236822 0.100286
O O6 0.390302 0.215148 0.169382
O O7 0.392411 0.366430 0.110666
O O8 0.353306 0.206708 0.075053
O O9 0.132261 0.387813 0.750000
O O10 0.124238 0.467953 0.659825
O O11 0.000000 0.397766 0.701550
O O12 0.500000 0.468642 0.065304
O O13 0.133580 0.527791 0.060313
O O14 0.104758 0.644961 0.987990
O O15 0.500000 0.769461 0.065949
O O16 0.608883 0.874021 0.108269
O O17 0.500000 0.995397 0.896396
#
# Coordination Sequence:
#
# PCOD8258687 Si02
#       7
#    16  16  16  16  16  16  16
#     4  11  22  29  44  64  90 128 167 196 219 255
#     4   9  17  30  49  69  92 123 153 190 239 280
#     4   8  14  28  49  74  96 112 144 194 244 290
#     4  10  20  34  46  60  89 127 166 196 225 264
#     4  11  20  29  43  66  96 124 157 197 220 270
#     4  11  20  31  44  61  93 131 161 187 223 274
#     4   9  19  30  45  68  94 124 150 185 240 288
#
# _framework density 16.955731
#
# number of rings (size 3 to 8) (size 9 to 14) (size 15 to 20)
#    0.000    2.143    1.429    4.714    4.000    1.143 
#    0.000    0.000    0.000    0.000    0.000   17.000 
#    0.000    6.857    0.000    0.000    0.000    2.286 
#
# Total GULP energy -694066.053488 kJ/mol
# GULP energy per Si atom -12394.036669 kJ/mol
# Density = 1.691714 g / cm^3
# Si number density = 16.955731 Si / 1000 Ang^3
#
#
#
# Elastic Constant Matrix: (Units=GPa)
#
#
# Indices 1 2 3 4 5 6 
#
# 1 36.6927 14.4307 0.5796 0.0000 0.0000 0.0000
# 2 14.4307 126.7667 39.1395 0.0000 0.0000 0.0000
# 3 0.5796 39.1395 70.4821 0.0000 0.0000 0.0000
# 4 0.0000 0.0000 0.0000 16.4349 0.0000 0.0000
# 5 0.0000 0.0000 0.0000 0.0000 4.5531 0.0000
# 6 0.0000 0.0000 0.0000 0.0000 0.0000 18.4537
#
#
#
# Elastic Compliance Matrix: (Units=1/GPa)
#
#
# Indices 1 2 3 4 5 6 
#
# 1 0.028742 -0.003861 0.001908 0.000000 0.000000 0.000000
# 2 -0.003861 0.010040 -0.005543 0.000000 0.000000 0.000000
# 3 0.001908 -0.005543 0.017251 0.000000 0.000000 0.000000
# 4 0.000000 0.000000 0.000000 0.060846 0.000000 0.000000
# 5 0.000000 0.000000 0.000000 0.000000 0.219630 0.000000
# 6 0.000000 0.000000 0.000000 0.000000 0.000000 0.054190
#
#
# Mechanical properties :
#
#
# Convention : Reuss Voigt Hill
#
# Bulk Modulus (GPa) = 24.36724 38.02678 31.19701
# Shear Modulus (GPa) = 11.92264 19.87445 15.89855
#
# Velocity S-wave (km/s) = 2.65460 3.42736 3.06543
# Velocity P-wave (km/s) = 4.87833 6.17561 5.56491
#
# Compressibility (1/GPa) = 0.04103871
#
# Stress axis : x y z
#
# Youngs Moduli (GPa) = 34.79272 99.60628 57.96903
#
# Poissons Ratio (x) = 0.38456 -0.11058
# Poissons Ratio (y) = 0.13433 0.32134
# Poissons Ratio (z) = -0.06637 0.55215
#
# Static dielectric constant tensor:
#      x y z
#    x 2.965360 0.000000 0.000000 
#    y 0.000000 3.431780 0.000000 
#    z 0.000000 0.000000 3.071960 
# 
# 
# High freq. dielectric constant tensor:
#      x y z
#    x 1.637590 0.000000 0.000000 
#    y 0.000000 1.667440 0.000000 
#    z 0.000000 0.000000 1.599620 
# 
# From -- ./inp_files/73565.got.cif
#   From: 2010.03.12/outbox.cif.g09.slc.cpg/sg63_37_cif.got.tgz:73565.got - 2010.04.10 19:34:48.
