data_PCOD8258650
_publ_section_title
;
Structure prediction by ZEFSAII (Michael W. Deem and Ramdas Pophale) SiO2 
 PCOD8258650
Probable space group: C M C M
;
_chemical_formula_sum "Si O2"
_cell_formula_units_Z 104
_cell_length_a 19.489996
_cell_length_b 32.799757
_cell_length_c 9.018347
_cell_angle_alpha 90.000000
_cell_angle_beta 90.000000
_cell_angle_gamma 90.000000
_cell_volume 5765.132829
_symmetry_space_group_name_H-M "C M C M"
_symmetry_group_IT_number 63
_symmetry_cell_setting 'orthorhombic'
loop_
_space_group_symop_operation_xyz
x,y,z
-x,-y,1/2+z
x,-y,-z
-x,y,1/2-z
-x,-y,-z
x,y,1/2-z
-x,y,z
x,-y,1/2+z
1/2+x,1/2+y,z
1/2-x,1/2-y,1/2+z
1/2+x,1/2-y,-z
1/2-x,1/2+y,1/2-z
1/2-x,1/2-y,-z
1/2+x,1/2+y,1/2-z
1/2-x,1/2+y,z
1/2+x,1/2-y,1/2+z
loop_
_atom_site_type_symbol
_atom_site_label
_atom_site_fract_x
_atom_site_fract_y
_atom_site_fract_z
Si Si1 0.372531 0.080012 0.078959
Si Si2 0.000000 0.542945 0.575891
Si Si3 0.179501 0.346550 0.083805
Si Si4 0.825816 0.880520 0.419288
Si Si5 0.273366 0.457623 0.922945
Si Si6 0.177849 0.253873 0.079540
Si Si7 0.579116 0.691135 0.575822
O O1 0.394318 0.076162 0.250000
O O2 0.305810 0.052886 0.042837
O O3 0.432605 0.066510 0.972035
O O4 0.358800 0.126991 0.040095
O O5 0.000000 0.500000 0.500000
O O6 0.000000 0.536964 0.750000
O O7 0.161779 0.362319 0.250000
O O8 0.261049 0.350522 0.057551
O O9 0.154075 0.300584 0.064305
O O10 0.831489 0.895236 0.250000
O O11 0.821552 0.921227 0.517843
O O12 0.891379 0.853523 0.467004
O O13 0.287064 0.462255 0.750000
O O14 0.293048 0.500000 0.000000
O O15 0.187485 0.241126 0.250000
O O16 0.250000 0.250000 0.000000
O O17 0.118823 0.226636 0.008637
O O18 0.589007 0.698720 0.750000
O O19 0.500000 0.692383 0.527564
#
# Coordination Sequence:
#
# PCOD8258650 Si02
#       7
#    16   8  16  16  16  16  16
#     4  10  21  36  54  78 106 139 181 226 277 331
#     4  12  24  38  56  76 104 144 186 228 276 332
#     4   9  18  34  54  77 105 141 182 225 276 326
#     4   9  17  33  55  78 107 142 177 218 268 323
#     4  10  20  33  53  82 109 136 172 221 273 325
#     4  11  21  35  58  85 115 150 191 235 280 331
#     4  10  21  38  58  83 115 151 189 229 281 339
#
# _framework density 18.039479
#
# number of rings (size 3 to 8) (size 9 to 14) (size 15 to 20)
#    0.000    2.000    1.538    2.538    0.000    5.231 
#    1.385    0.000    0.000    0.462    0.000    0.000 
#    0.000    0.000    0.000    0.000    0.000    0.000 
#
# Total GULP energy -644876.467722 kJ/mol
# GULP energy per Si atom -12401.470533 kJ/mol
# Density = 1.799842 g / cm^3
# Si number density = 18.039479 Si / 1000 Ang^3
#
#
#
# Elastic Constant Matrix: (Units=GPa)
#
#
# Indices 1 2 3 4 5 6 
#
# 1 107.3676 61.4366 57.4880 0.0000 0.0000 0.0000
# 2 61.4366 127.5965 63.9061 0.0000 0.0000 0.0000
# 3 57.4880 63.9061 106.0085 0.0000 0.0000 0.0000
# 4 0.0000 0.0000 0.0000 36.4824 0.0000 0.0000
# 5 0.0000 0.0000 0.0000 0.0000 24.2145 0.0000
# 6 0.0000 0.0000 0.0000 0.0000 0.0000 22.7138
#
#
#
# Elastic Compliance Matrix: (Units=1/GPa)
#
#
# Indices 1 2 3 4 5 6 
#
# 1 0.014676 -0.004412 -0.005299 0.000000 0.000000 0.000000
# 2 -0.004412 0.012554 -0.005175 0.000000 0.000000 0.000000
# 3 -0.005299 -0.005175 0.015426 0.000000 0.000000 0.000000
# 4 0.000000 0.000000 0.000000 0.027410 0.000000 0.000000
# 5 0.000000 0.000000 0.000000 0.000000 0.041298 0.000000
# 6 0.000000 0.000000 0.000000 0.000000 0.000000 0.044026
#
#
# Mechanical properties :
#
#
# Convention : Reuss Voigt Hill
#
# Bulk Modulus (GPa) = 77.61801 78.51489 78.06645
# Shear Modulus (GPa) = 26.39133 27.22494 26.80813
#
# Velocity S-wave (km/s) = 3.82904 3.88904 3.85915
# Velocity P-wave (km/s) = 7.91637 7.98652 7.95152
#
# Compressibility (1/GPa) = 0.01288361
#
# Stress axis : x y z
#
# Youngs Moduli (GPa) = 68.14010 79.65833 64.82446
#
# Poissons Ratio (x) = 0.35149 0.34348
# Poissons Ratio (y) = 0.30066 0.33546
# Poissons Ratio (z) = 0.36104 0.41223
#
# Static dielectric constant tensor:
#      x y z
#    x 3.206160 0.000000 0.000000 
#    y 0.000000 3.624090 0.000000 
#    z 0.000000 0.000000 3.404450 
# 
# 
# High freq. dielectric constant tensor:
#      x y z
#    x 1.674890 0.000000 0.000000 
#    y 0.000000 1.704580 0.000000 
#    z 0.000000 0.000000 1.706590 
# 
# From -- ./inp_files/9183.got.cif
#   From: 2010.03.12/outbox.cif.g09.slc.cpg/sg63_5_cif.got.tgz:9183.got - 2010.04.10 19:34:48.
