data_PCOD8258828
_publ_section_title
;
Structure prediction by ZEFSAII (Michael W. Deem and Ramdas Pophale) SiO2 
 PCOD8258828
Probable space group: C M C M
;
_chemical_formula_sum "Si O2"
_cell_formula_units_Z 64
_cell_length_a 28.252883
_cell_length_b 13.999743
_cell_length_c 9.002844
_cell_angle_alpha 90.000000
_cell_angle_beta 90.000000
_cell_angle_gamma 90.000000
_cell_volume 3560.922805
_symmetry_space_group_name_H-M "C M C M"
_symmetry_group_IT_number 63
_symmetry_cell_setting 'orthorhombic'
loop_
_space_group_symop_operation_xyz
x,y,z
-x,-y,1/2+z
x,-y,-z
-x,y,1/2-z
-x,-y,-z
x,y,1/2-z
-x,y,z
x,-y,1/2+z
1/2+x,1/2+y,z
1/2-x,1/2-y,1/2+z
1/2+x,1/2-y,-z
1/2-x,1/2+y,1/2-z
1/2-x,1/2-y,-z
1/2+x,1/2+y,1/2-z
1/2-x,1/2+y,z
1/2+x,1/2-y,1/2+z
loop_
_atom_site_type_symbol
_atom_site_label
_atom_site_fract_x
_atom_site_fract_y
_atom_site_fract_z
Si Si1 0.928617 0.760776 0.075782
Si Si2 0.679296 0.762925 0.922659
Si Si3 0.500000 0.900277 0.920385
Si Si4 0.752906 0.599991 0.923371
Si Si5 0.000000 0.897464 0.926732
O O1 0.934728 0.785018 0.250000
O O2 0.874285 0.754769 0.027223
O O3 0.953339 0.660120 0.037286
O O4 0.952779 0.843739 0.980512
O O5 0.682757 0.789363 0.750000
O O6 0.708401 0.667484 0.959974
O O7 0.699347 0.852599 0.013656
O O8 0.500000 0.926333 0.750000
O O9 0.500000 0.000000 0.000000
O O10 0.759722 0.583166 0.750000
O O11 0.742445 0.500000 0.000000
O O12 0.000000 0.905604 0.750000
O O13 0.000000 0.000000 0.000000
#
# Coordination Sequence:
#
# PCOD8258828 Si02
#       5
#    16  16   8  16   8
#     4   9  19  37  56  76 104 137 174 218 265 308
#     4   9  19  36  56  77 103 136 175 219 264 309
#     4   9  18  32  51  73 101 133 165 207 254 304
#     4  10  20  34  53  77 106 138 173 215 261 312
#     4  11  22  36  55  79 107 139 175 215 260 312
#
# _framework density 17.972867999999998
#
# number of rings (size 3 to 8) (size 9 to 14) (size 15 to 20)
#    0.000    2.500    0.000    2.625    0.000    6.000 
#    0.000    5.000    0.000    0.000    0.000    0.000 
#    0.000    0.000    0.000    0.000    0.000    0.000 
#
# Total GULP energy -396877.707908 kJ/mol
# GULP energy per Si atom -12402.428372 kJ/mol
# Density = 1.793196 g / cm^3
# Si number density = 17.972868 Si / 1000 Ang^3
#
#
#
# Elastic Constant Matrix: (Units=GPa)
#
#
# Indices 1 2 3 4 5 6 
#
# 1 154.7955 61.5767 51.2290 0.0000 0.0000 0.0000
# 2 61.5767 143.9311 68.6620 0.0000 0.0000 0.0000
# 3 51.2290 68.6620 88.0663 0.0000 0.0000 0.0000
# 4 0.0000 0.0000 0.0000 39.5352 0.0000 0.0000
# 5 0.0000 0.0000 0.0000 0.0000 27.4096 0.0000
# 6 0.0000 0.0000 0.0000 0.0000 0.0000 8.0746
#
#
#
# Elastic Compliance Matrix: (Units=1/GPa)
#
#
# Indices 1 2 3 4 5 6 
#
# 1 0.008346 -0.001998 -0.003298 0.000000 0.000000 0.000000
# 2 -0.001998 0.011540 -0.007836 0.000000 0.000000 0.000000
# 3 -0.003298 -0.007836 0.019382 0.000000 0.000000 0.000000
# 4 0.000000 0.000000 0.000000 0.025294 0.000000 0.000000
# 5 0.000000 0.000000 0.000000 0.000000 0.036484 0.000000
# 6 0.000000 0.000000 0.000000 0.000000 0.000000 0.123845
#
#
# Mechanical properties :
#
#
# Convention : Reuss Voigt Hill
#
# Bulk Modulus (GPa) = 76.87916 83.30316 80.09116
# Shear Modulus (GPa) = 19.57037 28.69223 24.13130
#
# Velocity S-wave (km/s) = 3.30340 3.99986 3.66820
# Velocity P-wave (km/s) = 7.57746 8.23297 7.91201
#
# Compressibility (1/GPa) = 0.01300743
#
# Stress axis : x y z
#
# Youngs Moduli (GPa) = 119.81703 86.65300 51.59319
#
# Poissons Ratio (x) = 0.17309 0.17013
# Poissons Ratio (y) = 0.23934 0.40426
# Poissons Ratio (z) = 0.39511 0.67897
#
# Static dielectric constant tensor:
#      x y z
#    x 3.391910 0.000000 0.000000 
#    y 0.000000 3.335790 0.000000 
#    z 0.000000 0.000000 3.487230 
# 
# 
# High freq. dielectric constant tensor:
#      x y z
#    x 1.699160 0.000000 0.000000 
#    y 0.000000 1.698030 0.000000 
#    z 0.000000 0.000000 1.697030 
# 
# From -- ./inp_files/13765.got.cif
#   From: 2010.03.12/outbox.cif.g09.slc.cpg/sg63_7_cif.got.tgz:13765.got - 2010.04.10 19:34:48.
