data_PCOD8258756
_publ_section_title
;
Structure prediction by ZEFSAII (Michael W. Deem and Ramdas Pophale) SiO2 
 PCOD8258756
Probable space group: C M C M
;
_chemical_formula_sum "Si O2"
_cell_formula_units_Z 96
_cell_length_a 27.323837
_cell_length_b 20.574861
_cell_length_c 9.141678
_cell_angle_alpha 90.000000
_cell_angle_beta 90.000000
_cell_angle_gamma 90.000000
_cell_volume 5139.306460
_symmetry_space_group_name_H-M "C M C M"
_symmetry_group_IT_number 63
_symmetry_cell_setting 'orthorhombic'
loop_
_space_group_symop_operation_xyz
x,y,z
-x,-y,1/2+z
x,-y,-z
-x,y,1/2-z
-x,-y,-z
x,y,1/2-z
-x,y,z
x,-y,1/2+z
1/2+x,1/2+y,z
1/2-x,1/2-y,1/2+z
1/2+x,1/2-y,-z
1/2-x,1/2+y,1/2-z
1/2-x,1/2-y,-z
1/2+x,1/2+y,1/2-z
1/2-x,1/2+y,z
1/2+x,1/2-y,1/2+z
loop_
_atom_site_type_symbol
_atom_site_label
_atom_site_fract_x
_atom_site_fract_y
_atom_site_fract_z
Si Si1 0.943394 0.935449 0.578912
Si Si2 0.886323 0.188911 0.076671
Si Si3 0.285575 0.934980 0.579547
Si Si4 0.056779 0.314720 0.081565
Si Si5 0.101801 0.566014 0.421953
Si Si6 0.774677 0.189743 0.423117
O O1 0.934029 0.944471 0.750000
O O2 0.913677 0.874418 0.513860
O O3 0.000000 0.922988 0.543207
O O4 0.923925 0.000000 0.500000
O O5 0.890740 0.188018 0.250000
O O6 0.912215 0.254185 0.018266
O O7 0.830528 0.186614 0.023688
O O8 0.278607 0.947301 0.750000
O O9 0.341711 0.918720 0.540537
O O10 0.252412 0.875559 0.524400
O O11 0.267545 0.000000 0.500000
O O12 0.070691 0.329685 0.250000
O O13 0.000000 0.296704 0.067073
O O14 0.068464 0.376741 0.983407
O O15 0.084906 0.500000 0.500000
O O16 0.092915 0.558701 0.250000
O O17 0.770364 0.198771 0.250000
O O18 0.750000 0.250000 0.500000
#
# Coordination Sequence:
#
# PCOD8258756 Si02
#       6
#    16  16  16  16  16  16
#     4   9  17  31  51  74 101 133 168 205 245 290
#     4   9  18  33  53  74  99 134 170 203 244 297
#     4   9  19  34  52  75 102 132 166 204 245 293
#     4  10  20  34  53  76 100 129 168 209 247 292
#     4  10  20  35  54  75 101 132 165 202 247 297
#     4  10  20  34  52  75 102 131 166 206 248 295
#
# _framework density 18.679563000000002
#
# number of rings (size 3 to 8) (size 9 to 14) (size 15 to 20)
#    0.000    2.500    0.000    2.000    0.000    4.667 
#    0.000    1.667    0.000    2.000    0.000    0.000 
#    0.000    0.000    0.000    0.000    0.000    0.000 
#
# Total GULP energy -595347.110425 kJ/mol
# GULP energy per Si atom -12403.064801 kJ/mol
# Density = 1.863705 g / cm^3
# Si number density = 18.679563 Si / 1000 Ang^3
#
#
#
# Elastic Constant Matrix: (Units=GPa)
#
#
# Indices 1 2 3 4 5 6 
#
# 1 88.2348 64.0209 28.4272 0.0000 0.0000 0.0000
# 2 64.0209 160.4078 44.9731 0.0000 0.0000 0.0000
# 3 28.4272 44.9731 45.1744 0.0000 0.0000 0.0000
# 4 0.0000 0.0000 0.0000 33.8694 0.0000 0.0000
# 5 0.0000 0.0000 0.0000 0.0000 19.1138 0.0000
# 6 0.0000 0.0000 0.0000 0.0000 0.0000 41.5915
#
#
#
# Elastic Compliance Matrix: (Units=1/GPa)
#
#
# Indices 1 2 3 4 5 6 
#
# 1 0.016860 -0.005208 -0.005425 0.000000 0.000000 0.000000
# 2 -0.005208 0.010257 -0.006934 0.000000 0.000000 0.000000
# 3 -0.005425 -0.006934 0.032453 0.000000 0.000000 0.000000
# 4 0.000000 0.000000 0.000000 0.029525 0.000000 0.000000
# 5 0.000000 0.000000 0.000000 0.000000 0.052318 0.000000
# 6 0.000000 0.000000 0.000000 0.000000 0.000000 0.024043
#
#
# Mechanical properties :
#
#
# Convention : Reuss Voigt Hill
#
# Bulk Modulus (GPa) = 40.92222 63.18437 52.05329
# Shear Modulus (GPa) = 23.95382 29.34131 26.64757
#
# Velocity S-wave (km/s) = 3.58488 3.96759 3.78108
# Velocity P-wave (km/s) = 6.25222 7.40864 6.85486
#
# Compressibility (1/GPa) = 0.02443660
#
# Stress axis : x y z
#
# Youngs Moduli (GPa) = 59.31192 97.49696 30.81396
#
# Poissons Ratio (x) = 0.50778 0.16716
# Poissons Ratio (y) = 0.30891 0.21365
# Poissons Ratio (z) = 0.32175 0.67601
#
# Static dielectric constant tensor:
#      x y z
#    x 1.972210 0.000000 0.000000 
#    y 0.000000 3.214840 0.000000 
#    z 0.000000 0.000000 3.206460 
# 
# 
# High freq. dielectric constant tensor:
#      x y z
#    x 1.727040 0.000000 0.000000 
#    y 0.000000 1.739190 0.000000 
#    z 0.000000 0.000000 1.701040 
# 
# From -- ./inp_files/12370.got.cif
#   From: 2010.03.12/outbox.cif.g09.slc.cpg/sg63_7_cif.got.tgz:12370.got - 2010.04.10 19:34:48.
