data_PCOD8258595
_publ_section_title
;
Structure prediction by ZEFSAII (Michael W. Deem and Ramdas Pophale) SiO2 
 PCOD8258595
Probable space group: C M C M
;
_chemical_formula_sum "Si O2"
_cell_formula_units_Z 72
_cell_length_a 29.202023
_cell_length_b 14.072313
_cell_length_c 9.111184
_cell_angle_alpha 90.000000
_cell_angle_beta 90.000000
_cell_angle_gamma 90.000000
_cell_volume 3744.150025
_symmetry_space_group_name_H-M "C M C M"
_symmetry_group_IT_number 63
_symmetry_cell_setting 'orthorhombic'
loop_
_space_group_symop_operation_xyz
x,y,z
-x,-y,1/2+z
x,-y,-z
-x,y,1/2-z
-x,-y,-z
x,y,1/2-z
-x,y,z
x,-y,1/2+z
1/2+x,1/2+y,z
1/2-x,1/2-y,1/2+z
1/2+x,1/2-y,-z
1/2-x,1/2+y,1/2-z
1/2-x,1/2-y,-z
1/2+x,1/2+y,1/2-z
1/2-x,1/2+y,z
1/2+x,1/2-y,1/2+z
loop_
_atom_site_type_symbol
_atom_site_label
_atom_site_fract_x
_atom_site_fract_y
_atom_site_fract_z
Si Si1 0.186157 0.729106 0.417653
Si Si2 0.500000 0.099077 0.077910
Si Si3 0.229821 0.101387 0.423060
Si Si4 0.447105 0.406345 0.920827
Si Si5 0.083616 0.271874 0.581887
O O1 0.195525 0.760203 0.250000
O O2 0.192785 0.822705 0.517444
O O3 0.220087 0.643649 0.462624
O O4 0.134874 0.687136 0.435989
O O5 0.500000 0.081781 0.250000
O O6 0.454160 0.153430 0.026436
O O7 0.500000 0.000000 0.000000
O O8 0.222624 0.088007 0.250000
O O9 0.223481 0.000000 0.500000
O O10 0.438615 0.418791 0.750000
O O11 0.500000 0.388025 0.959833
O O12 0.428674 0.500000 0.000000
O O13 0.417797 0.319986 0.980633
O O14 0.072942 0.243347 0.750000
#
# Coordination Sequence:
#
# PCOD8258595 Si02
#       5
#    16   8  16  16  16
#     4   9  20  37  57  82 110 143 184 227 272 325
#     4  10  22  38  57  80 109 146 185 226 270 316
#     4  10  20  36  58  83 112 144 180 223 276 331
#     4  10  20  33  52  78 107 141 181 223 270 324
#     4  10  20  37  58  80 110 146 185 229 274 319
#
# _framework density 19.229997999999998
#
# number of rings (size 3 to 8) (size 9 to 14) (size 15 to 20)
#    0.000    2.222    1.111    1.333    0.000    5.333 
#    0.000    0.000    0.000    0.000    0.000    0.000 
#    0.000    0.000    0.000    0.000    0.000    0.000 
#
# Total GULP energy -446452.536949 kJ/mol
# GULP energy per Si atom -12401.459360 kJ/mol
# Density = 1.918623 g / cm^3
# Si number density = 19.229998 Si / 1000 Ang^3
#
#
#
# Elastic Constant Matrix: (Units=GPa)
#
#
# Indices 1 2 3 4 5 6 
#
# 1 113.4592 43.0642 28.9389 0.0000 0.0000 0.0000
# 2 43.0642 110.6485 41.4076 0.0000 0.0000 0.0000
# 3 28.9389 41.4076 69.7854 0.0000 0.0000 0.0000
# 4 0.0000 0.0000 0.0000 37.2859 0.0000 0.0000
# 5 0.0000 0.0000 0.0000 0.0000 23.8781 0.0000
# 6 0.0000 0.0000 0.0000 0.0000 0.0000 11.6876
#
#
#
# Elastic Compliance Matrix: (Units=1/GPa)
#
#
# Indices 1 2 3 4 5 6 
#
# 1 0.010676 -0.003211 -0.002522 0.000000 0.000000 0.000000
# 2 -0.003211 0.012583 -0.006135 0.000000 0.000000 0.000000
# 3 -0.002522 -0.006135 0.019015 0.000000 0.000000 0.000000
# 4 0.000000 0.000000 0.000000 0.026820 0.000000 0.000000
# 5 0.000000 0.000000 0.000000 0.000000 0.041879 0.000000
# 6 0.000000 0.000000 0.000000 0.000000 0.000000 0.085561
#
#
# Mechanical properties :
#
#
# Convention : Reuss Voigt Hill
#
# Bulk Modulus (GPa) = 53.93983 57.85714 55.89849
# Shear Modulus (GPa) = 22.08000 26.60249 24.34125
#
# Velocity S-wave (km/s) = 3.39220 3.72342 3.56166
# Velocity P-wave (km/s) = 6.59192 6.97405 6.78568
#
# Compressibility (1/GPa) = 0.01853918
#
# Stress axis : x y z
#
# Youngs Moduli (GPa) = 93.66995 79.47087 52.58912
#
# Poissons Ratio (x) = 0.25521 0.13261
# Poissons Ratio (y) = 0.30081 0.32262
# Poissons Ratio (z) = 0.23620 0.48753
#
# Static dielectric constant tensor:
#      x y z
#    x 3.632370 0.000000 0.000000 
#    y 0.000000 3.430560 0.000000 
#    z 0.000000 0.000000 3.499900 
# 
# 
# High freq. dielectric constant tensor:
#      x y z
#    x 1.750890 0.000000 0.000000 
#    y 0.000000 1.736870 0.000000 
#    z 0.000000 0.000000 1.750570 
# 
# From -- ./inp_files/11738.got.cif
#   From: 2010.03.12/outbox.cif.g09.slc.cpg/sg63_6_cif.got.tgz:11738.got - 2010.04.10 19:34:48.
