data_PCOD8258232
_publ_section_title
;
Structure prediction by ZEFSAII (Michael W. Deem and Ramdas Pophale) SiO2 
 PCOD8258232
Probable space group: C M C M
;
_chemical_formula_sum "Si O2"
_cell_formula_units_Z 96
_cell_length_a 25.251065
_cell_length_b 23.451217
_cell_length_c 9.190209
_cell_angle_alpha 90.000000
_cell_angle_beta 90.000000
_cell_angle_gamma 90.000000
_cell_volume 5442.149565
_symmetry_space_group_name_H-M "C M C M"
_symmetry_group_IT_number 63
_symmetry_cell_setting 'orthorhombic'
loop_
_space_group_symop_operation_xyz
x,y,z
-x,-y,1/2+z
x,-y,-z
-x,y,1/2-z
-x,-y,-z
x,y,1/2-z
-x,y,z
x,-y,1/2+z
1/2+x,1/2+y,z
1/2-x,1/2-y,1/2+z
1/2+x,1/2-y,-z
1/2-x,1/2+y,1/2-z
1/2-x,1/2-y,-z
1/2+x,1/2+y,1/2-z
1/2-x,1/2+y,z
1/2+x,1/2-y,1/2+z
loop_
_atom_site_type_symbol
_atom_site_label
_atom_site_fract_x
_atom_site_fract_y
_atom_site_fract_z
Si Si1 0.807721 0.057129 0.579633
Si Si2 0.500000 0.559939 0.578801
Si Si3 0.811392 0.555967 0.582464
Si Si4 0.060446 0.244247 0.419694
Si Si5 0.089591 0.371254 0.418309
Si Si6 0.598328 0.636678 0.920521
Si Si7 0.000000 0.560782 0.423924
O O1 0.812684 0.045159 0.750000
O O2 0.747838 0.073544 0.532576
O O3 0.845871 0.108777 0.533508
O O4 0.826688 0.000000 0.500000
O O5 0.500000 0.500000 0.500000
O O6 0.500000 0.548599 0.750000
O O7 0.448722 0.595196 0.528335
O O8 0.831964 0.500000 0.500000
O O9 0.811351 0.538821 0.750000
O O10 0.850400 0.608634 0.551743
O O11 0.062317 0.230900 0.250000
O O12 0.086766 0.304795 0.456184
O O13 0.094781 0.197115 0.501022
O O14 0.000000 0.244039 0.476509
O O15 0.072666 0.382025 0.250000
O O16 0.051700 0.405428 0.525615
O O17 0.594559 0.648102 0.750000
O O18 0.000000 0.500000 0.500000
O O19 0.000000 0.554003 0.250000
#
# Coordination Sequence:
#
# PCOD8258232 Si02
#       7
#    16   8  16  16  16  16   8
#     4   9  18  33  53  78 105 137 172 212 261 310
#     4  10  20  31  46  71  99 130 162 204 257 304
#     4   9  18  33  55  78 104 137 171 211 260 310
#     4  10  20  35  54  74  99 136 177 214 256 308
#     4  10  20  37  56  76 105 137 175 218 259 309
#     4  10  20  34  51  73 105 136 171 213 257 309
#     4  12  24  35  52  79 109 138 170 212 263 316
#
# _framework density 17.640087999999999
#
# number of rings (size 3 to 8) (size 9 to 14) (size 15 to 20)
#    0.000    2.167    1.667    1.750    0.000    4.000 
#    0.000    0.833    0.000    0.000    0.000    0.000 
#    0.000    0.000    0.000    0.000    0.000    0.000 
#
# Total GULP energy -595306.792240 kJ/mol
# GULP energy per Si atom -12402.224838 kJ/mol
# Density = 1.759994 g / cm^3
# Si number density = 17.640088 Si / 1000 Ang^3
#
#
#
# Elastic Constant Matrix: (Units=GPa)
#
#
# Indices 1 2 3 4 5 6 
#
# 1 114.3427 79.1640 41.5393 0.0000 0.0000 0.0000
# 2 79.1640 157.4435 59.6042 0.0000 0.0000 0.0000
# 3 41.5393 59.6042 58.7334 0.0000 0.0000 0.0000
# 4 0.0000 0.0000 0.0000 33.8264 0.0000 0.0000
# 5 0.0000 0.0000 0.0000 0.0000 18.4432 0.0000
# 6 0.0000 0.0000 0.0000 0.0000 0.0000 30.9978
#
#
#
# Elastic Compliance Matrix: (Units=1/GPa)
#
#
# Indices 1 2 3 4 5 6 
#
# 1 0.014117 -0.005389 -0.004516 0.000000 0.000000 0.000000
# 2 -0.005389 0.012371 -0.008743 0.000000 0.000000 0.000000
# 3 -0.004516 -0.008743 0.029093 0.000000 0.000000 0.000000
# 4 0.000000 0.000000 0.000000 0.029563 0.000000 0.000000
# 5 0.000000 0.000000 0.000000 0.000000 0.054221 0.000000
# 6 0.000000 0.000000 0.000000 0.000000 0.000000 0.032260
#
#
# Mechanical properties :
#
#
# Convention : Reuss Voigt Hill
#
# Bulk Modulus (GPa) = 54.68836 76.79272 65.74054
# Shear Modulus (GPa) = 23.25427 26.66762 24.96095
#
# Velocity S-wave (km/s) = 3.63473 3.89236 3.76575
# Velocity P-wave (km/s) = 6.97744 7.98925 7.50043
#
# Compressibility (1/GPa) = 0.01828543
#
# Stress axis : x y z
#
# Youngs Moduli (GPa) = 70.83739 80.83523 34.37285
#
# Poissons Ratio (x) = 0.43558 0.15522
# Poissons Ratio (y) = 0.38171 0.30053
# Poissons Ratio (z) = 0.31988 0.70676
#
# Static dielectric constant tensor:
#      x y z
#    x 3.451070 0.000000 0.000000 
#    y 0.000000 3.237420 0.000000 
#    z 0.000000 0.000000 3.029620 
# 
# 
# High freq. dielectric constant tensor:
#      x y z
#    x 1.686100 0.000000 0.000000 
#    y 0.000000 1.679400 0.000000 
#    z 0.000000 0.000000 1.675730 
# 
# From -- ./inp_files/10515.got.cif
#   From: 2010.03.12/outbox.cif.g09.slc.cpg/sg63_6_cif.got.tgz:10515.got - 2010.04.10 19:34:48.
