data_PCOD8258570
_publ_section_title
;
Structure prediction by ZEFSAII (Michael W. Deem and Ramdas Pophale) SiO2 
 PCOD8258570
Probable space group: C M C M
;
_chemical_formula_sum "Si O2"
_cell_formula_units_Z 96
_cell_length_a 12.891496
_cell_length_b 24.276768
_cell_length_c 17.181250
_cell_angle_alpha 90.000000
_cell_angle_beta 90.000000
_cell_angle_gamma 90.000000
_cell_volume 5377.110278
_symmetry_space_group_name_H-M "C M C M"
_symmetry_group_IT_number 63
_symmetry_cell_setting 'orthorhombic'
loop_
_space_group_symop_operation_xyz
x,y,z
-x,-y,1/2+z
x,-y,-z
-x,y,1/2-z
-x,-y,-z
x,y,1/2-z
-x,y,z
x,-y,1/2+z
1/2+x,1/2+y,z
1/2-x,1/2-y,1/2+z
1/2+x,1/2-y,-z
1/2-x,1/2+y,1/2-z
1/2-x,1/2-y,-z
1/2+x,1/2+y,1/2-z
1/2-x,1/2+y,z
1/2+x,1/2-y,1/2+z
loop_
_atom_site_type_symbol
_atom_site_label
_atom_site_fract_x
_atom_site_fract_y
_atom_site_fract_z
Si Si1 0.879887 0.278603 0.840056
Si Si2 0.381597 0.448764 0.661035
Si Si3 0.259037 0.866740 0.566391
Si Si4 0.619163 0.057215 0.542272
Si Si5 0.380083 0.329982 0.432611
Si Si6 0.203587 0.067992 0.659972
O O1 0.856590 0.268434 0.750000
O O2 0.810180 0.329171 0.868110
O O3 0.846305 0.223715 0.884912
O O4 0.000000 0.293032 0.854480
O O5 0.357479 0.432619 0.750000
O O6 0.500000 0.434976 0.639312
O O7 0.307139 0.414838 0.605416
O O8 0.363967 0.513379 0.647914
O O9 0.349955 0.893457 0.515205
O O10 0.184933 0.830197 0.512032
O O11 0.500000 0.063897 0.565914
O O12 0.683774 0.060198 0.621808
O O13 0.641512 0.000000 0.500000
O O14 0.500000 0.327677 0.455404
O O15 0.359724 0.383449 0.380531
O O16 0.220378 0.082252 0.750000
#
# Coordination Sequence:
#
# PCOD8258570 Si02
#       6
#    16  16  16  16  16  16
#     4  10  21  37  56  79 106 138 180 228 271 314
#     4  10  20  33  51  78 111 142 175 217 265 319
#     4  11  20  35  55  79 107 143 178 221 266 326
#     4  10  20  35  52  75 107 142 178 218 264 315
#     4  10  21  35  56  82 109 141 180 223 269 320
#     4  10  20  35  55  80 109 145 181 218 266 320
#
# _framework density 17.853456999999999
#
# number of rings (size 3 to 8) (size 9 to 14) (size 15 to 20)
#    0.000    1.833    1.667    3.000    0.000    2.000 
#    0.000    2.500    0.000    1.000    0.000    0.000 
#    0.000    0.000    0.000    0.000    0.000    0.000 
#
# Total GULP energy -595407.392303 kJ/mol
# GULP energy per Si atom -12404.320673 kJ/mol
# Density = 1.781282 g / cm^3
# Si number density = 17.853457 Si / 1000 Ang^3
#
#
#
# Elastic Constant Matrix: (Units=GPa)
#
#
# Indices 1 2 3 4 5 6 
#
# 1 65.1028 20.7055 24.2363 0.0000 0.0000 0.0000
# 2 20.7055 60.1963 14.4686 0.0000 0.0000 0.0000
# 3 24.2363 14.4686 70.2848 0.0000 0.0000 0.0000
# 4 0.0000 0.0000 0.0000 35.1780 0.0000 0.0000
# 5 0.0000 0.0000 0.0000 0.0000 7.6411 0.0000
# 6 0.0000 0.0000 0.0000 0.0000 0.0000 26.2086
#
#
#
# Elastic Compliance Matrix: (Units=1/GPa)
#
#
# Indices 1 2 3 4 5 6 
#
# 1 0.019074 -0.005239 -0.005499 0.000000 0.000000 0.000000
# 2 -0.005239 0.018916 -0.002087 0.000000 0.000000 0.000000
# 3 -0.005499 -0.002087 0.016554 0.000000 0.000000 0.000000
# 4 0.000000 0.000000 0.000000 0.028427 0.000000 0.000000
# 5 0.000000 0.000000 0.000000 0.000000 0.130872 0.000000
# 6 0.000000 0.000000 0.000000 0.000000 0.000000 0.038155
#
#
# Mechanical properties :
#
#
# Convention : Reuss Voigt Hill
#
# Bulk Modulus (GPa) = 34.61035 34.93385 34.77210
# Shear Modulus (GPa) = 17.40469 22.88377 20.14423
#
# Velocity S-wave (km/s) = 3.12567 3.58405 3.36268
# Velocity P-wave (km/s) = 5.69687 6.06108 5.88179
#
# Compressibility (1/GPa) = 0.02889309
#
# Stress axis : x y z
#
# Youngs Moduli (GPa) = 52.42861 52.86500 60.40975
#
# Poissons Ratio (x) = 0.27696 0.33217
# Poissons Ratio (y) = 0.27467 0.12610
# Poissons Ratio (z) = 0.28829 0.11035
#
# Static dielectric constant tensor:
#      x y z
#    x 3.258990 0.000000 0.000000 
#    y 0.000000 3.289050 0.000000 
#    z 0.000000 0.000000 3.367710 
# 
# 
# High freq. dielectric constant tensor:
#      x y z
#    x 1.693390 0.000000 0.000000 
#    y 0.000000 1.694580 0.000000 
#    z 0.000000 0.000000 1.697580 
# 
# From -- ./inp_files/42468.got.cif
#   From: 2010.03.12/outbox.cif.g09.slc.cpg/sg63_22_cif.got.tgz:42468.got - 2010.04.10 19:34:48.
