data_PCOD8258332
_publ_section_title
;
Structure prediction by ZEFSAII (Michael W. Deem and Ramdas Pophale) SiO2 
 PCOD8258332
Probable space group: C M C M
;
_chemical_formula_sum "Si O2"
_cell_formula_units_Z 80
_cell_length_a 26.579499
_cell_length_b 18.329002
_cell_length_c 8.873741
_cell_angle_alpha 90.000000
_cell_angle_beta 90.000000
_cell_angle_gamma 90.000000
_cell_volume 4323.070897
_symmetry_space_group_name_H-M "C M C M"
_symmetry_group_IT_number 63
_symmetry_cell_setting 'orthorhombic'
loop_
_space_group_symop_operation_xyz
x,y,z
-x,-y,1/2+z
x,-y,-z
-x,y,1/2-z
-x,-y,-z
x,y,1/2-z
-x,y,z
x,-y,1/2+z
1/2+x,1/2+y,z
1/2-x,1/2-y,1/2+z
1/2+x,1/2-y,-z
1/2-x,1/2+y,1/2-z
1/2-x,1/2-y,-z
1/2+x,1/2+y,1/2-z
1/2-x,1/2+y,z
1/2+x,1/2-y,1/2+z
loop_
_atom_site_type_symbol
_atom_site_label
_atom_site_fract_x
_atom_site_fract_y
_atom_site_fract_z
Si Si1 0.442791 0.138746 0.925526
Si Si2 0.703008 0.212230 0.576739
Si Si3 0.557010 0.426850 0.426120
Si Si4 0.652321 0.924207 0.571207
Si Si5 0.400110 0.708758 0.080317
O O1 0.428807 0.127332 0.750000
O O2 0.500000 0.115563 0.960691
O O3 0.435437 0.223575 0.967825
O O4 0.405695 0.089413 0.024192
O O5 0.714958 0.193043 0.750000
O O6 0.750000 0.250000 0.500000
O O7 0.689148 0.138180 0.490298
O O8 0.657711 0.269201 0.565138
O O9 0.579454 0.500000 0.500000
O O10 0.559359 0.437786 0.250000
O O11 0.500000 0.413650 0.483119
O O12 0.590749 0.358198 0.469880
O O13 0.656151 0.927601 0.750000
O O14 0.670758 0.000000 0.500000
O O15 0.413186 0.684369 0.250000
#
# Coordination Sequence:
#
# PCOD8258332 Si02
#       5
#    16  16  16  16  16
#     4   9  18  33  53  78 109 145 182 219 262 315
#     4  10  21  39  61  84 108 137 175 218 268 322
#     4  10  20  32  48  72 103 139 177 216 259 308
#     4  11  22  37  57  81 111 145 180 221 267 315
#     4   9  18  33  53  76 104 136 171 214 262 313
#
# _framework density 18.505364
#
# number of rings (size 3 to 8) (size 9 to 14) (size 15 to 20)
#    0.000    2.200    0.000    4.800    0.000    6.800 
#    0.000    1.000    0.000    4.800    0.000    0.000 
#    0.000    0.000    0.000    0.000    0.000    0.000 
#
# Total GULP energy -496118.012155 kJ/mol
# GULP energy per Si atom -12402.950304 kJ/mol
# Density = 1.846325 g / cm^3
# Si number density = 18.505364 Si / 1000 Ang^3
#
#
#
# Elastic Constant Matrix: (Units=GPa)
#
#
# Indices 1 2 3 4 5 6 
#
# 1 83.6123 42.2091 44.1950 0.0000 0.0000 0.0000
# 2 42.2091 123.4176 64.8951 0.0000 0.0000 0.0000
# 3 44.1950 64.8951 127.8310 0.0000 0.0000 0.0000
# 4 0.0000 0.0000 0.0000 37.3900 0.0000 0.0000
# 5 0.0000 0.0000 0.0000 0.0000 31.1780 0.0000
# 6 0.0000 0.0000 0.0000 0.0000 0.0000 15.2139
#
#
#
# Elastic Compliance Matrix: (Units=1/GPa)
#
#
# Indices 1 2 3 4 5 6 
#
# 1 0.015622 -0.003414 -0.003668 0.000000 0.000000 0.000000
# 2 -0.003414 0.011799 -0.004810 0.000000 0.000000 0.000000
# 3 -0.003668 -0.004810 0.011533 0.000000 0.000000 0.000000
# 4 0.000000 0.000000 0.000000 0.026745 0.000000 0.000000
# 5 0.000000 0.000000 0.000000 0.000000 0.032074 0.000000
# 6 0.000000 0.000000 0.000000 0.000000 0.000000 0.065730
#
#
# Mechanical properties :
#
#
# Convention : Reuss Voigt Hill
#
# Bulk Modulus (GPa) = 65.91655 70.82883 68.37269
# Shear Modulus (GPa) = 25.99525 28.99383 27.49454
#
# Velocity S-wave (km/s) = 3.75205 3.96255 3.85874
# Velocity P-wave (km/s) = 7.38025 7.70023 7.54194
#
# Compressibility (1/GPa) = 0.01517070
#
# Stress axis : x y z
#
# Youngs Moduli (GPa) = 64.01139 84.75123 86.71103
#
# Poissons Ratio (x) = 0.28936 0.31804
# Poissons Ratio (y) = 0.21855 0.41705
# Poissons Ratio (z) = 0.23478 0.40762
#
# Static dielectric constant tensor:
#      x y z
#    x 3.290970 0.000000 0.000000 
#    y 0.000000 3.359460 0.000000 
#    z 0.000000 0.000000 3.426640 
# 
# 
# High freq. dielectric constant tensor:
#      x y z
#    x 1.701430 0.000000 0.000000 
#    y 0.000000 1.720360 0.000000 
#    z 0.000000 0.000000 1.724660 
# 
# From -- ./inp_files/11996.got.cif
#   From: 2010.03.12/outbox.cif.g09.slc.cpg/sg63_6_cif.got.tgz:11996.got - 2010.04.10 19:34:48.
