data_PCOD8258050
_publ_section_title
;
Structure prediction by ZEFSAII (Michael W. Deem and Ramdas Pophale) SiO2 
 PCOD8258050
Probable space group: C M C M
;
_chemical_formula_sum "Si O2"
_cell_formula_units_Z 80
_cell_length_a 24.948115
_cell_length_b 11.035812
_cell_length_c 15.008304
_cell_angle_alpha 90.000000
_cell_angle_beta 90.000000
_cell_angle_gamma 90.000000
_cell_volume 4132.126883
_symmetry_space_group_name_H-M "C M C M"
_symmetry_group_IT_number 63
_symmetry_cell_setting 'orthorhombic'
loop_
_space_group_symop_operation_xyz
x,y,z
-x,-y,1/2+z
x,-y,-z
-x,y,1/2-z
-x,-y,-z
x,y,1/2-z
-x,y,z
x,-y,1/2+z
1/2+x,1/2+y,z
1/2-x,1/2-y,1/2+z
1/2+x,1/2-y,-z
1/2-x,1/2+y,1/2-z
1/2-x,1/2-y,-z
1/2+x,1/2+y,1/2-z
1/2-x,1/2+y,z
1/2+x,1/2-y,1/2+z
loop_
_atom_site_type_symbol
_atom_site_label
_atom_site_fract_x
_atom_site_fract_y
_atom_site_fract_z
Si Si1 0.749191 0.878189 0.448936
Si Si2 0.060831 0.471094 0.399880
Si Si3 0.439546 0.237170 0.152386
Si Si4 0.634580 0.371483 0.482105
Si Si5 0.152526 0.291200 0.350104
O O1 0.750000 0.750000 0.500000
O O2 0.811586 0.897637 0.423511
O O3 0.707734 0.866170 0.366984
O O4 0.729375 0.000000 0.500000
O O5 0.079247 0.500000 0.500000
O O6 0.064350 0.592726 0.342651
O O7 0.100421 0.375164 0.356325
O O8 0.000000 0.418576 0.398887
O O9 0.422182 0.286849 0.250000
O O10 0.500000 0.278016 0.130728
O O11 0.403035 0.284690 0.073515
O O12 0.605647 0.500000 0.500000
O O13 0.647954 0.315566 0.578309
O O14 0.155226 0.237592 0.250000
#
# Coordination Sequence:
#
# PCOD8258050 Si02
#       5
#    16  16  16  16  16
#     4   9  20  38  58  80 113 155 196 241 289 346
#     4  10  19  35  60  87 119 151 184 241 306 353
#     4  10  21  37  59  87 116 151 197 242 290 352
#     4  10  22  40  60  81 117 160 196 239 292 346
#     4  11  22  36  59  90 118 149 196 248 295 351
#
# _framework density 19.360489999999999
#
# number of rings (size 3 to 8) (size 9 to 14) (size 15 to 20)
#    0.000    2.000    2.000    1.200    2.800    3.200 
#    0.000    8.000    0.000    0.000    0.000    0.000 
#    0.000    0.000    0.000    0.000    0.000    0.000 
#
# Total GULP energy -495664.742273 kJ/mol
# GULP energy per Si atom -12391.618557 kJ/mol
# Density = 1.931642 g / cm^3
# Si number density = 19.360490 Si / 1000 Ang^3
#
#
#
# Elastic Constant Matrix: (Units=GPa)
#
#
# Indices 1 2 3 4 5 6 
#
# 1 87.8157 26.3144 50.6581 0.0000 0.0000 0.0000
# 2 26.3144 90.0257 29.7076 0.0000 0.0000 0.0000
# 3 50.6581 29.7076 126.9093 0.0000 0.0000 0.0000
# 4 0.0000 0.0000 0.0000 9.0860 0.0000 0.0000
# 5 0.0000 0.0000 0.0000 0.0000 9.0652 0.0000
# 6 0.0000 0.0000 0.0000 0.0000 0.0000 26.0230
#
#
#
# Elastic Compliance Matrix: (Units=1/GPa)
#
#
# Indices 1 2 3 4 5 6 
#
# 1 0.015366 -0.002674 -0.005508 0.000000 0.000000 0.000000
# 2 -0.002674 0.012503 -0.001859 0.000000 0.000000 0.000000
# 3 -0.005508 -0.001859 0.010513 0.000000 0.000000 0.000000
# 4 0.000000 0.000000 0.000000 0.110059 0.000000 0.000000
# 5 0.000000 0.000000 0.000000 0.000000 0.110312 0.000000
# 6 0.000000 0.000000 0.000000 0.000000 0.000000 0.038428
#
#
# Mechanical properties :
#
#
# Convention : Reuss Voigt Hill
#
# Bulk Modulus (GPa) = 54.64378 57.56787 56.10582
# Shear Modulus (GPa) = 15.46249 22.03955 18.75102
#
# Velocity S-wave (km/s) = 2.82913 3.37765 3.11548
# Velocity P-wave (km/s) = 6.24160 6.70899 6.47951
#
# Compressibility (1/GPa) = 0.01830035
#
# Stress axis : x y z
#
# Youngs Moduli (GPa) = 65.07896 79.97993 95.11691
#
# Poissons Ratio (x) = 0.21386 0.52387
# Poissons Ratio (y) = 0.17402 0.17686
# Poissons Ratio (z) = 0.35843 0.14872
#
# Static dielectric constant tensor:
#      x y z
#    x 3.790960 0.000000 0.000000 
#    y 0.000000 3.537800 0.000000 
#    z 0.000000 0.000000 3.531350 
# 
# 
# High freq. dielectric constant tensor:
#      x y z
#    x 1.762800 0.000000 0.000000 
#    y 0.000000 1.744680 0.000000 
#    z 0.000000 0.000000 1.738640 
# 
# From -- ./inp_files/36433.got.cif
#   From: 2010.03.12/outbox.cif.g09.slc.cpg/sg63_19_cif.got.tgz:36433.got - 2010.04.10 19:34:48.
