data_PCOD8258736
_publ_section_title
;
Structure prediction by ZEFSAII (Michael W. Deem and Ramdas Pophale) SiO2 
 PCOD8258736
Probable space group: C M C M
;
_chemical_formula_sum "Si O2"
_cell_formula_units_Z 88
_cell_length_a 22.210478
_cell_length_b 16.460953
_cell_length_c 13.895749
_cell_angle_alpha 90.000000
_cell_angle_beta 90.000000
_cell_angle_gamma 90.000000
_cell_volume 5080.364130
_symmetry_space_group_name_H-M "C M C M"
_symmetry_group_IT_number 63
_symmetry_cell_setting 'orthorhombic'
loop_
_space_group_symop_operation_xyz
x,y,z
-x,-y,1/2+z
x,-y,-z
-x,y,1/2-z
-x,-y,-z
x,y,1/2-z
-x,y,z
x,-y,1/2+z
1/2+x,1/2+y,z
1/2-x,1/2-y,1/2+z
1/2+x,1/2-y,-z
1/2-x,1/2+y,1/2-z
1/2-x,1/2-y,-z
1/2+x,1/2+y,1/2-z
1/2-x,1/2+y,z
1/2+x,1/2-y,1/2+z
loop_
_atom_site_type_symbol
_atom_site_label
_atom_site_fract_x
_atom_site_fract_y
_atom_site_fract_z
Si Si1 0.720558 0.000000 0.000000
Si Si2 0.430209 0.248634 0.639355
Si Si3 0.828432 0.673496 0.976128
Si Si4 0.933804 0.067168 0.364082
Si Si5 0.677829 0.532932 0.639054
Si Si6 0.288629 0.713936 0.637833
O O1 0.677892 0.922267 0.007231
O O2 0.764149 0.009117 0.091841
O O3 0.411585 0.234480 0.750000
O O4 0.500000 0.228433 0.624329
O O5 0.393166 0.188489 0.571021
O O6 0.416043 0.341044 0.607557
O O7 0.778975 0.708020 0.902146
O O8 0.824471 0.717403 0.079547
O O9 0.937383 0.060698 0.250000
O O10 0.000000 0.044670 0.406328
O O11 0.883527 0.005245 0.404948
O O12 0.683397 0.510796 0.750000
O O13 0.676663 0.629196 0.620902
O O14 0.286595 0.737728 0.750000
#
# Coordination Sequence:
#
# PCOD8258736 Si02
#       6
#     8  16  16  16  16  16
#     4  10  22  34  48  74 100 126 172 208 254 304
#     4   9  18  33  54  78 101 128 167 212 255 299
#     4  10  20  34  52  73 100 131 168 218 254 301
#     4   8  15  28  48  73  99 130 164 197 238 289
#     4   9  18  32  48  69 104 134 162 205 246 298
#     4   9  19  33  50  74 102 137 170 200 249 308
#
# _framework density 17.321594000000001
#
# number of rings (size 3 to 8) (size 9 to 14) (size 15 to 20)
#    0.000    2.909    0.000    1.636    7.636    1.455 
#    0.000    1.818    0.000    1.636    0.000    0.000 
#    0.000    0.000    0.000    0.000    0.000    0.000 
#
# Total GULP energy -545554.987275 kJ/mol
# GULP energy per Si atom -12398.976984 kJ/mol
# Density = 1.728217 g / cm^3
# Si number density = 17.321594 Si / 1000 Ang^3
#
#
#
# Elastic Constant Matrix: (Units=GPa)
#
#
# Indices 1 2 3 4 5 6 
#
# 1 92.6024 66.2935 42.8384 0.0000 0.0000 0.0000
# 2 66.2935 94.3831 50.8441 0.0000 0.0000 0.0000
# 3 42.8384 50.8441 93.2018 0.0000 0.0000 0.0000
# 4 0.0000 0.0000 0.0000 25.2050 0.0000 0.0000
# 5 0.0000 0.0000 0.0000 0.0000 17.5287 0.0000
# 6 0.0000 0.0000 0.0000 0.0000 0.0000 27.6262
#
#
#
# Elastic Compliance Matrix: (Units=1/GPa)
#
#
# Indices 1 2 3 4 5 6 
#
# 1 0.022091 -0.014228 -0.002392 0.000000 0.000000 0.000000
# 2 -0.014228 0.024168 -0.006645 0.000000 0.000000 0.000000
# 3 -0.002392 -0.006645 0.015454 0.000000 0.000000 0.000000
# 4 0.000000 0.000000 0.000000 0.039675 0.000000 0.000000
# 5 0.000000 0.000000 0.000000 0.000000 0.057049 0.000000
# 6 0.000000 0.000000 0.000000 0.000000 0.000000 0.036197
#
#
# Mechanical properties :
#
#
# Convention : Reuss Voigt Hill
#
# Bulk Modulus (GPa) = 65.86078 66.68214 66.27146
# Shear Modulus (GPa) = 20.30660 22.08607 21.19633
#
# Velocity S-wave (km/s) = 3.42764 3.57467 3.50193
# Velocity P-wave (km/s) = 7.33279 7.45774 7.39553
#
# Compressibility (1/GPa) = 0.01518354
#
# Stress axis : x y z
#
# Youngs Moduli (GPa) = 45.26699 41.37669 64.70907
#
# Poissons Ratio (x) = 0.58871 0.15479
# Poissons Ratio (y) = 0.64406 0.42998
# Poissons Ratio (z) = 0.10828 0.27494
#
# Static dielectric constant tensor:
#      x y z
#    x 3.238950 0.000000 0.000000 
#    y 0.000000 3.132830 0.000000 
#    z 0.000000 0.000000 3.175410 
# 
# 
# High freq. dielectric constant tensor:
#      x y z
#    x 1.655610 0.000000 0.000000 
#    y 0.000000 1.656390 0.000000 
#    z 0.000000 0.000000 1.668750 
# 
# From -- ./inp_files/36756.got.cif
#   From: 2010.03.12/outbox.cif.g09.slc.cpg/sg63_19_cif.got.tgz:36756.got - 2010.04.10 19:34:48.
