data_PCOD8258007
_publ_section_title
;
Structure prediction by ZEFSAII (Michael W. Deem and Ramdas Pophale) SiO2 
 PCOD8258007
Probable space group: C M C M
;
_chemical_formula_sum "Si O2"
_cell_formula_units_Z 96
_cell_length_a 31.347303
_cell_length_b 8.969351
_cell_length_c 15.241154
_cell_angle_alpha 90.000000
_cell_angle_beta 90.000000
_cell_angle_gamma 90.000000
_cell_volume 4285.278508
_symmetry_space_group_name_H-M "C M C M"
_symmetry_group_IT_number 63
_symmetry_cell_setting 'orthorhombic'
loop_
_space_group_symop_operation_xyz
x,y,z
-x,-y,1/2+z
x,-y,-z
-x,y,1/2-z
-x,-y,-z
x,y,1/2-z
-x,y,z
x,-y,1/2+z
1/2+x,1/2+y,z
1/2-x,1/2-y,1/2+z
1/2+x,1/2-y,-z
1/2-x,1/2+y,1/2-z
1/2-x,1/2-y,-z
1/2+x,1/2+y,1/2-z
1/2-x,1/2+y,z
1/2+x,1/2-y,1/2+z
loop_
_atom_site_type_symbol
_atom_site_label
_atom_site_fract_x
_atom_site_fract_y
_atom_site_fract_z
Si Si1 0.794231 0.588088 0.354719
Si Si2 0.375275 0.099750 0.646228
Si Si3 0.786800 0.916740 0.349591
Si Si4 0.953606 0.067345 0.596392
Si Si5 0.547821 0.106506 0.148653
Si Si6 0.870138 0.069908 0.403741
O O1 0.793043 0.595075 0.250000
O O2 0.836900 0.505495 0.385723
O O3 0.794528 0.755795 0.394639
O O4 0.752957 0.502573 0.394211
O O5 0.373324 0.132802 0.750000
O O6 0.371430 0.252204 0.592634
O O7 0.419451 0.020874 0.618609
O O8 0.773500 0.887789 0.250000
O O9 0.828854 0.017945 0.350819
O O10 0.944923 0.244390 0.591954
O O11 0.000000 0.038861 0.642983
O O12 0.955608 0.000000 0.500000
O O13 0.913558 0.988445 0.644886
O O14 0.555925 0.149810 0.250000
O O15 0.500000 0.043427 0.134523
O O16 0.867251 0.000000 0.500000
#
# Coordination Sequence:
#
# PCOD8258007 Si02
#       6
#    16  16  16  16  16  16
#     4   9  18  33  57  84 106 137 184 230 274 336
#     4  10  20  36  58  83 112 146 185 231 284 338
#     4  10  19  35  58  81 108 143 185 232 282 335
#     4   9  19  37  57  78 110 150 187 222 270 337
#     4   9  18  34  59  90 118 144 183 238 290 330
#     4  11  23  37  53  79 113 147 188 233 278 332
#
# _framework density 22.402277999999999
#
# number of rings (size 3 to 8) (size 9 to 14) (size 15 to 20)
#    0.000    2.333    0.000    2.500    0.000    6.000 
#    0.000   10.833    0.000    9.000    0.000    0.000 
#    0.000    0.000    0.000    0.000    0.000    0.000 
#
# Total GULP energy -595026.617719 kJ/mol
# GULP energy per Si atom -12396.387869 kJ/mol
# Density = 2.235129 g / cm^3
# Si number density = 22.402278 Si / 1000 Ang^3
#
#
#
# Elastic Constant Matrix: (Units=GPa)
#
#
# Indices 1 2 3 4 5 6 
#
# 1 209.1103 101.4388 3.8590 0.0000 0.0000 0.0000
# 2 101.4388 208.8333 27.7471 0.0000 0.0000 0.0000
# 3 3.8590 27.7471 31.0960 0.0000 0.0000 0.0000
# 4 0.0000 0.0000 0.0000 30.7255 0.0000 0.0000
# 5 0.0000 0.0000 0.0000 0.0000 12.2952 0.0000
# 6 0.0000 0.0000 0.0000 0.0000 0.0000 47.7798
#
#
#
# Elastic Compliance Matrix: (Units=1/GPa)
#
#
# Indices 1 2 3 4 5 6 
#
# 1 0.006391 -0.003403 0.002243 0.000000 0.000000 0.000000
# 2 -0.003403 0.007244 -0.006042 0.000000 0.000000 0.000000
# 3 0.002243 -0.006042 0.037271 0.000000 0.000000 0.000000
# 4 0.000000 0.000000 0.000000 0.032546 0.000000 0.000000
# 5 0.000000 0.000000 0.000000 0.000000 0.081333 0.000000
# 6 0.000000 0.000000 0.000000 0.000000 0.000000 0.020929
#
#
# Mechanical properties :
#
#
# Convention : Reuss Voigt Hill
#
# Bulk Modulus (GPa) = 27.39423 79.45882 53.42653
# Shear Modulus (GPa) = 23.55323 39.22640 31.38981
#
# Velocity S-wave (km/s) = 3.24601 4.18904 3.74731
# Velocity P-wave (km/s) = 5.12871 7.67746 6.52867
#
# Compressibility (1/GPa) = 0.03650404
#
# Stress axis : x y z
#
# Youngs Moduli (GPa) = 156.46174 138.04533 26.83043
#
# Poissons Ratio (x) = 0.46971 -0.06018
# Poissons Ratio (y) = 0.53237 0.16210
# Poissons Ratio (z) = -0.35093 0.83402
#
# Static dielectric constant tensor:
#      x y z
#    x 4.811390 0.000000 0.000000 
#    y 0.000000 4.085470 0.000000 
#    z 0.000000 0.000000 3.434360 
# 
# 
# High freq. dielectric constant tensor:
#      x y z
#    x 1.907180 0.000000 0.000000 
#    y 0.000000 1.887400 0.000000 
#    z 0.000000 0.000000 1.836280 
# 
# From -- ./inp_files/58044.got.cif
#   From: 2010.03.12/outbox.cif.g09.slc.cpg/sg63_30_cif.got.tgz:58044.got - 2010.04.10 19:34:48.
