data_PCOD8258675
_publ_section_title
;
Structure prediction by ZEFSAII (Michael W. Deem and Ramdas Pophale) SiO2 
 PCOD8258675
Probable space group: C M C M
;
_chemical_formula_sum "Si O2"
_cell_formula_units_Z 96
_cell_length_a 14.537224
_cell_length_b 22.183779
_cell_length_c 14.210519
_cell_angle_alpha 90.000000
_cell_angle_beta 90.000000
_cell_angle_gamma 90.000000
_cell_volume 4582.758294
_symmetry_space_group_name_H-M "C M C M"
_symmetry_group_IT_number 63
_symmetry_cell_setting 'orthorhombic'
loop_
_space_group_symop_operation_xyz
x,y,z
-x,-y,1/2+z
x,-y,-z
-x,y,1/2-z
-x,-y,-z
x,y,1/2-z
-x,y,z
x,-y,1/2+z
1/2+x,1/2+y,z
1/2-x,1/2-y,1/2+z
1/2+x,1/2-y,-z
1/2-x,1/2+y,1/2-z
1/2-x,1/2-y,-z
1/2+x,1/2+y,1/2-z
1/2-x,1/2+y,z
1/2+x,1/2-y,1/2+z
loop_
_atom_site_type_symbol
_atom_site_label
_atom_site_fract_x
_atom_site_fract_y
_atom_site_fract_z
Si Si1 0.105459 0.579608 0.750000
Si Si2 0.105254 0.772718 0.933560
Si Si3 0.834190 0.710545 0.750000
Si Si4 0.897840 0.117317 0.939728
Si Si5 0.892562 0.656763 0.451614
Si Si6 0.869589 0.183276 0.750000
Si Si7 0.103258 0.676639 0.250000
Si Si8 0.289787 0.942757 0.436749
O O1 0.096904 0.653242 0.750000
O O2 0.160639 0.550665 0.836938
O O3 0.000000 0.556138 0.750000
O O4 0.161293 0.754115 0.840499
O O5 0.000000 0.773025 0.901324
O O6 0.133679 0.837628 0.975595
O O7 0.122514 0.725358 0.016814
O O8 0.739175 0.674855 0.750000
O O9 0.910017 0.152461 0.842382
O O10 0.820983 0.065197 0.929455
O O11 0.000000 0.090355 0.962885
O O12 0.851338 0.651198 0.345606
O O13 0.832550 0.616425 0.518643
O O14 0.000000 0.638654 0.458465
O O15 0.899232 0.251862 0.750000
O O16 0.000000 0.652848 0.250000
O O17 0.313506 0.000000 0.500000
#
# Coordination Sequence:
#
# PCOD8258675 Si02
#       8
#     8  16   8  16  16   8   8  16
#     4  12  24  44  69  94 125 163 206 260 318 375
#     4  10  20  35  59  92 127 162 201 250 314 383
#     4  12  22  34  61  96 131 166 205 249 314 384
#     4  11  23  41  65  94 129 167 210 261 316 369
#     4  10  20  36  60  91 129 164 198 253 318 379
#     4  12  20  33  64  99 127 161 202 255 319 381
#     4  10  20  33  55  95 135 166 198 246 320 392
#     4  12  27  45  64  91 124 166 225 264 304 364
#
# _framework density 20.948083
#
# number of rings (size 3 to 8) (size 9 to 14) (size 15 to 20)
#    0.000    1.000    5.000    2.000    2.333    3.667 
#    0.000    1.667    0.000    0.000    0.000    0.000 
#    0.000    0.000    0.000    0.000    0.000    0.000 
#
# Total GULP energy -595053.549080 kJ/mol
# GULP energy per Si atom -12396.948939 kJ/mol
# Density = 2.090040 g / cm^3
# Si number density = 20.948083 Si / 1000 Ang^3
#
#
#
# Elastic Constant Matrix: (Units=GPa)
#
#
# Indices 1 2 3 4 5 6 
#
# 1 114.8503 26.5990 38.4258 0.0000 0.0000 0.0000
# 2 26.5990 40.6826 17.9873 0.0000 0.0000 0.0000
# 3 38.4258 17.9873 136.7669 0.0000 0.0000 0.0000
# 4 0.0000 0.0000 0.0000 19.6671 0.0000 0.0000
# 5 0.0000 0.0000 0.0000 0.0000 24.5446 0.0000
# 6 0.0000 0.0000 0.0000 0.0000 0.0000 14.4917
#
#
#
# Elastic Compliance Matrix: (Units=1/GPa)
#
#
# Indices 1 2 3 4 5 6 
#
# 1 0.010877 -0.006116 -0.002252 0.000000 0.000000 0.000000
# 2 -0.006116 0.029537 -0.002166 0.000000 0.000000 0.000000
# 3 -0.002252 -0.002166 0.008229 0.000000 0.000000 0.000000
# 4 0.000000 0.000000 0.000000 0.050846 0.000000 0.000000
# 5 0.000000 0.000000 0.000000 0.000000 0.040742 0.000000
# 6 0.000000 0.000000 0.000000 0.000000 0.000000 0.069005
#
#
# Mechanical properties :
#
#
# Convention : Reuss Voigt Hill
#
# Bulk Modulus (GPa) = 36.26422 50.92489 43.59456
# Shear Modulus (GPa) = 20.87717 25.69318 23.28518
#
# Velocity S-wave (km/s) = 3.16035 3.50597 3.33763
# Velocity P-wave (km/s) = 5.53770 6.38372 5.97570
#
# Compressibility (1/GPa) = 0.02757539
#
# Stress axis : x y z
#
# Youngs Moduli (GPa) = 91.93948 33.85579 121.51826
#
# Poissons Ratio (x) = 0.20706 0.27360
# Poissons Ratio (y) = 0.56229 0.26325
# Poissons Ratio (z) = 0.20701 0.07334
#
# Static dielectric constant tensor:
#      x y z
#    x 3.909330 0.000000 0.000000 
#    y 0.000000 3.307620 0.000000 
#    z 0.000000 0.000000 4.076860 
# 
# 
# High freq. dielectric constant tensor:
#      x y z
#    x 1.829930 0.000000 0.000000 
#    y 0.000000 1.771550 0.000000 
#    z 0.000000 0.000000 1.836340 
# 
# From -- ./inp_files/32003.got.cif
#   From: 2010.03.12/outbox.cif.g09.slc.cpg/sg63_17_cif.got.tgz:32003.got - 2010.04.10 19:34:48.
