data_PCOD8258414
_publ_section_title
;
Structure prediction by ZEFSAII (Michael W. Deem and Ramdas Pophale) SiO2 
 PCOD8258414
Probable space group: C M C M
;
_chemical_formula_sum "Si O2"
_cell_formula_units_Z 96
_cell_length_a 25.270731
_cell_length_b 25.343064
_cell_length_c 8.584921
_cell_angle_alpha 90.000000
_cell_angle_beta 90.000000
_cell_angle_gamma 90.000000
_cell_volume 5498.107515
_symmetry_space_group_name_H-M "C M C M"
_symmetry_group_IT_number 63
_symmetry_cell_setting 'orthorhombic'
loop_
_space_group_symop_operation_xyz
x,y,z
-x,-y,1/2+z
x,-y,-z
-x,y,1/2-z
-x,-y,-z
x,y,1/2-z
-x,y,z
x,-y,1/2+z
1/2+x,1/2+y,z
1/2-x,1/2-y,1/2+z
1/2+x,1/2-y,-z
1/2-x,1/2+y,1/2-z
1/2-x,1/2-y,-z
1/2+x,1/2+y,1/2-z
1/2-x,1/2+y,z
1/2+x,1/2-y,1/2+z
loop_
_atom_site_type_symbol
_atom_site_label
_atom_site_fract_x
_atom_site_fract_y
_atom_site_fract_z
Si Si1 0.333619 0.750445 0.067477
Si Si2 0.942031 0.240371 0.930414
Si Si3 0.441331 0.371098 0.923094
Si Si4 0.242494 0.832120 0.432538
Si Si5 0.759820 0.054709 0.069149
Si Si6 0.372065 0.450376 0.071694
O O1 0.343505 0.746173 0.250000
O O2 0.291809 0.795409 0.023648
O O3 0.388499 0.770057 0.985012
O O4 0.310771 0.693410 0.009146
O O5 0.936593 0.225242 0.750000
O O6 0.000000 0.269445 0.956087
O O7 0.942384 0.189925 0.039699
O O8 0.417353 0.379241 0.750000
O O9 0.500000 0.395004 0.930169
O O10 0.406778 0.398512 0.055766
O O11 0.231288 0.834991 0.250000
O O12 0.258970 0.890491 0.490714
O O13 0.745595 0.056904 0.250000
O O14 0.822088 0.053160 0.041336
O O15 0.734206 0.000000 0.000000
O O16 0.354559 0.457652 0.250000
O O17 0.404864 0.500000 0.000000
#
# Coordination Sequence:
#
# PCOD8258414 Si02
#       6
#    16  16  16  16  16  16
#     4  10  20  33  51  74 100 131 165 202 243 288
#     4  10  20  33  49  69  94 124 157 194 236 282
#     4  10  20  33  47  62  82 111 149 191 234 279
#     4  10  20  34  51  73 101 131 164 201 243 290
#     4  11  21  34  51  70  94 123 157 194 235 283
#     4  11  21  33  47  62  83 111 147 190 234 279
#
# _framework density 17.460553000000001
#
# number of rings (size 3 to 8) (size 9 to 14) (size 15 to 20)
#    0.000    1.667    0.000    7.000    0.000    4.333 
#    0.000    0.000    0.000    0.000    0.000    0.000 
#    0.000    0.667    0.000    2.167    0.000    3.167 
#
# Total GULP energy -594698.421371 kJ/mol
# GULP energy per Si atom -12389.550445 kJ/mol
# Density = 1.742081 g / cm^3
# Si number density = 17.460553 Si / 1000 Ang^3
#
#
#
# Elastic Constant Matrix: (Units=GPa)
#
#
# Indices 1 2 3 4 5 6 
#
# 1 83.4890 22.3741 32.3751 0.0000 0.0000 0.0000
# 2 22.3741 84.0219 23.8779 0.0000 0.0000 0.0000
# 3 32.3751 23.8779 86.6607 0.0000 0.0000 0.0000
# 4 0.0000 0.0000 0.0000 27.8723 0.0000 0.0000
# 5 0.0000 0.0000 0.0000 0.0000 23.4729 0.0000
# 6 0.0000 0.0000 0.0000 0.0000 0.0000 18.7506
#
#
#
# Elastic Compliance Matrix: (Units=1/GPa)
#
#
# Indices 1 2 3 4 5 6 
#
# 1 0.014481 -0.002516 -0.004717 0.000000 0.000000 0.000000
# 2 -0.002516 0.013350 -0.002739 0.000000 0.000000 0.000000
# 3 -0.004717 -0.002739 0.014056 0.000000 0.000000 0.000000
# 4 0.000000 0.000000 0.000000 0.035878 0.000000 0.000000
# 5 0.000000 0.000000 0.000000 0.000000 0.042602 0.000000
# 6 0.000000 0.000000 0.000000 0.000000 0.000000 0.053332
#
#
# Mechanical properties :
#
#
# Convention : Reuss Voigt Hill
#
# Bulk Modulus (GPa) = 45.56882 45.71398 45.64140
# Shear Modulus (GPa) = 24.88119 25.72212 25.30165
#
# Velocity S-wave (km/s) = 3.77900 3.84234 3.81080
# Velocity P-wave (km/s) = 6.72280 6.77664 6.74977
#
# Compressibility (1/GPa) = 0.02194483
#
# Stress axis : x y z
#
# Youngs Moduli (GPa) = 69.05695 74.90754 71.14462
#
# Poissons Ratio (x) = 0.18844 0.33556
# Poissons Ratio (y) = 0.17372 0.19483
# Poissons Ratio (z) = 0.32572 0.20513
#
# Static dielectric constant tensor:
#      x y z
#    x 3.410640 0.000000 0.000000 
#    y 0.000000 3.443840 0.000000 
#    z 0.000000 0.000000 3.293910 
# 
# 
# High freq. dielectric constant tensor:
#      x y z
#    x 1.649760 0.000000 0.000000 
#    y 0.000000 1.649250 0.000000 
#    z 0.000000 0.000000 1.695940 
# 
# From -- ./inp_files/10697.got.cif
#   From: 2010.03.12/outbox.cif.g09.slc.cpg/sg63_6_cif.got.tgz:10697.got - 2010.04.10 19:34:48.
