data_PCOD8258651
_publ_section_title
;
Structure prediction by ZEFSAII (Michael W. Deem and Ramdas Pophale) SiO2 
 PCOD8258651
Probable space group: C M C M
;
_chemical_formula_sum "Si O2"
_cell_formula_units_Z 96
_cell_length_a 23.202733
_cell_length_b 25.459225
_cell_length_c 8.833243
_cell_angle_alpha 90.000000
_cell_angle_beta 90.000000
_cell_angle_gamma 90.000000
_cell_volume 5218.005105
_symmetry_space_group_name_H-M "C M C M"
_symmetry_group_IT_number 63
_symmetry_cell_setting 'orthorhombic'
loop_
_space_group_symop_operation_xyz
x,y,z
-x,-y,1/2+z
x,-y,-z
-x,y,1/2-z
-x,-y,-z
x,y,1/2-z
-x,y,z
x,-y,1/2+z
1/2+x,1/2+y,z
1/2-x,1/2-y,1/2+z
1/2+x,1/2-y,-z
1/2-x,1/2+y,1/2-z
1/2-x,1/2-y,-z
1/2+x,1/2+y,1/2-z
1/2-x,1/2+y,z
1/2+x,1/2-y,1/2+z
loop_
_atom_site_type_symbol
_atom_site_label
_atom_site_fract_x
_atom_site_fract_y
_atom_site_fract_z
Si Si1 0.860958 0.346786 0.427968
Si Si2 0.865186 0.154269 0.924658
Si Si3 0.251738 0.692599 0.071862
Si Si4 0.433480 0.758832 0.577060
Si Si5 0.065461 0.445915 0.428746
Si Si6 0.565181 0.446597 0.428798
O O1 0.849371 0.348561 0.250000
O O2 0.800446 0.343296 0.513580
O O3 0.899476 0.296343 0.464208
O O4 0.893906 0.398812 0.485529
O O5 0.845367 0.150490 0.750000
O O6 0.911761 0.199917 0.945954
O O7 0.894718 0.101022 0.982735
O O8 0.810299 0.163499 0.029492
O O9 0.246530 0.699656 0.250000
O O10 0.250000 0.750000 0.000000
O O11 0.423392 0.777228 0.750000
O O12 0.500000 0.760598 0.532113
O O13 0.088521 0.500000 0.500000
O O14 0.067933 0.451274 0.250000
O O15 0.000000 0.434411 0.483236
O O16 0.590202 0.500000 0.500000
O O17 0.566271 0.451610 0.250000
O O18 0.500000 0.436621 0.486730
#
# Coordination Sequence:
#
# PCOD8258651 Si02
#       6
#    16  16  16  16  16  16
#     4  11  22  37  57  82 113 148 187 232 281 332
#     4  10  20  36  57  81 112 148 188 231 278 332
#     4  12  24  39  58  81 110 148 190 232 280 336
#     4  10  20  33  53  82 113 145 182 226 279 338
#     4   9  19  36  58  84 114 147 183 226 277 331
#     4   9  18  34  57  84 115 150 186 228 278 331
#
# _framework density 18.397836000000002
#
# number of rings (size 3 to 8) (size 9 to 14) (size 15 to 20)
#    0.000    1.833    1.667    3.000    0.000    5.000 
#    0.000    2.500    0.000    3.000    0.000    0.000 
#    0.000    0.000    0.000    0.000    0.000    0.000 
#
# Total GULP energy -595389.349524 kJ/mol
# GULP energy per Si atom -12403.944782 kJ/mol
# Density = 1.835596 g / cm^3
# Si number density = 18.397836 Si / 1000 Ang^3
#
#
#
# Elastic Constant Matrix: (Units=GPa)
#
#
# Indices 1 2 3 4 5 6 
#
# 1 96.2842 41.9744 31.9932 0.0000 0.0000 0.0000
# 2 41.9744 126.0113 34.4356 0.0000 0.0000 0.0000
# 3 31.9932 34.4356 65.6662 0.0000 0.0000 0.0000
# 4 0.0000 0.0000 0.0000 27.0760 0.0000 0.0000
# 5 0.0000 0.0000 0.0000 0.0000 27.2306 0.0000
# 6 0.0000 0.0000 0.0000 0.0000 0.0000 26.3979
#
#
#
# Elastic Compliance Matrix: (Units=1/GPa)
#
#
# Indices 1 2 3 4 5 6 
#
# 1 0.013366 -0.003120 -0.004876 0.000000 0.000000 0.000000
# 2 -0.003120 0.009991 -0.003720 0.000000 0.000000 0.000000
# 3 -0.004876 -0.003720 0.019555 0.000000 0.000000 0.000000
# 4 0.000000 0.000000 0.000000 0.036933 0.000000 0.000000
# 5 0.000000 0.000000 0.000000 0.000000 0.036723 0.000000
# 6 0.000000 0.000000 0.000000 0.000000 0.000000 0.037882
#
#
# Mechanical properties :
#
#
# Convention : Reuss Voigt Hill
#
# Bulk Modulus (GPa) = 51.33075 56.08536 53.70805
# Shear Modulus (GPa) = 27.11857 28.11146 27.61502
#
# Velocity S-wave (km/s) = 3.84345 3.91317 3.87847
# Velocity P-wave (km/s) = 6.90341 7.13920 7.02230
#
# Compressibility (1/GPa) = 0.01948150
#
# Stress axis : x y z
#
# Youngs Moduli (GPa) = 74.81562 100.08552 51.13841
#
# Poissons Ratio (x) = 0.31224 0.24936
# Poissons Ratio (y) = 0.23341 0.19021
# Poissons Ratio (z) = 0.36481 0.37227
#
# Static dielectric constant tensor:
#      x y z
#    x 3.527180 0.000000 0.000000 
#    y 0.000000 3.463100 0.000000 
#    z 0.000000 0.000000 3.340400 
# 
# 
# High freq. dielectric constant tensor:
#      x y z
#    x 1.715480 0.000000 0.000000 
#    y 0.000000 1.715130 0.000000 
#    z 0.000000 0.000000 1.709130 
# 
# From -- ./inp_files/8604.got.cif
#   From: 2010.03.12/outbox.cif.g09.slc.cpg/sg63_5_cif.got.tgz:8604.got - 2010.04.10 19:34:48.
