data_PCOD8258565
_publ_section_title
;
Structure prediction by ZEFSAII (Michael W. Deem and Ramdas Pophale) SiO2 
 PCOD8258565
Probable space group: C M C M
;
_chemical_formula_sum "Si O2"
_cell_formula_units_Z 112
_cell_length_a 28.051984
_cell_length_b 15.348723
_cell_length_c 15.184593
_cell_angle_alpha 90.000000
_cell_angle_beta 90.000000
_cell_angle_gamma 90.000000
_cell_volume 6537.910736
_symmetry_space_group_name_H-M "C M C M"
_symmetry_group_IT_number 63
_symmetry_cell_setting 'orthorhombic'
loop_
_space_group_symop_operation_xyz
x,y,z
-x,-y,1/2+z
x,-y,-z
-x,y,1/2-z
-x,-y,-z
x,y,1/2-z
-x,y,z
x,-y,1/2+z
1/2+x,1/2+y,z
1/2-x,1/2-y,1/2+z
1/2+x,1/2-y,-z
1/2-x,1/2+y,1/2-z
1/2-x,1/2-y,-z
1/2+x,1/2+y,1/2-z
1/2-x,1/2+y,z
1/2+x,1/2-y,1/2+z
loop_
_atom_site_type_symbol
_atom_site_label
_atom_site_fract_x
_atom_site_fract_y
_atom_site_fract_z
Si Si1 0.260153 0.180560 0.351444
Si Si2 0.551224 0.994530 0.895485
Si Si3 0.734669 0.871792 0.347342
Si Si4 0.697819 0.404320 0.995948
Si Si5 0.553308 0.796525 0.648449
Si Si6 0.355069 0.238139 0.049560
Si Si7 0.641437 0.923917 0.428594
O O1 0.263439 0.147626 0.250000
O O2 0.228496 0.267795 0.358918
O O3 0.233212 0.109365 0.412036
O O4 0.313330 0.201611 0.386780
O O5 0.500000 0.023556 0.854657
O O6 0.594651 0.057458 0.868072
O O7 0.564076 0.898316 0.863683
O O8 0.547920 0.000000 0.000000
O O9 0.753782 0.893612 0.250000
O O10 0.771692 0.907094 0.416148
O O11 0.684915 0.920544 0.361339
O O12 0.673333 0.500000 0.000000
O O13 0.658542 0.328834 0.002393
O O14 0.555203 0.770964 0.750000
O O15 0.500000 0.774525 0.610903
O O16 0.595493 0.743372 0.600888
O O17 0.365398 0.168432 0.974584
O O18 0.649792 0.000000 0.500000
#
# Coordination Sequence:
#
# PCOD8258565 Si02
#       7
#    16  16  16  16  16  16  16
#     4  10  20  35  54  74 102 138 175 220 263 307
#     4   9  17  29  46  71 102 135 168 200 247 308
#     4  10  20  34  51  73 101 137 175 212 257 308
#     4  11  22  37  53  74 106 138 178 223 262 305
#     4  10  20  33  51  77 107 137 172 216 263 316
#     4  11  19  35  53  73 104 139 174 214 259 310
#     4  11  18  30  49  72 102 135 172 212 250 303
#
# _framework density 17.130855
#
# number of rings (size 3 to 8) (size 9 to 14) (size 15 to 20)
#    0.000    1.714    5.714    1.714    0.000    1.714 
#    0.000    0.000    0.000    0.429    0.000    0.000 
#    0.000    0.571    0.000    0.000    0.000    0.000 
#
# Total GULP energy -693959.902472 kJ/mol
# GULP energy per Si atom -12392.141116 kJ/mol
# Density = 1.709186 g / cm^3
# Si number density = 17.130855 Si / 1000 Ang^3
#
#
#
# Elastic Constant Matrix: (Units=GPa)
#
#
# Indices 1 2 3 4 5 6 
#
# 1 112.3712 35.6991 19.7810 0.0000 0.0000 0.0000
# 2 35.6991 83.6229 20.3816 0.0000 0.0000 0.0000
# 3 19.7810 20.3816 64.7619 0.0000 0.0000 0.0000
# 4 0.0000 0.0000 0.0000 12.9928 0.0000 0.0000
# 5 0.0000 0.0000 0.0000 0.0000 15.2511 0.0000
# 6 0.0000 0.0000 0.0000 0.0000 0.0000 27.3144
#
#
#
# Elastic Compliance Matrix: (Units=1/GPa)
#
#
# Indices 1 2 3 4 5 6 
#
# 1 0.010518 -0.004015 -0.001949 0.000000 0.000000 0.000000
# 2 -0.004015 0.014485 -0.003332 0.000000 0.000000 0.000000
# 3 -0.001949 -0.003332 0.017085 0.000000 0.000000 0.000000
# 4 0.000000 0.000000 0.000000 0.076966 0.000000 0.000000
# 5 0.000000 0.000000 0.000000 0.000000 0.065569 0.000000
# 6 0.000000 0.000000 0.000000 0.000000 0.000000 0.036611
#
#
# Mechanical properties :
#
#
# Convention : Reuss Voigt Hill
#
# Bulk Modulus (GPa) = 42.56196 45.83103 44.19649
# Shear Modulus (GPa) = 20.18919 23.43794 21.81356
#
# Velocity S-wave (km/s) = 3.43669 3.70289 3.57227
# Velocity P-wave (km/s) = 6.37550 6.71517 6.54753
#
# Compressibility (1/GPa) = 0.02349516
#
# Stress axis : x y z
#
# Youngs Moduli (GPa) = 95.07793 69.03858 58.53033
#
# Poissons Ratio (x) = 0.27719 0.11407
# Poissons Ratio (y) = 0.38174 0.19503
# Poissons Ratio (z) = 0.18530 0.23005
#
# Static dielectric constant tensor:
#      x y z
#    x 3.673470 0.000000 0.000000 
#    y 0.000000 3.170460 0.000000 
#    z 0.000000 0.000000 3.651030 
# 
# 
# High freq. dielectric constant tensor:
#      x y z
#    x 1.655140 0.000000 0.000000 
#    y 0.000000 1.636090 0.000000 
#    z 0.000000 0.000000 1.657900 
# 
# From -- ./inp_files/38717.got.cif
#   From: 2010.03.12/outbox.cif.g09.slc.cpg/sg63_20_cif.got.tgz:38717.got - 2010.04.10 19:34:48.
