data_PCOD8258208
_publ_section_title
;
Structure prediction by ZEFSAII (Michael W. Deem and Ramdas Pophale) SiO2 
 PCOD8258208
Probable space group: C M C M
;
_chemical_formula_sum "Si O2"
_cell_formula_units_Z 80
_cell_length_a 8.580082
_cell_length_b 29.659130
_cell_length_c 16.191874
_cell_angle_alpha 90.000000
_cell_angle_beta 90.000000
_cell_angle_gamma 90.000000
_cell_volume 4120.471946
_symmetry_space_group_name_H-M "C M C M"
_symmetry_group_IT_number 63
_symmetry_cell_setting 'orthorhombic'
loop_
_space_group_symop_operation_xyz
x,y,z
-x,-y,1/2+z
x,-y,-z
-x,y,1/2-z
-x,-y,-z
x,y,1/2-z
-x,y,z
x,-y,1/2+z
1/2+x,1/2+y,z
1/2-x,1/2-y,1/2+z
1/2+x,1/2-y,-z
1/2-x,1/2+y,1/2-z
1/2-x,1/2-y,-z
1/2+x,1/2+y,1/2-z
1/2-x,1/2+y,z
1/2+x,1/2-y,1/2+z
loop_
_atom_site_type_symbol
_atom_site_label
_atom_site_fract_x
_atom_site_fract_y
_atom_site_fract_z
Si Si1 0.314947 0.707103 0.250000
Si Si2 0.685680 0.054886 0.921411
Si Si3 0.185423 0.644652 0.841454
Si Si4 0.814996 0.543331 0.105190
Si Si5 0.313909 0.106695 0.250000
Si Si6 0.184342 0.262034 0.089159
O O1 0.500000 0.709140 0.250000
O O2 0.257682 0.656042 0.250000
O O3 0.252647 0.731404 0.334135
O O4 0.500000 0.056999 0.922021
O O5 0.757628 0.098024 0.875291
O O6 0.739221 0.008375 0.876703
O O7 0.747689 0.056952 0.015175
O O8 0.250719 0.652426 0.750000
O O9 0.239588 0.686643 0.896567
O O10 0.000000 0.641623 0.840299
O O11 0.749329 0.578852 0.171299
O O12 0.000000 0.544991 0.107970
O O13 0.500000 0.110660 0.250000
O O14 0.000000 0.257846 0.086133
O O15 0.250000 0.250000 0.000000
#
# Coordination Sequence:
#
# PCOD8258208 Si02
#       6
#     8  16  16  16   8  16
#     4  10  22  40  53  71 107 145 174 208 259 318
#     4   8  14  24  40  63  99 133 154 189 252 309
#     4   9  16  27  46  69  94 129 167 200 244 306
#     4   8  15  26  38  65 103 129 152 197 251 295
#     4  10  20  30  49  77 101 127 170 216 247 290
#     4  10  21  37  56  77 103 135 174 217 259 308
#
# _framework density 19.415251999999999
#
# number of rings (size 3 to 8) (size 9 to 14) (size 15 to 20)
#    0.000    3.000    1.000    1.200    4.200    0.800 
#    0.000    0.000    0.000    0.000    0.000    4.200 
#    0.000    0.000    0.000    0.000    0.000    0.000 
#
# Total GULP energy -495639.671634 kJ/mol
# GULP energy per Si atom -12390.991791 kJ/mol
# Density = 1.937106 g / cm^3
# Si number density = 19.415252 Si / 1000 Ang^3
#
#
#
# Elastic Constant Matrix: (Units=GPa)
#
#
# Indices 1 2 3 4 5 6 
#
# 1 7.1194 12.2065 12.9346 0.0000 0.0000 0.0000
# 2 12.2065 190.0172 95.5173 0.0000 0.0000 0.0000
# 3 12.9346 95.5173 151.3337 0.0000 0.0000 0.0000
# 4 0.0000 0.0000 0.0000 43.1314 0.0000 0.0000
# 5 0.0000 0.0000 0.0000 0.0000 17.3034 0.0000
# 6 0.0000 0.0000 0.0000 0.0000 0.0000 20.0869
#
#
#
# Elastic Compliance Matrix: (Units=1/GPa)
#
#
# Indices 1 2 3 4 5 6 
#
# 1 0.169840 -0.005292 -0.011176 0.000000 0.000000 0.000000
# 2 -0.005292 0.007873 -0.004517 0.000000 0.000000 0.000000
# 3 -0.011176 -0.004517 0.010414 0.000000 0.000000 0.000000
# 4 0.000000 0.000000 0.000000 0.023185 0.000000 0.000000
# 5 0.000000 0.000000 0.000000 0.000000 0.057792 0.000000
# 6 0.000000 0.000000 0.000000 0.000000 0.000000 0.049784
#
#
# Mechanical properties :
#
#
# Convention : Reuss Voigt Hill
#
# Bulk Modulus (GPa) = 6.84198 65.53191 36.18694
# Shear Modulus (GPa) = 12.20770 31.29181 21.74976
#
# Velocity S-wave (km/s) = 2.51025 4.01897 3.35063
# Velocity P-wave (km/s) = 3.45448 7.44058 5.80068
#
# Compressibility (1/GPa) = 0.14615659
#
# Stress axis : x y z
#
# Youngs Moduli (GPa) = 5.88790 127.01211 96.02342
#
# Poissons Ratio (x) = 0.67221 1.07314
# Poissons Ratio (y) = 0.03116 0.43374
# Poissons Ratio (z) = 0.06580 0.57372
#
# Static dielectric constant tensor:
#      x y z
#    x 2.803180 0.000000 0.000000 
#    y 0.000000 3.953960 0.000000 
#    z 0.000000 0.000000 3.910660 
# 
# 
# High freq. dielectric constant tensor:
#      x y z
#    x 1.677990 0.000000 0.000000 
#    y 0.000000 1.775840 0.000000 
#    z 0.000000 0.000000 1.766040 
# 
# From -- ./inp_files/40552.got.cif
#   From: 2010.03.12/outbox.cif.g09.slc.cpg/sg63_21_cif.got.tgz:40552.got - 2010.04.10 19:34:48.
