data_PCOD8258546
_publ_section_title
;
Structure prediction by ZEFSAII (Michael W. Deem and Ramdas Pophale) SiO2 
 PCOD8258546
Probable space group: C M C M
;
_chemical_formula_sum "Si O2"
_cell_formula_units_Z 96
_cell_length_a 18.637034
_cell_length_b 10.130706
_cell_length_c 26.265871
_cell_angle_alpha 90.000000
_cell_angle_beta 90.000000
_cell_angle_gamma 90.000000
_cell_volume 4959.162239
_symmetry_space_group_name_H-M "C M C M"
_symmetry_group_IT_number 63
_symmetry_cell_setting 'orthorhombic'
loop_
_space_group_symop_operation_xyz
x,y,z
-x,-y,1/2+z
x,-y,-z
-x,y,1/2-z
-x,-y,-z
x,y,1/2-z
-x,y,z
x,-y,1/2+z
1/2+x,1/2+y,z
1/2-x,1/2-y,1/2+z
1/2+x,1/2-y,-z
1/2-x,1/2+y,1/2-z
1/2-x,1/2-y,-z
1/2+x,1/2+y,1/2-z
1/2-x,1/2+y,z
1/2+x,1/2-y,1/2+z
loop_
_atom_site_type_symbol
_atom_site_label
_atom_site_fract_x
_atom_site_fract_y
_atom_site_fract_z
Si Si1 0.815313 0.023942 0.057328
Si Si2 0.181032 0.759198 0.808805
Si Si3 0.082147 0.972363 0.648349
Si Si4 0.080169 0.267508 0.637696
Si Si5 0.774876 0.246803 0.904330
Si Si6 0.921764 0.467111 0.309568
O O1 0.886459 0.042888 0.091286
O O2 0.765186 0.904283 0.077722
O O3 0.767724 0.156663 0.058255
O O4 0.841165 0.000000 0.000000
O O5 0.205928 0.744346 0.750000
O O6 0.249590 0.769338 0.845661
O O7 0.137801 0.632704 0.830807
O O8 0.129812 0.887242 0.812691
O O9 0.087347 0.125409 0.665556
O O10 0.000000 0.922376 0.649065
O O11 0.139779 0.279170 0.593276
O O12 0.096384 0.381474 0.678423
O O13 0.000000 0.280987 0.613892
O O14 0.923550 0.447662 0.250000
O O15 0.000000 0.430185 0.332632
#
# Coordination Sequence:
#
# PCOD8258546 Si02
#       6
#    16  16  16  16  16  16
#     4  10  20  35  56  78 103 136 172 217 268 311
#     4  10  20  33  51  75 105 140 174 212 257 305
#     4   9  19  34  52  77 106 136 173 213 255 309
#     4   9  18  33  50  68  96 132 167 210 258 300
#     4  10  20  35  53  77 103 132 173 215 259 315
#     4   9  17  29  46  68  94 129 170 204 240 291
#
# _framework density 19.358108999999999
#
# number of rings (size 3 to 8) (size 9 to 14) (size 15 to 20)
#    0.000    2.500    0.000    2.000    0.000    2.667 
#    0.000   11.667    0.000    0.500    0.000    0.000 
#    0.000    0.000    0.000    0.000    0.000    0.000 
#
# Total GULP energy -594966.174766 kJ/mol
# GULP energy per Si atom -12395.128641 kJ/mol
# Density = 1.931405 g / cm^3
# Si number density = 19.358109 Si / 1000 Ang^3
#
#
#
# Elastic Constant Matrix: (Units=GPa)
#
#
# Indices 1 2 3 4 5 6 
#
# 1 75.6705 23.1855 10.0796 0.0000 0.0000 0.0000
# 2 23.1855 85.7910 9.2277 0.0000 0.0000 0.0000
# 3 10.0796 9.2277 65.0210 0.0000 0.0000 0.0000
# 4 0.0000 0.0000 0.0000 20.8927 0.0000 0.0000
# 5 0.0000 0.0000 0.0000 0.0000 13.2958 0.0000
# 6 0.0000 0.0000 0.0000 0.0000 0.0000 26.4400
#
#
#
# Elastic Compliance Matrix: (Units=1/GPa)
#
#
# Indices 1 2 3 4 5 6 
#
# 1 0.014597 -0.003759 -0.001729 0.000000 0.000000 0.000000
# 2 -0.003759 0.012805 -0.001235 0.000000 0.000000 0.000000
# 3 -0.001729 -0.001235 0.015823 0.000000 0.000000 0.000000
# 4 0.000000 0.000000 0.000000 0.047864 0.000000 0.000000
# 5 0.000000 0.000000 0.000000 0.000000 0.075212 0.000000
# 6 0.000000 0.000000 0.000000 0.000000 0.000000 0.037822
#
#
# Mechanical properties :
#
#
# Convention : Reuss Voigt Hill
#
# Bulk Modulus (GPa) = 33.58041 34.60759 34.09400
# Shear Modulus (GPa) = 21.97857 24.39167 23.18512
#
# Velocity S-wave (km/s) = 3.37318 3.55353 3.46453
# Velocity P-wave (km/s) = 5.70576 5.89518 5.80124
#
# Compressibility (1/GPa) = 0.02977927
#
# Stress axis : x y z
#
# Youngs Moduli (GPa) = 68.50579 78.09500 63.19931
#
# Poissons Ratio (x) = 0.29356 0.10930
# Poissons Ratio (y) = 0.25751 0.07802
# Poissons Ratio (z) = 0.11848 0.09641
#
# Static dielectric constant tensor:
#      x y z
#    x 3.728650 0.000000 0.000000 
#    y 0.000000 3.809910 0.000000 
#    z 0.000000 0.000000 3.087800 
# 
# 
# High freq. dielectric constant tensor:
#      x y z
#    x 1.757970 0.000000 0.000000 
#    y 0.000000 1.770690 0.000000 
#    z 0.000000 0.000000 1.709030 
# 
# From -- ./inp_files/70298.got.cif
#   From: 2010.03.12/outbox.cif.g09.slc.cpg/sg63_36_cif.got.tgz:70298.got - 2010.04.10 19:34:48.
