data_PCOD8258450
_publ_section_title
;
Structure prediction by ZEFSAII (Michael W. Deem and Ramdas Pophale) SiO2 
 PCOD8258450
Probable space group: C M C M
;
_chemical_formula_sum "Si O2"
_cell_formula_units_Z 80
_cell_length_a 22.344263
_cell_length_b 9.158729
_cell_length_c 17.115749
_cell_angle_alpha 90.000000
_cell_angle_beta 90.000000
_cell_angle_gamma 90.000000
_cell_volume 3502.653302
_symmetry_space_group_name_H-M "C M C M"
_symmetry_group_IT_number 63
_symmetry_cell_setting 'orthorhombic'
loop_
_space_group_symop_operation_xyz
x,y,z
-x,-y,1/2+z
x,-y,-z
-x,y,1/2-z
-x,-y,-z
x,y,1/2-z
-x,y,z
x,-y,1/2+z
1/2+x,1/2+y,z
1/2-x,1/2-y,1/2+z
1/2+x,1/2-y,-z
1/2-x,1/2+y,1/2-z
1/2-x,1/2-y,-z
1/2+x,1/2+y,1/2-z
1/2-x,1/2+y,z
1/2+x,1/2-y,1/2+z
loop_
_atom_site_type_symbol
_atom_site_label
_atom_site_fract_x
_atom_site_fract_y
_atom_site_fract_z
Si Si1 0.066777 0.093000 0.422259
Si Si2 0.373284 0.341114 0.336781
Si Si3 0.627957 0.833068 0.985690
Si Si4 0.753036 0.105058 0.438043
Si Si5 0.269607 0.147177 0.663111
O O1 0.100940 0.243412 0.442082
O O2 0.000000 0.128944 0.391452
O O3 0.062854 0.000000 0.500000
O O4 0.102352 0.002624 0.356475
O O5 0.396018 0.295821 0.250000
O O6 0.396362 0.224154 0.401480
O O7 0.301928 0.348956 0.336575
O O8 0.701319 0.807299 0.987260
O O9 0.609822 0.000000 0.000000
O O10 0.793275 0.207712 0.382478
O O11 0.790276 0.000000 0.500000
O O12 0.711682 0.000106 0.382189
O O13 0.296989 0.145984 0.750000
#
# Coordination Sequence:
#
# PCOD8258450 Si02
#       5
#    16  16  16  16  16
#     4   9  18  34  56  79 103 136 179 222 267 322
#     4   9  19  35  54  76 105 142 183 227 270 318
#     4   9  19  35  54  79 109 141 177 221 273 327
#     4  10  20  33  51  75 103 140 182 222 260 312
#     4  10  20  33  49  73 106 140 176 220 272 320
#
# _framework density 22.839828000000001
#
# number of rings (size 3 to 8) (size 9 to 14) (size 15 to 20)
#    0.000    2.600    0.000    1.200    0.000    8.800 
#    0.000    1.000    0.000    1.200    0.000    0.000 
#    0.000    0.000    0.000    0.000    0.000    0.000 
#
# Total GULP energy -495720.124303 kJ/mol
# GULP energy per Si atom -12393.003108 kJ/mol
# Density = 2.278784 g / cm^3
# Si number density = 22.839828 Si / 1000 Ang^3
#
#
#
# Elastic Constant Matrix: (Units=GPa)
#
#
# Indices 1 2 3 4 5 6 
#
# 1 57.6762 26.2366 14.0689 0.0000 0.0000 0.0000
# 2 26.2366 84.5263 23.3198 0.0000 0.0000 0.0000
# 3 14.0689 23.3198 140.5837 0.0000 0.0000 0.0000
# 4 0.0000 0.0000 0.0000 29.6364 0.0000 0.0000
# 5 0.0000 0.0000 0.0000 0.0000 9.8858 0.0000
# 6 0.0000 0.0000 0.0000 0.0000 0.0000 19.9508
#
#
#
# Elastic Compliance Matrix: (Units=1/GPa)
#
#
# Indices 1 2 3 4 5 6 
#
# 1 0.020332 -0.006025 -0.001035 0.000000 0.000000 0.000000
# 2 -0.006025 0.014184 -0.001750 0.000000 0.000000 0.000000
# 3 -0.001035 -0.001750 0.007507 0.000000 0.000000 0.000000
# 4 0.000000 0.000000 0.000000 0.033742 0.000000 0.000000
# 5 0.000000 0.000000 0.000000 0.000000 0.101155 0.000000
# 6 0.000000 0.000000 0.000000 0.000000 0.000000 0.050123
#
#
# Mechanical properties :
#
#
# Convention : Reuss Voigt Hill
#
# Bulk Modulus (GPa) = 40.98068 45.55963 43.27015
# Shear Modulus (GPa) = 19.77866 26.50532 23.14199
#
# Velocity S-wave (km/s) = 2.94593 3.41029 3.18658
# Velocity P-wave (km/s) = 5.43626 5.95798 5.70309
#
# Compressibility (1/GPa) = 0.02440174
#
# Stress axis : x y z
#
# Youngs Moduli (GPa) = 49.18472 70.50407 133.20815
#
# Poissons Ratio (x) = 0.42480 0.13790
# Poissons Ratio (y) = 0.29635 0.23308
# Poissons Ratio (z) = 0.05092 0.12337
#
# Static dielectric constant tensor:
#      x y z
#    x 3.780910 0.000000 0.000000 
#    y 0.000000 4.513730 0.000000 
#    z 0.000000 0.000000 4.611060 
# 
# 
# High freq. dielectric constant tensor:
#      x y z
#    x 1.836480 0.000000 0.000000 
#    y 0.000000 1.914040 0.000000 
#    z 0.000000 0.000000 1.909630 
# 
# From -- ./inp_files/48794.got.cif
#   From: 2010.03.12/outbox.cif.g09.slc.cpg/sg63_25_cif.got.tgz:48794.got - 2010.04.10 19:34:48.
