data_PCOD8258248
_publ_section_title
;
Structure prediction by ZEFSAII (Michael W. Deem and Ramdas Pophale) SiO2 
 PCOD8258248
Probable space group: C M C M
;
_chemical_formula_sum "Si O2"
_cell_formula_units_Z 84
_cell_length_a 19.526965
_cell_length_b 17.455887
_cell_length_c 13.489473
_cell_angle_alpha 90.000000
_cell_angle_beta 90.000000
_cell_angle_gamma 90.000000
_cell_volume 4598.028437
_symmetry_space_group_name_H-M "C M C M"
_symmetry_group_IT_number 63
_symmetry_cell_setting 'orthorhombic'
loop_
_space_group_symop_operation_xyz
x,y,z
-x,-y,1/2+z
x,-y,-z
-x,y,1/2-z
-x,-y,-z
x,y,1/2-z
-x,y,z
x,-y,1/2+z
1/2+x,1/2+y,z
1/2-x,1/2-y,1/2+z
1/2+x,1/2-y,-z
1/2-x,1/2+y,1/2-z
1/2-x,1/2-y,-z
1/2+x,1/2+y,1/2-z
1/2-x,1/2+y,z
1/2+x,1/2-y,1/2+z
loop_
_atom_site_type_symbol
_atom_site_label
_atom_site_fract_x
_atom_site_fract_y
_atom_site_fract_z
Si Si1 0.500000 0.156765 0.138673
Si Si2 0.500000 0.312898 0.750000
Si Si3 0.648108 0.146311 0.362839
Si Si4 0.623960 0.569324 0.250000
Si Si5 0.500000 0.281400 0.966577
Si Si6 0.920887 0.898624 0.250000
Si Si7 0.280044 0.577104 0.060389
Si Si8 0.633472 0.316333 0.439551
O O1 0.500000 0.197307 0.250000
O O2 0.428958 0.109099 0.131048
O O3 0.500000 0.213663 0.046304
O O4 0.431947 0.363988 0.750000
O O5 0.500000 0.259347 0.849128
O O6 0.670686 0.160110 0.250000
O O7 0.700256 0.087272 0.412552
O O8 0.648133 0.227725 0.417824
O O9 0.583361 0.489843 0.250000
O O10 0.672547 0.575340 0.344252
O O11 0.431366 0.329620 0.987282
O O12 0.881226 0.864175 0.157814
O O13 0.000000 0.872913 0.250000
O O14 0.289739 0.500000 0.000000
O O15 0.300026 0.649238 0.992365
#
# Coordination Sequence:
#
# PCOD8258248 Si02
#       8
#     8   4  16   8   8   8  16  16
#     4   8  18  36  62  90 113 138 189 254 303 346
#     4  12  22  36  52  78 124 176 200 220 278 352
#     4  10  20  37  61  87 113 142 193 248 300 347
#     4  12  24  37  51  79 122 164 196 229 272 344
#     4  10  20  31  55  83 115 154 192 234 288 335
#     4  12  22  33  58  89 117 149 197 244 280 336
#     4  12  24  38  56  79 118 159 194 235 293 351
#     4  11  21  35  57  86 114 149 196 246 288 340
#
# _framework density 18.268699999999999
#
# number of rings (size 3 to 8) (size 9 to 14) (size 15 to 20)
#    0.000    1.143    7.143    0.571    1.333    0.000 
#    0.000    3.333    0.000    1.143    0.000    0.000 
#    0.000    0.000    0.000    0.000    0.000    0.000 
#
# Total GULP energy -520501.549368 kJ/mol
# GULP energy per Si atom -12392.894033 kJ/mol
# Density = 1.822712 g / cm^3
# Si number density = 18.268700 Si / 1000 Ang^3
#
#
#
# Elastic Constant Matrix: (Units=GPa)
#
#
# Indices 1 2 3 4 5 6 
#
# 1 130.9956 17.6316 48.7509 0.0000 0.0000 0.0000
# 2 17.6316 24.7538 16.7109 0.0000 0.0000 0.0000
# 3 48.7509 16.7109 135.2555 0.0000 0.0000 0.0000
# 4 0.0000 0.0000 0.0000 95.7881 0.0000 0.0000
# 5 0.0000 0.0000 0.0000 0.0000 28.0451 0.0000
# 6 0.0000 0.0000 0.0000 0.0000 0.0000 80.9443
#
#
#
# Elastic Compliance Matrix: (Units=1/GPa)
#
#
# Indices 1 2 3 4 5 6 
#
# 1 0.009304 -0.004760 -0.002765 0.000000 0.000000 0.000000
# 2 -0.004760 0.046509 -0.004031 0.000000 0.000000 0.000000
# 3 -0.002765 -0.004031 0.008888 0.000000 0.000000 0.000000
# 4 0.000000 0.000000 0.000000 0.010440 0.000000 0.000000
# 5 0.000000 0.000000 0.000000 0.000000 0.035657 0.000000
# 6 0.000000 0.000000 0.000000 0.000000 0.000000 0.012354
#
#
# Mechanical properties :
#
#
# Convention : Reuss Voigt Hill
#
# Bulk Modulus (GPa) = 24.04466 50.79910 37.42188
# Shear Modulus (GPa) = 31.22535 54.81627 43.02081
#
# Velocity S-wave (km/s) = 4.13876 5.48368 4.85799
# Velocity P-wave (km/s) = 6.00245 8.24386 7.21078
#
# Compressibility (1/GPa) = 0.04158927
#
# Stress axis : x y z
#
# Youngs Moduli (GPa) = 107.48488 21.50114 112.51012
#
# Poissons Ratio (x) = 0.10235 0.31112
# Poissons Ratio (y) = 0.51163 0.45348
# Poissons Ratio (z) = 0.29722 0.08666
#
# Static dielectric constant tensor:
#      x y z
#    x 3.761870 0.000000 0.000000 
#    y 0.000000 2.941310 0.000000 
#    z 0.000000 0.000000 3.564190 
# 
# 
# High freq. dielectric constant tensor:
#      x y z
#    x 1.724660 0.000000 0.000000 
#    y 0.000000 1.661820 0.000000 
#    z 0.000000 0.000000 1.725400 
# 
# From -- ./inp_files/21098.got.cif
#   From: 2010.03.12/outbox.cif.g09.slc.cpg/sg63_11_cif.got.tgz:21098.got - 2010.04.10 19:34:48.
