data_PCOD8258038
_publ_section_title
;
Structure prediction by ZEFSAII (Michael W. Deem and Ramdas Pophale) SiO2 
 PCOD8258038
Probable space group: C M C M
;
_chemical_formula_sum "Si O2"
_cell_formula_units_Z 96
_cell_length_a 11.534126
_cell_length_b 25.048716
_cell_length_c 17.175234
_cell_angle_alpha 90.000000
_cell_angle_beta 90.000000
_cell_angle_gamma 90.000000
_cell_volume 4962.183529
_symmetry_space_group_name_H-M "C M C M"
_symmetry_group_IT_number 63
_symmetry_cell_setting 'orthorhombic'
loop_
_space_group_symop_operation_xyz
x,y,z
-x,-y,1/2+z
x,-y,-z
-x,y,1/2-z
-x,-y,-z
x,y,1/2-z
-x,y,z
x,-y,1/2+z
1/2+x,1/2+y,z
1/2-x,1/2-y,1/2+z
1/2+x,1/2-y,-z
1/2-x,1/2+y,1/2-z
1/2-x,1/2-y,-z
1/2+x,1/2+y,1/2-z
1/2-x,1/2+y,z
1/2+x,1/2-y,1/2+z
loop_
_atom_site_type_symbol
_atom_site_label
_atom_site_fract_x
_atom_site_fract_y
_atom_site_fract_z
Si Si1 0.130257 0.507465 0.163429
Si Si2 0.500000 0.742831 0.158252
Si Si3 0.250220 0.105784 0.102663
Si Si4 0.359676 0.906669 0.435497
Si Si5 0.630231 0.210743 0.341627
Si Si6 0.217334 0.307407 0.158413
Si Si7 0.000000 0.121651 0.344410
O O1 0.139666 0.482985 0.250000
O O2 0.199314 0.562688 0.162160
O O3 0.173488 0.462814 0.103453
O O4 0.000000 0.522986 0.141671
O O5 0.500000 0.745544 0.250000
O O6 0.611962 0.772371 0.125753
O O7 0.500000 0.682817 0.130568
O O8 0.285928 0.166464 0.121759
O O9 0.112521 0.097475 0.112971
O O10 0.302199 0.090821 0.019436
O O11 0.500000 0.896877 0.436286
O O12 0.287999 0.862430 0.387770
O O13 0.636572 0.201989 0.250000
O O14 0.500000 0.203342 0.373774
O O15 0.669856 0.271368 0.361507
O O16 0.208910 0.320063 0.250000
O O17 0.000000 0.113084 0.250000
#
# Coordination Sequence:
#
# PCOD8258038 Si02
#       7
#    16   8  16  16  16  16   8
#     4  10  21  39  64  89 113 150 197 240 283 341
#     4   9  16  32  58  83 108 147 201 247 276 320
#     4  12  23  38  59  88 118 149 185 246 303 348
#     4  11  23  38  58  87 123 156 190 237 297 349
#     4  10  20  35  57  86 117 153 195 240 291 346
#     4  10  19  35  59  85 116 158 203 241 278 338
#     4  11  22  40  63  87 112 151 202 243 283 342
#
# _framework density 19.346322000000001
#
# number of rings (size 3 to 8) (size 9 to 14) (size 15 to 20)
#    0.000    1.500    2.500    4.000    0.000    4.000 
#    1.500    1.667    0.000    0.000    0.000    0.000 
#    0.000    0.000    0.000    0.000    0.000    0.000 
#
# Total GULP energy -594969.796953 kJ/mol
# GULP energy per Si atom -12395.204103 kJ/mol
# Density = 1.930229 g / cm^3
# Si number density = 19.346322 Si / 1000 Ang^3
#
#
#
# Elastic Constant Matrix: (Units=GPa)
#
#
# Indices 1 2 3 4 5 6 
#
# 1 111.1687 35.3948 30.7151 0.0000 0.0000 0.0000
# 2 35.3948 92.3303 27.9854 0.0000 0.0000 0.0000
# 3 30.7151 27.9854 66.9482 0.0000 0.0000 0.0000
# 4 0.0000 0.0000 0.0000 53.3126 0.0000 0.0000
# 5 0.0000 0.0000 0.0000 0.0000 23.3555 0.0000
# 6 0.0000 0.0000 0.0000 0.0000 0.0000 25.7840
#
#
#
# Elastic Compliance Matrix: (Units=1/GPa)
#
#
# Indices 1 2 3 4 5 6 
#
# 1 0.011017 -0.003082 -0.003766 0.000000 0.000000 0.000000
# 2 -0.003082 0.013264 -0.004131 0.000000 0.000000 0.000000
# 3 -0.003766 -0.004131 0.018392 0.000000 0.000000 0.000000
# 4 0.000000 0.000000 0.000000 0.018757 0.000000 0.000000
# 5 0.000000 0.000000 0.000000 0.000000 0.042817 0.000000
# 6 0.000000 0.000000 0.000000 0.000000 0.000000 0.038784
#
#
# Mechanical properties :
#
#
# Convention : Reuss Voigt Hill
#
# Bulk Modulus (GPa) = 48.27381 50.95974 49.61677
# Shear Modulus (GPa) = 29.08784 32.24720 30.66752
#
# Velocity S-wave (km/s) = 3.88175 4.08712 3.98576
# Velocity P-wave (km/s) = 6.71545 6.97644 6.84719
#
# Compressibility (1/GPa) = 0.02071517
#
# Stress axis : x y z
#
# Youngs Moduli (GPa) = 90.76745 75.39135 54.37282
#
# Poissons Ratio (x) = 0.23235 0.20478
# Poissons Ratio (y) = 0.27973 0.22460
# Poissons Ratio (z) = 0.34186 0.31142
#
# Static dielectric constant tensor:
#      x y z
#    x 3.654550 0.000000 0.000000 
#    y 0.000000 3.575990 0.000000 
#    z 0.000000 0.000000 3.384490 
# 
# 
# High freq. dielectric constant tensor:
#      x y z
#    x 1.744630 0.000000 0.000000 
#    y 0.000000 1.756960 0.000000 
#    z 0.000000 0.000000 1.743590 
# 
# From -- ./inp_files/42581.got.cif
#   From: 2010.03.12/outbox.cif.g09.slc.cpg/sg63_22_cif.got.tgz:42581.got - 2010.04.10 19:34:48.
