data_PCOD8258287
_publ_section_title
;
Structure prediction by ZEFSAII (Michael W. Deem and Ramdas Pophale) SiO2 
 PCOD8258287
Probable space group: C M C M
;
_chemical_formula_sum "Si O2"
_cell_formula_units_Z 88
_cell_length_a 24.428016
_cell_length_b 16.112806
_cell_length_c 13.392121
_cell_angle_alpha 90.000000
_cell_angle_beta 90.000000
_cell_angle_gamma 90.000000
_cell_volume 5271.190824
_symmetry_space_group_name_H-M "C M C M"
_symmetry_group_IT_number 63
_symmetry_cell_setting 'orthorhombic'
loop_
_space_group_symop_operation_xyz
x,y,z
-x,-y,1/2+z
x,-y,-z
-x,y,1/2-z
-x,-y,-z
x,y,1/2-z
-x,y,z
x,-y,1/2+z
1/2+x,1/2+y,z
1/2-x,1/2-y,1/2+z
1/2+x,1/2-y,-z
1/2-x,1/2+y,1/2-z
1/2-x,1/2-y,-z
1/2+x,1/2+y,1/2-z
1/2-x,1/2+y,z
1/2+x,1/2-y,1/2+z
loop_
_atom_site_type_symbol
_atom_site_label
_atom_site_fract_x
_atom_site_fract_y
_atom_site_fract_z
Si Si1 0.378976 0.000000 0.500000
Si Si2 0.647783 0.733764 0.132820
Si Si3 0.767433 0.789991 0.363957
Si Si4 0.562797 0.128909 0.633903
Si Si5 0.201164 0.606643 0.134652
Si Si6 0.688712 0.589593 0.025586
O O1 0.418400 0.048598 0.574452
O O2 0.343141 0.063276 0.435418
O O3 0.648748 0.717714 0.250000
O O4 0.705590 0.773359 0.097152
O O5 0.597956 0.791730 0.099704
O O6 0.641635 0.644933 0.078152
O O7 0.765905 0.819218 0.250000
O O8 0.803264 0.706399 0.377039
O O9 0.791914 0.865950 0.424584
O O10 0.572522 0.109957 0.750000
O O11 0.500000 0.149329 0.610086
O O12 0.191835 0.580686 0.250000
O O13 0.261092 0.576236 0.101887
O O14 0.663320 0.500000 0.000000
#
# Coordination Sequence:
#
# PCOD8258287 Si02
#       6
#     8  16  16  16  16  16
#     4  12  19  32  50  76 102 132 153 202 244 290
#     4   9  18  33  49  64  92 129 164 200 238 284
#     4   9  18  31  46  66  97 132 162 190 230 291
#     4  10  21  35  52  73  95 126 169 210 248 287
#     4  10  20  32  46  70 102 135 164 188 231 296
#     4  11  19  29  46  73  99 128 160 197 240 286
#
# _framework density 16.694520000000001
#
# number of rings (size 3 to 8) (size 9 to 14) (size 15 to 20)
#    0.000    2.000    0.909    6.818    0.000    1.455 
#    0.000    0.000    0.000    0.545    0.000    0.000 
#    0.000    0.000    0.000    0.000    0.000    0.000 
#
# Total GULP energy -545632.292087 kJ/mol
# GULP energy per Si atom -12400.733911 kJ/mol
# Density = 1.665652 g / cm^3
# Si number density = 16.694520 Si / 1000 Ang^3
#
#
#
# Elastic Constant Matrix: (Units=GPa)
#
#
# Indices 1 2 3 4 5 6 
#
# 1 82.3007 55.6659 29.4243 0.0000 0.0000 0.0000
# 2 55.6659 126.0440 47.8296 0.0000 0.0000 0.0000
# 3 29.4243 47.8296 66.3847 0.0000 0.0000 0.0000
# 4 0.0000 0.0000 0.0000 24.0820 0.0000 0.0000
# 5 0.0000 0.0000 0.0000 0.0000 17.7518 0.0000
# 6 0.0000 0.0000 0.0000 0.0000 0.0000 20.0751
#
#
#
# Elastic Compliance Matrix: (Units=1/GPa)
#
#
# Indices 1 2 3 4 5 6 
#
# 1 0.017766 -0.006686 -0.003057 0.000000 0.000000 0.000000
# 2 -0.006686 0.013435 -0.006716 0.000000 0.000000 0.000000
# 3 -0.003057 -0.006716 0.021258 0.000000 0.000000 0.000000
# 4 0.000000 0.000000 0.000000 0.041525 0.000000 0.000000
# 5 0.000000 0.000000 0.000000 0.000000 0.056332 0.000000
# 6 0.000000 0.000000 0.000000 0.000000 0.000000 0.049813
#
#
# Mechanical properties :
#
#
# Convention : Reuss Voigt Hill
#
# Bulk Modulus (GPa) = 51.17837 60.06321 55.62079
# Shear Modulus (GPa) = 20.87145 21.83575 21.35360
#
# Velocity S-wave (km/s) = 3.53965 3.62050 3.58030
# Velocity P-wave (km/s) = 6.88679 7.31664 7.10497
#
# Compressibility (1/GPa) = 0.01953951
#
# Stress axis : x y z
#
# Youngs Moduli (GPa) = 56.28794 74.43159 47.04109
#
# Poissons Ratio (x) = 0.49764 0.14382
# Poissons Ratio (y) = 0.37633 0.31595
# Poissons Ratio (z) = 0.17209 0.49992
#
# Static dielectric constant tensor:
#      x y z
#    x 2.881650 0.000000 0.000000 
#    y 0.000000 3.230330 0.000000 
#    z 0.000000 0.000000 3.309820 
# 
# 
# High freq. dielectric constant tensor:
#      x y z
#    x 1.595860 0.000000 0.000000 
#    y 0.000000 1.644060 0.000000 
#    z 0.000000 0.000000 1.662970 
# 
# From -- ./inp_files/37837.got.cif
#   From: 2010.03.12/outbox.cif.g09.slc.cpg/sg63_19_cif.got.tgz:37837.got - 2010.04.10 19:34:48.
