data_PCOD8258833
_publ_section_title
;
Structure prediction by ZEFSAII (Michael W. Deem and Ramdas Pophale) SiO2 
 PCOD8258833
Probable space group: C M C M
;
_chemical_formula_sum "Si O2"
_cell_formula_units_Z 64
_cell_length_a 14.525301
_cell_length_b 29.847465
_cell_length_c 8.621938
_cell_angle_alpha 90.000000
_cell_angle_beta 90.000000
_cell_angle_gamma 90.000000
_cell_volume 3737.984429
_symmetry_space_group_name_H-M "C M C M"
_symmetry_group_IT_number 63
_symmetry_cell_setting 'orthorhombic'
loop_
_space_group_symop_operation_xyz
x,y,z
-x,-y,1/2+z
x,-y,-z
-x,y,1/2-z
-x,-y,-z
x,y,1/2-z
-x,y,z
x,-y,1/2+z
1/2+x,1/2+y,z
1/2-x,1/2-y,1/2+z
1/2+x,1/2-y,-z
1/2-x,1/2+y,1/2-z
1/2-x,1/2-y,-z
1/2+x,1/2+y,1/2-z
1/2-x,1/2+y,z
1/2+x,1/2-y,1/2+z
loop_
_atom_site_type_symbol
_atom_site_label
_atom_site_fract_x
_atom_site_fract_y
_atom_site_fract_z
Si Si1 0.000000 0.174118 0.423305
Si Si2 0.893954 0.952081 0.931766
Si Si3 0.500000 0.220978 0.577437
Si Si4 0.320673 0.635014 0.932561
Si Si5 0.694857 0.207742 0.432737
O O1 0.087456 0.160619 0.521599
O O2 0.000000 0.151526 0.250000
O O3 0.000000 0.226409 0.402559
O O4 0.877317 0.953109 0.750000
O O5 0.000000 0.939716 0.972405
O O6 0.826059 0.916032 0.008662
O O7 0.867382 0.000000 0.000000
O O8 0.500000 0.199321 0.750000
O O9 0.589369 0.206043 0.483642
O O10 0.306709 0.635905 0.750000
O O11 0.236433 0.660566 0.012313
O O12 0.702233 0.211744 0.250000
O O13 0.750000 0.250000 0.500000
#
# Coordination Sequence:
#
# PCOD8258833 Si02
#       5
#     8  16   8  16  16
#     4  11  21  33  52  76 108 145 183 226 269 318
#     4  10  20  34  53  77 110 144 180 223 271 324
#     4  11  23  39  57  78 108 143 184 230 274 320
#     4  12  23  35  54  79 109 146 186 224 270 324
#     4  12  24  38  56  79 108 144 185 227 272 322
#
# _framework density 17.121524999999998
#
# number of rings (size 3 to 8) (size 9 to 14) (size 15 to 20)
#    0.000    0.750    3.750    6.000    0.000    2.000 
#    0.000    0.000    0.000    0.000    0.000    0.875 
#    0.000    0.000    0.000    0.000    0.000    0.000 
#
# Total GULP energy -396910.196093 kJ/mol
# GULP energy per Si atom -12403.443628 kJ/mol
# Density = 1.708256 g / cm^3
# Si number density = 17.121525 Si / 1000 Ang^3
#
#
#
# Elastic Constant Matrix: (Units=GPa)
#
#
# Indices 1 2 3 4 5 6 
#
# 1 116.1150 57.7068 56.2411 0.0000 0.0000 0.0000
# 2 57.7068 112.5150 59.5626 0.0000 0.0000 0.0000
# 3 56.2411 59.5626 161.2110 0.0000 0.0000 0.0000
# 4 0.0000 0.0000 0.0000 31.7586 0.0000 0.0000
# 5 0.0000 0.0000 0.0000 0.0000 30.0276 0.0000
# 6 0.0000 0.0000 0.0000 0.0000 0.0000 34.9810
#
#
#
# Elastic Compliance Matrix: (Units=1/GPa)
#
#
# Indices 1 2 3 4 5 6 
#
# 1 0.012281 -0.005011 -0.002433 0.000000 0.000000 0.000000
# 2 -0.005011 0.013093 -0.003089 0.000000 0.000000 0.000000
# 3 -0.002433 -0.003089 0.008193 0.000000 0.000000 0.000000
# 4 0.000000 0.000000 0.000000 0.031488 0.000000 0.000000
# 5 0.000000 0.000000 0.000000 0.000000 0.033303 0.000000
# 6 0.000000 0.000000 0.000000 0.000000 0.000000 0.028587
#
#
# Mechanical properties :
#
#
# Convention : Reuss Voigt Hill
#
# Bulk Modulus (GPa) = 79.99425 81.87354 80.93390
# Shear Modulus (GPa) = 32.85637 33.77548 33.31592
#
# Velocity S-wave (km/s) = 4.38540 4.44632 4.41596
# Velocity P-wave (km/s) = 8.51265 8.61873 8.56585
#
# Compressibility (1/GPa) = 0.01250090
#
# Stress axis : x y z
#
# Youngs Moduli (GPa) = 81.42799 76.37666 122.05037
#
# Poissons Ratio (x) = 0.38269 0.29696
# Poissons Ratio (y) = 0.40800 0.37707
# Poissons Ratio (z) = 0.19812 0.23596
#
# Static dielectric constant tensor:
#      x y z
#    x 2.777760 0.000000 0.000000 
#    y 0.000000 3.264430 0.000000 
#    z 0.000000 0.000000 3.432210 
# 
# 
# High freq. dielectric constant tensor:
#      x y z
#    x 1.635850 0.000000 0.000000 
#    y 0.000000 1.657180 0.000000 
#    z 0.000000 0.000000 1.686920 
# 
# From -- ./inp_files/4520.got.cif
#   From: 2010.03.12/outbox.cif.g09.slc.cpg/sg63_3_cif.got.tgz:4520.got - 2010.04.10 19:34:48.
