data_PCOD8258798
_publ_section_title
;
Structure prediction by ZEFSAII (Michael W. Deem and Ramdas Pophale) SiO2 
 PCOD8258798
Probable space group: C M C M
;
_chemical_formula_sum "Si O2"
_cell_formula_units_Z 88
_cell_length_a 19.525296
_cell_length_b 30.479824
_cell_length_c 8.785812
_cell_angle_alpha 90.000000
_cell_angle_beta 90.000000
_cell_angle_gamma 90.000000
_cell_volume 5228.679083
_symmetry_space_group_name_H-M "C M C M"
_symmetry_group_IT_number 63
_symmetry_cell_setting 'orthorhombic'
loop_
_space_group_symop_operation_xyz
x,y,z
-x,-y,1/2+z
x,-y,-z
-x,y,1/2-z
-x,-y,-z
x,y,1/2-z
-x,y,z
x,-y,1/2+z
1/2+x,1/2+y,z
1/2-x,1/2-y,1/2+z
1/2+x,1/2-y,-z
1/2-x,1/2+y,1/2-z
1/2-x,1/2-y,-z
1/2+x,1/2+y,1/2-z
1/2-x,1/2+y,z
1/2+x,1/2-y,1/2+z
loop_
_atom_site_type_symbol
_atom_site_label
_atom_site_fract_x
_atom_site_fract_y
_atom_site_fract_z
Si Si1 0.500000 0.453544 0.573591
Si Si2 0.575169 0.319080 0.080140
Si Si3 0.213247 0.292684 0.570834
Si Si4 0.292478 0.371770 0.424724
Si Si5 0.422687 0.770208 0.426544
Si Si6 0.350405 0.548045 0.429667
O O1 0.500000 0.500000 0.500000
O O2 0.500000 0.462245 0.750000
O O3 0.426610 0.431618 0.529811
O O4 0.581866 0.298232 0.250000
O O5 0.500000 0.340307 0.056973
O O6 0.629479 0.356837 0.057836
O O7 0.587268 0.281389 0.956385
O O8 0.221440 0.288743 0.750000
O O9 0.250000 0.250000 0.500000
O O10 0.244904 0.338056 0.514109
O O11 0.133333 0.295924 0.525392
O O12 0.268212 0.374133 0.250000
O O13 0.292178 0.420055 0.499502
O O14 0.409005 0.779443 0.250000
O O15 0.500000 0.784808 0.473051
O O16 0.340335 0.500000 0.500000
O O17 0.338682 0.545167 0.250000
#
# Coordination Sequence:
#
# PCOD8258798 Si02
#       6
#     8  16  16  16  16  16
#     4   8  16  30  48  68  92 126 166 212 260 302
#     4   9  18  31  46  67  96 132 173 214 254 300
#     4  12  23  36  53  74 103 137 172 213 256 304
#     4  11  22  34  51  74  99 133 171 214 261 309
#     4  10  20  34  53  75 100 133 170 210 254 302
#     4  10  20  35  51  70  96 129 169 215 261 308
#
# _framework density 16.830254
#
# number of rings (size 3 to 8) (size 9 to 14) (size 15 to 20)
#    0.000    1.818    1.818    3.273    1.273    2.545 
#    0.000    0.000    0.000    0.000    0.000    0.000 
#    0.000    0.727    0.000    2.727    0.000    4.182 
#
# Total GULP energy -545258.172381 kJ/mol
# GULP energy per Si atom -12392.231190 kJ/mol
# Density = 1.679195 g / cm^3
# Si number density = 16.830254 Si / 1000 Ang^3
#
#
#
# Elastic Constant Matrix: (Units=GPa)
#
#
# Indices 1 2 3 4 5 6 
#
# 1 77.2919 41.9109 48.2135 0.0000 0.0000 0.0000
# 2 41.9109 83.2732 46.6756 0.0000 0.0000 0.0000
# 3 48.2135 46.6756 105.4080 0.0000 0.0000 0.0000
# 4 0.0000 0.0000 0.0000 26.4125 0.0000 0.0000
# 5 0.0000 0.0000 0.0000 0.0000 25.3097 0.0000
# 6 0.0000 0.0000 0.0000 0.0000 0.0000 25.9542
#
#
#
# Elastic Compliance Matrix: (Units=1/GPa)
#
#
# Indices 1 2 3 4 5 6 
#
# 1 0.020625 -0.006774 -0.006434 0.000000 0.000000 0.000000
# 2 -0.006774 0.018198 -0.004960 0.000000 0.000000 0.000000
# 3 -0.006434 -0.004960 0.014626 0.000000 0.000000 0.000000
# 4 0.000000 0.000000 0.000000 0.037861 0.000000 0.000000
# 5 0.000000 0.000000 0.000000 0.000000 0.039511 0.000000
# 6 0.000000 0.000000 0.000000 0.000000 0.000000 0.038529
#
#
# Mechanical properties :
#
#
# Convention : Reuss Voigt Hill
#
# Bulk Modulus (GPa) = 58.43502 59.95259 59.19381
# Shear Modulus (GPa) = 23.65301 24.14680 23.89991
#
# Velocity S-wave (km/s) = 3.75292 3.79189 3.77245
# Velocity P-wave (km/s) = 7.31948 7.40746 7.36360
#
# Compressibility (1/GPa) = 0.01711302
#
# Stress axis : x y z
#
# Youngs Moduli (GPa) = 48.48595 54.95119 68.37047
#
# Poissons Ratio (x) = 0.37223 0.43991
# Poissons Ratio (y) = 0.32843 0.33911
# Poissons Ratio (z) = 0.31197 0.27255
#
# Static dielectric constant tensor:
#      x y z
#    x 3.265360 0.000000 0.000000 
#    y 0.000000 2.839670 0.000000 
#    z 0.000000 0.000000 3.259710 
# 
# 
# High freq. dielectric constant tensor:
#      x y z
#    x 1.631470 0.000000 0.000000 
#    y 0.000000 1.616290 0.000000 
#    z 0.000000 0.000000 1.665230 
# 
# From -- ./inp_files/6823.got.cif
#   From: 2010.03.12/outbox.cif.g09.slc.cpg/sg63_4_cif.got.tgz:6823.got - 2010.04.10 19:34:48.
