data_PCOD8258229
_publ_section_title
;
Structure prediction by ZEFSAII (Michael W. Deem and Ramdas Pophale) SiO2 
 PCOD8258229
Probable space group: C M C M
;
_chemical_formula_sum "Si O2"
_cell_formula_units_Z 112
_cell_length_a 23.409817
_cell_length_b 12.756424
_cell_length_c 21.988067
_cell_angle_alpha 90.000000
_cell_angle_beta 90.000000
_cell_angle_gamma 90.000000
_cell_volume 6566.198632
_symmetry_space_group_name_H-M "C M C M"
_symmetry_group_IT_number 63
_symmetry_cell_setting 'orthorhombic'
loop_
_space_group_symop_operation_xyz
x,y,z
-x,-y,1/2+z
x,-y,-z
-x,y,1/2-z
-x,-y,-z
x,y,1/2-z
-x,y,z
x,-y,1/2+z
1/2+x,1/2+y,z
1/2-x,1/2-y,1/2+z
1/2+x,1/2-y,-z
1/2-x,1/2+y,1/2-z
1/2-x,1/2-y,-z
1/2+x,1/2+y,1/2-z
1/2-x,1/2+y,z
1/2+x,1/2-y,1/2+z
loop_
_atom_site_type_symbol
_atom_site_label
_atom_site_fract_x
_atom_site_fract_y
_atom_site_fract_z
Si Si1 0.672105 0.808530 0.381886
Si Si2 0.433379 0.498561 0.818966
Si Si3 0.760491 0.512778 0.108946
Si Si4 0.657788 0.618967 0.887766
Si Si5 0.703933 0.335536 0.517530
Si Si6 0.219141 0.712368 0.320695
Si Si7 0.436538 0.257871 0.678832
O O1 0.692547 0.922559 0.406392
O O2 0.662511 0.723630 0.435410
O O3 0.719210 0.762028 0.335651
O O4 0.610439 0.819432 0.350239
O O5 0.412809 0.523844 0.750000
O O6 0.500000 0.521131 0.824809
O O7 0.403354 0.573655 0.868446
O O8 0.419627 0.378152 0.834779
O O9 0.705564 0.458503 0.139818
O O10 0.739295 0.568862 0.047204
O O11 0.784959 0.591929 0.158767
O O12 0.667990 0.731853 0.857541
O O13 0.665897 0.625124 0.960899
O O14 0.750000 0.250000 0.500000
O O15 0.206638 0.720934 0.250000
O O16 0.437319 0.237375 0.750000
O O17 0.500000 0.233385 0.652437
#
# Coordination Sequence:
#
# PCOD8258229 Si02
#       7
#    16  16  16  16  16  16  16
#     4  10  20  32  51  72 101 136 170 207 261 310
#     4   9  18  33  53  76 102 136 174 212 260 311
#     4  10  20  31  49  74 102 135 169 208 254 314
#     4  11  20  31  52  72 103 135 173 207 255 307
#     4  11  19  34  49  74 103 135 170 207 254 307
#     4  10  20  31  45  74 107 129 162 210 258 311
#     4   9  18  34  54  76 103 135 175 219 259 302
#
# _framework density 17.057053
#
# number of rings (size 3 to 8) (size 9 to 14) (size 15 to 20)
#    0.000    2.000    4.286    3.857    0.000    4.571 
#    0.000    0.714    0.000    4.286    0.000    3.000 
#    0.000    0.000    0.000    0.000    0.000    0.000 
#
# Total GULP energy -694090.694667 kJ/mol
# GULP energy per Si atom -12394.476690 kJ/mol
# Density = 1.701823 g / cm^3
# Si number density = 17.057053 Si / 1000 Ang^3
#
#
#
# Elastic Constant Matrix: (Units=GPa)
#
#
# Indices 1 2 3 4 5 6 
#
# 1 80.8023 37.6940 31.8201 0.0000 0.0000 0.0000
# 2 37.6940 92.7408 35.6864 0.0000 0.0000 0.0000
# 3 31.8201 35.6864 93.5714 0.0000 0.0000 0.0000
# 4 0.0000 0.0000 0.0000 27.4704 0.0000 0.0000
# 5 0.0000 0.0000 0.0000 0.0000 26.2774 0.0000
# 6 0.0000 0.0000 0.0000 0.0000 0.0000 21.8708
#
#
#
# Elastic Compliance Matrix: (Units=1/GPa)
#
#
# Indices 1 2 3 4 5 6 
#
# 1 0.016201 -0.005233 -0.003514 0.000000 0.000000 0.000000
# 2 -0.005233 0.014327 -0.003685 0.000000 0.000000 0.000000
# 3 -0.003514 -0.003685 0.013287 0.000000 0.000000 0.000000
# 4 0.000000 0.000000 0.000000 0.036403 0.000000 0.000000
# 5 0.000000 0.000000 0.000000 0.000000 0.038055 0.000000
# 6 0.000000 0.000000 0.000000 0.000000 0.000000 0.045723
#
#
# Mechanical properties :
#
#
# Convention : Reuss Voigt Hill
#
# Bulk Modulus (GPa) = 52.76164 53.05727 52.90946
# Shear Modulus (GPa) = 25.61788 25.91798 25.76793
#
# Velocity S-wave (km/s) = 3.87963 3.90229 3.89098
# Velocity P-wave (km/s) = 7.14621 7.17476 7.16050
#
# Compressibility (1/GPa) = 0.01895316
#
# Stress axis : x y z
#
# Youngs Moduli (GPa) = 61.72630 69.79625 75.26053
#
# Poissons Ratio (x) = 0.36522 0.26443
# Poissons Ratio (y) = 0.32299 0.27732
# Poissons Ratio (z) = 0.21688 0.25718
#
# Static dielectric constant tensor:
#      x y z
#    x 3.020300 0.000000 0.000000 
#    y 0.000000 3.443330 0.000000 
#    z 0.000000 0.000000 3.763700 
# 
# 
# High freq. dielectric constant tensor:
#      x y z
#    x 1.625730 0.000000 0.000000 
#    y 0.000000 1.658520 0.000000 
#    z 0.000000 0.000000 1.657290 
# 
# From -- ./inp_files/65110.got.cif
#   From: 2010.03.12/outbox.cif.g09.slc.cpg/sg63_33_cif.got.tgz:65110.got - 2010.04.10 19:34:48.
