data_PCOD8258928
_publ_section_title
;
Structure prediction by ZEFSAII (Michael W. Deem and Ramdas Pophale) SiO2 
 PCOD8258928
Probable space group: C M C M
;
_chemical_formula_sum "Si O2"
_cell_formula_units_Z 80
_cell_length_a 9.318665
_cell_length_b 23.084773
_cell_length_c 19.980217
_cell_angle_alpha 90.000000
_cell_angle_beta 90.000000
_cell_angle_gamma 90.000000
_cell_volume 4298.129619
_symmetry_space_group_name_H-M "C M C M"
_symmetry_group_IT_number 63
_symmetry_cell_setting 'orthorhombic'
loop_
_space_group_symop_operation_xyz
x,y,z
-x,-y,1/2+z
x,-y,-z
-x,y,1/2-z
-x,-y,-z
x,y,1/2-z
-x,y,z
x,-y,1/2+z
1/2+x,1/2+y,z
1/2-x,1/2-y,1/2+z
1/2+x,1/2-y,-z
1/2-x,1/2+y,1/2-z
1/2-x,1/2-y,-z
1/2+x,1/2+y,1/2-z
1/2-x,1/2+y,z
1/2+x,1/2-y,1/2+z
loop_
_atom_site_type_symbol
_atom_site_label
_atom_site_fract_x
_atom_site_fract_y
_atom_site_fract_z
Si Si1 0.333156 0.872651 0.882688
Si Si2 0.670774 0.068533 0.750000
Si Si3 0.338076 0.564231 0.495377
Si Si4 0.670455 0.935105 0.750000
Si Si5 0.662165 0.370780 0.133409
Si Si6 0.166678 0.752262 0.430327
O O1 0.500000 0.887201 0.888512
O O2 0.258655 0.898500 0.947124
O O3 0.269401 0.901276 0.815132
O O4 0.304977 0.803835 0.884128
O O5 0.500000 0.071537 0.750000
O O6 0.729249 0.101387 0.685506
O O7 0.724087 0.001636 0.750000
O O8 0.273709 0.500000 0.500000
O O9 0.500000 0.563048 0.466862
O O10 0.333389 0.590316 0.568358
O O11 0.500000 0.932408 0.750000
O O12 0.500000 0.368763 0.162828
O O13 0.716793 0.306477 0.114571
O O14 0.250000 0.750000 0.500000
O O15 0.000000 0.759031 0.449429
#
# Coordination Sequence:
#
# PCOD8258928 Si02
#       6
#    16   8  16   8  16  16
#     4  10  20  35  58  83 108 146 188 230 279 331
#     4  11  23  38  57  81 111 147 186 235 280 326
#     4  10  20  34  54  81 112 147 187 230 278 332
#     4   9  20  38  55  79 115 145 182 233 282 332
#     4  10  21  37  56  80 113 150 184 226 281 339
#     4  10  20  35  58  85 112 146 185 231 282 331
#
# _framework density 18.612746000000001
#
# number of rings (size 3 to 8) (size 9 to 14) (size 15 to 20)
#    0.000    2.000    2.000    1.500    0.000    2.800 
#    0.000    4.500    0.000    0.000    0.000    0.000 
#    0.000    0.000    0.000    0.000    0.000    0.000 
#
# Total GULP energy -496042.795358 kJ/mol
# GULP energy per Si atom -12401.069884 kJ/mol
# Density = 1.857038 g / cm^3
# Si number density = 18.612746 Si / 1000 Ang^3
#
#
#
# Elastic Constant Matrix: (Units=GPa)
#
#
# Indices 1 2 3 4 5 6 
#
# 1 53.1586 43.0177 40.3527 0.0000 0.0000 0.0000
# 2 43.0177 161.9777 56.1975 0.0000 0.0000 0.0000
# 3 40.3527 56.1975 100.3944 0.0000 0.0000 0.0000
# 4 0.0000 0.0000 0.0000 35.9638 0.0000 0.0000
# 5 0.0000 0.0000 0.0000 0.0000 29.7194 0.0000
# 6 0.0000 0.0000 0.0000 0.0000 0.0000 27.7772
#
#
#
# Elastic Compliance Matrix: (Units=1/GPa)
#
#
# Indices 1 2 3 4 5 6 
#
# 1 0.029637 -0.004639 -0.009316 0.000000 0.000000 0.000000
# 2 -0.004639 0.008388 -0.002831 0.000000 0.000000 0.000000
# 3 -0.009316 -0.002831 0.015290 0.000000 0.000000 0.000000
# 4 0.000000 0.000000 0.000000 0.027806 0.000000 0.000000
# 5 0.000000 0.000000 0.000000 0.000000 0.033648 0.000000
# 6 0.000000 0.000000 0.000000 0.000000 0.000000 0.036001
#
#
# Mechanical properties :
#
#
# Convention : Reuss Voigt Hill
#
# Bulk Modulus (GPa) = 50.64827 66.07406 58.36116
# Shear Modulus (GPa) = 26.18886 30.42294 28.30590
#
# Velocity S-wave (km/s) = 3.75512 4.04731 3.90395
# Velocity P-wave (km/s) = 6.78763 7.57742 7.19338
#
# Compressibility (1/GPa) = 0.01974401
#
# Stress axis : x y z
#
# Youngs Moduli (GPa) = 33.74137 119.22136 65.40410
#
# Poissons Ratio (x) = 0.55306 0.60929
# Poissons Ratio (y) = 0.15652 0.18513
# Poissons Ratio (z) = 0.31432 0.33747
#
# Static dielectric constant tensor:
#      x y z
#    x 3.338340 0.000000 0.000000 
#    y 0.000000 3.814900 0.000000 
#    z 0.000000 0.000000 3.253250 
# 
# 
# High freq. dielectric constant tensor:
#      x y z
#    x 1.705190 0.000000 0.000000 
#    y 0.000000 1.745230 0.000000 
#    z 0.000000 0.000000 1.720690 
# 
# From -- ./inp_files/50906.got.cif
#   From: 2010.03.12/outbox.cif.g09.slc.cpg/sg63_26_cif.got.tgz:50906.got - 2010.04.10 19:34:48.
