data_PCOD8258280
_publ_section_title
;
Structure prediction by ZEFSAII (Michael W. Deem and Ramdas Pophale) SiO2 
 PCOD8258280
Probable space group: C M C M
;
_chemical_formula_sum "Si O2"
_cell_formula_units_Z 96
_cell_length_a 8.400837
_cell_length_b 38.581876
_cell_length_c 15.332354
_cell_angle_alpha 90.000000
_cell_angle_beta 90.000000
_cell_angle_gamma 90.000000
_cell_volume 4969.523367
_symmetry_space_group_name_H-M "C M C M"
_symmetry_group_IT_number 63
_symmetry_cell_setting 'orthorhombic'
loop_
_space_group_symop_operation_xyz
x,y,z
-x,-y,1/2+z
x,-y,-z
-x,y,1/2-z
-x,-y,-z
x,y,1/2-z
-x,y,z
x,-y,1/2+z
1/2+x,1/2+y,z
1/2-x,1/2-y,1/2+z
1/2+x,1/2-y,-z
1/2-x,1/2+y,1/2-z
1/2-x,1/2-y,-z
1/2+x,1/2+y,1/2-z
1/2-x,1/2+y,z
1/2+x,1/2-y,1/2+z
loop_
_atom_site_type_symbol
_atom_site_label
_atom_site_fract_x
_atom_site_fract_y
_atom_site_fract_z
Si Si1 0.811269 0.211356 1.000000
Si Si2 0.310492 0.412373 0.402727
Si Si3 0.189477 0.837227 0.152790
Si Si4 0.189949 0.961078 0.250000
Si Si5 0.689949 0.461078 0.750000
Si Si6 0.810492 0.912373 0.597273
Si Si7 0.689477 0.662773 0.347210
O O1 0.745602 0.191683 0.085874
O O2 0.000000 0.211213 1.000000
O O3 0.750000 0.250000 0.000000
O O4 0.745601 0.191682 0.914126
O O5 0.500000 0.411415 0.399912
O O6 0.243697 0.374812 0.374845
O O7 0.245910 0.441364 0.336002
O O8 0.250052 0.421540 0.500000
O O9 0.250278 0.827965 0.250000
O O10 0.000000 0.838286 0.150016
O O11 0.000000 0.961547 0.250000
O O12 0.258787 0.000000 0.250000
O O13 0.500000 0.461547 0.750000
O O14 0.754090 0.441364 0.836002
O O15 0.743697 0.874812 0.625155
O O16 0.000000 0.911415 0.600088
O O17 0.750279 0.672035 0.250000
O O18 0.500000 0.661714 0.349983
#
# Coordination Sequence:
#
# PCOD8258280 Si02
#       7
#    16  16  16   8   8  16  16
#     4  10  20  32  46  66  89 111 141 181 222 258
#     4   9  14  21  34  49  67  96 135 174 206 242
#     4   9  15  25  42  60  77 103 140 178 210 249
#     4   9  16  22  28  44  71 100 133 175 215 245
#     4   9  16  22  28  44  71 100 133 175 215 245
#     4   9  14  21  34  49  67  96 135 174 206 242
#     4   9  15  25  42  60  77 103 140 178 210 249
#
# _framework density 19.317748000000002
#
# number of rings (size 3 to 8) (size 9 to 14) (size 15 to 20)
#    0.000    2.833    3.333    0.000    0.000    1.333 
#    0.000    3.333    0.000    0.000    0.000    0.000 
#    0.000    0.000    0.000    0.000    0.000    5.000 
#
# Total GULP energy -594975.123658 kJ/mol
# GULP energy per Si atom -12395.315076 kJ/mol
# Density = 1.927378 g / cm^3
# Si number density = 19.317748 Si / 1000 Ang^3
#
#
#
# Elastic Constant Matrix: (Units=GPa)
#
#
# Indices 1 2 3 4 5 6 
#
# 1 1.7382 3.3009 4.8820 0.0000 0.0000 0.0000
# 2 3.3009 198.9129 119.9797 0.0000 0.0000 0.0000
# 3 4.8820 119.9797 232.3189 0.0000 0.0000 0.0000
# 4 0.0000 0.0000 0.0000 40.2042 0.0000 0.0000
# 5 0.0000 0.0000 0.0000 0.0000 2.0854 0.0000
# 6 0.0000 0.0000 0.0000 0.0000 0.0000 12.6761
#
#
#
# Elastic Compliance Matrix: (Units=1/GPa)
#
#
# Indices 1 2 3 4 5 6 
#
# 1 0.613065 -0.003490 -0.011081 0.000000 0.000000 0.000000
# 2 -0.003490 0.007322 -0.003708 0.000000 0.000000 0.000000
# 3 -0.011081 -0.003708 0.006452 0.000000 0.000000 0.000000
# 4 0.000000 0.000000 0.000000 0.024873 0.000000 0.000000
# 5 0.000000 0.000000 0.000000 0.000000 0.479517 0.000000
# 6 0.000000 0.000000 0.000000 0.000000 0.000000 0.078889
#
#
# Mechanical properties :
#
#
# Convention : Reuss Voigt Hill
#
# Bulk Modulus (GPa) = 1.69411 76.58836 39.14124
# Shear Modulus (GPa) = 3.46396 31.31363 17.38880
#
# Velocity S-wave (km/s) = 1.34054 4.03050 3.00350
# Velocity P-wave (km/s) = 1.80968 7.83535 5.68628
#
# Compressibility (1/GPa) = 0.59028134
#
# Stress axis : x y z
#
# Youngs Moduli (GPa) = 1.63115 136.57848 154.98520
#
# Poissons Ratio (x) = 0.47667 1.71732
# Poissons Ratio (y) = 0.00569 0.57468
# Poissons Ratio (z) = 0.01807 0.50643
#
# Static dielectric constant tensor:
#      x y z
#    x 2.623830 0.000000 0.000000 
#    y 0.000000 3.859900 0.000000 
#    z 0.000000 0.000000 4.007680 
# 
# 
# High freq. dielectric constant tensor:
#      x y z
#    x 1.659580 0.000000 0.000000 
#    y 0.000000 1.751780 0.000000 
#    z 0.000000 0.000000 1.774500 
# 
# From -- ./inp_files/30351.got.cif
#   From: 2010.03.12/outbox.cif.g09.slc.cpg/sg63_16_cif.got.tgz:30351.got - 2010.04.10 19:34:48.
