data_PCOD8258089
_publ_section_title
;
Structure prediction by ZEFSAII (Michael W. Deem and Ramdas Pophale) SiO2 
 PCOD8258089
Probable space group: C M C M
;
_chemical_formula_sum "Si O2"
_cell_formula_units_Z 88
_cell_length_a 16.376966
_cell_length_b 28.258087
_cell_length_c 9.467136
_cell_angle_alpha 90.000000
_cell_angle_beta 90.000000
_cell_angle_gamma 90.000000
_cell_volume 4381.217576
_symmetry_space_group_name_H-M "C M C M"
_symmetry_group_IT_number 63
_symmetry_cell_setting 'orthorhombic'
loop_
_space_group_symop_operation_xyz
x,y,z
-x,-y,1/2+z
x,-y,-z
-x,y,1/2-z
-x,-y,-z
x,y,1/2-z
-x,y,z
x,-y,1/2+z
1/2+x,1/2+y,z
1/2-x,1/2-y,1/2+z
1/2+x,1/2-y,-z
1/2-x,1/2+y,1/2-z
1/2-x,1/2-y,-z
1/2+x,1/2+y,1/2-z
1/2-x,1/2+y,z
1/2+x,1/2-y,1/2+z
loop_
_atom_site_type_symbol
_atom_site_label
_atom_site_fract_x
_atom_site_fract_y
_atom_site_fract_z
Si Si1 0.829439 0.611595 0.592959
Si Si2 0.409947 0.207363 0.906492
Si Si3 0.352612 0.382376 0.412242
Si Si4 0.000000 0.948967 0.420659
Si Si5 0.404764 0.040421 0.403846
Si Si6 0.324068 0.723815 0.581031
O O1 0.857223 0.595559 0.750000
O O2 0.838321 0.668113 0.579113
O O3 0.736733 0.594663 0.565631
O O4 0.889185 0.590322 0.476732
O O5 0.400873 0.230495 0.750000
O O6 0.500000 0.183985 0.921086
O O7 0.402134 0.245824 0.030745
O O8 0.375281 0.375886 0.250000
O O9 0.421451 0.417970 0.474214
O O10 0.345566 0.329167 0.475043
O O11 0.000000 0.957234 0.250000
O O12 0.000000 0.000000 0.500000
O O13 0.363092 0.039430 0.250000
O O14 0.500000 0.031376 0.388145
O O15 0.363497 0.000000 0.500000
O O16 0.310454 0.725519 0.750000
O O17 0.250000 0.750000 0.500000
#
# Coordination Sequence:
#
# PCOD8258089 Si02
#       6
#    16  16  16   8  16  16
#     4  10  19  36  58  81 112 154 195 235 291 356
#     4  10  21  36  55  84 124 164 200 244 299 360
#     4   9  20  38  62  86 115 154 197 242 303 372
#     4  10  22  44  68  90 118 156 204 264 321 376
#     4  10  21  36  54  79 110 144 186 234 283 338
#     4  11  21  37  60  87 120 160 206 253 302 368
#
# _framework density 20.085742
#
# number of rings (size 3 to 8) (size 9 to 14) (size 15 to 20)
#    0.000    2.000    1.818    1.636    1.273    3.636 
#    0.000    4.545    0.000    0.000    0.000    0.000 
#    0.000    0.000    0.000    0.000    0.000    0.000 
#
# Total GULP energy -545116.300371 kJ/mol
# GULP energy per Si atom -12389.006827 kJ/mol
# Density = 2.004003 g / cm^3
# Si number density = 20.085742 Si / 1000 Ang^3
#
#
#
# Elastic Constant Matrix: (Units=GPa)
#
#
# Indices 1 2 3 4 5 6 
#
# 1 83.5512 40.5901 25.8970 0.0000 0.0000 0.0000
# 2 40.5901 121.1140 61.5760 0.0000 0.0000 0.0000
# 3 25.8970 61.5760 115.9993 0.0000 0.0000 0.0000
# 4 0.0000 0.0000 0.0000 34.9420 0.0000 0.0000
# 5 0.0000 0.0000 0.0000 0.0000 24.3389 0.0000
# 6 0.0000 0.0000 0.0000 0.0000 0.0000 31.1152
#
#
#
# Elastic Compliance Matrix: (Units=1/GPa)
#
#
# Indices 1 2 3 4 5 6 
#
# 1 0.014363 -0.004360 -0.000892 0.000000 0.000000 0.000000
# 2 -0.004360 0.012632 -0.005732 0.000000 0.000000 0.000000
# 3 -0.000892 -0.005732 0.011863 0.000000 0.000000 0.000000
# 4 0.000000 0.000000 0.000000 0.028619 0.000000 0.000000
# 5 0.000000 0.000000 0.000000 0.000000 0.041086 0.000000
# 6 0.000000 0.000000 0.000000 0.000000 0.000000 0.032139
#
#
# Mechanical properties :
#
#
# Convention : Reuss Voigt Hill
#
# Bulk Modulus (GPa) = 59.20857 64.08785 61.64821
# Shear Modulus (GPa) = 29.70865 30.91933 30.31399
#
# Velocity S-wave (km/s) = 3.85007 3.92773 3.88909
# Velocity P-wave (km/s) = 7.02182 7.24885 7.13624
#
# Compressibility (1/GPa) = 0.01688945
#
# Stress axis : x y z
#
# Youngs Moduli (GPa) = 69.62116 79.16235 84.29766
#
# Poissons Ratio (x) = 0.34516 0.07521
# Poissons Ratio (y) = 0.30356 0.48321
# Poissons Ratio (z) = 0.06211 0.45377
#
# Static dielectric constant tensor:
#      x y z
#    x 3.697600 0.000000 0.000000 
#    y 0.000000 3.665210 0.000000 
#    z 0.000000 0.000000 3.787400 
# 
# 
# High freq. dielectric constant tensor:
#      x y z
#    x 1.783650 0.000000 0.000000 
#    y 0.000000 1.777220 0.000000 
#    z 0.000000 0.000000 1.765450 
# 
# From -- ./inp_files/6874.got.cif
#   From: 2010.03.12/outbox.cif.g09.slc.cpg/sg63_4_cif.got.tgz:6874.got - 2010.04.10 19:34:48.
