data_PCOD8258069
_publ_section_title
;
Structure prediction by ZEFSAII (Michael W. Deem and Ramdas Pophale) SiO2 
 PCOD8258069
Probable space group: C M C M
;
_chemical_formula_sum "Si O2"
_cell_formula_units_Z 64
_cell_length_a 24.603276
_cell_length_b 8.560960
_cell_length_c 15.093234
_cell_angle_alpha 90.000000
_cell_angle_beta 90.000000
_cell_angle_gamma 90.000000
_cell_volume 3179.052585
_symmetry_space_group_name_H-M "C M C M"
_symmetry_group_IT_number 63
_symmetry_cell_setting 'orthorhombic'
loop_
_space_group_symop_operation_xyz
x,y,z
-x,-y,1/2+z
x,-y,-z
-x,y,1/2-z
-x,-y,-z
x,y,1/2-z
-x,y,z
x,-y,1/2+z
1/2+x,1/2+y,z
1/2-x,1/2-y,1/2+z
1/2+x,1/2-y,-z
1/2-x,1/2+y,1/2-z
1/2-x,1/2-y,-z
1/2+x,1/2+y,1/2-z
1/2-x,1/2+y,z
1/2+x,1/2-y,1/2+z
loop_
_atom_site_type_symbol
_atom_site_label
_atom_site_fract_x
_atom_site_fract_y
_atom_site_fract_z
Si Si1 0.308453 0.933233 0.750000
Si Si2 0.382704 0.063547 0.599011
Si Si3 0.500000 0.593982 0.353327
Si Si4 0.811531 0.064577 0.750000
Si Si5 0.615947 0.435982 0.595353
Si Si6 0.500000 0.064300 0.903231
O O1 0.308416 0.749006 0.750000
O O2 0.337024 0.994423 0.661514
O O3 0.247841 0.993680 0.750000
O O4 0.379138 0.249999 0.598974
O O5 0.442283 0.011748 0.639797
O O6 0.373851 0.000000 0.500000
O O7 0.500000 0.637168 0.250000
O O8 0.555124 0.502113 0.379055
O O9 0.500000 0.749680 0.411343
O O10 0.841847 0.008390 0.837149
O O11 0.632242 0.500000 0.500000
O O12 0.500000 0.000000 0.000000
#
# Coordination Sequence:
#
# PCOD8258069 Si02
#       6
#     8  16   8   8  16   8
#     4  12  26  43  66  87 123 164 210 270 311 378
#     4  10  21  40  63  95 127 166 208 253 312 369
#     4  10  19  35  63  95 131 170 208 250 310 373
#     4  12  26  45  62  93 121 162 218 260 321 370
#     4  11  22  40  66  94 130 167 207 258 311 374
#     4   8  18  33  59  92 129 162 202 244 300 369
#
# _framework density 20.131784
#
# number of rings (size 3 to 8) (size 9 to 14) (size 15 to 20)
#    0.000    1.500    1.250    4.125    5.250    1.000 
#    0.000   10.000    0.000    0.000    0.000    0.000 
#    0.000    0.000    0.000    0.000    0.000    0.000 
#
# Total GULP energy -396619.653085 kJ/mol
# GULP energy per Si atom -12394.364159 kJ/mol
# Density = 2.008596 g / cm^3
# Si number density = 20.131784 Si / 1000 Ang^3
#
#
#
# Elastic Constant Matrix: (Units=GPa)
#
#
# Indices 1 2 3 4 5 6 
#
# 1 210.5675 67.7973 94.8129 0.0000 0.0000 0.0000
# 2 67.7973 124.8601 64.0034 0.0000 0.0000 0.0000
# 3 94.8129 64.0034 155.7863 0.0000 0.0000 0.0000
# 4 0.0000 0.0000 0.0000 31.7718 0.0000 0.0000
# 5 0.0000 0.0000 0.0000 0.0000 -74.1337 0.0000
# 6 0.0000 0.0000 0.0000 0.0000 0.0000 27.5085
#
#
#
# Elastic Compliance Matrix: (Units=1/GPa)
#
#
# Indices 1 2 3 4 5 6 
#
# 1 0.006924 -0.002026 -0.003382 0.000000 0.000000 0.000000
# 2 -0.002026 0.010739 -0.003179 0.000000 0.000000 0.000000
# 3 -0.003382 -0.003179 0.009783 0.000000 0.000000 0.000000
# 4 0.000000 0.000000 0.000000 0.031474 0.000000 0.000000
# 5 0.000000 0.000000 0.000000 0.000000 -0.013489 0.000000
# 6 0.000000 0.000000 0.000000 0.000000 0.000000 0.036352
#
#
# Mechanical properties :
#
#
# Convention : Reuss Voigt Hill
#
# Bulk Modulus (GPa) = 97.34546 104.93792 101.14169
# Shear Modulus (GPa) = 48.83727 14.66932 31.75329
#
# Velocity S-wave (km/s) = 4.93066 2.70231 3.97580
# Velocity P-wave (km/s) = 8.99302 7.87244 8.45132
#
# Compressibility (1/GPa) = 0.01027269
#
# Stress axis : x y z
#
# Youngs Moduli (GPa) = 144.42253 93.12215 102.21781
#
# Poissons Ratio (x) = 0.18869 0.34566
# Poissons Ratio (y) = 0.29264 0.32491
# Poissons Ratio (z) = 0.48838 0.29600
#
# Static dielectric constant tensor:
#      x y z
#    x 4.221040 0.000000 0.000000 
#    y 0.000000 3.642520 0.000000 
#    z 0.000000 0.000000 3.634670 
# 
# 
# High freq. dielectric constant tensor:
#      x y z
#    x 1.804410 0.000000 0.000000 
#    y 0.000000 1.780020 0.000000 
#    z 0.000000 0.000000 1.791130 
# 
# From -- ./inp_files/36259.got.cif
#   From: 2010.03.12/outbox.cif.g09.slc.cpg/sg63_19_cif.got.tgz:36259.got - 2010.04.10 19:34:48.
