data_PCOD8258573
_publ_section_title
;
Structure prediction by ZEFSAII (Michael W. Deem and Ramdas Pophale) SiO2 
 PCOD8258573
Probable space group: C M C M
;
_chemical_formula_sum "Si O2"
_cell_formula_units_Z 96
_cell_length_a 14.966213
_cell_length_b 26.478416
_cell_length_c 13.506875
_cell_angle_alpha 90.000000
_cell_angle_beta 90.000000
_cell_angle_gamma 90.000000
_cell_volume 5352.526222
_symmetry_space_group_name_H-M "C M C M"
_symmetry_group_IT_number 63
_symmetry_cell_setting 'orthorhombic'
loop_
_space_group_symop_operation_xyz
x,y,z
-x,-y,1/2+z
x,-y,-z
-x,y,1/2-z
-x,-y,-z
x,y,1/2-z
-x,y,z
x,-y,1/2+z
1/2+x,1/2+y,z
1/2-x,1/2-y,1/2+z
1/2+x,1/2-y,-z
1/2-x,1/2+y,1/2-z
1/2-x,1/2-y,-z
1/2+x,1/2+y,1/2-z
1/2-x,1/2+y,z
1/2+x,1/2-y,1/2+z
loop_
_atom_site_type_symbol
_atom_site_label
_atom_site_fract_x
_atom_site_fract_y
_atom_site_fract_z
Si Si1 0.320552 0.318775 0.954240
Si Si2 0.896001 0.636398 0.636258
Si Si3 0.000000 0.041663 0.133334
Si Si4 0.263400 0.079211 0.995379
Si Si5 0.500000 0.345698 0.632649
Si Si6 0.690498 0.499595 0.366268
Si Si7 0.753239 0.721221 0.861148
O O1 0.417114 0.314944 0.907759
O O2 0.261505 0.279573 0.891542
O O3 0.281226 0.374758 0.945437
O O4 0.322557 0.303699 0.069968
O O5 0.883648 0.616853 0.750000
O O6 0.857144 0.596243 0.555505
O O7 0.845737 0.690145 0.623720
O O8 0.000000 0.644638 0.611803
O O9 0.000000 0.097857 0.088547
O O10 0.909895 0.013705 0.098907
O O11 0.000000 0.045630 0.250000
O O12 0.204752 0.057890 0.903001
O O13 0.265285 0.035112 0.079265
O O14 0.500000 0.345154 0.750000
O O15 0.704903 0.504370 0.250000
O O16 0.717903 0.717698 0.750000
#
# Coordination Sequence:
#
# PCOD8258573 Si02
#       7
#    16  16   8  16   8  16  16
#     4  10  20  33  51  81 109 138 177 223 268 313
#     4   9  18  34  56  80 104 133 174 221 266 312
#     4   9  18  32  50  73 103 143 185 214 249 303
#     4  10  20  33  53  77 104 138 173 215 266 317
#     4  11  20  31  52  84 114 139 180 227 258 302
#     4  10  20  34  51  75 107 143 179 216 260 312
#     4   9  19  35  54  77 107 143 180 221 267 317
#
# _framework density 17.935457
#
# number of rings (size 3 to 8) (size 9 to 14) (size 15 to 20)
#    0.000    2.333    1.667    1.000    1.167    3.333 
#    0.000    2.083    0.000    1.500    0.000    0.000 
#    0.000    0.000    0.000    0.000    0.000    0.000 
#
# Total GULP energy -594770.034233 kJ/mol
# GULP energy per Si atom -12391.042380 kJ/mol
# Density = 1.789464 g / cm^3
# Si number density = 17.935457 Si / 1000 Ang^3
#
#
#
# Elastic Constant Matrix: (Units=GPa)
#
#
# Indices 1 2 3 4 5 6 
#
# 1 71.0598 28.1056 42.3196 0.0000 0.0000 0.0000
# 2 28.1056 77.5884 24.4770 0.0000 0.0000 0.0000
# 3 42.3196 24.4770 108.8056 0.0000 0.0000 0.0000
# 4 0.0000 0.0000 0.0000 29.1195 0.0000 0.0000
# 5 0.0000 0.0000 0.0000 0.0000 25.2049 0.0000
# 6 0.0000 0.0000 0.0000 0.0000 0.0000 21.1999
#
#
#
# Elastic Compliance Matrix: (Units=1/GPa)
#
#
# Indices 1 2 3 4 5 6 
#
# 1 0.020077 -0.005177 -0.006644 0.000000 0.000000 0.000000
# 2 -0.005177 0.015208 -0.001408 0.000000 0.000000 0.000000
# 3 -0.006644 -0.001408 0.012092 0.000000 0.000000 0.000000
# 4 0.000000 0.000000 0.000000 0.034341 0.000000 0.000000
# 5 0.000000 0.000000 0.000000 0.000000 0.039675 0.000000
# 6 0.000000 0.000000 0.000000 0.000000 0.000000 0.047170
#
#
# Mechanical properties :
#
#
# Convention : Reuss Voigt Hill
#
# Bulk Modulus (GPa) = 47.80304 49.69534 48.74919
# Shear Modulus (GPa) = 24.75329 25.94164 25.34747
#
# Velocity S-wave (km/s) = 3.71904 3.80727 3.76341
# Velocity P-wave (km/s) = 6.71955 6.86259 6.79145
#
# Compressibility (1/GPa) = 0.02091917
#
# Stress axis : x y z
#
# Youngs Moduli (GPa) = 49.80775 65.75571 82.70127
#
# Poissons Ratio (x) = 0.34039 0.54950
# Poissons Ratio (y) = 0.25784 0.11642
# Poissons Ratio (z) = 0.33094 0.09257
#
# Static dielectric constant tensor:
#      x y z
#    x 3.181070 0.000000 0.000000 
#    y 0.000000 3.435680 0.000000 
#    z 0.000000 0.000000 3.446020 
# 
# 
# High freq. dielectric constant tensor:
#      x y z
#    x 1.660360 0.000000 0.000000 
#    y 0.000000 1.702060 0.000000 
#    z 0.000000 0.000000 1.702290 
# 
# From -- ./inp_files/32463.got.cif
#   From: 2010.03.12/outbox.cif.g09.slc.cpg/sg63_17_cif.got.tgz:32463.got - 2010.04.10 19:34:48.
