data_PCOD8258896
_publ_section_title
;
Structure prediction by ZEFSAII (Michael W. Deem and Ramdas Pophale) SiO2 
 PCOD8258896
Probable space group: C M C M
;
_chemical_formula_sum "Si O2"
_cell_formula_units_Z 96
_cell_length_a 8.911790
_cell_length_b 20.759904
_cell_length_c 26.865576
_cell_angle_alpha 90.000000
_cell_angle_beta 90.000000
_cell_angle_gamma 90.000000
_cell_volume 4970.343929
_symmetry_space_group_name_H-M "C M C M"
_symmetry_group_IT_number 63
_symmetry_cell_setting 'orthorhombic'
loop_
_space_group_symop_operation_xyz
x,y,z
-x,-y,1/2+z
x,-y,-z
-x,y,1/2-z
-x,-y,-z
x,y,1/2-z
-x,y,z
x,-y,1/2+z
1/2+x,1/2+y,z
1/2-x,1/2-y,1/2+z
1/2+x,1/2-y,-z
1/2-x,1/2+y,1/2-z
1/2-x,1/2-y,-z
1/2+x,1/2+y,1/2-z
1/2-x,1/2+y,z
1/2+x,1/2-y,1/2+z
loop_
_atom_site_type_symbol
_atom_site_label
_atom_site_fract_x
_atom_site_fract_y
_atom_site_fract_z
Si Si1 0.822076 0.061425 0.306898
Si Si2 0.321433 0.309888 0.859962
Si Si3 0.177227 0.443346 0.136923
Si Si4 0.173865 0.063004 0.531847
Si Si5 0.176451 0.809400 0.527570
Si Si6 0.321354 0.817132 0.306063
O O1 0.767959 0.056472 0.250000
O O2 0.762696 0.128587 0.329401
O O3 0.000000 0.056777 0.311118
O O4 0.751926 0.004804 0.338601
O O5 0.500000 0.309020 0.859608
O O6 0.260637 0.313131 0.916280
O O7 0.256978 0.245760 0.833892
O O8 0.222239 0.437926 0.079807
O O9 0.236930 0.380128 0.165362
O O10 0.000000 0.449846 0.141447
O O11 0.220166 0.124578 0.499444
O O12 0.000000 0.065257 0.547981
O O13 0.208666 0.000000 0.500000
O O14 0.250000 0.750000 0.500000
O O15 0.000000 0.798185 0.527856
O O16 0.258010 0.818531 0.250000
O O17 0.500000 0.815036 0.305649
#
# Coordination Sequence:
#
# PCOD8258896 Si02
#       6
#    16  16  16  16  16  16
#     4  10  20  35  57  82 107 139 180 223 265 314
#     4   9  17  32  54  78 103 135 178 222 261 306
#     4  11  22  35  54  80 111 144 177 220 272 324
#     4  10  21  38  58  78 104 141 184 228 270 316
#     4  10  20  34  54  79 108 140 175 222 274 322
#     4   9  17  30  50  77 107 138 174 216 259 306
#
# _framework density 19.314558000000002
#
# number of rings (size 3 to 8) (size 9 to 14) (size 15 to 20)
#    0.000    2.167    0.000    3.500    0.000    8.000 
#    0.000    2.500    0.000    2.000    0.000    0.000 
#    0.000    0.000    0.000    0.000    0.000    0.000 
#
# Total GULP energy -595336.972223 kJ/mol
# GULP energy per Si atom -12402.853588 kJ/mol
# Density = 1.927060 g / cm^3
# Si number density = 19.314558 Si / 1000 Ang^3
#
#
#
# Elastic Constant Matrix: (Units=GPa)
#
#
# Indices 1 2 3 4 5 6 
#
# 1 8.0068 11.7545 9.9665 0.0000 0.0000 0.0000
# 2 11.7545 158.1461 53.2838 0.0000 0.0000 0.0000
# 3 9.9665 53.2838 133.9396 0.0000 0.0000 0.0000
# 4 0.0000 0.0000 0.0000 38.7043 0.0000 0.0000
# 5 0.0000 0.0000 0.0000 0.0000 18.3657 0.0000
# 6 0.0000 0.0000 0.0000 0.0000 0.0000 24.2725
#
#
#
# Elastic Compliance Matrix: (Units=1/GPa)
#
#
# Indices 1 2 3 4 5 6 
#
# 1 0.146582 -0.008338 -0.007590 0.000000 0.000000 0.000000
# 2 -0.008338 0.007776 -0.002473 0.000000 0.000000 0.000000
# 3 -0.007590 -0.002473 0.009015 0.000000 0.000000 0.000000
# 4 0.000000 0.000000 0.000000 0.025837 0.000000 0.000000
# 5 0.000000 0.000000 0.000000 0.000000 0.054449 0.000000
# 6 0.000000 0.000000 0.000000 0.000000 0.000000 0.041199
#
#
# Mechanical properties :
#
#
# Convention : Reuss Voigt Hill
#
# Bulk Modulus (GPa) = 7.90070 50.01134 28.95602
# Shear Modulus (GPa) = 13.74189 31.27434 22.50812
#
# Velocity S-wave (km/s) = 2.67025 4.02831 3.41742
# Velocity P-wave (km/s) = 3.68868 6.89823 5.53137
#
# Compressibility (1/GPa) = 0.12657105
#
# Stress axis : x y z
#
# Youngs Moduli (GPa) = 6.82211 128.59690 110.92966
#
# Poissons Ratio (x) = 1.07218 0.84200
# Poissons Ratio (y) = 0.05688 0.27434
# Poissons Ratio (z) = 0.05178 0.31804
#
# Static dielectric constant tensor:
#      x y z
#    x 3.104330 0.000000 0.000000 
#    y 0.000000 3.774440 0.000000 
#    z 0.000000 0.000000 8.371660 
# 
# 
# High freq. dielectric constant tensor:
#      x y z
#    x 1.707720 0.000000 0.000000 
#    y 0.000000 1.773720 0.000000 
#    z 0.000000 0.000000 1.771810 
# 
# From -- ./inp_files/66903.got.cif
#   From: 2010.03.12/outbox.cif.g09.slc.cpg/sg63_34_cif.got.tgz:66903.got - 2010.04.10 19:34:48.
