data_PCOD8258169
_publ_section_title
;
Structure prediction by ZEFSAII (Michael W. Deem and Ramdas Pophale) SiO2 
 PCOD8258169
Probable space group: C M C M
;
_chemical_formula_sum "Si O2"
_cell_formula_units_Z 80
_cell_length_a 10.746844
_cell_length_b 13.263886
_cell_length_c 27.180106
_cell_angle_alpha 90.000000
_cell_angle_beta 90.000000
_cell_angle_gamma 90.000000
_cell_volume 3874.385863
_symmetry_space_group_name_H-M "C M C M"
_symmetry_group_IT_number 63
_symmetry_cell_setting 'orthorhombic'
loop_
_space_group_symop_operation_xyz
x,y,z
-x,-y,1/2+z
x,-y,-z
-x,y,1/2-z
-x,-y,-z
x,y,1/2-z
-x,y,z
x,-y,1/2+z
1/2+x,1/2+y,z
1/2-x,1/2-y,1/2+z
1/2+x,1/2-y,-z
1/2-x,1/2+y,1/2-z
1/2-x,1/2-y,-z
1/2+x,1/2+y,1/2-z
1/2-x,1/2+y,z
1/2+x,1/2-y,1/2+z
loop_
_atom_site_type_symbol
_atom_site_label
_atom_site_fract_x
_atom_site_fract_y
_atom_site_fract_z
Si Si1 0.757322 0.519415 0.841123
Si Si2 0.792223 0.000000 0.000000
Si Si3 0.000000 0.384906 0.305092
Si Si4 0.000000 0.966576 0.695813
Si Si5 0.258383 0.146678 0.417690
Si Si6 0.865864 0.143049 0.581337
Si Si7 0.500000 0.706162 0.382981
O O1 0.630057 0.527921 0.809359
O O2 0.778655 0.408615 0.865101
O O3 0.744452 0.602356 0.884361
O O4 0.877271 0.545538 0.808694
O O5 0.713497 0.933713 0.961049
O O6 0.871906 0.081984 0.969935
O O7 0.000000 0.336231 0.250000
O O8 0.000000 0.306040 0.349660
O O9 0.000000 0.917795 0.750000
O O10 0.000000 0.885295 0.653959
O O11 0.353020 0.237626 0.426749
O O12 0.119476 0.194893 0.418483
O O13 0.000000 0.123659 0.606781
#
# Coordination Sequence:
#
# PCOD8258169 Si02
#       7
#    16   8   8   8  16  16   8
#     4  10  22  38  61  88 119 162 197 244 314 357
#     4  10  23  38  59  92 118 163 210 245 298 353
#     4  12  23  40  62  91 123 155 200 258 313 367
#     4  10  19  38  60  87 115 151 204 250 295 366
#     4  10  22  39  61  84 124 158 200 245 298 364
#     4  11  21  38  61  87 121 160 205 251 293 359
#     4  10  21  37  62  84 112 160 198 245 299 359
#
# _framework density 20.648434999999999
#
# number of rings (size 3 to 8) (size 9 to 14) (size 15 to 20)
#    0.000    1.600    3.000    1.800    7.000    0.000 
#    0.000    0.500    0.000    1.200    0.000    0.000 
#    0.000    0.000    0.000    0.000    0.000    0.000 
#
# Total GULP energy -495624.145990 kJ/mol
# GULP energy per Si atom -12390.603650 kJ/mol
# Density = 2.060144 g / cm^3
# Si number density = 20.648435 Si / 1000 Ang^3
#
#
#
# Elastic Constant Matrix: (Units=GPa)
#
#
# Indices 1 2 3 4 5 6 
#
# 1 109.3013 26.7843 26.4715 0.0000 0.0000 0.0000
# 2 26.7843 108.0763 22.5916 0.0000 0.0000 0.0000
# 3 26.4715 22.5916 81.0831 0.0000 0.0000 0.0000
# 4 0.0000 0.0000 0.0000 215.3990 0.0000 0.0000
# 5 0.0000 0.0000 0.0000 0.0000 18.3475 0.0000
# 6 0.0000 0.0000 0.0000 0.0000 0.0000 4.0855
#
#
#
# Elastic Compliance Matrix: (Units=1/GPa)
#
#
# Indices 1 2 3 4 5 6 
#
# 1 0.010314 -0.001967 -0.002819 0.000000 0.000000 0.000000
# 2 -0.001967 0.010200 -0.002200 0.000000 0.000000 0.000000
# 3 -0.002819 -0.002200 0.013866 0.000000 0.000000 0.000000
# 4 0.000000 0.000000 0.000000 0.004643 0.000000 0.000000
# 5 0.000000 0.000000 0.000000 0.000000 0.054503 0.000000
# 6 0.000000 0.000000 0.000000 0.000000 0.000000 0.244770
#
#
# Mechanical properties :
#
#
# Convention : Reuss Voigt Hill
#
# Bulk Modulus (GPa) = 48.99916 50.01728 49.50822
# Shear Modulus (GPa) = 13.92486 62.40727 38.16607
#
# Velocity S-wave (km/s) = 2.59970 5.50358 4.30394
# Velocity P-wave (km/s) = 5.72651 8.04125 6.98049
#
# Compressibility (1/GPa) = 0.02040851
#
# Stress axis : x y z
#
# Youngs Moduli (GPa) = 96.95805 98.03938 72.11708
#
# Poissons Ratio (x) = 0.19282 0.20331
# Poissons Ratio (y) = 0.19069 0.15865
# Poissons Ratio (z) = 0.27334 0.21567
#
# Static dielectric constant tensor:
#      x y z
#    x 3.691130 0.000000 0.000000 
#    y 0.000000 3.685150 0.000000 
#    z 0.000000 0.000000 3.591890 
# 
# 
# High freq. dielectric constant tensor:
#      x y z
#    x 1.797530 0.000000 0.000000 
#    y 0.000000 1.804110 0.000000 
#    z 0.000000 0.000000 1.798210 
# 
# From -- ./inp_files/72576.got.cif
#   From: 2010.03.12/outbox.cif.g09.slc.cpg/sg63_37_cif.got.tgz:72576.got - 2010.04.10 19:34:48.
