data_PCOD8258468
_publ_section_title
;
Structure prediction by ZEFSAII (Michael W. Deem and Ramdas Pophale) SiO2 
 PCOD8258468
Probable space group: C M C M
;
_chemical_formula_sum "Si O2"
_cell_formula_units_Z 64
_cell_length_a 28.475463
_cell_length_b 14.121377
_cell_length_c 9.011994
_cell_angle_alpha 90.000000
_cell_angle_beta 90.000000
_cell_angle_gamma 90.000000
_cell_volume 3623.837675
_symmetry_space_group_name_H-M "C M C M"
_symmetry_group_IT_number 63
_symmetry_cell_setting 'orthorhombic'
loop_
_space_group_symop_operation_xyz
x,y,z
-x,-y,1/2+z
x,-y,-z
-x,y,1/2-z
-x,-y,-z
x,y,1/2-z
-x,y,z
x,-y,1/2+z
1/2+x,1/2+y,z
1/2-x,1/2-y,1/2+z
1/2+x,1/2-y,-z
1/2-x,1/2+y,1/2-z
1/2-x,1/2-y,-z
1/2+x,1/2+y,1/2-z
1/2-x,1/2+y,z
1/2+x,1/2-y,1/2+z
loop_
_atom_site_type_symbol
_atom_site_label
_atom_site_fract_x
_atom_site_fract_y
_atom_site_fract_z
Si Si1 0.425621 0.249814 0.425725
Si Si2 0.679616 0.263993 0.075914
Si Si3 0.748604 0.400229 0.923806
Si Si4 0.000000 0.899775 0.074804
Si Si5 0.500000 0.899484 0.574145
O O1 0.423978 0.247459 0.250000
O O2 0.372839 0.250837 0.488828
O O3 0.453588 0.343260 0.478022
O O4 0.453579 0.156797 0.480487
O O5 0.680162 0.287690 0.250000
O O6 0.707205 0.167250 0.041920
O O7 0.701995 0.352847 0.990950
O O8 0.741016 0.415813 0.750000
O O9 0.758958 0.500000 0.000000
O O10 0.000000 0.912496 0.250000
O O11 0.000000 0.000000 0.000000
O O12 0.500000 0.910720 0.750000
O O13 0.500000 0.000000 0.500000
#
# Coordination Sequence:
#
# PCOD8258468 Si02
#       5
#    16  16  16   8   8
#     4   8  16  32  51  69  94 128 158 189 235 285
#     4   9  18  34  53  71  94 126 164 201 238 282
#     4  10  20  33  50  72  98 127 159 198 241 286
#     4   9  17  31  50  70  94 123 155 191 232 278
#     4   9  17  31  50  72  98 127 159 193 234 282
#
# _framework density 17.660836
#
# number of rings (size 3 to 8) (size 9 to 14) (size 15 to 20)
#    0.000    3.000    0.000    2.250    0.000    3.000 
#    0.000    7.500    0.000    0.000    0.000    0.000 
#    0.000    0.000    0.000    0.000    0.000    0.000 
#
# Total GULP energy -396729.549140 kJ/mol
# GULP energy per Si atom -12397.798411 kJ/mol
# Density = 1.762064 g / cm^3
# Si number density = 17.660836 Si / 1000 Ang^3
#
#
#
# Elastic Constant Matrix: (Units=GPa)
#
#
# Indices 1 2 3 4 5 6 
#
# 1 165.2001 69.8792 33.9841 0.0000 0.0000 0.0000
# 2 69.8792 152.7273 46.1240 0.0000 0.0000 0.0000
# 3 33.9841 46.1240 49.8373 0.0000 0.0000 0.0000
# 4 0.0000 0.0000 0.0000 36.6770 0.0000 0.0000
# 5 0.0000 0.0000 0.0000 0.0000 19.5522 0.0000
# 6 0.0000 0.0000 0.0000 0.0000 0.0000 14.3681
#
#
#
# Elastic Compliance Matrix: (Units=1/GPa)
#
#
# Indices 1 2 3 4 5 6 
#
# 1 0.007776 -0.002715 -0.002789 0.000000 0.000000 0.000000
# 2 -0.002715 0.010036 -0.007436 0.000000 0.000000 0.000000
# 3 -0.002789 -0.007436 0.028850 0.000000 0.000000 0.000000
# 4 0.000000 0.000000 0.000000 0.027265 0.000000 0.000000
# 5 0.000000 0.000000 0.000000 0.000000 0.051145 0.000000
# 6 0.000000 0.000000 0.000000 0.000000 0.000000 0.069598
#
#
# Mechanical properties :
#
#
# Convention : Reuss Voigt Hill
#
# Bulk Modulus (GPa) = 48.12534 74.19327 61.15931
# Shear Modulus (GPa) = 21.98013 28.63796 25.30905
#
# Velocity S-wave (km/s) = 3.53167 4.03122 3.78969
# Velocity P-wave (km/s) = 6.62866 7.98554 7.33853
#
# Compressibility (1/GPa) = 0.02077907
#
# Stress axis : x y z
#
# Youngs Moduli (GPa) = 128.60705 99.64288 34.66248
#
# Poissons Ratio (x) = 0.27056 0.09668
# Poissons Ratio (y) = 0.34921 0.25777
# Poissons Ratio (z) = 0.35871 0.74099
#
# Static dielectric constant tensor:
#      x y z
#    x 3.737740 0.000000 0.000000 
#    y 0.000000 3.582870 0.000000 
#    z 0.000000 0.000000 3.025680 
# 
# 
# High freq. dielectric constant tensor:
#      x y z
#    x 1.689560 0.000000 0.000000 
#    y 0.000000 1.686680 0.000000 
#    z 0.000000 0.000000 1.659090 
# 
# From -- ./inp_files/9679.got.cif
#   From: 2010.03.12/outbox.cif.g09.slc.cpg/sg63_5_cif.got.tgz:9679.got - 2010.04.10 19:34:48.
