data_PCOD8258988
_publ_section_title
;
Structure prediction by ZEFSAII (Michael W. Deem and Ramdas Pophale) SiO2 
 PCOD8258988
Probable space group: C M C M
;
_chemical_formula_sum "Si O2"
_cell_formula_units_Z 96
_cell_length_a 8.843441
_cell_length_b 20.687082
_cell_length_c 27.951454
_cell_angle_alpha 90.000000
_cell_angle_beta 90.000000
_cell_angle_gamma 90.000000
_cell_volume 5113.578448
_symmetry_space_group_name_H-M "C M C M"
_symmetry_group_IT_number 63
_symmetry_cell_setting 'orthorhombic'
loop_
_space_group_symop_operation_xyz
x,y,z
-x,-y,1/2+z
x,-y,-z
-x,y,1/2-z
-x,-y,-z
x,y,1/2-z
-x,y,z
x,-y,1/2+z
1/2+x,1/2+y,z
1/2-x,1/2-y,1/2+z
1/2+x,1/2-y,-z
1/2-x,1/2+y,1/2-z
1/2-x,1/2-y,-z
1/2+x,1/2+y,1/2-z
1/2-x,1/2+y,z
1/2+x,1/2-y,1/2+z
loop_
_atom_site_type_symbol
_atom_site_label
_atom_site_fract_x
_atom_site_fract_y
_atom_site_fract_z
Si Si1 0.320990 0.370050 0.106548
Si Si2 0.179822 0.998546 0.053870
Si Si3 0.323593 0.177897 0.695623
Si Si4 0.674749 0.185244 0.195701
Si Si5 0.676395 0.623455 0.110313
Si Si6 0.676602 0.248234 0.948545
O O1 0.500000 0.365326 0.104359
O O2 0.261908 0.434081 0.080016
O O3 0.265229 0.371951 0.161552
O O4 0.250595 0.307874 0.082050
O O5 0.000000 0.000255 0.051771
O O6 0.239388 0.060348 0.083175
O O7 0.245921 0.000000 0.000000
O O8 0.288452 0.157389 0.750000
O O9 0.500000 0.175022 0.683745
O O10 0.269909 0.250503 0.685450
O O11 0.699384 0.161002 0.250000
O O12 0.500000 0.200938 0.185709
O O13 0.733784 0.129644 0.160247
O O14 0.500000 0.616759 0.122246
O O15 0.710346 0.684006 0.076588
O O16 0.500000 0.234898 0.953590
O O17 0.750000 0.250000 0.000000
#
# Coordination Sequence:
#
# PCOD8258988 Si02
#       6
#    16  16  16  16  16  16
#     4  11  21  35  58  85 113 145 186 237 286 333
#     4   9  19  37  58  80 110 151 192 229 276 335
#     4  10  20  35  56  82 113 149 187 228 279 340
#     4  10  20  34  55  84 115 146 183 230 284 336
#     4  10  20  36  58  82 110 148 190 229 277 335
#     4  11  22  35  55  82 111 144 186 236 285 336
#
# _framework density 18.773546
#
# number of rings (size 3 to 8) (size 9 to 14) (size 15 to 20)
#    0.000    1.833    1.667    3.000    0.000    5.333 
#    0.000    2.500    0.000    8.500    0.000    0.000 
#    0.000    0.000    0.000    0.000    0.000    0.000 
#
# Total GULP energy -595349.086137 kJ/mol
# GULP energy per Si atom -12403.105961 kJ/mol
# Density = 1.873082 g / cm^3
# Si number density = 18.773546 Si / 1000 Ang^3
#
#
#
# Elastic Constant Matrix: (Units=GPa)
#
#
# Indices 1 2 3 4 5 6 
#
# 1 67.2942 42.8925 49.0517 0.0000 0.0000 0.0000
# 2 42.8925 105.3515 58.3874 0.0000 0.0000 0.0000
# 3 49.0517 58.3874 146.1840 0.0000 0.0000 0.0000
# 4 0.0000 0.0000 0.0000 35.3447 0.0000 0.0000
# 5 0.0000 0.0000 0.0000 0.0000 37.4488 0.0000
# 6 0.0000 0.0000 0.0000 0.0000 0.0000 22.8331
#
#
#
# Elastic Compliance Matrix: (Units=1/GPa)
#
#
# Indices 1 2 3 4 5 6 
#
# 1 0.022616 -0.006424 -0.005023 0.000000 0.000000 0.000000
# 2 -0.006424 0.014015 -0.003442 0.000000 0.000000 0.000000
# 3 -0.005023 -0.003442 0.009901 0.000000 0.000000 0.000000
# 4 0.000000 0.000000 0.000000 0.028293 0.000000 0.000000
# 5 0.000000 0.000000 0.000000 0.000000 0.026703 0.000000
# 6 0.000000 0.000000 0.000000 0.000000 0.000000 0.043796
#
#
# Mechanical properties :
#
#
# Convention : Reuss Voigt Hill
#
# Bulk Modulus (GPa) = 59.68791 68.83255 64.26023
# Shear Modulus (GPa) = 27.67211 30.35852 29.01532
#
# Velocity S-wave (km/s) = 3.84343 4.02567 3.93560
# Velocity P-wave (km/s) = 7.18043 7.63886 7.41319
#
# Compressibility (1/GPa) = 0.01675381
#
# Stress axis : x y z
#
# Youngs Moduli (GPa) = 44.21648 71.35079 100.99988
#
# Poissons Ratio (x) = 0.45836 0.50731
# Poissons Ratio (y) = 0.28405 0.34767
# Poissons Ratio (z) = 0.22210 0.24561
#
# Static dielectric constant tensor:
#      x y z
#    x 3.561440 0.000000 0.000000 
#    y 0.000000 3.397340 0.000000 
#    z 0.000000 0.000000 3.640210 
# 
# 
# High freq. dielectric constant tensor:
#      x y z
#    x 1.722140 0.000000 0.000000 
#    y 0.000000 1.711930 0.000000 
#    z 0.000000 0.000000 1.749030 
# 
# From -- ./inp_files/66899.got.cif
#   From: 2010.03.12/outbox.cif.g09.slc.cpg/sg63_34_cif.got.tgz:66899.got - 2010.04.10 19:34:48.
