data_PCOD8258409
_publ_section_title
;
Structure prediction by ZEFSAII (Michael W. Deem and Ramdas Pophale) SiO2 
 PCOD8258409
Probable space group: C M C M
;
_chemical_formula_sum "Si O2"
_cell_formula_units_Z 80
_cell_length_a 24.186954
_cell_length_b 9.419784
_cell_length_c 19.070448
_cell_angle_alpha 90.000000
_cell_angle_beta 90.000000
_cell_angle_gamma 90.000000
_cell_volume 4344.932346
_symmetry_space_group_name_H-M "C M C M"
_symmetry_group_IT_number 63
_symmetry_cell_setting 'orthorhombic'
loop_
_space_group_symop_operation_xyz
x,y,z
-x,-y,1/2+z
x,-y,-z
-x,y,1/2-z
-x,-y,-z
x,y,1/2-z
-x,y,z
x,-y,1/2+z
1/2+x,1/2+y,z
1/2-x,1/2-y,1/2+z
1/2+x,1/2-y,-z
1/2-x,1/2+y,1/2-z
1/2-x,1/2-y,-z
1/2+x,1/2+y,1/2-z
1/2-x,1/2+y,z
1/2+x,1/2-y,1/2+z
loop_
_atom_site_type_symbol
_atom_site_label
_atom_site_fract_x
_atom_site_fract_y
_atom_site_fract_z
Si Si1 0.369830 0.184456 0.426555
Si Si2 0.563376 0.375998 0.170245
Si Si3 0.717716 0.420973 0.430610
Si Si4 0.154893 0.372605 0.420605
Si Si5 0.345122 0.394826 0.669512
O O1 0.421208 0.254491 0.385838
O O2 0.315061 0.277160 0.413708
O O3 0.379876 0.172438 0.510257
O O4 0.362606 0.027909 0.393830
O O5 0.573531 0.321235 0.250000
O O6 0.500000 0.418664 0.158515
O O7 0.599417 0.515773 0.155839
O O8 0.694798 0.500000 0.500000
O O9 0.780764 0.377367 0.441481
O O10 0.707566 0.530852 0.367106
O O11 0.143407 0.262201 0.359208
O O12 0.329303 0.381054 0.750000
#
# Coordination Sequence:
#
# PCOD8258409 Si02
#       5
#    16  16  16  16  16
#     4  10  20  32  56  86 108 145 192 223 270 337
#     4   9  20  41  62  77 102 143 189 238 288 336
#     4  11  18  34  59  78 109 158 192 215 262 329
#     4  11  20  33  53  83 119 149 176 224 279 331
#     4  10  22  36  54  82 111 144 189 235 276 330
#
# _framework density 18.412254000000001
#
# number of rings (size 3 to 8) (size 9 to 14) (size 15 to 20)
#    0.000    1.800    4.000    1.800    0.000    1.600 
#    0.000    9.000    0.000    2.400    0.000    0.000 
#    0.000    0.000    0.000    0.000    0.000    0.000 
#
# Total GULP energy -496011.330395 kJ/mol
# GULP energy per Si atom -12400.283260 kJ/mol
# Density = 1.837035 g / cm^3
# Si number density = 18.412254 Si / 1000 Ang^3
#
#
#
# Elastic Constant Matrix: (Units=GPa)
#
#
# Indices 1 2 3 4 5 6 
#
# 1 67.3928 21.8875 34.9351 0.0000 0.0000 0.0000
# 2 21.8875 132.8778 68.2785 0.0000 0.0000 0.0000
# 3 34.9351 68.2785 124.5452 0.0000 0.0000 0.0000
# 4 0.0000 0.0000 0.0000 35.6190 0.0000 0.0000
# 5 0.0000 0.0000 0.0000 0.0000 25.7374 0.0000
# 6 0.0000 0.0000 0.0000 0.0000 0.0000 -2.2123
#
#
#
# Elastic Compliance Matrix: (Units=1/GPa)
#
#
# Indices 1 2 3 4 5 6 
#
# 1 0.017387 -0.000498 -0.004604 0.000000 0.000000 0.000000
# 2 -0.000498 0.010491 -0.005612 0.000000 0.000000 0.000000
# 3 -0.004604 -0.005612 0.012397 0.000000 0.000000 0.000000
# 4 0.000000 0.000000 0.000000 0.028075 0.000000 0.000000
# 5 0.000000 0.000000 0.000000 0.000000 0.038854 0.000000
# 6 0.000000 0.000000 0.000000 0.000000 0.000000 -0.452023
#
#
# Mechanical properties :
#
#
# Convention : Reuss Voigt Hill
#
# Bulk Modulus (GPa) = 53.05783 63.89089 58.47436
# Shear Modulus (GPa) = -15.76750 25.14314 4.68782
#
# Velocity S-wave (km/s) = -2.92954 3.69936 1.59736
# Velocity P-wave (km/s) = 4.17567 7.28166 5.93544
#
# Compressibility (1/GPa) = 0.01884736
#
# Stress axis : x y z
#
# Youngs Moduli (GPa) = 57.51505 95.31608 80.66375
#
# Poissons Ratio (x) = 0.04749 0.37136
# Poissons Ratio (y) = 0.02866 0.45267
# Poissons Ratio (z) = 0.26479 0.53490
#
# Static dielectric constant tensor:
#      x y z
#    x 3.118120 0.000000 0.000000 
#    y 0.000000 3.617560 0.000000 
#    z 0.000000 0.000000 3.434580 
# 
# 
# High freq. dielectric constant tensor:
#      x y z
#    x 1.682160 0.000000 0.000000 
#    y 0.000000 1.728290 0.000000 
#    z 0.000000 0.000000 1.713430 
# 
# From -- ./inp_files/48784.got.cif
#   From: 2010.03.12/outbox.cif.g09.slc.cpg/sg63_25_cif.got.tgz:48784.got - 2010.04.10 19:34:48.
