data_PCOD8258285
_publ_section_title
;
Structure prediction by ZEFSAII (Michael W. Deem and Ramdas Pophale) SiO2 
 PCOD8258285
Probable space group: C M C M
;
_chemical_formula_sum "Si O2"
_cell_formula_units_Z 104
_cell_length_a 27.218779
_cell_length_b 24.323035
_cell_length_c 9.178426
_cell_angle_alpha 90.000000
_cell_angle_beta 90.000000
_cell_angle_gamma 90.000000
_cell_volume 6076.515569
_symmetry_space_group_name_H-M "C M C M"
_symmetry_group_IT_number 63
_symmetry_cell_setting 'orthorhombic'
loop_
_space_group_symop_operation_xyz
x,y,z
-x,-y,1/2+z
x,-y,-z
-x,y,1/2-z
-x,-y,-z
x,y,1/2-z
-x,y,z
x,-y,1/2+z
1/2+x,1/2+y,z
1/2-x,1/2-y,1/2+z
1/2+x,1/2-y,-z
1/2-x,1/2+y,1/2-z
1/2-x,1/2-y,-z
1/2+x,1/2+y,1/2-z
1/2-x,1/2+y,z
1/2+x,1/2-y,1/2+z
loop_
_atom_site_type_symbol
_atom_site_label
_atom_site_fract_x
_atom_site_fract_y
_atom_site_fract_z
Si Si1 0.821548 0.847828 0.078873
Si Si2 0.393819 0.557865 0.579257
Si Si3 0.558359 0.947304 0.914393
Si Si4 0.442991 0.162161 0.579909
Si Si5 0.632749 0.230633 0.416298
Si Si6 0.763293 0.694890 0.418202
Si Si7 0.000000 0.944223 0.416871
O O1 0.810873 0.850246 0.250000
O O2 0.854014 0.898677 0.023002
O O3 0.849794 0.791574 0.038643
O O4 0.769241 0.852671 0.994547
O O5 0.385977 0.500000 0.500000
O O6 0.387276 0.547177 0.750000
O O7 0.448019 0.585389 0.545926
O O8 0.579486 0.946564 0.750000
O O9 0.500000 0.951057 0.910887
O O10 0.575127 0.892399 0.997024
O O11 0.579946 0.000000 0.000000
O O12 0.433280 0.153521 0.750000
O O13 0.500000 0.174603 0.548207
O O14 0.411737 0.213489 0.521049
O O15 0.613731 0.230663 0.250000
O O16 0.677894 0.187019 0.433656
O O17 0.748186 0.699850 0.250000
O O18 0.750000 0.750000 0.500000
O O19 0.000000 0.960722 0.250000
O O20 0.000000 0.000000 0.500000
#
# Coordination Sequence:
#
# PCOD8258285 Si02
#       7
#    16  16  16  16  16  16   8
#     4   9  18  32  49  73  99 123 160 204 246 295
#     4   9  17  30  48  71  98 129 166 207 249 295
#     4   9  16  27  45  67  90 118 154 192 227 265
#     4  10  20  32  46  67  97 129 160 194 235 283
#     4   9  18  32  48  69  95 125 161 198 240 292
#     4   9  17  30  50  73  94 118 152 194 237 282
#     4   8  14  26  44  64  90 124 162 200 239 282
#
# _framework density 17.115071
#
# number of rings (size 3 to 8) (size 9 to 14) (size 15 to 20)
#    0.000    2.923    0.000    2.308    0.000    6.462 
#    1.385    0.000    0.000    0.923    0.000    2.154 
#    0.000    0.000    0.000    0.000    0.000    0.000 
#
# Total GULP energy -644358.575482 kJ/mol
# GULP energy per Si atom -12391.511067 kJ/mol
# Density = 1.707612 g / cm^3
# Si number density = 17.115071 Si / 1000 Ang^3
#
#
#
# Elastic Constant Matrix: (Units=GPa)
#
#
# Indices 1 2 3 4 5 6 
#
# 1 86.3090 47.3817 42.7378 0.0000 0.0000 0.0000
# 2 47.3817 75.8195 35.7676 0.0000 0.0000 0.0000
# 3 42.7378 35.7676 86.4339 0.0000 0.0000 0.0000
# 4 0.0000 0.0000 0.0000 26.6740 0.0000 0.0000
# 5 0.0000 0.0000 0.0000 0.0000 28.9726 0.0000
# 6 0.0000 0.0000 0.0000 0.0000 0.0000 26.1026
#
#
#
# Elastic Compliance Matrix: (Units=1/GPa)
#
#
# Indices 1 2 3 4 5 6 
#
# 1 0.019714 -0.009594 -0.005778 0.000000 0.000000 0.000000
# 2 -0.009594 0.021058 -0.003970 0.000000 0.000000 0.000000
# 3 -0.005778 -0.003970 0.016069 0.000000 0.000000 0.000000
# 4 0.000000 0.000000 0.000000 0.037490 0.000000 0.000000
# 5 0.000000 0.000000 0.000000 0.000000 0.034515 0.000000
# 6 0.000000 0.000000 0.000000 0.000000 0.000000 0.038310
#
#
# Mechanical properties :
#
#
# Convention : Reuss Voigt Hill
#
# Bulk Modulus (GPa) = 55.07431 55.59295 55.33363
# Shear Modulus (GPa) = 23.59677 24.52818 24.06247
#
# Velocity S-wave (km/s) = 3.71713 3.78978 3.75363
# Velocity P-wave (km/s) = 7.11839 7.19043 7.15450
#
# Compressibility (1/GPa) = 0.01815729
#
# Stress axis : x y z
#
# Youngs Moduli (GPa) = 50.72456 47.48805 62.23117
#
# Poissons Ratio (x) = 0.45562 0.35954
# Poissons Ratio (y) = 0.48668 0.24706
# Poissons Ratio (z) = 0.29306 0.18853
#
# Static dielectric constant tensor:
#      x y z
#    x 4.099910 0.000000 0.000000 
#    y 0.000000 3.088190 0.000000 
#    z 0.000000 0.000000 3.271170 
# 
# 
# High freq. dielectric constant tensor:
#      x y z
#    x 1.649080 0.000000 0.000000 
#    y 0.000000 1.630480 0.000000 
#    z 0.000000 0.000000 1.668620 
# 
# From -- ./inp_files/13092.got.cif
#   From: 2010.03.12/outbox.cif.g09.slc.cpg/sg63_7_cif.got.tgz:13092.got - 2010.04.10 19:34:48.
