data_PCOD8258189
_publ_section_title
;
Structure prediction by ZEFSAII (Michael W. Deem and Ramdas Pophale) SiO2 
 PCOD8258189
Probable space group: C M C M
;
_chemical_formula_sum "Si O2"
_cell_formula_units_Z 72
_cell_length_a 9.502148
_cell_length_b 14.031074
_cell_length_c 28.672070
_cell_angle_alpha 90.000000
_cell_angle_beta 90.000000
_cell_angle_gamma 90.000000
_cell_volume 3822.713531
_symmetry_space_group_name_H-M "C M C M"
_symmetry_group_IT_number 63
_symmetry_cell_setting 'orthorhombic'
loop_
_space_group_symop_operation_xyz
x,y,z
-x,-y,1/2+z
x,-y,-z
-x,y,1/2-z
-x,-y,-z
x,y,1/2-z
-x,y,z
x,-y,1/2+z
1/2+x,1/2+y,z
1/2-x,1/2-y,1/2+z
1/2+x,1/2-y,-z
1/2-x,1/2+y,1/2-z
1/2-x,1/2-y,-z
1/2+x,1/2+y,1/2-z
1/2-x,1/2+y,z
1/2+x,1/2-y,1/2+z
loop_
_atom_site_type_symbol
_atom_site_label
_atom_site_fract_x
_atom_site_fract_y
_atom_site_fract_z
Si Si1 0.336816 0.004159 0.750000
Si Si2 0.708421 0.894597 0.577218
Si Si3 0.000000 0.704644 0.490246
Si Si4 0.500000 0.041697 0.948368
Si Si5 0.330062 0.216842 0.750000
Si Si6 0.663744 0.843026 0.818659
Si Si7 0.000000 0.092930 0.031230
O O1 0.500000 0.024048 0.750000
O O2 0.269731 0.108910 0.750000
O O3 0.293829 0.944850 0.703843
O O4 0.638168 0.826830 0.538267
O O5 0.690328 0.843928 0.626537
O O6 0.869847 0.907246 0.565909
O O7 0.636906 0.000143 0.578220
O O8 0.000000 0.655777 0.542802
O O9 0.000000 0.817286 0.496571
O O10 0.500000 0.000000 0.000000
O O11 0.500000 0.226636 0.750000
O O12 0.265069 0.263821 0.796414
O O13 0.500000 0.819827 0.807572
O O14 0.000000 0.000000 0.000000
#
# Coordination Sequence:
#
# PCOD8258189 Si02
#       7
#     8  16   8   8   8  16   8
#     4   8  18  37  60  83 112 151 183 224 284 346
#     4  10  20  37  60  86 112 147 201 239 278 338
#     4  10  20  40  60  80 112 159 196 230 281 346
#     4   8  16  36  60  78 105 149 193 232 268 330
#     4  10  21  37  60  89 124 143 181 234 300 342
#     4  10  19  40  63  84 114 154 195 233 273 342
#     4  12  24  38  54  83 127 155 183 238 307 332
#
# _framework density 18.834788
#
# number of rings (size 3 to 8) (size 9 to 14) (size 15 to 20)
#    0.000    2.444    2.222    3.667    1.556    0.000 
#    8.000    4.444    0.000    0.000    0.000    0.000 
#    0.000    0.000    0.000    0.000    0.000    0.000 
#
# Total GULP energy -446200.121570 kJ/mol
# GULP energy per Si atom -12394.447821 kJ/mol
# Density = 1.879192 g / cm^3
# Si number density = 18.834788 Si / 1000 Ang^3
#
#
#
# Elastic Constant Matrix: (Units=GPa)
#
#
# Indices 1 2 3 4 5 6 
#
# 1 133.8836 39.4956 33.4716 0.0000 0.0000 0.0000
# 2 39.4956 142.0142 34.7631 0.0000 0.0000 0.0000
# 3 33.4716 34.7631 75.4766 0.0000 0.0000 0.0000
# 4 0.0000 0.0000 0.0000 9.0292 0.0000 0.0000
# 5 0.0000 0.0000 0.0000 0.0000 28.8572 0.0000
# 6 0.0000 0.0000 0.0000 0.0000 0.0000 11.9633
#
#
#
# Elastic Compliance Matrix: (Units=1/GPa)
#
#
# Indices 1 2 3 4 5 6 
#
# 1 0.008738 -0.001670 -0.003106 0.000000 0.000000 0.000000
# 2 -0.001670 0.008255 -0.003062 0.000000 0.000000 0.000000
# 3 -0.003106 -0.003062 0.016037 0.000000 0.000000 0.000000
# 4 0.000000 0.000000 0.000000 0.110752 0.000000 0.000000
# 5 0.000000 0.000000 0.000000 0.000000 0.034653 0.000000
# 6 0.000000 0.000000 0.000000 0.000000 0.000000 0.083589
#
#
# Mechanical properties :
#
#
# Convention : Reuss Voigt Hill
#
# Bulk Modulus (GPa) = 57.61991 62.98168 60.30079
# Shear Modulus (GPa) = 17.63757 26.21287 21.92522
#
# Velocity S-wave (km/s) = 3.06344 3.73463 3.41556
# Velocity P-wave (km/s) = 6.57051 7.21860 6.90217
#
# Compressibility (1/GPa) = 0.01735511
#
# Stress axis : x y z
#
# Youngs Moduli (GPa) = 114.43840 121.13222 62.35666
#
# Poissons Ratio (x) = 0.20228 0.19368
# Poissons Ratio (y) = 0.19110 0.19092
# Poissons Ratio (z) = 0.35545 0.37088
#
# Static dielectric constant tensor:
#      x y z
#    x 3.417290 0.000000 0.000000 
#    y 0.000000 3.812140 0.000000 
#    z 0.000000 0.000000 3.453900 
# 
# 
# High freq. dielectric constant tensor:
#      x y z
#    x 1.730090 0.000000 0.000000 
#    y 0.000000 1.724160 0.000000 
#    z 0.000000 0.000000 1.724290 
# 
# From -- ./inp_files/71509.got.cif
#   From: 2010.03.12/outbox.cif.g09.slc.cpg/sg63_36_cif.got.tgz:71509.got - 2010.04.10 19:34:48.
