data_PCOD8258538
_publ_section_title
;
Structure prediction by ZEFSAII (Michael W. Deem and Ramdas Pophale) SiO2 
 PCOD8258538
Probable space group: C M C M
;
_chemical_formula_sum "Si O2"
_cell_formula_units_Z 80
_cell_length_a 18.470011
_cell_length_b 9.934833
_cell_length_c 23.237021
_cell_angle_alpha 90.000000
_cell_angle_beta 90.000000
_cell_angle_gamma 90.000000
_cell_volume 4263.911438
_symmetry_space_group_name_H-M "C M C M"
_symmetry_group_IT_number 63
_symmetry_cell_setting 'orthorhombic'
loop_
_space_group_symop_operation_xyz
x,y,z
-x,-y,1/2+z
x,-y,-z
-x,y,1/2-z
-x,-y,-z
x,y,1/2-z
-x,y,z
x,-y,1/2+z
1/2+x,1/2+y,z
1/2-x,1/2-y,1/2+z
1/2+x,1/2-y,-z
1/2-x,1/2+y,1/2-z
1/2-x,1/2-y,-z
1/2+x,1/2+y,1/2-z
1/2-x,1/2+y,z
1/2+x,1/2-y,1/2+z
loop_
_atom_site_type_symbol
_atom_site_label
_atom_site_fract_x
_atom_site_fract_y
_atom_site_fract_z
Si Si1 0.347454 0.870936 0.959456
Si Si2 0.219057 0.385417 0.315098
Si Si3 0.213526 0.118923 0.115481
Si Si4 0.080971 0.788437 0.554112
Si Si5 0.578971 0.028673 0.632946
O O1 0.266925 0.838931 0.936523
O O2 0.398018 0.898726 0.904067
O O3 0.382126 0.743930 0.992526
O O4 0.342130 0.000000 0.000000
O O5 0.247859 0.393399 0.250000
O O6 0.220248 0.231358 0.335106
O O7 0.269295 0.473993 0.357178
O O8 0.137077 0.442725 0.317124
O O9 0.132455 0.109124 0.089260
O O10 0.075895 0.651719 0.589196
O O11 0.000000 0.849904 0.545949
O O12 0.500000 0.004037 0.661007
#
# Coordination Sequence:
#
# PCOD8258538 Si02
#       5
#    16  16  16  16  16
#     4   9  16  28  49  74 102 133 159 191 240 296
#     4  10  20  34  52  71  94 128 166 207 249 283
#     4  10  20  33  51  74  99 127 165 206 241 290
#     4   9  16  27  46  72 100 128 157 192 237 289
#     4   8  15  27  45  73 101 122 153 197 243 289
#
# _framework density 18.762115999999999
#
# number of rings (size 3 to 8) (size 9 to 14) (size 15 to 20)
#    0.000    2.800    0.000    3.000    0.000    2.800 
#    0.000    0.000    0.000   12.000    0.000    0.000 
#    0.000    0.000    0.000    0.000    0.000    0.000 
#
# Total GULP energy -495799.691847 kJ/mol
# GULP energy per Si atom -12394.992296 kJ/mol
# Density = 1.871941 g / cm^3
# Si number density = 18.762116 Si / 1000 Ang^3
#
#
#
# Elastic Constant Matrix: (Units=GPa)
#
#
# Indices 1 2 3 4 5 6 
#
# 1 122.8899 5.4535 17.3938 0.0000 0.0000 0.0000
# 2 5.4535 26.0766 1.3595 0.0000 0.0000 0.0000
# 3 17.3938 1.3595 57.1568 0.0000 0.0000 0.0000
# 4 0.0000 0.0000 0.0000 16.4377 0.0000 0.0000
# 5 0.0000 0.0000 0.0000 0.0000 14.9156 0.0000
# 6 0.0000 0.0000 0.0000 0.0000 0.0000 19.2455
#
#
#
# Elastic Compliance Matrix: (Units=1/GPa)
#
#
# Indices 1 2 3 4 5 6 
#
# 1 0.008575 -0.001659 -0.002570 0.000000 0.000000 0.000000
# 2 -0.001659 0.038717 -0.000416 0.000000 0.000000 0.000000
# 3 -0.002570 -0.000416 0.018288 0.000000 0.000000 0.000000
# 4 0.000000 0.000000 0.000000 0.060836 0.000000 0.000000
# 5 0.000000 0.000000 0.000000 0.000000 0.067044 0.000000
# 6 0.000000 0.000000 0.000000 0.000000 0.000000 0.051960
#
#
# Mechanical properties :
#
#
# Convention : Reuss Voigt Hill
#
# Bulk Modulus (GPa) = 17.76536 28.28187 23.02361
# Shear Modulus (GPa) = 18.28335 22.24754 20.26544
#
# Velocity S-wave (km/s) = 3.12506 3.44724 3.29009
# Velocity P-wave (km/s) = 4.74453 5.56338 5.17019
#
# Compressibility (1/GPa) = 0.05628933
#
# Stress axis : x y z
#
# Youngs Moduli (GPa) = 116.62138 25.82824 54.68154
#
# Poissons Ratio (x) = 0.04286 0.14053
# Poissons Ratio (y) = 0.19351 0.02275
# Poissons Ratio (z) = 0.29972 0.01074
#
# Static dielectric constant tensor:
#      x y z
#    x 3.824740 0.000000 0.000000 
#    y 0.000000 3.060280 0.000000 
#    z 0.000000 0.000000 3.231760 
# 
# 
# High freq. dielectric constant tensor:
#      x y z
#    x 1.732640 0.000000 0.000000 
#    y 0.000000 1.694330 0.000000 
#    z 0.000000 0.000000 1.713310 
# 
# From -- ./inp_files/69736.got.cif
#   From: 2010.03.12/outbox.cif.g09.slc.cpg/sg63_35_cif.got.tgz:69736.got - 2010.04.10 19:34:48.
