data_PCOD8258003
_publ_section_title
;
Structure prediction by ZEFSAII (Michael W. Deem and Ramdas Pophale) SiO2 
 PCOD8258003
Probable space group: C M C M
;
_chemical_formula_sum "Si O2"
_cell_formula_units_Z 80
_cell_length_a 24.924876
_cell_length_b 18.395205
_cell_length_c 9.075869
_cell_angle_alpha 90.000000
_cell_angle_beta 90.000000
_cell_angle_gamma 90.000000
_cell_volume 4161.269633
_symmetry_space_group_name_H-M "C M C M"
_symmetry_group_IT_number 63
_symmetry_cell_setting 'orthorhombic'
loop_
_space_group_symop_operation_xyz
x,y,z
-x,-y,1/2+z
x,-y,-z
-x,y,1/2-z
-x,-y,-z
x,y,1/2-z
-x,y,z
x,-y,1/2+z
1/2+x,1/2+y,z
1/2-x,1/2-y,1/2+z
1/2+x,1/2-y,-z
1/2-x,1/2+y,1/2-z
1/2-x,1/2-y,-z
1/2+x,1/2+y,1/2-z
1/2-x,1/2+y,z
1/2+x,1/2-y,1/2+z
loop_
_atom_site_type_symbol
_atom_site_label
_atom_site_fract_x
_atom_site_fract_y
_atom_site_fract_z
Si Si1 0.500000 0.575284 0.076312
Si Si2 0.719667 0.183780 0.579574
Si Si3 0.689166 0.423660 0.081296
Si Si4 0.898678 0.162221 0.079983
Si Si5 0.000000 0.578816 0.927508
Si Si6 0.100472 0.672507 0.580323
O O1 0.500000 0.567321 0.250000
O O2 0.447758 0.615942 0.020001
O O3 0.500000 0.500000 0.000000
O O4 0.713731 0.208134 0.750000
O O5 0.750000 0.250000 0.500000
O O6 0.750982 0.107619 0.565275
O O7 0.660629 0.166097 0.510803
O O8 0.673079 0.436788 0.250000
O O9 0.682812 0.500000 0.000000
O O10 0.652448 0.360216 0.014729
O O11 0.885014 0.146897 0.250000
O O12 0.917011 0.244684 0.055938
O O13 0.053764 0.620728 0.986596
O O14 0.000000 0.574280 0.750000
O O15 0.000000 0.500000 0.000000
O O16 0.104890 0.651322 0.750000
#
# Coordination Sequence:
#
# PCOD8258003 Si02
#       6
#     8  16  16  16   8  16
#     4  10  21  33  49  75 103 138 180 220 268 326
#     4  10  20  36  58  84 112 146 190 236 285 341
#     4  11  23  36  53  81 115 149 186 228 280 338
#     4  10  19  35  58  80 106 142 187 232 280 336
#     4  10  21  39  61  87 119 154 195 242 292 348
#     4   9  18  35  61  85 109 145 187 233 286 341
#
# _framework density 19.224900999999999
#
# number of rings (size 3 to 8) (size 9 to 14) (size 15 to 20)
#    0.000    2.000    2.000    1.800    0.000    6.400 
#    0.000    2.000    0.000    1.200    0.000    0.000 
#    0.000    0.000    0.000    0.000    0.000    0.000 
#
# Total GULP energy -495794.366872 kJ/mol
# GULP energy per Si atom -12394.859172 kJ/mol
# Density = 1.918114 g / cm^3
# Si number density = 19.224901 Si / 1000 Ang^3
#
#
#
# Elastic Constant Matrix: (Units=GPa)
#
#
# Indices 1 2 3 4 5 6 
#
# 1 158.8027 63.6351 32.6321 0.0000 0.0000 0.0000
# 2 63.6351 107.0975 30.6335 0.0000 0.0000 0.0000
# 3 32.6321 30.6335 51.5619 0.0000 0.0000 0.0000
# 4 0.0000 0.0000 0.0000 29.5092 0.0000 0.0000
# 5 0.0000 0.0000 0.0000 0.0000 21.9498 0.0000
# 6 0.0000 0.0000 0.0000 0.0000 0.0000 33.1275
#
#
#
# Elastic Compliance Matrix: (Units=1/GPa)
#
#
# Indices 1 2 3 4 5 6 
#
# 1 0.008611 -0.004286 -0.002903 0.000000 0.000000 0.000000
# 2 -0.004286 0.013382 -0.005238 0.000000 0.000000 0.000000
# 3 -0.002903 -0.005238 0.024344 0.000000 0.000000 0.000000
# 4 0.000000 0.000000 0.000000 0.033888 0.000000 0.000000
# 5 0.000000 0.000000 0.000000 0.000000 0.045558 0.000000
# 6 0.000000 0.000000 0.000000 0.000000 0.000000 0.030186
#
#
# Mechanical properties :
#
#
# Convention : Reuss Voigt Hill
#
# Bulk Modulus (GPa) = 46.55037 63.47372 55.01204
# Shear Modulus (GPa) = 26.59779 29.62138 28.10958
#
# Velocity S-wave (km/s) = 3.72359 3.92954 3.82795
# Velocity P-wave (km/s) = 6.53857 7.32642 6.94368
#
# Compressibility (1/GPa) = 0.02148211
#
# Stress axis : x y z
#
# Youngs Moduli (GPa) = 116.12673 74.72569 41.07857
#
# Poissons Ratio (x) = 0.32029 0.11927
# Poissons Ratio (y) = 0.49774 0.21517
# Poissons Ratio (z) = 0.33716 0.39141
#
# Static dielectric constant tensor:
#      x y z
#    x 3.978030 0.000000 0.000000 
#    y 0.000000 3.458180 0.000000 
#    z 0.000000 0.000000 -2.068130 
# 
# 
# High freq. dielectric constant tensor:
#      x y z
#    x 1.767670 0.000000 0.000000 
#    y 0.000000 1.750760 0.000000 
#    z 0.000000 0.000000 1.716520 
# 
# From -- ./inp_files/12091.got.cif
#   From: 2010.03.12/outbox.cif.g09.slc.cpg/sg63_7_cif.got.tgz:12091.got - 2010.04.10 19:34:48.
