data_PCOD8258138
_publ_section_title
;
Structure prediction by ZEFSAII (Michael W. Deem and Ramdas Pophale) SiO2 
 PCOD8258138
Probable space group: C M C M
;
_chemical_formula_sum "Si O2"
_cell_formula_units_Z 88
_cell_length_a 10.327400
_cell_length_b 21.810397
_cell_length_c 19.495460
_cell_angle_alpha 90.000000
_cell_angle_beta 90.000000
_cell_angle_gamma 90.000000
_cell_volume 4391.248922
_symmetry_space_group_name_H-M "C M C M"
_symmetry_group_IT_number 63
_symmetry_cell_setting 'orthorhombic'
loop_
_space_group_symop_operation_xyz
x,y,z
-x,-y,1/2+z
x,-y,-z
-x,y,1/2-z
-x,-y,-z
x,y,1/2-z
-x,y,z
x,-y,1/2+z
1/2+x,1/2+y,z
1/2-x,1/2-y,1/2+z
1/2+x,1/2-y,-z
1/2-x,1/2+y,1/2-z
1/2-x,1/2-y,-z
1/2+x,1/2+y,1/2-z
1/2-x,1/2+y,z
1/2+x,1/2-y,1/2+z
loop_
_atom_site_type_symbol
_atom_site_label
_atom_site_fract_x
_atom_site_fract_y
_atom_site_fract_z
Si Si1 0.739766 0.020239 0.327383
Si Si2 0.500000 0.244343 0.176376
Si Si3 0.500000 0.981120 0.403114
Si Si4 0.768890 0.181824 0.472776
Si Si5 0.500000 0.348844 0.068064
Si Si6 0.500000 0.891226 0.983886
Si Si7 0.249749 0.338228 0.825640
Si Si8 0.500000 0.462416 0.167957
O O1 0.741363 0.999337 0.250000
O O2 0.630010 0.978809 0.359912
O O3 0.710283 0.091531 0.336584
O O4 0.879137 0.002743 0.358106
O O5 0.500000 0.280584 0.250000
O O6 0.500000 0.285493 0.109266
O O7 0.621455 0.200638 0.174469
O O8 0.500000 0.044133 0.445072
O O9 0.500000 0.914656 0.438545
O O10 0.750000 0.250000 0.500000
O O11 0.629467 0.148108 0.469958
O O12 0.827844 0.182884 0.394238
O O13 0.871521 0.146582 0.520969
O O14 0.500000 0.399730 0.126263
O O15 0.320967 0.330624 0.750000
O O16 0.500000 0.449734 0.250000
#
# Coordination Sequence:
#
# PCOD8258138 Si02
#       8
#    16   8   8  16   8   8  16   8
#     4  10  20  37  64  90 121 159 205 260 308 358
#     4  10  19  36  63  94 118 153 211 259 301 361
#     4  11  20  38  62  87 126 152 206 254 297 376
#     4  12  23  41  62  91 128 160 210 258 310 369
#     4  12  24  39  64  91 125 170 202 247 312 374
#     4  11  24  39  59  89 124 165 195 250 313 359
#     4  10  20  37  61  89 118 155 205 261 305 353
#     4  10  23  42  59  91 133 169 205 245 308 384
#
# _framework density 20.039856
#
# number of rings (size 3 to 8) (size 9 to 14) (size 15 to 20)
#    0.000    1.273    3.636    3.273    0.000    2.182 
#    0.000    2.273    0.000    1.091    0.000    0.000 
#    0.000    0.000    0.000    0.000    0.000    0.000 
#
# Total GULP energy -545094.790911 kJ/mol
# GULP energy per Si atom -12388.517975 kJ/mol
# Density = 1.999424 g / cm^3
# Si number density = 20.039856 Si / 1000 Ang^3
#
#
#
# Elastic Constant Matrix: (Units=GPa)
#
#
# Indices 1 2 3 4 5 6 
#
# 1 111.2664 18.1812 44.9098 0.0000 0.0000 0.0000
# 2 18.1812 72.0807 45.2084 0.0000 0.0000 0.0000
# 3 44.9098 45.2084 124.4108 0.0000 0.0000 0.0000
# 4 0.0000 0.0000 0.0000 26.2857 0.0000 0.0000
# 5 0.0000 0.0000 0.0000 0.0000 30.7010 0.0000
# 6 0.0000 0.0000 0.0000 0.0000 0.0000 21.8672
#
#
#
# Elastic Compliance Matrix: (Units=1/GPa)
#
#
# Indices 1 2 3 4 5 6 
#
# 1 0.010527 -0.000352 -0.003672 0.000000 0.000000 0.000000
# 2 -0.000352 0.017980 -0.006407 0.000000 0.000000 0.000000
# 3 -0.003672 -0.006407 0.011691 0.000000 0.000000 0.000000
# 4 0.000000 0.000000 0.000000 0.038043 0.000000 0.000000
# 5 0.000000 0.000000 0.000000 0.000000 0.032572 0.000000
# 6 0.000000 0.000000 0.000000 0.000000 0.000000 0.045731
#
#
# Mechanical properties :
#
#
# Convention : Reuss Voigt Hill
#
# Bulk Modulus (GPa) = 51.71374 58.26183 54.98779
# Shear Modulus (GPa) = 27.19568 29.06801 28.13185
#
# Velocity S-wave (km/s) = 3.68785 3.81269 3.75079
# Velocity P-wave (km/s) = 6.63288 6.96550 6.80123
#
# Compressibility (1/GPa) = 0.01933722
#
# Stress axis : x y z
#
# Youngs Moduli (GPa) = 94.99260 55.61637 85.53251
#
# Poissons Ratio (x) = 0.01959 0.31408
# Poissons Ratio (y) = 0.03345 0.54797
# Poissons Ratio (z) = 0.34882 0.35631
#
# Static dielectric constant tensor:
#      x y z
#    x 3.510220 0.000000 0.000000 
#    y 0.000000 3.628960 0.000000 
#    z 0.000000 0.000000 4.538860 
# 
# 
# High freq. dielectric constant tensor:
#      x y z
#    x 1.771830 0.000000 0.000000 
#    y 0.000000 1.771920 0.000000 
#    z 0.000000 0.000000 1.805400 
# 
# From -- ./inp_files/42354.got.cif
#   From: 2010.03.12/outbox.cif.g09.slc.cpg/sg63_22_cif.got.tgz:42354.got - 2010.04.10 19:34:48.
