data_PCOD8258423
_publ_section_title
;
Structure prediction by ZEFSAII (Michael W. Deem and Ramdas Pophale) SiO2 
 PCOD8258423
Probable space group: C M C M
;
_chemical_formula_sum "Si O2"
_cell_formula_units_Z 80
_cell_length_a 13.571528
_cell_length_b 18.821340
_cell_length_c 17.905122
_cell_angle_alpha 90.000000
_cell_angle_beta 90.000000
_cell_angle_gamma 90.000000
_cell_volume 4573.583071
_symmetry_space_group_name_H-M "C M C M"
_symmetry_group_IT_number 63
_symmetry_cell_setting 'orthorhombic'
loop_
_space_group_symop_operation_xyz
x,y,z
-x,-y,1/2+z
x,-y,-z
-x,y,1/2-z
-x,-y,-z
x,y,1/2-z
-x,y,z
x,-y,1/2+z
1/2+x,1/2+y,z
1/2-x,1/2-y,1/2+z
1/2+x,1/2-y,-z
1/2-x,1/2+y,1/2-z
1/2-x,1/2-y,-z
1/2+x,1/2+y,1/2-z
1/2-x,1/2+y,z
1/2+x,1/2-y,1/2+z
loop_
_atom_site_type_symbol
_atom_site_label
_atom_site_fract_x
_atom_site_fract_y
_atom_site_fract_z
Si Si1 0.302917 0.127754 0.838736
Si Si2 0.392328 0.442533 0.161880
Si Si3 0.717595 0.583136 0.338383
Si Si4 0.612965 0.992926 0.585526
Si Si5 0.888873 0.223977 0.338883
O O1 0.313644 0.121139 0.750000
O O2 0.189305 0.114924 0.864212
O O3 0.372843 0.068258 0.873882
O O4 0.336426 0.204565 0.868139
O O5 0.402123 0.439786 0.250000
O O6 0.500000 0.426219 0.125915
O O7 0.357817 0.521063 0.137734
O O8 0.734094 0.584486 0.250000
O O9 0.822756 0.569199 0.376616
O O10 0.673215 0.656974 0.368629
O O11 0.500000 0.969202 0.592703
O O12 0.645663 0.000000 0.500000
O O13 0.891569 0.222736 0.250000
O O14 0.000000 0.220510 0.370536
#
# Coordination Sequence:
#
# PCOD8258423 Si02
#       5
#    16  16  16  16  16
#     4   9  17  29  48  72  93 118 155 193 228 271
#     4   8  13  23  41  64  89 116 144 176 217 264
#     4   9  17  29  47  70  92 117 151 188 228 274
#     4  10  20  33  48  66  91 124 158 193 234 275
#     4   9  16  27  46  72  97 118 147 191 236 273
#
# _framework density 17.491755999999999
#
# number of rings (size 3 to 8) (size 9 to 14) (size 15 to 20)
#    0.000    3.000    0.000    3.000    0.000    4.800 
#    0.000    2.000    0.000   18.600    0.000    0.000 
#    0.000    0.000    0.000    0.000    0.000    0.000 
#
# Total GULP energy -495842.646814 kJ/mol
# GULP energy per Si atom -12396.066170 kJ/mol
# Density = 1.745194 g / cm^3
# Si number density = 17.491756 Si / 1000 Ang^3
#
#
#
# Elastic Constant Matrix: (Units=GPa)
#
#
# Indices 1 2 3 4 5 6 
#
# 1 134.7412 78.5436 30.6789 0.0000 0.0000 0.0000
# 2 78.5436 149.6446 24.3103 0.0000 0.0000 0.0000
# 3 30.6789 24.3103 32.6057 0.0000 0.0000 0.0000
# 4 0.0000 0.0000 0.0000 7.1055 0.0000 0.0000
# 5 0.0000 0.0000 0.0000 0.0000 14.1447 0.0000
# 6 0.0000 0.0000 0.0000 0.0000 0.0000 23.8075
#
#
#
# Elastic Compliance Matrix: (Units=1/GPa)
#
#
# Indices 1 2 3 4 5 6 
#
# 1 0.012149 -0.005142 -0.007597 0.000000 0.000000 0.000000
# 2 -0.005142 0.009780 -0.002453 0.000000 0.000000 0.000000
# 3 -0.007597 -0.002453 0.039647 0.000000 0.000000 0.000000
# 4 0.000000 0.000000 0.000000 0.140737 0.000000 0.000000
# 5 0.000000 0.000000 0.000000 0.000000 0.070698 0.000000
# 6 0.000000 0.000000 0.000000 0.000000 0.000000 0.042004
#
#
# Mechanical properties :
#
#
# Convention : Reuss Voigt Hill
#
# Bulk Modulus (GPa) = 32.06122 64.89522 48.47822
# Shear Modulus (GPa) = 14.05297 21.24211 17.64754
#
# Velocity S-wave (km/s) = 2.83752 3.48861 3.17977
# Velocity P-wave (km/s) = 5.39485 7.30809 6.42311
#
# Compressibility (1/GPa) = 0.03119033
#
# Stress axis : x y z
#
# Youngs Moduli (GPa) = 82.31111 102.24760 25.22279
#
# Poissons Ratio (x) = 0.52581 0.19162
# Poissons Ratio (y) = 0.42328 0.06188
# Poissons Ratio (z) = 0.62531 0.25085
#
# Static dielectric constant tensor:
#      x y z
#    x 3.561730 0.000000 0.000000 
#    y 0.000000 3.332830 0.000000 
#    z 0.000000 0.000000 2.831620 
# 
# 
# High freq. dielectric constant tensor:
#      x y z
#    x 1.688020 0.000000 0.000000 
#    y 0.000000 1.668330 0.000000 
#    z 0.000000 0.000000 1.628250 
# 
# From -- ./inp_files/43927.got.cif
#   From: 2010.03.12/outbox.cif.g09.slc.cpg/sg63_22_cif.got.tgz:43927.got - 2010.04.10 19:34:48.
