data_PCOD8258838
_publ_section_title
;
Structure prediction by ZEFSAII (Michael W. Deem and Ramdas Pophale) SiO2 
 PCOD8258838
Probable space group: C M C M
;
_chemical_formula_sum "Si O2"
_cell_formula_units_Z 88
_cell_length_a 22.163288
_cell_length_b 24.601275
_cell_length_c 8.920712
_cell_angle_alpha 90.000000
_cell_angle_beta 90.000000
_cell_angle_gamma 90.000000
_cell_volume 4863.974890
_symmetry_space_group_name_H-M "C M C M"
_symmetry_group_IT_number 63
_symmetry_cell_setting 'orthorhombic'
loop_
_space_group_symop_operation_xyz
x,y,z
-x,-y,1/2+z
x,-y,-z
-x,y,1/2-z
-x,-y,-z
x,y,1/2-z
-x,y,z
x,-y,1/2+z
1/2+x,1/2+y,z
1/2-x,1/2-y,1/2+z
1/2+x,1/2-y,-z
1/2-x,1/2+y,1/2-z
1/2-x,1/2-y,-z
1/2+x,1/2+y,1/2-z
1/2-x,1/2+y,z
1/2+x,1/2-y,1/2+z
loop_
_atom_site_type_symbol
_atom_site_label
_atom_site_fract_x
_atom_site_fract_y
_atom_site_fract_z
Si Si1 0.884700 0.872342 0.072509
Si Si2 0.500000 0.441433 0.073306
Si Si3 0.212474 0.055971 0.073652
Si Si4 0.351406 0.944752 0.574919
Si Si5 0.429702 0.733072 0.075475
Si Si6 0.569726 0.844314 0.924437
O O1 0.877531 0.872826 0.250000
O O2 0.941356 0.908499 0.019169
O O3 0.824449 0.894668 0.996437
O O4 0.892374 0.811004 0.017040
O O5 0.500000 0.448943 0.250000
O O6 0.500000 0.500000 0.000000
O O7 0.201007 0.052485 0.250000
O O8 0.282041 0.066702 0.033136
O O9 0.189687 0.000000 0.000000
O O10 0.360469 0.952257 0.750000
O O11 0.391243 0.894799 0.515198
O O12 0.374816 0.000000 0.500000
O O13 0.414653 0.727575 0.250000
O O14 0.500000 0.724055 0.041503
O O15 0.409414 0.792126 0.018503
O O16 0.582231 0.832558 0.750000
O O17 0.500000 0.858210 0.953617
#
# Coordination Sequence:
#
# PCOD8258838 Si02
#       6
#    16   8  16  16  16  16
#     4  11  21  35  53  75 102 138 179 217 263 312
#     4  10  22  34  48  72 102 132 167 214 261 304
#     4  10  20  35  53  75 104 139 178 217 260 311
#     4   9  19  35  55  79 108 140 173 212 260 312
#     4  10  20  34  53  78 106 138 174 216 264 312
#     4   9  18  34  56  80 107 139 173 212 260 314
#
# _framework density 18.092199000000001
#
# number of rings (size 3 to 8) (size 9 to 14) (size 15 to 20)
#    0.000    2.182    0.909    2.182    0.000    5.455 
#    0.000    0.909    0.000    0.000    0.000    0.000 
#    0.000    0.000    0.000    0.000    0.000    0.000 
#
# Total GULP energy -545808.082053 kJ/mol
# GULP energy per Si atom -12404.729138 kJ/mol
# Density = 1.805102 g / cm^3
# Si number density = 18.092199 Si / 1000 Ang^3
#
#
#
# Elastic Constant Matrix: (Units=GPa)
#
#
# Indices 1 2 3 4 5 6 
#
# 1 71.3853 68.0698 35.3060 0.0000 0.0000 0.0000
# 2 68.0698 153.9770 51.5403 0.0000 0.0000 0.0000
# 3 35.3060 51.5403 65.4954 0.0000 0.0000 0.0000
# 4 0.0000 0.0000 0.0000 36.7661 0.0000 0.0000
# 5 0.0000 0.0000 0.0000 0.0000 23.7787 0.0000
# 6 0.0000 0.0000 0.0000 0.0000 0.0000 33.0974
#
#
#
# Elastic Compliance Matrix: (Units=1/GPa)
#
#
# Indices 1 2 3 4 5 6 
#
# 1 0.026286 -0.009337 -0.006822 0.000000 0.000000 0.000000
# 2 -0.009337 0.012133 -0.004515 0.000000 0.000000 0.000000
# 3 -0.006822 -0.004515 0.022499 0.000000 0.000000 0.000000
# 4 0.000000 0.000000 0.000000 0.027199 0.000000 0.000000
# 5 0.000000 0.000000 0.000000 0.000000 0.042054 0.000000
# 6 0.000000 0.000000 0.000000 0.000000 0.000000 0.030214
#
#
# Mechanical properties :
#
#
# Convention : Reuss Voigt Hill
#
# Bulk Modulus (GPa) = 51.09882 66.74332 58.92107
# Shear Modulus (GPa) = 24.00884 27.79122 25.90003
#
# Velocity S-wave (km/s) = 3.64679 3.92355 3.78770
# Velocity P-wave (km/s) = 6.78506 7.58264 7.19491
#
# Compressibility (1/GPa) = 0.01956992
#
# Stress axis : x y z
#
# Youngs Moduli (GPa) = 38.04332 82.41742 44.44671
#
# Poissons Ratio (x) = 0.76951 0.30323
# Poissons Ratio (y) = 0.35520 0.20068
# Poissons Ratio (z) = 0.25954 0.37211
#
# Static dielectric constant tensor:
#      x y z
#    x 3.322670 0.000000 0.000000 
#    y 0.000000 3.403690 0.000000 
#    z 0.000000 0.000000 3.340160 
# 
# 
# High freq. dielectric constant tensor:
#      x y z
#    x 1.688520 0.000000 0.000000 
#    y 0.000000 1.706830 0.000000 
#    z 0.000000 0.000000 1.704980 
# 
# From -- ./inp_files/8161.got.cif
#   From: 2010.03.12/outbox.cif.g09.slc.cpg/sg63_5_cif.got.tgz:8161.got - 2010.04.10 19:34:48.
