data_PCOD8258211
_publ_section_title
;
Structure prediction by ZEFSAII (Michael W. Deem and Ramdas Pophale) SiO2 
 PCOD8258211
Probable space group: C M C M
;
_chemical_formula_sum "Si O2"
_cell_formula_units_Z 80
_cell_length_a 23.349312
_cell_length_b 28.193561
_cell_length_c 9.230517
_cell_angle_alpha 90.000000
_cell_angle_beta 90.000000
_cell_angle_gamma 90.000000
_cell_volume 6076.451669
_symmetry_space_group_name_H-M "C M C M"
_symmetry_group_IT_number 63
_symmetry_cell_setting 'orthorhombic'
loop_
_space_group_symop_operation_xyz
x,y,z
-x,-y,1/2+z
x,-y,-z
-x,y,1/2-z
-x,-y,-z
x,y,1/2-z
-x,y,z
x,-y,1/2+z
1/2+x,1/2+y,z
1/2-x,1/2-y,1/2+z
1/2+x,1/2-y,-z
1/2-x,1/2+y,1/2-z
1/2-x,1/2-y,-z
1/2+x,1/2+y,1/2-z
1/2-x,1/2+y,z
1/2+x,1/2-y,1/2+z
loop_
_atom_site_type_symbol
_atom_site_label
_atom_site_fract_x
_atom_site_fract_y
_atom_site_fract_z
Si Si1 0.064299 0.268664 0.418832
Si Si2 0.066103 0.547447 0.419165
Si Si3 0.724895 0.189549 0.585531
Si Si4 0.337472 0.269259 0.084413
Si Si5 0.878056 0.369025 0.414024
O O1 0.065276 0.258279 0.250000
O O2 0.103791 0.228109 0.493175
O O3 0.088493 0.320780 0.454231
O O4 0.000000 0.264871 0.480788
O O5 0.085986 0.500000 0.500000
O O6 0.076973 0.540339 0.250000
O O7 0.104240 0.590609 0.474922
O O8 0.000000 0.558766 0.453863
O O9 0.712848 0.209035 0.750000
O O10 0.699843 0.224477 0.465399
O O11 0.794243 0.185292 0.563759
O O12 0.690702 0.139765 0.569606
O O13 0.355679 0.262847 0.250000
O O14 0.893641 0.384598 0.250000
#
# Coordination Sequence:
#
# PCOD8258211 Si02
#       5
#    16  16  16  16  16
#     4   9  17  27  37  50  71  98 122 145 179 218
#     4  10  20  31  41  53  69  89 114 145 181 218
#     4   8  15  26  37  50  69  92 114 139 177 217
#     4   9  15  23  36  52  69  89 116 148 175 203
#     4   9  16  27  41  53  67  89 117 147 179 215
#
# _framework density 13.165578
#
# number of rings (size 3 to 8) (size 9 to 14) (size 15 to 20)
#    0.000    3.000    0.000    3.000    0.000    6.400 
#    0.000    0.000    0.000    0.000    0.000    0.000 
#    0.000    0.000    0.000    0.000    0.000    1.000 
#
# Total GULP energy -495564.114119 kJ/mol
# GULP energy per Si atom -12389.102853 kJ/mol
# Density = 1.313561 g / cm^3
# Si number density = 13.165578 Si / 1000 Ang^3
#
#
#
# Elastic Constant Matrix: (Units=GPa)
#
#
# Indices 1 2 3 4 5 6 
#
# 1 104.0412 42.1464 40.2986 0.0000 0.0000 0.0000
# 2 42.1464 40.7297 28.7594 0.0000 0.0000 0.0000
# 3 40.2986 28.7594 56.6594 0.0000 0.0000 0.0000
# 4 0.0000 0.0000 0.0000 18.1652 0.0000 0.0000
# 5 0.0000 0.0000 0.0000 0.0000 21.9446 0.0000
# 6 0.0000 0.0000 0.0000 0.0000 0.0000 18.1113
#
#
#
# Elastic Compliance Matrix: (Units=1/GPa)
#
#
# Indices 1 2 3 4 5 6 
#
# 1 0.017430 -0.014468 -0.005053 0.000000 0.000000 0.000000
# 2 -0.014468 0.050277 -0.015230 0.000000 0.000000 0.000000
# 3 -0.005053 -0.015230 0.028974 0.000000 0.000000 0.000000
# 4 0.000000 0.000000 0.000000 0.055050 0.000000 0.000000
# 5 0.000000 0.000000 0.000000 0.000000 0.045569 0.000000
# 6 0.000000 0.000000 0.000000 0.000000 0.000000 0.055214
#
#
# Mechanical properties :
#
#
# Convention : Reuss Voigt Hill
#
# Bulk Modulus (GPa) = 36.79300 47.09322 41.94311
# Shear Modulus (GPa) = 15.10233 17.65927 16.38080
#
# Velocity S-wave (km/s) = 3.39057 3.66638 3.53117
# Velocity P-wave (km/s) = 6.58293 7.33285 6.96799
#
# Compressibility (1/GPa) = 0.02717908
#
# Stress axis : x y z
#
# Youngs Moduli (GPa) = 57.37354 19.88982 34.51423
#
# Poissons Ratio (x) = 0.28776 0.17440
# Poissons Ratio (y) = 0.83008 0.52564
# Poissons Ratio (z) = 0.28991 0.30291
#
# Static dielectric constant tensor:
#      x y z
#    x 2.981860 0.000000 0.000000 
#    y 0.000000 2.338840 0.000000 
#    z 0.000000 0.000000 2.707530 
# 
# 
# High freq. dielectric constant tensor:
#      x y z
#    x 1.499330 0.000000 0.000000 
#    y 0.000000 1.442320 0.000000 
#    z 0.000000 0.000000 1.513410 
# 
# From -- ./inp_files/8876.got.cif
#   From: 2010.03.12/outbox.cif.g09.slc.cpg/sg63_5_cif.got.tgz:8876.got - 2010.04.10 19:34:48.
