data_PCOD8258418
_publ_section_title
;
Structure prediction by ZEFSAII (Michael W. Deem and Ramdas Pophale) SiO2 
 PCOD8258418
Probable space group: C M C M
;
_chemical_formula_sum "Si O2"
_cell_formula_units_Z 80
_cell_length_a 18.287688
_cell_length_b 27.412723
_cell_length_c 9.189996
_cell_angle_alpha 90.000000
_cell_angle_beta 90.000000
_cell_angle_gamma 90.000000
_cell_volume 4607.085836
_symmetry_space_group_name_H-M "C M C M"
_symmetry_group_IT_number 63
_symmetry_cell_setting 'orthorhombic'
loop_
_space_group_symop_operation_xyz
x,y,z
-x,-y,1/2+z
x,-y,-z
-x,y,1/2-z
-x,-y,-z
x,y,1/2-z
-x,y,z
x,-y,1/2+z
1/2+x,1/2+y,z
1/2-x,1/2-y,1/2+z
1/2+x,1/2-y,-z
1/2-x,1/2+y,1/2-z
1/2-x,1/2-y,-z
1/2+x,1/2+y,1/2-z
1/2-x,1/2+y,z
1/2+x,1/2-y,1/2+z
loop_
_atom_site_type_symbol
_atom_site_label
_atom_site_fract_x
_atom_site_fract_y
_atom_site_fract_z
Si Si1 0.348826 0.192762 0.081270
Si Si2 0.215735 0.452210 0.421294
Si Si3 0.080740 0.208041 0.577793
Si Si4 0.782846 0.851081 0.420147
Si Si5 0.916584 0.409595 0.917392
O O1 0.329894 0.199340 0.250000
O O2 0.387995 0.240791 0.017335
O O3 0.403006 0.147550 0.054127
O O4 0.272633 0.185106 0.999507
O O5 0.248037 0.500000 0.500000
O O6 0.212519 0.461106 0.250000
O O7 0.268773 0.407281 0.463874
O O8 0.134021 0.442135 0.478992
O O9 0.074472 0.212140 0.750000
O O10 0.134796 0.163725 0.533682
O O11 0.000000 0.198050 0.511217
O O12 0.769774 0.843463 0.250000
O O13 0.898835 0.422672 0.750000
O O14 0.000000 0.421673 0.956828
#
# Coordination Sequence:
#
# PCOD8258418 Si02
#       5
#    16  16  16  16  16
#     4   9  16  27  46  70  95 125 155 178 207 254
#     4  10  20  33  48  65  85 113 151 191 231 272
#     4   9  16  27  46  71  96 121 150 183 217 258
#     4   9  18  31  47  68  92 118 150 187 224 263
#     4   9  17  29  45  67  95 123 150 180 214 256
#
# _framework density 17.364556
#
# number of rings (size 3 to 8) (size 9 to 14) (size 15 to 20)
#    0.000    2.800    0.000    1.800    0.000    4.000 
#    0.000    0.000    0.000    4.200    0.000    0.000 
#    0.000    0.000    0.000    0.000    0.000    0.600 
#
# Total GULP energy -495949.204166 kJ/mol
# GULP energy per Si atom -12398.730104 kJ/mol
# Density = 1.732503 g / cm^3
# Si number density = 17.364556 Si / 1000 Ang^3
#
#
#
# Elastic Constant Matrix: (Units=GPa)
#
#
# Indices 1 2 3 4 5 6 
#
# 1 131.9482 68.2723 34.7970 0.0000 0.0000 0.0000
# 2 68.2723 114.9039 35.1400 0.0000 0.0000 0.0000
# 3 34.7970 35.1400 43.0656 0.0000 0.0000 0.0000
# 4 0.0000 0.0000 0.0000 19.0795 0.0000 0.0000
# 5 0.0000 0.0000 0.0000 0.0000 18.3957 0.0000
# 6 0.0000 0.0000 0.0000 0.0000 0.0000 15.0235
#
#
#
# Elastic Compliance Matrix: (Units=1/GPa)
#
#
# Indices 1 2 3 4 5 6 
#
# 1 0.011711 -0.005416 -0.005043 0.000000 0.000000 0.000000
# 2 -0.005416 0.014102 -0.007130 0.000000 0.000000 0.000000
# 3 -0.005043 -0.007130 0.033113 0.000000 0.000000 0.000000
# 4 0.000000 0.000000 0.000000 0.052412 0.000000 0.000000
# 5 0.000000 0.000000 0.000000 0.000000 0.054361 0.000000
# 6 0.000000 0.000000 0.000000 0.000000 0.000000 0.066562
#
#
# Mechanical properties :
#
#
# Convention : Reuss Voigt Hill
#
# Bulk Modulus (GPa) = 42.11063 62.92625 52.51844
# Shear Modulus (GPa) = 18.15834 20.61364 19.38599
#
# Velocity S-wave (km/s) = 3.23726 3.44918 3.34490
# Velocity P-wave (km/s) = 6.18681 7.22354 6.72518
#
# Compressibility (1/GPa) = 0.02374697
#
# Stress axis : x y z
#
# Youngs Moduli (GPa) = 85.38928 70.91440 30.19930
#
# Poissons Ratio (x) = 0.38407 0.15230
# Poissons Ratio (y) = 0.46247 0.21533
# Poissons Ratio (z) = 0.43064 0.50563
#
# Static dielectric constant tensor:
#      x y z
#    x 3.331990 0.000000 0.000000 
#    y 0.000000 3.332290 0.000000 
#    z 0.000000 0.000000 3.042540 
# 
# 
# High freq. dielectric constant tensor:
#      x y z
#    x 1.657460 0.000000 0.000000 
#    y 0.000000 1.670630 0.000000 
#    z 0.000000 0.000000 1.649080 
# 
# From -- ./inp_files/6345.got.cif
#   From: 2010.03.12/outbox.cif.g09.slc.cpg/sg63_4_cif.got.tgz:6345.got - 2010.04.10 19:34:48.
