data_PCOD8258437
_publ_section_title
;
Structure prediction by ZEFSAII (Michael W. Deem and Ramdas Pophale) SiO2 
 PCOD8258437
Probable space group: C M C M
;
_chemical_formula_sum "Si O2"
_cell_formula_units_Z 96
_cell_length_a 17.946991
_cell_length_b 28.773335
_cell_length_c 9.090341
_cell_angle_alpha 90.000000
_cell_angle_beta 90.000000
_cell_angle_gamma 90.000000
_cell_volume 4694.204680
_symmetry_space_group_name_H-M "C M C M"
_symmetry_group_IT_number 63
_symmetry_cell_setting 'orthorhombic'
loop_
_space_group_symop_operation_xyz
x,y,z
-x,-y,1/2+z
x,-y,-z
-x,y,1/2-z
-x,-y,-z
x,y,1/2-z
-x,y,z
x,-y,1/2+z
1/2+x,1/2+y,z
1/2-x,1/2-y,1/2+z
1/2+x,1/2-y,-z
1/2-x,1/2+y,1/2-z
1/2-x,1/2-y,-z
1/2+x,1/2+y,1/2-z
1/2-x,1/2+y,z
1/2+x,1/2-y,1/2+z
loop_
_atom_site_type_symbol
_atom_site_label
_atom_site_fract_x
_atom_site_fract_y
_atom_site_fract_z
Si Si1 0.085022 0.887901 0.920778
Si Si2 0.584307 0.041361 0.589529
Si Si3 0.217506 0.951509 0.920544
Si Si4 0.411781 0.296767 0.085016
Si Si5 0.086914 0.703847 0.923923
Si Si6 0.651200 0.117834 0.076258
O O1 0.091631 0.874199 0.750000
O O2 0.134614 0.933007 0.957436
O O3 0.000000 0.899984 0.963876
O O4 0.117244 0.844310 0.011942
O O5 0.622817 0.048178 0.750000
O O6 0.500000 0.026222 0.616743
O O7 0.584120 0.087786 0.492189
O O8 0.626269 0.000000 0.500000
O O9 0.228433 0.961452 0.750000
O O10 0.274280 0.910422 0.969735
O O11 0.231817 0.000000 0.000000
O O12 0.378923 0.291854 0.250000
O O13 0.500000 0.298769 0.090364
O O14 0.386769 0.253622 0.984904
O O15 0.098613 0.702517 0.750000
O O16 0.000000 0.693853 0.964263
O O17 0.143765 0.667884 0.000311
O O18 0.642720 0.123868 0.250000
#
# Coordination Sequence:
#
# PCOD8258437 Si02
#       6
#    16  16  16  16  16  16
#     4   9  18  36  61  85 110 140 174 216 269 328
#     4  10  20  33  49  70  96 129 174 225 272 318
#     4  10  23  40  57  80 109 142 180 223 273 327
#     4   9  17  31  54  85 116 143 175 218 268 320
#     4  10  20  34  54  81 112 147 187 227 266 312
#     4  11  22  35  51  73 105 143 182 224 268 316
#
# _framework density 20.450748000000001
#
# number of rings (size 3 to 8) (size 9 to 14) (size 15 to 20)
#    0.000    2.167    0.000    3.000    0.000    9.667 
#    0.000    0.833    0.000    0.000    0.000    0.000 
#    0.000    0.000    0.000    0.000    0.000    0.000 
#
# Total GULP energy -595003.958730 kJ/mol
# GULP energy per Si atom -12395.915807 kJ/mol
# Density = 2.040420 g / cm^3
# Si number density = 20.450748 Si / 1000 Ang^3
#
#
#
# Elastic Constant Matrix: (Units=GPa)
#
#
# Indices 1 2 3 4 5 6 
#
# 1 68.5098 45.1533 40.0504 0.0000 0.0000 0.0000
# 2 45.1533 114.3192 59.6733 0.0000 0.0000 0.0000
# 3 40.0504 59.6733 119.7314 0.0000 0.0000 0.0000
# 4 0.0000 0.0000 0.0000 39.0657 0.0000 0.0000
# 5 0.0000 0.0000 0.0000 0.0000 16.9701 0.0000
# 6 0.0000 0.0000 0.0000 0.0000 0.0000 16.4625
#
#
#
# Elastic Compliance Matrix: (Units=1/GPa)
#
#
# Indices 1 2 3 4 5 6 
#
# 1 0.021004 -0.006256 -0.003908 0.000000 0.000000 0.000000
# 2 -0.006256 0.013687 -0.004729 0.000000 0.000000 0.000000
# 3 -0.003908 -0.004729 0.012016 0.000000 0.000000 0.000000
# 4 0.000000 0.000000 0.000000 0.025598 0.000000 0.000000
# 5 0.000000 0.000000 0.000000 0.000000 0.058927 0.000000
# 6 0.000000 0.000000 0.000000 0.000000 0.000000 0.060744
#
#
# Mechanical properties :
#
#
# Convention : Reuss Voigt Hill
#
# Bulk Modulus (GPa) = 59.09683 65.81272 62.45478
# Shear Modulus (GPa) = 21.98743 25.01189 23.49966
#
# Velocity S-wave (km/s) = 3.28249 3.50098 3.39349
# Velocity P-wave (km/s) = 6.58226 6.97090 6.77937
#
# Compressibility (1/GPa) = 0.01692138
#
# Stress axis : x y z
#
# Youngs Moduli (GPa) = 47.60909 73.06275 83.22255
#
# Poissons Ratio (x) = 0.45711 0.32522
# Poissons Ratio (y) = 0.29786 0.39353
# Poissons Ratio (z) = 0.18605 0.34549
#
# Static dielectric constant tensor:
#      x y z
#    x 3.507230 0.000000 0.000000 
#    y 0.000000 3.716120 0.000000 
#    z 0.000000 0.000000 3.952070 
# 
# 
# High freq. dielectric constant tensor:
#      x y z
#    x 1.770100 0.000000 0.000000 
#    y 0.000000 1.800690 0.000000 
#    z 0.000000 0.000000 1.808770 
# 
# From -- ./inp_files/8649.got.cif
#   From: 2010.03.12/outbox.cif.g09.slc.cpg/sg63_5_cif.got.tgz:8649.got - 2010.04.10 19:34:48.
