data_PCOD8258166
_publ_section_title
;
Structure prediction by ZEFSAII (Michael W. Deem and Ramdas Pophale) SiO2 
 PCOD8258166
Probable space group: C M C M
;
_chemical_formula_sum "Si O2"
_cell_formula_units_Z 84
_cell_length_a 19.510773
_cell_length_b 12.937599
_cell_length_c 17.585663
_cell_angle_alpha 90.000000
_cell_angle_beta 90.000000
_cell_angle_gamma 90.000000
_cell_volume 4439.018025
_symmetry_space_group_name_H-M "C M C M"
_symmetry_group_IT_number 63
_symmetry_cell_setting 'orthorhombic'
loop_
_space_group_symop_operation_xyz
x,y,z
-x,-y,1/2+z
x,-y,-z
-x,y,1/2-z
-x,-y,-z
x,y,1/2-z
-x,y,z
x,-y,1/2+z
1/2+x,1/2+y,z
1/2-x,1/2-y,1/2+z
1/2+x,1/2-y,-z
1/2-x,1/2+y,1/2-z
1/2-x,1/2-y,-z
1/2+x,1/2+y,1/2-z
1/2-x,1/2+y,z
1/2+x,1/2-y,1/2+z
loop_
_atom_site_type_symbol
_atom_site_label
_atom_site_fract_x
_atom_site_fract_y
_atom_site_fract_z
Si Si1 0.651966 0.435540 0.250000
Si Si2 0.276580 0.705815 0.869998
Si Si3 0.500000 0.198935 0.164831
Si Si4 0.144222 0.585662 0.599199
Si Si5 0.802737 0.166661 0.250000
Si Si6 0.126104 0.641721 0.062038
Si Si7 0.080997 0.324598 0.250000
Si Si8 0.000000 0.104754 0.750000
O O1 0.672368 0.367203 0.322455
O O2 0.692745 0.543064 0.250000
O O3 0.570269 0.461315 0.250000
O O4 0.219276 0.634389 0.906767
O O5 0.239689 0.795464 0.822212
O O6 0.319851 0.764311 0.934449
O O7 0.500000 0.147368 0.250000
O O8 0.564614 0.164266 0.117893
O O9 0.500000 0.323024 0.174574
O O10 0.102079 0.628393 0.525765
O O11 0.158291 0.464241 0.593104
O O12 0.102785 0.610740 0.675698
O O13 0.879216 0.215595 0.250000
O O14 0.000000 0.303972 0.250000
#
# Coordination Sequence:
#
# PCOD8258166 Si02
#       8
#     8  16   8  16   8  16   8   4
#     4  11  19  34  61  86 116 150 194 237 272 345
#     4  10  19  38  56  84 119 146 186 237 287 329
#     4  10  22  37  55  87 115 154 182 233 292 327
#     4  10  24  36  58  87 109 155 188 227 291 334
#     4   9  21  34  57  89 111 151 194 228 279 343
#     4  11  22  37  59  86 117 143 191 239 275 346
#     4  10  23  40  55  77 118 156 185 229 280 341
#     4  10  20  36  52  90 108 154 196 222 290 318
#
# _framework density 18.923105
#
# number of rings (size 3 to 8) (size 9 to 14) (size 15 to 20)
#    0.286    1.524    1.905    2.286    6.000    0.762 
#    0.000    0.000    0.000    0.000    0.000    6.667 
#    0.000    0.000    0.000    0.000    0.000    0.000 
#
# Total GULP energy -520572.908893 kJ/mol
# GULP energy per Si atom -12394.593069 kJ/mol
# Density = 1.888003 g / cm^3
# Si number density = 18.923105 Si / 1000 Ang^3
#
#
#
# Elastic Constant Matrix: (Units=GPa)
#
#
# Indices 1 2 3 4 5 6 
#
# 1 109.7820 28.1247 32.6636 0.0000 0.0000 0.0000
# 2 28.1247 98.9749 25.7064 0.0000 0.0000 0.0000
# 3 32.6636 25.7064 110.8869 0.0000 0.0000 0.0000
# 4 0.0000 0.0000 0.0000 39.1681 0.0000 0.0000
# 5 0.0000 0.0000 0.0000 0.0000 4.7661 0.0000
# 6 0.0000 0.0000 0.0000 0.0000 0.0000 25.6289
#
#
#
# Elastic Compliance Matrix: (Units=1/GPa)
#
#
# Indices 1 2 3 4 5 6 
#
# 1 0.010458 -0.002311 -0.002545 0.000000 0.000000 0.000000
# 2 -0.002311 0.011261 -0.001930 0.000000 0.000000 0.000000
# 3 -0.002545 -0.001930 0.010215 0.000000 0.000000 0.000000
# 4 0.000000 0.000000 0.000000 0.025531 0.000000 0.000000
# 5 0.000000 0.000000 0.000000 0.000000 0.209815 0.000000
# 6 0.000000 0.000000 0.000000 0.000000 0.000000 0.039018
#
#
# Mechanical properties :
#
#
# Convention : Reuss Voigt Hill
#
# Bulk Modulus (GPa) = 54.45605 54.73703 54.59654
# Shear Modulus (GPa) = 15.33782 29.45589 22.39685
#
# Velocity S-wave (km/s) = 2.85008 3.94967 3.44404
# Velocity P-wave (km/s) = 6.29846 7.05611 6.68802
#
# Compressibility (1/GPa) = 0.01836343
#
# Stress axis : x y z
#
# Youngs Moduli (GPa) = 95.61919 88.79827 97.89263
#
# Poissons Ratio (x) = 0.20520 0.24913
# Poissons Ratio (y) = 0.22096 0.18893
# Poissons Ratio (z) = 0.24334 0.17138
#
# Static dielectric constant tensor:
#      x y z
#    x 3.604790 0.000000 0.000000 
#    y 0.000000 3.407770 0.000000 
#    z 0.000000 0.000000 4.177270 
# 
# 
# High freq. dielectric constant tensor:
#      x y z
#    x 1.735660 0.000000 0.000000 
#    y 0.000000 1.732540 0.000000 
#    z 0.000000 0.000000 1.734350 
# 
# From -- ./inp_files/46898.got.cif
#   From: 2010.03.12/outbox.cif.g09.slc.cpg/sg63_24_cif.got.tgz:46898.got - 2010.04.10 19:34:48.
