data_PCOD8258085
_publ_section_title
;
Structure prediction by ZEFSAII (Michael W. Deem and Ramdas Pophale) SiO2 
 PCOD8258085
Probable space group: C M C M
;
_chemical_formula_sum "Si O2"
_cell_formula_units_Z 112
_cell_length_a 22.862274
_cell_length_b 13.054986
_cell_length_c 19.668697
_cell_angle_alpha 90.000000
_cell_angle_beta 90.000000
_cell_angle_gamma 90.000000
_cell_volume 5870.450438
_symmetry_space_group_name_H-M "C M C M"
_symmetry_group_IT_number 63
_symmetry_cell_setting 'orthorhombic'
loop_
_space_group_symop_operation_xyz
x,y,z
-x,-y,1/2+z
x,-y,-z
-x,y,1/2-z
-x,-y,-z
x,y,1/2-z
-x,y,z
x,-y,1/2+z
1/2+x,1/2+y,z
1/2-x,1/2-y,1/2+z
1/2+x,1/2-y,-z
1/2-x,1/2+y,1/2-z
1/2-x,1/2-y,-z
1/2+x,1/2+y,1/2-z
1/2-x,1/2+y,z
1/2+x,1/2-y,1/2+z
loop_
_atom_site_type_symbol
_atom_site_label
_atom_site_fract_x
_atom_site_fract_y
_atom_site_fract_z
Si Si1 0.851415 0.873875 0.827199
Si Si2 0.762191 0.254287 0.398687
Si Si3 0.180863 0.906393 0.174827
Si Si4 0.063852 0.803350 0.174228
Si Si5 0.934868 0.695444 0.040406
Si Si6 0.932342 0.097953 0.042927
Si Si7 0.813614 0.384362 0.515781
O O1 0.877659 0.863392 0.750000
O O2 0.808237 0.778614 0.840919
O O3 0.900938 0.882869 0.884826
O O4 0.809472 0.972944 0.831810
O O5 0.720873 0.346442 0.376893
O O6 0.800281 0.299949 0.459173
O O7 0.722176 0.156152 0.418664
O O8 0.196522 0.866428 0.250000
O O9 0.112147 0.889044 0.158936
O O10 0.071507 0.756908 0.250000
O O11 0.068877 0.710244 0.121640
O O12 0.000000 0.856766 0.166142
O O13 0.884158 0.614195 0.023685
O O14 0.000000 0.654080 0.020218
O O15 0.922509 0.803426 0.004134
O O16 0.000000 0.079744 0.059872
O O17 0.907573 0.000000 0.000000
O O18 0.793031 0.500000 0.500000
#
# Coordination Sequence:
#
# PCOD8258085 Si02
#       7
#    16  16  16  16  16  16  16
#     4  11  23  37  58  86 118 156 195 236 286 351
#     4  11  22  39  55  78 116 155 185 238 285 339
#     4  10  20  34  55  81 109 145 189 231 279 338
#     4   9  17  31  54  83 113 143 178 228 287 338
#     4  10  19  36  57  82 112 145 184 232 288 336
#     4  10  21  36  59  88 120 153 189 236 292 353
#     4  11  23  37  58  85 108 146 196 238 280 337
#
# _framework density 19.078603999999999
#
# number of rings (size 3 to 8) (size 9 to 14) (size 15 to 20)
#    0.000    1.714    2.857    2.143    0.000    2.857 
#    0.000    1.429    0.000    0.857    0.000    0.000 
#    0.000    0.000    0.000    0.000    0.000    0.000 
#
# Total GULP energy -694032.506903 kJ/mol
# GULP energy per Si atom -12393.437623 kJ/mol
# Density = 1.903518 g / cm^3
# Si number density = 19.078604 Si / 1000 Ang^3
#
#
#
# Elastic Constant Matrix: (Units=GPa)
#
#
# Indices 1 2 3 4 5 6 
#
# 1 93.9078 20.5258 40.7192 0.0000 0.0000 0.0000
# 2 20.5258 50.6633 11.8053 0.0000 0.0000 0.0000
# 3 40.7192 11.8053 99.5206 0.0000 0.0000 0.0000
# 4 0.0000 0.0000 0.0000 23.1604 0.0000 0.0000
# 5 0.0000 0.0000 0.0000 0.0000 24.8084 0.0000
# 6 0.0000 0.0000 0.0000 0.0000 0.0000 17.0512
#
#
#
# Elastic Compliance Matrix: (Units=1/GPa)
#
#
# Indices 1 2 3 4 5 6 
#
# 1 0.013841 -0.004410 -0.005140 0.000000 0.000000 0.000000
# 2 -0.004410 0.021704 -0.000770 0.000000 0.000000 0.000000
# 3 -0.005140 -0.000770 0.012243 0.000000 0.000000 0.000000
# 4 0.000000 0.000000 0.000000 0.043177 0.000000 0.000000
# 5 0.000000 0.000000 0.000000 0.000000 0.040309 0.000000
# 6 0.000000 0.000000 0.000000 0.000000 0.000000 0.058647
#
#
# Mechanical properties :
#
#
# Convention : Reuss Voigt Hill
#
# Bulk Modulus (GPa) = 36.83567 43.35472 40.09519
# Shear Modulus (GPa) = 22.76750 24.40677 23.58713
#
# Velocity S-wave (km/s) = 3.45824 3.58057 3.51994
# Velocity P-wave (km/s) = 5.94097 6.31408 6.13037
#
# Compressibility (1/GPa) = 0.02714760
#
# Stress axis : x y z
#
# Youngs Moduli (GPa) = 72.24668 46.07380 81.68168
#
# Poissons Ratio (x) = 0.20319 0.41986
# Poissons Ratio (y) = 0.31861 0.06291
# Poissons Ratio (z) = 0.37136 0.03549
#
# Static dielectric constant tensor:
#      x y z
#    x 3.556290 0.000000 0.000000 
#    y 0.000000 3.128600 0.000000 
#    z 0.000000 0.000000 3.653800 
# 
# 
# High freq. dielectric constant tensor:
#      x y z
#    x 1.745940 0.000000 0.000000 
#    y 0.000000 1.709920 0.000000 
#    z 0.000000 0.000000 1.749050 
# 
# From -- ./inp_files/57620.got.cif
#   From: 2010.03.12/outbox.cif.g09.slc.cpg/sg63_29_cif.got.tgz:57620.got - 2010.04.10 19:34:48.
