data_PCOD8258181
_publ_section_title
;
Structure prediction by ZEFSAII (Michael W. Deem and Ramdas Pophale) SiO2 
 PCOD8258181
Probable space group: C M C M
;
_chemical_formula_sum "Si O2"
_cell_formula_units_Z 80
_cell_length_a 25.349419
_cell_length_b 5.258108
_cell_length_c 25.377402
_cell_angle_alpha 90.000000
_cell_angle_beta 90.000000
_cell_angle_gamma 90.000000
_cell_volume 3382.553477
_symmetry_space_group_name_H-M "C M C M"
_symmetry_group_IT_number 63
_symmetry_cell_setting 'orthorhombic'
loop_
_space_group_symop_operation_xyz
x,y,z
-x,-y,1/2+z
x,-y,-z
-x,y,1/2-z
-x,-y,-z
x,y,1/2-z
-x,y,z
x,-y,1/2+z
1/2+x,1/2+y,z
1/2-x,1/2-y,1/2+z
1/2+x,1/2-y,-z
1/2-x,1/2+y,1/2-z
1/2-x,1/2-y,-z
1/2+x,1/2+y,1/2-z
1/2-x,1/2+y,z
1/2+x,1/2-y,1/2+z
loop_
_atom_site_type_symbol
_atom_site_label
_atom_site_fract_x
_atom_site_fract_y
_atom_site_fract_z
Si Si1 0.187637 0.496124 0.897646
Si Si2 0.698297 0.500482 0.559443
Si Si3 0.938084 0.752619 0.972526
Si Si4 0.612874 0.869558 0.810579
Si Si5 0.439524 0.646910 0.351445
O O1 0.251049 0.508348 0.901490
O O2 0.164930 0.255022 0.930242
O O3 0.167238 0.465707 0.838047
O O4 0.163881 0.752307 0.925155
O O5 0.719520 0.500000 0.500000
O O6 0.927395 0.758693 0.910381
O O7 0.000000 0.763279 0.984919
O O8 0.914396 0.500000 0.000000
O O9 0.910394 0.000000 0.000000
O O10 0.625181 0.814298 0.750000
O O11 0.593139 0.605651 0.836350
O O12 0.572339 0.105617 0.815482
O O13 0.500000 0.568930 0.343582
#
# Coordination Sequence:
#
# PCOD8258181 Si02
#       5
#    16  16  16  16  16
#     4  10  20  37  60  91 126 161 196 243 309 370
#     4  10  19  38  67  96 131 161 193 241 297 379
#     4   9  17  33  57  83 112 143 179 233 304 375
#     4  12  26  43  61  87 125 163 215 279 319 357
#     4  11  24  43  66  89 118 164 219 269 320 376
#
# _framework density 23.650772
#
# number of rings (size 3 to 8) (size 9 to 14) (size 15 to 20)
#    0.000    1.600    0.000    6.600    0.000    5.600 
#    0.000   17.000    0.000    0.000    0.000    0.000 
#    0.000    0.000    0.000    0.000    0.000    0.000 
#
# Total GULP energy -495758.637397 kJ/mol
# GULP energy per Si atom -12393.965935 kJ/mol
# Density = 2.359694 g / cm^3
# Si number density = 23.650772 Si / 1000 Ang^3
#
#
#
# Elastic Constant Matrix: (Units=GPa)
#
#
# Indices 1 2 3 4 5 6 
#
# 1 50.3298 6.8170 19.9730 0.0000 0.0000 0.0000
# 2 6.8170 224.8885 50.4872 0.0000 0.0000 0.0000
# 3 19.9730 50.4872 138.5028 0.0000 0.0000 0.0000
# 4 0.0000 0.0000 0.0000 37.7859 0.0000 0.0000
# 5 0.0000 0.0000 0.0000 0.0000 43.9753 0.0000
# 6 0.0000 0.0000 0.0000 0.0000 0.0000 25.7619
#
#
#
# Elastic Compliance Matrix: (Units=1/GPa)
#
#
# Indices 1 2 3 4 5 6 
#
# 1 0.021075 0.000047 -0.003056 0.000000 0.000000 0.000000
# 2 0.000047 0.004843 -0.001772 0.000000 0.000000 0.000000
# 3 -0.003056 -0.001772 0.008307 0.000000 0.000000 0.000000
# 4 0.000000 0.000000 0.000000 0.026465 0.000000 0.000000
# 5 0.000000 0.000000 0.000000 0.000000 0.022740 0.000000
# 6 0.000000 0.000000 0.000000 0.000000 0.000000 0.038817
#
#
# Mechanical properties :
#
#
# Convention : Reuss Voigt Hill
#
# Bulk Modulus (GPa) = 40.54716 63.14173 51.84444
# Shear Modulus (GPa) = 35.70637 43.93420 39.82029
#
# Velocity S-wave (km/s) = 3.88974 4.31469 4.10772
# Velocity P-wave (km/s) = 6.11186 7.18175 6.66830
#
# Compressibility (1/GPa) = 0.02466264
#
# Stress axis : x y z
#
# Youngs Moduli (GPa) = 47.44849 206.48034 120.38261
#
# Poissons Ratio (x) = -0.00977 0.36795
# Poissons Ratio (y) = -0.00225 0.21335
# Poissons Ratio (z) = 0.14503 0.36593
#
# Static dielectric constant tensor:
#      x y z
#    x 4.021560 0.000000 0.000000 
#    y 0.000000 5.735770 0.000000 
#    z 0.000000 0.000000 3.970300 
# 
# 
# High freq. dielectric constant tensor:
#      x y z
#    x 1.935300 0.000000 0.000000 
#    y 0.000000 1.977440 0.000000 
#    z 0.000000 0.000000 1.909140 
# 
# From -- ./inp_files/65632.got.cif
#   From: 2010.03.12/outbox.cif.g09.slc.cpg/sg63_33_cif.got.tgz:65632.got - 2010.04.10 19:34:48.
