data_PCOD8258400
_publ_section_title
;
Structure prediction by ZEFSAII (Michael W. Deem and Ramdas Pophale) SiO2 
 PCOD8258400
Probable space group: C M C M
;
_chemical_formula_sum "Si O2"
_cell_formula_units_Z 96
_cell_length_a 23.995730
_cell_length_b 9.814591
_cell_length_c 22.016326
_cell_angle_alpha 90.000000
_cell_angle_beta 90.000000
_cell_angle_gamma 90.000000
_cell_volume 5185.026973
_symmetry_space_group_name_H-M "C M C M"
_symmetry_group_IT_number 63
_symmetry_cell_setting 'orthorhombic'
loop_
_space_group_symop_operation_xyz
x,y,z
-x,-y,1/2+z
x,-y,-z
-x,y,1/2-z
-x,-y,-z
x,y,1/2-z
-x,y,z
x,-y,1/2+z
1/2+x,1/2+y,z
1/2-x,1/2-y,1/2+z
1/2+x,1/2-y,-z
1/2-x,1/2+y,1/2-z
1/2-x,1/2-y,-z
1/2+x,1/2+y,1/2-z
1/2-x,1/2+y,z
1/2+x,1/2-y,1/2+z
loop_
_atom_site_type_symbol
_atom_site_label
_atom_site_fract_x
_atom_site_fract_y
_atom_site_fract_z
Si Si1 0.780738 0.280239 0.750000
Si Si2 0.694901 0.938921 0.250000
Si Si3 0.653077 0.273546 0.370762
Si Si4 0.747262 0.623189 0.543173
Si Si5 0.065665 0.719189 0.819640
Si Si6 0.146580 0.465476 0.379559
Si Si7 0.064250 0.032071 0.679746
O O1 0.722340 0.206704 0.750000
O O2 0.760405 0.437143 0.750000
O O3 0.817631 0.243718 0.807018
O O4 0.659206 0.959949 0.309040
O O5 0.696481 0.356497 0.411312
O O6 0.598312 0.365487 0.363509
O O7 0.637043 0.124034 0.398814
O O8 0.732088 0.500000 0.500000
O O9 0.750000 0.750000 0.500000
O O10 0.805539 0.600154 0.578627
O O11 0.085962 0.682771 0.750000
O O12 0.091064 0.628559 0.875773
O O13 0.000000 0.697808 0.822469
O O14 0.081877 0.876099 0.832933
O O15 0.074900 0.068701 0.750000
O O16 0.000000 0.054028 0.662935
#
# Coordination Sequence:
#
# PCOD8258400 Si02
#       7
#     8   8  16  16  16  16  16
#     4  10  20  32  51  84 115 145 182 230 296 347
#     4  10  20  32  51  84 115 145 182 232 294 349
#     4  11  22  37  58  85 119 152 192 241 291 350
#     4  12  26  43  58  83 116 158 205 245 290 340
#     4   9  19  35  57  89 124 155 187 229 291 357
#     4  11  22  37  58  85 119 152 193 240 292 353
#     4   9  19  35  57  89 124 155 188 230 289 356
#
# _framework density 18.514849999999999
#
# number of rings (size 3 to 8) (size 9 to 14) (size 15 to 20)
#    0.000    1.667    5.000    1.000    2.333    2.000 
#    0.000    1.667    0.000    2.000    0.000    0.000 
#    0.000    0.000    0.000    0.000    0.000    0.000 
#
# Total GULP energy -594707.244287 kJ/mol
# GULP energy per Si atom -12389.734256 kJ/mol
# Density = 1.847271 g / cm^3
# Si number density = 18.514850 Si / 1000 Ang^3
#
#
#
# Elastic Constant Matrix: (Units=GPa)
#
#
# Indices 1 2 3 4 5 6 
#
# 1 80.2467 52.1766 35.0928 0.0000 0.0000 0.0000
# 2 52.1766 120.8653 43.5827 0.0000 0.0000 0.0000
# 3 35.0928 43.5827 78.7438 0.0000 0.0000 0.0000
# 4 0.0000 0.0000 0.0000 -73.2725 0.0000 0.0000
# 5 0.0000 0.0000 0.0000 0.0000 -9.1403 0.0000
# 6 0.0000 0.0000 0.0000 0.0000 0.0000 36.0290
#
#
#
# Elastic Compliance Matrix: (Units=1/GPa)
#
#
# Indices 1 2 3 4 5 6 
#
# 1 0.018685 -0.006326 -0.004826 0.000000 0.000000 0.000000
# 2 -0.006326 0.012478 -0.004087 0.000000 0.000000 0.000000
# 3 -0.004826 -0.004087 0.017112 0.000000 0.000000 0.000000
# 4 0.000000 0.000000 0.000000 -0.013648 0.000000 0.000000
# 5 0.000000 0.000000 0.000000 0.000000 -0.109406 0.000000
# 6 0.000000 0.000000 0.000000 0.000000 0.000000 0.027755
#
#
# Mechanical properties :
#
#
# Convention : Reuss Voigt Hill
#
# Bulk Modulus (GPa) = 56.18759 60.17333 58.18046
# Shear Modulus (GPa) = -471.20471 0.65682 -235.27395
#
# Velocity S-wave (km/s) = -15.97039 0.59626 -11.28490
# Velocity P-wave (km/s) = 17.59710 5.74845 11.76039
#
# Compressibility (1/GPa) = 0.01779753
#
# Stress axis : x y z
#
# Youngs Moduli (GPa) = 53.51814 80.13848 58.43760
#
# Poissons Ratio (x) = 0.50697 0.28201
# Poissons Ratio (y) = 0.33856 0.23885
# Poissons Ratio (z) = 0.25827 0.32754
#
# Static dielectric constant tensor:
#      x y z
#    x 3.323300 0.000000 0.000000 
#    y 0.000000 4.040590 0.000000 
#    z 0.000000 0.000000 3.160300 
# 
# 
# High freq. dielectric constant tensor:
#      x y z
#    x 1.708930 0.000000 0.000000 
#    y 0.000000 1.737810 0.000000 
#    z 0.000000 0.000000 1.696530 
# 
# From -- ./inp_files/65000.got.cif
#   From: 2010.03.12/outbox.cif.g09.slc.cpg/sg63_33_cif.got.tgz:65000.got - 2010.04.10 19:34:48.
