data_PCOD8258303
_publ_section_title
;
Structure prediction by ZEFSAII (Michael W. Deem and Ramdas Pophale) SiO2 
 PCOD8258303
Probable space group: C M C M
;
_chemical_formula_sum "Si O2"
_cell_formula_units_Z 112
_cell_length_a 14.707701
_cell_length_b 17.350648
_cell_length_c 25.091689
_cell_angle_alpha 90.000000
_cell_angle_beta 90.000000
_cell_angle_gamma 90.000000
_cell_volume 6403.101519
_symmetry_space_group_name_H-M "C M C M"
_symmetry_group_IT_number 63
_symmetry_cell_setting 'orthorhombic'
loop_
_space_group_symop_operation_xyz
x,y,z
-x,-y,1/2+z
x,-y,-z
-x,y,1/2-z
-x,-y,-z
x,y,1/2-z
-x,y,z
x,-y,1/2+z
1/2+x,1/2+y,z
1/2-x,1/2-y,1/2+z
1/2+x,1/2-y,-z
1/2-x,1/2+y,1/2-z
1/2-x,1/2-y,-z
1/2+x,1/2+y,1/2-z
1/2-x,1/2+y,z
1/2+x,1/2-y,1/2+z
loop_
_atom_site_type_symbol
_atom_site_label
_atom_site_fract_x
_atom_site_fract_y
_atom_site_fract_z
Si Si1 0.394610 0.518176 0.888759
Si Si2 0.894384 0.845289 0.917556
Si Si3 0.723475 0.610467 0.686815
Si Si4 0.103255 0.361420 0.809792
Si Si5 0.096143 0.541780 0.811365
Si Si6 0.896009 0.836360 0.457154
Si Si7 0.778727 0.741198 0.379475
O O1 0.500000 0.516193 0.876405
O O2 0.362432 0.431924 0.903081
O O3 0.348716 0.548949 0.834918
O O4 0.371836 0.577436 0.936771
O O5 0.826001 0.784225 0.889596
O O6 0.000000 0.829865 0.900354
O O7 0.883290 0.834786 0.980164
O O8 0.717658 0.606641 0.750000
O O9 0.820995 0.586645 0.661845
O O10 0.708653 0.696550 0.667182
O O11 0.135973 0.337989 0.750000
O O12 0.110507 0.451840 0.816714
O O13 0.166435 0.330780 0.856767
O O14 0.000000 0.332413 0.818003
O O15 0.092708 0.565846 0.750000
O O16 0.000000 0.565877 0.838599
O O17 0.826697 0.773633 0.432730
O O18 0.000000 0.815571 0.441144
#
# Coordination Sequence:
#
# PCOD8258303 Si02
#       7
#    16  16  16  16  16  16  16
#     4   9  18  33  53  74  94 123 164 204 244 289
#     4  10  20  34  51  71  98 131 165 202 243 289
#     4  10  20  32  47  69  97 127 157 193 237 285
#     4   9  17  30  49  71  93 119 154 198 244 285
#     4   8  15  29  47  63  82 116 160 196 224 263
#     4   9  18  33  52  73  96 124 162 207 250 290
#     4  11  20  30  47  73 102 129 157 193 243 300
#
# _framework density 17.491522
#
# number of rings (size 3 to 8) (size 9 to 14) (size 15 to 20)
#    0.000    2.571    0.000    3.429    0.000    3.143 
#    0.000    0.714    0.000    3.000    0.000    0.000 
#    0.000   20.571    0.000    0.000    0.000    0.000 
#
# Total GULP energy -694016.261931 kJ/mol
# GULP energy per Si atom -12393.147534 kJ/mol
# Density = 1.745171 g / cm^3
# Si number density = 17.491522 Si / 1000 Ang^3
#
#
#
# Elastic Constant Matrix: (Units=GPa)
#
#
# Indices 1 2 3 4 5 6 
#
# 1 68.9577 21.3148 20.6841 0.0000 0.0000 0.0000
# 2 21.3148 26.2677 8.1783 0.0000 0.0000 0.0000
# 3 20.6841 8.1783 58.0189 0.0000 0.0000 0.0000
# 4 0.0000 0.0000 0.0000 11.4229 0.0000 0.0000
# 5 0.0000 0.0000 0.0000 0.0000 22.8322 0.0000
# 6 0.0000 0.0000 0.0000 0.0000 0.0000 38.7236
#
#
#
# Elastic Compliance Matrix: (Units=1/GPa)
#
#
# Indices 1 2 3 4 5 6 
#
# 1 0.020788 -0.015229 -0.005264 0.000000 0.000000 0.000000
# 2 -0.015229 0.050974 -0.001756 0.000000 0.000000 0.000000
# 3 -0.005264 -0.001756 0.019360 0.000000 0.000000 0.000000
# 4 0.000000 0.000000 0.000000 0.087543 0.000000 0.000000
# 5 0.000000 0.000000 0.000000 0.000000 0.043798 0.000000
# 6 0.000000 0.000000 0.000000 0.000000 0.000000 0.025824
#
#
# Mechanical properties :
#
#
# Convention : Reuss Voigt Hill
#
# Bulk Modulus (GPa) = 21.44867 28.17764 24.81316
# Shear Modulus (GPa) = 16.21653 21.46690 18.84171
#
# Velocity S-wave (km/s) = 3.04815 3.50705 3.28562
# Velocity P-wave (km/s) = 4.96762 5.70469 5.34886
#
# Compressibility (1/GPa) = 0.04662293
#
# Stress axis : x y z
#
# Youngs Moduli (GPa) = 48.10438 19.61783 51.65272
#
# Poissons Ratio (x) = 0.29877 0.27192
# Poissons Ratio (y) = 0.73260 0.09069
# Poissons Ratio (z) = 0.25324 0.03445
#
# Static dielectric constant tensor:
#      x y z
#    x 3.558610 0.000000 0.000000 
#    y 0.000000 3.213050 0.000000 
#    z 0.000000 0.000000 3.035540 
# 
# 
# High freq. dielectric constant tensor:
#      x y z
#    x 1.683860 0.000000 0.000000 
#    y 0.000000 1.673430 0.000000 
#    z 0.000000 0.000000 1.656180 
# 
# From -- ./inp_files/62955.got.cif
#   From: 2010.03.12/outbox.cif.g09.slc.cpg/sg63_32_cif.got.tgz:62955.got - 2010.04.10 19:34:48.
