data_PCOD8258037
_publ_section_title
;
Structure prediction by ZEFSAII (Michael W. Deem and Ramdas Pophale) SiO2 
 PCOD8258037
Probable space group: C M C M
;
_chemical_formula_sum "Si O2"
_cell_formula_units_Z 112
_cell_length_a 18.568124
_cell_length_b 17.232506
_cell_length_c 17.259391
_cell_angle_alpha 90.000000
_cell_angle_beta 90.000000
_cell_angle_gamma 90.000000
_cell_volume 5522.578955
_symmetry_space_group_name_H-M "C M C M"
_symmetry_group_IT_number 63
_symmetry_cell_setting 'orthorhombic'
loop_
_space_group_symop_operation_xyz
x,y,z
-x,-y,1/2+z
x,-y,-z
-x,y,1/2-z
-x,-y,-z
x,y,1/2-z
-x,y,z
x,-y,1/2+z
1/2+x,1/2+y,z
1/2-x,1/2-y,1/2+z
1/2+x,1/2-y,-z
1/2-x,1/2+y,1/2-z
1/2-x,1/2-y,-z
1/2+x,1/2+y,1/2-z
1/2-x,1/2+y,z
1/2+x,1/2-y,1/2+z
loop_
_atom_site_type_symbol
_atom_site_label
_atom_site_fract_x
_atom_site_fract_y
_atom_site_fract_z
Si Si1 0.670685 0.862654 0.097887
Si Si2 0.307255 0.868483 0.581474
Si Si3 0.919481 0.509111 0.408431
Si Si4 0.689753 0.704273 0.838876
Si Si5 0.331913 0.428486 0.840333
Si Si6 0.580577 0.575854 0.841871
Si Si7 0.083210 0.772829 0.661188
O O1 0.627545 0.938661 0.126644
O O2 0.740038 0.849898 0.152009
O O3 0.617423 0.789744 0.103948
O O4 0.698100 0.870396 0.010626
O O5 0.303575 0.780479 0.609561
O O6 0.241625 0.919578 0.612918
O O7 0.380844 0.909197 0.611150
O O8 0.924827 0.500000 0.500000
O O9 0.000000 0.509089 0.372070
O O10 0.683885 0.730481 0.750000
O O11 0.619795 0.655870 0.865438
O O12 0.313141 0.437650 0.750000
O O13 0.373991 0.503099 0.873904
O O14 0.382360 0.355449 0.855884
O O15 0.576447 0.567988 0.750000
O O16 0.500000 0.576131 0.877400
O O17 0.096580 0.747424 0.750000
O O18 0.000000 0.779755 0.641246
#
# Coordination Sequence:
#
# PCOD8258037 Si02
#       7
#    16  16  16  16  16  16  16
#     4  11  21  37  60  85 115 152 192 238 287 347
#     4  11  22  36  60  86 114 152 193 237 287 348
#     4   9  20  38  58  83 114 151 191 236 290 343
#     4  11  22  37  58  83 115 151 192 238 285 343
#     4  10  19  35  59  85 115 148 191 241 287 340
#     4   9  19  36  58  82 110 150 193 234 286 344
#     4  10  20  34  57  87 117 148 184 235 292 342
#
# _framework density 20.280379
#
# number of rings (size 3 to 8) (size 9 to 14) (size 15 to 20)
#    0.000    1.857    1.429    3.000    0.000    2.857 
#    0.000    2.143    0.000    5.571    0.000    0.000 
#    0.000    0.000    0.000    0.000    0.000    0.000 
#
# Total GULP energy -694534.881860 kJ/mol
# GULP energy per Si atom -12402.408605 kJ/mol
# Density = 2.023422 g / cm^3
# Si number density = 20.280379 Si / 1000 Ang^3
#
#
#
# Elastic Constant Matrix: (Units=GPa)
#
#
# Indices 1 2 3 4 5 6 
#
# 1 155.4249 53.0116 20.4387 0.0000 0.0000 0.0000
# 2 53.0116 90.0687 8.3836 0.0000 0.0000 0.0000
# 3 20.4387 8.3836 28.6376 0.0000 0.0000 0.0000
# 4 0.0000 0.0000 0.0000 12.4007 0.0000 0.0000
# 5 0.0000 0.0000 0.0000 0.0000 15.2776 0.0000
# 6 0.0000 0.0000 0.0000 0.0000 0.0000 38.0191
#
#
#
# Elastic Compliance Matrix: (Units=1/GPa)
#
#
# Indices 1 2 3 4 5 6 
#
# 1 0.008651 -0.004643 -0.004815 0.000000 0.000000 0.000000
# 2 -0.004643 0.013906 -0.000757 0.000000 0.000000 0.000000
# 3 -0.004815 -0.000757 0.038577 0.000000 0.000000 0.000000
# 4 0.000000 0.000000 0.000000 0.080641 0.000000 0.000000
# 5 0.000000 0.000000 0.000000 0.000000 0.065455 0.000000
# 6 0.000000 0.000000 0.000000 0.000000 0.000000 0.026303
#
#
# Mechanical properties :
#
#
# Convention : Reuss Voigt Hill
#
# Bulk Modulus (GPa) = 24.56781 48.64435 36.60608
# Shear Modulus (GPa) = 18.68942 25.95928 22.32435
#
# Velocity S-wave (km/s) = 3.03900 3.58162 3.32141
# Velocity P-wave (km/s) = 4.94514 6.41420 5.72697
#
# Compressibility (1/GPa) = 0.04070368
#
# Stress axis : x y z
#
# Youngs Moduli (GPa) = 115.59465 71.91083 25.92212
#
# Poissons Ratio (x) = 0.33392 0.12481
# Poissons Ratio (y) = 0.53676 0.01962
# Poissons Ratio (z) = 0.55657 0.05443
#
# Static dielectric constant tensor:
#      x y z
#    x 4.026340 0.000000 0.000000 
#    y 0.000000 3.758880 0.000000 
#    z 0.000000 0.000000 3.402800 
# 
# 
# High freq. dielectric constant tensor:
#      x y z
#    x 1.807280 0.000000 0.000000 
#    y 0.000000 1.802870 0.000000 
#    z 0.000000 0.000000 1.758210 
# 
# From -- ./inp_files/55808.got.cif
#   From: 2010.03.12/outbox.cif.g09.slc.cpg/sg63_28_cif.got.tgz:55808.got - 2010.04.10 19:34:48.
