data_PCOD8258422
_publ_section_title
;
Structure prediction by ZEFSAII (Michael W. Deem and Ramdas Pophale) SiO2 
 PCOD8258422
Probable space group: C M C M
;
_chemical_formula_sum "Si O2"
_cell_formula_units_Z 112
_cell_length_a 15.970672
_cell_length_b 30.361358
_cell_length_c 14.357705
_cell_angle_alpha 90.000000
_cell_angle_beta 90.000000
_cell_angle_gamma 90.000000
_cell_volume 6961.926100
_symmetry_space_group_name_H-M "C M C M"
_symmetry_group_IT_number 63
_symmetry_cell_setting 'orthorhombic'
loop_
_space_group_symop_operation_xyz
x,y,z
-x,-y,1/2+z
x,-y,-z
-x,y,1/2-z
-x,-y,-z
x,y,1/2-z
-x,y,z
x,-y,1/2+z
1/2+x,1/2+y,z
1/2-x,1/2-y,1/2+z
1/2+x,1/2-y,-z
1/2-x,1/2+y,1/2-z
1/2-x,1/2-y,-z
1/2+x,1/2+y,1/2-z
1/2-x,1/2+y,z
1/2+x,1/2-y,1/2+z
loop_
_atom_site_type_symbol
_atom_site_label
_atom_site_fract_x
_atom_site_fract_y
_atom_site_fract_z
Si Si1 0.407860 0.798815 0.967366
Si Si2 0.901710 0.380583 0.853947
Si Si3 0.190161 0.693236 0.851438
Si Si4 0.595083 0.948231 0.011122
Si Si5 0.591919 0.382680 0.139524
Si Si6 0.231269 0.591407 0.855761
Si Si7 0.623873 0.285830 0.354783
O O1 0.500000 0.816378 0.991444
O O2 0.363092 0.837464 0.906461
O O3 0.415665 0.753414 0.912759
O O4 0.365120 0.788714 0.065343
O O5 0.861738 0.385170 0.750000
O O6 0.000000 0.373860 0.842105
O O7 0.881552 0.424280 0.913941
O O8 0.148314 0.702525 0.750000
O O9 0.204295 0.641629 0.862376
O O10 0.276635 0.719397 0.856798
O O11 0.500000 0.934369 0.042127
O O12 0.664960 0.936791 0.086888
O O13 0.599079 0.000000 0.000000
O O14 0.603191 0.379143 0.250000
O O15 0.500000 0.403020 0.112656
O O16 0.671912 0.411777 0.104418
O O17 0.596405 0.332702 0.100632
O O18 0.227824 0.573871 0.750000
O O19 0.589154 0.281951 0.250000
#
# Coordination Sequence:
#
# PCOD8258422 Si02
#       7
#    16  16  16  16  16  16  16
#     4  11  19  27  43  64  88 120 152 183 221 266
#     4   9  18  31  44  61  87 116 148 188 228 263
#     4   9  18  31  44  61  89 120 148 185 225 263
#     4  10  20  33  48  66  90 121 154 189 229 273
#     4   8  14  26  45  69  95 119 146 184 227 267
#     4   9  17  30  48  69  92 119 150 185 225 271
#     4   9  17  28  43  65  90 117 151 186 222 264
#
# _framework density 16.087502000000001
#
# number of rings (size 3 to 8) (size 9 to 14) (size 15 to 20)
#    0.000    2.714    1.429    3.000    0.000    2.571 
#    0.000    2.857    0.000    0.429    0.000    0.000 
#    0.000    0.571    0.000    0.000    0.000    0.000 
#
# Total GULP energy -693830.667439 kJ/mol
# GULP energy per Si atom -12389.833347 kJ/mol
# Density = 1.605089 g / cm^3
# Si number density = 16.087502 Si / 1000 Ang^3
#
#
#
# Elastic Constant Matrix: (Units=GPa)
#
#
# Indices 1 2 3 4 5 6 
#
# 1 96.1365 30.2589 46.5235 0.0000 0.0000 0.0000
# 2 30.2589 52.4300 22.1624 0.0000 0.0000 0.0000
# 3 46.5235 22.1624 86.6468 0.0000 0.0000 0.0000
# 4 0.0000 0.0000 0.0000 17.4443 0.0000 0.0000
# 5 0.0000 0.0000 0.0000 0.0000 16.8965 0.0000
# 6 0.0000 0.0000 0.0000 0.0000 0.0000 17.1181
#
#
#
# Elastic Compliance Matrix: (Units=1/GPa)
#
#
# Indices 1 2 3 4 5 6 
#
# 1 0.015638 -0.006140 -0.006826 0.000000 0.000000 0.000000
# 2 -0.006140 0.023796 -0.002790 0.000000 0.000000 0.000000
# 3 -0.006826 -0.002790 0.015920 0.000000 0.000000 0.000000
# 4 0.000000 0.000000 0.000000 0.057325 0.000000 0.000000
# 5 0.000000 0.000000 0.000000 0.000000 0.059184 0.000000
# 6 0.000000 0.000000 0.000000 0.000000 0.000000 0.058418
#
#
# Mechanical properties :
#
#
# Convention : Reuss Voigt Hill
#
# Bulk Modulus (GPa) = 41.94241 48.12254 45.03247
# Shear Modulus (GPa) = 18.53650 19.37635 18.95643
#
# Velocity S-wave (km/s) = 3.39813 3.47426 3.43641
# Velocity P-wave (km/s) = 6.44395 6.78763 6.61802
#
# Compressibility (1/GPa) = 0.02384222
#
# Stress axis : x y z
#
# Youngs Moduli (GPa) = 63.94842 42.02450 62.81495
#
# Poissons Ratio (x) = 0.25801 0.42877
# Poissons Ratio (y) = 0.39261 0.17525
# Poissons Ratio (z) = 0.43651 0.11724
#
# Static dielectric constant tensor:
#      x y z
#    x 3.187600 0.000000 0.000000 
#    y 0.000000 2.806400 0.000000 
#    z 0.000000 0.000000 3.071390 
# 
# 
# High freq. dielectric constant tensor:
#      x y z
#    x 1.609220 0.000000 0.000000 
#    y 0.000000 1.593890 0.000000 
#    z 0.000000 0.000000 1.601550 
# 
# From -- ./inp_files/32739.got.cif
#   From: 2010.03.12/outbox.cif.g09.slc.cpg/sg63_17_cif.got.tgz:32739.got - 2010.04.10 19:34:48.
