data_PCOD8258353
_publ_section_title
;
Structure prediction by ZEFSAII (Michael W. Deem and Ramdas Pophale) SiO2 
 PCOD8258353
Probable space group: C M C M
;
_chemical_formula_sum "Si O2"
_cell_formula_units_Z 72
_cell_length_a 15.181272
_cell_length_b 28.771375
_cell_length_c 9.319770
_cell_angle_alpha 90.000000
_cell_angle_beta 90.000000
_cell_angle_gamma 90.000000
_cell_volume 4070.745709
_symmetry_space_group_name_H-M "C M C M"
_symmetry_group_IT_number 63
_symmetry_cell_setting 'orthorhombic'
loop_
_space_group_symop_operation_xyz
x,y,z
-x,-y,1/2+z
x,-y,-z
-x,y,1/2-z
-x,-y,-z
x,y,1/2-z
-x,y,z
x,-y,1/2+z
1/2+x,1/2+y,z
1/2-x,1/2-y,1/2+z
1/2+x,1/2-y,-z
1/2-x,1/2+y,1/2-z
1/2-x,1/2-y,-z
1/2+x,1/2+y,1/2-z
1/2-x,1/2+y,z
1/2+x,1/2-y,1/2+z
loop_
_atom_site_type_symbol
_atom_site_label
_atom_site_fract_x
_atom_site_fract_y
_atom_site_fract_z
Si Si1 0.099929 0.703063 0.916996
Si Si2 0.899783 0.205121 0.916166
Si Si3 0.751997 0.133210 0.582276
Si Si4 0.691667 0.951058 0.918384
Si Si5 0.000000 0.454587 0.910907
O O1 0.108369 0.714338 0.750000
O O2 0.164773 0.661725 0.961297
O O3 0.000000 0.688646 0.958735
O O4 0.129736 0.749382 0.998351
O O5 0.887363 0.217253 0.750000
O O6 0.838337 0.162256 0.960450
O O7 0.000000 0.191046 0.952751
O O8 0.750962 0.120328 0.750000
O O9 0.757154 0.086041 0.489924
O O10 0.713749 0.957735 0.750000
O O11 0.592786 0.928723 0.941134
O O12 0.701919 0.000000 0.000000
O O13 0.000000 0.472818 0.750000
O O14 0.000000 0.500000 0.000000
#
# Coordination Sequence:
#
# PCOD8258353 Si02
#       5
#    16  16  16  16   8
#     4   9  18  31  47  71 102 132 162 199 243 292
#     4   9  18  33  51  71  97 130 167 207 248 288
#     4  10  20  32  49  73 100 131 166 203 245 292
#     4  10  20  34  51  72  99 130 164 201 242 288
#     4   8  16  30  46  66  92 124 158 190 228 278
#
# _framework density 17.687176999999998
#
# number of rings (size 3 to 8) (size 9 to 14) (size 15 to 20)
#    0.000    2.667    0.000    1.333    1.556    2.667 
#    0.000    0.000    0.000    0.667    0.000    0.000 
#    0.000    0.000    0.000    0.000    0.000    0.000 
#
# Total GULP energy -446192.323467 kJ/mol
# GULP energy per Si atom -12394.231207 kJ/mol
# Density = 1.764692 g / cm^3
# Si number density = 17.687177 Si / 1000 Ang^3
#
#
#
# Elastic Constant Matrix: (Units=GPa)
#
#
# Indices 1 2 3 4 5 6 
#
# 1 67.5760 49.2161 33.7400 0.0000 0.0000 0.0000
# 2 49.2161 112.3939 58.2017 0.0000 0.0000 0.0000
# 3 33.7400 58.2017 67.7922 0.0000 0.0000 0.0000
# 4 0.0000 0.0000 0.0000 34.4422 0.0000 0.0000
# 5 0.0000 0.0000 0.0000 0.0000 18.0604 0.0000
# 6 0.0000 0.0000 0.0000 0.0000 0.0000 24.7828
#
#
#
# Elastic Compliance Matrix: (Units=1/GPa)
#
#
# Indices 1 2 3 4 5 6 
#
# 1 0.022617 -0.007336 -0.004958 0.000000 0.000000 0.000000
# 2 -0.007336 0.018399 -0.012145 0.000000 0.000000 0.000000
# 3 -0.004958 -0.012145 0.027645 0.000000 0.000000 0.000000
# 4 0.000000 0.000000 0.000000 0.029034 0.000000 0.000000
# 5 0.000000 0.000000 0.000000 0.000000 0.055370 0.000000
# 6 0.000000 0.000000 0.000000 0.000000 0.000000 0.040351
#
#
# Mechanical properties :
#
#
# Convention : Reuss Voigt Hill
#
# Bulk Modulus (GPa) = 50.54873 58.89753 54.72313
# Shear Modulus (GPa) = 20.08951 22.56405 21.32678
#
# Velocity S-wave (km/s) = 3.37385 3.57561 3.47620
# Velocity P-wave (km/s) = 6.61956 7.10060 6.86429
#
# Compressibility (1/GPa) = 0.01978289
#
# Stress axis : x y z
#
# Youngs Moduli (GPa) = 44.21539 54.35180 36.17289
#
# Poissons Ratio (x) = 0.39874 0.17934
# Poissons Ratio (y) = 0.32437 0.43931
# Poissons Ratio (z) = 0.21921 0.66008
#
# Static dielectric constant tensor:
#      x y z
#    x 3.215830 0.000000 0.000000 
#    y 0.000000 3.011730 0.000000 
#    z 0.000000 0.000000 3.250120 
# 
# 
# High freq. dielectric constant tensor:
#      x y z
#    x 1.675060 0.000000 0.000000 
#    y 0.000000 1.666690 0.000000 
#    z 0.000000 0.000000 1.687380 
# 
# From -- ./inp_files/4587.got.cif
#   From: 2010.03.12/outbox.cif.g09.slc.cpg/sg63_3_cif.got.tgz:4587.got - 2010.04.10 19:34:48.
