data_PCOD8258661
_publ_section_title
;
Structure prediction by ZEFSAII (Michael W. Deem and Ramdas Pophale) SiO2 
 PCOD8258661
Probable space group: C M C M
;
_chemical_formula_sum "Si O2"
_cell_formula_units_Z 96
_cell_length_a 23.669580
_cell_length_b 24.153340
_cell_length_c 9.178289
_cell_angle_alpha 90.000000
_cell_angle_beta 90.000000
_cell_angle_gamma 90.000000
_cell_volume 5247.222437
_symmetry_space_group_name_H-M "C M C M"
_symmetry_group_IT_number 63
_symmetry_cell_setting 'orthorhombic'
loop_
_space_group_symop_operation_xyz
x,y,z
-x,-y,1/2+z
x,-y,-z
-x,y,1/2-z
-x,-y,-z
x,y,1/2-z
-x,y,z
x,-y,1/2+z
1/2+x,1/2+y,z
1/2-x,1/2-y,1/2+z
1/2+x,1/2-y,-z
1/2-x,1/2+y,1/2-z
1/2-x,1/2-y,-z
1/2+x,1/2+y,1/2-z
1/2-x,1/2+y,z
1/2+x,1/2-y,1/2+z
loop_
_atom_site_type_symbol
_atom_site_label
_atom_site_fract_x
_atom_site_fract_y
_atom_site_fract_z
Si Si1 0.433430 0.359806 0.916157
Si Si2 0.638213 0.444206 0.083342
Si Si3 0.064677 0.556232 0.078816
Si Si4 0.234598 0.855278 0.413385
Si Si5 0.847722 0.351434 0.578407
Si Si6 0.638563 0.725975 0.578459
O O1 0.411647 0.363628 0.750000
O O2 0.500000 0.357406 0.923254
O O3 0.413387 0.413500 0.004519
O O4 0.410422 0.303993 0.989277
O O5 0.620792 0.456139 0.250000
O O6 0.694157 0.407740 0.075243
O O7 0.652230 0.500000 0.000000
O O8 0.071956 0.546791 0.250000
O O9 0.104230 0.606250 0.022178
O O10 0.000000 0.571353 0.039086
O O11 0.083787 0.500000 0.000000
O O12 0.257582 0.847464 0.250000
O O13 0.287034 0.867549 0.516549
O O14 0.199598 0.800502 0.461381
O O15 0.842713 0.354598 0.750000
O O16 0.863456 0.289552 0.528867
O O17 0.626691 0.717717 0.750000
#
# Coordination Sequence:
#
# PCOD8258661 Si02
#       6
#    16  16  16  16  16  16
#     4  10  21  36  54  78 107 139 176 218 264 312
#     4  10  21  37  56  78 105 140 180 219 263 311
#     4   9  19  36  54  73 100 132 167 209 255 303
#     4   9  19  34  51  75 107 138 169 209 257 308
#     4  10  20  33  54  81 103 132 175 215 256 309
#     4   9  19  35  53  76 106 139 174 212 258 310
#
# _framework density 18.295394000000002
#
# number of rings (size 3 to 8) (size 9 to 14) (size 15 to 20)
#    0.000    2.500    0.000    2.500    0.000    7.667 
#    0.000    5.000    0.000    2.000    0.000    0.000 
#    0.000    0.000    0.000    0.000    0.000    0.000 
#
# Total GULP energy -595274.593633 kJ/mol
# GULP energy per Si atom -12401.554034 kJ/mol
# Density = 1.825375 g / cm^3
# Si number density = 18.295394 Si / 1000 Ang^3
#
#
#
# Elastic Constant Matrix: (Units=GPa)
#
#
# Indices 1 2 3 4 5 6 
#
# 1 78.3707 73.1799 42.0314 0.0000 0.0000 0.0000
# 2 73.1799 134.2530 48.7042 0.0000 0.0000 0.0000
# 3 42.0314 48.7042 72.7327 0.0000 0.0000 0.0000
# 4 0.0000 0.0000 0.0000 30.3909 0.0000 0.0000
# 5 0.0000 0.0000 0.0000 0.0000 32.7139 0.0000
# 6 0.0000 0.0000 0.0000 0.0000 0.0000 21.6754
#
#
#
# Elastic Compliance Matrix: (Units=1/GPa)
#
#
# Indices 1 2 3 4 5 6 
#
# 1 0.029302 -0.012983 -0.008239 0.000000 0.000000 0.000000
# 2 -0.012983 0.015591 -0.002938 0.000000 0.000000 0.000000
# 3 -0.008239 -0.002938 0.020478 0.000000 0.000000 0.000000
# 4 0.000000 0.000000 0.000000 0.032905 0.000000 0.000000
# 5 0.000000 0.000000 0.000000 0.000000 0.030568 0.000000
# 6 0.000000 0.000000 0.000000 0.000000 0.000000 0.046135
#
#
# Mechanical properties :
#
#
# Convention : Reuss Voigt Hill
#
# Bulk Modulus (GPa) = 58.64906 68.13194 63.39050
# Shear Modulus (GPa) = 21.83573 25.05211 23.44392
#
# Velocity S-wave (km/s) = 3.45847 3.70444 3.58356
# Velocity P-wave (km/s) = 6.93357 7.45774 7.20043
#
# Compressibility (1/GPa) = 0.01705057
#
# Stress axis : x y z
#
# Youngs Moduli (GPa) = 34.12734 64.13827 48.83395
#
# Poissons Ratio (x) = 0.83272 0.40236
# Poissons Ratio (y) = 0.44308 0.14346
# Poissons Ratio (z) = 0.28119 0.18841
#
# Static dielectric constant tensor:
#      x y z
#    x 3.252760 0.000000 0.000000 
#    y 0.000000 3.581830 0.000000 
#    z 0.000000 0.000000 3.464480 
# 
# 
# High freq. dielectric constant tensor:
#      x y z
#    x 1.703690 0.000000 0.000000 
#    y 0.000000 1.714690 0.000000 
#    z 0.000000 0.000000 1.711520 
# 
# From -- ./inp_files/10434.got.cif
#   From: 2010.03.12/outbox.cif.g09.slc.cpg/sg63_6_cif.got.tgz:10434.got - 2010.04.10 19:34:48.
