data_PCOD8258448
_publ_section_title
;
Structure prediction by ZEFSAII (Michael W. Deem and Ramdas Pophale) SiO2 
 PCOD8258448
Probable space group: C M C M
;
_chemical_formula_sum "Si O2"
_cell_formula_units_Z 96
_cell_length_a 28.455752
_cell_length_b 18.657085
_cell_length_c 9.211127
_cell_angle_alpha 90.000000
_cell_angle_beta 90.000000
_cell_angle_gamma 90.000000
_cell_volume 4890.200071
_symmetry_space_group_name_H-M "C M C M"
_symmetry_group_IT_number 63
_symmetry_cell_setting 'orthorhombic'
loop_
_space_group_symop_operation_xyz
x,y,z
-x,-y,1/2+z
x,-y,-z
-x,y,1/2-z
-x,-y,-z
x,y,1/2-z
-x,y,z
x,-y,1/2+z
1/2+x,1/2+y,z
1/2-x,1/2-y,1/2+z
1/2+x,1/2-y,-z
1/2-x,1/2+y,1/2-z
1/2-x,1/2-y,-z
1/2+x,1/2+y,1/2-z
1/2-x,1/2+y,z
1/2+x,1/2-y,1/2+z
loop_
_atom_site_type_symbol
_atom_site_label
_atom_site_fract_x
_atom_site_fract_y
_atom_site_fract_z
Si Si1 0.627167 0.939163 0.910274
Si Si2 0.447099 0.132502 0.911749
Si Si3 0.799054 0.680391 0.412954
Si Si4 0.731305 0.424652 0.420506
Si Si5 0.551819 0.720161 0.579528
Si Si6 0.347667 0.678197 0.918781
O O1 0.615584 0.968158 0.750000
O O2 0.653895 0.865119 0.901638
O O3 0.579846 0.928805 0.001399
O O4 0.656530 0.000000 0.000000
O O5 0.426064 0.143037 0.750000
O O6 0.500000 0.105556 0.902545
O O7 0.443224 0.206452 0.996134
O O8 0.777092 0.688488 0.250000
O O9 0.763598 0.639306 0.519087
O O10 0.815790 0.756225 0.484328
O O11 0.739444 0.500000 0.500000
O O12 0.741603 0.435456 0.250000
O O13 0.677673 0.397843 0.449385
O O14 0.554468 0.736129 0.750000
O O15 0.500000 0.684803 0.543182
O O16 0.597528 0.673128 0.528683
O O17 0.348004 0.696516 0.750000
#
# Coordination Sequence:
#
# PCOD8258448 Si02
#       6
#    16  16  16  16  16  16
#     4  11  22  35  52  72 101 140 180 226 272 320
#     4  10  20  33  49  72 103 137 176 222 270 322
#     4  10  20  37  58  81 109 138 181 230 273 321
#     4  11  23  38  57  80 113 149 184 224 274 328
#     4   9  16  31  57  84 109 139 176 220 273 325
#     4   9  18  35  58  86 113 141 180 228 270 321
#
# _framework density 19.631097
#
# number of rings (size 3 to 8) (size 9 to 14) (size 15 to 20)
#    0.000    2.000    1.667    2.500    0.000    4.000 
#    0.000    2.500    0.000    0.500    0.000    0.000 
#    0.000    0.000    0.000    0.000    0.000    0.167 
#
# Total GULP energy -594677.821261 kJ/mol
# GULP energy per Si atom -12389.121276 kJ/mol
# Density = 1.958642 g / cm^3
# Si number density = 19.631097 Si / 1000 Ang^3
#
#
#
# Elastic Constant Matrix: (Units=GPa)
#
#
# Indices 1 2 3 4 5 6 
#
# 1 107.1777 34.0895 38.4583 0.0000 0.0000 0.0000
# 2 34.0895 49.5804 17.4365 0.0000 0.0000 0.0000
# 3 38.4583 17.4365 88.5295 0.0000 0.0000 0.0000
# 4 0.0000 0.0000 0.0000 13.5963 0.0000 0.0000
# 5 0.0000 0.0000 0.0000 0.0000 16.7626 0.0000
# 6 0.0000 0.0000 0.0000 0.0000 0.0000 12.6307
#
#
#
# Elastic Compliance Matrix: (Units=1/GPa)
#
#
# Indices 1 2 3 4 5 6 
#
# 1 0.013292 -0.007637 -0.004270 0.000000 0.000000 0.000000
# 2 -0.007637 0.026058 -0.001815 0.000000 0.000000 0.000000
# 3 -0.004270 -0.001815 0.013508 0.000000 0.000000 0.000000
# 4 0.000000 0.000000 0.000000 0.073549 0.000000 0.000000
# 5 0.000000 0.000000 0.000000 0.000000 0.059656 0.000000
# 6 0.000000 0.000000 0.000000 0.000000 0.000000 0.079172
#
#
# Mechanical properties :
#
#
# Convention : Reuss Voigt Hill
#
# Bulk Modulus (GPa) = 39.34750 47.25070 43.29910
# Shear Modulus (GPa) = 16.60298 18.95149 17.77724
#
# Velocity S-wave (km/s) = 2.91133 3.11043 3.01253
# Velocity P-wave (km/s) = 5.60251 6.08451 5.84848
#
# Compressibility (1/GPa) = 0.02541458
#
# Stress axis : x y z
#
# Youngs Moduli (GPa) = 75.23593 38.37532 74.03044
#
# Poissons Ratio (x) = 0.29308 0.31610
# Poissons Ratio (y) = 0.57458 0.13435
# Poissons Ratio (z) = 0.32124 0.06964
#
# Static dielectric constant tensor:
#      x y z
#    x 3.992760 0.000000 0.000000 
#    y 0.000000 3.427560 0.000000 
#    z 0.000000 0.000000 3.659860 
# 
# 
# High freq. dielectric constant tensor:
#      x y z
#    x 1.771180 0.000000 0.000000 
#    y 0.000000 1.736820 0.000000 
#    z 0.000000 0.000000 1.758030 
# 
# From -- ./inp_files/12324.got.cif
#   From: 2010.03.12/outbox.cif.g09.slc.cpg/sg63_7_cif.got.tgz:12324.got - 2010.04.10 19:34:48.
