data_PCOD8258836
_publ_section_title
;
Structure prediction by ZEFSAII (Michael W. Deem and Ramdas Pophale) SiO2 
 PCOD8258836
Probable space group: C M C M
;
_chemical_formula_sum "Si O2"
_cell_formula_units_Z 96
_cell_length_a 9.046993
_cell_length_b 20.541967
_cell_length_c 27.983878
_cell_angle_alpha 90.000000
_cell_angle_beta 90.000000
_cell_angle_gamma 90.000000
_cell_volume 5200.608725
_symmetry_space_group_name_H-M "C M C M"
_symmetry_group_IT_number 63
_symmetry_cell_setting 'orthorhombic'
loop_
_space_group_symop_operation_xyz
x,y,z
-x,-y,1/2+z
x,-y,-z
-x,y,1/2-z
-x,-y,-z
x,y,1/2-z
-x,y,z
x,-y,1/2+z
1/2+x,1/2+y,z
1/2-x,1/2-y,1/2+z
1/2+x,1/2-y,-z
1/2-x,1/2+y,1/2-z
1/2-x,1/2-y,-z
1/2+x,1/2+y,1/2-z
1/2-x,1/2+y,z
1/2+x,1/2-y,1/2+z
loop_
_atom_site_type_symbol
_atom_site_label
_atom_site_fract_x
_atom_site_fract_y
_atom_site_fract_z
Si Si1 0.827535 0.759009 0.450269
Si Si2 0.673850 0.615963 0.895466
Si Si3 0.174068 0.987118 0.944884
Si Si4 0.327348 0.870261 0.607243
Si Si5 0.829878 0.186419 0.803425
Si Si6 0.172900 0.178229 0.304366
O O1 0.750000 0.750000 0.500000
O O2 0.762094 0.824342 0.426430
O O3 0.792613 0.699729 0.415144
O O4 0.000000 0.765296 0.460090
O O5 0.500000 0.613660 0.903255
O O6 0.738204 0.547471 0.913725
O O7 0.714538 0.628569 0.839825
O O8 0.000000 0.976692 0.937417
O O9 0.257331 0.923268 0.927612
O O10 0.212110 0.000000 0.000000
O O11 0.500000 0.884234 0.612515
O O12 0.253714 0.871913 0.659880
O O13 0.807004 0.158981 0.750000
O O14 0.730160 0.248903 0.812918
O O15 0.000000 0.207861 0.812351
O O16 0.206932 0.156118 0.250000
O O17 0.000000 0.176993 0.315280
#
# Coordination Sequence:
#
# PCOD8258836 Si02
#       6
#    16  16  16  16  16  16
#     4  10  20  34  53  78 105 137 180 229 273 319
#     4   9  17  33  53  76 105 138 182 224 266 326
#     4  10  21  37  57  77 108 154 193 231 277 327
#     4  11  22  37  57  81 112 147 185 230 279 334
#     4   9  16  30  54  80 107 139 174 219 276 330
#     4  10  20  34  55  84 114 143 180 226 275 330
#
# _framework density 18.459377
#
# number of rings (size 3 to 8) (size 9 to 14) (size 15 to 20)
#    0.000    2.167    1.667    2.000    0.000    4.000 
#    0.000    2.500    0.000    3.000    0.000    0.000 
#    0.000    0.000    0.000    0.000    0.000    0.000 
#
# Total GULP energy -595182.529375 kJ/mol
# GULP energy per Si atom -12399.636029 kJ/mol
# Density = 1.841736 g / cm^3
# Si number density = 18.459377 Si / 1000 Ang^3
#
#
#
# Elastic Constant Matrix: (Units=GPa)
#
#
# Indices 1 2 3 4 5 6 
#
# 1 67.1191 35.2301 51.4006 0.0000 0.0000 0.0000
# 2 35.2301 57.6902 25.3610 0.0000 0.0000 0.0000
# 3 51.4006 25.3610 125.1281 0.0000 0.0000 0.0000
# 4 0.0000 0.0000 0.0000 36.1930 0.0000 0.0000
# 5 0.0000 0.0000 0.0000 0.0000 28.7120 0.0000
# 6 0.0000 0.0000 0.0000 0.0000 0.0000 22.1076
#
#
#
# Elastic Compliance Matrix: (Units=1/GPa)
#
#
# Indices 1 2 3 4 5 6 
#
# 1 0.029164 -0.013770 -0.009189 0.000000 0.000000 0.000000
# 2 -0.013770 0.025531 0.000482 0.000000 0.000000 0.000000
# 3 -0.009189 0.000482 0.011669 0.000000 0.000000 0.000000
# 4 0.000000 0.000000 0.000000 0.027630 0.000000 0.000000
# 5 0.000000 0.000000 0.000000 0.000000 0.034829 0.000000
# 6 0.000000 0.000000 0.000000 0.000000 0.000000 0.045233
#
#
# Mechanical properties :
#
#
# Convention : Reuss Voigt Hill
#
# Bulk Modulus (GPa) = 46.70877 52.65786 49.68332
# Shear Modulus (GPa) = 22.10957 26.59890 24.35424
#
# Velocity S-wave (km/s) = 3.46460 3.80009 3.63622
# Velocity P-wave (km/s) = 6.43141 6.91683 6.67853
#
# Compressibility (1/GPa) = 0.02140925
#
# Stress axis : x y z
#
# Youngs Moduli (GPa) = 34.28917 39.16779 85.69812
#
# Poissons Ratio (x) = 0.53934 0.78749
# Poissons Ratio (y) = 0.47216 -0.04129
# Poissons Ratio (z) = 0.31509 -0.01887
#
# Static dielectric constant tensor:
#      x y z
#    x 3.249450 0.000000 0.000000 
#    y 0.000000 3.378050 0.000000 
#    z 0.000000 0.000000 3.622050 
# 
# 
# High freq. dielectric constant tensor:
#      x y z
#    x 1.697670 0.000000 0.000000 
#    y 0.000000 1.699580 0.000000 
#    z 0.000000 0.000000 1.734860 
# 
# From -- ./inp_files/67015.got.cif
#   From: 2010.03.12/outbox.cif.g09.slc.cpg/sg63_34_cif.got.tgz:67015.got - 2010.04.10 19:34:48.
