data_PCOD8258778
_publ_section_title
;
Structure prediction by ZEFSAII (Michael W. Deem and Ramdas Pophale) SiO2 
 PCOD8258778
Probable space group: C M C M
;
_chemical_formula_sum "Si O2"
_cell_formula_units_Z 88
_cell_length_a 18.250306
_cell_length_b 29.642014
_cell_length_c 9.214967
_cell_angle_alpha 90.000000
_cell_angle_beta 90.000000
_cell_angle_gamma 90.000000
_cell_volume 4985.074384
_symmetry_space_group_name_H-M "C M C M"
_symmetry_group_IT_number 63
_symmetry_cell_setting 'orthorhombic'
loop_
_space_group_symop_operation_xyz
x,y,z
-x,-y,1/2+z
x,-y,-z
-x,y,1/2-z
-x,-y,-z
x,y,1/2-z
-x,y,z
x,-y,1/2+z
1/2+x,1/2+y,z
1/2-x,1/2-y,1/2+z
1/2+x,1/2-y,-z
1/2-x,1/2+y,1/2-z
1/2-x,1/2-y,-z
1/2+x,1/2+y,1/2-z
1/2-x,1/2+y,z
1/2+x,1/2-y,1/2+z
loop_
_atom_site_type_symbol
_atom_site_label
_atom_site_fract_x
_atom_site_fract_y
_atom_site_fract_z
Si Si1 0.500000 0.545700 0.083989
Si Si2 0.580046 0.853286 0.077800
Si Si3 0.583684 0.248032 0.587434
Si Si4 0.159653 0.047860 0.420940
Si Si5 0.703736 0.712698 0.582117
Si Si6 0.233464 0.614214 0.581592
O O1 0.500000 0.531486 0.250000
O O2 0.421875 0.570403 0.049459
O O3 0.500000 0.500000 0.000000
O O4 0.577690 0.849690 0.250000
O O5 0.500000 0.871232 0.021549
O O6 0.593517 0.802352 0.021229
O O7 0.647445 0.885768 0.031716
O O8 0.617534 0.249950 0.750000
O O9 0.500000 0.262589 0.592251
O O10 0.622394 0.284457 0.484010
O O11 0.173246 0.041220 0.250000
O O12 0.222716 0.079601 0.482877
O O13 0.165464 0.000000 0.500000
O O14 0.702047 0.724624 0.750000
O O15 0.750000 0.750000 0.500000
O O16 0.735586 0.663637 0.553427
O O17 0.241290 0.600291 0.750000
#
# Coordination Sequence:
#
# PCOD8258778 Si02
#       6
#     8  16  16  16  16  16
#     4   8  16  32  54  78 102 130 166 204 246 300
#     4   8  14  28  51  74  98 132 174 214 253 302
#     4   9  17  32  52  71  96 136 181 220 262 310
#     4  10  20  36  58  81 105 133 168 211 257 306
#     4  11  21  33  50  73 106 141 177 219 263 310
#     4  10  20  34  52  77 105 136 174 213 258 312
#
# _framework density 17.652695999999999
#
# number of rings (size 3 to 8) (size 9 to 14) (size 15 to 20)
#    0.000    2.545    1.818    2.182    0.000    2.545 
#    1.636    0.000    0.000    1.091    0.000    0.000 
#    0.000    0.000    0.000    0.000    0.000    0.000 
#
# Total GULP energy -545116.083300 kJ/mol
# GULP energy per Si atom -12389.001893 kJ/mol
# Density = 1.761252 g / cm^3
# Si number density = 17.652696 Si / 1000 Ang^3
#
#
#
# Elastic Constant Matrix: (Units=GPa)
#
#
# Indices 1 2 3 4 5 6 
#
# 1 159.1993 54.7774 58.7004 0.0000 0.0000 0.0000
# 2 54.7774 54.2760 48.4703 0.0000 0.0000 0.0000
# 3 58.7004 48.4703 76.6844 0.0000 0.0000 0.0000
# 4 0.0000 0.0000 0.0000 28.6040 0.0000 0.0000
# 5 0.0000 0.0000 0.0000 0.0000 27.8095 0.0000
# 6 0.0000 0.0000 0.0000 0.0000 0.0000 26.7519
#
#
#
# Elastic Compliance Matrix: (Units=1/GPa)
#
#
# Indices 1 2 3 4 5 6 
#
# 1 0.009896 -0.007399 -0.002898 0.000000 0.000000 0.000000
# 2 -0.007399 0.047835 -0.024571 0.000000 0.000000 0.000000
# 3 -0.002898 -0.024571 0.030790 0.000000 0.000000 0.000000
# 4 0.000000 0.000000 0.000000 0.034960 0.000000 0.000000
# 5 0.000000 0.000000 0.000000 0.000000 0.035959 0.000000
# 6 0.000000 0.000000 0.000000 0.000000 0.000000 0.037380
#
#
# Mechanical properties :
#
#
# Convention : Reuss Voigt Hill
#
# Bulk Modulus (GPa) = 53.23899 68.22843 60.73371
# Shear Modulus (GPa) = 18.32711 25.18051 21.75381
#
# Velocity S-wave (km/s) = 3.22561 3.78092 3.51425
# Velocity P-wave (km/s) = 6.64059 7.60229 7.13765
#
# Compressibility (1/GPa) = 0.01878323
#
# Stress axis : x y z
#
# Youngs Moduli (GPa) = 101.05067 20.90522 32.47784
#
# Poissons Ratio (x) = 0.15468 0.09414
# Poissons Ratio (y) = 0.74768 0.79803
# Poissons Ratio (z) = 0.29289 0.51367
#
# Static dielectric constant tensor:
#      x y z
#    x 4.041980 0.000000 0.000000 
#    y 0.000000 2.933270 0.000000 
#    z 0.000000 0.000000 3.347510 
# 
# 
# High freq. dielectric constant tensor:
#      x y z
#    x 1.706710 0.000000 0.000000 
#    y 0.000000 1.638140 0.000000 
#    z 0.000000 0.000000 1.668920 
# 
# From -- ./inp_files/6872.got.cif
#   From: 2010.03.12/outbox.cif.g09.slc.cpg/sg63_4_cif.got.tgz:6872.got - 2010.04.10 19:34:48.
