data_PCOD8258955
_publ_section_title
;
Structure prediction by ZEFSAII (Michael W. Deem and Ramdas Pophale) SiO2 
 PCOD8258955
Probable space group: C M C M
;
_chemical_formula_sum "Si O2"
_cell_formula_units_Z 112
_cell_length_a 15.280539
_cell_length_b 25.195328
_cell_length_c 15.229418
_cell_angle_alpha 90.000000
_cell_angle_beta 90.000000
_cell_angle_gamma 90.000000
_cell_volume 5863.298397
_symmetry_space_group_name_H-M "C M C M"
_symmetry_group_IT_number 63
_symmetry_cell_setting 'orthorhombic'
loop_
_space_group_symop_operation_xyz
x,y,z
-x,-y,1/2+z
x,-y,-z
-x,y,1/2-z
-x,-y,-z
x,y,1/2-z
-x,y,z
x,-y,1/2+z
1/2+x,1/2+y,z
1/2-x,1/2-y,1/2+z
1/2+x,1/2-y,-z
1/2-x,1/2+y,1/2-z
1/2-x,1/2-y,-z
1/2+x,1/2+y,1/2-z
1/2-x,1/2+y,z
1/2+x,1/2-y,1/2+z
loop_
_atom_site_type_symbol
_atom_site_label
_atom_site_fract_x
_atom_site_fract_y
_atom_site_fract_z
Si Si1 0.402205 0.991599 0.854573
Si Si2 0.292269 0.686206 0.850699
Si Si3 0.403058 0.549032 0.559014
Si Si4 0.902532 0.837464 0.989152
Si Si5 0.260905 0.695840 0.149109
Si Si6 0.902300 0.372599 0.645797
Si Si7 0.733436 0.925382 0.149623
O O1 0.398050 0.992381 0.750000
O O2 0.500000 0.005655 0.886854
O O3 0.376501 0.932079 0.886325
O O4 0.337155 0.035828 0.897931
O O5 0.325989 0.678241 0.750000
O O6 0.240777 0.740808 0.859856
O O7 0.228433 0.636877 0.878869
O O8 0.373610 0.687593 0.917406
O O9 0.375934 0.500000 0.500000
O O10 0.500000 0.542112 0.600904
O O11 0.400853 0.599253 0.494837
O O12 0.332316 0.554143 0.635993
O O13 0.841900 0.822338 0.908234
O O14 0.000000 0.816330 0.969651
O O15 0.276697 0.678779 0.250000
O O16 0.171000 0.669218 0.112502
O O17 0.905555 0.370781 0.750000
O O18 0.000000 0.357456 0.610237
O O19 0.709418 0.929751 0.250000
#
# Coordination Sequence:
#
# PCOD8258955 Si02
#       7
#    16  16  16  16  16  16  16
#     4   8  14  26  46  73 102 129 163 208 259 319
#     4   9  19  36  55  78 103 135 183 231 268 311
#     4   9  19  34  49  69  99 134 172 215 262 311
#     4  10  21  36  54  77 108 145 180 218 268 320
#     4  10  20  34  55  80 110 142 177 220 267 325
#     4   8  15  28  47  74 104 133 170 217 268 317
#     4   9  17  30  52  75  97 130 171 214 265 313
#
# _framework density 19.101877000000002
#
# number of rings (size 3 to 8) (size 9 to 14) (size 15 to 20)
#    0.000    3.000    0.000    1.286    2.000    1.429 
#    0.000    5.000    0.000    9.000    0.000    0.000 
#    0.000    0.000    0.000    0.000    0.000    0.000 
#
# Total GULP energy -693897.740624 kJ/mol
# GULP energy per Si atom -12391.031083 kJ/mol
# Density = 1.905840 g / cm^3
# Si number density = 19.101877 Si / 1000 Ang^3
#
#
#
# Elastic Constant Matrix: (Units=GPa)
#
#
# Indices 1 2 3 4 5 6 
#
# 1 92.4628 35.8822 21.1158 0.0000 0.0000 0.0000
# 2 35.8822 86.2244 12.6145 0.0000 0.0000 0.0000
# 3 21.1158 12.6145 42.5071 0.0000 0.0000 0.0000
# 4 0.0000 0.0000 0.0000 13.9336 0.0000 0.0000
# 5 0.0000 0.0000 0.0000 0.0000 25.3518 0.0000
# 6 0.0000 0.0000 0.0000 0.0000 0.0000 22.3676
#
#
#
# Elastic Compliance Matrix: (Units=1/GPa)
#
#
# Indices 1 2 3 4 5 6 
#
# 1 0.014017 -0.005033 -0.005470 0.000000 0.000000 0.000000
# 2 -0.005033 0.013931 -0.001634 0.000000 0.000000 0.000000
# 3 -0.005470 -0.001634 0.026727 0.000000 0.000000 0.000000
# 4 0.000000 0.000000 0.000000 0.071769 0.000000 0.000000
# 5 0.000000 0.000000 0.000000 0.000000 0.039445 0.000000
# 6 0.000000 0.000000 0.000000 0.000000 0.000000 0.044708
#
#
# Mechanical properties :
#
#
# Convention : Reuss Voigt Hill
#
# Bulk Modulus (GPa) = 32.89194 40.04657 36.46926
# Shear Modulus (GPa) = 20.40768 22.43603 21.42186
#
# Velocity S-wave (km/s) = 3.27212 3.43088 3.35244
# Velocity P-wave (km/s) = 5.61537 6.05845 5.84111
#
# Compressibility (1/GPa) = 0.03040258
#
# Stress axis : x y z
#
# Youngs Moduli (GPa) = 71.33947 71.78108 37.41466
#
# Poissons Ratio (x) = 0.36129 0.20465
# Poissons Ratio (y) = 0.35906 0.06114
# Poissons Ratio (z) = 0.39020 0.11729
#
# Static dielectric constant tensor:
#      x y z
#    x 3.643620 0.000000 0.000000 
#    y 0.000000 3.843960 0.000000 
#    z 0.000000 0.000000 3.146890 
# 
# 
# High freq. dielectric constant tensor:
#      x y z
#    x 1.734110 0.000000 0.000000 
#    y 0.000000 1.753060 0.000000 
#    z 0.000000 0.000000 1.711890 
# 
# From -- ./inp_files/32500.got.cif
#   From: 2010.03.12/outbox.cif.g09.slc.cpg/sg63_17_cif.got.tgz:32500.got - 2010.04.10 19:34:48.
