data_PCOD8258010
_publ_section_title
;
Structure prediction by ZEFSAII (Michael W. Deem and Ramdas Pophale) SiO2 
 PCOD8258010
Probable space group: C M C M
;
_chemical_formula_sum "Si O2"
_cell_formula_units_Z 96
_cell_length_a 22.351039
_cell_length_b 23.123582
_cell_length_c 10.104079
_cell_angle_alpha 90.000000
_cell_angle_beta 90.000000
_cell_angle_gamma 90.000000
_cell_volume 5222.152614
_symmetry_space_group_name_H-M "C M C M"
_symmetry_group_IT_number 63
_symmetry_cell_setting 'orthorhombic'
loop_
_space_group_symop_operation_xyz
x,y,z
-x,-y,1/2+z
x,-y,-z
-x,y,1/2-z
-x,-y,-z
x,y,1/2-z
-x,y,z
x,-y,1/2+z
1/2+x,1/2+y,z
1/2-x,1/2-y,1/2+z
1/2+x,1/2-y,-z
1/2-x,1/2+y,1/2-z
1/2-x,1/2-y,-z
1/2+x,1/2+y,1/2-z
1/2-x,1/2+y,z
1/2+x,1/2-y,1/2+z
loop_
_atom_site_type_symbol
_atom_site_label
_atom_site_fract_x
_atom_site_fract_y
_atom_site_fract_z
Si Si1 0.246198 0.939383 0.250000
Si Si2 0.619233 0.052691 0.750000
Si Si3 0.929856 0.378100 0.012850
Si Si4 0.570939 0.247418 0.896960
Si Si5 0.769606 0.924433 0.750000
Si Si6 0.930035 0.844987 0.403155
Si Si7 0.865764 0.584142 0.250000
Si Si8 0.334573 0.568183 0.510837
O O1 0.314771 0.919187 0.250000
O O2 0.214466 0.914859 0.120038
O O3 0.241077 0.007733 0.250000
O O4 0.584051 0.072245 0.619453
O O5 0.623858 0.984098 0.750000
O O6 0.906971 0.316863 0.068738
O O7 0.000000 0.377867 0.982376
O O8 0.895377 0.388971 0.878365
O O9 0.594791 0.264168 0.750000
O O10 0.500000 0.248282 0.897200
O O11 0.594599 0.292142 0.007456
O O12 0.703747 0.896564 0.750000
O O13 0.808475 0.905379 0.624020
O O14 0.916281 0.830649 0.250000
O O15 0.897363 0.903133 0.450426
O O16 0.000000 0.855946 0.425880
O O17 0.346464 0.500000 0.500000
#
# Coordination Sequence:
#
# PCOD8258010 Si02
#       8
#     8   8  16  16   8  16   8  16
#     4   9  18  35  56  77 104 149 193 221 266 324
#     4  11  21  36  58  81 111 146 186 233 276 328
#     4  11  22  36  56  82 113 149 183 225 283 336
#     4   9  19  37  57  78 107 147 191 223 261 328
#     4   9  20  35  54  79 108 147 193 223 254 326
#     4  10  21  36  58  87 114 141 178 227 278 325
#     4  11  23  36  54  85 115 144 184 231 278 326
#     4  10  19  35  58  83 113 147 182 223 271 324
#
# _framework density 18.383223999999998
#
# number of rings (size 3 to 8) (size 9 to 14) (size 15 to 20)
#    0.000    2.000    1.667    2.000    2.333    5.000 
#    0.000    0.000    0.000    6.000    0.000    0.000 
#    0.000    0.000    0.000    0.000    0.000    0.000 
#
# Total GULP energy -595231.918834 kJ/mol
# GULP energy per Si atom -12400.664976 kJ/mol
# Density = 1.834138 g / cm^3
# Si number density = 18.383224 Si / 1000 Ang^3
#
#
#
# Elastic Constant Matrix: (Units=GPa)
#
#
# Indices 1 2 3 4 5 6 
#
# 1 81.5434 33.2930 52.1420 0.0000 0.0000 0.0000
# 2 33.2930 73.3560 45.5728 0.0000 0.0000 0.0000
# 3 52.1420 45.5728 177.1766 0.0000 0.0000 0.0000
# 4 0.0000 0.0000 0.0000 25.8003 0.0000 0.0000
# 5 0.0000 0.0000 0.0000 0.0000 31.1939 0.0000
# 6 0.0000 0.0000 0.0000 0.0000 0.0000 10.1771
#
#
#
# Elastic Compliance Matrix: (Units=1/GPa)
#
#
# Indices 1 2 3 4 5 6 
#
# 1 0.016727 -0.005395 -0.003535 0.000000 0.000000 0.000000
# 2 -0.005395 0.017965 -0.003033 0.000000 0.000000 0.000000
# 3 -0.003535 -0.003033 0.007464 0.000000 0.000000 0.000000
# 4 0.000000 0.000000 0.000000 0.038759 0.000000 0.000000
# 5 0.000000 0.000000 0.000000 0.000000 0.032058 0.000000
# 6 0.000000 0.000000 0.000000 0.000000 0.000000 0.098260
#
#
# Mechanical properties :
#
#
# Convention : Reuss Voigt Hill
#
# Bulk Modulus (GPa) = 54.85553 66.01016 60.43284
# Shear Modulus (GPa) = 20.72661 26.83882 23.78272
#
# Velocity S-wave (km/s) = 3.36143 3.82509 3.60073
# Velocity P-wave (km/s) = 6.70600 7.44944 7.08747
#
# Compressibility (1/GPa) = 0.01822970
#
# Stress axis : x y z
#
# Youngs Moduli (GPa) = 59.78521 55.66306 133.96748
#
# Poissons Ratio (x) = 0.30033 0.47354
# Poissons Ratio (y) = 0.32257 0.40634
# Poissons Ratio (z) = 0.21132 0.16883
#
# Static dielectric constant tensor:
#      x y z
#    x 3.317140 0.000000 0.000000 
#    y 0.000000 3.248940 0.000000 
#    z 0.000000 0.000000 3.686080 
# 
# 
# High freq. dielectric constant tensor:
#      x y z
#    x 1.700060 0.000000 0.000000 
#    y 0.000000 1.692180 0.000000 
#    z 0.000000 0.000000 1.736320 
# 
# From -- ./inp_files/10583.got.cif
#   From: 2010.03.12/outbox.cif.g09.slc.cpg/sg63_6_cif.got.tgz:10583.got - 2010.04.10 19:34:48.
