data_PCOD8258361
_publ_section_title
;
Structure prediction by ZEFSAII (Michael W. Deem and Ramdas Pophale) SiO2 
 PCOD8258361
Probable space group: C M C M
;
_chemical_formula_sum "Si O2"
_cell_formula_units_Z 96
_cell_length_a 8.776463
_cell_length_b 22.784373
_cell_length_c 27.063441
_cell_angle_alpha 90.000000
_cell_angle_beta 90.000000
_cell_angle_gamma 90.000000
_cell_volume 5411.773635
_symmetry_space_group_name_H-M "C M C M"
_symmetry_group_IT_number 63
_symmetry_cell_setting 'orthorhombic'
loop_
_space_group_symop_operation_xyz
x,y,z
-x,-y,1/2+z
x,-y,-z
-x,y,1/2-z
-x,-y,-z
x,y,1/2-z
-x,y,z
x,-y,1/2+z
1/2+x,1/2+y,z
1/2-x,1/2-y,1/2+z
1/2+x,1/2-y,-z
1/2-x,1/2+y,1/2-z
1/2-x,1/2-y,-z
1/2+x,1/2+y,1/2-z
1/2-x,1/2+y,z
1/2+x,1/2-y,1/2+z
loop_
_atom_site_type_symbol
_atom_site_label
_atom_site_fract_x
_atom_site_fract_y
_atom_site_fract_z
Si Si1 0.176489 0.092365 0.877805
Si Si2 0.167049 0.403193 0.878073
Si Si3 0.819674 0.496072 0.306830
Si Si4 0.332082 0.007802 0.553582
Si Si5 0.678305 0.318470 0.949378
Si Si6 0.321041 0.816704 0.447515
O O1 0.201802 0.043461 0.919090
O O2 0.253701 0.151533 0.898643
O O3 0.000000 0.104477 0.867964
O O4 0.250108 0.064799 0.827948
O O5 0.239197 0.444010 0.834085
O O6 0.145988 0.443810 0.925133
O O7 0.271668 0.350388 0.898180
O O8 0.000000 0.378731 0.861722
O O9 0.772938 0.501098 0.250000
O O10 0.000000 0.492151 0.315568
O O11 0.500000 0.039599 0.554226
O O12 0.264758 0.000000 0.500000
O O13 0.500000 0.327384 0.956242
O O14 0.724991 0.250997 0.941825
O O15 0.755956 0.341831 0.000266
O O16 0.500000 0.826113 0.448231
#
# Coordination Sequence:
#
# PCOD8258361 Si02
#       6
#    16  16  16  16  16  16
#     4  11  21  31  48  74 100 126 161 206 250 290
#     4   9  17  29  48  73  99 128 161 198 243 296
#     4   9  19  37  58  76  96 127 164 200 247 306
#     4   9  17  29  45  66  95 131 164 193 234 291
#     4  10  20  32  49  74 102 134 171 207 243 284
#     4  10  20  34  50  69 100 140 175 204 239 289
#
# _framework density 17.739100000000001
#
# number of rings (size 3 to 8) (size 9 to 14) (size 15 to 20)
#    0.000    2.333    0.000    4.500    0.000    6.667 
#    0.000    0.000    0.000    1.000    0.000    4.667 
#    0.000    0.000    0.000    0.000    0.000    0.000 
#
# Total GULP energy -594673.173189 kJ/mol
# GULP energy per Si atom -12389.024441 kJ/mol
# Density = 1.769873 g / cm^3
# Si number density = 17.739100 Si / 1000 Ang^3
#
#
#
# Elastic Constant Matrix: (Units=GPa)
#
#
# Indices 1 2 3 4 5 6 
#
# 1 74.4060 30.9125 33.5256 0.0000 0.0000 0.0000
# 2 30.9125 79.1690 45.1420 0.0000 0.0000 0.0000
# 3 33.5256 45.1420 133.3908 0.0000 0.0000 0.0000
# 4 0.0000 0.0000 0.0000 26.5971 0.0000 0.0000
# 5 0.0000 0.0000 0.0000 0.0000 21.3949 0.0000
# 6 0.0000 0.0000 0.0000 0.0000 0.0000 25.4222
#
#
#
# Elastic Compliance Matrix: (Units=1/GPa)
#
#
# Indices 1 2 3 4 5 6 
#
# 1 0.016670 -0.005105 -0.002462 0.000000 0.000000 0.000000
# 2 -0.005105 0.017215 -0.004543 0.000000 0.000000 0.000000
# 3 -0.002462 -0.004543 0.009653 0.000000 0.000000 0.000000
# 4 0.000000 0.000000 0.000000 0.037598 0.000000 0.000000
# 5 0.000000 0.000000 0.000000 0.000000 0.046740 0.000000
# 6 0.000000 0.000000 0.000000 0.000000 0.000000 0.039336
#
#
# Mechanical properties :
#
#
# Convention : Reuss Voigt Hill
#
# Bulk Modulus (GPa) = 51.76546 56.23625 54.00086
# Shear Modulus (GPa) = 25.26900 26.50856 25.88878
#
# Velocity S-wave (km/s) = 3.77832 3.86989 3.82438
# Velocity P-wave (km/s) = 6.94832 7.19296 7.07170
#
# Compressibility (1/GPa) = 0.01931790
#
# Stress axis : x y z
#
# Youngs Moduli (GPa) = 59.98761 58.08941 103.59557
#
# Poissons Ratio (x) = 0.29656 0.25506
# Poissons Ratio (y) = 0.30625 0.47061
# Poissons Ratio (z) = 0.14769 0.26388
#
# Static dielectric constant tensor:
#      x y z
#    x 3.240880 0.000000 0.000000 
#    y 0.000000 3.442290 0.000000 
#    z 0.000000 0.000000 3.264950 
# 
# 
# High freq. dielectric constant tensor:
#      x y z
#    x 1.682510 0.000000 0.000000 
#    y 0.000000 1.676200 0.000000 
#    z 0.000000 0.000000 1.665230 
# 
# From -- ./inp_files/67250.got.cif
#   From: 2010.03.12/outbox.cif.g09.slc.cpg/sg63_34_cif.got.tgz:67250.got - 2010.04.10 19:34:48.
