data_PCOD8258331
_publ_section_title
;
Structure prediction by ZEFSAII (Michael W. Deem and Ramdas Pophale) SiO2 
 PCOD8258331
Probable space group: C M C M
;
_chemical_formula_sum "Si O2"
_cell_formula_units_Z 80
_cell_length_a 18.172734
_cell_length_b 26.826548
_cell_length_c 8.963568
_cell_angle_alpha 90.000000
_cell_angle_beta 90.000000
_cell_angle_gamma 90.000000
_cell_volume 4369.844461
_symmetry_space_group_name_H-M "C M C M"
_symmetry_group_IT_number 63
_symmetry_cell_setting 'orthorhombic'
loop_
_space_group_symop_operation_xyz
x,y,z
-x,-y,1/2+z
x,-y,-z
-x,y,1/2-z
-x,-y,-z
x,y,1/2-z
-x,y,z
x,-y,1/2+z
1/2+x,1/2+y,z
1/2-x,1/2-y,1/2+z
1/2+x,1/2-y,-z
1/2-x,1/2+y,1/2-z
1/2-x,1/2-y,-z
1/2+x,1/2+y,1/2-z
1/2-x,1/2+y,z
1/2+x,1/2-y,1/2+z
loop_
_atom_site_type_symbol
_atom_site_label
_atom_site_fract_x
_atom_site_fract_y
_atom_site_fract_z
Si Si1 0.706793 0.602247 0.418452
Si Si2 0.857238 0.552154 0.425758
Si Si3 0.711054 0.796101 0.576997
Si Si4 0.415727 0.851631 0.077748
Si Si5 0.917175 0.050940 0.924122
O O1 0.680305 0.593597 0.250000
O O2 0.771824 0.563763 0.458750
O O3 0.733954 0.658014 0.442745
O O4 0.637371 0.594633 0.525899
O O5 0.879302 0.500000 0.500000
O O6 0.873263 0.550397 0.250000
O O7 0.906918 0.595360 0.496524
O O8 0.695446 0.784629 0.750000
O O9 0.750000 0.750000 0.500000
O O10 0.633697 0.808799 0.498309
O O11 0.392194 0.857487 0.250000
O O12 0.500000 0.834294 0.062998
O O13 0.911365 0.042972 0.750000
O O14 0.000000 0.065206 0.973090
O O15 0.891168 0.000000 0.000000
#
# Coordination Sequence:
#
# PCOD8258331 Si02
#       5
#    16  16  16  16  16
#     4   9  19  34  52  75 101 132 171 214 259 307
#     4  10  20  33  51  77 108 142 180 218 259 311
#     4  10  21  38  60  83 106 135 173 217 266 317
#     4  10  21  37  57  81 109 141 177 217 262 312
#     4  10  20  32  48  72 102 137 174 211 255 306
#
# _framework density 18.307288
#
# number of rings (size 3 to 8) (size 9 to 14) (size 15 to 20)
#    0.000    2.200    0.000    4.200    0.000    9.600 
#    0.000    1.000    0.000    1.200    0.000    0.000 
#    0.000    0.000    0.000    0.000    0.000    0.000 
#
# Total GULP energy -496113.228570 kJ/mol
# GULP energy per Si atom -12402.830714 kJ/mol
# Density = 1.826562 g / cm^3
# Si number density = 18.307288 Si / 1000 Ang^3
#
#
#
# Elastic Constant Matrix: (Units=GPa)
#
#
# Indices 1 2 3 4 5 6 
#
# 1 101.7014 43.2196 58.6997 0.0000 0.0000 0.0000
# 2 43.2196 90.6957 50.1535 0.0000 0.0000 0.0000
# 3 58.6997 50.1535 121.9062 0.0000 0.0000 0.0000
# 4 0.0000 0.0000 0.0000 35.7274 0.0000 0.0000
# 5 0.0000 0.0000 0.0000 0.0000 33.6412 0.0000
# 6 0.0000 0.0000 0.0000 0.0000 0.0000 18.2969
#
#
#
# Elastic Compliance Matrix: (Units=1/GPa)
#
#
# Indices 1 2 3 4 5 6 
#
# 1 0.014653 -0.003988 -0.005415 0.000000 0.000000 0.000000
# 2 -0.003988 0.015359 -0.004398 0.000000 0.000000 0.000000
# 3 -0.005415 -0.004398 0.012620 0.000000 0.000000 0.000000
# 4 0.000000 0.000000 0.000000 0.027990 0.000000 0.000000
# 5 0.000000 0.000000 0.000000 0.000000 0.029725 0.000000
# 6 0.000000 0.000000 0.000000 0.000000 0.000000 0.054654
#
#
# Mechanical properties :
#
#
# Convention : Reuss Voigt Hill
#
# Bulk Modulus (GPa) = 66.53955 68.71652 67.62804
# Shear Modulus (GPa) = 26.65065 28.34846 27.49956
#
# Velocity S-wave (km/s) = 3.81956 3.93934 3.87991
# Velocity P-wave (km/s) = 7.47508 7.63595 7.55595
#
# Compressibility (1/GPa) = 0.01502865
#
# Stress axis : x y z
#
# Youngs Moduli (GPa) = 68.24598 65.10998 79.24048
#
# Poissons Ratio (x) = 0.25968 0.42907
# Poissons Ratio (y) = 0.27219 0.34852
# Poissons Ratio (z) = 0.36954 0.28637
#
# Static dielectric constant tensor:
#      x y z
#    x 3.342900 0.000000 0.000000 
#    y 0.000000 3.201440 0.000000 
#    z 0.000000 0.000000 3.526800 
# 
# 
# High freq. dielectric constant tensor:
#      x y z
#    x 1.708650 0.000000 0.000000 
#    y 0.000000 1.693330 0.000000 
#    z 0.000000 0.000000 1.726560 
# 
# From -- ./inp_files/6365.got.cif
#   From: 2010.03.12/outbox.cif.g09.slc.cpg/sg63_4_cif.got.tgz:6365.got - 2010.04.10 19:34:48.
