data_PCOD8258614
_publ_section_title
;
Structure prediction by ZEFSAII (Michael W. Deem and Ramdas Pophale) SiO2 
 PCOD8258614
Probable space group: C M C M
;
_chemical_formula_sum "Si O2"
_cell_formula_units_Z 80
_cell_length_a 20.266355
_cell_length_b 23.102759
_cell_length_c 9.000417
_cell_angle_alpha 90.000000
_cell_angle_beta 90.000000
_cell_angle_gamma 90.000000
_cell_volume 4214.073681
_symmetry_space_group_name_H-M "C M C M"
_symmetry_group_IT_number 63
_symmetry_cell_setting 'orthorhombic'
loop_
_space_group_symop_operation_xyz
x,y,z
-x,-y,1/2+z
x,-y,-z
-x,y,1/2-z
-x,-y,-z
x,y,1/2-z
-x,y,z
x,-y,1/2+z
1/2+x,1/2+y,z
1/2-x,1/2-y,1/2+z
1/2+x,1/2-y,-z
1/2-x,1/2+y,1/2-z
1/2-x,1/2-y,-z
1/2+x,1/2+y,1/2-z
1/2-x,1/2+y,z
1/2+x,1/2-y,1/2+z
loop_
_atom_site_type_symbol
_atom_site_label
_atom_site_fract_x
_atom_site_fract_y
_atom_site_fract_z
Si Si1 0.000000 0.060488 0.422286
Si Si2 0.116717 0.624256 0.921584
Si Si3 0.746112 0.437550 0.423770
Si Si4 0.500000 0.061158 0.075796
Si Si5 0.074231 0.250106 0.424049
Si Si6 0.370929 0.369729 0.925230
O O1 0.064048 0.095595 0.470287
O O2 0.000000 0.048146 0.250000
O O3 0.000000 0.000000 0.500000
O O4 0.096197 0.614293 0.750000
O O5 0.187045 0.596878 0.957193
O O6 0.116139 0.692410 0.960313
O O7 0.064864 0.594880 0.028997
O O8 0.747440 0.500000 0.500000
O O9 0.734841 0.447569 0.250000
O O10 0.689115 0.397275 0.486761
O O11 0.500000 0.052159 0.250000
O O12 0.500000 0.000000 0.000000
O O13 0.064967 0.241155 0.250000
O O14 0.116780 0.195798 0.483342
O O15 0.000000 0.253144 0.494210
O O16 0.355945 0.372567 0.750000
#
# Coordination Sequence:
#
# PCOD8258614 Si02
#       6
#     8  16  16   8  16  16
#     4  10  20  33  52  80 108 143 193 238 281 338
#     4  10  21  39  63  87 116 156 198 239 290 351
#     4  11  24  40  58  84 118 157 198 243 295 350
#     4  12  24  37  58  88 118 151 197 248 299 348
#     4   9  16  33  63  90 115 151 194 235 285 353
#     4  10  20  36  60  87 115 152 196 239 288 351
#
# _framework density 18.984005
#
# number of rings (size 3 to 8) (size 9 to 14) (size 15 to 20)
#    0.000    1.800    2.000    2.700    0.000    6.400 
#    0.000    1.000    0.000    0.000    0.000    0.000 
#    0.000    0.000    0.000    0.000    0.000    0.000 
#
# Total GULP energy -496010.069355 kJ/mol
# GULP energy per Si atom -12400.251734 kJ/mol
# Density = 1.894080 g / cm^3
# Si number density = 18.984005 Si / 1000 Ang^3
#
#
#
# Elastic Constant Matrix: (Units=GPa)
#
#
# Indices 1 2 3 4 5 6 
#
# 1 147.7507 86.1095 66.5456 0.0000 0.0000 0.0000
# 2 86.1095 192.7697 62.5229 0.0000 0.0000 0.0000
# 3 66.5456 62.5229 80.1961 0.0000 0.0000 0.0000
# 4 0.0000 0.0000 0.0000 15.8452 0.0000 0.0000
# 5 0.0000 0.0000 0.0000 0.0000 27.7109 0.0000
# 6 0.0000 0.0000 0.0000 0.0000 0.0000 39.8985
#
#
#
# Elastic Compliance Matrix: (Units=1/GPa)
#
#
# Indices 1 2 3 4 5 6 
#
# 1 0.011849 -0.002816 -0.007637 0.000000 0.000000 0.000000
# 2 -0.002816 0.007612 -0.003598 0.000000 0.000000 0.000000
# 3 -0.007637 -0.003598 0.021611 0.000000 0.000000 0.000000
# 4 0.000000 0.000000 0.000000 0.063111 0.000000 0.000000
# 5 0.000000 0.000000 0.000000 0.000000 0.036087 0.000000
# 6 0.000000 0.000000 0.000000 0.000000 0.000000 0.025064
#
#
# Mechanical properties :
#
#
# Convention : Reuss Voigt Hill
#
# Bulk Modulus (GPa) = 77.09406 94.56363 85.82885
# Shear Modulus (GPa) = 25.28332 30.39347 27.83840
#
# Velocity S-wave (km/s) = 3.65337 4.00560 3.83353
# Velocity P-wave (km/s) = 7.64816 8.44473 8.05630
#
# Compressibility (1/GPa) = 0.01297117
#
# Stress axis : x y z
#
# Youngs Moduli (GPa) = 84.39730 131.36348 46.27191
#
# Poissons Ratio (x) = 0.36991 0.35336
# Poissons Ratio (y) = 0.23766 0.16650
# Poissons Ratio (z) = 0.64450 0.47268
#
# Static dielectric constant tensor:
#      x y z
#    x 3.561840 0.000000 0.000000 
#    y 0.000000 4.137990 0.000000 
#    z 0.000000 0.000000 3.401010 
# 
# 
# High freq. dielectric constant tensor:
#      x y z
#    x 1.744290 0.000000 0.000000 
#    y 0.000000 1.760550 0.000000 
#    z 0.000000 0.000000 1.714060 
# 
# From -- ./inp_files/8113.got.cif
#   From: 2010.03.12/outbox.cif.g09.slc.cpg/sg63_5_cif.got.tgz:8113.got - 2010.04.10 19:34:48.
