data_PCOD8258027
_publ_section_title
;
Structure prediction by ZEFSAII (Michael W. Deem and Ramdas Pophale) SiO2 
 PCOD8258027
Probable space group: C M C M
;
_chemical_formula_sum "Si O2"
_cell_formula_units_Z 80
_cell_length_a 9.117816
_cell_length_b 18.182936
_cell_length_c 25.795765
_cell_angle_alpha 90.000000
_cell_angle_beta 90.000000
_cell_angle_gamma 90.000000
_cell_volume 4276.645437
_symmetry_space_group_name_H-M "C M C M"
_symmetry_group_IT_number 63
_symmetry_cell_setting 'orthorhombic'
loop_
_space_group_symop_operation_xyz
x,y,z
-x,-y,1/2+z
x,-y,-z
-x,y,1/2-z
-x,-y,-z
x,y,1/2-z
-x,y,z
x,-y,1/2+z
1/2+x,1/2+y,z
1/2-x,1/2-y,1/2+z
1/2+x,1/2-y,-z
1/2-x,1/2+y,1/2-z
1/2-x,1/2-y,-z
1/2+x,1/2+y,1/2-z
1/2-x,1/2+y,z
1/2+x,1/2-y,1/2+z
loop_
_atom_site_type_symbol
_atom_site_label
_atom_site_fract_x
_atom_site_fract_y
_atom_site_fract_z
Si Si1 0.669817 0.822471 0.750000
Si Si2 0.328192 0.913227 0.852135
Si Si3 0.171113 0.165543 0.054195
Si Si4 0.173833 0.580445 0.849004
Si Si5 0.674876 0.831724 0.250000
Si Si6 0.171272 0.335898 0.450049
O O1 0.500000 0.799638 0.750000
O O2 0.710133 0.870397 0.700093
O O3 0.768317 0.750735 0.750000
O O4 0.500000 0.910054 0.865067
O O5 0.240387 0.878457 0.898973
O O6 0.273290 0.996648 0.844994
O O7 0.204647 0.251273 0.062965
O O8 0.000000 0.148858 0.051877
O O9 0.242320 0.137790 0.000762
O O10 0.236934 0.625986 0.800386
O O11 0.231869 0.616265 0.902219
O O12 0.000000 0.585213 0.847545
O O13 0.500000 0.829539 0.250000
O O14 0.000000 0.349166 0.460241
#
# Coordination Sequence:
#
# PCOD8258027 Si02
#       6
#     8  16  16  16   8  16
#     4  10  21  35  53  79 107 134 166 206 258 312
#     4  10  20  35  54  76 105 138 171 210 255 305
#     4  10  20  34  53  78 105 134 172 216 261 306
#     4   9  18  33  55  79 101 133 177 215 248 296
#     4  10  19  35  59  81 103 134 174 216 252 296
#     4   9  18  34  54  75 101 136 177 215 252 301
#
# _framework density 18.706251000000002
#
# number of rings (size 3 to 8) (size 9 to 14) (size 15 to 20)
#    0.000    2.400    0.000    2.400    0.000    6.400 
#    0.000    7.000    0.000    1.200    0.000    0.000 
#    0.000    0.000    0.000    0.000    0.000    0.000 
#
# Total GULP energy -496111.420963 kJ/mol
# GULP energy per Si atom -12402.785524 kJ/mol
# Density = 1.866367 g / cm^3
# Si number density = 18.706251 Si / 1000 Ang^3
#
#
#
# Elastic Constant Matrix: (Units=GPa)
#
#
# Indices 1 2 3 4 5 6 
#
# 1 48.5642 46.6116 57.7037 0.0000 0.0000 0.0000
# 2 46.6116 122.0145 93.2585 0.0000 0.0000 0.0000
# 3 57.7037 93.2585 189.0711 0.0000 0.0000 0.0000
# 4 0.0000 0.0000 0.0000 66.0884 0.0000 0.0000
# 5 0.0000 0.0000 0.0000 0.0000 -15.1672 0.0000
# 6 0.0000 0.0000 0.0000 0.0000 0.0000 27.5443
#
#
#
# Elastic Compliance Matrix: (Units=1/GPa)
#
#
# Indices 1 2 3 4 5 6 
#
# 1 0.037566 -0.008969 -0.007041 0.000000 0.000000 0.000000
# 2 -0.008969 0.015297 -0.004808 0.000000 0.000000 0.000000
# 3 -0.007041 -0.004808 0.009809 0.000000 0.000000 0.000000
# 4 0.000000 0.000000 0.000000 0.015131 0.000000 0.000000
# 5 0.000000 0.000000 0.000000 0.000000 -0.065932 0.000000
# 6 0.000000 0.000000 0.000000 0.000000 0.000000 0.036305
#
#
# Mechanical properties :
#
#
# Convention : Reuss Voigt Hill
#
# Bulk Modulus (GPa) = 47.53708 83.86637 65.70172
# Shear Modulus (GPa) = 51.63980 26.49818 39.06899
#
# Velocity S-wave (km/s) = 5.25981 3.76778 4.57503
# Velocity P-wave (km/s) = 7.89652 7.99118 7.94399
#
# Compressibility (1/GPa) = 0.02103621
#
# Stress axis : x y z
#
# Youngs Moduli (GPa) = 26.61984 65.37313 101.94488
#
# Poissons Ratio (x) = 0.58635 0.71778
# Poissons Ratio (y) = 0.23876 0.49012
# Poissons Ratio (z) = 0.18743 0.31429
#
# Static dielectric constant tensor:
#      x y z
#    x 3.182160 0.000000 0.000000 
#    y 0.000000 3.508860 0.000000 
#    z 0.000000 0.000000 3.690290 
# 
# 
# High freq. dielectric constant tensor:
#      x y z
#    x 1.699220 0.000000 0.000000 
#    y 0.000000 1.731000 0.000000 
#    z 0.000000 0.000000 1.745220 
# 
# From -- ./inp_files/66694.got.cif
#   From: 2010.03.12/outbox.cif.g09.slc.cpg/sg63_34_cif.got.tgz:66694.got - 2010.04.10 19:34:48.
