data_PCOD8258693
_publ_section_title
;
Structure prediction by ZEFSAII (Michael W. Deem and Ramdas Pophale) SiO2 
 PCOD8258693
Probable space group: C M C M
;
_chemical_formula_sum "Si O2"
_cell_formula_units_Z 80
_cell_length_a 9.694449
_cell_length_b 16.037438
_cell_length_c 27.665344
_cell_angle_alpha 90.000000
_cell_angle_beta 90.000000
_cell_angle_gamma 90.000000
_cell_volume 4301.245145
_symmetry_space_group_name_H-M "C M C M"
_symmetry_group_IT_number 63
_symmetry_cell_setting 'orthorhombic'
loop_
_space_group_symop_operation_xyz
x,y,z
-x,-y,1/2+z
x,-y,-z
-x,y,1/2-z
-x,-y,-z
x,y,1/2-z
-x,y,z
x,-y,1/2+z
1/2+x,1/2+y,z
1/2-x,1/2-y,1/2+z
1/2+x,1/2-y,-z
1/2-x,1/2+y,1/2-z
1/2-x,1/2-y,-z
1/2+x,1/2+y,1/2-z
1/2-x,1/2+y,z
1/2+x,1/2-y,1/2+z
loop_
_atom_site_type_symbol
_atom_site_label
_atom_site_fract_x
_atom_site_fract_y
_atom_site_fract_z
Si Si1 0.500000 0.097740 0.509628
Si Si2 0.000000 0.736616 0.306908
Si Si3 0.000000 0.079857 0.569273
Si Si4 0.500000 0.112543 0.876680
Si Si5 0.000000 0.423596 0.866965
Si Si6 0.000000 0.109502 0.038413
Si Si7 0.206439 0.181149 0.624639
Si Si8 0.294744 0.841105 0.564398
O O1 0.500000 0.109989 0.566015
O O2 0.363508 0.142372 0.488013
O O3 0.500000 0.000000 0.500000
O O4 0.865386 0.784322 0.326995
O O5 0.000000 0.743841 0.250000
O O6 0.000000 0.638269 0.320964
O O7 0.865595 0.098877 0.602269
O O8 0.000000 0.129757 0.518582
O O9 0.000000 0.985895 0.552789
O O10 0.636136 0.162779 0.860482
O O11 0.500000 0.020841 0.851965
O O12 0.863528 0.407109 0.898886
O O13 0.868113 0.150141 0.063045
O O14 0.178049 0.248225 0.582538
#
# Coordination Sequence:
#
# PCOD8258693 Si02
#       8
#     8   8   8   8   8   8  16  16
#     4  11  21  31  53  71 113 166 201 225 252 303
#     4   9  20  44  66  77  99 142 175 215 290 369
#     4  10  21  32  45  73 108 151 192 223 252 306
#     4  12  20  33  56  86 118 145 179 236 276 298
#     4   9  19  36  58  78 108 139 184 217 269 342
#     4  11  21  29  50  71 110 150 193 223 253 303
#     4  10  22  36  55  81 112 139 181 234 278 325
#     4  10  20  34  48  75 107 153 196 223 257 313
#
# _framework density 18.599264999999999
#
# number of rings (size 3 to 8) (size 9 to 14) (size 15 to 20)
#    0.000    1.800    2.000    4.800    2.800    4.800 
#    0.000    1.500    0.000    0.000    0.000    0.000 
#    0.000    0.000    0.000    0.000    0.000    0.000 
#
# Total GULP energy -495909.461407 kJ/mol
# GULP energy per Si atom -12397.736535 kJ/mol
# Density = 1.855693 g / cm^3
# Si number density = 18.599265 Si / 1000 Ang^3
#
#
#
# Elastic Constant Matrix: (Units=GPa)
#
#
# Indices 1 2 3 4 5 6 
#
# 1 158.3639 32.1307 43.9830 0.0000 0.0000 0.0000
# 2 32.1307 76.9572 38.3232 0.0000 0.0000 0.0000
# 3 43.9830 38.3232 109.2891 0.0000 0.0000 0.0000
# 4 0.0000 0.0000 0.0000 17.9748 0.0000 0.0000
# 5 0.0000 0.0000 0.0000 0.0000 9.5075 0.0000
# 6 0.0000 0.0000 0.0000 0.0000 0.0000 24.2886
#
#
#
# Elastic Compliance Matrix: (Units=1/GPa)
#
#
# Indices 1 2 3 4 5 6 
#
# 1 0.007338 -0.001930 -0.002276 0.000000 0.000000 0.000000
# 2 -0.001930 0.016251 -0.004922 0.000000 0.000000 0.000000
# 3 -0.002276 -0.004922 0.011792 0.000000 0.000000 0.000000
# 4 0.000000 0.000000 0.000000 0.055634 0.000000 0.000000
# 5 0.000000 0.000000 0.000000 0.000000 0.105180 0.000000
# 6 0.000000 0.000000 0.000000 0.000000 0.000000 0.041172
#
#
# Mechanical properties :
#
#
# Convention : Reuss Voigt Hill
#
# Bulk Modulus (GPa) = 58.39551 63.72046 61.05798
# Shear Modulus (GPa) = 19.13278 25.69908 22.41593
#
# Velocity S-wave (km/s) = 3.21079 3.72119 3.47537
# Velocity P-wave (km/s) = 6.72387 7.26616 7.00027
#
# Compressibility (1/GPa) = 0.01712460
#
# Stress axis : x y z
#
# Youngs Moduli (GPa) = 136.26846 61.53433 84.80283
#
# Poissons Ratio (x) = 0.11878 0.19305
# Poissons Ratio (y) = 0.26303 0.41738
# Poissons Ratio (z) = 0.31021 0.30286
#
# Static dielectric constant tensor:
#      x y z
#    x 3.481150 0.000000 0.000000 
#    y 0.000000 3.490980 0.000000 
#    z 0.000000 0.000000 3.064670 
# 
# 
# High freq. dielectric constant tensor:
#      x y z
#    x 1.733430 0.000000 0.000000 
#    y 0.000000 1.728410 0.000000 
#    z 0.000000 0.000000 1.672970 
# 
# From -- ./inp_files/66757.got.cif
#   From: 2010.03.12/outbox.cif.g09.slc.cpg/sg63_34_cif.got.tgz:66757.got - 2010.04.10 19:34:48.
