data_PCOD8258349
_publ_section_title
;
Structure prediction by ZEFSAII (Michael W. Deem and Ramdas Pophale) SiO2 
 PCOD8258349
Probable space group: C M C M
;
_chemical_formula_sum "Si O2"
_cell_formula_units_Z 72
_cell_length_a 13.502291
_cell_length_b 35.886612
_cell_length_c 7.564443
_cell_angle_alpha 90.000000
_cell_angle_beta 90.000000
_cell_angle_gamma 90.000000
_cell_volume 3665.362038
_symmetry_space_group_name_H-M "C M C M"
_symmetry_group_IT_number 63
_symmetry_cell_setting 'orthorhombic'
loop_
_space_group_symop_operation_xyz
x,y,z
-x,-y,1/2+z
x,-y,-z
-x,y,1/2-z
-x,-y,-z
x,y,1/2-z
-x,y,z
x,-y,1/2+z
1/2+x,1/2+y,z
1/2-x,1/2-y,1/2+z
1/2+x,1/2-y,-z
1/2-x,1/2+y,1/2-z
1/2-x,1/2-y,-z
1/2+x,1/2+y,1/2-z
1/2-x,1/2+y,z
1/2+x,1/2-y,1/2+z
loop_
_atom_site_type_symbol
_atom_site_label
_atom_site_fract_x
_atom_site_fract_y
_atom_site_fract_z
Si Si1 0.116961 0.309327 0.053335
Si Si2 0.384408 0.135343 0.250000
Si Si3 0.118057 0.771145 0.448667
Si Si4 0.203952 0.908140 0.750000
Si Si5 0.617626 0.325902 0.750000
Si Si6 0.615243 0.458504 0.045795
O O1 0.149129 0.321252 0.250000
O O2 0.000000 0.305217 0.035807
O O3 0.151495 0.341147 0.919312
O O4 0.164040 0.268952 0.006387
O O5 0.500000 0.125458 0.250000
O O6 0.323179 0.096782 0.250000
O O7 0.151757 0.781014 0.250000
O O8 0.157158 0.803960 0.576368
O O9 0.000000 0.768410 0.462555
O O10 0.155587 0.867643 0.750000
O O11 0.174752 0.929686 0.573073
O O12 0.500000 0.327009 0.750000
O O13 0.636333 0.449357 0.250000
O O14 0.500000 0.454518 0.998652
O O15 0.651645 0.500000 0.000000
#
# Coordination Sequence:
#
# PCOD8258349 Si02
#       6
#    16   8  16   8   8  16
#     4   9  15  28  53  76  96 142 208 258 293 336
#     4  10  22  38  56  80 113 155 206 259 298 326
#     4   9  15  26  48  73 101 145 196 237 285 351
#     4  12  24  38  58  90 126 153 187 241 296 339
#     4  10  20  32  48  78 117 148 175 230 306 359
#     4  10  20  38  68 100 124 151 184 215 263 348
#
# _framework density 19.643353000000001
#
# number of rings (size 3 to 8) (size 9 to 14) (size 15 to 20)
#    0.000    2.222    3.333    1.000    0.000    1.778 
#    0.000    3.333    0.000    0.667    0.000    0.000 
#    0.000    0.000    0.000    0.000    0.000    0.000 
#
# Total GULP energy -446441.389736 kJ/mol
# GULP energy per Si atom -12401.149715 kJ/mol
# Density = 1.959864 g / cm^3
# Si number density = 19.643353 Si / 1000 Ang^3
#
#
#
# Elastic Constant Matrix: (Units=GPa)
#
#
# Indices 1 2 3 4 5 6 
#
# 1 51.3591 51.7002 30.9960 0.0000 0.0000 0.0000
# 2 51.7002 141.6219 83.9046 0.0000 0.0000 0.0000
# 3 30.9960 83.9046 180.7527 0.0000 0.0000 0.0000
# 4 0.0000 0.0000 0.0000 40.5763 0.0000 0.0000
# 5 0.0000 0.0000 0.0000 0.0000 6.4466 0.0000
# 6 0.0000 0.0000 0.0000 0.0000 0.0000 33.1795
#
#
#
# Elastic Compliance Matrix: (Units=1/GPa)
#
#
# Indices 1 2 3 4 5 6 
#
# 1 0.030784 -0.011187 -0.000086 0.000000 0.000000 0.000000
# 2 -0.011187 0.013805 -0.004490 0.000000 0.000000 0.000000
# 3 -0.000086 -0.004490 0.007631 0.000000 0.000000 0.000000
# 4 0.000000 0.000000 0.000000 0.024645 0.000000 0.000000
# 5 0.000000 0.000000 0.000000 0.000000 0.155121 0.000000
# 6 0.000000 0.000000 0.000000 0.000000 0.000000 0.030139
#
#
# Mechanical properties :
#
#
# Convention : Reuss Voigt Hill
#
# Bulk Modulus (GPa) = 48.32171 78.54836 63.43503
# Shear Modulus (GPa) = 16.63620 29.84933 23.24277
#
# Velocity S-wave (km/s) = 2.91333 3.90239 3.44355
# Velocity P-wave (km/s) = 5.99747 7.77039 6.94077
#
# Compressibility (1/GPa) = 0.02069463
#
# Stress axis : x y z
#
# Youngs Moduli (GPa) = 32.48455 72.43767 131.03885
#
# Poissons Ratio (x) = 0.81036 0.01126
# Poissons Ratio (y) = 0.36340 0.58834
# Poissons Ratio (z) = 0.00279 0.32523
#
# Static dielectric constant tensor:
#      x y z
#    x 3.480680 0.000000 0.000000 
#    y 0.000000 3.434090 0.000000 
#    z 0.000000 0.000000 3.875340 
# 
# 
# High freq. dielectric constant tensor:
#      x y z
#    x 1.761140 0.000000 0.000000 
#    y 0.000000 1.737020 0.000000 
#    z 0.000000 0.000000 1.783990 
# 
# From -- ./inp_files/4704.got.cif
#   From: 2010.03.12/outbox.cif.g09.slc.cpg/sg63_3_cif.got.tgz:4704.got - 2010.04.10 19:34:48.
