data_PCOD8258931
_publ_section_title
;
Structure prediction by ZEFSAII (Michael W. Deem and Ramdas Pophale) SiO2 
 PCOD8258931
Probable space group: C M C M
;
_chemical_formula_sum "Si O2"
_cell_formula_units_Z 72
_cell_length_a 28.789262
_cell_length_b 14.002997
_cell_length_c 8.876309
_cell_angle_alpha 90.000000
_cell_angle_beta 90.000000
_cell_angle_gamma 90.000000
_cell_volume 3578.359256
_symmetry_space_group_name_H-M "C M C M"
_symmetry_group_IT_number 63
_symmetry_cell_setting 'orthorhombic'
loop_
_space_group_symop_operation_xyz
x,y,z
-x,-y,1/2+z
x,-y,-z
-x,y,1/2-z
-x,-y,-z
x,y,1/2-z
-x,y,z
x,-y,1/2+z
1/2+x,1/2+y,z
1/2-x,1/2-y,1/2+z
1/2+x,1/2-y,-z
1/2-x,1/2+y,1/2-z
1/2-x,1/2-y,-z
1/2+x,1/2+y,1/2-z
1/2-x,1/2+y,z
1/2+x,1/2-y,1/2+z
loop_
_atom_site_type_symbol
_atom_site_label
_atom_site_fract_x
_atom_site_fract_y
_atom_site_fract_z
Si Si1 0.054309 0.401145 0.422553
Si Si2 0.418205 0.283730 0.076108
Si Si3 0.687408 0.704217 0.576795
Si Si4 0.500000 0.602500 0.427952
Si Si5 0.267902 0.900444 0.926412
O O1 0.066555 0.500000 0.500000
O O2 0.071095 0.402481 0.250000
O O3 0.082277 0.324051 0.517628
O O4 0.000000 0.377128 0.432602
O O5 0.433765 0.286784 0.250000
O O6 0.366323 0.323074 0.054296
O O7 0.453437 0.344522 0.977251
O O8 0.702622 0.692739 0.750000
O O9 0.697397 0.814057 0.526441
O O10 0.716195 0.628560 0.479146
O O11 0.500000 0.500000 0.500000
O O12 0.500000 0.594240 0.250000
O O13 0.267371 0.917615 0.750000
O O14 0.284367 0.000000 0.000000
#
# Coordination Sequence:
#
# PCOD8258931 Si02
#       5
#    16  16  16   8  16
#     4  10  20  34  54  81 114 152 193 237 284 342
#     4  11  22  39  62  87 119 155 194 245 296 346
#     4   9  21  39  59  87 118 152 195 238 288 347
#     4  12  26  44  63  86 115 154 202 246 292 344
#     4  10  20  37  61  87 118 154 190 236 290 346
#
# _framework density 20.120951999999999
#
# number of rings (size 3 to 8) (size 9 to 14) (size 15 to 20)
#    0.000    1.778    1.111    3.000    0.000    5.333 
#    0.000    2.222    0.000    0.000    0.000    0.000 
#    0.000    0.000    0.000    0.000    0.000    0.000 
#
# Total GULP energy -446512.423407 kJ/mol
# GULP energy per Si atom -12403.122872 kJ/mol
# Density = 2.007516 g / cm^3
# Si number density = 20.120952 Si / 1000 Ang^3
#
#
#
# Elastic Constant Matrix: (Units=GPa)
#
#
# Indices 1 2 3 4 5 6 
#
# 1 80.6846 22.7037 37.6096 0.0000 0.0000 0.0000
# 2 22.7037 84.2681 37.8518 0.0000 0.0000 0.0000
# 3 37.6096 37.8518 121.3505 0.0000 0.0000 0.0000
# 4 0.0000 0.0000 0.0000 42.3350 0.0000 0.0000
# 5 0.0000 0.0000 0.0000 0.0000 27.1853 0.0000
# 6 0.0000 0.0000 0.0000 0.0000 0.0000 15.8462
#
#
#
# Elastic Compliance Matrix: (Units=1/GPa)
#
#
# Indices 1 2 3 4 5 6 
#
# 1 0.014844 -0.002248 -0.003899 0.000000 0.000000 0.000000
# 2 -0.002248 0.014141 -0.003714 0.000000 0.000000 0.000000
# 3 -0.003899 -0.003714 0.010608 0.000000 0.000000 0.000000
# 4 0.000000 0.000000 0.000000 0.023621 0.000000 0.000000
# 5 0.000000 0.000000 0.000000 0.000000 0.036785 0.000000
# 6 0.000000 0.000000 0.000000 0.000000 0.000000 0.063107
#
#
# Mechanical properties :
#
#
# Convention : Reuss Voigt Hill
#
# Bulk Modulus (GPa) = 50.32764 53.62594 51.97679
# Shear Modulus (GPa) = 26.39204 29.61583 28.00393
#
# Velocity S-wave (km/s) = 3.62563 3.84068 3.73470
# Velocity P-wave (km/s) = 6.52639 6.81010 6.66975
#
# Compressibility (1/GPa) = 0.01986980
#
# Stress axis : x y z
#
# Youngs Moduli (GPa) = 67.36695 70.71720 94.27154
#
# Poissons Ratio (x) = 0.15896 0.36760
# Poissons Ratio (y) = 0.15143 0.35014
# Poissons Ratio (z) = 0.26269 0.26266
#
# Static dielectric constant tensor:
#      x y z
#    x 3.473790 0.000000 0.000000 
#    y 0.000000 3.644480 0.000000 
#    z 0.000000 0.000000 3.738520 
# 
# 
# High freq. dielectric constant tensor:
#      x y z
#    x 1.776480 0.000000 0.000000 
#    y 0.000000 1.787950 0.000000 
#    z 0.000000 0.000000 1.796910 
# 
# From -- ./inp_files/13900.got.cif
#   From: 2010.03.12/outbox.cif.g09.slc.cpg/sg63_7_cif.got.tgz:13900.got - 2010.04.10 19:34:48.
