data_PCOD8258163
_publ_section_title
;
Structure prediction by ZEFSAII (Michael W. Deem and Ramdas Pophale) SiO2 
 PCOD8258163
Probable space group: C M C M
;
_chemical_formula_sum "Si O2"
_cell_formula_units_Z 80
_cell_length_a 23.422801
_cell_length_b 11.043809
_cell_length_c 14.692584
_cell_angle_alpha 90.000000
_cell_angle_beta 90.000000
_cell_angle_gamma 90.000000
_cell_volume 3800.632677
_symmetry_space_group_name_H-M "C M C M"
_symmetry_group_IT_number 63
_symmetry_cell_setting 'orthorhombic'
loop_
_space_group_symop_operation_xyz
x,y,z
-x,-y,1/2+z
x,-y,-z
-x,y,1/2-z
-x,-y,-z
x,y,1/2-z
-x,y,z
x,-y,1/2+z
1/2+x,1/2+y,z
1/2-x,1/2-y,1/2+z
1/2+x,1/2-y,-z
1/2-x,1/2+y,1/2-z
1/2-x,1/2-y,-z
1/2+x,1/2+y,1/2-z
1/2-x,1/2+y,z
1/2+x,1/2-y,1/2+z
loop_
_atom_site_type_symbol
_atom_site_label
_atom_site_fract_x
_atom_site_fract_y
_atom_site_fract_z
Si Si1 0.652391 0.225816 0.849962
Si Si2 0.341991 0.620306 0.520634
Si Si3 0.935465 0.534378 0.895677
Si Si4 0.243869 0.517382 0.648120
Si Si5 0.149134 0.334053 0.850490
O O1 0.644927 0.286052 0.750000
O O2 0.698871 0.123382 0.844391
O O3 0.592332 0.166373 0.880782
O O4 0.674025 0.326419 0.921387
O O5 0.381693 0.500000 0.500000
O O6 0.288841 0.558228 0.572926
O O7 0.369359 0.725109 0.582208
O O8 0.901646 0.430643 0.841748
O O9 0.000000 0.539291 0.859045
O O10 0.932515 0.500000 0.000000
O O11 0.269842 0.495386 0.750000
O O12 0.208177 0.397432 0.615792
O O13 0.159106 0.278858 0.750000
#
# Coordination Sequence:
#
# PCOD8258163 Si02
#       5
#    16  16  16  16  16
#     4  10  22  39  57  86 122 151 194 248 299 354
#     4  12  25  36  57  81 119 169 203 232 288 350
#     4  10  19  37  69  97 116 145 191 251 318 362
#     4   9  21  37  57  84 113 152 200 250 295 343
#     4  10  22  40  60  88 122 151 197 255 300 351
#
# _framework density 21.049128
#
# number of rings (size 3 to 8) (size 9 to 14) (size 15 to 20)
#    0.000    1.800    2.000    3.000    5.600    3.200 
#    0.000    0.000    0.000    2.400    0.000    2.800 
#    0.000    0.000    0.000    0.000    0.000    0.000 
#
# Total GULP energy -495566.257706 kJ/mol
# GULP energy per Si atom -12389.156443 kJ/mol
# Density = 2.100122 g / cm^3
# Si number density = 21.049128 Si / 1000 Ang^3
#
#
#
# Elastic Constant Matrix: (Units=GPa)
#
#
# Indices 1 2 3 4 5 6 
#
# 1 76.0740 27.9894 26.8336 0.0000 0.0000 0.0000
# 2 27.9894 117.0978 54.9827 0.0000 0.0000 0.0000
# 3 26.8336 54.9827 146.4701 0.0000 0.0000 0.0000
# 4 0.0000 0.0000 0.0000 12.4808 0.0000 0.0000
# 5 0.0000 0.0000 0.0000 0.0000 7.9749 0.0000
# 6 0.0000 0.0000 0.0000 0.0000 0.0000 7.9311
#
#
#
# Elastic Compliance Matrix: (Units=1/GPa)
#
#
# Indices 1 2 3 4 5 6 
#
# 1 0.014743 -0.002738 -0.001673 0.000000 0.000000 0.000000
# 2 -0.002738 0.010876 -0.003581 0.000000 0.000000 0.000000
# 3 -0.001673 -0.003581 0.008478 0.000000 0.000000 0.000000
# 4 0.000000 0.000000 0.000000 0.080123 0.000000 0.000000
# 5 0.000000 0.000000 0.000000 0.000000 0.125393 0.000000
# 6 0.000000 0.000000 0.000000 0.000000 0.000000 0.126086
#
#
# Mechanical properties :
#
#
# Convention : Reuss Voigt Hill
#
# Bulk Modulus (GPa) = 55.21181 62.13924 58.67553
# Shear Modulus (GPa) = 12.89587 20.99977 16.94782
#
# Velocity S-wave (km/s) = 2.47787 3.16199 2.84060
# Velocity P-wave (km/s) = 5.87141 6.55104 6.22051
#
# Compressibility (1/GPa) = 0.01811207
#
# Stress axis : x y z
#
# Youngs Moduli (GPa) = 67.83012 91.94703 117.95166
#
# Poissons Ratio (x) = 0.25178 0.19733
# Poissons Ratio (y) = 0.18574 0.42238
# Poissons Ratio (z) = 0.11348 0.32926
#
# Static dielectric constant tensor:
#      x y z
#    x 3.572000 0.000000 0.000000 
#    y 0.000000 4.046250 0.000000 
#    z 0.000000 0.000000 4.541080 
# 
# 
# High freq. dielectric constant tensor:
#      x y z
#    x 1.767460 0.000000 0.000000 
#    y 0.000000 1.827150 0.000000 
#    z 0.000000 0.000000 1.856060 
# 
# From -- ./inp_files/36482.got.cif
#   From: 2010.03.12/outbox.cif.g09.slc.cpg/sg63_19_cif.got.tgz:36482.got - 2010.04.10 19:34:48.
