data_PCOD8258851
_publ_section_title
;
Structure prediction by ZEFSAII (Michael W. Deem and Ramdas Pophale) SiO2 
 PCOD8258851
Probable space group: C M C M
;
_chemical_formula_sum "Si O2"
_cell_formula_units_Z 80
_cell_length_a 13.842513
_cell_length_b 18.096342
_cell_length_c 14.811440
_cell_angle_alpha 90.000000
_cell_angle_beta 90.000000
_cell_angle_gamma 90.000000
_cell_volume 3710.248678
_symmetry_space_group_name_H-M "C M C M"
_symmetry_group_IT_number 63
_symmetry_cell_setting 'orthorhombic'
loop_
_space_group_symop_operation_xyz
x,y,z
-x,-y,1/2+z
x,-y,-z
-x,y,1/2-z
-x,-y,-z
x,y,1/2-z
-x,y,z
x,-y,1/2+z
1/2+x,1/2+y,z
1/2-x,1/2-y,1/2+z
1/2+x,1/2-y,-z
1/2-x,1/2+y,1/2-z
1/2-x,1/2-y,-z
1/2+x,1/2+y,1/2-z
1/2-x,1/2+y,z
1/2+x,1/2-y,1/2+z
loop_
_atom_site_type_symbol
_atom_site_label
_atom_site_fract_x
_atom_site_fract_y
_atom_site_fract_z
Si Si1 0.113481 0.179037 0.031915
Si Si2 0.608439 0.020243 0.896735
Si Si3 0.114056 0.317233 0.149424
Si Si4 0.111379 0.749118 0.148859
Si Si5 0.240787 0.609671 0.349826
O O1 0.151646 0.252662 0.083926
O O2 0.173077 0.110927 0.075644
O O3 0.000000 0.164467 0.047308
O O4 0.138131 0.188188 0.925358
O O5 0.500000 0.013175 0.854524
O O6 0.649081 0.103252 0.885987
O O7 0.683934 0.967303 0.847534
O O8 0.604160 0.000000 0.000000
O O9 0.155756 0.302835 0.250000
O O10 0.000000 0.315385 0.150364
O O11 0.133418 0.779418 0.250000
O O12 0.165473 0.673803 0.126564
O O13 0.000000 0.727928 0.137267
O O14 0.285869 0.621140 0.250000
#
# Coordination Sequence:
#
# PCOD8258851 Si02
#       5
#    16  16  16  16  16
#     4  10  20  35  55  81 114 149 186 228 273 325
#     4  10  20  34  53  78 110 147 185 230 285 338
#     4   9  17  30  49  74 107 145 181 220 270 325
#     4   9  18  32  50  74 105 140 179 227 282 335
#     4  11  21  32  52  82 114 149 187 227 274 330
#
# _framework density 21.561897999999999
#
# number of rings (size 3 to 8) (size 9 to 14) (size 15 to 20)
#    0.000    2.200    0.000    3.600    0.000    6.400 
#    0.000    0.000    0.000    1.800    0.000    2.800 
#    0.000    9.600    0.000    0.000    0.000    0.000 
#
# Total GULP energy -495906.242682 kJ/mol
# GULP energy per Si atom -12397.656067 kJ/mol
# Density = 2.151282 g / cm^3
# Si number density = 21.561898 Si / 1000 Ang^3
#
#
#
# Elastic Constant Matrix: (Units=GPa)
#
#
# Indices 1 2 3 4 5 6 
#
# 1 66.1951 34.4587 24.2109 0.0000 0.0000 0.0000
# 2 34.4587 59.8149 17.2179 0.0000 0.0000 0.0000
# 3 24.2109 17.2179 124.9700 0.0000 0.0000 0.0000
# 4 0.0000 0.0000 0.0000 18.6979 0.0000 0.0000
# 5 0.0000 0.0000 0.0000 0.0000 104.1917 0.0000
# 6 0.0000 0.0000 0.0000 0.0000 0.0000 25.2202
#
#
#
# Elastic Compliance Matrix: (Units=1/GPa)
#
#
# Indices 1 2 3 4 5 6 
#
# 1 0.022400 -0.012137 -0.002668 0.000000 0.000000 0.000000
# 2 -0.012137 0.023984 -0.000953 0.000000 0.000000 0.000000
# 3 -0.002668 -0.000953 0.008650 0.000000 0.000000 0.000000
# 4 0.000000 0.000000 0.000000 0.053482 0.000000 0.000000
# 5 0.000000 0.000000 0.000000 0.000000 0.009598 0.000000
# 6 0.000000 0.000000 0.000000 0.000000 0.000000 0.039651
#
#
# Mechanical properties :
#
#
# Convention : Reuss Voigt Hill
#
# Bulk Modulus (GPa) = 42.51714 44.75054 43.63384
# Shear Modulus (GPa) = 25.36519 41.29479 33.32999
#
# Velocity S-wave (km/s) = 3.43357 4.38102 3.93591
# Velocity P-wave (km/s) = 5.95657 6.81106 6.39810
#
# Compressibility (1/GPa) = 0.02351993
#
# Stress axis : x y z
#
# Youngs Moduli (GPa) = 44.64190 41.69360 115.60631
#
# Poissons Ratio (x) = 0.50603 0.30839
# Poissons Ratio (y) = 0.54181 0.11019
# Poissons Ratio (z) = 0.11909 0.03974
#
# Static dielectric constant tensor:
#      x y z
#    x 3.847060 0.000000 0.000000 
#    y 0.000000 3.616820 0.000000 
#    z 0.000000 0.000000 4.153990 
# 
# 
# High freq. dielectric constant tensor:
#      x y z
#    x 1.839830 0.000000 0.000000 
#    y 0.000000 1.806030 0.000000 
#    z 0.000000 0.000000 1.864570 
# 
# From -- ./inp_files/31674.got.cif
#   From: 2010.03.12/outbox.cif.g09.slc.cpg/sg63_16_cif.got.tgz:31674.got - 2010.04.10 19:34:48.
