data_PCOD8258606
_publ_section_title
;
Structure prediction by ZEFSAII (Michael W. Deem and Ramdas Pophale) SiO2 
 PCOD8258606
Probable space group: C M C M
;
_chemical_formula_sum "Si O2"
_cell_formula_units_Z 96
_cell_length_a 17.853247
_cell_length_b 15.041407
_cell_length_c 18.036291
_cell_angle_alpha 90.000000
_cell_angle_beta 90.000000
_cell_angle_gamma 90.000000
_cell_volume 4843.428690
_symmetry_space_group_name_H-M "C M C M"
_symmetry_group_IT_number 63
_symmetry_cell_setting 'orthorhombic'
loop_
_space_group_symop_operation_xyz
x,y,z
-x,-y,1/2+z
x,-y,-z
-x,y,1/2-z
-x,-y,-z
x,y,1/2-z
-x,y,z
x,-y,1/2+z
1/2+x,1/2+y,z
1/2-x,1/2-y,1/2+z
1/2+x,1/2-y,-z
1/2-x,1/2+y,1/2-z
1/2-x,1/2-y,-z
1/2+x,1/2+y,1/2-z
1/2-x,1/2+y,z
1/2+x,1/2-y,1/2+z
loop_
_atom_site_type_symbol
_atom_site_label
_atom_site_fract_x
_atom_site_fract_y
_atom_site_fract_z
Si Si1 0.412861 0.686194 0.923182
Si Si2 0.698834 0.197380 0.162471
Si Si3 0.152878 0.004918 0.584574
Si Si4 0.355005 0.305985 0.585523
Si Si5 0.303018 0.004453 0.836871
Si Si6 0.416548 0.146970 0.665880
O O1 0.500000 0.714337 0.929537
O O2 0.371872 0.741261 0.858422
O O3 0.410551 0.580308 0.904923
O O4 0.365630 0.705657 0.997576
O O5 0.716766 0.208748 0.250000
O O6 0.771914 0.221485 0.113450
O O7 0.676220 0.096440 0.142343
O O8 0.180072 0.000000 0.500000
O O9 0.124274 0.907245 0.609795
O O10 0.223467 0.034993 0.632310
O O11 0.413297 0.240212 0.623520
O O12 0.299919 0.016475 0.750000
O O13 0.364520 0.071234 0.871031
O O14 0.392176 0.165456 0.750000
O O15 0.500000 0.109142 0.660910
#
# Coordination Sequence:
#
# PCOD8258606 Si02
#       6
#    16  16  16  16  16  16
#     4  11  23  37  56  84 117 150 181 222 280 337
#     4  10  21  38  60  83 108 144 189 232 273 322
#     4   9  20  36  56  78 104 141 183 224 268 322
#     4  10  20  37  58  80 108 145 189 231 269 320
#     4   9  19  36  57  79 105 140 183 228 272 322
#     4  10  20  33  52  79 109 142 179 224 279 330
#
# _framework density 19.820671000000001
#
# number of rings (size 3 to 8) (size 9 to 14) (size 15 to 20)
#    0.000    2.167    0.000    2.500    0.000   10.000 
#    0.000    1.667    0.000    2.500    0.000    0.000 
#    0.000    0.000    0.000    0.000    0.000    0.000 
#
# Total GULP energy -595097.705440 kJ/mol
# GULP energy per Si atom -12397.868863 kJ/mol
# Density = 1.977556 g / cm^3
# Si number density = 19.820671 Si / 1000 Ang^3
#
#
#
# Elastic Constant Matrix: (Units=GPa)
#
#
# Indices 1 2 3 4 5 6 
#
# 1 95.4138 43.5233 29.7143 0.0000 0.0000 0.0000
# 2 43.5233 83.0066 30.8658 0.0000 0.0000 0.0000
# 3 29.7143 30.8658 41.4305 0.0000 0.0000 0.0000
# 4 0.0000 0.0000 0.0000 29.3370 0.0000 0.0000
# 5 0.0000 0.0000 0.0000 0.0000 19.8217 0.0000
# 6 0.0000 0.0000 0.0000 0.0000 0.0000 18.0103
#
#
#
# Elastic Compliance Matrix: (Units=1/GPa)
#
#
# Indices 1 2 3 4 5 6 
#
# 1 0.015042 -0.005360 -0.006795 0.000000 0.000000 0.000000
# 2 -0.005360 0.018574 -0.009993 0.000000 0.000000 0.000000
# 3 -0.006795 -0.009993 0.036455 0.000000 0.000000 0.000000
# 4 0.000000 0.000000 0.000000 0.034087 0.000000 0.000000
# 5 0.000000 0.000000 0.000000 0.000000 0.050450 0.000000
# 6 0.000000 0.000000 0.000000 0.000000 0.000000 0.055524
#
#
# Mechanical properties :
#
#
# Convention : Reuss Voigt Hill
#
# Bulk Modulus (GPa) = 38.79825 47.56196 43.18011
# Shear Modulus (GPa) = 19.01013 21.15031 20.08022
#
# Velocity S-wave (km/s) = 3.10030 3.27017 3.18637
# Velocity P-wave (km/s) = 5.69500 6.18926 5.94726
#
# Compressibility (1/GPa) = 0.02577436
#
# Stress axis : x y z
#
# Youngs Moduli (GPa) = 66.48121 53.83945 27.43137
#
# Poissons Ratio (x) = 0.28860 0.18638
# Poissons Ratio (y) = 0.35637 0.27412
# Poissons Ratio (z) = 0.45171 0.53801
#
# Static dielectric constant tensor:
#      x y z
#    x 3.417900 0.000000 0.000000 
#    y 0.000000 3.879100 0.000000 
#    z 0.000000 0.000000 3.516920 
# 
# 
# High freq. dielectric constant tensor:
#      x y z
#    x 1.757910 0.000000 0.000000 
#    y 0.000000 1.786050 0.000000 
#    z 0.000000 0.000000 1.762280 
# 
# From -- ./inp_files/54142.got.cif
#   From: 2010.03.12/outbox.cif.g09.slc.cpg/sg63_28_cif.got.tgz:54142.got - 2010.04.10 19:34:48.
