data_PCOD8258182
_publ_section_title
;
Structure prediction by ZEFSAII (Michael W. Deem and Ramdas Pophale) SiO2 
 PCOD8258182
Probable space group: C M C M
;
_chemical_formula_sum "Si O2"
_cell_formula_units_Z 80
_cell_length_a 15.042105
_cell_length_b 18.719500
_cell_length_c 14.121222
_cell_angle_alpha 90.000000
_cell_angle_beta 90.000000
_cell_angle_gamma 90.000000
_cell_volume 3976.263357
_symmetry_space_group_name_H-M "C M C M"
_symmetry_group_IT_number 63
_symmetry_cell_setting 'orthorhombic'
loop_
_space_group_symop_operation_xyz
x,y,z
-x,-y,1/2+z
x,-y,-z
-x,y,1/2-z
-x,-y,-z
x,y,1/2-z
-x,y,z
x,-y,1/2+z
1/2+x,1/2+y,z
1/2-x,1/2-y,1/2+z
1/2+x,1/2-y,-z
1/2-x,1/2+y,1/2-z
1/2-x,1/2-y,-z
1/2+x,1/2+y,1/2-z
1/2-x,1/2+y,z
1/2+x,1/2-y,1/2+z
loop_
_atom_site_type_symbol
_atom_site_label
_atom_site_fract_x
_atom_site_fract_y
_atom_site_fract_z
Si Si1 0.660697 0.713946 0.532025
Si Si2 0.901071 0.128347 0.146003
Si Si3 0.743175 0.029482 0.102066
Si Si4 0.214114 0.376088 0.146280
Si Si5 0.399407 0.139024 0.465021
O O1 0.750000 0.750000 0.500000
O O2 0.612844 0.683108 0.439534
O O3 0.689607 0.652807 0.607233
O O4 0.602410 0.779208 0.575740
O O5 0.892241 0.166010 0.250000
O O6 0.830290 0.064928 0.144834
O O7 0.000000 0.095773 0.134968
O O8 0.717147 0.961286 0.164032
O O9 0.662363 0.086715 0.097331
O O10 0.768048 0.000000 0.000000
O O11 0.195574 0.341780 0.250000
O O12 0.134360 0.358193 0.073969
O O13 0.500000 0.109815 0.461312
#
# Coordination Sequence:
#
# PCOD8258182 Si02
#       5
#    16  16  16  16  16
#     4  10  19  39  57  84 119 158 190 242 303 354
#     4  11  22  36  60  90 115 148 198 251 300 352
#     4  10  19  39  60  86 121 164 195 241 298 356
#     4  10  21  37  61  88 120 163 202 243 295 350
#     4  10  21  38  62  89 121 160 200 246 301 356
#
# _framework density 20.119392000000001
#
# number of rings (size 3 to 8) (size 9 to 14) (size 15 to 20)
#    0.000    1.800    6.000    1.200    0.000    7.600 
#    0.000    0.000    0.000    7.800    0.000    0.000 
#    0.000    0.000    0.000    0.000    0.000    0.000 
#
# Total GULP energy -495522.052572 kJ/mol
# GULP energy per Si atom -12388.051314 kJ/mol
# Density = 2.007360 g / cm^3
# Si number density = 20.119392 Si / 1000 Ang^3
#
#
#
# Elastic Constant Matrix: (Units=GPa)
#
#
# Indices 1 2 3 4 5 6 
#
# 1 147.5200 44.4587 35.9822 0.0000 0.0000 0.0000
# 2 44.4587 119.2827 21.5028 0.0000 0.0000 0.0000
# 3 35.9822 21.5028 80.7710 0.0000 0.0000 0.0000
# 4 0.0000 0.0000 0.0000 4.1402 0.0000 0.0000
# 5 0.0000 0.0000 0.0000 0.0000 13.6745 0.0000
# 6 0.0000 0.0000 0.0000 0.0000 0.0000 11.5863
#
#
#
# Elastic Compliance Matrix: (Units=1/GPa)
#
#
# Indices 1 2 3 4 5 6 
#
# 1 0.008280 -0.002543 -0.003011 0.000000 0.000000 0.000000
# 2 -0.002543 0.009587 -0.001419 0.000000 0.000000 0.000000
# 3 -0.003011 -0.001419 0.014100 0.000000 0.000000 0.000000
# 4 0.000000 0.000000 0.000000 0.241535 0.000000 0.000000
# 5 0.000000 0.000000 0.000000 0.000000 0.073129 0.000000
# 6 0.000000 0.000000 0.000000 0.000000 0.000000 0.086309
#
#
# Mechanical properties :
#
#
# Convention : Reuss Voigt Hill
#
# Bulk Modulus (GPa) = 55.49667 61.27345 58.38506
# Shear Modulus (GPa) = 11.04012 22.25552 16.64782
#
# Velocity S-wave (km/s) = 2.34504 3.32953 2.87967
# Velocity P-wave (km/s) = 5.91404 6.73068 6.33553
#
# Compressibility (1/GPa) = 0.01801910
#
# Stress axis : x y z
#
# Youngs Moduli (GPa) = 120.77721 104.30598 70.92143
#
# Poissons Ratio (x) = 0.26526 0.21358
# Poissons Ratio (y) = 0.30715 0.10066
# Poissons Ratio (z) = 0.36372 0.14805
#
# Static dielectric constant tensor:
#      x y z
#    x 3.803630 0.000000 0.000000 
#    y 0.000000 4.106860 0.000000 
#    z 0.000000 0.000000 3.596150 
# 
# 
# High freq. dielectric constant tensor:
#      x y z
#    x 1.771300 0.000000 0.000000 
#    y 0.000000 1.791580 0.000000 
#    z 0.000000 0.000000 1.770780 
# 
# From -- ./inp_files/31655.got.cif
#   From: 2010.03.12/outbox.cif.g09.slc.cpg/sg63_16_cif.got.tgz:31655.got - 2010.04.10 19:34:48.
