data_PCOD8258220
_publ_section_title
;
Structure prediction by ZEFSAII (Michael W. Deem and Ramdas Pophale) SiO2 
 PCOD8258220
Probable space group: C M C M
;
_chemical_formula_sum "Si O2"
_cell_formula_units_Z 96
_cell_length_a 9.447936
_cell_length_b 28.417720
_cell_length_c 20.708458
_cell_angle_alpha 90.000000
_cell_angle_beta 90.000000
_cell_angle_gamma 90.000000
_cell_volume 5559.989035
_symmetry_space_group_name_H-M "C M C M"
_symmetry_group_IT_number 63
_symmetry_cell_setting 'orthorhombic'
loop_
_space_group_symop_operation_xyz
x,y,z
-x,-y,1/2+z
x,-y,-z
-x,y,1/2-z
-x,-y,-z
x,y,1/2-z
-x,y,z
x,-y,1/2+z
1/2+x,1/2+y,z
1/2-x,1/2-y,1/2+z
1/2+x,1/2-y,-z
1/2-x,1/2+y,1/2-z
1/2-x,1/2-y,-z
1/2+x,1/2+y,1/2-z
1/2-x,1/2+y,z
1/2+x,1/2-y,1/2+z
loop_
_atom_site_type_symbol
_atom_site_label
_atom_site_fract_x
_atom_site_fract_y
_atom_site_fract_z
Si Si1 0.843412 0.678128 0.112805
Si Si2 0.663083 0.142203 0.532093
Si Si3 0.844511 0.893948 0.674556
Si Si4 0.664490 0.982081 0.676319
Si Si5 0.666216 0.962752 0.051744
Si Si6 0.663946 0.273372 0.442594
O O1 0.726671 0.655908 0.159027
O O2 0.827846 0.734981 0.115042
O O3 0.000000 0.664248 0.137469
O O4 0.820548 0.657234 0.041691
O O5 0.500000 0.145712 0.555281
O O6 0.726183 0.089656 0.540253
O O7 0.759566 0.177403 0.575788
O O8 0.860827 0.898155 0.750000
O O9 0.748079 0.936768 0.650023
O O10 0.000000 0.896743 0.642044
O O11 0.706506 0.996763 0.750000
O O12 0.500000 0.968836 0.672935
O O13 0.701540 0.023515 0.626011
O O14 0.500000 0.961004 0.039412
O O15 0.732087 0.000000 0.000000
O O16 0.500000 0.282150 0.462251
O O17 0.750000 0.250000 0.500000
#
# Coordination Sequence:
#
# PCOD8258220 Si02
#       6
#    16  16  16  16  16  16
#     4   9  17  29  46  66  87 115 150 183 219 268
#     4   9  17  29  46  68  92 119 151 185 224 267
#     4  10  20  31  44  65  91 117 146 183 229 275
#     4   9  17  30  48  67  88 119 157 189 219 265
#     4   9  16  27  45  68  93 120 151 188 226 263
#     4   9  17  29  45  66  91 118 148 180 219 270
#
# _framework density 17.266221000000002
#
# number of rings (size 3 to 8) (size 9 to 14) (size 15 to 20)
#    0.000    2.833    0.000    3.000    0.000    7.000 
#    0.000    0.833    0.000    3.000    0.000    2.333 
#    0.000    0.000    0.000    0.000    0.000    0.000 
#
# Total GULP energy -594828.522297 kJ/mol
# GULP energy per Si atom -12392.260881 kJ/mol
# Density = 1.722692 g / cm^3
# Si number density = 17.266221 Si / 1000 Ang^3
#
#
#
# Elastic Constant Matrix: (Units=GPa)
#
#
# Indices 1 2 3 4 5 6 
#
# 1 83.2191 51.7836 16.9079 0.0000 0.0000 0.0000
# 2 51.7836 150.1941 32.5076 0.0000 0.0000 0.0000
# 3 16.9079 32.5076 37.3958 0.0000 0.0000 0.0000
# 4 0.0000 0.0000 0.0000 22.4070 0.0000 0.0000
# 5 0.0000 0.0000 0.0000 0.0000 15.2931 0.0000
# 6 0.0000 0.0000 0.0000 0.0000 0.0000 28.4677
#
#
#
# Elastic Compliance Matrix: (Units=1/GPa)
#
#
# Indices 1 2 3 4 5 6 
#
# 1 0.015553 -0.004730 -0.002920 0.000000 0.000000 0.000000
# 2 -0.004730 0.009640 -0.006241 0.000000 0.000000 0.000000
# 3 -0.002920 -0.006241 0.033486 0.000000 0.000000 0.000000
# 4 0.000000 0.000000 0.000000 0.044629 0.000000 0.000000
# 5 0.000000 0.000000 0.000000 0.000000 0.065389 0.000000
# 6 0.000000 0.000000 0.000000 0.000000 0.000000 0.035127
#
#
# Mechanical properties :
#
#
# Convention : Reuss Voigt Hill
#
# Bulk Modulus (GPa) = 32.36600 52.57857 42.47228
# Shear Modulus (GPa) = 20.66912 24.54088 22.60500
#
# Velocity S-wave (km/s) = 3.46364 3.77413 3.62222
# Velocity P-wave (km/s) = 5.89760 7.03633 6.49198
#
# Compressibility (1/GPa) = 0.03089662
#
# Stress axis : x y z
#
# Youngs Moduli (GPa) = 64.29511 103.73703 29.86285
#
# Poissons Ratio (x) = 0.49072 0.08720
# Poissons Ratio (y) = 0.30414 0.18637
# Poissons Ratio (z) = 0.18775 0.64742
#
# Static dielectric constant tensor:
#      x y z
#    x 3.400270 0.000000 0.000000 
#    y 0.000000 3.697020 0.000000 
#    z 0.000000 0.000000 2.960300 
# 
# 
# High freq. dielectric constant tensor:
#      x y z
#    x 1.656720 0.000000 0.000000 
#    y 0.000000 1.670450 0.000000 
#    z 0.000000 0.000000 1.626990 
# 
# From -- ./inp_files/60218.got.cif
#   From: 2010.03.12/outbox.cif.g09.slc.cpg/sg63_31_cif.got.tgz:60218.got - 2010.04.10 19:34:48.
