data_PCOD8258845
_publ_section_title
;
Structure prediction by ZEFSAII (Michael W. Deem and Ramdas Pophale) SiO2 
 PCOD8258845
Probable space group: C M C M
;
_chemical_formula_sum "Si O2"
_cell_formula_units_Z 104
_cell_length_a 20.297175
_cell_length_b 29.052270
_cell_length_c 9.188490
_cell_angle_alpha 90.000000
_cell_angle_beta 90.000000
_cell_angle_gamma 90.000000
_cell_volume 5418.259671
_symmetry_space_group_name_H-M "C M C M"
_symmetry_group_IT_number 63
_symmetry_cell_setting 'orthorhombic'
loop_
_space_group_symop_operation_xyz
x,y,z
-x,-y,1/2+z
x,-y,-z
-x,y,1/2-z
-x,-y,-z
x,y,1/2-z
-x,y,z
x,-y,1/2+z
1/2+x,1/2+y,z
1/2-x,1/2-y,1/2+z
1/2+x,1/2-y,-z
1/2-x,1/2+y,1/2-z
1/2-x,1/2-y,-z
1/2+x,1/2+y,1/2-z
1/2-x,1/2+y,z
1/2+x,1/2-y,1/2+z
loop_
_atom_site_type_symbol
_atom_site_label
_atom_site_fract_x
_atom_site_fract_y
_atom_site_fract_z
Si Si1 0.324229 0.707805 0.919674
Si Si2 0.115074 0.954341 0.921042
Si Si3 0.734570 0.955953 0.582660
Si Si4 0.073166 0.868347 0.414684
Si Si5 0.622634 0.113128 0.080419
Si Si6 0.326257 0.801207 0.420551
Si Si7 0.500000 0.950310 0.922129
O O1 0.331476 0.720177 0.750000
O O2 0.374647 0.668773 0.970792
O O3 0.250810 0.689541 0.954917
O O4 0.344467 0.752145 0.012053
O O5 0.104290 0.959801 0.750000
O O6 0.190964 0.945178 0.964387
O O7 0.073427 0.911924 0.979676
O O8 0.088894 0.000000 0.000000
O O9 0.729756 0.969091 0.750000
O O10 0.691123 0.911928 0.544806
O O11 0.705755 0.000000 0.500000
O O12 0.090917 0.883678 0.250000
O O13 0.000000 0.846680 0.420901
O O14 0.614998 0.125289 0.250000
O O15 0.563238 0.079886 0.030041
O O16 0.625867 0.160511 0.990978
O O17 0.340590 0.800239 0.250000
O O18 0.500000 0.959710 0.750000
O O19 0.500000 0.000000 0.000000
#
# Coordination Sequence:
#
# PCOD8258845 Si02
#       7
#    16  16  16  16  16  16   8
#     4   9  19  37  58  81 110 141 174 218 270 325
#     4  10  20  34  53  78 107 139 175 218 264 308
#     4   9  18  31  50  76 104 135 173 218 266 313
#     4  10  21  37  56  78 104 138 177 213 256 311
#     4  10  20  35  53  77 108 143 181 222 272 328
#     4  10  20  34  57  85 108 136 176 222 272 318
#     4  10  22  38  56  78 108 150 192 230 277 334
#
# _framework density 19.194355000000002
#
# number of rings (size 3 to 8) (size 9 to 14) (size 15 to 20)
#    0.000    2.308    0.000    2.308    0.000    3.692 
#    1.385    0.000    0.000    0.000    0.000    0.000 
#    0.000    0.000    0.000    0.000    0.000    0.000 
#
# Total GULP energy -644891.838291 kJ/mol
# GULP energy per Si atom -12401.766121 kJ/mol
# Density = 1.915067 g / cm^3
# Si number density = 19.194355 Si / 1000 Ang^3
#
#
#
# Elastic Constant Matrix: (Units=GPa)
#
#
# Indices 1 2 3 4 5 6 
#
# 1 75.8150 57.9494 31.9498 0.0000 0.0000 0.0000
# 2 57.9494 141.2784 65.0080 0.0000 0.0000 0.0000
# 3 31.9498 65.0080 74.2446 0.0000 0.0000 0.0000
# 4 0.0000 0.0000 0.0000 39.9350 0.0000 0.0000
# 5 0.0000 0.0000 0.0000 0.0000 20.9068 0.0000
# 6 0.0000 0.0000 0.0000 0.0000 0.0000 21.0159
#
#
#
# Elastic Compliance Matrix: (Units=1/GPa)
#
#
# Indices 1 2 3 4 5 6 
#
# 1 0.019449 -0.006911 -0.002319 0.000000 0.000000 0.000000
# 2 -0.006911 0.014310 -0.009556 0.000000 0.000000 0.000000
# 3 -0.002319 -0.009556 0.022834 0.000000 0.000000 0.000000
# 4 0.000000 0.000000 0.000000 0.025041 0.000000 0.000000
# 5 0.000000 0.000000 0.000000 0.000000 0.047831 0.000000
# 6 0.000000 0.000000 0.000000 0.000000 0.000000 0.047583
#
#
# Mechanical properties :
#
#
# Convention : Reuss Voigt Hill
#
# Bulk Modulus (GPa) = 52.56886 66.79470 59.68178
# Shear Modulus (GPa) = 22.62862 25.46691 24.04777
#
# Velocity S-wave (km/s) = 3.43727 3.64647 3.54341
# Velocity P-wave (km/s) = 6.57269 7.25284 6.92112
#
# Compressibility (1/GPa) = 0.01902267
#
# Stress axis : x y z
#
# Youngs Moduli (GPa) = 51.41535 69.88201 43.79512
#
# Poissons Ratio (x) = 0.48294 0.10155
# Poissons Ratio (y) = 0.35532 0.41849
# Poissons Ratio (z) = 0.11921 0.66777
#
# Static dielectric constant tensor:
#      x y z
#    x 3.538500 0.000000 0.000000 
#    y 0.000000 3.433290 0.000000 
#    z 0.000000 0.000000 3.422030 
# 
# 
# High freq. dielectric constant tensor:
#      x y z
#    x 1.742330 0.000000 0.000000 
#    y 0.000000 1.745730 0.000000 
#    z 0.000000 0.000000 1.743880 
# 
# From -- ./inp_files/8720.got.cif
#   From: 2010.03.12/outbox.cif.g09.slc.cpg/sg63_5_cif.got.tgz:8720.got - 2010.04.10 19:34:48.
