data_PCOD8258186
_publ_section_title
;
Structure prediction by ZEFSAII (Michael W. Deem and Ramdas Pophale) SiO2 
 PCOD8258186
Probable space group: C M C M
;
_chemical_formula_sum "Si O2"
_cell_formula_units_Z 72
_cell_length_a 23.260737
_cell_length_b 17.283500
_cell_length_c 9.302717
_cell_angle_alpha 90.000000
_cell_angle_beta 90.000000
_cell_angle_gamma 90.000000
_cell_volume 3739.942923
_symmetry_space_group_name_H-M "C M C M"
_symmetry_group_IT_number 63
_symmetry_cell_setting 'orthorhombic'
loop_
_space_group_symop_operation_xyz
x,y,z
-x,-y,1/2+z
x,-y,-z
-x,y,1/2-z
-x,-y,-z
x,y,1/2-z
-x,y,z
x,-y,1/2+z
1/2+x,1/2+y,z
1/2-x,1/2-y,1/2+z
1/2+x,1/2-y,-z
1/2-x,1/2+y,1/2-z
1/2-x,1/2-y,-z
1/2+x,1/2+y,1/2-z
1/2-x,1/2+y,z
1/2+x,1/2-y,1/2+z
loop_
_atom_site_type_symbol
_atom_site_label
_atom_site_fract_x
_atom_site_fract_y
_atom_site_fract_z
Si Si1 0.000000 0.602481 0.098908
Si Si2 0.402412 0.000000 0.500000
Si Si3 0.817739 0.627343 0.912801
Si Si4 0.000000 0.749120 0.920027
Si Si5 0.206071 0.921165 0.921860
Si Si6 0.876369 0.215685 0.080017
O O1 0.943260 0.549557 0.103245
O O2 0.000000 0.649280 0.250000
O O3 0.000000 0.659473 0.964338
O O4 0.363058 0.942374 0.407031
O O5 0.794077 0.638993 0.750000
O O6 0.846560 0.705538 0.975004
O O7 0.767479 0.607351 0.023388
O O8 0.942029 0.790260 0.979583
O O9 0.000000 0.749766 0.750000
O O10 0.208552 0.932661 0.750000
O O11 0.158638 0.858899 0.971429
O O12 0.188143 0.000000 0.000000
O O13 0.877946 0.219781 0.250000
#
# Coordination Sequence:
#
# PCOD8258186 Si02
#       6
#     8   8  16   8  16  16
#     4  11  23  35  52  87 124 156 188 228 275 328
#     4  11  22  34  56  84 124 155 192 220 274 327
#     4  11  21  37  60  86 116 153 194 232 277 335
#     4  10  19  39  63  80 108 152 194 236 283 342
#     4  11  23  39  59  85 115 148 190 240 292 343
#     4   9  20  38  61  86 111 148 194 235 284 342
#
# _framework density 19.251629999999999
#
# number of rings (size 3 to 8) (size 9 to 14) (size 15 to 20)
#    0.000    1.556    3.333    2.000    0.000    2.667 
#    0.000    3.889    0.000    0.000    0.000    0.000 
#    0.000    0.000    0.000    0.000    0.000    0.000 
#
# Total GULP energy -446278.536628 kJ/mol
# GULP energy per Si atom -12396.626017 kJ/mol
# Density = 1.920781 g / cm^3
# Si number density = 19.251630 Si / 1000 Ang^3
#
#
#
# Elastic Constant Matrix: (Units=GPa)
#
#
# Indices 1 2 3 4 5 6 
#
# 1 150.4686 91.0506 32.4299 0.0000 0.0000 0.0000
# 2 91.0506 139.2842 30.5239 0.0000 0.0000 0.0000
# 3 32.4299 30.5239 65.1255 0.0000 0.0000 0.0000
# 4 0.0000 0.0000 0.0000 20.8883 0.0000 0.0000
# 5 0.0000 0.0000 0.0000 0.0000 8.2539 0.0000
# 6 0.0000 0.0000 0.0000 0.0000 0.0000 36.6681
#
#
#
# Elastic Compliance Matrix: (Units=1/GPa)
#
#
# Indices 1 2 3 4 5 6 
#
# 1 0.011327 -0.006875 -0.002418 0.000000 0.000000 0.000000
# 2 -0.006875 0.012174 -0.002282 0.000000 0.000000 0.000000
# 3 -0.002418 -0.002282 0.017629 0.000000 0.000000 0.000000
# 4 0.000000 0.000000 0.000000 0.047874 0.000000 0.000000
# 5 0.000000 0.000000 0.000000 0.000000 0.121154 0.000000
# 6 0.000000 0.000000 0.000000 0.000000 0.000000 0.027272
#
#
# Mechanical properties :
#
#
# Convention : Reuss Voigt Hill
#
# Bulk Modulus (GPa) = 55.62060 73.65412 64.63736
# Shear Modulus (GPa) = 18.75659 26.55366 22.65513
#
# Velocity S-wave (km/s) = 3.12474 3.71791 3.43416
# Velocity P-wave (km/s) = 6.47864 7.53473 7.02656
#
# Compressibility (1/GPa) = 0.01797895
#
# Stress axis : x y z
#
# Youngs Moduli (GPa) = 88.28476 82.14449 56.72479
#
# Poissons Ratio (x) = 0.56470 0.13718
# Poissons Ratio (y) = 0.60692 0.12947
# Poissons Ratio (z) = 0.21350 0.18749
#
# Static dielectric constant tensor:
#      x y z
#    x 3.946890 0.000000 0.000000 
#    y 0.000000 3.694690 0.000000 
#    z 0.000000 0.000000 3.207480 
# 
# 
# High freq. dielectric constant tensor:
#      x y z
#    x 1.758040 0.000000 0.000000 
#    y 0.000000 1.742430 0.000000 
#    z 0.000000 0.000000 1.728600 
# 
# From -- ./inp_files/11935.got.cif
#   From: 2010.03.12/outbox.cif.g09.slc.cpg/sg63_6_cif.got.tgz:11935.got - 2010.04.10 19:34:48.
