data_PCOD8258123
_publ_section_title
;
Structure prediction by ZEFSAII (Michael W. Deem and Ramdas Pophale) SiO2 
 PCOD8258123
Probable space group: C M C M
;
_chemical_formula_sum "Si O2"
_cell_formula_units_Z 72
_cell_length_a 7.350669
_cell_length_b 32.046585
_cell_length_c 14.813365
_cell_angle_alpha 90.000000
_cell_angle_beta 90.000000
_cell_angle_gamma 90.000000
_cell_volume 3489.493127
_symmetry_space_group_name_H-M "C M C M"
_symmetry_group_IT_number 63
_symmetry_cell_setting 'orthorhombic'
loop_
_space_group_symop_operation_xyz
x,y,z
-x,-y,1/2+z
x,-y,-z
-x,y,1/2-z
-x,-y,-z
x,y,1/2-z
-x,y,z
x,-y,1/2+z
1/2+x,1/2+y,z
1/2-x,1/2-y,1/2+z
1/2+x,1/2-y,-z
1/2-x,1/2+y,1/2-z
1/2-x,1/2-y,-z
1/2+x,1/2+y,1/2-z
1/2-x,1/2+y,z
1/2+x,1/2-y,1/2+z
loop_
_atom_site_type_symbol
_atom_site_label
_atom_site_fract_x
_atom_site_fract_y
_atom_site_fract_z
Si Si1 0.500000 0.201971 0.352795
Si Si2 0.282176 0.495065 0.250000
Si Si3 0.210308 0.146894 0.575986
Si Si4 0.706360 0.235859 0.855003
Si Si5 0.210471 0.897584 0.250000
Si Si6 0.500000 0.118132 0.440451
Si Si7 0.500000 0.021607 0.399120
O O1 0.500000 0.213729 0.250000
O O2 0.678685 0.224868 0.393161
O O3 0.500000 0.152185 0.360709
O O4 0.500000 0.506739 0.250000
O O5 0.251748 0.446139 0.250000
O O6 0.182441 0.510794 0.341691
O O7 0.243324 0.195953 0.585135
O O8 0.297136 0.123401 0.662115
O O9 0.315442 0.127227 0.492933
O O10 0.000000 0.136299 0.561309
O O11 0.746375 0.225258 0.750000
O O12 0.500000 0.248930 0.870441
O O13 0.000000 0.886117 0.250000
O O14 0.500000 0.071293 0.406076
O O15 0.500000 0.000000 0.500000
#
# Coordination Sequence:
#
# PCOD8258123 Si02
#       7
#     8   8  16  16   8   8   8
#     4  10  24  42  62  77 121 173 216 258 305 376
#     4  10  23  45  72 101 128 182 223 276 345 417
#     4  11  21  36  60  95 132 160 202 258 323 384
#     4  10  19  36  60  88 119 165 204 248 316 377
#     4   9  19  35  65  98 130 155 198 256 330 398
#     4  12  27  40  61  93 122 174 215 271 313 375
#     4  11  25  46  71 101 140 173 227 286 354 406
#
# _framework density 20.633368999999998
#
# number of rings (size 3 to 8) (size 9 to 14) (size 15 to 20)
#    0.000    1.556    3.333    1.333    1.556    4.444 
#    0.000    0.000    0.000    0.000    0.000    0.000 
#    0.000    0.000    0.000    0.000    0.000    0.000 
#
# Total GULP energy -446207.643259 kJ/mol
# GULP energy per Si atom -12394.656757 kJ/mol
# Density = 2.058641 g / cm^3
# Si number density = 20.633369 Si / 1000 Ang^3
#
#
#
# Elastic Constant Matrix: (Units=GPa)
#
#
# Indices 1 2 3 4 5 6 
#
# 1 146.0163 47.2664 46.7771 0.0000 0.0000 0.0000
# 2 47.2664 155.1471 36.5049 0.0000 0.0000 0.0000
# 3 46.7771 36.5049 75.7374 0.0000 0.0000 0.0000
# 4 0.0000 0.0000 0.0000 31.7868 0.0000 0.0000
# 5 0.0000 0.0000 0.0000 0.0000 80.1108 0.0000
# 6 0.0000 0.0000 0.0000 0.0000 0.0000 26.6696
#
#
#
# Elastic Compliance Matrix: (Units=1/GPa)
#
#
# Indices 1 2 3 4 5 6 
#
# 1 0.008874 -0.001595 -0.004712 0.000000 0.000000 0.000000
# 2 -0.001595 0.007557 -0.002657 0.000000 0.000000 0.000000
# 3 -0.004712 -0.002657 0.017395 0.000000 0.000000 0.000000
# 4 0.000000 0.000000 0.000000 0.031460 0.000000 0.000000
# 5 0.000000 0.000000 0.000000 0.000000 0.012483 0.000000
# 6 0.000000 0.000000 0.000000 0.000000 0.000000 0.037496
#
#
# Mechanical properties :
#
#
# Convention : Reuss Voigt Hill
#
# Bulk Modulus (GPa) = 62.90517 70.88861 66.89689
# Shear Modulus (GPa) = 36.10323 44.13692 40.12008
#
# Velocity S-wave (km/s) = 4.18754 4.63006 4.41435
# Velocity P-wave (km/s) = 7.34397 7.93815 7.64683
#
# Compressibility (1/GPa) = 0.01589694
#
# Stress axis : x y z
#
# Youngs Moduli (GPa) = 112.68305 132.33460 57.48870
#
# Poissons Ratio (x) = 0.21106 0.27091
# Poissons Ratio (y) = 0.17972 0.15276
# Poissons Ratio (z) = 0.53100 0.35164
#
# Static dielectric constant tensor:
#      x y z
#    x 4.133110 0.000000 0.000000 
#    y 0.000000 3.662010 0.000000 
#    z 0.000000 0.000000 3.743940 
# 
# 
# High freq. dielectric constant tensor:
#      x y z
#    x 1.818400 0.000000 0.000000 
#    y 0.000000 1.805520 0.000000 
#    z 0.000000 0.000000 1.802850 
# 
# From -- ./inp_files/27996.got.cif
#   From: 2010.03.12/outbox.cif.g09.slc.cpg/sg63_14_cif.got.tgz:27996.got - 2010.04.10 19:34:48.
