data_PCOD8258820
_publ_section_title
;
Structure prediction by ZEFSAII (Michael W. Deem and Ramdas Pophale) SiO2 
 PCOD8258820
Probable space group: C M C M
;
_chemical_formula_sum "Si O2"
_cell_formula_units_Z 80
_cell_length_a 8.946100
_cell_length_b 25.711323
_cell_length_c 18.264120
_cell_angle_alpha 90.000000
_cell_angle_beta 90.000000
_cell_angle_gamma 90.000000
_cell_volume 4201.041044
_symmetry_space_group_name_H-M "C M C M"
_symmetry_group_IT_number 63
_symmetry_cell_setting 'orthorhombic'
loop_
_space_group_symop_operation_xyz
x,y,z
-x,-y,1/2+z
x,-y,-z
-x,y,1/2-z
-x,-y,-z
x,y,1/2-z
-x,y,z
x,-y,1/2+z
1/2+x,1/2+y,z
1/2-x,1/2-y,1/2+z
1/2+x,1/2-y,-z
1/2-x,1/2+y,1/2-z
1/2-x,1/2-y,-z
1/2+x,1/2+y,1/2-z
1/2-x,1/2+y,z
1/2+x,1/2-y,1/2+z
loop_
_atom_site_type_symbol
_atom_site_label
_atom_site_fract_x
_atom_site_fract_y
_atom_site_fract_z
Si Si1 0.822351 0.812154 0.332090
Si Si2 0.176121 0.093336 0.927468
Si Si3 0.176785 0.402086 0.582743
Si Si4 0.822539 0.696942 0.168220
Si Si5 0.328222 0.492767 0.665010
O O1 0.761789 0.823106 0.250000
O O2 0.758490 0.854949 0.388183
O O3 0.770704 0.754483 0.357948
O O4 0.000000 0.815986 0.330542
O O5 0.219111 0.044413 0.877913
O O6 0.000000 0.097592 0.939475
O O7 0.252350 0.085617 0.005062
O O8 0.238183 0.346539 0.612333
O O9 0.223494 0.445768 0.640517
O O10 0.000000 0.401862 0.574946
O O11 0.760004 0.685924 0.250000
O O12 0.000000 0.694635 0.171063
O O13 0.301873 0.504093 0.750000
O O14 0.500000 0.478161 0.648515
#
# Coordination Sequence:
#
# PCOD8258820 Si02
#       5
#    16  16  16  16  16
#     4   8  14  28  52  77  98 126 168 213 253 295
#     4  10  20  34  53  77 103 130 164 209 257 300
#     4  11  22  34  50  75 107 140 170 200 242 300
#     4   8  15  29  49  73 100 130 167 209 248 290
#     4  10  21  37  56  76  98 127 167 214 258 298
#
# _framework density 19.042899999999999
#
# number of rings (size 3 to 8) (size 9 to 14) (size 15 to 20)
#    0.000    2.600    0.000    3.600    0.000    7.600 
#    0.000    0.000    0.000    3.000    0.000    5.600 
#    0.000    0.000    0.000    0.000    0.000    0.000 
#
# Total GULP energy -495932.368388 kJ/mol
# GULP energy per Si atom -12398.309210 kJ/mol
# Density = 1.899956 g / cm^3
# Si number density = 19.042900 Si / 1000 Ang^3
#
#
#
# Elastic Constant Matrix: (Units=GPa)
#
#
# Indices 1 2 3 4 5 6 
#
# 1 19.1612 20.6708 9.7754 0.0000 0.0000 0.0000
# 2 20.6708 126.0563 40.5285 0.0000 0.0000 0.0000
# 3 9.7754 40.5285 82.2059 0.0000 0.0000 0.0000
# 4 0.0000 0.0000 0.0000 28.7819 0.0000 0.0000
# 5 0.0000 0.0000 0.0000 0.0000 16.3890 0.0000
# 6 0.0000 0.0000 0.0000 0.0000 0.0000 21.2659
#
#
#
# Elastic Compliance Matrix: (Units=1/GPa)
#
#
# Indices 1 2 3 4 5 6 
#
# 1 0.063980 -0.009561 -0.002894 0.000000 0.000000 0.000000
# 2 -0.009561 0.010856 -0.004215 0.000000 0.000000 0.000000
# 3 -0.002894 -0.004215 0.014587 0.000000 0.000000 0.000000
# 4 0.000000 0.000000 0.000000 0.034744 0.000000 0.000000
# 5 0.000000 0.000000 0.000000 0.000000 0.061016 0.000000
# 6 0.000000 0.000000 0.000000 0.000000 0.000000 0.047024
#
#
# Mechanical properties :
#
#
# Convention : Reuss Voigt Hill
#
# Bulk Modulus (GPa) = 17.83118 41.04144 29.43631
# Shear Modulus (GPa) = 17.59067 23.71727 20.65397
#
# Velocity S-wave (km/s) = 3.04260 3.53294 3.29690
# Velocity P-wave (km/s) = 4.66125 6.18394 5.47578
#
# Compressibility (1/GPa) = 0.05608154
#
# Stress axis : x y z
#
# Youngs Moduli (GPa) = 15.62997 92.11495 68.55459
#
# Poissons Ratio (x) = 0.88070 0.19843
# Poissons Ratio (y) = 0.14944 0.28897
# Poissons Ratio (z) = 0.04524 0.38828
#
# Static dielectric constant tensor:
#      x y z
#    x 3.038870 0.000000 0.000000 
#    y 0.000000 3.893600 0.000000 
#    z 0.000000 0.000000 3.560670 
# 
# 
# High freq. dielectric constant tensor:
#      x y z
#    x 1.691400 0.000000 0.000000 
#    y 0.000000 1.759000 0.000000 
#    z 0.000000 0.000000 1.745660 
# 
# From -- ./inp_files/40411.got.cif
#   From: 2010.03.12/outbox.cif.g09.slc.cpg/sg63_21_cif.got.tgz:40411.got - 2010.04.10 19:34:48.
