data_PCOD8258910
_publ_section_title
;
Structure prediction by ZEFSAII (Michael W. Deem and Ramdas Pophale) SiO2 
 PCOD8258910
Probable space group: C M C M
;
_chemical_formula_sum "Si O2"
_cell_formula_units_Z 96
_cell_length_a 9.184961
_cell_length_b 25.139849
_cell_length_c 23.043441
_cell_angle_alpha 90.000000
_cell_angle_beta 90.000000
_cell_angle_gamma 90.000000
_cell_volume 5320.927148
_symmetry_space_group_name_H-M "C M C M"
_symmetry_group_IT_number 63
_symmetry_cell_setting 'orthorhombic'
loop_
_space_group_symop_operation_xyz
x,y,z
-x,-y,1/2+z
x,-y,-z
-x,y,1/2-z
-x,-y,-z
x,y,1/2-z
-x,y,z
x,-y,1/2+z
1/2+x,1/2+y,z
1/2-x,1/2-y,1/2+z
1/2+x,1/2-y,-z
1/2-x,1/2+y,1/2-z
1/2-x,1/2-y,-z
1/2+x,1/2+y,1/2-z
1/2-x,1/2+y,z
1/2+x,1/2-y,1/2+z
loop_
_atom_site_type_symbol
_atom_site_label
_atom_site_fract_x
_atom_site_fract_y
_atom_site_fract_z
Si Si1 0.171075 0.800280 0.816633
Si Si2 0.832947 0.494719 0.316829
Si Si3 0.327948 0.408073 0.389473
Si Si4 0.330557 0.938844 0.999587
Si Si5 0.332875 0.895545 0.872910
Si Si6 0.330746 0.693945 0.816680
O O1 0.214420 0.811925 0.750000
O O2 0.230111 0.846850 0.857034
O O3 0.241023 0.745052 0.837456
O O4 0.000000 0.795863 0.824959
O O5 0.800765 0.482496 0.250000
O O6 0.728454 0.459474 0.355730
O O7 0.799522 0.556321 0.329077
O O8 0.000000 0.481957 0.333614
O O9 0.500000 0.412267 0.394277
O O10 0.259739 0.405581 0.453351
O O11 0.278956 0.355427 0.355356
O O12 0.500000 0.935268 0.015518
O O13 0.295469 0.913529 0.937738
O O14 0.279035 0.000000 0.000000
O O15 0.500000 0.877290 0.867340
O O16 0.295984 0.679627 0.750000
O O17 0.500000 0.706580 0.825604
#
# Coordination Sequence:
#
# PCOD8258910 Si02
#       6
#    16  16  16  16  16  16
#     4  10  21  36  56  84 114 142 177 227 280 326
#     4  10  20  34  54  80 110 145 184 224 270 329
#     4  11  22  35  55  83 114 144 181 229 281 330
#     4  10  20  38  59  78 107 148 192 230 267 321
#     4  10  20  36  58  80 106 145 188 226 268 324
#     4   9  19  37  58  79 108 147 185 221 269 331
#
# _framework density 18.041968000000001
#
# number of rings (size 3 to 8) (size 9 to 14) (size 15 to 20)
#    0.000    2.000    1.667    2.000    0.000    5.667 
#    0.000    2.500    0.000    0.000    0.000    0.000 
#    0.000    0.000    0.000    0.000    0.000    0.000 
#
# Total GULP energy -595435.987016 kJ/mol
# GULP energy per Si atom -12404.916396 kJ/mol
# Density = 1.800090 g / cm^3
# Si number density = 18.041968 Si / 1000 Ang^3
#
#
#
# Elastic Constant Matrix: (Units=GPa)
#
#
# Indices 1 2 3 4 5 6 
#
# 1 64.2083 48.8592 37.8911 0.0000 0.0000 0.0000
# 2 48.8592 104.2500 45.7627 0.0000 0.0000 0.0000
# 3 37.8911 45.7627 81.4391 0.0000 0.0000 0.0000
# 4 0.0000 0.0000 0.0000 26.0226 0.0000 0.0000
# 5 0.0000 0.0000 0.0000 0.0000 32.3891 0.0000
# 6 0.0000 0.0000 0.0000 0.0000 0.0000 32.9730
#
#
#
# Elastic Compliance Matrix: (Units=1/GPa)
#
#
# Indices 1 2 3 4 5 6 
#
# 1 0.027099 -0.009512 -0.007263 0.000000 0.000000 0.000000
# 2 -0.009512 0.016072 -0.004606 0.000000 0.000000 0.000000
# 3 -0.007263 -0.004606 0.018246 0.000000 0.000000 0.000000
# 4 0.000000 0.000000 0.000000 0.038428 0.000000 0.000000
# 5 0.000000 0.000000 0.000000 0.000000 0.030875 0.000000
# 6 0.000000 0.000000 0.000000 0.000000 0.000000 0.030328
#
#
# Mechanical properties :
#
#
# Convention : Reuss Voigt Hill
#
# Bulk Modulus (GPa) = 53.60333 57.21371 55.40852
# Shear Modulus (GPa) = 23.80632 26.10255 24.95444
#
# Velocity S-wave (km/s) = 3.63643 3.80777 3.72308
# Velocity P-wave (km/s) = 6.88523 7.14930 7.01850
#
# Compressibility (1/GPa) = 0.01865556
#
# Stress axis : x y z
#
# Youngs Moduli (GPa) = 36.90209 62.21921 54.80529
#
# Poissons Ratio (x) = 0.59184 0.39805
# Poissons Ratio (y) = 0.35102 0.25241
# Poissons Ratio (z) = 0.26802 0.28656
#
# Static dielectric constant tensor:
#      x y z
#    x 3.285860 0.000000 0.000000 
#    y 0.000000 3.290360 0.000000 
#    z 0.000000 0.000000 3.419030 
# 
# 
# High freq. dielectric constant tensor:
#      x y z
#    x 1.697290 0.000000 0.000000 
#    y 0.000000 1.697640 0.000000 
#    z 0.000000 0.000000 1.700530 
# 
# From -- ./inp_files/59849.got.cif
#   From: 2010.03.12/outbox.cif.g09.slc.cpg/sg63_30_cif.got.tgz:59849.got - 2010.04.10 19:34:48.
