data_PCOD8258863
_publ_section_title
;
Structure prediction by ZEFSAII (Michael W. Deem and Ramdas Pophale) SiO2 
 PCOD8258863
Probable space group: C M C M
;
_chemical_formula_sum "Si O2"
_cell_formula_units_Z 112
_cell_length_a 15.176167
_cell_length_b 22.510929
_cell_length_c 14.242229
_cell_angle_alpha 90.000000
_cell_angle_beta 90.000000
_cell_angle_gamma 90.000000
_cell_volume 4865.567250
_symmetry_space_group_name_H-M "C M C M"
_symmetry_group_IT_number 63
_symmetry_cell_setting 'orthorhombic'
loop_
_space_group_symop_operation_xyz
x,y,z
-x,-y,1/2+z
x,-y,-z
-x,y,1/2-z
-x,-y,-z
x,y,1/2-z
-x,y,z
x,-y,1/2+z
1/2+x,1/2+y,z
1/2-x,1/2-y,1/2+z
1/2+x,1/2-y,-z
1/2-x,1/2+y,1/2-z
1/2-x,1/2-y,-z
1/2+x,1/2+y,1/2-z
1/2-x,1/2+y,z
1/2+x,1/2-y,1/2+z
loop_
_atom_site_type_symbol
_atom_site_label
_atom_site_fract_x
_atom_site_fract_y
_atom_site_fract_z
Si Si1 0.900552 0.638393 0.860410
Si Si2 0.713130 0.971204 0.139158
Si Si3 0.599983 0.079581 0.138414
Si Si4 0.168843 0.296707 0.853908
Si Si5 0.594774 0.310966 0.045471
Si Si6 0.099824 0.068605 0.640639
Si Si7 0.634416 0.727573 0.352834
O O1 0.905862 0.629201 0.750000
O O2 0.835571 0.587634 0.903102
O O3 0.860654 0.703193 0.883629
O O4 0.000000 0.632297 0.902736
O O5 0.699013 0.970375 0.250000
O O6 0.818893 0.975894 0.116879
O O7 0.665563 0.029519 0.096149
O O8 0.611195 0.082508 0.250000
O O9 0.500000 0.063881 0.109799
O O10 0.626298 0.144598 0.098340
O O11 0.127755 0.285337 0.750000
O O12 0.158711 0.240425 0.920735
O O13 0.272376 0.304640 0.844747
O O14 0.500000 0.299140 0.092117
O O15 0.627294 0.374599 0.079778
O O16 0.583670 0.309328 0.932487
O O17 0.102357 0.086024 0.750000
O O18 0.000000 0.044681 0.615039
O O19 0.587494 0.722835 0.250000
#
# Coordination Sequence:
#
# PCOD8258863 Si02
#       7
#    16  16  16  16  16  16  16
#     4   9  16  27  46  72 101 133 172 221 273 322
#     4   9  16  28  49  77 108 143 182 224 272 324
#     4   9  17  30  51  81 115 149 185 225 272 332
#     4  10  20  34  53  80 116 153 187 225 274 338
#     4  11  21  33  54  81 110 145 183 228 285 342
#     4   9  18  32  52  81 113 143 182 233 283 332
#     4  10  21  36  54  77 107 145 189 234 281 336
#
# _framework density 23.018899000000001
#
# number of rings (size 3 to 8) (size 9 to 14) (size 15 to 20)
#    0.000    2.429    0.000    3.000    0.000    6.286 
#    0.000    0.000    0.000    5.143    0.000   18.000 
#    0.000    0.000    0.000    0.000    0.000    0.286 
#
# Total GULP energy -693914.667084 kJ/mol
# GULP energy per Si atom -12391.333341 kJ/mol
# Density = 2.296651 g / cm^3
# Si number density = 23.018899 Si / 1000 Ang^3
#
#
#
# Elastic Constant Matrix: (Units=GPa)
#
#
# Indices 1 2 3 4 5 6 
#
# 1 158.1264 61.3980 10.0395 0.0000 0.0000 0.0000
# 2 61.3980 79.0830 18.4547 0.0000 0.0000 0.0000
# 3 10.0395 18.4547 42.5771 0.0000 0.0000 0.0000
# 4 0.0000 0.0000 0.0000 17.1157 0.0000 0.0000
# 5 0.0000 0.0000 0.0000 0.0000 10.5481 0.0000
# 6 0.0000 0.0000 0.0000 0.0000 0.0000 34.9744
#
#
#
# Elastic Compliance Matrix: (Units=1/GPa)
#
#
# Indices 1 2 3 4 5 6 
#
# 1 0.009093 -0.007297 0.001019 0.000000 0.000000 0.000000
# 2 -0.007297 0.019924 -0.006915 0.000000 0.000000 0.000000
# 3 0.001019 -0.006915 0.026244 0.000000 0.000000 0.000000
# 4 0.000000 0.000000 0.000000 0.058426 0.000000 0.000000
# 5 0.000000 0.000000 0.000000 0.000000 0.094804 0.000000
# 6 0.000000 0.000000 0.000000 0.000000 0.000000 0.028592
#
#
# Mechanical properties :
#
#
# Convention : Reuss Voigt Hill
#
# Bulk Modulus (GPa) = 34.63372 51.06341 42.84857
# Shear Modulus (GPa) = 18.30871 25.18726 21.74799
#
# Velocity S-wave (km/s) = 2.82330 3.31146 3.07708
# Velocity P-wave (km/s) = 5.07016 6.07062 5.59280
#
# Compressibility (1/GPa) = 0.02887359
#
# Stress axis : x y z
#
# Youngs Moduli (GPa) = 109.97815 50.19083 38.10408
#
# Poissons Ratio (x) = 0.36625 -0.03882
# Poissons Ratio (y) = 0.80252 0.26350
# Poissons Ratio (z) = -0.11205 0.34708
#
# Static dielectric constant tensor:
#      x y z
#    x 4.217700 0.000000 0.000000 
#    y 0.000000 3.955990 0.000000 
#    z 0.000000 0.000000 3.999750 
# 
# 
# High freq. dielectric constant tensor:
#      x y z
#    x 1.915890 0.000000 0.000000 
#    y 0.000000 1.881710 0.000000 
#    z 0.000000 0.000000 1.895170 
# 
# From -- ./inp_files/32330.got.cif
#   From: 2010.03.12/outbox.cif.g09.slc.cpg/sg63_17_cif.got.tgz:32330.got - 2010.04.10 19:34:48.
