data_PCOD8258101
_publ_section_title
;
Structure prediction by ZEFSAII (Michael W. Deem and Ramdas Pophale) SiO2 
 PCOD8258101
Probable space group: C M C M
;
_chemical_formula_sum "Si O2"
_cell_formula_units_Z 88
_cell_length_a 15.306377
_cell_length_b 27.183959
_cell_length_c 11.418860
_cell_angle_alpha 90.000000
_cell_angle_beta 90.000000
_cell_angle_gamma 90.000000
_cell_volume 4751.249761
_symmetry_space_group_name_H-M "C M C M"
_symmetry_group_IT_number 63
_symmetry_cell_setting 'orthorhombic'
loop_
_space_group_symop_operation_xyz
x,y,z
-x,-y,1/2+z
x,-y,-z
-x,y,1/2-z
-x,-y,-z
x,y,1/2-z
-x,y,z
x,-y,1/2+z
1/2+x,1/2+y,z
1/2-x,1/2-y,1/2+z
1/2+x,1/2-y,-z
1/2-x,1/2+y,1/2-z
1/2-x,1/2-y,-z
1/2+x,1/2+y,1/2-z
1/2-x,1/2+y,z
1/2+x,1/2-y,1/2+z
loop_
_atom_site_type_symbol
_atom_site_label
_atom_site_fract_x
_atom_site_fract_y
_atom_site_fract_z
Si Si1 0.500000 0.962015 0.112212
Si Si2 0.666697 0.943348 0.994731
Si Si3 0.104133 0.597633 0.250000
Si Si4 0.402843 0.209797 0.613934
Si Si5 0.248936 0.859813 0.112702
Si Si6 0.897287 0.291563 0.750000
Si Si7 0.599366 0.286734 0.062910
O O1 0.500000 0.981432 0.250000
O O2 0.588266 0.931386 0.088647
O O3 0.500000 0.000000 0.000000
O O4 0.638755 0.931248 0.862873
O O5 0.747644 0.910426 0.039221
O O6 0.696000 0.000000 0.000000
O O7 0.142744 0.653430 0.250000
O O8 0.000000 0.596772 0.250000
O O9 0.390966 0.214801 0.750000
O O10 0.500000 0.189964 0.578551
O O11 0.329645 0.173010 0.564948
O O12 0.391456 0.265738 0.567987
O O13 0.255510 0.870521 0.250000
O O14 0.157293 0.834417 0.083534
O O15 0.866877 0.259953 0.638511
O O16 0.000000 0.298391 0.750000
O O17 0.500000 0.301430 0.095606
#
# Coordination Sequence:
#
# PCOD8258101 Si02
#       7
#     8  16   8  16  16   8  16
#     4  10  22  36  60  82 114 158 202 242 292 342
#     4  11  25  37  58  79 117 151 200 238 292 333
#     4  11  22  38  55  86 115 159 194 241 278 342
#     4   9  19  33  51  78 116 153 186 226 279 343
#     4  11  22  36  56  84 112 150 193 237 284 342
#     4   9  18  32  55  80 111 139 184 233 288 330
#     4  10  19  36  59  82 112 148 189 240 288 342
#
# _framework density 18.521442
#
# number of rings (size 3 to 8) (size 9 to 14) (size 15 to 20)
#    0.000    1.818    1.818    2.182    7.636    1.455 
#    1.636    0.000    0.000    0.545    0.000    0.000 
#    0.000    0.000    0.000    0.000    0.000    0.000 
#
# Total GULP energy -545312.454583 kJ/mol
# GULP energy per Si atom -12393.464877 kJ/mol
# Density = 1.847929 g / cm^3
# Si number density = 18.521442 Si / 1000 Ang^3
#
#
#
# Elastic Constant Matrix: (Units=GPa)
#
#
# Indices 1 2 3 4 5 6 
#
# 1 76.8482 58.9678 49.5838 0.0000 0.0000 0.0000
# 2 58.9678 134.1562 56.6533 0.0000 0.0000 0.0000
# 3 49.5838 56.6533 63.5233 0.0000 0.0000 0.0000
# 4 0.0000 0.0000 0.0000 27.8756 0.0000 0.0000
# 5 0.0000 0.0000 0.0000 0.0000 20.9609 0.0000
# 6 0.0000 0.0000 0.0000 0.0000 0.0000 23.2135
#
#
#
# Elastic Compliance Matrix: (Units=1/GPa)
#
#
# Indices 1 2 3 4 5 6 
#
# 1 0.028133 -0.004961 -0.017536 0.000000 0.000000 0.000000
# 2 -0.004961 0.012832 -0.007572 0.000000 0.000000 0.000000
# 3 -0.017536 -0.007572 0.036183 0.000000 0.000000 0.000000
# 4 0.000000 0.000000 0.000000 0.035874 0.000000 0.000000
# 5 0.000000 0.000000 0.000000 0.000000 0.047708 0.000000
# 6 0.000000 0.000000 0.000000 0.000000 0.000000 0.043078
#
#
# Mechanical properties :
#
#
# Convention : Reuss Voigt Hill
#
# Bulk Modulus (GPa) = 58.78339 67.21528 62.99933
# Shear Modulus (GPa) = 18.54485 21.69817 20.12151
#
# Velocity S-wave (km/s) = 3.16771 3.42646 3.29962
# Velocity P-wave (km/s) = 6.72206 7.21273 6.97171
#
# Compressibility (1/GPa) = 0.01701161
#
# Stress axis : x y z
#
# Youngs Moduli (GPa) = 35.54486 77.92910 27.63719
#
# Poissons Ratio (x) = 0.38659 0.48463
# Poissons Ratio (y) = 0.17633 0.20927
# Poissons Ratio (z) = 0.62330 0.59010
#
# Static dielectric constant tensor:
#      x y z
#    x 3.317040 0.000000 0.000000 
#    y 0.000000 3.355040 0.000000 
#    z 0.000000 0.000000 4.465840 
# 
# 
# High freq. dielectric constant tensor:
#      x y z
#    x 1.682570 0.000000 0.000000 
#    y 0.000000 1.701570 0.000000 
#    z 0.000000 0.000000 1.735110 
# 
# From -- ./inp_files/19834.got.cif
#   From: 2010.03.12/outbox.cif.g09.slc.cpg/sg63_10_cif.got.tgz:19834.got - 2010.04.10 19:34:48.
