data_PCOD8258194
_publ_section_title
;
Structure prediction by ZEFSAII (Michael W. Deem and Ramdas Pophale) SiO2 
 PCOD8258194
Probable space group: C M C M
;
_chemical_formula_sum "Si O2"
_cell_formula_units_Z 68
_cell_length_a 18.815689
_cell_length_b 37.844789
_cell_length_c 7.410216
_cell_angle_alpha 90.000000
_cell_angle_beta 90.000000
_cell_angle_gamma 90.000000
_cell_volume 5276.635339
_symmetry_space_group_name_H-M "C M C M"
_symmetry_group_IT_number 63
_symmetry_cell_setting 'orthorhombic'
loop_
_space_group_symop_operation_xyz
x,y,z
-x,-y,1/2+z
x,-y,-z
-x,y,1/2-z
-x,-y,-z
x,y,1/2-z
-x,y,z
x,-y,1/2+z
1/2+x,1/2+y,z
1/2-x,1/2-y,1/2+z
1/2+x,1/2-y,-z
1/2-x,1/2+y,1/2-z
1/2-x,1/2-y,-z
1/2+x,1/2+y,1/2-z
1/2-x,1/2+y,z
1/2+x,1/2-y,1/2+z
loop_
_atom_site_type_symbol
_atom_site_label
_atom_site_fract_x
_atom_site_fract_y
_atom_site_fract_z
Si Si1 0.425390 0.081279 0.250000
Si Si2 0.148065 0.349346 0.750000
Si Si3 0.000000 0.690445 0.250000
Si Si4 0.500000 0.750049 0.039671
Si Si5 0.714455 0.194355 0.548719
Si Si6 0.000000 0.458775 0.036014
Si Si7 0.152798 0.231811 0.039516
O O1 0.500000 0.103705 0.250000
O O2 0.358848 0.107938 0.250000
O O3 0.429340 0.057188 0.433934
O O4 0.070370 0.332790 0.750000
O O5 0.193107 0.338609 0.574250
O O6 0.000000 0.713809 0.430266
O O7 0.500000 0.760892 0.250000
O O8 0.569587 0.726628 0.991739
O O9 0.688143 0.185671 0.750000
O O10 0.799830 0.201228 0.551827
O O11 0.676527 0.229467 0.468992
O O12 0.000000 0.449655 0.250000
O O13 0.000000 0.500000 0.000000
O O14 0.167939 0.229754 0.250000
#
# Coordination Sequence:
#
# PCOD8258194 Si02
#       7
#     8   8   4   8  16   8  16
#     4   8  20  28  42  70  83 107 134 162 199 251
#     4  12  20  34  38  59  88 103 132 167 223 266
#     4  12  20  26  44  54  68 108 114 168 234 256
#     4  10  20  28  39  58  73  85 131 185 220 252
#     4  10  20  29  43  53  74 106 135 168 214 272
#     4   9  14  30  51  69  88 109 133 164 197 233
#     4   9  17  30  41  58  70  95 140 178 218 260
#
# _framework density 12.886998999999999
#
# number of rings (size 3 to 8) (size 9 to 14) (size 15 to 20)
#    0.706    1.412    5.294    0.000    3.294    0.941 
#    0.000    1.176    0.000    0.000    0.000    0.000 
#    0.000    0.000    0.000    0.000    0.000    0.000 
#
# Total GULP energy -421193.836649 kJ/mol
# GULP energy per Si atom -12388.054019 kJ/mol
# Density = 1.285767 g / cm^3
# Si number density = 12.886999 Si / 1000 Ang^3
#
#
#
# Elastic Constant Matrix: (Units=GPa)
#
#
# Indices 1 2 3 4 5 6 
#
# 1 79.4120 27.1545 20.3012 0.0000 0.0000 0.0000
# 2 27.1545 67.4631 34.0246 0.0000 0.0000 0.0000
# 3 20.3012 34.0246 84.9842 0.0000 0.0000 0.0000
# 4 0.0000 0.0000 0.0000 15.7486 0.0000 0.0000
# 5 0.0000 0.0000 0.0000 0.0000 6.8954 0.0000
# 6 0.0000 0.0000 0.0000 0.0000 0.0000 17.5440
#
#
#
# Elastic Compliance Matrix: (Units=1/GPa)
#
#
# Indices 1 2 3 4 5 6 
#
# 1 0.014741 -0.005209 -0.001436 0.000000 0.000000 0.000000
# 2 -0.005209 0.020414 -0.006929 0.000000 0.000000 0.000000
# 3 -0.001436 -0.006929 0.014884 0.000000 0.000000 0.000000
# 4 0.000000 0.000000 0.000000 0.063498 0.000000 0.000000
# 5 0.000000 0.000000 0.000000 0.000000 0.145024 0.000000
# 6 0.000000 0.000000 0.000000 0.000000 0.000000 0.057000
#
#
# Mechanical properties :
#
#
# Convention : Reuss Voigt Hill
#
# Bulk Modulus (GPa) = 43.68425 43.86887 43.77656
# Shear Modulus (GPa) = 14.27194 18.06287 16.16740
#
# Velocity S-wave (km/s) = 3.33147 3.74790 3.54581
# Velocity P-wave (km/s) = 6.98354 7.26940 7.12790
#
# Compressibility (1/GPa) = 0.02289155
#
# Stress axis : x y z
#
# Youngs Moduli (GPa) = 67.83867 48.98575 67.18692
#
# Poissons Ratio (x) = 0.25518 0.09646
# Poissons Ratio (y) = 0.35339 0.46552
# Poissons Ratio (z) = 0.09740 0.33941
#
# Static dielectric constant tensor:
#      x y z
#    x 2.656730 0.000000 0.000000 
#    y 0.000000 2.234120 0.000000 
#    z 0.000000 0.000000 2.742030 
# 
# 
# High freq. dielectric constant tensor:
#      x y z
#    x 1.475510 0.000000 0.000000 
#    y 0.000000 1.432990 0.000000 
#    z 0.000000 0.000000 1.507810 
# 
# From -- ./inp_files/6621.got.cif
#   From: 2010.03.12/outbox.cif.g09.slc.cpg/sg63_4_cif.got.tgz:6621.got - 2010.04.10 19:34:48.
