data_PCOD8258754
_publ_section_title
;
Structure prediction by ZEFSAII (Michael W. Deem and Ramdas Pophale) SiO2 
 PCOD8258754
Probable space group: C M C M
;
_chemical_formula_sum "Si O2"
_cell_formula_units_Z 112
_cell_length_a 9.674167
_cell_length_b 22.476125
_cell_length_c 28.397767
_cell_angle_alpha 90.000000
_cell_angle_beta 90.000000
_cell_angle_gamma 90.000000
_cell_volume 6174.747605
_symmetry_space_group_name_H-M "C M C M"
_symmetry_group_IT_number 63
_symmetry_cell_setting 'orthorhombic'
loop_
_space_group_symop_operation_xyz
x,y,z
-x,-y,1/2+z
x,-y,-z
-x,y,1/2-z
-x,-y,-z
x,y,1/2-z
-x,y,z
x,-y,1/2+z
1/2+x,1/2+y,z
1/2-x,1/2-y,1/2+z
1/2+x,1/2-y,-z
1/2-x,1/2+y,1/2-z
1/2-x,1/2-y,-z
1/2+x,1/2+y,1/2-z
1/2-x,1/2+y,z
1/2+x,1/2-y,1/2+z
loop_
_atom_site_type_symbol
_atom_site_label
_atom_site_fract_x
_atom_site_fract_y
_atom_site_fract_z
Si Si1 0.157457 0.874941 0.424838
Si Si2 0.338644 0.502609 0.881580
Si Si3 0.336171 0.370894 0.608182
Si Si4 0.659819 0.305095 0.516381
Si Si5 0.664217 0.699709 0.197457
Si Si6 0.840422 0.322668 0.153323
Si Si7 0.844063 0.447520 0.303824
O O1 0.175472 0.859162 0.479430
O O2 0.253947 0.831627 0.394356
O O3 0.000000 0.865036 0.407961
O O4 0.198829 0.944534 0.418137
O O5 0.500000 0.501046 0.869893
O O6 0.288950 0.438820 0.901498
O O7 0.261189 0.512457 0.832659
O O8 0.500000 0.366593 0.607272
O O9 0.280650 0.328998 0.566109
O O10 0.280443 0.348094 0.659032
O O11 0.500000 0.285008 0.520218
O O12 0.750000 0.250000 0.500000
O O13 0.724302 0.686203 0.250000
O O14 0.500000 0.698058 0.199898
O O15 0.713698 0.764768 0.180714
O O16 0.816837 0.377732 0.188166
O O17 0.000000 0.315226 0.138297
O O18 0.817431 0.462825 0.250000
O O19 0.000000 0.463453 0.319205
#
# Coordination Sequence:
#
# PCOD8258754 Si02
#       7
#    16  16  16  16  16  16  16
#     4   9  18  31  48  71  98 125 153 190 235 281
#     4   9  18  32  48  68  94 125 161 197 235 280
#     4   9  18  31  47  69  96 124 157 196 234 277
#     4  10  20  34  52  74  98 124 155 192 237 285
#     4   9  16  26  43  68  94 119 152 196 238 272
#     4   9  16  28  48  71  95 123 156 193 233 280
#     4   9  17  29  46  69  96 126 160 198 239 281
#
# _framework density 18.138393000000001
#
# number of rings (size 3 to 8) (size 9 to 14) (size 15 to 20)
#    0.000    2.857    0.000    1.286    0.000    4.857 
#    0.000    5.000    0.000    2.143    0.000    5.000 
#    0.000    0.000    0.000    0.000    0.000    0.000 
#
# Total GULP energy -694217.123544 kJ/mol
# GULP energy per Si atom -12396.734349 kJ/mol
# Density = 1.809711 g / cm^3
# Si number density = 18.138393 Si / 1000 Ang^3
#
#
#
# Elastic Constant Matrix: (Units=GPa)
#
#
# Indices 1 2 3 4 5 6 
#
# 1 34.9938 30.7982 28.4679 0.0000 0.0000 0.0000
# 2 30.7982 119.4732 63.6990 0.0000 0.0000 0.0000
# 3 28.4679 63.6990 126.5646 0.0000 0.0000 0.0000
# 4 0.0000 0.0000 0.0000 22.8686 0.0000 0.0000
# 5 0.0000 0.0000 0.0000 0.0000 22.4615 0.0000
# 6 0.0000 0.0000 0.0000 0.0000 0.0000 19.5459
#
#
#
# Elastic Compliance Matrix: (Units=1/GPa)
#
#
# Indices 1 2 3 4 5 6 
#
# 1 0.039235 -0.007393 -0.005104 0.000000 0.000000 0.000000
# 2 -0.007393 0.012833 -0.004796 0.000000 0.000000 0.000000
# 3 -0.005104 -0.004796 0.011463 0.000000 0.000000 0.000000
# 4 0.000000 0.000000 0.000000 0.043728 0.000000 0.000000
# 5 0.000000 0.000000 0.000000 0.000000 0.044521 0.000000
# 6 0.000000 0.000000 0.000000 0.000000 0.000000 0.051161
#
#
# Mechanical properties :
#
#
# Convention : Reuss Voigt Hill
#
# Bulk Modulus (GPa) = 34.54806 58.55129 46.54968
# Shear Modulus (GPa) = 20.22853 23.51298 21.87076
#
# Velocity S-wave (km/s) = 3.34313 3.60434 3.47619
# Velocity P-wave (km/s) = 5.83012 7.04784 6.46770
#
# Compressibility (1/GPa) = 0.02894518
#
# Stress axis : x y z
#
# Youngs Moduli (GPa) = 25.48716 77.92561 87.23777
#
# Poissons Ratio (x) = 0.57608 0.44530
# Poissons Ratio (y) = 0.18842 0.41837
# Poissons Ratio (z) = 0.13010 0.37372
#
# Static dielectric constant tensor:
#      x y z
#    x 3.090470 0.000000 0.000000 
#    y 0.000000 3.463860 0.000000 
#    z 0.000000 0.000000 3.520940 
# 
# 
# High freq. dielectric constant tensor:
#      x y z
#    x 1.663900 0.000000 0.000000 
#    y 0.000000 1.705940 0.000000 
#    z 0.000000 0.000000 1.704590 
# 
# From -- ./inp_files/68599.got.cif
#   From: 2010.03.12/outbox.cif.g09.slc.cpg/sg63_35_cif.got.tgz:68599.got - 2010.04.10 19:34:48.
