data_PCOD8258847
_publ_section_title
;
Structure prediction by ZEFSAII (Michael W. Deem and Ramdas Pophale) SiO2 
 PCOD8258847
Probable space group: C M C M
;
_chemical_formula_sum "Si O2"
_cell_formula_units_Z 96
_cell_length_a 12.821759
_cell_length_b 17.323886
_cell_length_c 23.782119
_cell_angle_alpha 90.000000
_cell_angle_beta 90.000000
_cell_angle_gamma 90.000000
_cell_volume 5282.548276
_symmetry_space_group_name_H-M "C M C M"
_symmetry_group_IT_number 63
_symmetry_cell_setting 'orthorhombic'
loop_
_space_group_symop_operation_xyz
x,y,z
-x,-y,1/2+z
x,-y,-z
-x,y,1/2-z
-x,-y,-z
x,y,1/2-z
-x,y,z
x,-y,1/2+z
1/2+x,1/2+y,z
1/2-x,1/2-y,1/2+z
1/2+x,1/2-y,-z
1/2-x,1/2+y,1/2-z
1/2-x,1/2-y,-z
1/2+x,1/2+y,1/2-z
1/2-x,1/2+y,z
1/2+x,1/2-y,1/2+z
loop_
_atom_site_type_symbol
_atom_site_label
_atom_site_fract_x
_atom_site_fract_y
_atom_site_fract_z
Si Si1 0.252881 0.884893 0.186012
Si Si2 0.618738 0.412364 0.517169
Si Si3 0.885849 0.237565 0.185475
Si Si4 0.767540 0.346066 0.610251
Si Si5 0.619456 0.036999 0.314459
Si Si6 0.119929 0.811922 0.407175
O O1 0.210609 0.881734 0.250000
O O2 0.343704 0.823270 0.176433
O O3 0.158108 0.865169 0.144547
O O4 0.302273 0.967326 0.171929
O O5 0.636984 0.500000 0.500000
O O6 0.500000 0.401091 0.540253
O O7 0.707681 0.391991 0.561805
O O8 0.637447 0.358207 0.464005
O O9 0.890734 0.214691 0.250000
O O10 0.816840 0.172555 0.157278
O O11 0.000000 0.235656 0.157791
O O12 0.856510 0.396180 0.640682
O O13 0.818542 0.268211 0.586362
O O14 0.634996 0.065685 0.250000
O O15 0.500000 0.010381 0.323247
O O16 0.000000 0.792876 0.395789
#
# Coordination Sequence:
#
# PCOD8258847 Si02
#       6
#    16  16  16  16  16  16
#     4   9  18  33  54  77 102 136 174 209 250 303
#     4  10  21  37  56  75  99 137 180 220 264 312
#     4   9  17  30  49  74 102 131 167 211 253 296
#     4  11  20  33  53  77 105 137 172 213 261 314
#     4  10  20  34  53  78 108 140 172 207 252 307
#     4  10  21  36  54  78 106 135 171 216 266 316
#
# _framework density 18.173045999999999
#
# number of rings (size 3 to 8) (size 9 to 14) (size 15 to 20)
#    0.000    2.167    0.000    3.500    0.000    3.000 
#    0.000    0.833    0.000   14.000    0.000    0.000 
#    0.000    0.000    0.000    0.000    0.000    0.000 
#
# Total GULP energy -595176.543853 kJ/mol
# GULP energy per Si atom -12399.511330 kJ/mol
# Density = 1.813168 g / cm^3
# Si number density = 18.173046 Si / 1000 Ang^3
#
#
#
# Elastic Constant Matrix: (Units=GPa)
#
#
# Indices 1 2 3 4 5 6 
#
# 1 99.2760 35.8591 50.3864 0.0000 0.0000 0.0000
# 2 35.8591 96.9533 45.8094 0.0000 0.0000 0.0000
# 3 50.3864 45.8094 78.4846 0.0000 0.0000 0.0000
# 4 0.0000 0.0000 0.0000 28.4869 0.0000 0.0000
# 5 0.0000 0.0000 0.0000 0.0000 28.3695 0.0000
# 6 0.0000 0.0000 0.0000 0.0000 0.0000 23.1313
#
#
#
# Elastic Compliance Matrix: (Units=1/GPa)
#
#
# Indices 1 2 3 4 5 6 
#
# 1 0.015075 -0.001385 -0.008870 0.000000 0.000000 0.000000
# 2 -0.001385 0.014369 -0.007498 0.000000 0.000000 0.000000
# 3 -0.008870 -0.007498 0.022812 0.000000 0.000000 0.000000
# 4 0.000000 0.000000 0.000000 0.035104 0.000000 0.000000
# 5 0.000000 0.000000 0.000000 0.000000 0.035249 0.000000
# 6 0.000000 0.000000 0.000000 0.000000 0.000000 0.043231
#
#
# Mechanical properties :
#
#
# Convention : Reuss Voigt Hill
#
# Bulk Modulus (GPa) = 59.69699 59.86929 59.78314
# Shear Modulus (GPa) = 24.16295 25.50814 24.83555
#
# Velocity S-wave (km/s) = 3.65033 3.75056 3.70079
# Velocity P-wave (km/s) = 7.11948 7.19522 7.15745
#
# Compressibility (1/GPa) = 0.01675126
#
# Stress axis : x y z
#
# Youngs Moduli (GPa) = 66.33588 69.59400 43.83682
#
# Poissons Ratio (x) = 0.09637 0.38882
# Poissons Ratio (y) = 0.09186 0.32868
# Poissons Ratio (z) = 0.58838 0.52180
#
# Static dielectric constant tensor:
#      x y z
#    x 3.419200 0.000000 0.000000 
#    y 0.000000 3.320670 0.000000 
#    z 0.000000 0.000000 3.408050 
# 
# 
# High freq. dielectric constant tensor:
#      x y z
#    x 1.708450 0.000000 0.000000 
#    y 0.000000 1.709520 0.000000 
#    z 0.000000 0.000000 1.700400 
# 
# From -- ./inp_files/61467.got.cif
#   From: 2010.03.12/outbox.cif.g09.slc.cpg/sg63_31_cif.got.tgz:61467.got - 2010.04.10 19:34:48.
