data_PCOD8258813
_publ_section_title
;
Structure prediction by ZEFSAII (Michael W. Deem and Ramdas Pophale) SiO2 
 PCOD8258813
Probable space group: C M C M
;
_chemical_formula_sum "Si O2"
_cell_formula_units_Z 104
_cell_length_a 25.619067
_cell_length_b 21.897191
_cell_length_c 9.118648
_cell_angle_alpha 90.000000
_cell_angle_beta 90.000000
_cell_angle_gamma 90.000000
_cell_volume 5115.430250
_symmetry_space_group_name_H-M "C M C M"
_symmetry_group_IT_number 63
_symmetry_cell_setting 'orthorhombic'
loop_
_space_group_symop_operation_xyz
x,y,z
-x,-y,1/2+z
x,-y,-z
-x,y,1/2-z
-x,-y,-z
x,y,1/2-z
-x,y,z
x,-y,1/2+z
1/2+x,1/2+y,z
1/2-x,1/2-y,1/2+z
1/2+x,1/2-y,-z
1/2-x,1/2+y,1/2-z
1/2-x,1/2-y,-z
1/2+x,1/2+y,1/2-z
1/2-x,1/2+y,z
1/2+x,1/2-y,1/2+z
loop_
_atom_site_type_symbol
_atom_site_label
_atom_site_fract_x
_atom_site_fract_y
_atom_site_fract_z
Si Si1 0.712431 0.438196 0.578735
Si Si2 0.000000 0.934475 0.574199
Si Si3 0.117982 0.440837 0.413987
Si Si4 0.607676 0.622351 0.421203
Si Si5 0.134137 0.744263 0.575878
Si Si6 0.439617 0.153627 0.415722
Si Si7 0.285198 0.850668 0.413105
O O1 0.731714 0.500000 0.500000
O O2 0.723730 0.445582 0.750000
O O3 0.651102 0.428990 0.544250
O O4 0.742666 0.377709 0.524168
O O5 0.948619 0.898278 0.516123
O O6 0.000000 0.942152 0.750000
O O7 0.000000 0.000000 0.500000
O O8 0.137284 0.500000 0.500000
O O9 0.099791 0.458036 0.250000
O O10 0.070030 0.410152 0.500569
O O11 0.165517 0.394682 0.409927
O O12 0.600939 0.631399 0.250000
O O13 0.628945 0.686654 0.484410
O O14 0.126041 0.738712 0.750000
O O15 0.087938 0.708821 0.497716
O O16 0.191449 0.715502 0.535689
O O17 0.418105 0.148093 0.250000
O O18 0.500000 0.169021 0.416888
O O19 0.260392 0.846388 0.250000
#
# Coordination Sequence:
#
# PCOD8258813 Si02
#       7
#    16   8  16  16  16  16  16
#     4  11  22  36  56  83 115 149 189 231 278 336
#     4  10  20  38  62  86 116 152 189 234 285 334
#     4  10  20  34  53  76 104 141 186 233 280 335
#     4   9  20  37  59  87 113 145 189 235 281 336
#     4   9  19  37  59  82 108 142 188 233 277 337
#     4  10  21  35  51  75 108 142 179 229 282 336
#     4   9  19  35  55  81 111 143 182 228 277 330
#
# _framework density 20.330646999999999
#
# number of rings (size 3 to 8) (size 9 to 14) (size 15 to 20)
#    0.000    2.308    0.000    3.231    1.077    6.462 
#    0.000    3.077    0.000    0.000    0.000    0.000 
#    0.000    0.000    0.000    0.000    0.000    0.000 
#
# Total GULP energy -644638.428183 kJ/mol
# GULP energy per Si atom -12396.892850 kJ/mol
# Density = 2.028437 g / cm^3
# Si number density = 20.330647 Si / 1000 Ang^3
#
#
#
# Elastic Constant Matrix: (Units=GPa)
#
#
# Indices 1 2 3 4 5 6 
#
# 1 99.2016 37.4899 35.2828 0.0000 0.0000 0.0000
# 2 37.4899 112.6383 34.1363 0.0000 0.0000 0.0000
# 3 35.2828 34.1363 89.8409 0.0000 0.0000 0.0000
# 4 0.0000 0.0000 0.0000 24.2987 0.0000 0.0000
# 5 0.0000 0.0000 0.0000 0.0000 23.6839 0.0000
# 6 0.0000 0.0000 0.0000 0.0000 0.0000 25.2342
#
#
#
# Elastic Compliance Matrix: (Units=1/GPa)
#
#
# Indices 1 2 3 4 5 6 
#
# 1 0.012575 -0.003039 -0.003784 0.000000 0.000000 0.000000
# 2 -0.003039 0.010768 -0.002898 0.000000 0.000000 0.000000
# 3 -0.003784 -0.002898 0.013718 0.000000 0.000000 0.000000
# 4 0.000000 0.000000 0.000000 0.041154 0.000000 0.000000
# 5 0.000000 0.000000 0.000000 0.000000 0.042223 0.000000
# 6 0.000000 0.000000 0.000000 0.000000 0.000000 0.039629
#
#
# Mechanical properties :
#
#
# Convention : Reuss Voigt Hill
#
# Bulk Modulus (GPa) = 56.75560 57.27763 57.01661
# Shear Modulus (GPa) = 26.97167 27.62816 27.29991
#
# Velocity S-wave (km/s) = 3.64627 3.69038 3.66839
# Velocity P-wave (km/s) = 6.76047 6.81122 6.78589
#
# Compressibility (1/GPa) = 0.01761941
#
# Stress axis : x y z
#
# Youngs Moduli (GPa) = 79.52559 92.87147 72.89728
#
# Poissons Ratio (x) = 0.28219 0.27583
# Poissons Ratio (y) = 0.24164 0.21126
# Poissons Ratio (z) = 0.30091 0.26914
#
# Static dielectric constant tensor:
#      x y z
#    x 3.720360 0.000000 0.000000 
#    y 0.000000 3.985260 0.000000 
#    z 0.000000 0.000000 3.665240 
# 
# 
# High freq. dielectric constant tensor:
#      x y z
#    x 1.789180 0.000000 0.000000 
#    y 0.000000 1.799590 0.000000 
#    z 0.000000 0.000000 1.781370 
# 
# From -- ./inp_files/12596.got.cif
#   From: 2010.03.12/outbox.cif.g09.slc.cpg/sg63_7_cif.got.tgz:12596.got - 2010.04.10 19:34:48.
