data_PCOD8258615
_publ_section_title
;
Structure prediction by ZEFSAII (Michael W. Deem and Ramdas Pophale) SiO2 
 PCOD8258615
Probable space group: C M C M
;
_chemical_formula_sum "Si O2"
_cell_formula_units_Z 96
_cell_length_a 9.230290
_cell_length_b 23.129901
_cell_length_c 23.304753
_cell_angle_alpha 90.000000
_cell_angle_beta 90.000000
_cell_angle_gamma 90.000000
_cell_volume 4975.464413
_symmetry_space_group_name_H-M "C M C M"
_symmetry_group_IT_number 63
_symmetry_cell_setting 'orthorhombic'
loop_
_space_group_symop_operation_xyz
x,y,z
-x,-y,1/2+z
x,-y,-z
-x,y,1/2-z
-x,-y,-z
x,y,1/2-z
-x,y,z
x,-y,1/2+z
1/2+x,1/2+y,z
1/2-x,1/2-y,1/2+z
1/2+x,1/2-y,-z
1/2-x,1/2+y,1/2-z
1/2-x,1/2-y,-z
1/2+x,1/2+y,1/2-z
1/2-x,1/2+y,z
1/2+x,1/2-y,1/2+z
loop_
_atom_site_type_symbol
_atom_site_label
_atom_site_fract_x
_atom_site_fract_y
_atom_site_fract_z
Si Si1 0.670289 0.698142 0.369420
Si Si2 0.832797 0.480478 0.585038
Si Si3 0.664357 0.597299 0.902927
Si Si4 0.334786 0.618720 0.471901
Si Si5 0.669872 0.695616 0.683460
Si Si6 0.838073 0.601856 0.313668
O O1 0.500000 0.708428 0.365217
O O2 0.717998 0.672396 0.431975
O O3 0.747923 0.757922 0.355389
O O4 0.721302 0.652231 0.322051
O O5 0.770149 0.543961 0.590314
O O6 0.755783 0.440242 0.537672
O O7 0.806190 0.452439 0.646717
O O8 0.000000 0.484705 0.567586
O O9 0.500000 0.574473 0.897543
O O10 0.705248 0.634441 0.846743
O O11 0.680041 0.636022 0.961141
O O12 0.500000 0.604367 0.455019
O O13 0.722910 0.694555 0.750000
O O14 0.500000 0.709354 0.680727
O O15 0.822654 0.577571 0.250000
O O16 0.000000 0.626965 0.325132
#
# Coordination Sequence:
#
# PCOD8258615 Si02
#       6
#    16  16  16  16  16  16
#     4  10  20  34  54  80 105 130 168 218 264 304
#     4  10  20  33  52  80 109 136 171 216 261 303
#     4  10  21  37  55  74 102 142 178 207 249 308
#     4   9  19  36  56  78 105 136 170 210 258 310
#     4  10  22  39  56  75 103 140 177 211 253 307
#     4   9  18  33  52  74 103 139 174 210 258 312
#
# _framework density 19.294681000000001
#
# number of rings (size 3 to 8) (size 9 to 14) (size 15 to 20)
#    0.000    2.333    0.000    2.000    0.000    8.667 
#    0.000    0.000    0.000    0.000    0.000    0.000 
#    0.000    0.000    0.000    0.000    0.000    0.000 
#
# Total GULP energy -595062.631758 kJ/mol
# GULP energy per Si atom -12397.138162 kJ/mol
# Density = 1.925077 g / cm^3
# Si number density = 19.294681 Si / 1000 Ang^3
#
#
#
# Elastic Constant Matrix: (Units=GPa)
#
#
# Indices 1 2 3 4 5 6 
#
# 1 72.1825 43.4767 30.8824 0.0000 0.0000 0.0000
# 2 43.4767 86.9751 41.6515 0.0000 0.0000 0.0000
# 3 30.8824 41.6515 88.6104 0.0000 0.0000 0.0000
# 4 0.0000 0.0000 0.0000 13.5168 0.0000 0.0000
# 5 0.0000 0.0000 0.0000 0.0000 21.7239 0.0000
# 6 0.0000 0.0000 0.0000 0.0000 0.0000 31.2556
#
#
#
# Elastic Compliance Matrix: (Units=1/GPa)
#
#
# Indices 1 2 3 4 5 6 
#
# 1 0.020419 -0.008774 -0.002992 0.000000 0.000000 0.000000
# 2 -0.008774 0.018608 -0.005689 0.000000 0.000000 0.000000
# 3 -0.002992 -0.005689 0.015002 0.000000 0.000000 0.000000
# 4 0.000000 0.000000 0.000000 0.073982 0.000000 0.000000
# 5 0.000000 0.000000 0.000000 0.000000 0.046032 0.000000
# 6 0.000000 0.000000 0.000000 0.000000 0.000000 0.031994
#
#
# Mechanical properties :
#
#
# Convention : Reuss Voigt Hill
#
# Bulk Modulus (GPa) = 52.30386 53.30991 52.80689
# Shear Modulus (GPa) = 20.21679 22.08308 21.14994
#
# Velocity S-wave (km/s) = 3.24047 3.38674 3.31441
# Velocity P-wave (km/s) = 6.41620 6.55612 6.48654
#
# Compressibility (1/GPa) = 0.01911905
#
# Stress axis : x y z
#
# Youngs Moduli (GPa) = 48.97509 53.74134 66.65721
#
# Poissons Ratio (x) = 0.47152 0.19944
# Poissons Ratio (y) = 0.42970 0.37919
# Poissons Ratio (z) = 0.14654 0.30572
#
# Static dielectric constant tensor:
#      x y z
#    x 3.568660 0.000000 0.000000 
#    y 0.000000 3.296380 0.000000 
#    z 0.000000 0.000000 3.791010 
# 
# 
# High freq. dielectric constant tensor:
#      x y z
#    x 1.750120 0.000000 0.000000 
#    y 0.000000 1.732680 0.000000 
#    z 0.000000 0.000000 1.762340 
# 
# From -- ./inp_files/59916.got.cif
#   From: 2010.03.12/outbox.cif.g09.slc.cpg/sg63_30_cif.got.tgz:59916.got - 2010.04.10 19:34:48.
