data_PCOD8258515
_publ_section_title
;
Structure prediction by ZEFSAII (Michael W. Deem and Ramdas Pophale) SiO2 
 PCOD8258515
Probable space group: C M C M
;
_chemical_formula_sum "Si O2"
_cell_formula_units_Z 112
_cell_length_a 14.833407
_cell_length_b 15.699128
_cell_length_c 25.457312
_cell_angle_alpha 90.000000
_cell_angle_beta 90.000000
_cell_angle_gamma 90.000000
_cell_volume 5928.283836
_symmetry_space_group_name_H-M "C M C M"
_symmetry_group_IT_number 63
_symmetry_cell_setting 'orthorhombic'
loop_
_space_group_symop_operation_xyz
x,y,z
-x,-y,1/2+z
x,-y,-z
-x,y,1/2-z
-x,-y,-z
x,y,1/2-z
-x,y,z
x,-y,1/2+z
1/2+x,1/2+y,z
1/2-x,1/2-y,1/2+z
1/2+x,1/2-y,-z
1/2-x,1/2+y,1/2-z
1/2-x,1/2-y,-z
1/2+x,1/2+y,1/2-z
1/2-x,1/2+y,z
1/2+x,1/2-y,1/2+z
loop_
_atom_site_type_symbol
_atom_site_label
_atom_site_fract_x
_atom_site_fract_y
_atom_site_fract_z
Si Si1 0.101247 0.538566 0.194708
Si Si2 0.811779 0.359234 0.407910
Si Si3 0.763395 0.904699 0.512590
Si Si4 0.736643 0.583508 0.807192
Si Si5 0.603515 0.681455 0.406636
Si Si6 0.103700 0.068446 0.190841
Si Si7 0.896443 0.454607 0.917718
O O1 0.113049 0.592310 0.250000
O O2 0.165969 0.458501 0.198274
O O3 0.118105 0.589849 0.140154
O O4 0.000000 0.501490 0.191546
O O5 0.747866 0.350791 0.459123
O O6 0.745807 0.352949 0.356638
O O7 0.881349 0.282076 0.404774
O O8 0.867534 0.446851 0.412344
O O9 0.837620 0.860979 0.548182
O O10 0.665671 0.905872 0.540961
O O11 0.796710 0.000000 0.500000
O O12 0.713146 0.626314 0.750000
O O13 0.661668 0.514411 0.822521
O O14 0.500000 0.662842 0.420191
O O15 0.629703 0.642524 0.349895
O O16 0.125267 0.101170 0.250000
O O17 0.000000 0.041506 0.185325
O O18 0.000000 0.447804 0.936748
#
# Coordination Sequence:
#
# PCOD8258515 Si02
#       7
#    16  16  16  16  16  16  16
#     4   8  13  22  39  66  96 121 151 196 246 294
#     4  10  20  33  50  75 105 131 164 215 266 312
#     4  10  21  36  52  71  98 134 179 223 254 301
#     4   9  17  32  54  76 100 133 169 204 247 299
#     4  11  22  35  52  75 107 141 168 207 264 314
#     4   9  18  33  53  77 104 137 177 213 246 295
#     4   9  17  30  50  73  96 128 170 214 262 313
#
# _framework density 18.892482999999999
#
# number of rings (size 3 to 8) (size 9 to 14) (size 15 to 20)
#    0.000    2.571    0.000    3.429    0.000    4.571 
#    0.000    0.714    0.000    4.286    0.000    0.000 
#    0.000    4.571    0.000    0.000    0.000    0.000 
#
# Total GULP energy -693750.453342 kJ/mol
# GULP energy per Si atom -12388.400953 kJ/mol
# Density = 1.884948 g / cm^3
# Si number density = 18.892483 Si / 1000 Ang^3
#
#
#
# Elastic Constant Matrix: (Units=GPa)
#
#
# Indices 1 2 3 4 5 6 
#
# 1 88.3135 32.7174 57.0803 0.0000 0.0000 0.0000
# 2 32.7174 39.3590 37.6272 0.0000 0.0000 0.0000
# 3 57.0803 37.6272 163.6178 0.0000 0.0000 0.0000
# 4 0.0000 0.0000 0.0000 15.8638 0.0000 0.0000
# 5 0.0000 0.0000 0.0000 0.0000 25.0071 0.0000
# 6 0.0000 0.0000 0.0000 0.0000 0.0000 18.4725
#
#
#
# Elastic Compliance Matrix: (Units=1/GPa)
#
#
# Indices 1 2 3 4 5 6 
#
# 1 0.017889 -0.011413 -0.003616 0.000000 0.000000 0.000000
# 2 -0.011413 0.039849 -0.005182 0.000000 0.000000 0.000000
# 3 -0.003616 -0.005182 0.008565 0.000000 0.000000 0.000000
# 4 0.000000 0.000000 0.000000 0.063037 0.000000 0.000000
# 5 0.000000 0.000000 0.000000 0.000000 0.039989 0.000000
# 6 0.000000 0.000000 0.000000 0.000000 0.000000 0.054134
#
#
# Mechanical properties :
#
#
# Convention : Reuss Voigt Hill
#
# Bulk Modulus (GPa) = 38.64076 60.68224 49.66150
# Shear Modulus (GPa) = 18.34781 22.79303 20.57042
#
# Velocity S-wave (km/s) = 3.11974 3.47718 3.30330
# Velocity P-wave (km/s) = 5.78571 6.95058 6.39472
#
# Compressibility (1/GPa) = 0.02587941
#
# Stress axis : x y z
#
# Youngs Moduli (GPa) = 55.90119 25.09485 116.75282
#
# Poissons Ratio (x) = 0.28641 0.42218
# Poissons Ratio (y) = 0.63801 0.60506
# Poissons Ratio (z) = 0.20214 0.13005
#
# Static dielectric constant tensor:
#      x y z
#    x 3.453180 0.000000 0.000000 
#    y 0.000000 2.939660 0.000000 
#    z 0.000000 0.000000 4.389480 
# 
# 
# High freq. dielectric constant tensor:
#      x y z
#    x 1.734340 0.000000 0.000000 
#    y 0.000000 1.669160 0.000000 
#    z 0.000000 0.000000 1.770710 
# 
# From -- ./inp_files/69364.got.cif
#   From: 2010.03.12/outbox.cif.g09.slc.cpg/sg63_35_cif.got.tgz:69364.got - 2010.04.10 19:34:48.
