data_PCOD8258839
_publ_section_title
;
Structure prediction by ZEFSAII (Michael W. Deem and Ramdas Pophale) SiO2 
 PCOD8258839
Probable space group: C M C M
;
_chemical_formula_sum "Si O2"
_cell_formula_units_Z 80
_cell_length_a 20.303434
_cell_length_b 13.955718
_cell_length_c 16.330889
_cell_angle_alpha 90.000000
_cell_angle_beta 90.000000
_cell_angle_gamma 90.000000
_cell_volume 4627.341056
_symmetry_space_group_name_H-M "C M C M"
_symmetry_group_IT_number 63
_symmetry_cell_setting 'orthorhombic'
loop_
_space_group_symop_operation_xyz
x,y,z
-x,-y,1/2+z
x,-y,-z
-x,y,1/2-z
-x,-y,-z
x,y,1/2-z
-x,y,z
x,-y,1/2+z
1/2+x,1/2+y,z
1/2-x,1/2-y,1/2+z
1/2+x,1/2-y,-z
1/2-x,1/2+y,1/2-z
1/2-x,1/2-y,-z
1/2+x,1/2+y,1/2-z
1/2-x,1/2+y,z
1/2+x,1/2-y,1/2+z
loop_
_atom_site_type_symbol
_atom_site_label
_atom_site_fract_x
_atom_site_fract_y
_atom_site_fract_z
Si Si1 0.574181 0.417949 0.935393
Si Si2 0.372838 0.778085 0.453370
Si Si3 0.806489 0.859291 0.844539
Si Si4 0.074925 0.555964 0.656536
Si Si5 0.178459 0.427596 0.572373
O O1 0.500000 0.430102 0.900899
O O2 0.581607 0.312931 0.978470
O O3 0.627891 0.424137 0.861926
O O4 0.590928 0.500000 0.000000
O O5 0.312383 0.739488 0.396603
O O6 0.344195 0.826087 0.535094
O O7 0.415437 0.852084 0.400505
O O8 0.802174 0.833082 0.750000
O O9 0.741828 0.916546 0.870818
O O10 0.091581 0.583899 0.750000
O O11 0.119851 0.468095 0.627815
O O12 0.000000 0.520870 0.647843
O O13 0.197316 0.500000 0.500000
#
# Coordination Sequence:
#
# PCOD8258839 Si02
#       5
#    16  16  16  16  16
#     4   9  19  34  54  77 103 138 179 223 271 318
#     4   9  20  33  55  79 106 142 177 224 266 314
#     4  10  20  34  53  78 106 139 177 223 272 312
#     4  10  20  34  54  83 114 142 178 223 271 321
#     4  10  20  35  55  77 112 145 182 217 265 329
#
# _framework density 17.288544999999999
#
# number of rings (size 3 to 8) (size 9 to 14) (size 15 to 20)
#    1.200    1.200    0.000    3.000    0.000    4.800 
#    0.000    0.000    0.000    1.200    0.000    0.000 
#    0.000    0.000    0.000    0.000    0.000    0.000 
#
# Total GULP energy -495736.693228 kJ/mol
# GULP energy per Si atom -12393.417331 kJ/mol
# Density = 1.724920 g / cm^3
# Si number density = 17.288545 Si / 1000 Ang^3
#
#
#
# Elastic Constant Matrix: (Units=GPa)
#
#
# Indices 1 2 3 4 5 6 
#
# 1 111.1198 44.7861 38.5781 0.0000 0.0000 0.0000
# 2 44.7861 85.6796 36.2915 0.0000 0.0000 0.0000
# 3 38.5781 36.2915 66.1906 0.0000 0.0000 0.0000
# 4 0.0000 0.0000 0.0000 23.7757 0.0000 0.0000
# 5 0.0000 0.0000 0.0000 0.0000 24.8100 0.0000
# 6 0.0000 0.0000 0.0000 0.0000 0.0000 25.6135
#
#
#
# Elastic Compliance Matrix: (Units=1/GPa)
#
#
# Indices 1 2 3 4 5 6 
#
# 1 0.012478 -0.004483 -0.004814 0.000000 0.000000 0.000000
# 2 -0.004483 0.016813 -0.006605 0.000000 0.000000 0.000000
# 3 -0.004814 -0.006605 0.021535 0.000000 0.000000 0.000000
# 4 0.000000 0.000000 0.000000 0.042060 0.000000 0.000000
# 5 0.000000 0.000000 0.000000 0.000000 0.040306 0.000000
# 6 0.000000 0.000000 0.000000 0.000000 0.000000 0.039042
#
#
# Mechanical properties :
#
#
# Convention : Reuss Voigt Hill
#
# Bulk Modulus (GPa) = 52.57543 55.81125 54.19334
# Shear Modulus (GPa) = 23.76666 24.39548 24.08107
#
# Velocity S-wave (km/s) = 3.71172 3.76051 3.73620
# Velocity P-wave (km/s) = 6.98898 7.15594 7.07295
#
# Compressibility (1/GPa) = 0.01902029
#
# Stress axis : x y z
#
# Youngs Moduli (GPa) = 80.14386 59.47948 46.43505
#
# Poissons Ratio (x) = 0.26665 0.22356
# Poissons Ratio (y) = 0.35928 0.30672
# Poissons Ratio (z) = 0.38584 0.39288
#
# Static dielectric constant tensor:
#      x y z
#    x 3.191840 0.000000 0.000000 
#    y 0.000000 3.146060 0.000000 
#    z 0.000000 0.000000 3.035930 
# 
# 
# High freq. dielectric constant tensor:
#      x y z
#    x 1.674630 0.000000 0.000000 
#    y 0.000000 1.659720 0.000000 
#    z 0.000000 0.000000 1.651460 
# 
# From -- ./inp_files/47021.got.cif
#   From: 2010.03.12/outbox.cif.g09.slc.cpg/sg63_24_cif.got.tgz:47021.got - 2010.04.10 19:34:48.
