data_PCOD8258718
_publ_section_title
;
Structure prediction by ZEFSAII (Michael W. Deem and Ramdas Pophale) SiO2 
 PCOD8258718
Probable space group: C M C M
;
_chemical_formula_sum "Si O2"
_cell_formula_units_Z 96
_cell_length_a 23.889336
_cell_length_b 13.467742
_cell_length_c 18.019844
_cell_angle_alpha 90.000000
_cell_angle_beta 90.000000
_cell_angle_gamma 90.000000
_cell_volume 5797.621966
_symmetry_space_group_name_H-M "C M C M"
_symmetry_group_IT_number 63
_symmetry_cell_setting 'orthorhombic'
loop_
_space_group_symop_operation_xyz
x,y,z
-x,-y,1/2+z
x,-y,-z
-x,y,1/2-z
-x,-y,-z
x,y,1/2-z
-x,y,z
x,-y,1/2+z
1/2+x,1/2+y,z
1/2-x,1/2-y,1/2+z
1/2+x,1/2-y,-z
1/2-x,1/2+y,1/2-z
1/2-x,1/2-y,-z
1/2+x,1/2+y,1/2-z
1/2-x,1/2+y,z
1/2+x,1/2-y,1/2+z
loop_
_atom_site_type_symbol
_atom_site_label
_atom_site_fract_x
_atom_site_fract_y
_atom_site_fract_z
Si Si1 0.231366 0.070966 0.162793
Si Si2 0.267237 0.768961 0.416510
Si Si3 0.939196 0.228323 0.837998
Si Si4 0.830564 0.875343 0.163205
Si Si5 0.332309 0.966612 0.415586
Si Si6 0.935674 0.546419 0.336551
O O1 0.236706 0.090927 0.250000
O O2 0.209834 0.168753 0.121009
O O3 0.184264 0.988690 0.144090
O O4 0.291472 0.035517 0.133099
O O5 0.250000 0.750000 0.500000
O O6 0.211734 0.799875 0.373937
O O7 0.315284 0.851533 0.409229
O O8 0.942671 0.226122 0.750000
O O9 0.892587 0.150984 0.867193
O O10 0.924375 0.340421 0.862301
O O11 0.000000 0.197296 0.870801
O O12 0.826344 0.854911 0.250000
O O13 0.328518 0.000000 0.500000
O O14 0.395169 0.976094 0.384485
O O15 0.922069 0.532129 0.250000
O O16 0.000000 0.516769 0.353000
#
# Coordination Sequence:
#
# PCOD8258718 Si02
#       6
#    16  16  16  16  16  16
#     4  10  20  34  51  74 102 133 171 212 253 309
#     4  11  21  33  49  71 103 136 169 208 258 308
#     4   8  14  27  49  76 101 126 164 213 255 289
#     4   9  18  30  49  74  99 129 166 207 252 303
#     4  11  21  33  51  75 105 137 172 209 262 312
#     4   9  18  32  51  75 102 133 172 216 256 301
#
# _framework density 16.558513000000001
#
# number of rings (size 3 to 8) (size 9 to 14) (size 15 to 20)
#    0.000    2.333    1.667    3.000    0.000    3.667 
#    0.000    0.000    0.000    1.000    0.000    3.500 
#    0.000    0.000    0.000    0.000    0.000    0.000 
#
# Total GULP energy -595132.827500 kJ/mol
# GULP energy per Si atom -12398.600573 kJ/mol
# Density = 1.652083 g / cm^3
# Si number density = 16.558513 Si / 1000 Ang^3
#
#
#
# Elastic Constant Matrix: (Units=GPa)
#
#
# Indices 1 2 3 4 5 6 
#
# 1 129.3557 69.1779 38.9242 0.0000 0.0000 0.0000
# 2 69.1779 115.0399 42.9614 0.0000 0.0000 0.0000
# 3 38.9242 42.9614 53.2483 0.0000 0.0000 0.0000
# 4 0.0000 0.0000 0.0000 27.0824 0.0000 0.0000
# 5 0.0000 0.0000 0.0000 0.0000 5.8786 0.0000
# 6 0.0000 0.0000 0.0000 0.0000 0.0000 23.2551
#
#
#
# Elastic Compliance Matrix: (Units=1/GPa)
#
#
# Indices 1 2 3 4 5 6 
#
# 1 0.012026 -0.005652 -0.004231 0.000000 0.000000 0.000000
# 2 -0.005652 0.015097 -0.008049 0.000000 0.000000 0.000000
# 3 -0.004231 -0.008049 0.028367 0.000000 0.000000 0.000000
# 4 0.000000 0.000000 0.000000 0.036924 0.000000 0.000000
# 5 0.000000 0.000000 0.000000 0.000000 0.170109 0.000000
# 6 0.000000 0.000000 0.000000 0.000000 0.000000 0.043001
#
#
# Mechanical properties :
#
#
# Convention : Reuss Voigt Hill
#
# Bulk Modulus (GPa) = 50.95217 66.64122 58.79670
# Shear Modulus (GPa) = 14.37061 21.01523 17.69292
#
# Velocity S-wave (km/s) = 2.94916 3.56638 3.27235
# Velocity P-wave (km/s) = 6.51418 7.56915 7.06139
#
# Compressibility (1/GPa) = 0.01962625
#
# Stress axis : x y z
#
# Youngs Moduli (GPa) = 83.15096 66.23736 35.25193
#
# Poissons Ratio (x) = 0.37436 0.14916
# Poissons Ratio (y) = 0.46995 0.28375
# Poissons Ratio (z) = 0.35183 0.53316
#
# Static dielectric constant tensor:
#      x y z
#    x 3.219060 0.000000 0.000000 
#    y 0.000000 3.146880 0.000000 
#    z 0.000000 0.000000 3.027720 
# 
# 
# High freq. dielectric constant tensor:
#      x y z
#    x 1.631450 0.000000 0.000000 
#    y 0.000000 1.631400 0.000000 
#    z 0.000000 0.000000 1.627700 
# 
# From -- ./inp_files/48001.got.cif
#   From: 2010.03.12/outbox.cif.g09.slc.cpg/sg63_25_cif.got.tgz:48001.got - 2010.04.10 19:34:48.
