data_PCOD8258337
_publ_section_title
;
Structure prediction by ZEFSAII (Michael W. Deem and Ramdas Pophale) SiO2 
 PCOD8258337
Probable space group: C M C M
;
_chemical_formula_sum "Si O2"
_cell_formula_units_Z 96
_cell_length_a 9.340939
_cell_length_b 30.428834
_cell_length_c 19.242064
_cell_angle_alpha 90.000000
_cell_angle_beta 90.000000
_cell_angle_gamma 90.000000
_cell_volume 5469.246553
_symmetry_space_group_name_H-M "C M C M"
_symmetry_group_IT_number 63
_symmetry_cell_setting 'orthorhombic'
loop_
_space_group_symop_operation_xyz
x,y,z
-x,-y,1/2+z
x,-y,-z
-x,y,1/2-z
-x,-y,-z
x,y,1/2-z
-x,y,z
x,-y,1/2+z
1/2+x,1/2+y,z
1/2-x,1/2-y,1/2+z
1/2+x,1/2-y,-z
1/2-x,1/2+y,1/2-z
1/2-x,1/2-y,-z
1/2+x,1/2+y,1/2-z
1/2-x,1/2+y,z
1/2+x,1/2-y,1/2+z
loop_
_atom_site_type_symbol
_atom_site_label
_atom_site_fract_x
_atom_site_fract_y
_atom_site_fract_z
Si Si1 0.834928 0.302382 0.437871
Si Si2 0.338995 0.457724 0.167516
Si Si3 0.663522 0.136925 0.332488
Si Si4 0.832778 0.624663 0.828927
Si Si5 0.838913 0.054421 0.332651
Si Si6 0.833311 0.798949 0.574991
O O1 0.789020 0.333202 0.374049
O O2 0.808938 0.252705 0.413404
O O3 0.735314 0.314642 0.502647
O O4 0.000000 0.309692 0.459510
O O5 0.330303 0.457605 0.250000
O O6 0.500000 0.448588 0.142126
O O7 0.239564 0.418884 0.138165
O O8 0.289296 0.506036 0.140620
O O9 0.673851 0.139548 0.250000
O O10 0.500000 0.139478 0.358136
O O11 0.730699 0.091321 0.361237
O O12 0.753629 0.177445 0.361872
O O13 0.780717 0.633585 0.750000
O O14 0.000000 0.615878 0.831199
O O15 0.838150 0.054774 0.250000
O O16 0.000000 0.064553 0.359215
O O17 0.000000 0.811506 0.575147
#
# Coordination Sequence:
#
# PCOD8258337 Si02
#       6
#    16  16  16  16  16  16
#     4   9  19  35  52  70  95 127 162 199 238 285
#     4   8  14  25  42  66  96 127 157 191 231 275
#     4  10  20  32  48  73 102 128 157 197 242 284
#     4   9  17  29  47  72  99 126 157 193 234 280
#     4   8  14  26  44  66  94 127 160 192 229 277
#     4  10  20  34  53  72  92 125 165 201 240 288
#
# _framework density 17.552692
#
# number of rings (size 3 to 8) (size 9 to 14) (size 15 to 20)
#    0.000    3.000    0.000    2.000    0.000    3.667 
#    0.000    5.000    0.000    3.000    0.000    7.000 
#    0.000    0.000    0.000    0.000    0.000    0.000 
#
# Total GULP energy -595040.189490 kJ/mol
# GULP energy per Si atom -12396.670614 kJ/mol
# Density = 1.751274 g / cm^3
# Si number density = 17.552692 Si / 1000 Ang^3
#
#
#
# Elastic Constant Matrix: (Units=GPa)
#
#
# Indices 1 2 3 4 5 6 
#
# 1 97.7563 63.9620 36.1716 0.0000 0.0000 0.0000
# 2 63.9620 114.8759 41.6382 0.0000 0.0000 0.0000
# 3 36.1716 41.6382 38.9905 0.0000 0.0000 0.0000
# 4 0.0000 0.0000 0.0000 6.0952 0.0000 0.0000
# 5 0.0000 0.0000 0.0000 0.0000 23.6943 0.0000
# 6 0.0000 0.0000 0.0000 0.0000 0.0000 34.9021
#
#
#
# Elastic Compliance Matrix: (Units=1/GPa)
#
#
# Indices 1 2 3 4 5 6 
#
# 1 0.018154 -0.006532 -0.009866 0.000000 0.000000 0.000000
# 2 -0.006532 0.016553 -0.011617 0.000000 0.000000 0.000000
# 3 -0.009866 -0.011617 0.047206 0.000000 0.000000 0.000000
# 4 0.000000 0.000000 0.000000 0.164064 0.000000 0.000000
# 5 0.000000 0.000000 0.000000 0.000000 0.042204 0.000000
# 6 0.000000 0.000000 0.000000 0.000000 0.000000 0.028652
#
#
# Mechanical properties :
#
#
# Convention : Reuss Voigt Hill
#
# Bulk Modulus (GPa) = 38.63593 59.46291 49.04942
# Shear Modulus (GPa) = 13.10651 20.26171 16.68411
#
# Velocity S-wave (km/s) = 2.73554 3.40124 3.08639
# Velocity P-wave (km/s) = 5.66010 7.02673 6.38011
#
# Compressibility (1/GPa) = 0.02588264
#
# Stress axis : x y z
#
# Youngs Moduli (GPa) = 55.08440 60.41300 21.18377
#
# Poissons Ratio (x) = 0.39461 0.20900
# Poissons Ratio (y) = 0.35981 0.24609
# Poissons Ratio (z) = 0.54346 0.70182
#
# Static dielectric constant tensor:
#      x y z
#    x 3.387210 0.000000 0.000000 
#    y 0.000000 3.591980 0.000000 
#    z 0.000000 0.000000 2.897330 
# 
# 
# High freq. dielectric constant tensor:
#      x y z
#    x 1.681310 0.000000 0.000000 
#    y 0.000000 1.689800 0.000000 
#    z 0.000000 0.000000 1.634690 
# 
# From -- ./inp_files/51425.got.cif
#   From: 2010.03.12/outbox.cif.g09.slc.cpg/sg63_26_cif.got.tgz:51425.got - 2010.04.10 19:34:48.
