data_PCOD8258599
_publ_section_title
;
Structure prediction by ZEFSAII (Michael W. Deem and Ramdas Pophale) SiO2 
 PCOD8258599
Probable space group: C M C M
;
_chemical_formula_sum "Si O2"
_cell_formula_units_Z 80
_cell_length_a 18.726647
_cell_length_b 25.593012
_cell_length_c 9.121877
_cell_angle_alpha 90.000000
_cell_angle_beta 90.000000
_cell_angle_gamma 90.000000
_cell_volume 4371.853861
_symmetry_space_group_name_H-M "C M C M"
_symmetry_group_IT_number 63
_symmetry_cell_setting 'orthorhombic'
loop_
_space_group_symop_operation_xyz
x,y,z
-x,-y,1/2+z
x,-y,-z
-x,y,1/2-z
-x,-y,-z
x,y,1/2-z
-x,y,z
x,-y,1/2+z
1/2+x,1/2+y,z
1/2-x,1/2-y,1/2+z
1/2+x,1/2-y,-z
1/2-x,1/2+y,1/2-z
1/2-x,1/2-y,-z
1/2+x,1/2+y,1/2-z
1/2-x,1/2+y,z
1/2+x,1/2-y,1/2+z
loop_
_atom_site_type_symbol
_atom_site_label
_atom_site_fract_x
_atom_site_fract_y
_atom_site_fract_z
Si Si1 0.337675 0.947373 0.078677
Si Si2 0.584832 0.855486 0.583938
Si Si3 0.584717 0.244072 0.587941
Si Si4 0.827685 0.052495 0.920927
Si Si5 0.582949 0.639208 0.420697
O O1 0.352694 0.953509 0.250000
O O2 0.254975 0.936771 0.044175
O O3 0.383201 0.899835 0.017920
O O4 0.363948 0.000000 0.000000
O O5 0.611990 0.862357 0.750000
O O6 0.500000 0.858992 0.574437
O O7 0.612581 0.799218 0.526228
O O8 0.615430 0.231219 0.750000
O O9 0.500000 0.243456 0.596291
O O10 0.608629 0.302051 0.538860
O O11 0.842057 0.045374 0.750000
O O12 0.871879 0.101081 0.979086
O O13 0.854288 0.000000 0.000000
O O14 0.597368 0.627701 0.250000
O O15 0.500000 0.631327 0.458164
#
# Coordination Sequence:
#
# PCOD8258599 Si02
#       5
#    16  16  16  16  16
#     4  10  21  37  55  74  99 133 171 209 253 303
#     4  10  20  33  52  79 106 132 166 207 250 298
#     4   8  15  30  51  74 102 135 167 202 248 297
#     4  10  21  36  54  75 100 133 171 210 254 302
#     4   9  18  33  54  79 105 134 169 208 251 299
#
# _framework density 18.298874000000001
#
# number of rings (size 3 to 8) (size 9 to 14) (size 15 to 20)
#    0.000    2.600    0.000    3.000    0.000    5.600 
#    0.000    3.000    0.000    0.000    0.000    0.000 
#    0.000    0.000    0.000    0.000    0.000    0.000 
#
# Total GULP energy -496004.995019 kJ/mol
# GULP energy per Si atom -12400.124875 kJ/mol
# Density = 1.825722 g / cm^3
# Si number density = 18.298874 Si / 1000 Ang^3
#
#
#
# Elastic Constant Matrix: (Units=GPa)
#
#
# Indices 1 2 3 4 5 6 
#
# 1 31.5356 39.4117 34.3234 0.0000 0.0000 0.0000
# 2 39.4117 145.1866 71.3547 0.0000 0.0000 0.0000
# 3 34.3234 71.3547 107.8738 0.0000 0.0000 0.0000
# 4 0.0000 0.0000 0.0000 40.1015 0.0000 0.0000
# 5 0.0000 0.0000 0.0000 0.0000 27.7798 0.0000
# 6 0.0000 0.0000 0.0000 0.0000 0.0000 166.6334
#
#
#
# Elastic Compliance Matrix: (Units=1/GPa)
#
#
# Indices 1 2 3 4 5 6 
#
# 1 0.056288 -0.009598 -0.011561 0.000000 0.000000 0.000000
# 2 -0.009598 0.011842 -0.004779 0.000000 0.000000 0.000000
# 3 -0.011561 -0.004779 0.016110 0.000000 0.000000 0.000000
# 4 0.000000 0.000000 0.000000 0.024937 0.000000 0.000000
# 5 0.000000 0.000000 0.000000 0.000000 0.035997 0.000000
# 6 0.000000 0.000000 0.000000 0.000000 0.000000 0.006001
#
#
# Mechanical properties :
#
#
# Convention : Reuss Voigt Hill
#
# Bulk Modulus (GPa) = 30.89878 63.86395 47.38137
# Shear Modulus (GPa) = 23.38199 56.20336 39.79268
#
# Velocity S-wave (km/s) = 3.57849 5.54804 4.66832
# Velocity P-wave (km/s) = 5.83064 8.71879 7.41666
#
# Compressibility (1/GPa) = 0.03236373
#
# Stress axis : x y z
#
# Youngs Moduli (GPa) = 17.76565 84.44629 62.07354
#
# Poissons Ratio (x) = 0.81049 0.71765
# Poissons Ratio (y) = 0.17051 0.29666
# Poissons Ratio (z) = 0.20539 0.40358
#
# Static dielectric constant tensor:
#      x y z
#    x 3.075450 0.000000 0.000000 
#    y 0.000000 3.597100 0.000000 
#    z 0.000000 0.000000 3.732400 
# 
# 
# High freq. dielectric constant tensor:
#      x y z
#    x 1.678230 0.000000 0.000000 
#    y 0.000000 1.723650 0.000000 
#    z 0.000000 0.000000 1.718250 
# 
# From -- ./inp_files/6382.got.cif
#   From: 2010.03.12/outbox.cif.g09.slc.cpg/sg63_4_cif.got.tgz:6382.got - 2010.04.10 19:34:48.
