data_PCOD8258733
_publ_section_title
;
Structure prediction by ZEFSAII (Michael W. Deem and Ramdas Pophale) SiO2 
 PCOD8258733
Probable space group: C M C M
;
_chemical_formula_sum "Si O2"
_cell_formula_units_Z 96
_cell_length_a 13.664378
_cell_length_b 17.066221
_cell_length_c 23.435354
_cell_angle_alpha 90.000000
_cell_angle_beta 90.000000
_cell_angle_gamma 90.000000
_cell_volume 5465.108026
_symmetry_space_group_name_H-M "C M C M"
_symmetry_group_IT_number 63
_symmetry_cell_setting 'orthorhombic'
loop_
_space_group_symop_operation_xyz
x,y,z
-x,-y,1/2+z
x,-y,-z
-x,y,1/2-z
-x,-y,-z
x,y,1/2-z
-x,y,z
x,-y,1/2+z
1/2+x,1/2+y,z
1/2-x,1/2-y,1/2+z
1/2+x,1/2-y,-z
1/2-x,1/2+y,1/2-z
1/2-x,1/2-y,-z
1/2+x,1/2+y,1/2-z
1/2-x,1/2+y,z
1/2+x,1/2-y,1/2+z
loop_
_atom_site_type_symbol
_atom_site_label
_atom_site_fract_x
_atom_site_fract_y
_atom_site_fract_z
Si Si1 0.888739 0.647306 0.483203
Si Si2 0.282757 0.410235 0.915898
Si Si3 0.611185 0.670879 0.517745
Si Si4 0.888313 0.166623 0.184636
Si Si5 0.888380 0.348110 0.315723
Si Si6 0.232135 0.411684 0.415612
O O1 0.824603 0.625584 0.427870
O O2 0.875861 0.738411 0.498356
O O3 0.853181 0.597048 0.537382
O O4 0.000000 0.625341 0.469200
O O5 0.316010 0.384923 0.853248
O O6 0.279551 0.503310 0.918960
O O7 0.359697 0.379888 0.962727
O O8 0.500000 0.651888 0.534900
O O9 0.680745 0.649802 0.571152
O O10 0.858732 0.152293 0.250000
O O11 0.876365 0.257327 0.168370
O O12 0.000000 0.140398 0.173933
O O13 0.861585 0.363354 0.250000
O O14 0.813182 0.397893 0.353393
O O15 0.000000 0.374374 0.327909
#
# Coordination Sequence:
#
# PCOD8258733 Si02
#       6
#    16  16  16  16  16  16
#     4  10  20  34  52  72  97 132 171 205 238 285
#     4  11  21  31  49  75 104 132 157 199 253 299
#     4  10  20  34  52  72  97 132 171 205 238 285
#     4   9  18  34  56  77  96 125 167 209 244 283
#     4   9  18  34  56  77  96 125 167 209 244 283
#     4  11  21  31  49  75 104 132 157 199 253 299
#
# _framework density 17.565984
#
# number of rings (size 3 to 8) (size 9 to 14) (size 15 to 20)
#    0.000    2.000    0.000    8.000    0.000    7.333 
#    0.000    0.000    0.000    1.000    0.000    4.667 
#    0.000    0.000    0.000    0.000    0.000    0.000 
#
# Total GULP energy -595297.419389 kJ/mol
# GULP energy per Si atom -12402.029571 kJ/mol
# Density = 1.752600 g / cm^3
# Si number density = 17.565984 Si / 1000 Ang^3
#
#
#
# Elastic Constant Matrix: (Units=GPa)
#
#
# Indices 1 2 3 4 5 6 
#
# 1 90.3419 6.8011 40.1056 0.0000 0.0000 0.0000
# 2 6.8011 53.6061 26.8925 0.0000 0.0000 0.0000
# 3 40.1056 26.8925 92.0418 0.0000 0.0000 0.0000
# 4 0.0000 0.0000 0.0000 16.3212 0.0000 0.0000
# 5 0.0000 0.0000 0.0000 0.0000 33.2366 0.0000
# 6 0.0000 0.0000 0.0000 0.0000 0.0000 14.8079
#
#
#
# Elastic Compliance Matrix: (Units=1/GPa)
#
#
# Indices 1 2 3 4 5 6 
#
# 1 0.013824 0.001486 -0.006458 0.000000 0.000000 0.000000
# 2 0.001486 0.022018 -0.007081 0.000000 0.000000 0.000000
# 3 -0.006458 -0.007081 0.015747 0.000000 0.000000 0.000000
# 4 0.000000 0.000000 0.000000 0.061270 0.000000 0.000000
# 5 0.000000 0.000000 0.000000 0.000000 0.030087 0.000000
# 6 0.000000 0.000000 0.000000 0.000000 0.000000 0.067532
#
#
# Mechanical properties :
#
#
# Convention : Reuss Voigt Hill
#
# Bulk Modulus (GPa) = 36.38429 42.62090 39.50260
# Shear Modulus (GPa) = 20.51326 23.68585 22.09955
#
# Velocity S-wave (km/s) = 3.42099 3.67603 3.55080
# Velocity P-wave (km/s) = 6.03010 6.50643 6.27279
#
# Compressibility (1/GPa) = 0.02748439
#
# Stress axis : x y z
#
# Youngs Moduli (GPa) = 72.33816 45.41696 63.50333
#
# Poissons Ratio (x) = -0.06748 0.41008
# Poissons Ratio (y) = -0.10747 0.44964
# Poissons Ratio (z) = 0.46713 0.32158
#
# Static dielectric constant tensor:
#      x y z
#    x 3.338820 0.000000 0.000000 
#    y 0.000000 3.233390 0.000000 
#    z 0.000000 0.000000 3.149300 
# 
# 
# High freq. dielectric constant tensor:
#      x y z
#    x 1.681000 0.000000 0.000000 
#    y 0.000000 1.676580 0.000000 
#    z 0.000000 0.000000 1.665500 
# 
# From -- ./inp_files/54162.got.cif
#   From: 2010.03.12/outbox.cif.g09.slc.cpg/sg63_28_cif.got.tgz:54162.got - 2010.04.10 19:34:48.
