data_PCOD8258112
_publ_section_title
;
Structure prediction by ZEFSAII (Michael W. Deem and Ramdas Pophale) SiO2 
 PCOD8258112
Probable space group: C M C M
;
_chemical_formula_sum "Si O2"
_cell_formula_units_Z 96
_cell_length_a 15.730086
_cell_length_b 23.294540
_cell_length_c 13.799782
_cell_angle_alpha 90.000000
_cell_angle_beta 90.000000
_cell_angle_gamma 90.000000
_cell_volume 5056.586741
_symmetry_space_group_name_H-M "C M C M"
_symmetry_group_IT_number 63
_symmetry_cell_setting 'orthorhombic'
loop_
_space_group_symop_operation_xyz
x,y,z
-x,-y,1/2+z
x,-y,-z
-x,y,1/2-z
-x,-y,-z
x,y,1/2-z
-x,y,z
x,-y,1/2+z
1/2+x,1/2+y,z
1/2-x,1/2-y,1/2+z
1/2+x,1/2-y,-z
1/2-x,1/2+y,1/2-z
1/2-x,1/2-y,-z
1/2+x,1/2+y,1/2-z
1/2-x,1/2+y,z
1/2+x,1/2-y,1/2+z
loop_
_atom_site_type_symbol
_atom_site_label
_atom_site_fract_x
_atom_site_fract_y
_atom_site_fract_z
Si Si1 0.754806 0.456562 0.362651
Si Si2 0.098873 0.729357 0.859383
Si Si3 0.815581 0.579967 0.358597
Si Si4 0.597471 0.112362 0.954761
Si Si5 0.407461 0.433658 0.023642
Si Si6 0.349160 0.352860 0.640648
O O1 0.738026 0.453642 0.250000
O O2 0.764204 0.523287 0.395236
O O3 0.843266 0.426778 0.388542
O O4 0.674755 0.422830 0.409083
O O5 0.126987 0.712013 0.750000
O O6 0.121936 0.678375 0.933526
O O7 0.145594 0.787053 0.894988
O O8 0.000000 0.743215 0.861992
O O9 0.852999 0.570446 0.250000
O O10 0.890853 0.596395 0.432105
O O11 0.750123 0.632174 0.360584
O O12 0.500000 0.100184 0.925478
O O13 0.500000 0.418990 0.072425
O O14 0.407208 0.500000 0.000000
O O15 0.402176 0.395064 0.927579
O O16 0.386126 0.358771 0.750000
#
# Coordination Sequence:
#
# PCOD8258112 Si02
#       6
#    16  16  16  16  16  16
#     4  11  22  39  57  80 119 155 189 240 290 341
#     4   9  19  35  56  86 116 145 190 242 287 337
#     4  10  21  37  57  83 117 151 189 235 290 350
#     4  11  22  38  61  85 113 151 195 243 294 340
#     4  11  21  34  55  84 115 149 188 229 284 344
#     4  10  19  36  60  84 114 150 190 237 285 336
#
# _framework density 18.985137000000002
#
# number of rings (size 3 to 8) (size 9 to 14) (size 15 to 20)
#    0.000    1.667    3.333    1.500    0.000    4.667 
#    0.000    3.333    0.000    0.000    0.000    2.333 
#    0.000    0.000    0.000    0.000    0.000    0.000 
#
# Total GULP energy -595046.536530 kJ/mol
# GULP energy per Si atom -12396.802844 kJ/mol
# Density = 1.894193 g / cm^3
# Si number density = 18.985137 Si / 1000 Ang^3
#
#
#
# Elastic Constant Matrix: (Units=GPa)
#
#
# Indices 1 2 3 4 5 6 
#
# 1 104.6215 46.2885 37.1872 0.0000 0.0000 0.0000
# 2 46.2885 104.4683 57.7717 0.0000 0.0000 0.0000
# 3 37.1872 57.7717 78.0689 0.0000 0.0000 0.0000
# 4 0.0000 0.0000 0.0000 31.8024 0.0000 0.0000
# 5 0.0000 0.0000 0.0000 0.0000 19.7143 0.0000
# 6 0.0000 0.0000 0.0000 0.0000 0.0000 36.7799
#
#
#
# Elastic Compliance Matrix: (Units=1/GPa)
#
#
# Indices 1 2 3 4 5 6 
#
# 1 0.012315 -0.003745 -0.003095 0.000000 0.000000 0.000000
# 2 -0.003745 0.017342 -0.011049 0.000000 0.000000 0.000000
# 3 -0.003095 -0.011049 0.022460 0.000000 0.000000 0.000000
# 4 0.000000 0.000000 0.000000 0.031444 0.000000 0.000000
# 5 0.000000 0.000000 0.000000 0.000000 0.050725 0.000000
# 6 0.000000 0.000000 0.000000 0.000000 0.000000 0.027189
#
#
# Mechanical properties :
#
#
# Convention : Reuss Voigt Hill
#
# Bulk Modulus (GPa) = 61.20429 63.29482 62.24956
# Shear Modulus (GPa) = 24.66705 27.38675 26.02690
#
# Velocity S-wave (km/s) = 3.60847 3.80219 3.70660
# Velocity P-wave (km/s) = 7.04765 7.25859 7.15390
#
# Compressibility (1/GPa) = 0.01633872
#
# Stress axis : x y z
#
# Youngs Moduli (GPa) = 81.19952 57.66304 44.52394
#
# Poissons Ratio (x) = 0.21597 0.13779
# Poissons Ratio (y) = 0.30412 0.49196
# Poissons Ratio (z) = 0.25128 0.63713
#
# Static dielectric constant tensor:
#      x y z
#    x 3.488380 0.000000 0.000000 
#    y 0.000000 3.538860 0.000000 
#    z 0.000000 0.000000 3.511630 
# 
# 
# High freq. dielectric constant tensor:
#      x y z
#    x 1.730810 0.000000 0.000000 
#    y 0.000000 1.735410 0.000000 
#    z 0.000000 0.000000 1.731270 
# 
# From -- ./inp_files/31912.got.cif
#   From: 2010.03.12/outbox.cif.g09.slc.cpg/sg63_16_cif.got.tgz:31912.got - 2010.04.10 19:34:48.
