data_PCOD8258763
_publ_section_title
;
Structure prediction by ZEFSAII (Michael W. Deem and Ramdas Pophale) SiO2 
 PCOD8258763
Probable space group: C M C M
;
_chemical_formula_sum "Si O2"
_cell_formula_units_Z 96
_cell_length_a 30.704863
_cell_length_b 9.810077
_cell_length_c 17.325650
_cell_angle_alpha 90.000000
_cell_angle_beta 90.000000
_cell_angle_gamma 90.000000
_cell_volume 5218.781534
_symmetry_space_group_name_H-M "C M C M"
_symmetry_group_IT_number 63
_symmetry_cell_setting 'orthorhombic'
loop_
_space_group_symop_operation_xyz
x,y,z
-x,-y,1/2+z
x,-y,-z
-x,y,1/2-z
-x,-y,-z
x,y,1/2-z
-x,y,z
x,-y,1/2+z
1/2+x,1/2+y,z
1/2-x,1/2-y,1/2+z
1/2+x,1/2-y,-z
1/2-x,1/2+y,1/2-z
1/2-x,1/2-y,-z
1/2+x,1/2+y,1/2-z
1/2-x,1/2+y,z
1/2+x,1/2-y,1/2+z
loop_
_atom_site_type_symbol
_atom_site_label
_atom_site_fract_x
_atom_site_fract_y
_atom_site_fract_z
Si Si1 0.258406 0.126900 0.055109
Si Si2 0.321534 0.429882 0.662992
Si Si3 0.331002 0.752229 0.661510
Si Si4 0.500000 0.696806 0.838495
Si Si5 0.000000 0.872346 0.665055
Si Si6 0.585651 0.693461 0.576745
Si Si7 0.089549 0.129773 0.408247
O O1 0.214592 0.116171 0.103658
O O2 0.297517 0.155292 0.114034
O O3 0.250000 0.250000 0.000000
O O4 0.269081 0.000000 0.000000
O O5 0.309148 0.387041 0.750000
O O6 0.322089 0.592202 0.655442
O O7 0.366956 0.352291 0.643309
O O8 0.330267 0.801927 0.750000
O O9 0.378317 0.774461 0.625112
O O10 0.500000 0.752736 0.750000
O O11 0.500000 0.534684 0.835716
O O12 0.458976 0.750651 0.887377
O O13 0.955523 0.815739 0.627813
O O14 0.000000 0.812556 0.750000
O O15 0.593358 0.719871 0.485997
O O16 0.586243 0.531252 0.581897
#
# Coordination Sequence:
#
# PCOD8258763 Si02
#       7
#    16  16  16   8   8  16  16
#     4  12  23  38  57  78 105 139 180 223 268 321
#     4  10  20  34  52  75 104 139 178 222 272 324
#     4  10  20  35  53  76 105 138 174 221 272 321
#     4   9  15  23  37  63  96 135 174 216 265 314
#     4   9  15  23  35  59  95 137 179 216 257 313
#     4   9  16  26  43  66  99 133 175 217 265 319
#     4   9  16  25  42  64  97 137 178 215 263 319
#
# _framework density 18.395098000000001
#
# number of rings (size 3 to 8) (size 9 to 14) (size 15 to 20)
#    0.000    2.167    1.667    3.000    2.333    6.000 
#    0.000    0.000    0.000    0.000    0.000    0.583 
#    0.000    0.000    0.000    6.167    0.000    2.667 
#
# Total GULP energy -594778.747653 kJ/mol
# GULP energy per Si atom -12391.223909 kJ/mol
# Density = 1.835323 g / cm^3
# Si number density = 18.395098 Si / 1000 Ang^3
#
#
#
# Elastic Constant Matrix: (Units=GPa)
#
#
# Indices 1 2 3 4 5 6 
#
# 1 159.1257 26.9234 82.3758 0.0000 0.0000 0.0000
# 2 26.9234 34.5615 37.6679 0.0000 0.0000 0.0000
# 3 82.3758 37.6679 168.9969 0.0000 0.0000 0.0000
# 4 0.0000 0.0000 0.0000 18.0893 0.0000 0.0000
# 5 0.0000 0.0000 0.0000 0.0000 44.5841 0.0000
# 6 0.0000 0.0000 0.0000 0.0000 0.0000 0.6269
#
#
#
# Elastic Compliance Matrix: (Units=1/GPa)
#
#
# Indices 1 2 3 4 5 6 
#
# 1 0.008608 -0.002817 -0.003568 0.000000 0.000000 0.000000
# 2 -0.002817 0.039140 -0.007351 0.000000 0.000000 0.000000
# 3 -0.003568 -0.007351 0.009295 0.000000 0.000000 0.000000
# 4 0.000000 0.000000 0.000000 0.055281 0.000000 0.000000
# 5 0.000000 0.000000 0.000000 0.000000 0.022430 0.000000
# 6 0.000000 0.000000 0.000000 0.000000 0.000000 1.595174
#
#
# Mechanical properties :
#
#
# Convention : Reuss Voigt Hill
#
# Bulk Modulus (GPa) = 33.81672 72.95758 53.38715
# Shear Modulus (GPa) = 2.82924 27.04119 14.93522
#
# Velocity S-wave (km/s) = 1.24152 3.83825 2.85250
# Velocity P-wave (km/s) = 4.52533 7.70651 6.31937
#
# Compressibility (1/GPa) = 0.02957117
#
# Stress axis : x y z
#
# Youngs Moduli (GPa) = 116.17044 25.54943 107.58590
#
# Poissons Ratio (x) = 0.07197 0.38387
# Poissons Ratio (y) = 0.32725 0.79084
# Poissons Ratio (z) = 0.41450 0.18781
#
# Static dielectric constant tensor:
#      x y z
#    x 3.559250 0.000000 0.000000 
#    y 0.000000 2.761690 0.000000 
#    z 0.000000 0.000000 4.008230 
# 
# 
# High freq. dielectric constant tensor:
#      x y z
#    x 1.731680 0.000000 0.000000 
#    y 0.000000 1.633590 0.000000 
#    z 0.000000 0.000000 1.737280 
# 
# From -- ./inp_files/48991.got.cif
#   From: 2010.03.12/outbox.cif.g09.slc.cpg/sg63_25_cif.got.tgz:48991.got - 2010.04.10 19:34:48.
