data_PCOD8258489
_publ_section_title
;
Structure prediction by ZEFSAII (Michael W. Deem and Ramdas Pophale) SiO2 
 PCOD8258489
Probable space group: C M C M
;
_chemical_formula_sum "Si O2"
_cell_formula_units_Z 80
_cell_length_a 26.501004
_cell_length_b 18.467578
_cell_length_c 8.933616
_cell_angle_alpha 90.000000
_cell_angle_beta 90.000000
_cell_angle_gamma 90.000000
_cell_volume 4372.195275
_symmetry_space_group_name_H-M "C M C M"
_symmetry_group_IT_number 63
_symmetry_cell_setting 'orthorhombic'
loop_
_space_group_symop_operation_xyz
x,y,z
-x,-y,1/2+z
x,-y,-z
-x,y,1/2-z
-x,-y,-z
x,y,1/2-z
-x,y,z
x,-y,1/2+z
1/2+x,1/2+y,z
1/2-x,1/2-y,1/2+z
1/2+x,1/2-y,-z
1/2-x,1/2+y,1/2-z
1/2-x,1/2-y,-z
1/2+x,1/2+y,1/2-z
1/2-x,1/2+y,z
1/2+x,1/2-y,1/2+z
loop_
_atom_site_type_symbol
_atom_site_label
_atom_site_fract_x
_atom_site_fract_y
_atom_site_fract_z
Si Si1 0.057948 0.574015 0.074592
Si Si2 0.400883 0.789138 0.421329
Si Si3 0.703501 0.711142 0.076633
Si Si4 0.655740 0.423868 0.073626
Si Si5 0.556058 0.655818 0.578137
O O1 0.065304 0.566450 0.250000
O O2 0.000000 0.590068 0.030976
O O3 0.076769 0.500000 0.000000
O O4 0.092745 0.638196 0.015327
O O5 0.414313 0.805021 0.250000
O O6 0.343740 0.764000 0.442892
O O7 0.438671 0.727486 0.479309
O O8 0.715046 0.695441 0.250000
O O9 0.750000 0.750000 0.000000
O O10 0.693462 0.635349 0.994165
O O11 0.664546 0.428630 0.250000
O O12 0.597685 0.403841 0.033026
O O13 0.668960 0.500000 0.000000
O O14 0.563976 0.679249 0.750000
O O15 0.500000 0.623131 0.551874
#
# Coordination Sequence:
#
# PCOD8258489 Si02
#       5
#    16  16  16  16  16
#     4  10  20  33  50  73 103 139 175 211 254 304
#     4  10  20  33  51  76 104 133 169 214 260 308
#     4  10  21  38  59  81 104 133 172 216 263 313
#     4  10  20  35  55  79 109 142 175 214 259 305
#     4   9  18  32  50  74 105 142 180 213 249 298
#
# _framework density 18.297443999999999
#
# number of rings (size 3 to 8) (size 9 to 14) (size 15 to 20)
#    0.000    2.200    0.000    3.000    0.000    7.600 
#    0.000    1.000    0.000    4.800    0.000    0.000 
#    0.000    0.000    0.000    0.000    0.000    0.000 
#
# Total GULP energy -496134.495125 kJ/mol
# GULP energy per Si atom -12403.362378 kJ/mol
# Density = 1.825580 g / cm^3
# Si number density = 18.297444 Si / 1000 Ang^3
#
#
#
# Elastic Constant Matrix: (Units=GPa)
#
#
# Indices 1 2 3 4 5 6 
#
# 1 86.0477 50.0026 42.9337 0.0000 0.0000 0.0000
# 2 50.0026 144.8603 69.8599 0.0000 0.0000 0.0000
# 3 42.9337 69.8599 108.4443 0.0000 0.0000 0.0000
# 4 0.0000 0.0000 0.0000 38.0404 0.0000 0.0000
# 5 0.0000 0.0000 0.0000 0.0000 27.2317 0.0000
# 6 0.0000 0.0000 0.0000 0.0000 0.0000 18.0970
#
#
#
# Elastic Compliance Matrix: (Units=1/GPa)
#
#
# Indices 1 2 3 4 5 6 
#
# 1 0.015613 -0.003494 -0.003931 0.000000 0.000000 0.000000
# 2 -0.003494 0.010796 -0.005572 0.000000 0.000000 0.000000
# 3 -0.003931 -0.005572 0.014367 0.000000 0.000000 0.000000
# 4 0.000000 0.000000 0.000000 0.026288 0.000000 0.000000
# 5 0.000000 0.000000 0.000000 0.000000 0.036722 0.000000
# 6 0.000000 0.000000 0.000000 0.000000 0.000000 0.055258
#
#
# Mechanical properties :
#
#
# Convention : Reuss Voigt Hill
#
# Bulk Modulus (GPa) = 67.64163 73.88277 70.76220
# Shear Modulus (GPa) = 26.32091 28.44423 27.38257
#
# Velocity S-wave (km/s) = 3.79687 3.94705 3.87269
# Velocity P-wave (km/s) = 7.50131 7.82551 7.66513
#
# Compressibility (1/GPa) = 0.01478380
#
# Stress axis : x y z
#
# Youngs Moduli (GPa) = 64.04998 92.62575 69.60504
#
# Poissons Ratio (x) = 0.32360 0.27359
# Poissons Ratio (y) = 0.22377 0.38782
# Poissons Ratio (z) = 0.25175 0.51609
#
# Static dielectric constant tensor:
#      x y z
#    x 3.276120 0.000000 0.000000 
#    y 0.000000 3.314690 0.000000 
#    z 0.000000 0.000000 3.540920 
# 
# 
# High freq. dielectric constant tensor:
#      x y z
#    x 1.695230 0.000000 0.000000 
#    y 0.000000 1.706740 0.000000 
#    z 0.000000 0.000000 1.725470 
# 
# From -- ./inp_files/11980.got.cif
#   From: 2010.03.12/outbox.cif.g09.slc.cpg/sg63_6_cif.got.tgz:11980.got - 2010.04.10 19:34:48.
