data_PCOD8258569
_publ_section_title
;
Structure prediction by ZEFSAII (Michael W. Deem and Ramdas Pophale) SiO2 
 PCOD8258569
Probable space group: C M C M
;
_chemical_formula_sum "Si O2"
_cell_formula_units_Z 80
_cell_length_a 8.771577
_cell_length_b 27.206214
_cell_length_c 18.517069
_cell_angle_alpha 90.000000
_cell_angle_beta 90.000000
_cell_angle_gamma 90.000000
_cell_volume 4418.939288
_symmetry_space_group_name_H-M "C M C M"
_symmetry_group_IT_number 63
_symmetry_cell_setting 'orthorhombic'
loop_
_space_group_symop_operation_xyz
x,y,z
-x,-y,1/2+z
x,-y,-z
-x,y,1/2-z
-x,-y,-z
x,y,1/2-z
-x,y,z
x,-y,1/2+z
1/2+x,1/2+y,z
1/2-x,1/2-y,1/2+z
1/2+x,1/2-y,-z
1/2-x,1/2+y,1/2-z
1/2-x,1/2-y,-z
1/2+x,1/2+y,1/2-z
1/2-x,1/2+y,z
1/2+x,1/2-y,1/2+z
loop_
_atom_site_type_symbol
_atom_site_label
_atom_site_fract_x
_atom_site_fract_y
_atom_site_fract_z
Si Si1 0.177572 0.179425 0.472901
Si Si2 0.678859 0.681138 0.750000
Si Si3 0.320953 0.073774 0.750000
Si Si4 0.820981 0.929401 0.963764
Si Si5 0.676840 0.224349 0.610077
Si Si6 0.819180 0.024961 0.888087
O O1 0.227163 0.126003 0.442496
O O2 0.275864 0.189680 0.543943
O O3 0.211501 0.219021 0.410612
O O4 0.000000 0.180506 0.495261
O O5 0.500000 0.673865 0.750000
O O6 0.752016 0.627816 0.750000
O O7 0.726343 0.711980 0.819845
O O8 0.500000 0.079750 0.750000
O O9 0.269680 0.043435 0.680901
O O10 0.000000 0.935677 0.966724
O O11 0.764414 0.968728 0.904205
O O12 0.763484 0.942052 0.044304
O O13 0.500000 0.215739 0.627128
O O14 0.000000 0.028997 0.874147
#
# Coordination Sequence:
#
# PCOD8258569 Si02
#       6
#    16   8   8  16  16  16
#     4   9  17  32  54  78 106 140 174 208 252 305
#     4  12  24  38  55  72  97 135 174 213 261 312
#     4  12  24  36  51  76 107 133 162 205 259 312
#     4   8  15  30  54  79 100 130 174 213 242 287
#     4  10  20  33  51  78 108 135 170 216 260 304
#     4   9  17  32  54  78 103 133 171 209 245 292
#
# _framework density 18.103891999999998
#
# number of rings (size 3 to 8) (size 9 to 14) (size 15 to 20)
#    0.000    2.400    0.000    4.800    0.000    2.400 
#    0.000    4.000    0.000    6.000    0.000    0.000 
#    0.000    0.000    0.000    0.000    0.000    0.000 
#
# Total GULP energy -495903.797544 kJ/mol
# GULP energy per Si atom -12397.594939 kJ/mol
# Density = 1.806269 g / cm^3
# Si number density = 18.103892 Si / 1000 Ang^3
#
#
#
# Elastic Constant Matrix: (Units=GPa)
#
#
# Indices 1 2 3 4 5 6 
#
# 1 86.3072 46.8544 52.0003 0.0000 0.0000 0.0000
# 2 46.8544 163.7203 72.4964 0.0000 0.0000 0.0000
# 3 52.0003 72.4964 123.6104 0.0000 0.0000 0.0000
# 4 0.0000 0.0000 0.0000 -83.2378 0.0000 0.0000
# 5 0.0000 0.0000 0.0000 0.0000 25.4609 0.0000
# 6 0.0000 0.0000 0.0000 0.0000 0.0000 23.0425
#
#
#
# Elastic Compliance Matrix: (Units=1/GPa)
#
#
# Indices 1 2 3 4 5 6 
#
# 1 0.016071 -0.002169 -0.005489 0.000000 0.000000 0.000000
# 2 -0.002169 0.008543 -0.004098 0.000000 0.000000 0.000000
# 3 -0.005489 -0.004098 0.012802 0.000000 0.000000 0.000000
# 4 0.000000 0.000000 0.000000 -0.012014 0.000000 0.000000
# 5 0.000000 0.000000 0.000000 0.000000 0.039276 0.000000
# 6 0.000000 0.000000 0.000000 0.000000 0.000000 0.043398
#
#
# Mechanical properties :
#
#
# Convention : Reuss Voigt Hill
#
# Bulk Modulus (GPa) = 71.91529 79.59336 75.75432
# Shear Modulus (GPa) = 36.70436 6.53890 21.62163
#
# Velocity S-wave (km/s) = 4.50758 1.90256 3.45963
# Velocity P-wave (km/s) = 8.17930 6.99189 7.60879
#
# Compressibility (1/GPa) = 0.01390525
#
# Stress axis : x y z
#
# Youngs Moduli (GPa) = 62.22439 117.04946 78.10980
#
# Poissons Ratio (x) = 0.25386 0.42872
# Poissons Ratio (y) = 0.13495 0.32011
# Poissons Ratio (z) = 0.34153 0.47970
#
# Static dielectric constant tensor:
#      x y z
#    x 3.191320 0.000000 0.000000 
#    y 0.000000 3.731500 0.000000 
#    z 0.000000 0.000000 3.264430 
# 
# 
# High freq. dielectric constant tensor:
#      x y z
#    x 1.684580 0.000000 0.000000 
#    y 0.000000 1.715550 0.000000 
#    z 0.000000 0.000000 1.689160 
# 
# From -- ./inp_files/40602.got.cif
#   From: 2010.03.12/outbox.cif.g09.slc.cpg/sg63_21_cif.got.tgz:40602.got - 2010.04.10 19:34:48.
