data_PCOD8258342
_publ_section_title
;
Structure prediction by ZEFSAII (Michael W. Deem and Ramdas Pophale) SiO2 
 PCOD8258342
Probable space group: C M C M
;
_chemical_formula_sum "Si O2"
_cell_formula_units_Z 96
_cell_length_a 8.990313
_cell_length_b 23.552011
_cell_length_c 25.971559
_cell_angle_alpha 90.000000
_cell_angle_beta 90.000000
_cell_angle_gamma 90.000000
_cell_volume 5499.216621
_symmetry_space_group_name_H-M "C M C M"
_symmetry_group_IT_number 63
_symmetry_cell_setting 'orthorhombic'
loop_
_space_group_symop_operation_xyz
x,y,z
-x,-y,1/2+z
x,-y,-z
-x,y,1/2-z
-x,-y,-z
x,y,1/2-z
-x,y,z
x,-y,1/2+z
1/2+x,1/2+y,z
1/2-x,1/2-y,1/2+z
1/2+x,1/2-y,-z
1/2-x,1/2+y,1/2-z
1/2-x,1/2-y,-z
1/2+x,1/2+y,1/2-z
1/2-x,1/2+y,z
1/2+x,1/2-y,1/2+z
loop_
_atom_site_type_symbol
_atom_site_label
_atom_site_fract_x
_atom_site_fract_y
_atom_site_fract_z
Si Si1 0.323944 0.272191 0.552101
Si Si2 0.833469 0.568626 0.959150
Si Si3 0.331546 0.832537 0.117314
Si Si4 0.324244 0.412544 0.192133
Si Si5 0.328590 0.890248 0.927858
Si Si6 0.674310 0.508803 0.385041
O O1 0.500000 0.274905 0.542577
O O2 0.250000 0.250000 0.500000
O O3 0.284597 0.230439 0.599738
O O4 0.263382 0.332678 0.569516
O O5 0.811134 0.629937 0.933804
O O6 0.713325 0.524736 0.937377
O O7 0.000000 0.545275 0.947475
O O8 0.809255 0.574947 0.019547
O O9 0.500000 0.833925 0.137349
O O10 0.232068 0.855641 0.164011
O O11 0.260417 0.414616 0.250000
O O12 0.500000 0.409510 0.192062
O O13 0.271128 0.469643 0.162706
O O14 0.500000 0.876205 0.915917
O O15 0.260378 0.930930 0.883411
O O16 0.500000 0.520992 0.382892
#
# Coordination Sequence:
#
# PCOD8258342 Si02
#       6
#    16  16  16  16  16  16
#     4  11  21  34  51  74 106 143 179 213 249 300
#     4   9  17  31  47  67 100 138 169 204 248 297
#     4   9  18  33  51  75 104 134 172 212 253 301
#     4   9  19  36  57  79 102 129 165 214 269 315
#     4  11  21  33  48  70 103 143 176 207 249 299
#     4  10  20  32  48  74 101 130 170 214 257 307
#
# _framework density 17.457032000000002
#
# number of rings (size 3 to 8) (size 9 to 14) (size 15 to 20)
#    0.000    2.167    1.667    2.000    0.000    5.667 
#    0.000    0.000    0.000    1.000    0.000    2.333 
#    0.000    0.000    0.000    0.000    0.000    0.000 
#
# Total GULP energy -595137.731067 kJ/mol
# GULP energy per Si atom -12398.702731 kJ/mol
# Density = 1.741730 g / cm^3
# Si number density = 17.457032 Si / 1000 Ang^3
#
#
#
# Elastic Constant Matrix: (Units=GPa)
#
#
# Indices 1 2 3 4 5 6 
#
# 1 72.3198 50.7014 39.4960 0.0000 0.0000 0.0000
# 2 50.7014 109.1749 51.2210 0.0000 0.0000 0.0000
# 3 39.4960 51.2210 89.9037 0.0000 0.0000 0.0000
# 4 0.0000 0.0000 0.0000 13.8045 0.0000 0.0000
# 5 0.0000 0.0000 0.0000 0.0000 20.9293 0.0000
# 6 0.0000 0.0000 0.0000 0.0000 0.0000 33.0455
#
#
#
# Elastic Compliance Matrix: (Units=1/GPa)
#
#
# Indices 1 2 3 4 5 6 
#
# 1 0.022209 -0.007829 -0.005296 0.000000 0.000000 0.000000
# 2 -0.007829 0.015261 -0.005255 0.000000 0.000000 0.000000
# 3 -0.005296 -0.005255 0.016444 0.000000 0.000000 0.000000
# 4 0.000000 0.000000 0.000000 0.072440 0.000000 0.000000
# 5 0.000000 0.000000 0.000000 0.000000 0.047780 0.000000
# 6 0.000000 0.000000 0.000000 0.000000 0.000000 0.030261
#
#
# Mechanical properties :
#
#
# Convention : Reuss Voigt Hill
#
# Bulk Modulus (GPa) = 58.30041 61.58168 59.94105
# Shear Modulus (GPa) = 20.25330 22.22118 21.23724
#
# Velocity S-wave (km/s) = 3.40984 3.57165 3.49168
# Velocity P-wave (km/s) = 6.99798 7.23614 7.11805
#
# Compressibility (1/GPa) = 0.01715254
#
# Stress axis : x y z
#
# Youngs Moduli (GPa) = 45.02772 65.52625 60.81327
#
# Poissons Ratio (x) = 0.51301 0.32207
# Poissons Ratio (y) = 0.35252 0.31959
# Poissons Ratio (z) = 0.23847 0.34436
#
# Static dielectric constant tensor:
#      x y z
#    x 3.274270 0.000000 0.000000 
#    y 0.000000 3.352470 0.000000 
#    z 0.000000 0.000000 3.145730 
# 
# 
# High freq. dielectric constant tensor:
#      x y z
#    x 1.679300 0.000000 0.000000 
#    y 0.000000 1.679900 0.000000 
#    z 0.000000 0.000000 1.639810 
# 
# From -- ./inp_files/59972.got.cif
#   From: 2010.03.12/outbox.cif.g09.slc.cpg/sg63_30_cif.got.tgz:59972.got - 2010.04.10 19:34:48.
