data_PCOD8258341
_publ_section_title
;
Structure prediction by ZEFSAII (Michael W. Deem and Ramdas Pophale) SiO2 
 PCOD8258341
Probable space group: C M C M
;
_chemical_formula_sum "Si O2"
_cell_formula_units_Z 104
_cell_length_a 28.896491
_cell_length_b 21.408663
_cell_length_c 8.882426
_cell_angle_alpha 90.000000
_cell_angle_beta 90.000000
_cell_angle_gamma 90.000000
_cell_volume 5494.981720
_symmetry_space_group_name_H-M "C M C M"
_symmetry_group_IT_number 63
_symmetry_cell_setting 'orthorhombic'
loop_
_space_group_symop_operation_xyz
x,y,z
-x,-y,1/2+z
x,-y,-z
-x,y,1/2-z
-x,-y,-z
x,y,1/2-z
-x,y,z
x,-y,1/2+z
1/2+x,1/2+y,z
1/2-x,1/2-y,1/2+z
1/2+x,1/2-y,-z
1/2-x,1/2+y,1/2-z
1/2-x,1/2-y,-z
1/2+x,1/2+y,1/2-z
1/2-x,1/2+y,z
1/2+x,1/2-y,1/2+z
loop_
_atom_site_type_symbol
_atom_site_label
_atom_site_fract_x
_atom_site_fract_y
_atom_site_fract_z
Si Si1 0.123004 0.732608 0.413383
Si Si2 0.445630 0.315984 0.578296
Si Si3 0.500000 0.067442 0.570350
Si Si4 0.186277 0.563387 0.570713
Si Si5 0.593668 0.094367 0.415944
Si Si6 0.555105 0.560475 0.581743
Si Si7 0.287354 0.795990 0.073465
O O1 0.135677 0.762962 0.250000
O O2 0.077442 0.762645 0.481747
O O3 0.111103 0.662316 0.382303
O O4 0.164835 0.737662 0.530405
O O5 0.430332 0.310345 0.750000
O O6 0.500000 0.308764 0.557634
O O7 0.427548 0.381711 0.515961
O O8 0.500000 0.068087 0.750000
O O9 0.546401 0.099957 0.510283
O O10 0.500000 0.000000 0.500000
O O11 0.210307 0.500000 0.500000
O O12 0.186799 0.557967 0.750000
O O13 0.133269 0.560368 0.512976
O O14 0.211751 0.629640 0.522450
O O15 0.586424 0.061817 0.250000
O O16 0.575783 0.500000 0.500000
O O17 0.575389 0.565005 0.750000
O O18 0.500000 0.557267 0.587141
O O19 0.279925 0.793359 0.250000
O O20 0.250000 0.750000 0.000000
#
# Coordination Sequence:
#
# PCOD8258341 Si02
#       7
#    16  16   8  16  16  16  16
#     4  10  21  36  55  78 106 140 179 222 270 323
#     4  10  20  32  48  73 105 141 179 220 267 320
#     4  12  24  36  50  68  98 140 185 228 271 316
#     4  10  20  35  57  85 114 145 182 227 274 328
#     4  10  21  36  52  73 103 141 184 229 274 322
#     4   9  16  27  44  66  93 127 169 216 262 311
#     4  10  21  38  61  87 114 144 181 224 277 335
#
# _framework density 18.926361
#
# number of rings (size 3 to 8) (size 9 to 14) (size 15 to 20)
#    0.000    2.000    0.000    3.923    1.077    6.462 
#    0.000    0.000    0.000    0.923    0.000    4.308 
#    0.000    0.000    0.000    0.000    0.000    0.000 
#
# Total GULP energy -644290.303201 kJ/mol
# GULP energy per Si atom -12390.198138 kJ/mol
# Density = 1.888328 g / cm^3
# Si number density = 18.926361 Si / 1000 Ang^3
#
#
#
# Elastic Constant Matrix: (Units=GPa)
#
#
# Indices 1 2 3 4 5 6 
#
# 1 59.9373 32.9854 36.1738 0.0000 0.0000 0.0000
# 2 32.9854 88.2318 52.0675 0.0000 0.0000 0.0000
# 3 36.1738 52.0675 124.1920 0.0000 0.0000 0.0000
# 4 0.0000 0.0000 0.0000 32.5233 0.0000 0.0000
# 5 0.0000 0.0000 0.0000 0.0000 15.4339 0.0000
# 6 0.0000 0.0000 0.0000 0.0000 0.0000 -8.6499
#
#
#
# Elastic Compliance Matrix: (Units=1/GPa)
#
#
# Indices 1 2 3 4 5 6 
#
# 1 0.022412 -0.006014 -0.004006 0.000000 0.000000 0.000000
# 2 -0.006014 0.016674 -0.005239 0.000000 0.000000 0.000000
# 3 -0.004006 -0.005239 0.011415 0.000000 0.000000 0.000000
# 4 0.000000 0.000000 0.000000 0.030747 0.000000 0.000000
# 5 0.000000 0.000000 0.000000 0.000000 0.064792 0.000000
# 6 0.000000 0.000000 0.000000 0.000000 0.000000 -0.115608
#
#
# Mechanical properties :
#
#
# Convention : Reuss Voigt Hill
#
# Bulk Modulus (GPa) = 50.04495 57.20160 53.62327
# Shear Modulus (GPa) = 73.95146 17.93710 45.94428
#
# Velocity S-wave (km/s) = 6.25764 3.08186 4.93234
# Velocity P-wave (km/s) = 8.87187 6.55383 7.79945
#
# Compressibility (1/GPa) = 0.01998204
#
# Stress axis : x y z
#
# Youngs Moduli (GPa) = 44.61889 59.97482 87.60158
#
# Poissons Ratio (x) = 0.36071 0.35097
# Poissons Ratio (y) = 0.26836 0.45891
# Poissons Ratio (z) = 0.17877 0.31418
#
# Static dielectric constant tensor:
#      x y z
#    x 3.009860 0.000000 0.000000 
#    y 0.000000 4.082780 0.000000 
#    z 0.000000 0.000000 3.812060 
# 
# 
# High freq. dielectric constant tensor:
#      x y z
#    x 1.689510 0.000000 0.000000 
#    y 0.000000 1.741970 0.000000 
#    z 0.000000 0.000000 1.758510 
# 
# From -- ./inp_files/12495.got.cif
#   From: 2010.03.12/outbox.cif.g09.slc.cpg/sg63_7_cif.got.tgz:12495.got - 2010.04.10 19:34:48.
