data_PCOD8258670
_publ_section_title
;
Structure prediction by ZEFSAII (Michael W. Deem and Ramdas Pophale) SiO2 
 PCOD8258670
Probable space group: C M C M
;
_chemical_formula_sum "Si O2"
_cell_formula_units_Z 88
_cell_length_a 13.920649
_cell_length_b 24.553086
_cell_length_c 14.302861
_cell_angle_alpha 90.000000
_cell_angle_beta 90.000000
_cell_angle_gamma 90.000000
_cell_volume 4888.644832
_symmetry_space_group_name_H-M "C M C M"
_symmetry_group_IT_number 63
_symmetry_cell_setting 'orthorhombic'
loop_
_space_group_symop_operation_xyz
x,y,z
-x,-y,1/2+z
x,-y,-z
-x,y,1/2-z
-x,-y,-z
x,y,1/2-z
-x,y,z
x,-y,1/2+z
1/2+x,1/2+y,z
1/2-x,1/2-y,1/2+z
1/2+x,1/2-y,-z
1/2-x,1/2+y,1/2-z
1/2-x,1/2-y,-z
1/2+x,1/2+y,1/2-z
1/2-x,1/2+y,z
1/2+x,1/2-y,1/2+z
loop_
_atom_site_type_symbol
_atom_site_label
_atom_site_fract_x
_atom_site_fract_y
_atom_site_fract_z
Si Si1 0.294604 0.618054 0.017201
Si Si2 0.500000 0.243362 0.055550
Si Si3 0.306626 0.202588 0.140575
Si Si4 0.000000 0.137271 0.544429
Si Si5 0.708986 0.814953 0.146196
Si Si6 0.000000 0.284117 0.352386
Si Si7 0.000000 0.970947 0.358562
Si Si8 0.340432 0.500000 0.000000
O O1 0.242547 0.647333 0.103790
O O2 0.273785 0.553208 0.016361
O O3 0.408576 0.628659 0.023035
O O4 0.257456 0.641458 0.919591
O O5 0.407204 0.209933 0.087433
O O6 0.500000 0.304257 0.097040
O O7 0.500000 0.254472 0.943211
O O8 0.326063 0.196170 0.250000
O O9 0.237121 0.253257 0.116775
O O10 0.000000 0.094247 0.628895
O O11 0.748075 0.826721 0.250000
O O12 0.594091 0.821954 0.141772
O O13 0.000000 0.253134 0.250000
O O14 0.000000 0.986874 0.250000
O O15 0.094602 0.995156 0.407321
#
# Coordination Sequence:
#
# PCOD8258670 Si02
#       8
#    16   8  16   8  16   8   8   8
#     4  11  20  39  54  81 116 150 186 239 277 335
#     4  12  19  36  57  83 123 151 179 238 281 343
#     4  11  23  35  54  84 116 153 190 226 286 347
#     4  10  21  31  60  84 111 146 188 224 286 338
#     4  10  20  35  57  83 110 143 187 236 290 346
#     4  10  20  33  55  84 111 148 186 226 287 342
#     4   9  19  38  57  81 113 147 188 241 285 333
#     4   9  22  36  56  83 108 150 202 231 284 341
#
# _framework density 18.000897999999999
#
# number of rings (size 3 to 8) (size 9 to 14) (size 15 to 20)
#    0.000    1.636    3.636    2.455    0.000    4.364 
#    0.000    0.455    0.000    4.364    0.000    2.545 
#    0.000    0.000    0.000    0.000    0.000    0.000 
#
# Total GULP energy -545522.205753 kJ/mol
# GULP energy per Si atom -12398.231949 kJ/mol
# Density = 1.795993 g / cm^3
# Si number density = 18.000898 Si / 1000 Ang^3
#
#
#
# Elastic Constant Matrix: (Units=GPa)
#
#
# Indices 1 2 3 4 5 6 
#
# 1 101.8355 40.1860 35.0108 0.0000 0.0000 0.0000
# 2 40.1860 135.7283 49.1937 0.0000 0.0000 0.0000
# 3 35.0108 49.1937 132.9810 0.0000 0.0000 0.0000
# 4 0.0000 0.0000 0.0000 21.7558 0.0000 0.0000
# 5 0.0000 0.0000 0.0000 0.0000 16.7979 0.0000
# 6 0.0000 0.0000 0.0000 0.0000 0.0000 21.6702
#
#
#
# Elastic Compliance Matrix: (Units=1/GPa)
#
#
# Indices 1 2 3 4 5 6 
#
# 1 0.011587 -0.002685 -0.002057 0.000000 0.000000 0.000000
# 2 -0.002685 0.009131 -0.002671 0.000000 0.000000 0.000000
# 3 -0.002057 -0.002671 0.009050 0.000000 0.000000 0.000000
# 4 0.000000 0.000000 0.000000 0.045965 0.000000 0.000000
# 5 0.000000 0.000000 0.000000 0.000000 0.059531 0.000000
# 6 0.000000 0.000000 0.000000 0.000000 0.000000 0.046146
#
#
# Mechanical properties :
#
#
# Convention : Reuss Voigt Hill
#
# Bulk Modulus (GPa) = 66.93097 68.81399 67.87248
# Shear Modulus (GPa) = 24.84906 28.45509 26.65207
#
# Velocity S-wave (km/s) = 3.71945 3.98019 3.85203
# Velocity P-wave (km/s) = 7.46381 7.70932 7.58756
#
# Compressibility (1/GPa) = 0.01494077
#
# Stress axis : x y z
#
# Youngs Moduli (GPa) = 86.30715 109.52172 110.50321
#
# Poissons Ratio (x) = 0.29405 0.22733
# Poissons Ratio (y) = 0.23172 0.29513
# Poissons Ratio (z) = 0.17756 0.29251
#
# Static dielectric constant tensor:
#      x y z
#    x 3.395620 0.000000 0.000000 
#    y 0.000000 3.241810 0.000000 
#    z 0.000000 0.000000 3.364200 
# 
# 
# High freq. dielectric constant tensor:
#      x y z
#    x 1.697210 0.000000 0.000000 
#    y 0.000000 1.670200 0.000000 
#    z 0.000000 0.000000 1.701460 
# 
# From -- ./inp_files/31835.got.cif
#   From: 2010.03.12/outbox.cif.g09.slc.cpg/sg63_16_cif.got.tgz:31835.got - 2010.04.10 19:34:48.
