data_PCOD8258590
_publ_section_title
;
Structure prediction by ZEFSAII (Michael W. Deem and Ramdas Pophale) SiO2 
 PCOD8258590
Probable space group: C M C M
;
_chemical_formula_sum "Si O2"
_cell_formula_units_Z 96
_cell_length_a 19.496790
_cell_length_b 30.748429
_cell_length_c 8.918456
_cell_angle_alpha 90.000000
_cell_angle_beta 90.000000
_cell_angle_gamma 90.000000
_cell_volume 5346.575693
_symmetry_space_group_name_H-M "C M C M"
_symmetry_group_IT_number 63
_symmetry_cell_setting 'orthorhombic'
loop_
_space_group_symop_operation_xyz
x,y,z
-x,-y,1/2+z
x,-y,-z
-x,y,1/2-z
-x,-y,-z
x,y,1/2-z
-x,y,z
x,-y,1/2+z
1/2+x,1/2+y,z
1/2-x,1/2-y,1/2+z
1/2+x,1/2-y,-z
1/2-x,1/2+y,1/2-z
1/2-x,1/2-y,-z
1/2+x,1/2+y,1/2-z
1/2-x,1/2+y,z
1/2+x,1/2-y,1/2+z
loop_
_atom_site_type_symbol
_atom_site_label
_atom_site_fract_x
_atom_site_fract_y
_atom_site_fract_z
Si Si1 0.422305 0.326719 0.421914
Si Si2 0.789583 0.290008 0.925988
Si Si3 0.695839 0.628470 0.074383
Si Si4 0.422360 0.764486 0.073461
Si Si5 0.428089 0.953737 0.574402
Si Si6 0.779650 0.453460 0.926747
O O1 0.405463 0.314930 0.250000
O O2 0.500000 0.343313 0.439166
O O3 0.373560 0.364892 0.480964
O O4 0.408558 0.284731 0.523172
O O5 0.793852 0.281608 0.750000
O O6 0.750808 0.334377 0.965124
O O7 0.750000 0.250000 0.000000
O O8 0.866867 0.294861 0.991004
O O9 0.678856 0.628622 0.250000
O O10 0.724653 0.582008 0.020060
O O11 0.410645 0.767219 0.250000
O O12 0.500000 0.778863 0.029475
O O13 0.426847 0.961169 0.750000
O O14 0.500000 0.928139 0.530712
O O15 0.354858 0.933231 0.526403
O O16 0.431683 0.000000 0.500000
O O17 0.775544 0.460183 0.750000
O O18 0.764013 0.500000 0.000000
#
# Coordination Sequence:
#
# PCOD8258590 Si02
#       6
#    16  16  16  16  16  16
#     4  10  20  33  52  78 103 130 170 216 258 309
#     4  11  21  33  51  76 106 140 176 216 258 307
#     4  10  21  35  52  76 106 138 172 211 261 315
#     4  10  20  34  52  74 104 142 178 215 262 311
#     4   8  13  23  42  66  91 120 156 198 241 285
#     4   9  18  33  51  74 102 133 171 214 259 309
#
# _framework density 17.955417000000001
#
# number of rings (size 3 to 8) (size 9 to 14) (size 15 to 20)
#    0.000    2.333    1.667    1.500    0.000    3.333 
#    0.000    0.833    0.000    3.500    0.000    9.333 
#    0.000    0.000    0.000    0.000    0.000    0.000 
#
# Total GULP energy -594769.431652 kJ/mol
# GULP energy per Si atom -12391.029826 kJ/mol
# Density = 1.791455 g / cm^3
# Si number density = 17.955417 Si / 1000 Ang^3
#
#
#
# Elastic Constant Matrix: (Units=GPa)
#
#
# Indices 1 2 3 4 5 6 
#
# 1 129.1034 48.4171 45.9449 0.0000 0.0000 0.0000
# 2 48.4171 76.7081 29.6514 0.0000 0.0000 0.0000
# 3 45.9449 29.6514 57.3520 0.0000 0.0000 0.0000
# 4 0.0000 0.0000 0.0000 20.5938 0.0000 0.0000
# 5 0.0000 0.0000 0.0000 0.0000 31.3081 0.0000
# 6 0.0000 0.0000 0.0000 0.0000 0.0000 25.4688
#
#
#
# Elastic Compliance Matrix: (Units=1/GPa)
#
#
# Indices 1 2 3 4 5 6 
#
# 1 0.012138 -0.004877 -0.007202 0.000000 0.000000 0.000000
# 2 -0.004877 0.018252 -0.005529 0.000000 0.000000 0.000000
# 3 -0.007202 -0.005529 0.026065 0.000000 0.000000 0.000000
# 4 0.000000 0.000000 0.000000 0.048558 0.000000 0.000000
# 5 0.000000 0.000000 0.000000 0.000000 0.031941 0.000000
# 6 0.000000 0.000000 0.000000 0.000000 0.000000 0.039264
#
#
# Mechanical properties :
#
#
# Convention : Reuss Voigt Hill
#
# Bulk Modulus (GPa) = 47.08720 56.79894 51.94307
# Shear Modulus (GPa) = 22.88184 24.75082 23.81633
#
# Velocity S-wave (km/s) = 3.57370 3.71679 3.64595
# Velocity P-wave (km/s) = 6.58103 7.07964 6.83488
#
# Compressibility (1/GPa) = 0.02123719
#
# Stress axis : x y z
#
# Youngs Moduli (GPa) = 82.38641 54.78768 38.36633
#
# Poissons Ratio (x) = 0.26722 0.27632
# Poissons Ratio (y) = 0.40183 0.21214
# Poissons Ratio (z) = 0.59336 0.30294
#
# Static dielectric constant tensor:
#      x y z
#    x 3.934940 0.000000 0.000000 
#    y 0.000000 2.991050 0.000000 
#    z 0.000000 0.000000 3.313800 
# 
# 
# High freq. dielectric constant tensor:
#      x y z
#    x 1.714190 0.000000 0.000000 
#    y 0.000000 1.648860 0.000000 
#    z 0.000000 0.000000 1.699390 
# 
# From -- ./inp_files/8655.got.cif
#   From: 2010.03.12/outbox.cif.g09.slc.cpg/sg63_5_cif.got.tgz:8655.got - 2010.04.10 19:34:48.
