data_PCOD8258077
_publ_section_title
;
Structure prediction by ZEFSAII (Michael W. Deem and Ramdas Pophale) SiO2 
 PCOD8258077
Probable space group: C M C M
;
_chemical_formula_sum "Si O2"
_cell_formula_units_Z 80
_cell_length_a 16.362853
_cell_length_b 27.957842
_cell_length_c 9.346088
_cell_angle_alpha 90.000000
_cell_angle_beta 90.000000
_cell_angle_gamma 90.000000
_cell_volume 4275.555427
_symmetry_space_group_name_H-M "C M C M"
_symmetry_group_IT_number 63
_symmetry_cell_setting 'orthorhombic'
loop_
_space_group_symop_operation_xyz
x,y,z
-x,-y,1/2+z
x,-y,-z
-x,y,1/2-z
-x,-y,-z
x,y,1/2-z
-x,y,z
x,-y,1/2+z
1/2+x,1/2+y,z
1/2-x,1/2-y,1/2+z
1/2+x,1/2-y,-z
1/2-x,1/2+y,1/2-z
1/2-x,1/2-y,-z
1/2+x,1/2+y,1/2-z
1/2-x,1/2+y,z
1/2+x,1/2-y,1/2+z
loop_
_atom_site_type_symbol
_atom_site_label
_atom_site_fract_x
_atom_site_fract_y
_atom_site_fract_z
Si Si1 0.273535 0.636913 0.912429
Si Si2 0.500000 0.172291 0.404797
Si Si3 0.093529 0.181417 0.084550
Si Si4 0.000000 0.438763 0.588579
Si Si5 0.666644 0.045386 0.577869
Si Si6 0.640370 0.212887 0.589275
O O1 0.299850 0.628151 0.750000
O O2 0.216961 0.593030 0.963978
O O3 0.227959 0.687955 0.930006
O O4 0.357048 0.639681 0.003376
O O5 0.500000 0.197607 0.250000
O O6 0.500000 0.116648 0.385491
O O7 0.580835 0.186433 0.484532
O O8 0.094057 0.167933 0.250000
O O9 0.141329 0.230934 0.054722
O O10 0.000000 0.185001 0.028364
O O11 0.077521 0.453140 0.493630
O O12 0.000000 0.462482 0.750000
O O13 0.660609 0.039377 0.750000
O O14 0.710857 0.000000 0.500000
O O15 0.607466 0.204959 0.750000
#
# Coordination Sequence:
#
# PCOD8258077 Si02
#       6
#    16   8  16   8  16  16
#     4  10  22  37  57  82 109 146 184 226 276 325
#     4  11  21  30  50  83 115 150 189 229 266 307
#     4  10  21  36  57  82 111 147 182 224 276 326
#     4  11  22  36  55  83 116 150 190 229 269 319
#     4  11  23  39  59  82 111 147 185 228 279 329
#     4  10  19  36  56  77 113 153 187 221 268 326
#
# _framework density 18.711019
#
# number of rings (size 3 to 8) (size 9 to 14) (size 15 to 20)
#    0.000    1.600    3.000    2.100    0.000    4.400 
#    0.000    0.000    0.000    0.600    0.000    0.000 
#    0.000    0.000    0.000    0.000    0.000    0.000 
#
# Total GULP energy -495796.011693 kJ/mol
# GULP energy per Si atom -12394.900292 kJ/mol
# Density = 1.866843 g / cm^3
# Si number density = 18.711019 Si / 1000 Ang^3
#
#
#
# Elastic Constant Matrix: (Units=GPa)
#
#
# Indices 1 2 3 4 5 6 
#
# 1 86.6559 54.8796 55.3302 0.0000 0.0000 0.0000
# 2 54.8796 88.4814 49.7163 0.0000 0.0000 0.0000
# 3 55.3302 49.7163 94.9902 0.0000 0.0000 0.0000
# 4 0.0000 0.0000 0.0000 30.7060 0.0000 0.0000
# 5 0.0000 0.0000 0.0000 0.0000 34.9142 0.0000
# 6 0.0000 0.0000 0.0000 0.0000 0.0000 17.6115
#
#
#
# Elastic Compliance Matrix: (Units=1/GPa)
#
#
# Indices 1 2 3 4 5 6 
#
# 1 0.022899 -0.009503 -0.008365 0.000000 0.000000 0.000000
# 2 -0.009503 0.019954 -0.004908 0.000000 0.000000 0.000000
# 3 -0.008365 -0.004908 0.017968 0.000000 0.000000 0.000000
# 4 0.000000 0.000000 0.000000 0.032567 0.000000 0.000000
# 5 0.000000 0.000000 0.000000 0.000000 0.028642 0.000000
# 6 0.000000 0.000000 0.000000 0.000000 0.000000 0.056781
#
#
# Mechanical properties :
#
#
# Convention : Reuss Voigt Hill
#
# Bulk Modulus (GPa) = 65.48857 65.55330 65.52093
# Shear Modulus (GPa) = 21.79103 23.99310 22.89207
#
# Velocity S-wave (km/s) = 3.41634 3.58480 3.50158
# Velocity P-wave (km/s) = 7.11603 7.22808 7.17227
#
# Compressibility (1/GPa) = 0.01526984
#
# Stress axis : x y z
#
# Youngs Moduli (GPa) = 43.67010 50.11602 55.65296
#
# Poissons Ratio (x) = 0.47625 0.46551
# Poissons Ratio (y) = 0.41499 0.27315
# Poissons Ratio (z) = 0.36528 0.24598
#
# Static dielectric constant tensor:
#      x y z
#    x 3.223570 0.000000 0.000000 
#    y 0.000000 3.552090 0.000000 
#    z 0.000000 0.000000 3.571610 
# 
# 
# High freq. dielectric constant tensor:
#      x y z
#    x 1.707090 0.000000 0.000000 
#    y 0.000000 1.719240 0.000000 
#    z 0.000000 0.000000 1.736350 
# 
# From -- ./inp_files/6538.got.cif
#   From: 2010.03.12/outbox.cif.g09.slc.cpg/sg63_4_cif.got.tgz:6538.got - 2010.04.10 19:34:48.
