data_PCOD8258751
_publ_section_title
;
Structure prediction by ZEFSAII (Michael W. Deem and Ramdas Pophale) SiO2 
 PCOD8258751
Probable space group: C M C M
;
_chemical_formula_sum "Si O2"
_cell_formula_units_Z 96
_cell_length_a 9.113236
_cell_length_b 20.345196
_cell_length_c 28.717017
_cell_angle_alpha 90.000000
_cell_angle_beta 90.000000
_cell_angle_gamma 90.000000
_cell_volume 5324.438566
_symmetry_space_group_name_H-M "C M C M"
_symmetry_group_IT_number 63
_symmetry_cell_setting 'orthorhombic'
loop_
_space_group_symop_operation_xyz
x,y,z
-x,-y,1/2+z
x,-y,-z
-x,y,1/2-z
-x,-y,-z
x,y,1/2-z
-x,y,z
x,-y,1/2+z
1/2+x,1/2+y,z
1/2-x,1/2-y,1/2+z
1/2+x,1/2-y,-z
1/2-x,1/2+y,1/2-z
1/2-x,1/2-y,-z
1/2+x,1/2+y,1/2-z
1/2-x,1/2+y,z
1/2+x,1/2-y,1/2+z
loop_
_atom_site_type_symbol
_atom_site_label
_atom_site_fract_x
_atom_site_fract_y
_atom_site_fract_z
Si Si1 0.829873 0.193925 0.528339
Si Si2 0.670648 0.447242 0.695722
Si Si3 0.169678 0.191312 0.863658
Si Si4 0.829338 0.441003 0.361697
Si Si5 0.669724 0.184781 0.196249
Si Si6 0.330056 0.061654 0.969486
O O1 0.750000 0.250000 0.500000
O O2 0.802755 0.208010 0.582577
O O3 0.764064 0.123699 0.513921
O O4 0.000000 0.194158 0.515275
O O5 0.700756 0.459433 0.750000
O O6 0.500000 0.447557 0.683611
O O7 0.748880 0.504080 0.667631
O O8 0.736333 0.377535 0.679988
O O9 0.265468 0.129612 0.847380
O O10 0.222710 0.253393 0.833829
O O11 0.000000 0.174539 0.853980
O O12 0.799598 0.455454 0.415845
O O13 0.000000 0.442090 0.349381
O O14 0.698181 0.201978 0.250000
O O15 0.500000 0.168415 0.186693
O O16 0.500000 0.078544 0.978084
O O17 0.278644 0.000000 0.000000
#
# Coordination Sequence:
#
# PCOD8258751 Si02
#       6
#    16  16  16  16  16  16
#     4  10  20  34  52  74 103 136 171 211 252 300
#     4  10  21  36  53  74 103 137 170 207 252 301
#     4   9  19  35  53  75 104 136 168 206 255 307
#     4  10  20  34  54  78 103 133 170 212 254 299
#     4   9  18  34  55  76  99 129 166 206 248 298
#     4   9  19  36  55  75 102 135 170 209 255 306
#
# _framework density 18.030069999999998
#
# number of rings (size 3 to 8) (size 9 to 14) (size 15 to 20)
#    0.000    2.500    0.000    1.500    0.000    5.333 
#    0.000    8.333    0.000    0.000    0.000    0.000 
#    0.000    0.000    0.000    0.000    0.000    0.000 
#
# Total GULP energy -595401.961578 kJ/mol
# GULP energy per Si atom -12404.207533 kJ/mol
# Density = 1.798903 g / cm^3
# Si number density = 18.030070 Si / 1000 Ang^3
#
#
#
# Elastic Constant Matrix: (Units=GPa)
#
#
# Indices 1 2 3 4 5 6 
#
# 1 113.8575 104.6879 58.8710 0.0000 0.0000 0.0000
# 2 104.6879 192.2130 91.8220 0.0000 0.0000 0.0000
# 3 58.8710 91.8220 70.5028 0.0000 0.0000 0.0000
# 4 0.0000 0.0000 0.0000 41.7160 0.0000 0.0000
# 5 0.0000 0.0000 0.0000 0.0000 27.7995 0.0000
# 6 0.0000 0.0000 0.0000 0.0000 0.0000 41.1152
#
#
#
# Elastic Compliance Matrix: (Units=1/GPa)
#
#
# Indices 1 2 3 4 5 6 
#
# 1 0.018555 -0.007158 -0.006172 0.000000 0.000000 0.000000
# 2 -0.007158 0.016530 -0.015552 0.000000 0.000000 0.000000
# 3 -0.006172 -0.015552 0.039592 0.000000 0.000000 0.000000
# 4 0.000000 0.000000 0.000000 0.023972 0.000000 0.000000
# 5 0.000000 0.000000 0.000000 0.000000 0.035972 0.000000
# 6 0.000000 0.000000 0.000000 0.000000 0.000000 0.024322
#
#
# Mechanical properties :
#
#
# Convention : Reuss Voigt Hill
#
# Bulk Modulus (GPa) = 59.12060 98.59280 78.85670
# Shear Modulus (GPa) = 22.48752 30.20564 26.34658
#
# Velocity S-wave (km/s) = 3.53544 4.09747 3.82679
# Velocity P-wave (km/s) = 7.03754 8.78561 7.95970
#
# Compressibility (1/GPa) = 0.01691458
#
# Stress axis : x y z
#
# Youngs Moduli (GPa) = 53.89244 60.49462 25.25736
#
# Poissons Ratio (x) = 0.43300 0.15589
# Poissons Ratio (y) = 0.38575 0.39281
# Poissons Ratio (z) = 0.33262 0.94082
#
# Static dielectric constant tensor:
#      x y z
#    x 3.421420 0.000000 0.000000 
#    y 0.000000 3.422710 0.000000 
#    z 0.000000 0.000000 3.316950 
# 
# 
# High freq. dielectric constant tensor:
#      x y z
#    x 1.704940 0.000000 0.000000 
#    y 0.000000 1.706620 0.000000 
#    z 0.000000 0.000000 1.693350 
# 
# From -- ./inp_files/66998.got.cif
#   From: 2010.03.12/outbox.cif.g09.slc.cpg/sg63_34_cif.got.tgz:66998.got - 2010.04.10 19:34:48.
