data_PCOD8258735
_publ_section_title
;
Structure prediction by ZEFSAII (Michael W. Deem and Ramdas Pophale) SiO2 
 PCOD8258735
Probable space group: C M C M
;
_chemical_formula_sum "Si O2"
_cell_formula_units_Z 72
_cell_length_a 24.685399
_cell_length_b 10.951828
_cell_length_c 14.038338
_cell_angle_alpha 90.000000
_cell_angle_beta 90.000000
_cell_angle_gamma 90.000000
_cell_volume 3795.268103
_symmetry_space_group_name_H-M "C M C M"
_symmetry_group_IT_number 63
_symmetry_cell_setting 'orthorhombic'
loop_
_space_group_symop_operation_xyz
x,y,z
-x,-y,1/2+z
x,-y,-z
-x,y,1/2-z
-x,-y,-z
x,y,1/2-z
-x,y,z
x,-y,1/2+z
1/2+x,1/2+y,z
1/2-x,1/2-y,1/2+z
1/2+x,1/2-y,-z
1/2-x,1/2+y,1/2-z
1/2-x,1/2-y,-z
1/2+x,1/2+y,1/2-z
1/2-x,1/2+y,z
1/2+x,1/2-y,1/2+z
loop_
_atom_site_type_symbol
_atom_site_label
_atom_site_fract_x
_atom_site_fract_y
_atom_site_fract_z
Si Si1 0.319923 0.500000 0.000000
Si Si2 0.853613 0.380585 0.352365
Si Si3 0.856841 0.249232 0.954271
Si Si4 0.230454 0.412790 0.638155
Si Si5 0.560067 0.937592 0.898298
O O1 0.357182 0.602008 0.947797
O O2 0.285742 0.427222 0.920326
O O3 0.843444 0.315406 0.250000
O O4 0.860444 0.281697 0.433866
O O5 0.802871 0.464131 0.381182
O O6 0.905403 0.468619 0.335581
O O7 0.802278 0.297530 0.903790
O O8 0.909518 0.306381 0.902437
O O9 0.242048 0.391230 0.750000
O O10 0.500000 0.917269 0.855178
O O11 0.556481 0.000000 0.000000
#
# Coordination Sequence:
#
# PCOD8258735 Si02
#       5
#     8  16  16  16  16
#     4  12  22  34  49  74 105 150 178 212 260 316
#     4   9  17  31  52  77 102 130 170 221 268 308
#     4  10  20  35  50  74 109 137 176 219 259 318
#     4  10  20  34  52  72  99 137 180 223 265 308
#     4   8  15  31  54  76 100 130 165 215 268 310
#
# _framework density 18.970991999999999
#
# number of rings (size 3 to 8) (size 9 to 14) (size 15 to 20)
#    0.000    2.444    2.222    2.000    0.000    2.222 
#    0.000    0.556    0.000    0.000    0.000    0.000 
#    0.000    8.889    0.000    0.000    0.000    0.000 
#
# Total GULP energy -446166.235674 kJ/mol
# GULP energy per Si atom -12393.506547 kJ/mol
# Density = 1.892781 g / cm^3
# Si number density = 18.970992 Si / 1000 Ang^3
#
#
#
# Elastic Constant Matrix: (Units=GPa)
#
#
# Indices 1 2 3 4 5 6 
#
# 1 80.8159 35.6817 -0.7461 0.0000 0.0000 0.0000
# 2 35.6817 92.3888 10.4576 0.0000 0.0000 0.0000
# 3 -0.7461 10.4576 73.0615 0.0000 0.0000 0.0000
# 4 0.0000 0.0000 0.0000 12.1273 0.0000 0.0000
# 5 0.0000 0.0000 0.0000 0.0000 -2.1975 0.0000
# 6 0.0000 0.0000 0.0000 0.0000 0.0000 11.1467
#
#
#
# Elastic Compliance Matrix: (Units=1/GPa)
#
#
# Indices 1 2 3 4 5 6 
#
# 1 0.014989 -0.005902 0.000998 0.000000 0.000000 0.000000
# 2 -0.005902 0.013326 -0.001968 0.000000 0.000000 0.000000
# 3 0.000998 -0.001968 0.013979 0.000000 0.000000 0.000000
# 4 0.000000 0.000000 0.000000 0.082458 0.000000 0.000000
# 5 0.000000 0.000000 0.000000 0.000000 -0.455068 0.000000
# 6 0.000000 0.000000 0.000000 0.000000 0.000000 0.089713
#
#
# Mechanical properties :
#
#
# Convention : Reuss Voigt Hill
#
# Bulk Modulus (GPa) = 35.02588 37.45028 36.23808
# Shear Modulus (GPa) = -23.00506 17.60685 -2.69911
#
# Velocity S-wave (km/s) = -3.48608 3.04977 -1.19409
# Velocity P-wave (km/s) = 1.51633 5.67319 4.15237
#
# Compressibility (1/GPa) = 0.02855032
#
# Stress axis : x y z
#
# Youngs Moduli (GPa) = 66.71672 75.04192 71.53622
#
# Poissons Ratio (x) = 0.44288 -0.07138
# Poissons Ratio (y) = 0.39375 0.14076
# Poissons Ratio (z) = -0.06657 0.14766
#
# Static dielectric constant tensor:
#      x y z
#    x 3.640960 0.000000 0.000000 
#    y 0.000000 3.172400 0.000000 
#    z 0.000000 0.000000 3.212710 
# 
# 
# High freq. dielectric constant tensor:
#      x y z
#    x 1.713010 0.000000 0.000000 
#    y 0.000000 1.706760 0.000000 
#    z 0.000000 0.000000 1.746170 
# 
# From -- ./inp_files/38340.got.cif
#   From: 2010.03.12/outbox.cif.g09.slc.cpg/sg63_20_cif.got.tgz:38340.got - 2010.04.10 19:34:48.
