data_PCOD8258340
_publ_section_title
;
Structure prediction by ZEFSAII (Michael W. Deem and Ramdas Pophale) SiO2 
 PCOD8258340
Probable space group: C M C M
;
_chemical_formula_sum "Si O2"
_cell_formula_units_Z 96
_cell_length_a 18.141157
_cell_length_b 32.664365
_cell_length_c 8.902468
_cell_angle_alpha 90.000000
_cell_angle_beta 90.000000
_cell_angle_gamma 90.000000
_cell_volume 5275.329888
_symmetry_space_group_name_H-M "C M C M"
_symmetry_group_IT_number 63
_symmetry_cell_setting 'orthorhombic'
loop_
_space_group_symop_operation_xyz
x,y,z
-x,-y,1/2+z
x,-y,-z
-x,y,1/2-z
-x,-y,-z
x,y,1/2-z
-x,y,z
x,-y,1/2+z
1/2+x,1/2+y,z
1/2-x,1/2-y,1/2+z
1/2+x,1/2-y,-z
1/2-x,1/2+y,1/2-z
1/2-x,1/2-y,-z
1/2+x,1/2+y,1/2-z
1/2-x,1/2+y,z
1/2+x,1/2-y,1/2+z
loop_
_atom_site_type_symbol
_atom_site_label
_atom_site_fract_x
_atom_site_fract_y
_atom_site_fract_z
Si Si1 0.275469 0.956914 0.073864
Si Si2 0.149010 0.665785 0.076253
Si Si3 0.914005 0.172373 0.923822
Si Si4 0.082227 0.590961 0.577528
Si Si5 0.415043 0.243007 0.925073
Si Si6 0.703215 0.381458 0.924846
O O1 0.263202 0.960594 0.250000
O O2 0.359442 0.944091 0.032895
O O3 0.218983 0.923728 0.009527
O O4 0.257588 0.000000 0.000000
O O5 0.134453 0.675244 0.250000
O O6 0.231933 0.651080 0.044841
O O7 0.092308 0.630854 0.024505
O O8 0.136601 0.706616 0.981445
O O9 0.892012 0.171236 0.750000
O O10 0.000000 0.164348 0.949520
O O11 0.890678 0.216198 0.989166
O O12 0.872204 0.136632 0.011494
O O13 0.094342 0.604470 0.750000
O O14 0.000000 0.573415 0.551413
O O15 0.401476 0.250355 0.750000
O O16 0.500000 0.231995 0.959552
O O17 0.694783 0.391171 0.750000
#
# Coordination Sequence:
#
# PCOD8258340 Si02
#       6
#    16  16  16  16  16  16
#     4  10  20  35  55  78 105 136 171 212 257 306
#     4  10  20  32  48  73 104 139 179 220 258 296
#     4  10  21  37  57  80 104 131 166 209 257 308
#     4   9  18  32  49  71 102 141 181 218 257 300
#     4  10  20  33  50  73 103 141 181 217 255 300
#     4  10  21  37  56  78 104 135 171 209 254 309
#
# _framework density 18.197914000000001
#
# number of rings (size 3 to 8) (size 9 to 14) (size 15 to 20)
#    0.000    2.167    0.000    3.000    0.000    8.000 
#    0.000    0.000    0.000    0.500    0.000    0.000 
#    0.000    0.000    0.000    0.000    0.000    0.000 
#
# Total GULP energy -595417.536786 kJ/mol
# GULP energy per Si atom -12404.532016 kJ/mol
# Density = 1.815650 g / cm^3
# Si number density = 18.197914 Si / 1000 Ang^3
#
#
#
# Elastic Constant Matrix: (Units=GPa)
#
#
# Indices 1 2 3 4 5 6 
#
# 1 56.2832 53.5697 37.0074 0.0000 0.0000 0.0000
# 2 53.5697 125.9833 56.5252 0.0000 0.0000 0.0000
# 3 37.0074 56.5252 91.7944 0.0000 0.0000 0.0000
# 4 0.0000 0.0000 0.0000 36.5630 0.0000 0.0000
# 5 0.0000 0.0000 0.0000 0.0000 28.5009 0.0000
# 6 0.0000 0.0000 0.0000 0.0000 0.0000 11.1115
#
#
#
# Elastic Compliance Matrix: (Units=1/GPa)
#
#
# Indices 1 2 3 4 5 6 
#
# 1 0.032288 -0.010900 -0.006305 0.000000 0.000000 0.000000
# 2 -0.010900 0.014648 -0.004625 0.000000 0.000000 0.000000
# 3 -0.006305 -0.004625 0.016284 0.000000 0.000000 0.000000
# 4 0.000000 0.000000 0.000000 0.027350 0.000000 0.000000
# 5 0.000000 0.000000 0.000000 0.000000 0.035087 0.000000
# 6 0.000000 0.000000 0.000000 0.000000 0.000000 0.089997
#
#
# Mechanical properties :
#
#
# Convention : Reuss Voigt Hill
#
# Bulk Modulus (GPa) = 51.12853 63.14060 57.13457
# Shear Modulus (GPa) = 18.80882 23.69899 21.25390
#
# Velocity S-wave (km/s) = 3.21841 3.61264 3.42121
# Velocity P-wave (km/s) = 6.47825 7.22312 6.86080
#
# Compressibility (1/GPa) = 0.01955855
#
# Stress axis : x y z
#
# Youngs Moduli (GPa) = 30.97164 68.26985 61.41058
#
# Poissons Ratio (x) = 0.74417 0.38718
# Poissons Ratio (y) = 0.33760 0.28404
# Poissons Ratio (z) = 0.19527 0.31577
#
# Static dielectric constant tensor:
#      x y z
#    x 3.246630 0.000000 0.000000 
#    y 0.000000 3.219650 0.000000 
#    z 0.000000 0.000000 3.490420 
# 
# 
# High freq. dielectric constant tensor:
#      x y z
#    x 1.691730 0.000000 0.000000 
#    y 0.000000 1.695180 0.000000 
#    z 0.000000 0.000000 1.721330 
# 
# From -- ./inp_files/8505.got.cif
#   From: 2010.03.12/outbox.cif.g09.slc.cpg/sg63_5_cif.got.tgz:8505.got - 2010.04.10 19:34:48.
