data_PCOD8258752
_publ_section_title
;
Structure prediction by ZEFSAII (Michael W. Deem and Ramdas Pophale) SiO2 
 PCOD8258752
Probable space group: C M C M
;
_chemical_formula_sum "Si O2"
_cell_formula_units_Z 88
_cell_length_a 18.034654
_cell_length_b 30.053797
_cell_length_c 8.847525
_cell_angle_alpha 90.000000
_cell_angle_beta 90.000000
_cell_angle_gamma 90.000000
_cell_volume 4795.445524
_symmetry_space_group_name_H-M "C M C M"
_symmetry_group_IT_number 63
_symmetry_cell_setting 'orthorhombic'
loop_
_space_group_symop_operation_xyz
x,y,z
-x,-y,1/2+z
x,-y,-z
-x,y,1/2-z
-x,-y,-z
x,y,1/2-z
-x,y,z
x,-y,1/2+z
1/2+x,1/2+y,z
1/2-x,1/2-y,1/2+z
1/2+x,1/2-y,-z
1/2-x,1/2+y,1/2-z
1/2-x,1/2-y,-z
1/2+x,1/2+y,1/2-z
1/2-x,1/2+y,z
1/2+x,1/2-y,1/2+z
loop_
_atom_site_type_symbol
_atom_site_label
_atom_site_fract_x
_atom_site_fract_y
_atom_site_fract_z
Si Si1 0.585198 0.742896 0.919724
Si Si2 0.774612 0.116518 0.571549
Si Si3 0.795224 0.290008 0.072070
Si Si4 0.161314 0.451310 0.571165
Si Si5 0.000000 0.452946 0.575018
Si Si6 0.584440 0.351009 0.928096
O O1 0.616821 0.736171 0.750000
O O2 0.500000 0.755093 0.915332
O O3 0.622705 0.784975 0.002247
O O4 0.601954 0.697950 0.010073
O O5 0.778459 0.110232 0.750000
O O6 0.738225 0.163072 0.522510
O O7 0.725660 0.077786 0.501372
O O8 0.858281 0.114476 0.504780
O O9 0.798179 0.285055 0.250000
O O10 0.750000 0.250000 0.000000
O O11 0.166942 0.500000 0.500000
O O12 0.174292 0.454240 0.750000
O O13 0.079137 0.429486 0.533210
O O14 0.000000 0.500000 0.500000
O O15 0.000000 0.462946 0.750000
O O16 0.596698 0.350801 0.750000
O O17 0.500000 0.365023 0.969821
#
# Coordination Sequence:
#
# PCOD8258752 Si02
#       6
#    16  16  16  16   8  16
#     4  10  20  34  52  74 103 142 185 228 274 325
#     4  11  23  37  55  82 112 146 186 227 277 331
#     4  11  22  35  53  76 108 146 185 229 275 325
#     4  10  20  37  61  86 114 145 182 227 273 326
#     4   8  16  32  56  84 110 142 180 220 268 320
#     4  10  20  34  55  81 107 141 185 230 275 327
#
# _framework density 18.350746000000001
#
# number of rings (size 3 to 8) (size 9 to 14) (size 15 to 20)
#    0.000    1.818    1.818    2.727    0.000    5.091 
#    1.636    0.000    0.000    0.545    0.000    0.000 
#    0.000    0.000    0.000    0.000    0.000    0.000 
#
# Total GULP energy -545369.042628 kJ/mol
# GULP energy per Si atom -12394.750969 kJ/mol
# Density = 1.830898 g / cm^3
# Si number density = 18.350746 Si / 1000 Ang^3
#
#
#
# Elastic Constant Matrix: (Units=GPa)
#
#
# Indices 1 2 3 4 5 6 
#
# 1 148.8147 61.0743 63.3604 0.0000 0.0000 0.0000
# 2 61.0743 75.2568 45.2466 0.0000 0.0000 0.0000
# 3 63.3604 45.2466 90.6742 0.0000 0.0000 0.0000
# 4 0.0000 0.0000 0.0000 27.7202 0.0000 0.0000
# 5 0.0000 0.0000 0.0000 0.0000 32.0577 0.0000
# 6 0.0000 0.0000 0.0000 0.0000 0.0000 40.3428
#
#
#
# Elastic Compliance Matrix: (Units=1/GPa)
#
#
# Indices 1 2 3 4 5 6 
#
# 1 0.011355 -0.006350 -0.004766 0.000000 0.000000 0.000000
# 2 -0.006350 0.022534 -0.006807 0.000000 0.000000 0.000000
# 3 -0.004766 -0.006807 0.017756 0.000000 0.000000 0.000000
# 4 0.000000 0.000000 0.000000 0.036075 0.000000 0.000000
# 5 0.000000 0.000000 0.000000 0.000000 0.031194 0.000000
# 6 0.000000 0.000000 0.000000 0.000000 0.000000 0.024788
#
#
# Mechanical properties :
#
#
# Convention : Reuss Voigt Hill
#
# Bulk Modulus (GPa) = 63.29811 72.67870 67.98841
# Shear Modulus (GPa) = 27.05446 29.69509 28.37477
#
# Velocity S-wave (km/s) = 3.84382 4.02704 3.93650
# Velocity P-wave (km/s) = 7.36670 7.83033 7.60205
#
# Compressibility (1/GPa) = 0.01579826
#
# Stress axis : x y z
#
# Youngs Moduli (GPa) = 88.06812 44.37812 56.31973
#
# Poissons Ratio (x) = 0.28178 0.26842
# Poissons Ratio (y) = 0.55919 0.38340
# Poissons Ratio (z) = 0.41973 0.30210
#
# Static dielectric constant tensor:
#      x y z
#    x 3.985970 0.000000 0.000000 
#    y 0.000000 3.053960 0.000000 
#    z 0.000000 0.000000 3.606580 
# 
# 
# High freq. dielectric constant tensor:
#      x y z
#    x 1.734370 0.000000 0.000000 
#    y 0.000000 1.666050 0.000000 
#    z 0.000000 0.000000 1.730270 
# 
# From -- ./inp_files/6793.got.cif
#   From: 2010.03.12/outbox.cif.g09.slc.cpg/sg63_4_cif.got.tgz:6793.got - 2010.04.10 19:34:48.
