data_PCOD8258478
_publ_section_title
;
Structure prediction by ZEFSAII (Michael W. Deem and Ramdas Pophale) SiO2 
 PCOD8258478
Probable space group: C M C M
;
_chemical_formula_sum "Si O2"
_cell_formula_units_Z 96
_cell_length_a 9.161259
_cell_length_b 20.755917
_cell_length_c 26.890705
_cell_angle_alpha 90.000000
_cell_angle_beta 90.000000
_cell_angle_gamma 90.000000
_cell_volume 5113.276468
_symmetry_space_group_name_H-M "C M C M"
_symmetry_group_IT_number 63
_symmetry_cell_setting 'orthorhombic'
loop_
_space_group_symop_operation_xyz
x,y,z
-x,-y,1/2+z
x,-y,-z
-x,y,1/2-z
-x,-y,-z
x,y,1/2-z
-x,y,z
x,-y,1/2+z
1/2+x,1/2+y,z
1/2-x,1/2-y,1/2+z
1/2+x,1/2-y,-z
1/2-x,1/2+y,1/2-z
1/2-x,1/2-y,-z
1/2+x,1/2+y,1/2-z
1/2-x,1/2+y,z
1/2+x,1/2-y,1/2+z
loop_
_atom_site_type_symbol
_atom_site_label
_atom_site_fract_x
_atom_site_fract_y
_atom_site_fract_z
Si Si1 0.173936 0.069396 0.362319
Si Si2 0.826396 0.935816 0.525691
Si Si3 0.327395 0.313665 0.142736
Si Si4 0.168115 0.196883 0.307988
Si Si5 0.326176 0.556090 0.806172
Si Si6 0.672743 0.307137 0.028699
O O1 0.234969 0.068331 0.418384
O O2 0.230427 0.134388 0.336326
O O3 0.000000 0.067386 0.361597
O O4 0.236405 0.007682 0.332866
O O5 0.772925 0.874184 0.494756
O O6 0.000000 0.938859 0.526475
O O7 0.762687 0.000000 0.500000
O O8 0.500000 0.309128 0.147657
O O9 0.259438 0.258445 0.176297
O O10 0.270307 0.381984 0.163358
O O11 0.277246 0.305917 0.085879
O O12 0.188059 0.183957 0.250000
O O13 0.000000 0.209098 0.322032
O O14 0.265280 0.559118 0.750000
O O15 0.500000 0.554158 0.805778
O O16 0.500000 0.299136 0.023144
O O17 0.750000 0.250000 0.000000
#
# Coordination Sequence:
#
# PCOD8258478 Si02
#       6
#    16  16  16  16  16  16
#     4   9  16  27  45  69  96 125 159 200 242 283
#     4   9  16  27  45  69  96 125 159 200 242 283
#     4  10  20  33  50  73 100 130 164 201 242 289
#     4  10  20  33  50  73 100 130 164 201 242 289
#     4   9  16  27  45  69  96 125 159 200 242 283
#     4  10  20  33  50  73 100 130 164 201 242 289
#
# _framework density 18.774654999999999
#
# number of rings (size 3 to 8) (size 9 to 14) (size 15 to 20)
#    0.000    2.500    0.000    3.000    0.000    9.000 
#    0.000    0.000    0.000    1.500    0.000    0.000 
#    0.000    0.000    0.000    0.000    0.000    0.000 
#
# Total GULP energy -595257.636189 kJ/mol
# GULP energy per Si atom -12401.200754 kJ/mol
# Density = 1.873192 g / cm^3
# Si number density = 18.774655 Si / 1000 Ang^3
#
#
#
# Elastic Constant Matrix: (Units=GPa)
#
#
# Indices 1 2 3 4 5 6 
#
# 1 9.9374 16.9738 14.3863 0.0000 0.0000 0.0000
# 2 16.9738 138.1581 35.9017 0.0000 0.0000 0.0000
# 3 14.3863 35.9017 106.4873 0.0000 0.0000 0.0000
# 4 0.0000 0.0000 0.0000 46.8220 0.0000 0.0000
# 5 0.0000 0.0000 0.0000 0.0000 19.2463 0.0000
# 6 0.0000 0.0000 0.0000 0.0000 0.0000 18.4773
#
#
#
# Elastic Compliance Matrix: (Units=1/GPa)
#
#
# Indices 1 2 3 4 5 6 
#
# 1 0.146460 -0.014086 -0.015038 0.000000 0.000000 0.000000
# 2 -0.014086 0.009288 -0.001228 0.000000 0.000000 0.000000
# 3 -0.015038 -0.001228 0.011836 0.000000 0.000000 0.000000
# 4 0.000000 0.000000 0.000000 0.021357 0.000000 0.000000
# 5 0.000000 0.000000 0.000000 0.000000 0.051958 0.000000
# 6 0.000000 0.000000 0.000000 0.000000 0.000000 0.054120
#
#
# Mechanical properties :
#
#
# Convention : Reuss Voigt Hill
#
# Bulk Modulus (GPa) = 9.35627 43.23405 26.29516
# Shear Modulus (GPa) = 12.77626 29.39718 21.08672
#
# Velocity S-wave (km/s) = 2.61148 3.96130 3.35498
# Velocity P-wave (km/s) = 3.75332 6.63328 5.38924
#
# Compressibility (1/GPa) = 0.10688024
#
# Stress axis : x y z
#
# Youngs Moduli (GPa) = 6.82782 107.66745 84.48454
#
# Poissons Ratio (x) = 1.51661 1.27044
# Poissons Ratio (y) = 0.09618 0.10378
# Poissons Ratio (z) = 0.10267 0.13225
#
# Static dielectric constant tensor:
#      x y z
#    x 2.835570 0.000000 0.000000 
#    y 0.000000 3.675220 0.000000 
#    z 0.000000 0.000000 3.774220 
# 
# 
# High freq. dielectric constant tensor:
#      x y z
#    x 1.659770 0.000000 0.000000 
#    y 0.000000 1.749140 0.000000 
#    z 0.000000 0.000000 1.751090 
# 
# From -- ./inp_files/12391.got.cif
#   From: 2010.03.12/outbox.cif.g09.slc.cpg/sg63_7_cif.got.tgz:12391.got - 2010.04.10 19:34:48.
