data_PCOD8258987
_publ_section_title
;
Structure prediction by ZEFSAII (Michael W. Deem and Ramdas Pophale) SiO2 
 PCOD8258987
Probable space group: C M C M
;
_chemical_formula_sum "Si O2"
_cell_formula_units_Z 64
_cell_length_a 20.549286
_cell_length_b 19.432660
_cell_length_c 8.745126
_cell_angle_alpha 90.000000
_cell_angle_beta 90.000000
_cell_angle_gamma 90.000000
_cell_volume 3492.167450
_symmetry_space_group_name_H-M "C M C M"
_symmetry_group_IT_number 63
_symmetry_cell_setting 'orthorhombic'
loop_
_space_group_symop_operation_xyz
x,y,z
-x,-y,1/2+z
x,-y,-z
-x,y,1/2-z
-x,-y,-z
x,y,1/2-z
-x,y,z
x,-y,1/2+z
1/2+x,1/2+y,z
1/2-x,1/2-y,1/2+z
1/2+x,1/2-y,-z
1/2-x,1/2+y,1/2-z
1/2-x,1/2-y,-z
1/2+x,1/2+y,1/2-z
1/2-x,1/2+y,z
1/2+x,1/2-y,1/2+z
loop_
_atom_site_type_symbol
_atom_site_label
_atom_site_fract_x
_atom_site_fract_y
_atom_site_fract_z
Si Si1 0.812523 0.785196 0.926614
Si Si2 0.573309 0.795094 0.925121
Si Si3 0.378401 0.071188 0.569391
Si Si4 0.760994 0.931320 0.573090
O O1 0.814207 0.763660 0.750000
O O2 0.809781 0.867598 0.947182
O O3 0.750000 0.750000 0.000000
O O4 0.878655 0.761402 0.005553
O O5 0.593169 0.808243 0.750000
O O6 0.500000 0.766322 0.939425
O O7 0.576321 0.866942 0.014477
O O8 0.380148 0.066134 0.750000
O O9 0.305450 0.086413 0.513790
O O10 0.405252 0.000000 0.500000
O O11 0.744602 0.944995 0.750000
O O12 0.793049 0.000000 0.500000
#
# Coordination Sequence:
#
# PCOD8258987 Si02
#       4
#    16  16  16  16
#     4  11  22  36  59  86 114 148 188 234 281 335
#     4  11  24  40  57  80 113 151 192 237 284 337
#     4  11  21  34  55  80 112 151 189 231 277 334
#     4  10  20  34  55  84 115 145 183 230 280 333
#
# _framework density 18.326727999999999
#
# number of rings (size 3 to 8) (size 9 to 14) (size 15 to 20)
#    0.000    1.250    2.500    6.000    0.000    5.500 
#    0.000    0.000    0.000    0.750    0.000    0.000 
#    0.000    0.000    0.000    0.000    0.000    0.000 
#
# Total GULP energy -396905.175201 kJ/mol
# GULP energy per Si atom -12403.286725 kJ/mol
# Density = 1.828502 g / cm^3
# Si number density = 18.326728 Si / 1000 Ang^3
#
#
#
# Elastic Constant Matrix: (Units=GPa)
#
#
# Indices 1 2 3 4 5 6 
#
# 1 90.9326 52.0427 54.5004 0.0000 0.0000 0.0000
# 2 52.0427 103.8532 59.7374 0.0000 0.0000 0.0000
# 3 54.5004 59.7374 173.3372 0.0000 0.0000 0.0000
# 4 0.0000 0.0000 0.0000 34.9406 0.0000 0.0000
# 5 0.0000 0.0000 0.0000 0.0000 26.3904 0.0000
# 6 0.0000 0.0000 0.0000 0.0000 0.0000 25.0784
#
#
#
# Elastic Compliance Matrix: (Units=1/GPa)
#
#
# Indices 1 2 3 4 5 6 
#
# 1 0.016526 -0.006601 -0.002921 0.000000 0.000000 0.000000
# 2 -0.006601 0.014647 -0.002972 0.000000 0.000000 0.000000
# 3 -0.002921 -0.002972 0.007712 0.000000 0.000000 0.000000
# 4 0.000000 0.000000 0.000000 0.028620 0.000000 0.000000
# 5 0.000000 0.000000 0.000000 0.000000 0.037893 0.000000
# 6 0.000000 0.000000 0.000000 0.000000 0.000000 0.039875
#
#
# Mechanical properties :
#
#
# Convention : Reuss Voigt Hill
#
# Bulk Modulus (GPa) = 71.96574 77.85378 74.90976
# Shear Modulus (GPa) = 28.58899 30.73804 29.66351
#
# Velocity S-wave (km/s) = 3.95392 4.09984 4.02754
# Velocity P-wave (km/s) = 7.75874 8.06131 7.91147
#
# Compressibility (1/GPa) = 0.01389550
#
# Stress axis : x y z
#
# Youngs Moduli (GPa) = 60.51103 68.27539 129.67098
#
# Poissons Ratio (x) = 0.45070 0.37878
# Poissons Ratio (y) = 0.39945 0.38540
# Poissons Ratio (z) = 0.17676 0.20292
#
# Static dielectric constant tensor:
#      x y z
#    x 3.017290 0.000000 0.000000 
#    y 0.000000 3.650440 0.000000 
#    z 0.000000 0.000000 3.644440 
# 
# 
# High freq. dielectric constant tensor:
#      x y z
#    x 1.678880 0.000000 0.000000 
#    y 0.000000 1.715550 0.000000 
#    z 0.000000 0.000000 1.735770 
# 
# From -- ./inp_files/5708.got.cif
#   From: 2010.03.12/outbox.cif.g09.slc.cpg/sg63_3_cif.got.tgz:5708.got - 2010.04.10 19:34:48.
