data_PCOD8258703
_publ_section_title
;
Structure prediction by ZEFSAII (Michael W. Deem and Ramdas Pophale) SiO2 
 PCOD8258703
Probable space group: C M C M
;
_chemical_formula_sum "Si O2"
_cell_formula_units_Z 80
_cell_length_a 9.144484
_cell_length_b 20.404722
_cell_length_c 24.806370
_cell_angle_alpha 90.000000
_cell_angle_beta 90.000000
_cell_angle_gamma 90.000000
_cell_volume 4628.636798
_symmetry_space_group_name_H-M "C M C M"
_symmetry_group_IT_number 63
_symmetry_cell_setting 'orthorhombic'
loop_
_space_group_symop_operation_xyz
x,y,z
-x,-y,1/2+z
x,-y,-z
-x,y,1/2-z
-x,-y,-z
x,y,1/2-z
-x,y,z
x,-y,1/2+z
1/2+x,1/2+y,z
1/2-x,1/2-y,1/2+z
1/2+x,1/2-y,-z
1/2-x,1/2+y,1/2-z
1/2-x,1/2-y,-z
1/2+x,1/2+y,1/2-z
1/2-x,1/2+y,z
1/2+x,1/2-y,1/2+z
loop_
_atom_site_type_symbol
_atom_site_label
_atom_site_fract_x
_atom_site_fract_y
_atom_site_fract_z
Si Si1 0.672624 0.361910 0.750000
Si Si2 0.327334 0.494869 0.250000
Si Si3 0.328941 0.357659 0.632483
Si Si4 0.328477 0.060382 0.965467
Si Si5 0.169758 0.987742 0.365979
Si Si6 0.826885 0.690225 0.470796
O O1 0.500000 0.370353 0.750000
O O2 0.746081 0.433482 0.750000
O O3 0.715712 0.328890 0.807627
O O4 0.500000 0.505041 0.250000
O O5 0.283450 0.460247 0.193666
O O6 0.500000 0.345481 0.620782
O O7 0.292409 0.435099 0.628792
O O8 0.233437 0.317606 0.589692
O O9 0.500000 0.053918 0.958069
O O10 0.258177 0.057656 0.906679
O O11 0.283328 0.126698 0.994883
O O12 0.265493 0.000000 0.000000
O O13 0.000000 0.976307 0.377149
O O14 0.750000 0.750000 0.500000
O O15 0.000000 0.701318 0.468335
#
# Coordination Sequence:
#
# PCOD8258703 Si02
#       6
#     8   8  16  16  16  16
#     4   7  12  24  45  72 101 130 159 197 245 294
#     4   7  12  24  41  70 105 130 155 199 251 286
#     4   9  16  29  50  76 103 131 165 203 245 296
#     4  10  20  34  50  71 102 133 161 202 254 296
#     4   9  16  27  49  76 102 131 166 204 242 295
#     4  11  23  37  52  71 101 137 170 210 255 302
#
# _framework density 17.283707
#
# number of rings (size 3 to 8) (size 9 to 14) (size 15 to 20)
#    0.000    2.800    2.000    3.000    0.000    2.000 
#    0.000    1.000    0.000    4.800    0.000    1.400 
#    0.000    0.000    0.000    0.000    0.000    0.000 
#
# Total GULP energy -495544.483961 kJ/mol
# GULP energy per Si atom -12388.612099 kJ/mol
# Density = 1.724437 g / cm^3
# Si number density = 17.283707 Si / 1000 Ang^3
#
#
#
# Elastic Constant Matrix: (Units=GPa)
#
#
# Indices 1 2 3 4 5 6 
#
# 1 43.7384 38.4912 53.3803 0.0000 0.0000 0.0000
# 2 38.4912 73.4947 59.0139 0.0000 0.0000 0.0000
# 3 53.3803 59.0139 188.0908 0.0000 0.0000 0.0000
# 4 0.0000 0.0000 0.0000 18.2054 0.0000 0.0000
# 5 0.0000 0.0000 0.0000 0.0000 23.6232 0.0000
# 6 0.0000 0.0000 0.0000 0.0000 0.0000 21.9328
#
#
#
# Elastic Compliance Matrix: (Units=1/GPa)
#
#
# Indices 1 2 3 4 5 6 
#
# 1 0.050025 -0.019784 -0.007990 0.000000 0.000000 0.000000
# 2 -0.019784 0.026013 -0.002547 0.000000 0.000000 0.000000
# 3 -0.007990 -0.002547 0.008383 0.000000 0.000000 0.000000
# 4 0.000000 0.000000 0.000000 0.054929 0.000000 0.000000
# 5 0.000000 0.000000 0.000000 0.000000 0.042331 0.000000
# 6 0.000000 0.000000 0.000000 0.000000 0.000000 0.045594
#
#
# Mechanical properties :
#
#
# Convention : Reuss Voigt Hill
#
# Bulk Modulus (GPa) = 42.05269 67.45499 54.75384
# Shear Modulus (GPa) = 16.90088 23.04816 19.97452
#
# Velocity S-wave (km/s) = 3.13045 3.65570 3.40322
# Velocity P-wave (km/s) = 6.11964 7.54531 6.86956
#
# Compressibility (1/GPa) = 0.02377969
#
# Stress axis : x y z
#
# Youngs Moduli (GPa) = 19.99009 38.44249 119.28584
#
# Poissons Ratio (x) = 0.76054 0.95308
# Poissons Ratio (y) = 0.39548 0.30381
# Poissons Ratio (z) = 0.15972 0.09791
#
# Static dielectric constant tensor:
#      x y z
#    x 2.965080 0.000000 0.000000 
#    y 0.000000 2.844120 0.000000 
#    z 0.000000 0.000000 3.711340 
# 
# 
# High freq. dielectric constant tensor:
#      x y z
#    x 1.646470 0.000000 0.000000 
#    y 0.000000 1.616170 0.000000 
#    z 0.000000 0.000000 1.694180 
# 
# From -- ./inp_files/66706.got.cif
#   From: 2010.03.12/outbox.cif.g09.slc.cpg/sg63_34_cif.got.tgz:66706.got - 2010.04.10 19:34:48.
