data_PCOD8258152
_publ_section_title
;
Structure prediction by ZEFSAII (Michael W. Deem and Ramdas Pophale) SiO2 
 PCOD8258152
Probable space group: C M C M
;
_chemical_formula_sum "Si O2"
_cell_formula_units_Z 88
_cell_length_a 18.315301
_cell_length_b 28.768707
_cell_length_c 8.878518
_cell_angle_alpha 90.000000
_cell_angle_beta 90.000000
_cell_angle_gamma 90.000000
_cell_volume 4678.157972
_symmetry_space_group_name_H-M "C M C M"
_symmetry_group_IT_number 63
_symmetry_cell_setting 'orthorhombic'
loop_
_space_group_symop_operation_xyz
x,y,z
-x,-y,1/2+z
x,-y,-z
-x,y,1/2-z
-x,-y,-z
x,y,1/2-z
-x,y,z
x,-y,1/2+z
1/2+x,1/2+y,z
1/2-x,1/2-y,1/2+z
1/2+x,1/2-y,-z
1/2-x,1/2+y,1/2-z
1/2-x,1/2-y,-z
1/2+x,1/2+y,1/2-z
1/2-x,1/2+y,z
1/2+x,1/2-y,1/2+z
loop_
_atom_site_type_symbol
_atom_site_label
_atom_site_fract_x
_atom_site_fract_y
_atom_site_fract_z
Si Si1 0.309045 0.282438 0.926966
Si Si2 0.500000 0.949017 0.570340
Si Si3 0.917995 0.048768 0.926977
Si Si4 0.079315 0.708208 0.572446
Si Si5 0.293765 0.618458 0.573395
Si Si6 0.130079 0.608870 0.926701
O O1 0.296296 0.283954 0.750000
O O2 0.384529 0.257118 0.972136
O O3 0.250000 0.250000 0.000000
O O4 0.306949 0.333720 0.989649
O O5 0.500000 0.952494 0.750000
O O6 0.426386 0.922872 0.518173
O O7 0.500000 0.000000 0.500000
O O8 0.911552 0.042498 0.750000
O O9 0.857802 0.084942 0.985903
O O10 0.000000 0.065251 0.972663
O O11 0.898752 0.000000 0.000000
O O12 0.072383 0.704852 0.750000
O O13 0.123237 0.662481 0.518905
O O14 0.000000 0.707148 0.495287
O O15 0.299901 0.628461 0.750000
O O16 0.214455 0.595649 0.537080
O O17 0.112322 0.602771 0.750000
#
# Coordination Sequence:
#
# PCOD8258152 Si02
#       6
#    16   8  16  16  16  16
#     4  11  21  34  54  82 114 150 190 234 282 333
#     4  12  26  42  60  86 116 148 192 242 293 346
#     4   9  19  37  60  84 114 150 188 234 291 347
#     4   9  17  32  55  78 104 146 193 230 275 332
#     4  10  21  37  58  86 119 153 190 235 290 347
#     4  10  19  37  61  81 108 151 192 234 289 343
#
# _framework density 18.810822000000002
#
# number of rings (size 3 to 8) (size 9 to 14) (size 15 to 20)
#    0.000    2.000    2.727    1.364    0.000    2.909 
#    0.000    1.818    0.000    0.000    0.000    0.000 
#    0.000    0.000    0.000    0.000    0.000    0.000 
#
# Total GULP energy -545408.141706 kJ/mol
# GULP energy per Si atom -12395.639584 kJ/mol
# Density = 1.876801 g / cm^3
# Si number density = 18.810822 Si / 1000 Ang^3
#
#
#
# Elastic Constant Matrix: (Units=GPa)
#
#
# Indices 1 2 3 4 5 6 
#
# 1 164.3736 90.3590 49.1516 0.0000 0.0000 0.0000
# 2 90.3590 143.8050 55.0147 0.0000 0.0000 0.0000
# 3 49.1516 55.0147 62.3151 0.0000 0.0000 0.0000
# 4 0.0000 0.0000 0.0000 34.1792 0.0000 0.0000
# 5 0.0000 0.0000 0.0000 0.0000 22.9832 0.0000
# 6 0.0000 0.0000 0.0000 0.0000 0.0000 33.9733
#
#
#
# Elastic Compliance Matrix: (Units=1/GPa)
#
#
# Indices 1 2 3 4 5 6 
#
# 1 0.009761 -0.004814 -0.003449 0.000000 0.000000 0.000000
# 2 -0.004814 0.012874 -0.007569 0.000000 0.000000 0.000000
# 3 -0.003449 -0.007569 0.025451 0.000000 0.000000 0.000000
# 4 0.000000 0.000000 0.000000 0.029258 0.000000 0.000000
# 5 0.000000 0.000000 0.000000 0.000000 0.043510 0.000000
# 6 0.000000 0.000000 0.000000 0.000000 0.000000 0.029435
#
#
# Mechanical properties :
#
#
# Convention : Reuss Voigt Hill
#
# Bulk Modulus (GPa) = 60.89581 84.39382 72.64481
# Shear Modulus (GPa) = 26.67698 29.95838 28.31768
#
# Velocity S-wave (km/s) = 3.76995 3.99509 3.88415
# Velocity P-wave (km/s) = 7.16889 8.13897 7.66929
#
# Compressibility (1/GPa) = 0.01642149
#
# Stress axis : x y z
#
# Youngs Moduli (GPa) = 102.44364 77.67418 39.29181
#
# Poissons Ratio (x) = 0.37392 0.13554
# Poissons Ratio (y) = 0.49315 0.29740
# Poissons Ratio (z) = 0.35338 0.58792
#
# Static dielectric constant tensor:
#      x y z
#    x 3.774920 0.000000 0.000000 
#    y 0.000000 3.410540 0.000000 
#    z 0.000000 0.000000 3.295770 
# 
# 
# High freq. dielectric constant tensor:
#      x y z
#    x 1.747800 0.000000 0.000000 
#    y 0.000000 1.729460 0.000000 
#    z 0.000000 0.000000 1.709850 
# 
# From -- ./inp_files/6888.got.cif
#   From: 2010.03.12/outbox.cif.g09.slc.cpg/sg63_4_cif.got.tgz:6888.got - 2010.04.10 19:34:48.
