data_PCOD8258040
_publ_section_title
;
Structure prediction by ZEFSAII (Michael W. Deem and Ramdas Pophale) SiO2 
 PCOD8258040
Probable space group: C M C M
;
_chemical_formula_sum "Si O2"
_cell_formula_units_Z 96
_cell_length_a 12.133491
_cell_length_b 24.688254
_cell_length_c 16.535403
_cell_angle_alpha 90.000000
_cell_angle_beta 90.000000
_cell_angle_gamma 90.000000
_cell_volume 4953.257813
_symmetry_space_group_name_H-M "C M C M"
_symmetry_group_IT_number 63
_symmetry_cell_setting 'orthorhombic'
loop_
_space_group_symop_operation_xyz
x,y,z
-x,-y,1/2+z
x,-y,-z
-x,y,1/2-z
-x,-y,-z
x,y,1/2-z
-x,y,z
x,-y,1/2+z
1/2+x,1/2+y,z
1/2-x,1/2-y,1/2+z
1/2+x,1/2-y,-z
1/2-x,1/2+y,1/2-z
1/2-x,1/2-y,-z
1/2+x,1/2+y,1/2-z
1/2-x,1/2+y,z
1/2+x,1/2-y,1/2+z
loop_
_atom_site_type_symbol
_atom_site_label
_atom_site_fract_x
_atom_site_fract_y
_atom_site_fract_z
Si Si1 0.500000 0.711906 0.339952
Si Si2 0.263997 0.573734 0.156530
Si Si3 0.500000 0.414919 0.661280
Si Si4 0.626748 0.981942 0.409667
Si Si5 0.279404 0.242737 0.907277
Si Si6 0.372580 0.135111 0.655439
Si Si7 0.622245 0.828011 0.844096
O O1 0.500000 0.739724 0.250000
O O2 0.500000 0.648798 0.328535
O O3 0.606480 0.727904 0.390070
O O4 0.283575 0.588814 0.250000
O O5 0.386127 0.568260 0.115373
O O6 0.199855 0.517503 0.150431
O O7 0.193305 0.622815 0.116231
O O8 0.500000 0.442792 0.750000
O O9 0.500000 0.994151 0.389396
O O10 0.653850 0.919273 0.394382
O O11 0.657172 0.000000 0.500000
O O12 0.290684 0.180195 0.880825
O O13 0.181411 0.270490 0.856774
O O14 0.250000 0.250000 0.000000
O O15 0.348318 0.125533 0.750000
O O16 0.500000 0.152921 0.642473
O O17 0.608960 0.839179 0.750000
O O18 0.500000 0.827290 0.884341
#
# Coordination Sequence:
#
# PCOD8258040 Si02
#       7
#     8  16   8  16  16  16  16
#     4  11  20  40  64  87 119 167 219 259 312 379
#     4  10  19  35  59  86 116 150 195 248 301 362
#     4   9  18  32  59  89 109 143 202 255 291 347
#     4  10  22  37  58  87 122 157 196 253 317 371
#     4  12  25  36  60  90 125 159 202 266 314 370
#     4  10  21  39  63  88 117 165 222 260 304 382
#     4  10  21  36  58  86 119 157 195 242 311 380
#
# _framework density 19.381184000000001
#
# number of rings (size 3 to 8) (size 9 to 14) (size 15 to 20)
#    0.000    1.667    2.500    2.500    3.500    1.667 
#    0.000    0.417    1.833    0.000    0.000    0.000 
#    0.000    0.000    0.000    0.000    0.000    0.000 
#
# Total GULP energy -595102.572309 kJ/mol
# GULP energy per Si atom -12397.970256 kJ/mol
# Density = 1.933707 g / cm^3
# Si number density = 19.381184 Si / 1000 Ang^3
#
#
#
# Elastic Constant Matrix: (Units=GPa)
#
#
# Indices 1 2 3 4 5 6 
#
# 1 160.2002 65.2978 28.5030 0.0000 0.0000 0.0000
# 2 65.2978 119.5946 24.7420 0.0000 0.0000 0.0000
# 3 28.5030 24.7420 67.3141 0.0000 0.0000 0.0000
# 4 0.0000 0.0000 0.0000 29.3764 0.0000 0.0000
# 5 0.0000 0.0000 0.0000 0.0000 30.9180 0.0000
# 6 0.0000 0.0000 0.0000 0.0000 0.0000 40.1543
#
#
#
# Elastic Compliance Matrix: (Units=1/GPa)
#
#
# Indices 1 2 3 4 5 6 
#
# 1 0.008269 -0.004102 -0.001993 0.000000 0.000000 0.000000
# 2 -0.004102 0.011085 -0.002337 0.000000 0.000000 0.000000
# 3 -0.001993 -0.002337 0.016559 0.000000 0.000000 0.000000
# 4 0.000000 0.000000 0.000000 0.034041 0.000000 0.000000
# 5 0.000000 0.000000 0.000000 0.000000 0.032344 0.000000
# 6 0.000000 0.000000 0.000000 0.000000 0.000000 0.024904
#
#
# Mechanical properties :
#
#
# Convention : Reuss Voigt Hill
#
# Bulk Modulus (GPa) = 52.50298 64.91050 58.70674
# Shear Modulus (GPa) = 33.24099 35.32749 34.28424
#
# Velocity S-wave (km/s) = 4.14589 4.27403 4.21045
# Velocity P-wave (km/s) = 7.07576 7.61056 7.34803
#
# Compressibility (1/GPa) = 0.01904654
#
# Stress axis : x y z
#
# Youngs Moduli (GPa) = 120.93333 90.21189 60.39035
#
# Poissons Ratio (x) = 0.37009 0.12039
# Poissons Ratio (y) = 0.49612 0.14115
# Poissons Ratio (z) = 0.24108 0.21085
#
# Static dielectric constant tensor:
#      x y z
#    x 3.802700 0.000000 0.000000 
#    y 0.000000 3.519400 0.000000 
#    z 0.000000 0.000000 3.426770 
# 
# 
# High freq. dielectric constant tensor:
#      x y z
#    x 1.757750 0.000000 0.000000 
#    y 0.000000 1.754090 0.000000 
#    z 0.000000 0.000000 1.730180 
# 
# From -- ./inp_files/42567.got.cif
#   From: 2010.03.12/outbox.cif.g09.slc.cpg/sg63_22_cif.got.tgz:42567.got - 2010.04.10 19:34:48.
