data_PCOD8258373
_publ_section_title
;
Structure prediction by ZEFSAII (Michael W. Deem and Ramdas Pophale) SiO2 
 PCOD8258373
Probable space group: C M C M
;
_chemical_formula_sum "Si O2"
_cell_formula_units_Z 112
_cell_length_a 13.705042
_cell_length_b 16.810927
_cell_length_c 24.681684
_cell_angle_alpha 90.000000
_cell_angle_beta 90.000000
_cell_angle_gamma 90.000000
_cell_volume 5686.523272
_symmetry_space_group_name_H-M "C M C M"
_symmetry_group_IT_number 63
_symmetry_cell_setting 'orthorhombic'
loop_
_space_group_symop_operation_xyz
x,y,z
-x,-y,1/2+z
x,-y,-z
-x,y,1/2-z
-x,-y,-z
x,y,1/2-z
-x,y,z
x,-y,1/2+z
1/2+x,1/2+y,z
1/2-x,1/2-y,1/2+z
1/2+x,1/2-y,-z
1/2-x,1/2+y,1/2-z
1/2-x,1/2-y,-z
1/2+x,1/2+y,1/2-z
1/2-x,1/2+y,z
1/2+x,1/2-y,1/2+z
loop_
_atom_site_type_symbol
_atom_site_label
_atom_site_fract_x
_atom_site_fract_y
_atom_site_fract_z
Si Si1 0.783538 0.337933 0.079625
Si Si2 0.245208 0.660812 0.106508
Si Si3 0.610481 0.090704 0.014237
Si Si4 0.107238 0.065727 0.541752
Si Si5 0.608176 0.762560 0.811603
Si Si6 0.222695 0.104208 0.809957
Si Si7 0.108246 0.033334 0.351929
O O1 0.785674 0.243459 0.083945
O O2 0.683726 0.362534 0.047989
O O3 0.795594 0.382153 0.138661
O O4 0.873661 0.361073 0.041592
O O5 0.187179 0.613678 0.060524
O O6 0.174224 0.675475 0.156648
O O7 0.337569 0.612786 0.128949
O O8 0.500000 0.106552 0.034244
O O9 0.628916 0.000000 0.000000
O O10 0.000000 0.097428 0.522157
O O11 0.148423 0.000000 0.500000
O O12 0.094084 0.025671 0.598934
O O13 0.611248 0.790796 0.750000
O O14 0.500000 0.767278 0.835894
O O15 0.640626 0.671435 0.818079
O O16 0.272980 0.114662 0.750000
O O17 0.173369 0.016695 0.809198
O O18 0.000000 0.055443 0.328727
#
# Coordination Sequence:
#
# PCOD8258373 Si02
#       7
#    16  16  16  16  16  16  16
#     4  10  20  35  55  79 108 139 178 224 272 324
#     4  11  22  35  53  79 111 145 180 219 267 321
#     4  11  23  38  55  75 104 144 187 227 264 311
#     4   9  17  31  53  77 101 130 167 217 272 321
#     4   9  18  34  56  81 107 135 173 223 273 318
#     4   9  18  34  58  82 104 134 173 222 278 330
#     4  10  20  32  49  76 108 139 171 209 259 320
#
# _framework density 19.695689999999999
#
# number of rings (size 3 to 8) (size 9 to 14) (size 15 to 20)
#    0.000    2.143    0.000    4.286    0.000    6.000 
#    0.000    1.429    0.000    0.429    0.000    4.000 
#    0.000    0.000    0.000    0.000    0.000    0.000 
#
# Total GULP energy -694112.586714 kJ/mol
# GULP energy per Si atom -12394.867620 kJ/mol
# Density = 1.965086 g / cm^3
# Si number density = 19.695690 Si / 1000 Ang^3
#
#
#
# Elastic Constant Matrix: (Units=GPa)
#
#
# Indices 1 2 3 4 5 6 
#
# 1 51.7734 38.4320 15.2957 0.0000 0.0000 0.0000
# 2 38.4320 106.3925 22.2473 0.0000 0.0000 0.0000
# 3 15.2957 22.2473 78.1127 0.0000 0.0000 0.0000
# 4 0.0000 0.0000 0.0000 27.1592 0.0000 0.0000
# 5 0.0000 0.0000 0.0000 0.0000 24.1400 0.0000
# 6 0.0000 0.0000 0.0000 0.0000 0.0000 76.7559
#
#
#
# Elastic Compliance Matrix: (Units=1/GPa)
#
#
# Indices 1 2 3 4 5 6 
#
# 1 0.026901 -0.009162 -0.002658 0.000000 0.000000 0.000000
# 2 -0.009162 0.013114 -0.001941 0.000000 0.000000 0.000000
# 3 -0.002658 -0.001941 0.013875 0.000000 0.000000 0.000000
# 4 0.000000 0.000000 0.000000 0.036820 0.000000 0.000000
# 5 0.000000 0.000000 0.000000 0.000000 0.041425 0.000000
# 6 0.000000 0.000000 0.000000 0.000000 0.000000 0.013028
#
#
# Mechanical properties :
#
#
# Convention : Reuss Voigt Hill
#
# Bulk Modulus (GPa) = 37.92358 43.13654 40.53006
# Shear Modulus (GPa) = 27.55186 36.29792 31.92489
#
# Velocity S-wave (km/s) = 3.74421 4.29760 4.03042
# Velocity P-wave (km/s) = 6.16350 6.82458 6.50245
#
# Compressibility (1/GPa) = 0.02636882
#
# Stress axis : x y z
#
# Youngs Moduli (GPa) = 37.17327 76.25157 72.06982
#
# Poissons Ratio (x) = 0.69858 0.19159
# Poissons Ratio (y) = 0.34056 0.13990
# Poissons Ratio (z) = 0.09882 0.14802
#
# Static dielectric constant tensor:
#      x y z
#    x 3.694480 0.000000 0.000000 
#    y 0.000000 3.466030 0.000000 
#    z 0.000000 0.000000 3.950490 
# 
# 
# High freq. dielectric constant tensor:
#      x y z
#    x 1.746220 0.000000 0.000000 
#    y 0.000000 1.759590 0.000000 
#    z 0.000000 0.000000 1.774010 
# 
# From -- ./inp_files/63004.got.cif
#   From: 2010.03.12/outbox.cif.g09.slc.cpg/sg63_32_cif.got.tgz:63004.got - 2010.04.10 19:34:48.
