data_PCOD8258539
_publ_section_title
;
Structure prediction by ZEFSAII (Michael W. Deem and Ramdas Pophale) SiO2 
 PCOD8258539
Probable space group: C M C M
;
_chemical_formula_sum "Si O2"
_cell_formula_units_Z 96
_cell_length_a 9.184478
_cell_length_b 23.193545
_cell_length_c 23.603321
_cell_angle_alpha 90.000000
_cell_angle_beta 90.000000
_cell_angle_gamma 90.000000
_cell_volume 5027.993691
_symmetry_space_group_name_H-M "C M C M"
_symmetry_group_IT_number 63
_symmetry_cell_setting 'orthorhombic'
loop_
_space_group_symop_operation_xyz
x,y,z
-x,-y,1/2+z
x,-y,-z
-x,y,1/2-z
-x,-y,-z
x,y,1/2-z
-x,y,z
x,-y,1/2+z
1/2+x,1/2+y,z
1/2-x,1/2-y,1/2+z
1/2+x,1/2-y,-z
1/2-x,1/2+y,1/2-z
1/2-x,1/2-y,-z
1/2+x,1/2+y,1/2-z
1/2-x,1/2+y,z
1/2+x,1/2-y,1/2+z
loop_
_atom_site_type_symbol
_atom_site_label
_atom_site_fract_x
_atom_site_fract_y
_atom_site_fract_z
Si Si1 0.331477 0.522745 0.918117
Si Si2 0.672845 0.124780 0.524217
Si Si3 0.672303 0.688446 0.185837
Si Si4 0.328438 0.807000 0.366144
Si Si5 0.328636 0.390545 0.585105
Si Si6 0.163415 0.905327 0.312426
O O1 0.500000 0.529325 0.936323
O O2 0.236156 0.561649 0.960172
O O3 0.281157 0.456862 0.919669
O O4 0.302613 0.542247 0.854057
O O5 0.500000 0.120325 0.519290
O O6 0.721475 0.172636 0.570870
O O7 0.742587 0.143803 0.464298
O O8 0.737831 0.683252 0.250000
O O9 0.500000 0.692878 0.191135
O O10 0.732915 0.744628 0.152259
O O11 0.717207 0.633809 0.146989
O O12 0.500000 0.807268 0.363038
O O13 0.271374 0.852281 0.320447
O O14 0.500000 0.381401 0.575569
O O15 0.184566 0.930989 0.250000
O O16 0.000000 0.881975 0.322302
#
# Coordination Sequence:
#
# PCOD8258539 Si02
#       6
#    16  16  16  16  16  16
#     4   9  18  32  49  71 100 131 162 199 243 290
#     4  10  20  33  51  75 100 127 162 203 245 287
#     4   9  18  33  53  75  98 127 164 202 238 283
#     4   9  18  33  52  73  97 127 164 203 242 286
#     4  10  20  33  51  74  99 129 163 198 240 290
#     4   9  17  29  47  72  99 126 159 202 249 291
#
# _framework density 19.093101999999998
#
# number of rings (size 3 to 8) (size 9 to 14) (size 15 to 20)
#    0.000    2.667    0.000    1.500    0.000    5.667 
#    0.000    4.167    0.000    1.500    0.000    2.333 
#    0.000    0.000    0.000    0.000    0.000    0.000 
#
# Total GULP energy -594984.227263 kJ/mol
# GULP energy per Si atom -12395.504735 kJ/mol
# Density = 1.904965 g / cm^3
# Si number density = 19.093102 Si / 1000 Ang^3
#
#
#
# Elastic Constant Matrix: (Units=GPa)
#
#
# Indices 1 2 3 4 5 6 
#
# 1 24.9803 22.1466 32.1975 0.0000 0.0000 0.0000
# 2 22.1466 77.5870 62.1548 0.0000 0.0000 0.0000
# 3 32.1975 62.1548 159.2929 0.0000 0.0000 0.0000
# 4 0.0000 0.0000 0.0000 18.2114 0.0000 0.0000
# 5 0.0000 0.0000 0.0000 0.0000 24.5125 0.0000
# 6 0.0000 0.0000 0.0000 0.0000 0.0000 16.4637
#
#
#
# Elastic Compliance Matrix: (Units=1/GPa)
#
#
# Indices 1 2 3 4 5 6 
#
# 1 0.059700 -0.010727 -0.007881 0.000000 0.000000 0.000000
# 2 -0.010727 0.020677 -0.005900 0.000000 0.000000 0.000000
# 3 -0.007881 -0.005900 0.010173 0.000000 0.000000 0.000000
# 4 0.000000 0.000000 0.000000 0.054911 0.000000 0.000000
# 5 0.000000 0.000000 0.000000 0.000000 0.040796 0.000000
# 6 0.000000 0.000000 0.000000 0.000000 0.000000 0.060740
#
#
# Mechanical properties :
#
#
# Convention : Reuss Voigt Hill
#
# Bulk Modulus (GPa) = 24.07698 54.98423 39.53060
# Shear Modulus (GPa) = 16.13645 21.52826 18.83236
#
# Velocity S-wave (km/s) = 2.91029 3.36153 3.14402
# Velocity P-wave (km/s) = 4.89191 6.62774 5.82485
#
# Compressibility (1/GPa) = 0.04153345
#
# Stress axis : x y z
#
# Youngs Moduli (GPa) = 16.75032 48.36285 98.30103
#
# Poissons Ratio (x) = 0.51880 0.77475
# Poissons Ratio (y) = 0.17968 0.57995
# Poissons Ratio (z) = 0.13202 0.28533
#
# Static dielectric constant tensor:
#      x y z
#    x 3.247550 0.000000 0.000000 
#    y 0.000000 3.492580 0.000000 
#    z 0.000000 0.000000 3.811490 
# 
# 
# High freq. dielectric constant tensor:
#      x y z
#    x 1.711950 0.000000 0.000000 
#    y 0.000000 1.729260 0.000000 
#    z 0.000000 0.000000 1.759170 
# 
# From -- ./inp_files/59917.got.cif
#   From: 2010.03.12/outbox.cif.g09.slc.cpg/sg63_30_cif.got.tgz:59917.got - 2010.04.10 19:34:48.
