data_PCOD8258770
_publ_section_title
;
Structure prediction by ZEFSAII (Michael W. Deem and Ramdas Pophale) SiO2 
 PCOD8258770
Probable space group: C M C M
;
_chemical_formula_sum "Si O2"
_cell_formula_units_Z 80
_cell_length_a 9.061306
_cell_length_b 23.239769
_cell_length_c 20.536644
_cell_angle_alpha 90.000000
_cell_angle_beta 90.000000
_cell_angle_gamma 90.000000
_cell_volume 4324.661086
_symmetry_space_group_name_H-M "C M C M"
_symmetry_group_IT_number 63
_symmetry_cell_setting 'orthorhombic'
loop_
_space_group_symop_operation_xyz
x,y,z
-x,-y,1/2+z
x,-y,-z
-x,y,1/2-z
-x,-y,-z
x,y,1/2-z
-x,y,z
x,-y,1/2+z
1/2+x,1/2+y,z
1/2-x,1/2-y,1/2+z
1/2+x,1/2-y,-z
1/2-x,1/2+y,1/2-z
1/2-x,1/2-y,-z
1/2+x,1/2+y,1/2-z
1/2-x,1/2+y,z
1/2+x,1/2-y,1/2+z
loop_
_atom_site_type_symbol
_atom_site_label
_atom_site_fract_x
_atom_site_fract_y
_atom_site_fract_z
Si Si1 0.324317 0.119918 0.874283
Si Si2 0.324486 0.812284 0.250000
Si Si3 0.826214 0.500050 0.676219
Si Si4 0.674002 0.187976 0.500432
Si Si5 0.671824 0.123823 0.368054
Si Si6 0.174541 0.816300 0.750000
O O1 0.500000 0.119843 0.876681
O O2 0.262931 0.156528 0.813889
O O3 0.263938 0.054838 0.864129
O O4 0.263978 0.149560 0.939932
O O5 0.500000 0.813890 0.250000
O O6 0.263049 0.748070 0.250000
O O7 0.759629 0.496689 0.750000
O O8 0.786750 0.443740 0.633919
O O9 0.000000 0.507162 0.683576
O O10 0.500000 0.198418 0.506440
O O11 0.750000 0.250000 0.500000
O O12 0.714839 0.151328 0.436794
O O13 0.500000 0.132724 0.351722
O O14 0.768671 0.153920 0.314243
O O15 0.000000 0.817912 0.750000
#
# Coordination Sequence:
#
# PCOD8258770 Si02
#       6
#    16   8  16  16  16   8
#     4   9  16  28  48  75 102 132 171 214 260 305
#     4   9  16  26  43  69  99 129 168 215 256 292
#     4   9  15  27  50  76 103 131 164 217 273 312
#     4  10  21  35  52  76 109 143 177 218 260 314
#     4  10  20  34  52  76 106 138 170 214 272 318
#     4  11  21  32  51  77 103 137 178 217 252 306
#
# _framework density 18.498559
#
# number of rings (size 3 to 8) (size 9 to 14) (size 15 to 20)
#    0.000    2.400    2.000    1.500    0.000    3.200 
#    0.000    4.000    0.000    1.200    0.000    5.600 
#    0.000    0.000    0.000    0.000    0.000    0.000 
#
# Total GULP energy -495859.288903 kJ/mol
# GULP energy per Si atom -12396.482223 kJ/mol
# Density = 1.845646 g / cm^3
# Si number density = 18.498559 Si / 1000 Ang^3
#
#
#
# Elastic Constant Matrix: (Units=GPa)
#
#
# Indices 1 2 3 4 5 6 
#
# 1 22.3617 32.0909 30.7876 0.0000 0.0000 0.0000
# 2 32.0909 203.9802 101.6661 0.0000 0.0000 0.0000
# 3 30.7876 101.6661 170.9488 0.0000 0.0000 0.0000
# 4 0.0000 0.0000 0.0000 43.2843 0.0000 0.0000
# 5 0.0000 0.0000 0.0000 0.0000 -31.6452 0.0000
# 6 0.0000 0.0000 0.0000 0.0000 0.0000 23.5000
#
#
#
# Elastic Compliance Matrix: (Units=1/GPa)
#
#
# Indices 1 2 3 4 5 6 
#
# 1 0.064543 -0.006198 -0.007938 0.000000 0.000000 0.000000
# 2 -0.006198 0.007563 -0.003382 0.000000 0.000000 0.000000
# 3 -0.007938 -0.003382 0.009290 0.000000 0.000000 0.000000
# 4 0.000000 0.000000 0.000000 0.023103 0.000000 0.000000
# 5 0.000000 0.000000 0.000000 0.000000 -0.031600 0.000000
# 6 0.000000 0.000000 0.000000 0.000000 0.000000 0.042553
#
#
# Mechanical properties :
#
#
# Convention : Reuss Voigt Hill
#
# Bulk Modulus (GPa) = 21.56979 80.70888 51.13933
# Shear Modulus (GPa) = 30.13132 22.54423 26.33777
#
# Velocity S-wave (km/s) = 4.04028 3.49478 3.77739
# Velocity P-wave (km/s) = 5.78366 7.74656 6.83593
#
# Compressibility (1/GPa) = 0.04636114
#
# Stress axis : x y z
#
# Youngs Moduli (GPa) = 15.49365 132.22449 107.63732
#
# Poissons Ratio (x) = 0.81947 0.85445
# Poissons Ratio (y) = 0.09602 0.36399
# Poissons Ratio (z) = 0.12299 0.44713
#
# Static dielectric constant tensor:
#      x y z
#    x 2.854910 0.000000 0.000000 
#    y 0.000000 3.788120 0.000000 
#    z 0.000000 0.000000 3.514810 
# 
# 
# High freq. dielectric constant tensor:
#      x y z
#    x 1.655650 0.000000 0.000000 
#    y 0.000000 1.739740 0.000000 
#    z 0.000000 0.000000 1.726650 
# 
# From -- ./inp_files/50930.got.cif
#   From: 2010.03.12/outbox.cif.g09.slc.cpg/sg63_26_cif.got.tgz:50930.got - 2010.04.10 19:34:48.
