data_PCOD8258160
_publ_section_title
;
Structure prediction by ZEFSAII (Michael W. Deem and Ramdas Pophale) SiO2 
 PCOD8258160
Probable space group: C M C M
;
_chemical_formula_sum "Si O2"
_cell_formula_units_Z 112
_cell_length_a 30.992292
_cell_length_b 12.017183
_cell_length_c 15.362973
_cell_angle_alpha 90.000000
_cell_angle_beta 90.000000
_cell_angle_gamma 90.000000
_cell_volume 5721.786349
_symmetry_space_group_name_H-M "C M C M"
_symmetry_group_IT_number 63
_symmetry_cell_setting 'orthorhombic'
loop_
_space_group_symop_operation_xyz
x,y,z
-x,-y,1/2+z
x,-y,-z
-x,y,1/2-z
-x,-y,-z
x,y,1/2-z
-x,y,z
x,-y,1/2+z
1/2+x,1/2+y,z
1/2-x,1/2-y,1/2+z
1/2+x,1/2-y,-z
1/2-x,1/2+y,1/2-z
1/2-x,1/2-y,-z
1/2+x,1/2+y,1/2-z
1/2-x,1/2+y,z
1/2+x,1/2-y,1/2+z
loop_
_atom_site_type_symbol
_atom_site_label
_atom_site_fract_x
_atom_site_fract_y
_atom_site_fract_z
Si Si1 0.179465 0.116124 0.349826
Si Si2 0.843362 0.528848 0.093518
Si Si3 0.833999 0.875411 0.350644
Si Si4 0.731948 0.804363 0.586556
Si Si5 0.048392 0.630542 0.513945
Si Si6 0.878183 0.311795 0.149792
Si Si7 0.593405 0.787576 0.650631
O O1 0.166450 0.110075 0.250000
O O2 0.228358 0.157775 0.354896
O O3 0.146401 0.205237 0.391851
O O4 0.173003 0.995832 0.396885
O O5 0.796813 0.584017 0.074709
O O6 0.843094 0.412676 0.145816
O O7 0.873002 0.611078 0.148591
O O8 0.865028 0.500000 0.000000
O O9 0.832570 0.900126 0.250000
O O10 0.795239 0.792160 0.369259
O O11 0.880426 0.824036 0.375714
O O12 0.750000 0.750000 0.500000
O O13 0.052545 0.500000 0.500000
O O14 0.079691 0.668257 0.591578
O O15 0.056952 0.693439 0.421862
O O16 0.000000 0.662747 0.542478
O O17 0.892536 0.295281 0.250000
O O18 0.574731 0.780571 0.750000
#
# Coordination Sequence:
#
# PCOD8258160 Si02
#       7
#    16  16  16  16  16  16  16
#     4  10  23  39  57  81 113 155 203 249 292 346
#     4  11  20  35  55  81 119 155 198 241 290 350
#     4   9  21  40  57  79 112 153 201 247 292 345
#     4  11  24  34  54  83 115 155 199 249 298 343
#     4  11  23  39  61  93 128 150 185 246 299 364
#     4  11  22  39  62  86 118 163 200 239 300 358
#     4  10  19  37  63  85 114 156 192 235 295 357
#
# _framework density 19.574306
#
# number of rings (size 3 to 8) (size 9 to 14) (size 15 to 20)
#    0.000    1.571    2.857    1.714    6.000    2.286 
#    0.000    1.429    0.000    1.714    0.000    4.000 
#    0.000    0.000    0.000    0.000    0.000    0.000 
#
# Total GULP energy -693999.392264 kJ/mol
# GULP energy per Si atom -12392.846290 kJ/mol
# Density = 1.952975 g / cm^3
# Si number density = 19.574306 Si / 1000 Ang^3
#
#
#
# Elastic Constant Matrix: (Units=GPa)
#
#
# Indices 1 2 3 4 5 6 
#
# 1 122.2728 65.3271 39.4920 0.0000 0.0000 0.0000
# 2 65.3271 146.2039 27.7875 0.0000 0.0000 0.0000
# 3 39.4920 27.7875 68.8891 0.0000 0.0000 0.0000
# 4 0.0000 0.0000 0.0000 16.4713 0.0000 0.0000
# 5 0.0000 0.0000 0.0000 0.0000 16.6717 0.0000
# 6 0.0000 0.0000 0.0000 0.0000 0.0000 22.0751
#
#
#
# Elastic Compliance Matrix: (Units=1/GPa)
#
#
# Indices 1 2 3 4 5 6 
#
# 1 0.012261 -0.004487 -0.005219 0.000000 0.000000 0.000000
# 2 -0.004487 0.009049 -0.001078 0.000000 0.000000 0.000000
# 3 -0.005219 -0.001078 0.017943 0.000000 0.000000 0.000000
# 4 0.000000 0.000000 0.000000 0.060712 0.000000 0.000000
# 5 0.000000 0.000000 0.000000 0.000000 0.059982 0.000000
# 6 0.000000 0.000000 0.000000 0.000000 0.000000 0.045300
#
#
# Mechanical properties :
#
#
# Convention : Reuss Voigt Hill
#
# Bulk Modulus (GPa) = 56.54323 66.95321 61.74822
# Shear Modulus (GPa) = 21.48593 24.69423 23.09008
#
# Velocity S-wave (km/s) = 3.31669 3.55570 3.43827
# Velocity P-wave (km/s) = 6.60427 7.15096 6.88305
#
# Compressibility (1/GPa) = 0.01768558
#
# Stress axis : x y z
#
# Youngs Moduli (GPa) = 81.55790 110.50453 55.73197
#
# Poissons Ratio (x) = 0.49579 0.29088
# Poissons Ratio (y) = 0.36592 0.06009
# Poissons Ratio (z) = 0.42567 0.11914
#
# Static dielectric constant tensor:
#      x y z
#    x 3.418590 0.000000 0.000000 
#    y 0.000000 4.135320 0.000000 
#    z 0.000000 0.000000 3.511880 
# 
# 
# High freq. dielectric constant tensor:
#      x y z
#    x 1.738680 0.000000 0.000000 
#    y 0.000000 1.769230 0.000000 
#    z 0.000000 0.000000 1.763550 
# 
# From -- ./inp_files/38559.got.cif
#   From: 2010.03.12/outbox.cif.g09.slc.cpg/sg63_20_cif.got.tgz:38559.got - 2010.04.10 19:34:48.
