data_PCOD8258957
_publ_section_title
;
Structure prediction by ZEFSAII (Michael W. Deem and Ramdas Pophale) SiO2 
 PCOD8258957
Probable space group: C M C M
;
_chemical_formula_sum "Si O2"
_cell_formula_units_Z 64
_cell_length_a 9.224283
_cell_length_b 37.755072
_cell_length_c 10.237214
_cell_angle_alpha 90.000000
_cell_angle_beta 90.000000
_cell_angle_gamma 90.000000
_cell_volume 3565.247659
_symmetry_space_group_name_H-M "C M C M"
_symmetry_group_IT_number 63
_symmetry_cell_setting 'orthorhombic'
loop_
_space_group_symop_operation_xyz
x,y,z
-x,-y,1/2+z
x,-y,-z
-x,y,1/2-z
-x,-y,-z
x,y,1/2-z
-x,y,z
x,-y,1/2+z
1/2+x,1/2+y,z
1/2-x,1/2-y,1/2+z
1/2+x,1/2-y,-z
1/2-x,1/2+y,1/2-z
1/2-x,1/2-y,-z
1/2+x,1/2+y,1/2-z
1/2-x,1/2+y,z
1/2+x,1/2-y,1/2+z
loop_
_atom_site_type_symbol
_atom_site_label
_atom_site_fract_x
_atom_site_fract_y
_atom_site_fract_z
Si Si1 0.170333 0.784054 0.750000
Si Si2 0.831212 0.398163 0.901214
Si Si3 0.169580 0.168465 0.491507
Si Si4 0.832033 0.210457 0.750000
Si Si5 0.668196 0.530517 0.399591
O O1 0.221339 0.805694 0.623638
O O2 0.243714 0.746265 0.750000
O O3 0.000000 0.777657 0.750000
O O4 0.801835 0.389422 0.750000
O O5 0.761567 0.435537 0.938948
O O6 0.000000 0.399788 0.934435
O O7 0.757108 0.368014 0.987798
O O8 0.210212 0.187382 0.625436
O O9 0.000000 0.159605 0.479355
O O10 0.000000 0.220783 0.750000
O O11 0.715012 0.500000 0.500000
O O12 0.700433 0.518584 0.250000
O O13 0.500000 0.540300 0.416661
#
# Coordination Sequence:
#
# PCOD8258957 Si02
#       5
#     8  16  16   8  16
#     4  10  20  34  56  78 101 138 179 216 260 315
#     4  10  20  34  55  81 106 138 179 220 260 305
#     4  10  20  36  55  77 105 139 178 217 260 312
#     4  10  22  36  52  78 109 138 171 218 270 313
#     4   9  18  34  56  80 106 138 175 213 255 307
#
# _framework density 17.951066999999998
#
# number of rings (size 3 to 8) (size 9 to 14) (size 15 to 20)
#    0.000    2.250    1.250    1.500    0.000    3.500 
#    2.250    0.000    0.000    0.000    0.000    0.000 
#    0.000    0.000    0.000    0.000    0.000    0.000 
#
# Total GULP energy -396930.210991 kJ/mol
# GULP energy per Si atom -12404.069093 kJ/mol
# Density = 1.791021 g / cm^3
# Si number density = 17.951067 Si / 1000 Ang^3
#
#
#
# Elastic Constant Matrix: (Units=GPa)
#
#
# Indices 1 2 3 4 5 6 
#
# 1 72.2893 77.2837 44.9042 0.0000 0.0000 0.0000
# 2 77.2837 164.7266 83.7621 0.0000 0.0000 0.0000
# 3 44.9042 83.7621 128.7478 0.0000 0.0000 0.0000
# 4 0.0000 0.0000 0.0000 24.6380 0.0000 0.0000
# 5 0.0000 0.0000 0.0000 0.0000 6.6674 0.0000
# 6 0.0000 0.0000 0.0000 0.0000 0.0000 38.6584
#
#
#
# Elastic Compliance Matrix: (Units=1/GPa)
#
#
# Indices 1 2 3 4 5 6 
#
# 1 0.028038 -0.012227 -0.001824 0.000000 0.000000 0.000000
# 2 -0.012227 0.014404 -0.005106 0.000000 0.000000 0.000000
# 3 -0.001824 -0.005106 0.011726 0.000000 0.000000 0.000000
# 4 0.000000 0.000000 0.000000 0.040588 0.000000 0.000000
# 5 0.000000 0.000000 0.000000 0.000000 0.149984 0.000000
# 6 0.000000 0.000000 0.000000 0.000000 0.000000 0.025868
#
#
# Mechanical properties :
#
#
# Convention : Reuss Voigt Hill
#
# Bulk Modulus (GPa) = 63.08311 86.40708 74.74510
# Shear Modulus (GPa) = 15.91312 24.64699 20.28006
#
# Velocity S-wave (km/s) = 2.98060 3.70943 3.36481
# Velocity P-wave (km/s) = 6.86027 8.16001 7.53821
#
# Compressibility (1/GPa) = 0.01585210
#
# Stress axis : x y z
#
# Youngs Moduli (GPa) = 35.66584 69.42724 85.28319
#
# Poissons Ratio (x) = 0.84887 0.15559
# Poissons Ratio (y) = 0.43608 0.43549
# Poissons Ratio (z) = 0.06507 0.35453
#
# Static dielectric constant tensor:
#      x y z
#    x 3.257840 0.000000 0.000000 
#    y 0.000000 3.240380 0.000000 
#    z 0.000000 0.000000 3.356490 
# 
# 
# High freq. dielectric constant tensor:
#      x y z
#    x 1.691840 0.000000 0.000000 
#    y 0.000000 1.700780 0.000000 
#    z 0.000000 0.000000 1.692290 
# 
# From -- ./inp_files/16250.got.cif
#   From: 2010.03.12/outbox.cif.g09.slc.cpg/sg63_9_cif.got.tgz:16250.got - 2010.04.10 19:34:48.
