data_PCOD8258503
_publ_section_title
;
Structure prediction by ZEFSAII (Michael W. Deem and Ramdas Pophale) SiO2 
 PCOD8258503
Probable space group: C M C M
;
_chemical_formula_sum "Si O2"
_cell_formula_units_Z 80
_cell_length_a 9.175326
_cell_length_b 26.747618
_cell_length_c 18.130078
_cell_angle_alpha 90.000000
_cell_angle_beta 90.000000
_cell_angle_gamma 90.000000
_cell_volume 4449.449565
_symmetry_space_group_name_H-M "C M C M"
_symmetry_group_IT_number 63
_symmetry_cell_setting 'orthorhombic'
loop_
_space_group_symop_operation_xyz
x,y,z
-x,-y,1/2+z
x,-y,-z
-x,y,1/2-z
-x,-y,-z
x,y,1/2-z
-x,y,z
x,-y,1/2+z
1/2+x,1/2+y,z
1/2-x,1/2-y,1/2+z
1/2+x,1/2-y,-z
1/2-x,1/2+y,1/2-z
1/2-x,1/2-y,-z
1/2+x,1/2+y,1/2-z
1/2-x,1/2+y,z
1/2+x,1/2-y,1/2+z
loop_
_atom_site_type_symbol
_atom_site_label
_atom_site_fract_x
_atom_site_fract_y
_atom_site_fract_z
Si Si1 0.167937 0.159039 0.834260
Si Si2 0.671153 0.548910 0.334574
Si Si3 0.668107 0.555068 0.906513
Si Si4 0.670018 0.796627 0.465238
Si Si5 0.670074 0.901299 0.960681
O O1 0.210179 0.169092 0.750000
O O2 0.198201 0.101116 0.851901
O O3 0.268618 0.194665 0.883342
O O4 0.000000 0.172469 0.849986
O O5 0.719650 0.554212 0.250000
O O6 0.500000 0.557948 0.343778
O O7 0.716700 0.494133 0.362915
O O8 0.756967 0.590605 0.381093
O O9 0.500000 0.552491 0.930661
O O10 0.761078 0.560024 0.980973
O O11 0.500000 0.785138 0.459501
O O12 0.750000 0.750000 0.500000
O O13 0.703236 0.844657 0.515653
O O14 0.500000 0.912372 0.955895
#
# Coordination Sequence:
#
# PCOD8258503 Si02
#       5
#    16  16  16  16  16
#     4   9  17  31  53  80 107 133 163 204 254 302
#     4  10  20  33  50  74 104 138 175 209 240 283
#     4   9  17  31  52  76 103 136 171 205 242 289
#     4  10  21  37  56  76  99 130 169 212 257 306
#     4  10  21  35  51  74 102 131 166 208 253 301
#
# _framework density 17.979751
#
# number of rings (size 3 to 8) (size 9 to 14) (size 15 to 20)
#    0.000    2.400    0.000    2.400    0.000    8.800 
#    0.000    1.000    0.000    4.800    0.000    0.000 
#    0.000    0.000    0.000    0.000    0.000    0.000 
#
# Total GULP energy -496155.075578 kJ/mol
# GULP energy per Si atom -12403.876889 kJ/mol
# Density = 1.793883 g / cm^3
# Si number density = 17.979751 Si / 1000 Ang^3
#
#
#
# Elastic Constant Matrix: (Units=GPa)
#
#
# Indices 1 2 3 4 5 6 
#
# 1 89.2000 55.4426 77.2390 0.0000 0.0000 0.0000
# 2 55.4426 79.0330 67.4649 0.0000 0.0000 0.0000
# 3 77.2390 67.4649 162.2766 0.0000 0.0000 0.0000
# 4 0.0000 0.0000 0.0000 24.4175 0.0000 0.0000
# 5 0.0000 0.0000 0.0000 0.0000 28.6230 0.0000
# 6 0.0000 0.0000 0.0000 0.0000 0.0000 28.8077
#
#
#
# Elastic Compliance Matrix: (Units=1/GPa)
#
#
# Indices 1 2 3 4 5 6 
#
# 1 0.023946 -0.010958 -0.006842 0.000000 0.000000 0.000000
# 2 -0.010958 0.024628 -0.005023 0.000000 0.000000 0.000000
# 3 -0.006842 -0.005023 0.011507 0.000000 0.000000 0.000000
# 4 0.000000 0.000000 0.000000 0.040954 0.000000 0.000000
# 5 0.000000 0.000000 0.000000 0.000000 0.034937 0.000000
# 6 0.000000 0.000000 0.000000 0.000000 0.000000 0.034713
#
#
# Mechanical properties :
#
#
# Convention : Reuss Voigt Hill
#
# Bulk Modulus (GPa) = 69.27543 81.20028 75.23786
# Shear Modulus (GPa) = 22.60968 25.06052 23.83510
#
# Velocity S-wave (km/s) = 3.54998 3.73744 3.64492
# Velocity P-wave (km/s) = 7.44423 7.99279 7.72338
#
# Compressibility (1/GPa) = 0.01443513
#
# Stress axis : x y z
#
# Youngs Moduli (GPa) = 41.75989 40.60410 86.90142
#
# Poissons Ratio (x) = 0.44494 0.59459
# Poissons Ratio (y) = 0.45761 0.43652
# Poissons Ratio (z) = 0.28573 0.20396
#
# Static dielectric constant tensor:
#      x y z
#    x 3.320840 0.000000 0.000000 
#    y 0.000000 3.227600 0.000000 
#    z 0.000000 0.000000 3.444520 
# 
# 
# High freq. dielectric constant tensor:
#      x y z
#    x 1.695410 0.000000 0.000000 
#    y 0.000000 1.683950 0.000000 
#    z 0.000000 0.000000 1.699660 
# 
# From -- ./inp_files/40414.got.cif
#   From: 2010.03.12/outbox.cif.g09.slc.cpg/sg63_21_cif.got.tgz:40414.got - 2010.04.10 19:34:48.
