data_PCOD8258082
_publ_section_title
;
Structure prediction by ZEFSAII (Michael W. Deem and Ramdas Pophale) SiO2 
 PCOD8258082
Probable space group: C M C M
;
_chemical_formula_sum "Si O2"
_cell_formula_units_Z 88
_cell_length_a 10.399724
_cell_length_b 13.926755
_cell_length_c 33.116141
_cell_angle_alpha 90.000000
_cell_angle_beta 90.000000
_cell_angle_gamma 90.000000
_cell_volume 4796.356684
_symmetry_space_group_name_H-M "C M C M"
_symmetry_group_IT_number 63
_symmetry_cell_setting 'orthorhombic'
loop_
_space_group_symop_operation_xyz
x,y,z
-x,-y,1/2+z
x,-y,-z
-x,y,1/2-z
-x,-y,-z
x,y,1/2-z
-x,y,z
x,-y,1/2+z
1/2+x,1/2+y,z
1/2-x,1/2-y,1/2+z
1/2+x,1/2-y,-z
1/2-x,1/2+y,1/2-z
1/2-x,1/2-y,-z
1/2+x,1/2+y,1/2-z
1/2-x,1/2+y,z
1/2+x,1/2-y,1/2+z
loop_
_atom_site_type_symbol
_atom_site_label
_atom_site_fract_x
_atom_site_fract_y
_atom_site_fract_z
Si Si1 0.353035 0.418984 0.402072
Si Si2 0.773300 0.386699 0.897143
Si Si3 0.757787 0.716971 0.659896
Si Si4 0.500000 0.152204 0.703010
Si Si5 0.500000 0.957271 0.656279
Si Si6 0.146194 0.243675 0.535043
Si Si7 0.000000 0.273159 0.703063
O O1 0.500000 0.406215 0.387758
O O2 0.326974 0.531386 0.411217
O O3 0.258463 0.378553 0.367295
O O4 0.330563 0.357297 0.442531
O O5 0.707354 0.307317 0.868570
O O6 0.878743 0.442781 0.871935
O O7 0.835620 0.334133 0.935394
O O8 0.625399 0.727280 0.683549
O O9 0.872076 0.711308 0.692272
O O10 0.500000 0.126114 0.750000
O O11 0.500000 0.061192 0.674678
O O12 0.500000 0.886278 0.694511
O O13 0.250000 0.250000 0.500000
O O14 0.000000 0.247992 0.517883
O O15 0.000000 0.251324 0.750000
#
# Coordination Sequence:
#
# PCOD8258082 Si02
#       7
#    16  16  16   8   8  16   8
#     4  10  20  38  62  84 112 156 201 235 282 351
#     4  10  20  38  62  83 111 155 198 238 278 350
#     4  10  21  36  58  82 115 151 194 237 286 347
#     4  12  23  36  55  91 126 146 184 258 308 336
#     4  10  19  36  60  80 109 150 201 235 282 349
#     4  10  22  41  60  88 123 153 190 242 298 349
#     4  10  19  36  57  78 106 156 195 229 286 348
#
# _framework density 18.347258
#
# number of rings (size 3 to 8) (size 9 to 14) (size 15 to 20)
#    0.000    1.818    3.636    0.818    1.273    1.455 
#    6.545    2.727    0.000    1.091    0.000    0.000 
#    0.000    0.000    0.000    0.000    0.000    0.000 
#
# Total GULP energy -545507.469959 kJ/mol
# GULP energy per Si atom -12397.897045 kJ/mol
# Density = 1.830550 g / cm^3
# Si number density = 18.347258 Si / 1000 Ang^3
#
#
#
# Elastic Constant Matrix: (Units=GPa)
#
#
# Indices 1 2 3 4 5 6 
#
# 1 108.7224 39.5937 50.7973 0.0000 0.0000 0.0000
# 2 39.5937 114.2215 42.1699 0.0000 0.0000 0.0000
# 3 50.7973 42.1699 100.9067 0.0000 0.0000 0.0000
# 4 0.0000 0.0000 0.0000 19.8962 0.0000 0.0000
# 5 0.0000 0.0000 0.0000 0.0000 42.2914 0.0000
# 6 0.0000 0.0000 0.0000 0.0000 0.0000 27.9632
#
#
#
# Elastic Compliance Matrix: (Units=1/GPa)
#
#
# Indices 1 2 3 4 5 6 
#
# 1 0.012553 -0.002387 -0.005322 0.000000 0.000000 0.000000
# 2 -0.002387 0.010806 -0.003314 0.000000 0.000000 0.000000
# 3 -0.005322 -0.003314 0.013974 0.000000 0.000000 0.000000
# 4 0.000000 0.000000 0.000000 0.050261 0.000000 0.000000
# 5 0.000000 0.000000 0.000000 0.000000 0.023645 0.000000
# 6 0.000000 0.000000 0.000000 0.000000 0.000000 0.035761
#
#
# Mechanical properties :
#
#
# Convention : Reuss Voigt Hill
#
# Bulk Modulus (GPa) = 65.41309 65.44136 65.42723
# Shear Modulus (GPa) = 28.71192 30.78281 29.74737
#
# Velocity S-wave (km/s) = 3.96019 4.10052 4.03097
# Velocity P-wave (km/s) = 7.52602 7.62658 7.57647
#
# Compressibility (1/GPa) = 0.01528746
#
# Stress axis : x y z
#
# Youngs Moduli (GPa) = 79.65912 92.54212 71.55901
#
# Poissons Ratio (x) = 0.22086 0.38085
# Poissons Ratio (y) = 0.19012 0.23718
# Poissons Ratio (z) = 0.42396 0.30672
#
# Static dielectric constant tensor:
#      x y z
#    x 3.380670 0.000000 0.000000 
#    y 0.000000 3.440310 0.000000 
#    z 0.000000 0.000000 3.310770 
# 
# 
# High freq. dielectric constant tensor:
#      x y z
#    x 1.716010 0.000000 0.000000 
#    y 0.000000 1.716320 0.000000 
#    z 0.000000 0.000000 1.701260 
# 
# From -- ./inp_files/72751.got.cif
#   From: 2010.03.12/outbox.cif.g09.slc.cpg/sg63_37_cif.got.tgz:72751.got - 2010.04.10 19:34:48.
