data_PCOD8258023
_publ_section_title
;
Structure prediction by ZEFSAII (Michael W. Deem and Ramdas Pophale) SiO2 
 PCOD8258023
Probable space group: C M C M
;
_chemical_formula_sum "Si O2"
_cell_formula_units_Z 96
_cell_length_a 20.934411
_cell_length_b 12.870535
_cell_length_c 18.781126
_cell_angle_alpha 90.000000
_cell_angle_beta 90.000000
_cell_angle_gamma 90.000000
_cell_volume 5060.331551
_symmetry_space_group_name_H-M "C M C M"
_symmetry_group_IT_number 63
_symmetry_cell_setting 'orthorhombic'
loop_
_space_group_symop_operation_xyz
x,y,z
-x,-y,1/2+z
x,-y,-z
-x,y,1/2-z
-x,-y,-z
x,y,1/2-z
-x,y,z
x,-y,1/2+z
1/2+x,1/2+y,z
1/2-x,1/2-y,1/2+z
1/2+x,1/2-y,-z
1/2-x,1/2+y,1/2-z
1/2-x,1/2-y,-z
1/2+x,1/2+y,1/2-z
1/2-x,1/2+y,z
1/2+x,1/2-y,1/2+z
loop_
_atom_site_type_symbol
_atom_site_label
_atom_site_fract_x
_atom_site_fract_y
_atom_site_fract_z
Si Si1 0.856112 0.575679 0.830948
Si Si2 0.427052 0.868455 0.667890
Si Si3 0.844796 0.259413 0.947881
Si Si4 0.425644 0.605130 0.031710
Si Si5 0.235522 0.595702 0.955208
Si Si6 0.426245 0.711388 0.170652
O O1 0.830503 0.570803 0.750000
O O2 0.910725 0.489681 0.842876
O O3 0.796935 0.554011 0.883137
O O4 0.884997 0.688053 0.848373
O O5 0.419966 0.835550 0.750000
O O6 0.500000 0.850952 0.641866
O O7 0.376667 0.798536 0.624892
O O8 0.899854 0.206207 0.993119
O O9 0.789028 0.177271 0.931220
O O10 0.817581 0.354570 0.993289
O O11 0.500000 0.602447 0.016644
O O12 0.394228 0.500000 0.000000
O O13 0.409889 0.617783 0.115978
O O14 0.265905 0.500000 0.000000
O O15 0.410617 0.670388 0.250000
O O16 0.500000 0.744183 0.163930
#
# Coordination Sequence:
#
# PCOD8258023 Si02
#       6
#    16  16  16  16  16  16
#     4  10  19  35  58  86 119 149 188 239 300 360
#     4  10  21  38  61  90 123 155 191 244 306 362
#     4  11  22  37  58  79 115 155 197 238 293 348
#     4  10  20  35  55  80 110 146 192 244 294 344
#     4  11  22  38  57  83 115 155 199 244 284 343
#     4   9  17  31  53  81 112 144 182 235 297 356
#
# _framework density 18.971088999999999
#
# number of rings (size 3 to 8) (size 9 to 14) (size 15 to 20)
#    0.000    1.833    3.333    1.500    0.000    2.667 
#    0.000    1.667    0.000    6.000    0.000    0.000 
#    0.000    0.000    0.000    0.000    0.000    0.000 
#
# Total GULP energy -595142.429231 kJ/mol
# GULP energy per Si atom -12398.800609 kJ/mol
# Density = 1.892791 g / cm^3
# Si number density = 18.971089 Si / 1000 Ang^3
#
#
#
# Elastic Constant Matrix: (Units=GPa)
#
#
# Indices 1 2 3 4 5 6 
#
# 1 72.6179 36.4764 62.4375 0.0000 0.0000 0.0000
# 2 36.4764 87.4916 51.9183 0.0000 0.0000 0.0000
# 3 62.4375 51.9183 119.3575 0.0000 0.0000 0.0000
# 4 0.0000 0.0000 0.0000 34.6895 0.0000 0.0000
# 5 0.0000 0.0000 0.0000 0.0000 26.3140 0.0000
# 6 0.0000 0.0000 0.0000 0.0000 0.0000 26.9924
#
#
#
# Elastic Compliance Matrix: (Units=1/GPa)
#
#
# Indices 1 2 3 4 5 6 
#
# 1 0.025894 -0.003717 -0.011929 0.000000 0.000000 0.000000
# 2 -0.003717 0.015940 -0.004989 0.000000 0.000000 0.000000
# 3 -0.011929 -0.004989 0.016789 0.000000 0.000000 0.000000
# 4 0.000000 0.000000 0.000000 0.028827 0.000000 0.000000
# 5 0.000000 0.000000 0.000000 0.000000 0.038003 0.000000
# 6 0.000000 0.000000 0.000000 0.000000 0.000000 0.037047
#
#
# Mechanical properties :
#
#
# Convention : Reuss Voigt Hill
#
# Bulk Modulus (GPa) = 57.62769 64.57015 61.09892
# Shear Modulus (GPa) = 23.86018 26.17484 25.01751
#
# Velocity S-wave (km/s) = 3.55027 3.71849 3.63535
# Velocity P-wave (km/s) = 6.87375 7.24888 7.06380
#
# Compressibility (1/GPa) = 0.01735277
#
# Stress axis : x y z
#
# Youngs Moduli (GPa) = 38.61856 62.73545 59.56451
#
# Poissons Ratio (x) = 0.23319 0.71053
# Poissons Ratio (y) = 0.14355 0.29718
# Poissons Ratio (z) = 0.46067 0.31300
#
# Static dielectric constant tensor:
#      x y z
#    x 3.346190 0.000000 0.000000 
#    y 0.000000 3.542460 0.000000 
#    z 0.000000 0.000000 3.649590 
# 
# 
# High freq. dielectric constant tensor:
#      x y z
#    x 1.732920 0.000000 0.000000 
#    y 0.000000 1.731010 0.000000 
#    z 0.000000 0.000000 1.741680 
# 
# From -- ./inp_files/35334.got.cif
#   From: 2010.03.12/outbox.cif.g09.slc.cpg/sg63_18_cif.got.tgz:35334.got - 2010.04.10 19:34:48.
