data_PCOD8258293
_publ_section_title
;
Structure prediction by ZEFSAII (Michael W. Deem and Ramdas Pophale) SiO2 
 PCOD8258293
Probable space group: C M C M
;
_chemical_formula_sum "Si O2"
_cell_formula_units_Z 80
_cell_length_a 18.654024
_cell_length_b 29.493365
_cell_length_c 9.864606
_cell_angle_alpha 90.000000
_cell_angle_beta 90.000000
_cell_angle_gamma 90.000000
_cell_volume 5427.209677
_symmetry_space_group_name_H-M "C M C M"
_symmetry_group_IT_number 63
_symmetry_cell_setting 'orthorhombic'
loop_
_space_group_symop_operation_xyz
x,y,z
-x,-y,1/2+z
x,-y,-z
-x,y,1/2-z
-x,-y,-z
x,y,1/2-z
-x,y,z
x,-y,1/2+z
1/2+x,1/2+y,z
1/2-x,1/2-y,1/2+z
1/2+x,1/2-y,-z
1/2-x,1/2+y,1/2-z
1/2-x,1/2-y,-z
1/2+x,1/2+y,1/2-z
1/2-x,1/2+y,z
1/2+x,1/2-y,1/2+z
loop_
_atom_site_type_symbol
_atom_site_label
_atom_site_fract_x
_atom_site_fract_y
_atom_site_fract_z
Si Si1 0.369910 0.392342 0.002786
Si Si2 0.656667 0.775277 0.098026
Si Si3 0.500000 0.751970 0.097909
Si Si4 0.000000 0.831993 0.413102
Si Si5 0.914917 0.946623 0.250000
Si Si6 0.582162 0.446182 0.750000
Si Si7 0.767637 0.818331 0.591466
O O1 0.380160 0.425032 0.877645
O O2 0.297474 0.363859 0.979334
O O3 0.431612 0.356241 0.025753
O O4 0.369563 0.426992 0.126496
O O5 0.682306 0.788972 0.250000
O O6 0.571289 0.782520 0.083623
O O7 0.675583 0.722426 0.072410
O O8 0.694245 0.806612 0.986230
O O9 0.500000 0.729074 0.250000
O O10 0.500000 0.717967 0.972828
O O11 0.000000 0.830506 0.250000
O O12 0.000000 0.931375 0.250000
O O13 0.909453 0.000152 0.250000
O O14 0.500000 0.431856 0.750000
O O15 0.751506 0.826936 0.750000
#
# Coordination Sequence:
#
# PCOD8258293 Si02
#       7
#    16  16   8   8   8   8  16
#     4  12  20  33  48  67  91 126 165 204 234 280
#     4   9  19  32  48  69  94 121 154 197 235 272
#     4  10  20  34  52  69  95 125 162 198 238 281
#     4  12  22  30  43  72  93 125 168 203 237 276
#     4  11  22  36  44  69  96 121 161 208 247 281
#     4  11  22  32  52  65  90 127 163 202 247 279
#     4  10  20  32  47  68  92 124 161 193 233 278
#
# _framework density 14.740539999999999
#
# number of rings (size 3 to 8) (size 9 to 14) (size 15 to 20)
#    0.000    1.400    6.000    0.600    2.800    2.400 
#    0.000    0.000    0.000    0.000    0.000    0.000 
#    0.000    0.000    0.000    5.400    0.000    0.100 
#
# Total GULP energy -495815.354152 kJ/mol
# GULP energy per Si atom -12395.383854 kJ/mol
# Density = 1.470699 g / cm^3
# Si number density = 14.740540 Si / 1000 Ang^3
#
#
#
# Elastic Constant Matrix: (Units=GPa)
#
#
# Indices 1 2 3 4 5 6 
#
# 1 81.7791 34.2920 43.6158 0.0000 0.0000 0.0000
# 2 34.2920 65.7364 48.5525 0.0000 0.0000 0.0000
# 3 43.6158 48.5525 119.5279 0.0000 0.0000 0.0000
# 4 0.0000 0.0000 0.0000 31.5030 0.0000 0.0000
# 5 0.0000 0.0000 0.0000 0.0000 21.4198 0.0000
# 6 0.0000 0.0000 0.0000 0.0000 0.0000 24.9547
#
#
#
# Elastic Compliance Matrix: (Units=1/GPa)
#
#
# Indices 1 2 3 4 5 6 
#
# 1 0.016696 -0.006014 -0.003650 0.000000 0.000000 0.000000
# 2 -0.006014 0.023899 -0.007513 0.000000 0.000000 0.000000
# 3 -0.003650 -0.007513 0.012750 0.000000 0.000000 0.000000
# 4 0.000000 0.000000 0.000000 0.031743 0.000000 0.000000
# 5 0.000000 0.000000 0.000000 0.000000 0.046686 0.000000
# 6 0.000000 0.000000 0.000000 0.000000 0.000000 0.040073
#
#
# Mechanical properties :
#
#
# Convention : Reuss Voigt Hill
#
# Bulk Modulus (GPa) = 52.65613 57.77378 55.21496
# Shear Modulus (GPa) = 23.52599 24.94770 24.23685
#
# Velocity S-wave (km/s) = 3.99934 4.11841 4.05931
# Velocity P-wave (km/s) = 7.55816 7.86727 7.71426
#
# Compressibility (1/GPa) = 0.01899114
#
# Stress axis : x y z
#
# Youngs Moduli (GPa) = 59.89298 41.84302 78.43258
#
# Poissons Ratio (x) = 0.25166 0.28624
# Poissons Ratio (y) = 0.36022 0.58927
# Poissons Ratio (z) = 0.21858 0.31437
#
# Static dielectric constant tensor:
#      x y z
#    x 2.709520 0.000000 0.000000 
#    y 0.000000 2.685300 0.000000 
#    z 0.000000 0.000000 3.082780 
# 
# 
# High freq. dielectric constant tensor:
#      x y z
#    x 1.535830 0.000000 0.000000 
#    y 0.000000 1.537790 0.000000 
#    z 0.000000 0.000000 1.586320 
# 
# From -- ./inp_files/6755.got.cif
#   From: 2010.03.12/outbox.cif.g09.slc.cpg/sg63_4_cif.got.tgz:6755.got - 2010.04.10 19:34:48.
