data_PCOD8258168
_publ_section_title
;
Structure prediction by ZEFSAII (Michael W. Deem and Ramdas Pophale) SiO2 
 PCOD8258168
Probable space group: C M C M
;
_chemical_formula_sum "Si O2"
_cell_formula_units_Z 96
_cell_length_a 29.154168
_cell_length_b 10.850553
_cell_length_c 15.104198
_cell_angle_alpha 90.000000
_cell_angle_beta 90.000000
_cell_angle_gamma 90.000000
_cell_volume 4778.044551
_symmetry_space_group_name_H-M "C M C M"
_symmetry_group_IT_number 63
_symmetry_cell_setting 'orthorhombic'
loop_
_space_group_symop_operation_xyz
x,y,z
-x,-y,1/2+z
x,-y,-z
-x,y,1/2-z
-x,-y,-z
x,y,1/2-z
-x,y,z
x,-y,1/2+z
1/2+x,1/2+y,z
1/2-x,1/2-y,1/2+z
1/2+x,1/2-y,-z
1/2-x,1/2+y,1/2-z
1/2-x,1/2-y,-z
1/2+x,1/2+y,1/2-z
1/2-x,1/2+y,z
1/2+x,1/2-y,1/2+z
loop_
_atom_site_type_symbol
_atom_site_label
_atom_site_fract_x
_atom_site_fract_y
_atom_site_fract_z
Si Si1 0.389570 0.483737 0.398565
Si Si2 0.554569 0.642347 0.750000
Si Si3 0.445772 0.084092 0.250000
Si Si4 0.448497 0.074710 0.911225
Si Si5 0.123520 0.253689 0.150669
Si Si6 0.710838 0.557762 0.644100
Si Si7 0.224773 0.220961 0.354969
O O1 0.406088 0.500000 0.500000
O O2 0.427296 0.410857 0.342618
O O3 0.385678 0.610004 0.346108
O O4 0.339562 0.419552 0.396526
O O5 0.500000 0.630453 0.750000
O O6 0.574309 0.780086 0.750000
O O7 0.500000 0.091724 0.250000
O O8 0.428315 0.014625 0.163341
O O9 0.500000 0.123165 0.889096
O O10 0.413087 0.187440 0.917130
O O11 0.449124 0.000000 0.000000
O O12 0.116482 0.306361 0.250000
O O13 0.175189 0.274298 0.116149
O O14 0.708362 0.559085 0.750000
O O15 0.739525 0.676568 0.607630
O O16 0.731152 0.422687 0.612119
O O17 0.228107 0.218197 0.250000
#
# Coordination Sequence:
#
# PCOD8258168 Si02
#       7
#    16   8   8  16  16  16  16
#     4  11  23  40  61  88 121 158 197 248 302 352
#     4  11  24  43  61  84 120 158 198 247 300 358
#     4   9  20  39  57  78 114 150 184 241 295 340
#     4  10  21  37  58  85 116 152 193 241 300 355
#     4  10  19  38  59  84 118 154 201 253 288 343
#     4   9  16  36  57  83 118 155 197 243 296 355
#     4   8  16  30  55  81 114 152 194 242 291 343
#
# _framework density 20.091901
#
# number of rings (size 3 to 8) (size 9 to 14) (size 15 to 20)
#    0.000    2.333    2.500    1.000    2.333    1.000 
#    3.000    4.167    0.000    0.000    0.000    0.000 
#    0.000    0.000    0.000    0.000    0.000    0.000 
#
# Total GULP energy -594828.709272 kJ/mol
# GULP energy per Si atom -12392.264777 kJ/mol
# Density = 2.004617 g / cm^3
# Si number density = 20.091901 Si / 1000 Ang^3
#
#
#
# Elastic Constant Matrix: (Units=GPa)
#
#
# Indices 1 2 3 4 5 6 
#
# 1 101.1304 58.2702 18.9348 0.0000 0.0000 0.0000
# 2 58.2702 79.9683 10.2988 0.0000 0.0000 0.0000
# 3 18.9348 10.2988 71.0132 0.0000 0.0000 0.0000
# 4 0.0000 0.0000 0.0000 11.2036 0.0000 0.0000
# 5 0.0000 0.0000 0.0000 0.0000 12.4882 0.0000
# 6 0.0000 0.0000 0.0000 0.0000 0.0000 32.1981
#
#
#
# Elastic Compliance Matrix: (Units=1/GPa)
#
#
# Indices 1 2 3 4 5 6 
#
# 1 0.017607 -0.012458 -0.002888 0.000000 0.000000 0.000000
# 2 -0.012458 0.021557 0.000195 0.000000 0.000000 0.000000
# 3 -0.002888 0.000195 0.014824 0.000000 0.000000 0.000000
# 4 0.000000 0.000000 0.000000 0.089257 0.000000 0.000000
# 5 0.000000 0.000000 0.000000 0.000000 0.080076 0.000000
# 6 0.000000 0.000000 0.000000 0.000000 0.000000 0.031058
#
#
# Mechanical properties :
#
#
# Convention : Reuss Voigt Hill
#
# Bulk Modulus (GPa) = 42.21698 47.45773 44.83736
# Shear Modulus (GPa) = 17.08967 22.15185 19.62076
#
# Velocity S-wave (km/s) = 2.91963 3.32403 3.12837
# Velocity P-wave (km/s) = 5.69414 6.19709 5.95093
#
# Compressibility (1/GPa) = 0.02368715
#
# Stress axis : x y z
#
# Youngs Moduli (GPa) = 56.79597 46.38810 67.46000
#
# Poissons Ratio (x) = 0.57789 0.19482
# Poissons Ratio (y) = 0.70754 -0.01317
# Poissons Ratio (z) = 0.16402 -0.00906
#
# Static dielectric constant tensor:
#      x y z
#    x 3.747190 0.000000 0.000000 
#    y 0.000000 3.887260 0.000000 
#    z 0.000000 0.000000 3.505270 
# 
# 
# High freq. dielectric constant tensor:
#      x y z
#    x 1.773360 0.000000 0.000000 
#    y 0.000000 1.784250 0.000000 
#    z 0.000000 0.000000 1.773560 
# 
# From -- ./inp_files/38461.got.cif
#   From: 2010.03.12/outbox.cif.g09.slc.cpg/sg63_20_cif.got.tgz:38461.got - 2010.04.10 19:34:48.
