data_PCOD8258500
_publ_section_title
;
Structure prediction by ZEFSAII (Michael W. Deem and Ramdas Pophale) SiO2 
 PCOD8258500
Probable space group: C M C M
;
_chemical_formula_sum "Si O2"
_cell_formula_units_Z 104
_cell_length_a 9.243195
_cell_length_b 25.530444
_cell_length_c 24.748497
_cell_angle_alpha 90.000000
_cell_angle_beta 90.000000
_cell_angle_gamma 90.000000
_cell_volume 5840.221408
_symmetry_space_group_name_H-M "C M C M"
_symmetry_group_IT_number 63
_symmetry_cell_setting 'orthorhombic'
loop_
_space_group_symop_operation_xyz
x,y,z
-x,-y,1/2+z
x,-y,-z
-x,y,1/2-z
-x,-y,-z
x,y,1/2-z
-x,y,z
x,-y,1/2+z
1/2+x,1/2+y,z
1/2-x,1/2-y,1/2+z
1/2+x,1/2-y,-z
1/2-x,1/2+y,1/2-z
1/2-x,1/2-y,-z
1/2+x,1/2+y,1/2-z
1/2-x,1/2+y,z
1/2+x,1/2-y,1/2+z
loop_
_atom_site_type_symbol
_atom_site_label
_atom_site_fract_x
_atom_site_fract_y
_atom_site_fract_z
Si Si1 0.328002 0.610805 0.386011
Si Si2 0.833582 0.307872 0.813635
Si Si3 0.667463 0.795828 0.187449
Si Si4 0.329803 0.891023 0.112885
Si Si5 0.658825 0.507486 0.885176
Si Si6 0.840030 0.611369 0.008072
Si Si7 0.750349 0.500000 0.000000
O O1 0.500000 0.618013 0.386507
O O2 0.255560 0.645605 0.340339
O O3 0.284392 0.550939 0.370580
O O4 0.269401 0.629646 0.444862
O O5 0.819325 0.315635 0.750000
O O6 0.763910 0.252914 0.831465
O O7 0.000000 0.309109 0.832599
O O8 0.692989 0.809273 0.250000
O O9 0.500000 0.782411 0.175873
O O10 0.720147 0.845634 0.153310
O O11 0.500000 0.900006 0.113779
O O12 0.262642 0.945733 0.134534
O O13 0.281341 0.873935 0.052077
O O14 0.500000 0.516618 0.859979
O O15 0.644912 0.510324 0.949852
O O16 0.855676 0.548710 0.010450
O O17 0.000000 0.635605 0.018161
#
# Coordination Sequence:
#
# PCOD8258500 Si02
#       7
#    16  16  16  16  16  16   8
#     4  10  20  33  50  74 103 135 169 202 243 295
#     4  10  21  37  57  78  96 120 161 210 254 295
#     4   9  18  35  57  76  96 126 164 205 248 296
#     4   9  18  31  49  75 104 134 167 202 246 297
#     4   9  17  28  45  70 100 133 166 202 242 286
#     4   9  16  27  45  70 101 133 165 203 244 288
#     4   8  14  24  42  66  94 130 172 206 238 286
#
# _framework density 17.807545000000001
#
# number of rings (size 3 to 8) (size 9 to 14) (size 15 to 20)
#    0.000    2.769    0.000    1.385    0.000    9.538 
#    0.000    1.538    0.000    2.769    0.000    0.000 
#    0.000    0.000    0.000    0.000    0.000    0.000 
#
# Total GULP energy -644469.208570 kJ/mol
# GULP energy per Si atom -12393.638626 kJ/mol
# Density = 1.776701 g / cm^3
# Si number density = 17.807545 Si / 1000 Ang^3
#
#
#
# Elastic Constant Matrix: (Units=GPa)
#
#
# Indices 1 2 3 4 5 6 
#
# 1 89.5087 59.4016 37.0036 0.0000 0.0000 0.0000
# 2 59.4016 122.9634 54.5619 0.0000 0.0000 0.0000
# 3 37.0036 54.5619 55.9193 0.0000 0.0000 0.0000
# 4 0.0000 0.0000 0.0000 28.0349 0.0000 0.0000
# 5 0.0000 0.0000 0.0000 0.0000 21.4873 0.0000
# 6 0.0000 0.0000 0.0000 0.0000 0.0000 29.6470
#
#
#
# Elastic Compliance Matrix: (Units=1/GPa)
#
#
# Indices 1 2 3 4 5 6 
#
# 1 0.017471 -0.005837 -0.005865 0.000000 0.000000 0.000000
# 2 -0.005837 0.016292 -0.012034 0.000000 0.000000 0.000000
# 3 -0.005865 -0.012034 0.033506 0.000000 0.000000 0.000000
# 4 0.000000 0.000000 0.000000 0.035670 0.000000 0.000000
# 5 0.000000 0.000000 0.000000 0.000000 0.046539 0.000000
# 6 0.000000 0.000000 0.000000 0.000000 0.000000 0.033730
#
#
# Mechanical properties :
#
#
# Convention : Reuss Voigt Hill
#
# Bulk Modulus (GPa) = 50.51594 63.36953 56.94273
# Shear Modulus (GPa) = 21.07216 23.66214 22.36715
#
# Velocity S-wave (km/s) = 3.44368 3.64919 3.54792
# Velocity P-wave (km/s) = 6.65141 7.30879 6.98784
#
# Compressibility (1/GPa) = 0.01979573
#
# Stress axis : x y z
#
# Youngs Moduli (GPa) = 57.23870 61.37936 29.84522
#
# Poissons Ratio (x) = 0.35828 0.17506
# Poissons Ratio (y) = 0.33411 0.35916
# Poissons Ratio (z) = 0.33573 0.73864
#
# Static dielectric constant tensor:
#      x y z
#    x 3.246590 0.000000 0.000000 
#    y 0.000000 3.254100 0.000000 
#    z 0.000000 0.000000 3.237290 
# 
# 
# High freq. dielectric constant tensor:
#      x y z
#    x 1.688900 0.000000 0.000000 
#    y 0.000000 1.676610 0.000000 
#    z 0.000000 0.000000 1.671800 
# 
# From -- ./inp_files/67391.got.cif
#   From: 2010.03.12/outbox.cif.g09.slc.cpg/sg63_34_cif.got.tgz:67391.got - 2010.04.10 19:34:48.
