data_PCOD8258074
_publ_section_title
;
Structure prediction by ZEFSAII (Michael W. Deem and Ramdas Pophale) SiO2 
 PCOD8258074
Probable space group: C M C M
;
_chemical_formula_sum "Si O2"
_cell_formula_units_Z 56
_cell_length_a 5.321413
_cell_length_b 22.356788
_cell_length_c 19.059372
_cell_angle_alpha 90.000000
_cell_angle_beta 90.000000
_cell_angle_gamma 90.000000
_cell_volume 2267.487813
_symmetry_space_group_name_H-M "C M C M"
_symmetry_group_IT_number 63
_symmetry_cell_setting 'orthorhombic'
loop_
_space_group_symop_operation_xyz
x,y,z
-x,-y,1/2+z
x,-y,-z
-x,y,1/2-z
-x,-y,-z
x,y,1/2-z
-x,y,z
x,-y,1/2+z
1/2+x,1/2+y,z
1/2-x,1/2-y,1/2+z
1/2+x,1/2-y,-z
1/2-x,1/2+y,1/2-z
1/2-x,1/2-y,-z
1/2+x,1/2+y,1/2-z
1/2-x,1/2+y,z
1/2+x,1/2-y,1/2+z
loop_
_atom_site_type_symbol
_atom_site_label
_atom_site_fract_x
_atom_site_fract_y
_atom_site_fract_z
Si Si1 0.000000 0.276032 0.750000
Si Si2 0.000000 0.927292 0.610327
Si Si3 0.000000 0.853132 0.750000
Si Si4 0.000000 0.945949 0.328802
Si Si5 0.500000 0.950571 0.559147
Si Si6 0.000000 0.571596 0.616821
Si Si7 0.000000 0.320627 0.472160
Si Si8 0.000000 0.765733 0.406977
O O1 0.749391 0.314515 0.750000
O O2 0.000000 0.238241 0.677649
O O3 0.000000 0.894602 0.683189
O O4 0.750977 0.909487 0.566007
O O5 0.000000 0.999046 0.617164
O O6 0.247953 0.905511 0.343792
O O7 0.000000 0.969639 0.250000
O O8 0.500000 0.000000 0.500000
O O9 0.500000 0.999134 0.623870
O O10 0.000000 0.605090 0.537935
O O11 0.246982 0.298479 0.431496
O O12 0.000000 0.299453 0.553242
#
# Coordination Sequence:
#
# PCOD8258074 Si02
#       8
#     4   8   4   8   8   8   8   8
#     4  12  26  44  64  99 124 151 216 278 314 366
#     4  10  21  37  58  82 119 169 203 239 299 367
#     4  12  24  40  64  91 124 167 216 246 310 386
#     4  10  19  36  53  81 124 155 188 247 292 335
#     4  10  21  37  57  87 129 162 200 257 300 335
#     4  10  21  34  58  88 115 153 207 237 280 376
#     4  10  21  43  66  89 119 167 205 241 323 392
#     4  10  23  44  67  86 125 161 196 266 325 366
#
# _framework density 24.696936000000001
#
# number of rings (size 3 to 8) (size 9 to 14) (size 15 to 20)
#    0.000    1.714    0.714    3.429    0.000    2.286 
#    7.714    0.000    0.000    0.000    0.000    0.000 
#    0.000    0.000    0.000    0.000    0.000    0.000 
#
# Total GULP energy -346897.919219 kJ/mol
# GULP energy per Si atom -12389.211401 kJ/mol
# Density = 2.464072 g / cm^3
# Si number density = 24.696936 Si / 1000 Ang^3
#
#
#
# Elastic Constant Matrix: (Units=GPa)
#
#
# Indices 1 2 3 4 5 6 
#
# 1 273.6725 22.4073 52.7204 0.0000 0.0000 0.0000
# 2 22.4073 87.6244 7.3625 0.0000 0.0000 0.0000
# 3 52.7204 7.3625 132.6847 0.0000 0.0000 0.0000
# 4 0.0000 0.0000 0.0000 47.6027 0.0000 0.0000
# 5 0.0000 0.0000 0.0000 0.0000 42.0750 0.0000
# 6 0.0000 0.0000 0.0000 0.0000 0.0000 35.3295
#
#
#
# Elastic Compliance Matrix: (Units=1/GPa)
#
#
# Indices 1 2 3 4 5 6 
#
# 1 0.004026 -0.000899 -0.001550 0.000000 0.000000 0.000000
# 2 -0.000899 0.011667 -0.000290 0.000000 0.000000 0.000000
# 3 -0.001550 -0.000290 0.008169 0.000000 0.000000 0.000000
# 4 0.000000 0.000000 0.000000 0.021007 0.000000 0.000000
# 5 0.000000 0.000000 0.000000 0.000000 0.023767 0.000000
# 6 0.000000 0.000000 0.000000 0.000000 0.000000 0.028305
#
#
# Mechanical properties :
#
#
# Convention : Reuss Voigt Hill
#
# Bulk Modulus (GPa) = 54.39806 73.21800 63.80803
# Shear Modulus (GPa) = 46.06303 52.43417 49.24860
#
# Velocity S-wave (km/s) = 4.32340 4.61271 4.47040
# Velocity P-wave (km/s) = 6.85540 7.62105 7.24834
#
# Compressibility (1/GPa) = 0.01838301
#
# Stress axis : x y z
#
# Youngs Moduli (GPa) = 248.37296 85.71401 122.42042
#
# Poissons Ratio (x) = 0.07709 0.18973
# Poissons Ratio (y) = 0.22338 0.03551
# Poissons Ratio (z) = 0.38494 0.02486
#
# Static dielectric constant tensor:
#      x y z
#    x 5.496720 0.000000 0.000000 
#    y 0.000000 6.969240 0.000000 
#    z 0.000000 0.000000 4.299010 
# 
# 
# High freq. dielectric constant tensor:
#      x y z
#    x 2.023080 0.000000 0.000000 
#    y 0.000000 1.964100 0.000000 
#    z 0.000000 0.000000 1.984910 
# 
# From -- ./inp_files/38994.got.cif
#   From: 2010.03.12/outbox.cif.g09.slc.cpg/sg63_20_cif.got.tgz:38994.got - 2010.04.10 19:34:48.
