data_PCOD8258233
_publ_section_title
;
Structure prediction by ZEFSAII (Michael W. Deem and Ramdas Pophale) SiO2 
 PCOD8258233
Probable space group: C M C M
;
_chemical_formula_sum "Si O2"
_cell_formula_units_Z 96
_cell_length_a 9.274196
_cell_length_b 19.001713
_cell_length_c 30.346414
_cell_angle_alpha 90.000000
_cell_angle_beta 90.000000
_cell_angle_gamma 90.000000
_cell_volume 5347.815340
_symmetry_space_group_name_H-M "C M C M"
_symmetry_group_IT_number 63
_symmetry_cell_setting 'orthorhombic'
loop_
_space_group_symop_operation_xyz
x,y,z
-x,-y,1/2+z
x,-y,-z
-x,y,1/2-z
-x,-y,-z
x,y,1/2-z
-x,y,z
x,-y,1/2+z
1/2+x,1/2+y,z
1/2-x,1/2-y,1/2+z
1/2+x,1/2-y,-z
1/2-x,1/2+y,1/2-z
1/2-x,1/2-y,-z
1/2+x,1/2+y,1/2-z
1/2-x,1/2+y,z
1/2+x,1/2-y,1/2+z
loop_
_atom_site_type_symbol
_atom_site_label
_atom_site_fract_x
_atom_site_fract_y
_atom_site_fract_z
Si Si1 0.335650 0.583312 0.198722
Si Si2 0.170532 0.669635 0.370686
Si Si3 0.170698 0.830939 0.121354
Si Si4 0.829490 0.574484 0.449490
Si Si5 0.328660 0.425322 0.298641
Si Si6 0.829203 0.415975 0.451703
O O1 0.323347 0.601123 0.250000
O O2 0.500000 0.590838 0.182474
O O3 0.237115 0.638662 0.173557
O O4 0.277811 0.504291 0.189361
O O5 0.217340 0.750288 0.374579
O O6 0.233418 0.627514 0.412929
O O7 0.000000 0.661747 0.367454
O O8 0.245871 0.860876 0.078176
O O9 0.000000 0.839957 0.116332
O O10 0.229638 0.871376 0.164711
O O11 0.779916 0.494958 0.438607
O O12 0.778798 0.598401 0.498034
O O13 0.000000 0.576076 0.449231
O O14 0.269254 0.403830 0.250000
O O15 0.500000 0.424345 0.296915
O O16 0.000000 0.405989 0.445866
#
# Coordination Sequence:
#
# PCOD8258233 Si02
#       6
#    16  16  16  16  16  16
#     4   9  18  33  52  71  91 119 157 197 231 269
#     4  10  20  32  47  70 100 128 154 191 237 283
#     4  10  20  31  46  72 101 124 151 192 238 283
#     4   8  16  32  51  70  92 123 164 202 235 277
#     4   8  15  30  50  68  89 121 156 187 226 278
#     4   9  17  32  53  69  88 126 167 198 234 281
#
# _framework density 17.951256000000001
#
# number of rings (size 3 to 8) (size 9 to 14) (size 15 to 20)
#    0.000    3.000    0.000    3.000    0.000    2.333 
#    0.000    4.167    0.000    1.500    0.000    0.000 
#    0.000    0.000    0.000    0.000    0.000    0.000 
#
# Total GULP energy -595079.518124 kJ/mol
# GULP energy per Si atom -12397.489961 kJ/mol
# Density = 1.791040 g / cm^3
# Si number density = 17.951256 Si / 1000 Ang^3
#
#
#
# Elastic Constant Matrix: (Units=GPa)
#
#
# Indices 1 2 3 4 5 6 
#
# 1 21.2630 35.0338 30.0266 0.0000 0.0000 0.0000
# 2 35.0338 142.7101 84.3797 0.0000 0.0000 0.0000
# 3 30.0266 84.3797 114.5927 0.0000 0.0000 0.0000
# 4 0.0000 0.0000 0.0000 21.6523 0.0000 0.0000
# 5 0.0000 0.0000 0.0000 0.0000 28.7376 0.0000
# 6 0.0000 0.0000 0.0000 0.0000 0.0000 4.7175
#
#
#
# Elastic Compliance Matrix: (Units=1/GPa)
#
#
# Indices 1 2 3 4 5 6 
#
# 1 0.088321 -0.014166 -0.012712 0.000000 0.000000 0.000000
# 2 -0.014166 0.014682 -0.007099 0.000000 0.000000 0.000000
# 3 -0.012712 -0.007099 0.017285 0.000000 0.000000 0.000000
# 4 0.000000 0.000000 0.000000 0.046185 0.000000 0.000000
# 5 0.000000 0.000000 0.000000 0.000000 0.034798 0.000000
# 6 0.000000 0.000000 0.000000 0.000000 0.000000 0.211977
#
#
# Mechanical properties :
#
#
# Convention : Reuss Voigt Hill
#
# Bulk Modulus (GPa) = 19.10784 64.16066 41.63425
# Shear Modulus (GPa) = 10.02714 19.62985 14.82849
#
# Velocity S-wave (km/s) = 2.36598 3.31041 2.87721
# Velocity P-wave (km/s) = 4.25808 7.10148 5.85501
#
# Compressibility (1/GPa) = 0.05233455
#
# Stress axis : x y z
#
# Youngs Moduli (GPa) = 11.32231 68.10835 57.85341
#
# Poissons Ratio (x) = 0.96482 0.73541
# Poissons Ratio (y) = 0.16039 0.41073
# Poissons Ratio (z) = 0.14393 0.48353
#
# Static dielectric constant tensor:
#      x y z
#    x 2.889860 0.000000 0.000000 
#    y 0.000000 3.421870 0.000000 
#    z 0.000000 0.000000 3.617730 
# 
# 
# High freq. dielectric constant tensor:
#      x y z
#    x 1.653930 0.000000 0.000000 
#    y 0.000000 1.695430 0.000000 
#    z 0.000000 0.000000 1.707440 
# 
# From -- ./inp_files/61680.got.cif
#   From: 2010.03.12/outbox.cif.g09.slc.cpg/sg63_31_cif.got.tgz:61680.got - 2010.04.10 19:34:48.
