data_PCOD8258236
_publ_section_title
;
Structure prediction by ZEFSAII (Michael W. Deem and Ramdas Pophale) SiO2 
 PCOD8258236
Probable space group: C M C M
;
_chemical_formula_sum "Si O2"
_cell_formula_units_Z 96
_cell_length_a 17.112216
_cell_length_b 20.225645
_cell_length_c 13.740004
_cell_angle_alpha 90.000000
_cell_angle_beta 90.000000
_cell_angle_gamma 90.000000
_cell_volume 4755.492411
_symmetry_space_group_name_H-M "C M C M"
_symmetry_group_IT_number 63
_symmetry_cell_setting 'orthorhombic'
loop_
_space_group_symop_operation_xyz
x,y,z
-x,-y,1/2+z
x,-y,-z
-x,y,1/2-z
-x,-y,-z
x,y,1/2-z
-x,y,z
x,-y,1/2+z
1/2+x,1/2+y,z
1/2-x,1/2-y,1/2+z
1/2+x,1/2-y,-z
1/2-x,1/2+y,1/2-z
1/2-x,1/2-y,-z
1/2+x,1/2+y,1/2-z
1/2-x,1/2+y,z
1/2+x,1/2-y,1/2+z
loop_
_atom_site_type_symbol
_atom_site_label
_atom_site_fract_x
_atom_site_fract_y
_atom_site_fract_z
Si Si1 0.173809 0.982358 0.856802
Si Si2 0.168751 0.340394 0.971006
Si Si3 0.908255 0.395637 0.359739
Si Si4 0.337320 0.610154 0.979079
Si Si5 0.910458 0.776363 0.363769
Si Si6 0.353746 0.036296 0.142868
O O1 0.133403 0.982753 0.750000
O O2 0.261217 0.956575 0.848674
O O3 0.182167 0.056297 0.897104
O O4 0.127934 0.930944 0.928062
O O5 0.150659 0.277030 0.905079
O O6 0.121703 0.401851 0.922721
O O7 0.130212 0.336138 0.078364
O O8 0.261472 0.348780 0.985673
O O9 0.876423 0.388589 0.250000
O O10 0.880684 0.466668 0.403307
O O11 0.000000 0.388978 0.363804
O O12 0.400398 0.658347 0.930129
O O13 0.890923 0.790216 0.250000
O O14 0.000000 0.752528 0.374924
O O15 0.392493 0.043032 0.250000
#
# Coordination Sequence:
#
# PCOD8258236 Si02
#       6
#    16  16  16  16  16  16
#     4   9  17  33  59  90 116 138 178 237 295 348
#     4  11  20  35  56  82 108 149 193 237 281 336
#     4  10  20  31  46  74 111 150 188 227 278 337
#     4  10  20  36  61  88 112 146 189 240 293 347
#     4  11  25  42  58  80 115 158 201 245 293 346
#     4   9  17  30  50  78 111 142 179 227 279 334
#
# _framework density 20.187183000000001
#
# number of rings (size 3 to 8) (size 9 to 14) (size 15 to 20)
#    0.000    2.000    1.667    2.500    0.000    3.333 
#    0.000    4.167    0.000    2.500    0.000    0.000 
#    0.000    0.000    0.000    0.000    0.000    0.000 
#
# Total GULP energy -594864.819843 kJ/mol
# GULP energy per Si atom -12393.017080 kJ/mol
# Density = 2.014124 g / cm^3
# Si number density = 20.187183 Si / 1000 Ang^3
#
#
#
# Elastic Constant Matrix: (Units=GPa)
#
#
# Indices 1 2 3 4 5 6 
#
# 1 34.6858 17.9171 22.7271 0.0000 0.0000 0.0000
# 2 17.9171 79.1870 49.3335 0.0000 0.0000 0.0000
# 3 22.7271 49.3335 115.4879 0.0000 0.0000 0.0000
# 4 0.0000 0.0000 0.0000 29.0836 0.0000 0.0000
# 5 0.0000 0.0000 0.0000 0.0000 22.4840 0.0000
# 6 0.0000 0.0000 0.0000 0.0000 0.0000 19.7431
#
#
#
# Elastic Compliance Matrix: (Units=1/GPa)
#
#
# Indices 1 2 3 4 5 6 
#
# 1 0.034419 -0.004862 -0.004697 0.000000 0.000000 0.000000
# 2 -0.004862 0.017895 -0.006687 0.000000 0.000000 0.000000
# 3 -0.004697 -0.006687 0.012440 0.000000 0.000000 0.000000
# 4 0.000000 0.000000 0.000000 0.034384 0.000000 0.000000
# 5 0.000000 0.000000 0.000000 0.000000 0.044476 0.000000
# 6 0.000000 0.000000 0.000000 0.000000 0.000000 0.050650
#
#
# Mechanical properties :
#
#
# Convention : Reuss Voigt Hill
#
# Bulk Modulus (GPa) = 30.99621 45.47958 38.23790
# Shear Modulus (GPa) = 21.05183 23.55434 22.30308
#
# Velocity S-wave (km/s) = 3.23279 3.41955 3.32748
# Velocity P-wave (km/s) = 5.41501 6.17810 5.80910
#
# Compressibility (1/GPa) = 0.03226201
#
# Stress axis : x y z
#
# Youngs Moduli (GPa) = 29.05374 55.88278 80.38692
#
# Poissons Ratio (x) = 0.27169 0.37754
# Poissons Ratio (y) = 0.14125 0.53758
# Poissons Ratio (z) = 0.13645 0.37371
#
# Static dielectric constant tensor:
#      x y z
#    x 3.163810 0.000000 0.000000 
#    y 0.000000 3.511160 0.000000 
#    z 0.000000 0.000000 4.353440 
# 
# 
# High freq. dielectric constant tensor:
#      x y z
#    x 1.745130 0.000000 0.000000 
#    y 0.000000 1.771570 0.000000 
#    z 0.000000 0.000000 1.810330 
# 
# From -- ./inp_files/31964.got.cif
#   From: 2010.03.12/outbox.cif.g09.slc.cpg/sg63_16_cif.got.tgz:31964.got - 2010.04.10 19:34:48.
