data_PCOD8258780
_publ_section_title
;
Structure prediction by ZEFSAII (Michael W. Deem and Ramdas Pophale) SiO2 
 PCOD8258780
Probable space group: C M C M
;
_chemical_formula_sum "Si O2"
_cell_formula_units_Z 112
_cell_length_a 25.300738
_cell_length_b 12.821993
_cell_length_c 18.649180
_cell_angle_alpha 90.000000
_cell_angle_beta 90.000000
_cell_angle_gamma 90.000000
_cell_volume 6049.903752
_symmetry_space_group_name_H-M "C M C M"
_symmetry_group_IT_number 63
_symmetry_cell_setting 'orthorhombic'
loop_
_space_group_symop_operation_xyz
x,y,z
-x,-y,1/2+z
x,-y,-z
-x,y,1/2-z
-x,-y,-z
x,y,1/2-z
-x,y,z
x,-y,1/2+z
1/2+x,1/2+y,z
1/2-x,1/2-y,1/2+z
1/2+x,1/2-y,-z
1/2-x,1/2+y,1/2-z
1/2-x,1/2-y,-z
1/2+x,1/2+y,1/2-z
1/2-x,1/2+y,z
1/2+x,1/2-y,1/2+z
loop_
_atom_site_type_symbol
_atom_site_label
_atom_site_fract_x
_atom_site_fract_y
_atom_site_fract_z
Si Si1 0.939096 0.613071 0.333899
Si Si2 0.835966 0.298817 0.330846
Si Si3 0.195548 0.061875 0.563467
Si Si4 0.694306 0.891854 0.029563
Si Si5 0.158177 0.723326 0.402024
Si Si6 0.443600 0.880268 0.166464
Si Si7 0.740386 0.389085 0.666952
O O1 0.927141 0.623449 0.250000
O O2 0.899277 0.691082 0.374106
O O3 0.928081 0.495474 0.362866
O O4 0.000000 0.644484 0.350572
O O5 0.826340 0.340361 0.250000
O O6 0.813241 0.384416 0.384949
O O7 0.898922 0.293238 0.348352
O O8 0.809302 0.188000 0.342681
O O9 0.242621 0.116356 0.516801
O O10 0.161685 0.150473 0.604184
O O11 0.163202 0.000000 0.500000
O O12 0.224019 0.990929 0.623196
O O13 0.663826 0.801303 0.986705
O O14 0.671079 0.000000 0.000000
O O15 0.205437 0.664101 0.360260
O O16 0.451953 0.896987 0.250000
O O17 0.500000 0.843381 0.132818
O O18 0.748274 0.418869 0.750000
#
# Coordination Sequence:
#
# PCOD8258780 Si02
#       7
#    16  16  16  16  16  16  16
#     4   9  19  35  55  83 114 144 184 232 281 333
#     4  10  20  34  52  77 111 143 179 230 278 325
#     4  11  22  37  54  76 114 152 184 222 274 339
#     4  11  20  34  53  80 108 144 182 219 269 333
#     4  12  21  36  58  79 110 148 187 221 284 341
#     4   8  15  30  53  78 105 139 174 212 270 332
#     4  11  23  35  52  83 113 139 182 233 274 330
#
# _framework density 18.512692000000001
#
# number of rings (size 3 to 8) (size 9 to 14) (size 15 to 20)
#    0.000    1.714    4.286    3.429    0.000    1.714 
#    0.000    0.714    0.000    3.857    0.000    2.000 
#    0.000    0.000    0.000    0.000    0.000    0.000 
#
# Total GULP energy -693851.181434 kJ/mol
# GULP energy per Si atom -12390.199668 kJ/mol
# Density = 1.847056 g / cm^3
# Si number density = 18.512692 Si / 1000 Ang^3
#
#
#
# Elastic Constant Matrix: (Units=GPa)
#
#
# Indices 1 2 3 4 5 6 
#
# 1 115.5317 46.9260 27.9609 0.0000 0.0000 0.0000
# 2 46.9260 68.9832 29.8831 0.0000 0.0000 0.0000
# 3 27.9609 29.8831 87.0040 0.0000 0.0000 0.0000
# 4 0.0000 0.0000 0.0000 21.5873 0.0000 0.0000
# 5 0.0000 0.0000 0.0000 0.0000 19.8284 0.0000
# 6 0.0000 0.0000 0.0000 0.0000 0.0000 23.6937
#
#
#
# Elastic Compliance Matrix: (Units=1/GPa)
#
#
# Indices 1 2 3 4 5 6 
#
# 1 0.012074 -0.007674 -0.001244 0.000000 0.000000 0.000000
# 2 -0.007674 0.021908 -0.005058 0.000000 0.000000 0.000000
# 3 -0.001244 -0.005058 0.013631 0.000000 0.000000 0.000000
# 4 0.000000 0.000000 0.000000 0.046324 0.000000 0.000000
# 5 0.000000 0.000000 0.000000 0.000000 0.050433 0.000000
# 6 0.000000 0.000000 0.000000 0.000000 0.000000 0.042205
#
#
# Mechanical properties :
#
#
# Convention : Reuss Voigt Hill
#
# Bulk Modulus (GPa) = 50.86760 53.45099 52.15929
# Shear Modulus (GPa) = 22.61609 24.13846 23.37727
#
# Velocity S-wave (km/s) = 3.49901 3.61485 3.55740
# Velocity P-wave (km/s) = 6.62275 6.80869 6.71636
#
# Compressibility (1/GPa) = 0.01965888
#
# Stress axis : x y z
#
# Youngs Moduli (GPa) = 82.82345 45.64548 73.36197
#
# Poissons Ratio (x) = 0.35029 0.09129
# Poissons Ratio (y) = 0.63561 0.37109
# Poissons Ratio (z) = 0.10306 0.23089
#
# Static dielectric constant tensor:
#      x y z
#    x 3.445690 0.000000 0.000000 
#    y 0.000000 3.296430 0.000000 
#    z 0.000000 0.000000 3.476120 
# 
# 
# High freq. dielectric constant tensor:
#      x y z
#    x 1.697860 0.000000 0.000000 
#    y 0.000000 1.697410 0.000000 
#    z 0.000000 0.000000 1.720500 
# 
# From -- ./inp_files/57652.got.cif
#   From: 2010.03.12/outbox.cif.g09.slc.cpg/sg63_29_cif.got.tgz:57652.got - 2010.04.10 19:34:48.
