data_PCOD8258119
_publ_section_title
;
Structure prediction by ZEFSAII (Michael W. Deem and Ramdas Pophale) SiO2 
 PCOD8258119
Probable space group: C M C M
;
_chemical_formula_sum "Si O2"
_cell_formula_units_Z 104
_cell_length_a 20.232918
_cell_length_b 11.708385
_cell_length_c 23.419736
_cell_angle_alpha 90.000000
_cell_angle_beta 90.000000
_cell_angle_gamma 90.000000
_cell_volume 5548.013526
_symmetry_space_group_name_H-M "C M C M"
_symmetry_group_IT_number 63
_symmetry_cell_setting 'orthorhombic'
loop_
_space_group_symop_operation_xyz
x,y,z
-x,-y,1/2+z
x,-y,-z
-x,y,1/2-z
-x,-y,-z
x,y,1/2-z
-x,y,z
x,-y,1/2+z
1/2+x,1/2+y,z
1/2-x,1/2-y,1/2+z
1/2+x,1/2-y,-z
1/2-x,1/2+y,1/2-z
1/2-x,1/2-y,-z
1/2+x,1/2+y,1/2-z
1/2-x,1/2+y,z
1/2+x,1/2-y,1/2+z
loop_
_atom_site_type_symbol
_atom_site_label
_atom_site_fract_x
_atom_site_fract_y
_atom_site_fract_z
Si Si1 0.074972 0.215475 0.106755
Si Si2 0.125040 0.500000 0.500000
Si Si3 0.788918 0.600521 0.314651
Si Si4 0.925993 0.251946 0.979091
Si Si5 0.326285 0.314117 0.382301
Si Si6 0.184026 0.601407 0.608848
Si Si7 0.857795 0.959234 0.683960
O O1 0.123969 0.316110 0.124552
O O2 0.088053 0.103925 0.145097
O O3 0.000000 0.256727 0.117563
O O4 0.085509 0.188370 0.039646
O O5 0.081121 0.611495 0.487233
O O6 0.171514 0.522572 0.554046
O O7 0.811537 0.612189 0.250000
O O8 0.828808 0.695618 0.348848
O O9 0.809361 0.475600 0.335330
O O10 0.709862 0.613209 0.321163
O O11 0.874362 0.195294 0.936231
O O12 0.000000 0.229017 0.956288
O O13 0.251819 0.332205 0.404551
O O14 0.349484 0.413341 0.339822
O O15 0.880878 0.965815 0.750000
#
# Coordination Sequence:
#
# PCOD8258119 Si02
#       7
#    16   8  16  16  16  16  16
#     4  10  22  40  60  86 121 157 197 241 292 353
#     4  10  19  36  60  86 117 150 190 244 295 350
#     4  10  20  37  59  86 117 151 195 249 297 343
#     4  10  22  38  60  87 118 157 194 242 300 354
#     4  11  21  37  62  88 118 155 196 245 293 352
#     4  10  21  36  59  91 115 148 198 243 298 345
#     4  10  22  38  59  85 118 158 198 240 291 352
#
# _framework density 18.745448
#
# number of rings (size 3 to 8) (size 9 to 14) (size 15 to 20)
#    0.000    1.846    3.077    0.692    0.000    8.308 
#    0.000    1.538    0.000    2.308    0.000    0.000 
#    0.000    0.000    0.000    0.000    0.000    0.000 
#
# Total GULP energy -644851.783779 kJ/mol
# GULP energy per Si atom -12400.995842 kJ/mol
# Density = 1.870278 g / cm^3
# Si number density = 18.745448 Si / 1000 Ang^3
#
#
#
# Elastic Constant Matrix: (Units=GPa)
#
#
# Indices 1 2 3 4 5 6 
#
# 1 126.1440 48.0858 63.9117 0.0000 0.0000 0.0000
# 2 48.0858 77.3012 46.4204 0.0000 0.0000 0.0000
# 3 63.9117 46.4204 116.6538 0.0000 0.0000 0.0000
# 4 0.0000 0.0000 0.0000 32.1772 0.0000 0.0000
# 5 0.0000 0.0000 0.0000 0.0000 15.2792 0.0000
# 6 0.0000 0.0000 0.0000 0.0000 0.0000 17.0399
#
#
#
# Elastic Compliance Matrix: (Units=1/GPa)
#
#
# Indices 1 2 3 4 5 6 
#
# 1 0.012135 -0.004673 -0.004789 0.000000 0.000000 0.000000
# 2 -0.004673 0.018798 -0.004920 0.000000 0.000000 0.000000
# 3 -0.004789 -0.004920 0.013154 0.000000 0.000000 0.000000
# 4 0.000000 0.000000 0.000000 0.031078 0.000000 0.000000
# 5 0.000000 0.000000 0.000000 0.000000 0.065448 0.000000
# 6 0.000000 0.000000 0.000000 0.000000 0.000000 0.058686
#
#
# Mechanical properties :
#
#
# Convention : Reuss Voigt Hill
#
# Bulk Modulus (GPa) = 65.26170 70.77051 68.01610
# Shear Modulus (GPa) = 21.44353 23.67802 22.56077
#
# Velocity S-wave (km/s) = 3.38588 3.55792 3.47296
# Velocity P-wave (km/s) = 7.08349 7.39687 7.24188
#
# Compressibility (1/GPa) = 0.01532292
#
# Stress axis : x y z
#
# Youngs Moduli (GPa) = 82.40532 53.19777 76.02219
#
# Poissons Ratio (x) = 0.24859 0.36407
# Poissons Ratio (y) = 0.38507 0.37404
# Poissons Ratio (z) = 0.39464 0.26174
#
# Static dielectric constant tensor:
#      x y z
#    x 3.376140 0.000000 0.000000 
#    y 0.000000 3.374010 0.000000 
#    z 0.000000 0.000000 3.464590 
# 
# 
# High freq. dielectric constant tensor:
#      x y z
#    x 1.720030 0.000000 0.000000 
#    y 0.000000 1.729150 0.000000 
#    z 0.000000 0.000000 1.731690 
# 
# From -- ./inp_files/69969.got.cif
#   From: 2010.03.12/outbox.cif.g09.slc.cpg/sg63_35_cif.got.tgz:69969.got - 2010.04.10 19:34:48.
