data_PCOD8258831
_publ_section_title
;
Structure prediction by ZEFSAII (Michael W. Deem and Ramdas Pophale) SiO2 
 PCOD8258831
Probable space group: C M C M
;
_chemical_formula_sum "Si O2"
_cell_formula_units_Z 96
_cell_length_a 23.807793
_cell_length_b 20.884183
_cell_length_c 9.652964
_cell_angle_alpha 90.000000
_cell_angle_beta 90.000000
_cell_angle_gamma 90.000000
_cell_volume 4799.514571
_symmetry_space_group_name_H-M "C M C M"
_symmetry_group_IT_number 63
_symmetry_cell_setting 'orthorhombic'
loop_
_space_group_symop_operation_xyz
x,y,z
-x,-y,1/2+z
x,-y,-z
-x,y,1/2-z
-x,-y,-z
x,y,1/2-z
-x,y,z
x,-y,1/2+z
1/2+x,1/2+y,z
1/2-x,1/2-y,1/2+z
1/2+x,1/2-y,-z
1/2-x,1/2+y,1/2-z
1/2-x,1/2-y,-z
1/2+x,1/2+y,1/2-z
1/2-x,1/2+y,z
1/2+x,1/2-y,1/2+z
loop_
_atom_site_type_symbol
_atom_site_label
_atom_site_fract_x
_atom_site_fract_y
_atom_site_fract_z
Si Si1 0.934307 0.559876 0.908656
Si Si2 0.182028 0.058921 0.089642
Si Si3 0.752470 0.814600 0.591768
Si Si4 0.873330 0.343636 0.595778
Si Si5 0.937737 0.218293 0.596059
Si Si6 0.438366 0.599462 0.092324
O O1 0.916128 0.548611 0.750000
O O2 0.000000 0.573422 0.920747
O O3 0.915712 0.500000 0.000000
O O4 0.901892 0.619448 0.970835
O O5 0.199041 0.048594 0.250000
O O6 0.204024 0.129639 0.040783
O O7 0.114365 0.052740 0.069003
O O8 0.208135 0.000000 0.000000
O O9 0.766378 0.794025 0.750000
O O10 0.750000 0.750000 0.500000
O O11 0.693022 0.850242 0.583665
O O12 0.893590 0.366489 0.750000
O O13 0.889933 0.270335 0.572918
O O14 0.933548 0.189214 0.750000
O O15 0.925001 0.162594 0.491380
O O16 0.000000 0.248164 0.571903
O O17 0.440588 0.621572 0.250000
O O18 0.500000 0.569722 0.049668
#
# Coordination Sequence:
#
# PCOD8258831 Si02
#       6
#    16  16  16  16  16  16
#     4  10  21  36  54  77 106 141 180 223 275 333
#     4  10  22  39  57  80 111 144 182 229 278 330
#     4  10  22  39  59  84 113 148 191 237 285 337
#     4  10  20  34  53  77 106 140 180 225 272 327
#     4   9  17  29  48  76 107 137 170 211 260 314
#     4   9  18  33  53  77 106 139 174 216 267 322
#
# _framework density 20.002023000000001
#
# number of rings (size 3 to 8) (size 9 to 14) (size 15 to 20)
#    0.000    2.333    0.000    2.000    0.000    5.333 
#    0.000    3.333    0.000    0.000    0.000    0.000 
#    0.000    0.000    0.000    0.000    0.000    0.000 
#
# Total GULP energy -594852.690157 kJ/mol
# GULP energy per Si atom -12392.764378 kJ/mol
# Density = 1.995650 g / cm^3
# Si number density = 20.002023 Si / 1000 Ang^3
#
#
#
# Elastic Constant Matrix: (Units=GPa)
#
#
# Indices 1 2 3 4 5 6 
#
# 1 45.4627 21.6813 31.1911 0.0000 0.0000 0.0000
# 2 21.6813 100.5377 68.9690 0.0000 0.0000 0.0000
# 3 31.1911 68.9690 108.0517 0.0000 0.0000 0.0000
# 4 0.0000 0.0000 0.0000 40.0989 0.0000 0.0000
# 5 0.0000 0.0000 0.0000 0.0000 16.7421 0.0000
# 6 0.0000 0.0000 0.0000 0.0000 0.0000 18.2101
#
#
#
# Elastic Compliance Matrix: (Units=1/GPa)
#
#
# Indices 1 2 3 4 5 6 
#
# 1 0.027470 -0.000861 -0.007380 0.000000 0.000000 0.000000
# 2 -0.000861 0.017721 -0.011063 0.000000 0.000000 0.000000
# 3 -0.007380 -0.011063 0.018447 0.000000 0.000000 0.000000
# 4 0.000000 0.000000 0.000000 0.024938 0.000000 0.000000
# 5 0.000000 0.000000 0.000000 0.000000 0.059730 0.000000
# 6 0.000000 0.000000 0.000000 0.000000 0.000000 0.054915
#
#
# Mechanical properties :
#
#
# Convention : Reuss Voigt Hill
#
# Bulk Modulus (GPa) = 39.95252 55.30386 47.62819
# Shear Modulus (GPa) = 19.98623 23.82425 21.90524
#
# Velocity S-wave (km/s) = 3.16446 3.45496 3.31290
# Velocity P-wave (km/s) = 5.77662 6.60491 6.20460
#
# Compressibility (1/GPa) = 0.02502971
#
# Stress axis : x y z
#
# Youngs Moduli (GPa) = 36.40329 56.42891 54.21072
#
# Poissons Ratio (x) = 0.04861 0.40007
# Poissons Ratio (y) = 0.03136 0.59972
# Poissons Ratio (z) = 0.26865 0.62426
#
# Static dielectric constant tensor:
#      x y z
#    x 3.795100 0.000000 0.000000 
#    y 0.000000 3.334960 0.000000 
#    z 0.000000 0.000000 3.670650 
# 
# 
# High freq. dielectric constant tensor:
#      x y z
#    x 1.785780 0.000000 0.000000 
#    y 0.000000 1.761380 0.000000 
#    z 0.000000 0.000000 1.782980 
# 
# From -- ./inp_files/12419.got.cif
#   From: 2010.03.12/outbox.cif.g09.slc.cpg/sg63_7_cif.got.tgz:12419.got - 2010.04.10 19:34:48.
