data_PCOD8258043
_publ_section_title
;
Structure prediction by ZEFSAII (Michael W. Deem and Ramdas Pophale) SiO2 
 PCOD8258043
Probable space group: C M C M
;
_chemical_formula_sum "Si O2"
_cell_formula_units_Z 64
_cell_length_a 17.602402
_cell_length_b 9.025682
_cell_length_c 21.983530
_cell_angle_alpha 90.000000
_cell_angle_beta 90.000000
_cell_angle_gamma 90.000000
_cell_volume 3492.604374
_symmetry_space_group_name_H-M "C M C M"
_symmetry_group_IT_number 63
_symmetry_cell_setting 'orthorhombic'
loop_
_space_group_symop_operation_xyz
x,y,z
-x,-y,1/2+z
x,-y,-z
-x,y,1/2-z
-x,-y,-z
x,y,1/2-z
-x,y,z
x,-y,1/2+z
1/2+x,1/2+y,z
1/2-x,1/2-y,1/2+z
1/2+x,1/2-y,-z
1/2-x,1/2+y,1/2-z
1/2-x,1/2-y,-z
1/2+x,1/2+y,1/2-z
1/2-x,1/2+y,z
1/2+x,1/2-y,1/2+z
loop_
_atom_site_type_symbol
_atom_site_label
_atom_site_fract_x
_atom_site_fract_y
_atom_site_fract_z
Si Si1 0.322042 0.309072 0.681143
Si Si2 0.700937 0.379016 0.372655
Si Si3 0.912565 0.300672 0.949622
Si Si4 0.642693 0.886386 0.422684
O O1 0.348757 0.281100 0.750000
O O2 0.325438 0.482756 0.667486
O O3 0.235611 0.248682 0.671489
O O4 0.377777 0.217920 0.635372
O O5 0.627723 0.319940 0.407708
O O6 0.767153 0.427321 0.420596
O O7 0.906272 0.464072 0.920296
O O8 0.000000 0.255624 0.954910
O O9 0.874239 0.296599 0.015923
#
# Coordination Sequence:
#
# PCOD8258043 Si02
#       4
#    16  16  16  16
#     4  10  20  35  61  84 111 150 200 242 274 331
#     4  10  19  35  59  89 114 142 196 240 283 331
#     4  11  21  37  60  88 121 150 183 237 299 345
#     4   9  19  36  58  86 113 148 194 233 276 344
#
# _framework density 18.324435000000001
#
# number of rings (size 3 to 8) (size 9 to 14) (size 15 to 20)
#    1.500    0.500    2.500    3.000    0.000    1.000 
#    0.000    3.750    0.000   12.000    0.000    0.000 
#    0.000    0.000    0.000    0.000    0.000    0.000 
#
# Total GULP energy -396587.407938 kJ/mol
# GULP energy per Si atom -12393.356498 kJ/mol
# Density = 1.828273 g / cm^3
# Si number density = 18.324435 Si / 1000 Ang^3
#
#
#
# Elastic Constant Matrix: (Units=GPa)
#
#
# Indices 1 2 3 4 5 6 
#
# 1 57.7944 9.1506 30.9930 0.0000 0.0000 0.0000
# 2 9.1506 87.2158 65.3360 0.0000 0.0000 0.0000
# 3 30.9930 65.3360 142.9324 0.0000 0.0000 0.0000
# 4 0.0000 0.0000 0.0000 32.1595 0.0000 0.0000
# 5 0.0000 0.0000 0.0000 0.0000 0.9724 0.0000
# 6 0.0000 0.0000 0.0000 0.0000 0.0000 22.8037
#
#
#
# Elastic Compliance Matrix: (Units=1/GPa)
#
#
# Indices 1 2 3 4 5 6 
#
# 1 0.019749 0.001728 -0.005072 0.000000 0.000000 0.000000
# 2 0.001728 0.017588 -0.008414 0.000000 0.000000 0.000000
# 3 -0.005072 -0.008414 0.011942 0.000000 0.000000 0.000000
# 4 0.000000 0.000000 0.000000 0.031095 0.000000 0.000000
# 5 0.000000 0.000000 0.000000 0.000000 1.028406 0.000000
# 6 0.000000 0.000000 0.000000 0.000000 0.000000 0.043853
#
#
# Mechanical properties :
#
#
# Convention : Reuss Voigt Hill
#
# Bulk Modulus (GPa) = 38.81688 55.43352 47.12520
# Shear Modulus (GPa) = 4.22034 23.35131 13.78582
#
# Velocity S-wave (km/s) = 1.51925 3.57364 2.74582
# Velocity P-wave (km/s) = 4.93017 6.88075 5.98545
#
# Compressibility (1/GPa) = 0.02576199
#
# Stress axis : x y z
#
# Youngs Moduli (GPa) = 50.63514 56.85721 83.73560
#
# Poissons Ratio (x) = -0.09822 0.42471
# Poissons Ratio (y) = -0.08747 0.70457
# Poissons Ratio (z) = 0.25682 0.47841
#
# Static dielectric constant tensor:
#      x y z
#    x 3.027790 0.000000 0.000000 
#    y 0.000000 3.260840 0.000000 
#    z 0.000000 0.000000 3.220630 
# 
# 
# High freq. dielectric constant tensor:
#      x y z
#    x 1.674280 0.000000 0.000000 
#    y 0.000000 1.712860 0.000000 
#    z 0.000000 0.000000 1.702730 
# 
# From -- ./inp_files/56268.got.cif
#   From: 2010.03.12/outbox.cif.g09.slc.cpg/sg63_29_cif.got.tgz:56268.got - 2010.04.10 19:34:48.
