data_PCOD8258495
_publ_section_title
;
Structure prediction by ZEFSAII (Michael W. Deem and Ramdas Pophale) SiO2 
 PCOD8258495
Probable space group: C M C M
;
_chemical_formula_sum "Si O2"
_cell_formula_units_Z 80
_cell_length_a 8.829792
_cell_length_b 27.751577
_cell_length_c 18.186131
_cell_angle_alpha 90.000000
_cell_angle_beta 90.000000
_cell_angle_gamma 90.000000
_cell_volume 4456.341408
_symmetry_space_group_name_H-M "C M C M"
_symmetry_group_IT_number 63
_symmetry_cell_setting 'orthorhombic'
loop_
_space_group_symop_operation_xyz
x,y,z
-x,-y,1/2+z
x,-y,-z
-x,y,1/2-z
-x,-y,-z
x,y,1/2-z
-x,y,z
x,-y,1/2+z
1/2+x,1/2+y,z
1/2-x,1/2-y,1/2+z
1/2+x,1/2-y,-z
1/2-x,1/2+y,1/2-z
1/2-x,1/2-y,-z
1/2+x,1/2+y,1/2-z
1/2-x,1/2+y,z
1/2+x,1/2-y,1/2+z
loop_
_atom_site_type_symbol
_atom_site_label
_atom_site_fract_x
_atom_site_fract_y
_atom_site_fract_z
Si Si1 0.823064 0.103740 0.036629
Si Si2 0.679740 0.298202 0.030840
Si Si3 0.825706 0.342112 0.166876
Si Si4 0.680567 0.541424 0.332183
Si Si5 0.322537 0.562813 0.882168
O O1 0.751388 0.081048 0.111019
O O2 0.000000 0.109125 0.048956
O O3 0.758631 0.156977 0.018565
O O4 0.789527 0.067729 0.969088
O O5 0.500000 0.294887 0.028939
O O6 0.731362 0.306354 0.114679
O O7 0.750000 0.250000 0.000000
O O8 0.805995 0.323313 0.250000
O O9 0.765886 0.396588 0.162628
O O10 0.000000 0.341006 0.142297
O O11 0.737326 0.554015 0.250000
O O12 0.500000 0.541282 0.336296
O O13 0.739034 0.488656 0.355278
O O14 0.500000 0.569422 0.865548
#
# Coordination Sequence:
#
# PCOD8258495 Si02
#       5
#    16  16  16  16  16
#     4   8  15  27  43  65  93 125 159 197 240 286
#     4  10  20  35  55  74  95 126 164 206 252 303
#     4  10  20  33  50  74 102 128 158 201 249 293
#     4   9  15  23  40  68  98 126 159 197 234 279
#     4   9  16  27  46  70  96 127 161 196 236 284
#
# _framework density 17.951946
#
# number of rings (size 3 to 8) (size 9 to 14) (size 15 to 20)
#    0.000    2.800    0.000    3.600    0.000    4.800 
#    0.000    1.000    0.000   14.400    0.000    0.000 
#    0.000    0.000    0.000    0.000    0.000    0.000 
#
# Total GULP energy -495844.569841 kJ/mol
# GULP energy per Si atom -12396.114246 kJ/mol
# Density = 1.791109 g / cm^3
# Si number density = 17.951946 Si / 1000 Ang^3
#
#
#
# Elastic Constant Matrix: (Units=GPa)
#
#
# Indices 1 2 3 4 5 6 
#
# 1 49.7420 31.7083 31.6560 0.0000 0.0000 0.0000
# 2 31.7083 115.1738 73.0463 0.0000 0.0000 0.0000
# 3 31.6560 73.0463 130.5880 0.0000 0.0000 0.0000
# 4 0.0000 0.0000 0.0000 23.4492 0.0000 0.0000
# 5 0.0000 0.0000 0.0000 0.0000 18.4559 0.0000
# 6 0.0000 0.0000 0.0000 0.0000 0.0000 21.8474
#
#
#
# Elastic Compliance Matrix: (Units=1/GPa)
#
#
# Indices 1 2 3 4 5 6 
#
# 1 0.025361 -0.004778 -0.003475 0.000000 0.000000 0.000000
# 2 -0.004778 0.014357 -0.006872 0.000000 0.000000 0.000000
# 3 -0.003475 -0.006872 0.012344 0.000000 0.000000 0.000000
# 4 0.000000 0.000000 0.000000 0.042645 0.000000 0.000000
# 5 0.000000 0.000000 0.000000 0.000000 0.054183 0.000000
# 6 0.000000 0.000000 0.000000 0.000000 0.000000 0.045772
#
#
# Mechanical properties :
#
#
# Convention : Reuss Voigt Hill
#
# Bulk Modulus (GPa) = 45.84870 63.14723 54.49796
# Shear Modulus (GPa) = 21.53467 23.35673 22.44570
#
# Velocity S-wave (km/s) = 3.46724 3.61095 3.53982
# Velocity P-wave (km/s) = 6.45168 7.25516 6.86518
#
# Compressibility (1/GPa) = 0.02181087
#
# Stress axis : x y z
#
# Youngs Moduli (GPa) = 39.43036 69.65446 81.00982
#
# Poissons Ratio (x) = 0.33282 0.28152
# Poissons Ratio (y) = 0.18840 0.55672
# Poissons Ratio (z) = 0.13702 0.47869
#
# Static dielectric constant tensor:
#      x y z
#    x 2.991160 0.000000 0.000000 
#    y 0.000000 3.432070 0.000000 
#    z 0.000000 0.000000 3.558110 
# 
# 
# High freq. dielectric constant tensor:
#      x y z
#    x 1.657780 0.000000 0.000000 
#    y 0.000000 1.684090 0.000000 
#    z 0.000000 0.000000 1.701490 
# 
# From -- ./inp_files/40420.got.cif
#   From: 2010.03.12/outbox.cif.g09.slc.cpg/sg63_21_cif.got.tgz:40420.got - 2010.04.10 19:34:48.
