data_PCOD8258678
_publ_section_title
;
Structure prediction by ZEFSAII (Michael W. Deem and Ramdas Pophale) SiO2 
 PCOD8258678
Probable space group: C M C M
;
_chemical_formula_sum "Si O2"
_cell_formula_units_Z 128
_cell_length_a 18.151415
_cell_length_b 21.876892
_cell_length_c 17.231920
_cell_angle_alpha 90.000000
_cell_angle_beta 90.000000
_cell_angle_gamma 90.000000
_cell_volume 6842.735906
_symmetry_space_group_name_H-M "C M C M"
_symmetry_group_IT_number 63
_symmetry_cell_setting 'orthorhombic'
loop_
_space_group_symop_operation_xyz
x,y,z
-x,-y,1/2+z
x,-y,-z
-x,y,1/2-z
-x,-y,-z
x,y,1/2-z
-x,y,z
x,-y,1/2+z
1/2+x,1/2+y,z
1/2-x,1/2-y,1/2+z
1/2+x,1/2-y,-z
1/2-x,1/2+y,1/2-z
1/2-x,1/2-y,-z
1/2+x,1/2+y,1/2-z
1/2-x,1/2+y,z
1/2+x,1/2-y,1/2+z
loop_
_atom_site_type_symbol
_atom_site_label
_atom_site_fract_x
_atom_site_fract_y
_atom_site_fract_z
Si Si1 0.412229 0.243270 0.503373
Si Si2 0.914119 0.567221 0.599812
Si Si3 0.918244 0.953824 0.570881
Si Si4 0.586678 0.196351 0.666051
Si Si5 0.668991 0.124782 0.468766
Si Si6 0.825712 0.958165 0.160508
Si Si7 0.318597 0.032101 0.161266
Si Si8 0.170373 0.863360 0.474023
O O1 0.500000 0.249846 0.494728
O O2 0.386903 0.238510 0.594303
O O3 0.386404 0.181817 0.459629
O O4 0.371568 0.299544 0.462996
O O5 0.891555 0.625940 0.651306
O O6 0.869434 0.571506 0.519318
O O7 0.893459 0.505458 0.645234
O O8 0.000000 0.566490 0.580337
O O9 0.866212 0.897698 0.547311
O O10 0.000000 0.929145 0.590726
O O11 0.921015 0.000000 0.500000
O O12 0.886613 0.989308 0.645537
O O13 0.621003 0.216453 0.750000
O O14 0.500000 0.201706 0.671154
O O15 0.685079 0.095280 0.385482
O O16 0.744210 0.148010 0.508363
O O17 0.829617 0.937562 0.250000
O O18 0.839866 0.899504 0.106635
O O19 0.747378 0.986775 0.137261
O O20 0.313160 0.051954 0.250000
#
# Coordination Sequence:
#
# PCOD8258678 Si02
#       8
#    16  16  16  16  16  16  16  16
#     4  10  22  38  57  84 115 152 203 249 281 339
#     4  10  20  33  56  86 114 149 196 243 290 348
#     4   9  18  33  57  84 110 144 186 234 288 343
#     4   8  15  31  52  77 112 147 182 236 295 332
#     4  11  21  37  59  81 114 157 195 237 291 351
#     4  10  21  37  58  87 120 150 188 242 298 348
#     4  11  22  36  56  84 121 157 189 234 292 352
#     4  11  20  37  61  83 112 154 199 240 290 349
#
# _framework density 18.705967000000001
#
# number of rings (size 3 to 8) (size 9 to 14) (size 15 to 20)
#    0.000    2.000    2.500    2.625    0.000    3.000 
#    0.000    1.875    0.000    2.250    0.000    0.000 
#    0.000    0.000    0.000    0.000    0.000    0.000 
#
# Total GULP energy -793545.561690 kJ/mol
# GULP energy per Si atom -12399.149401 kJ/mol
# Density = 1.866339 g / cm^3
# Si number density = 18.705967 Si / 1000 Ang^3
#
#
#
# Elastic Constant Matrix: (Units=GPa)
#
#
# Indices 1 2 3 4 5 6 
#
# 1 102.1277 29.1663 30.7883 0.0000 0.0000 0.0000
# 2 29.1663 86.4262 52.2714 0.0000 0.0000 0.0000
# 3 30.7883 52.2714 104.7977 0.0000 0.0000 0.0000
# 4 0.0000 0.0000 0.0000 17.0477 0.0000 0.0000
# 5 0.0000 0.0000 0.0000 0.0000 21.7483 0.0000
# 6 0.0000 0.0000 0.0000 0.0000 0.0000 31.8319
#
#
#
# Elastic Compliance Matrix: (Units=1/GPa)
#
#
# Indices 1 2 3 4 5 6 
#
# 1 0.011121 -0.002545 -0.001998 0.000000 0.000000 0.000000
# 2 -0.002545 0.017151 -0.007807 0.000000 0.000000 0.000000
# 3 -0.001998 -0.007807 0.014023 0.000000 0.000000 0.000000
# 4 0.000000 0.000000 0.000000 0.058659 0.000000 0.000000
# 5 0.000000 0.000000 0.000000 0.000000 0.045981 0.000000
# 6 0.000000 0.000000 0.000000 0.000000 0.000000 0.031415
#
#
# Mechanical properties :
#
#
# Convention : Reuss Voigt Hill
#
# Bulk Modulus (GPa) = 56.83180 57.53374 57.18277
# Shear Modulus (GPa) = 23.93328 26.20063 25.06695
#
# Velocity S-wave (km/s) = 3.58082 3.74659 3.66464
# Velocity P-wave (km/s) = 6.89521 7.03844 6.96719
#
# Compressibility (1/GPa) = 0.01759578
#
# Stress axis : x y z
#
# Youngs Moduli (GPa) = 89.92269 58.30525 71.31019
#
# Poissons Ratio (x) = 0.14836 0.14247
# Poissons Ratio (y) = 0.22881 0.55673
# Poissons Ratio (z) = 0.17966 0.45520
#
# Static dielectric constant tensor:
#      x y z
#    x 3.525160 0.000000 0.000000 
#    y 0.000000 3.228390 0.000000 
#    z 0.000000 0.000000 3.458470 
# 
# 
# High freq. dielectric constant tensor:
#      x y z
#    x 1.729210 0.000000 0.000000 
#    y 0.000000 1.709050 0.000000 
#    z 0.000000 0.000000 1.711110 
# 
# From -- ./inp_files/46295.got.cif
#   From: 2010.03.12/outbox.cif.g09.slc.cpg/sg63_24_cif.got.tgz:46295.got - 2010.04.10 19:34:48.
