data_PCOD8258815
_publ_section_title
;
Structure prediction by ZEFSAII (Michael W. Deem and Ramdas Pophale) SiO2 
 PCOD8258815
Probable space group: C M C M
;
_chemical_formula_sum "Si O2"
_cell_formula_units_Z 80
_cell_length_a 25.449513
_cell_length_b 9.595233
_cell_length_c 17.468668
_cell_angle_alpha 90.000000
_cell_angle_beta 90.000000
_cell_angle_gamma 90.000000
_cell_volume 4265.744035
_symmetry_space_group_name_H-M "C M C M"
_symmetry_group_IT_number 63
_symmetry_cell_setting 'orthorhombic'
loop_
_space_group_symop_operation_xyz
x,y,z
-x,-y,1/2+z
x,-y,-z
-x,y,1/2-z
-x,-y,-z
x,y,1/2-z
-x,y,z
x,-y,1/2+z
1/2+x,1/2+y,z
1/2-x,1/2-y,1/2+z
1/2+x,1/2-y,-z
1/2-x,1/2+y,1/2-z
1/2-x,1/2-y,-z
1/2+x,1/2+y,1/2-z
1/2-x,1/2+y,z
1/2+x,1/2-y,1/2+z
loop_
_atom_site_type_symbol
_atom_site_label
_atom_site_fract_x
_atom_site_fract_y
_atom_site_fract_z
Si Si1 0.167798 0.168482 0.921519
Si Si2 0.144822 0.860980 0.596527
Si Si3 0.275385 0.160935 0.836885
Si Si4 0.060166 0.323904 0.160339
Si Si5 0.138567 0.436656 0.837979
O O1 0.228248 0.173351 0.896269
O O2 0.135569 0.298082 0.888221
O O3 0.141643 0.026400 0.890821
O O4 0.165114 0.177736 0.012438
O O5 0.186070 0.793470 0.655603
O O6 0.086817 0.800646 0.612395
O O7 0.253812 0.159683 0.750000
O O8 0.307728 0.020432 0.855375
O O9 0.066175 0.290511 0.250000
O O10 0.088420 0.469504 0.140351
O O11 0.000000 0.335463 0.134723
O O12 0.136797 0.391593 0.750000
#
# Coordination Sequence:
#
# PCOD8258815 Si02
#       5
#    16  16  16  16  16
#     4  11  21  33  50  78 113 144 173 214 260 306
#     4  10  22  36  51  78 111 144 178 211 258 317
#     4  10  20  34  53  76 106 146 183 213 255 313
#     4   9  19  39  62  78  98 133 176 220 266 317
#     4   9  19  34  54  80 104 133 179 225 260 304
#
# _framework density 18.754055000000001
#
# number of rings (size 3 to 8) (size 9 to 14) (size 15 to 20)
#    0.000    2.200    0.000    4.200    0.000    9.600 
#    0.000    5.000    0.000    2.400    0.000    0.000 
#    0.000    0.000    0.000    0.000    0.000    0.000 
#
# Total GULP energy -496118.507926 kJ/mol
# GULP energy per Si atom -12402.962698 kJ/mol
# Density = 1.871137 g / cm^3
# Si number density = 18.754055 Si / 1000 Ang^3
#
#
#
# Elastic Constant Matrix: (Units=GPa)
#
#
# Indices 1 2 3 4 5 6 
#
# 1 134.2126 49.2933 41.2696 0.0000 0.0000 0.0000
# 2 49.2933 129.8931 42.7775 0.0000 0.0000 0.0000
# 3 41.2696 42.7775 64.1794 0.0000 0.0000 0.0000
# 4 0.0000 0.0000 0.0000 31.1895 0.0000 0.0000
# 5 0.0000 0.0000 0.0000 0.0000 17.0017 0.0000
# 6 0.0000 0.0000 0.0000 0.0000 0.0000 10.9161
#
#
#
# Elastic Compliance Matrix: (Units=1/GPa)
#
#
# Indices 1 2 3 4 5 6 
#
# 1 0.009709 -0.002086 -0.004853 0.000000 0.000000 0.000000
# 2 -0.002086 0.010312 -0.005532 0.000000 0.000000 0.000000
# 3 -0.004853 -0.005532 0.022389 0.000000 0.000000 0.000000
# 4 0.000000 0.000000 0.000000 0.032062 0.000000 0.000000
# 5 0.000000 0.000000 0.000000 0.000000 0.058818 0.000000
# 6 0.000000 0.000000 0.000000 0.000000 0.000000 0.091608
#
#
# Mechanical properties :
#
#
# Convention : Reuss Voigt Hill
#
# Bulk Modulus (GPa) = 57.24580 66.10733 61.67657
# Shear Modulus (GPa) = 19.55701 24.81776 22.18739
#
# Velocity S-wave (km/s) = 3.23277 3.64170 3.44331
# Velocity P-wave (km/s) = 6.67272 7.28072 6.98334
#
# Compressibility (1/GPa) = 0.01746853
#
# Stress axis : x y z
#
# Youngs Moduli (GPa) = 102.99321 96.97258 44.66502
#
# Poissons Ratio (x) = 0.20233 0.21675
# Poissons Ratio (y) = 0.21489 0.24707
# Poissons Ratio (z) = 0.49980 0.53643
#
# Static dielectric constant tensor:
#      x y z
#    x 3.308730 0.000000 0.000000 
#    y 0.000000 3.541350 0.000000 
#    z 0.000000 0.000000 3.441830 
# 
# 
# High freq. dielectric constant tensor:
#      x y z
#    x 1.708740 0.000000 0.000000 
#    y 0.000000 1.734040 0.000000 
#    z 0.000000 0.000000 1.727940 
# 
# From -- ./inp_files/48733.got.cif
#   From: 2010.03.12/outbox.cif.g09.slc.cpg/sg63_25_cif.got.tgz:48733.got - 2010.04.10 19:34:48.
