data_PCOD8258508
_publ_section_title
;
Structure prediction by ZEFSAII (Michael W. Deem and Ramdas Pophale) SiO2 
 PCOD8258508
Probable space group: C M C M
;
_chemical_formula_sum "Si O2"
_cell_formula_units_Z 96
_cell_length_a 8.691539
_cell_length_b 27.766875
_cell_length_c 19.153145
_cell_angle_alpha 90.000000
_cell_angle_beta 90.000000
_cell_angle_gamma 90.000000
_cell_volume 4622.360198
_symmetry_space_group_name_H-M "C M C M"
_symmetry_group_IT_number 63
_symmetry_cell_setting 'orthorhombic'
loop_
_space_group_symop_operation_xyz
x,y,z
-x,-y,1/2+z
x,-y,-z
-x,y,1/2-z
-x,-y,-z
x,y,1/2-z
-x,y,z
x,-y,1/2+z
1/2+x,1/2+y,z
1/2-x,1/2-y,1/2+z
1/2+x,1/2-y,-z
1/2-x,1/2+y,1/2-z
1/2-x,1/2-y,-z
1/2+x,1/2+y,1/2-z
1/2-x,1/2+y,z
1/2+x,1/2-y,1/2+z
loop_
_atom_site_type_symbol
_atom_site_label
_atom_site_fract_x
_atom_site_fract_y
_atom_site_fract_z
Si Si1 0.673730 0.608706 0.167590
Si Si2 0.177965 0.304407 0.903104
Si Si3 0.817050 0.348681 0.454557
Si Si4 0.181826 0.285850 0.328806
Si Si5 0.822874 0.545041 0.541695
Si Si6 0.324626 0.011860 0.172443
O O1 0.689932 0.613088 0.250000
O O2 0.500000 0.619893 0.142904
O O3 0.794399 0.644831 0.133808
O O4 0.719432 0.555092 0.143536
O O5 0.277857 0.264958 0.863509
O O6 0.000000 0.290025 0.897580
O O7 0.229454 0.311244 0.984136
O O8 0.755088 0.327882 0.380408
O O9 0.746404 0.402123 0.470264
O O10 0.000000 0.353724 0.450921
O O11 0.251728 0.290764 0.250000
O O12 0.000000 0.288642 0.323583
O O13 0.744798 0.500000 0.500000
O O14 0.804545 0.534711 0.624002
O O15 0.000000 0.547643 0.517664
O O16 0.274136 0.996076 0.250000
O O17 0.500000 0.030403 0.171373
#
# Coordination Sequence:
#
# PCOD8258508 Si02
#       6
#    16  16  16  16  16  16
#     4  10  20  33  50  74 106 142 177 216 265 318
#     4  11  21  34  55  79 104 136 175 220 265 310
#     4   9  19  34  53  79 108 139 175 214 259 311
#     4  10  21  37  56  78 106 139 174 213 259 313
#     4   9  16  28  49  76 104 133 167 209 254 298
#     4   9  17  29  48  75 103 132 171 217 261 307
#
# _framework density 20.768611
#
# number of rings (size 3 to 8) (size 9 to 14) (size 15 to 20)
#    0.000    2.333    0.000    3.000    0.000    6.667 
#    0.000    4.167    0.000    6.500    0.000    2.333 
#    0.000    0.000    0.000    0.000    0.000    0.000 
#
# Total GULP energy -594937.517523 kJ/mol
# GULP energy per Si atom -12394.531615 kJ/mol
# Density = 2.072134 g / cm^3
# Si number density = 20.768611 Si / 1000 Ang^3
#
#
#
# Elastic Constant Matrix: (Units=GPa)
#
#
# Indices 1 2 3 4 5 6 
#
# 1 16.8334 2.9923 11.3192 0.0000 0.0000 0.0000
# 2 2.9923 97.1985 63.9365 0.0000 0.0000 0.0000
# 3 11.3192 63.9365 106.2644 0.0000 0.0000 0.0000
# 4 0.0000 0.0000 0.0000 34.1164 0.0000 0.0000
# 5 0.0000 0.0000 0.0000 0.0000 17.9890 0.0000
# 6 0.0000 0.0000 0.0000 0.0000 0.0000 18.8768
#
#
#
# Elastic Compliance Matrix: (Units=1/GPa)
#
#
# Indices 1 2 3 4 5 6 
#
# 1 0.065022 0.004227 -0.009470 0.000000 0.000000 0.000000
# 2 0.004227 0.017302 -0.010860 0.000000 0.000000 0.000000
# 3 -0.009470 -0.010860 0.016954 0.000000 0.000000 0.000000
# 4 0.000000 0.000000 0.000000 0.029311 0.000000 0.000000
# 5 0.000000 0.000000 0.000000 0.000000 0.055589 0.000000
# 6 0.000000 0.000000 0.000000 0.000000 0.000000 0.052975
#
#
# Mechanical properties :
#
#
# Convention : Reuss Voigt Hill
#
# Bulk Modulus (GPa) = 14.90931 41.86582 28.38757
# Shear Modulus (GPa) = 17.13995 23.66634 20.40314
#
# Velocity S-wave (km/s) = 2.87589 3.37935 3.13773
# Velocity P-wave (km/s) = 4.26872 5.95219 5.17932
#
# Compressibility (1/GPa) = 0.06707217
#
# Stress axis : x y z
#
# Youngs Moduli (GPa) = 15.37942 57.79672 58.98444
#
# Poissons Ratio (x) = -0.24432 0.55855
# Poissons Ratio (y) = -0.06501 0.64060
# Poissons Ratio (z) = 0.14564 0.62770
#
# Static dielectric constant tensor:
#      x y z
#    x 3.342400 0.000000 0.000000 
#    y 0.000000 3.804970 0.000000 
#    z 0.000000 0.000000 4.129220 
# 
# 
# High freq. dielectric constant tensor:
#      x y z
#    x 1.761090 0.000000 0.000000 
#    y 0.000000 1.810790 0.000000 
#    z 0.000000 0.000000 1.828670 
# 
# From -- ./inp_files/51336.got.cif
#   From: 2010.03.12/outbox.cif.g09.slc.cpg/sg63_26_cif.got.tgz:51336.got - 2010.04.10 19:34:48.
