data_PCOD8258214
_publ_section_title
;
Structure prediction by ZEFSAII (Michael W. Deem and Ramdas Pophale) SiO2 
 PCOD8258214
Probable space group: C M C M
;
_chemical_formula_sum "Si O2"
_cell_formula_units_Z 80
_cell_length_a 24.532615
_cell_length_b 23.531545
_cell_length_c 9.620437
_cell_angle_alpha 90.000000
_cell_angle_beta 90.000000
_cell_angle_gamma 90.000000
_cell_volume 5553.785287
_symmetry_space_group_name_H-M "C M C M"
_symmetry_group_IT_number 63
_symmetry_cell_setting 'orthorhombic'
loop_
_space_group_symop_operation_xyz
x,y,z
-x,-y,1/2+z
x,-y,-z
-x,y,1/2-z
-x,-y,-z
x,y,1/2-z
-x,y,z
x,-y,1/2+z
1/2+x,1/2+y,z
1/2-x,1/2-y,1/2+z
1/2+x,1/2-y,-z
1/2-x,1/2+y,1/2-z
1/2-x,1/2-y,-z
1/2+x,1/2+y,1/2-z
1/2-x,1/2+y,z
1/2+x,1/2-y,1/2+z
loop_
_atom_site_type_symbol
_atom_site_label
_atom_site_fract_x
_atom_site_fract_y
_atom_site_fract_z
Si Si1 0.939111 0.879975 0.909720
Si Si2 0.226013 0.167671 0.410887
Si Si3 0.326796 0.235778 0.090935
Si Si4 0.440585 0.269202 0.090245
Si Si5 0.667383 0.445550 0.588494
O O1 0.931135 0.861529 0.750000
O O2 0.894396 0.927106 0.949693
O O3 0.000000 0.904831 0.935341
O O4 0.928944 0.824713 0.000842
O O5 0.211241 0.177268 0.250000
O O6 0.290439 0.179686 0.441090
O O7 0.190349 0.211735 0.496604
O O8 0.210263 0.103814 0.453567
O O9 0.317168 0.254426 0.250000
O O10 0.391438 0.224000 0.063543
O O11 0.440436 0.288764 0.250000
O O12 0.500000 0.242384 0.051615
O O13 0.683876 0.500000 0.500000
O O14 0.672364 0.461208 0.750000
#
# Coordination Sequence:
#
# PCOD8258214 Si02
#       5
#    16  16  16  16  16
#     4   9  17  29  42  55  75 105 138 169 199 230
#     4   9  17  29  42  59  80 103 132 164 200 238
#     4   9  16  26  43  62  81 104 129 160 197 240
#     4   9  16  25  39  61  85 106 129 159 195 234
#     4  10  20  31  42  56  77 104 136 173 204 234
#
# _framework density 14.404591
#
# number of rings (size 3 to 8) (size 9 to 14) (size 15 to 20)
#    0.000    2.800    2.000    0.000    0.000    2.000 
#    0.000    0.000    0.000    0.000    0.000    0.000 
#    0.000    0.800    0.000    0.600    0.000    1.200 
#
# Total GULP energy -495605.477286 kJ/mol
# GULP energy per Si atom -12390.136932 kJ/mol
# Density = 1.437181 g / cm^3
# Si number density = 14.404591 Si / 1000 Ang^3
#
#
#
# Elastic Constant Matrix: (Units=GPa)
#
#
# Indices 1 2 3 4 5 6 
#
# 1 126.2418 68.9267 35.4626 0.0000 0.0000 0.0000
# 2 68.9267 77.7434 31.7417 0.0000 0.0000 0.0000
# 3 35.4626 31.7417 37.5515 0.0000 0.0000 0.0000
# 4 0.0000 0.0000 0.0000 18.7400 0.0000 0.0000
# 5 0.0000 0.0000 0.0000 0.0000 15.3208 0.0000
# 6 0.0000 0.0000 0.0000 0.0000 0.0000 20.0445
#
#
#
# Elastic Compliance Matrix: (Units=1/GPa)
#
#
# Indices 1 2 3 4 5 6 
#
# 1 0.015885 -0.012153 -0.004729 0.000000 0.000000 0.000000
# 2 -0.012153 0.028939 -0.012985 0.000000 0.000000 0.000000
# 3 -0.004729 -0.012985 0.042072 0.000000 0.000000 0.000000
# 4 0.000000 0.000000 0.000000 0.053362 0.000000 0.000000
# 5 0.000000 0.000000 0.000000 0.000000 0.065271 0.000000
# 6 0.000000 0.000000 0.000000 0.000000 0.000000 0.049889
#
#
# Mechanical properties :
#
#
# Convention : Reuss Voigt Hill
#
# Bulk Modulus (GPa) = 36.81512 57.08875 46.95194
# Shear Modulus (GPa) = 15.42239 17.84813 16.63526
#
# Velocity S-wave (km/s) = 3.27564 3.52385 3.40201
# Velocity P-wave (km/s) = 6.31821 7.50167 6.93523
#
# Compressibility (1/GPa) = 0.02716275
#
# Stress axis : x y z
#
# Youngs Moduli (GPa) = 62.95273 34.55547 23.76894
#
# Poissons Ratio (x) = 0.41994 0.11240
# Poissons Ratio (y) = 0.76505 0.30864
# Poissons Ratio (z) = 0.29769 0.44870
#
# Static dielectric constant tensor:
#      x y z
#    x 3.296760 0.000000 0.000000 
#    y 0.000000 2.486650 0.000000 
#    z 0.000000 0.000000 3.011000 
# 
# 
# High freq. dielectric constant tensor:
#      x y z
#    x 1.562480 0.000000 0.000000 
#    y 0.000000 1.497770 0.000000 
#    z 0.000000 0.000000 1.558310 
# 
# From -- ./inp_files/12052.got.cif
#   From: 2010.03.12/outbox.cif.g09.slc.cpg/sg63_7_cif.got.tgz:12052.got - 2010.04.10 19:34:48.
