data_PCOD8258958
_publ_section_title
;
Structure prediction by ZEFSAII (Michael W. Deem and Ramdas Pophale) SiO2 
 PCOD8258958
Probable space group: C M C M
;
_chemical_formula_sum "Si O2"
_cell_formula_units_Z 104
_cell_length_a 9.154311
_cell_length_b 26.785515
_cell_length_c 21.403648
_cell_angle_alpha 90.000000
_cell_angle_beta 90.000000
_cell_angle_gamma 90.000000
_cell_volume 5248.237301
_symmetry_space_group_name_H-M "C M C M"
_symmetry_group_IT_number 63
_symmetry_cell_setting 'orthorhombic'
loop_
_space_group_symop_operation_xyz
x,y,z
-x,-y,1/2+z
x,-y,-z
-x,y,1/2-z
-x,-y,-z
x,y,1/2-z
-x,y,z
x,-y,1/2+z
1/2+x,1/2+y,z
1/2-x,1/2-y,1/2+z
1/2+x,1/2-y,-z
1/2-x,1/2+y,1/2-z
1/2-x,1/2-y,-z
1/2+x,1/2+y,1/2-z
1/2-x,1/2+y,z
1/2+x,1/2-y,1/2+z
loop_
_atom_site_type_symbol
_atom_site_label
_atom_site_fract_x
_atom_site_fract_y
_atom_site_fract_z
Si Si1 0.835228 0.966497 0.319286
Si Si2 0.167990 0.313583 0.461170
Si Si3 0.673029 0.353666 0.676380
Si Si4 0.164399 0.553093 0.121894
Si Si5 0.247871 0.000000 0.500000
Si Si6 0.329353 0.772739 0.902046
Si Si7 0.841406 0.905647 0.067611
O O1 0.809587 0.947274 0.250000
O O2 0.808017 0.917053 0.360109
O O3 0.000000 0.987422 0.329500
O O4 0.722037 0.010406 0.332527
O O5 0.262579 0.282627 0.410654
O O6 0.199363 0.299533 0.532274
O O7 0.212745 0.371347 0.457858
O O8 0.000000 0.306652 0.443426
O O9 0.709049 0.361602 0.750000
O O10 0.500000 0.350909 0.665373
O O11 0.736790 0.397947 0.633106
O O12 0.745796 0.302022 0.652971
O O13 0.160565 0.531982 0.050860
O O14 0.000000 0.567724 0.140571
O O15 0.149010 0.959712 0.465007
O O16 0.500000 0.769185 0.885173
O O17 0.000000 0.879680 0.058504
#
# Coordination Sequence:
#
# PCOD8258958 Si02
#       7
#    16  16  16  16   8  16  16
#     4   9  19  36  54  73 102 140 180 221 265 314
#     4  10  21  37  58  85 115 145 179 226 285 338
#     4  11  24  40  58  83 117 154 190 234 291 349
#     4  11  22  35  54  80 111 147 187 230 277 333
#     4  10  22  36  54  82 118 152 186 234 290 334
#     4  10  21  38  61  85 109 142 185 230 276 333
#     4  10  20  34  55  81 108 142 185 227 270 326
#
# _framework density 19.816178000000001
#
# number of rings (size 3 to 8) (size 9 to 14) (size 15 to 20)
#    0.000    1.846    0.000    3.692    0.000   12.615 
#    0.000    0.769    0.000    2.769    0.000    0.000 
#    0.000    0.000    0.000    0.000    0.000    0.000 
#
# Total GULP energy -644645.806403 kJ/mol
# GULP energy per Si atom -12397.034739 kJ/mol
# Density = 1.977108 g / cm^3
# Si number density = 19.816178 Si / 1000 Ang^3
#
#
#
# Elastic Constant Matrix: (Units=GPa)
#
#
# Indices 1 2 3 4 5 6 
#
# 1 116.3123 41.1365 41.6980 0.0000 0.0000 0.0000
# 2 41.1365 87.8972 38.5897 0.0000 0.0000 0.0000
# 3 41.6980 38.5897 94.9519 0.0000 0.0000 0.0000
# 4 0.0000 0.0000 0.0000 25.9230 0.0000 0.0000
# 5 0.0000 0.0000 0.0000 0.0000 24.2548 0.0000
# 6 0.0000 0.0000 0.0000 0.0000 0.0000 30.7411
#
#
#
# Elastic Compliance Matrix: (Units=1/GPa)
#
#
# Indices 1 2 3 4 5 6 
#
# 1 0.011124 -0.003726 -0.003371 0.000000 0.000000 0.000000
# 2 -0.003726 0.015096 -0.004499 0.000000 0.000000 0.000000
# 3 -0.003371 -0.004499 0.013840 0.000000 0.000000 0.000000
# 4 0.000000 0.000000 0.000000 0.038576 0.000000 0.000000
# 5 0.000000 0.000000 0.000000 0.000000 0.041229 0.000000
# 6 0.000000 0.000000 0.000000 0.000000 0.000000 0.032530
#
#
# Mechanical properties :
#
#
# Convention : Reuss Voigt Hill
#
# Bulk Modulus (GPa) = 59.28154 60.22332 59.75243
# Shear Modulus (GPa) = 27.59251 28.03292 27.81272
#
# Velocity S-wave (km/s) = 3.73557 3.76526 3.75044
# Velocity P-wave (km/s) = 6.97041 7.02566 6.99809
#
# Compressibility (1/GPa) = 0.01686866
#
# Stress axis : x y z
#
# Youngs Moduli (GPa) = 89.89764 66.24290 72.25313
#
# Poissons Ratio (x) = 0.24683 0.24354
# Poissons Ratio (y) = 0.33498 0.32506
# Poissons Ratio (z) = 0.30301 0.29802
#
# Static dielectric constant tensor:
#      x y z
#    x 3.546770 0.000000 0.000000 
#    y 0.000000 3.517380 0.000000 
#    z 0.000000 0.000000 3.695710 
# 
# 
# High freq. dielectric constant tensor:
#      x y z
#    x 1.777280 0.000000 0.000000 
#    y 0.000000 1.764030 0.000000 
#    z 0.000000 0.000000 1.768410 
# 
# From -- ./inp_files/51497.got.cif
#   From: 2010.03.12/outbox.cif.g09.slc.cpg/sg63_26_cif.got.tgz:51497.got - 2010.04.10 19:34:48.
