data_PCOD8258908
_publ_section_title
;
Structure prediction by ZEFSAII (Michael W. Deem and Ramdas Pophale) SiO2 
 PCOD8258908
Probable space group: C M C M
;
_chemical_formula_sum "Si O2"
_cell_formula_units_Z 96
_cell_length_a 20.130179
_cell_length_b 27.877576
_cell_length_c 9.014186
_cell_angle_alpha 90.000000
_cell_angle_beta 90.000000
_cell_angle_gamma 90.000000
_cell_volume 5058.586263
_symmetry_space_group_name_H-M "C M C M"
_symmetry_group_IT_number 63
_symmetry_cell_setting 'orthorhombic'
loop_
_space_group_symop_operation_xyz
x,y,z
-x,-y,1/2+z
x,-y,-z
-x,y,1/2-z
-x,-y,-z
x,y,1/2-z
-x,y,z
x,-y,1/2+z
1/2+x,1/2+y,z
1/2-x,1/2-y,1/2+z
1/2+x,1/2-y,-z
1/2-x,1/2+y,1/2-z
1/2-x,1/2-y,-z
1/2+x,1/2+y,1/2-z
1/2-x,1/2+y,z
1/2+x,1/2-y,1/2+z
loop_
_atom_site_type_symbol
_atom_site_label
_atom_site_fract_x
_atom_site_fract_y
_atom_site_fract_z
Si Si1 0.923327 0.049268 0.423483
Si Si2 0.689748 0.723524 0.925350
Si Si3 0.077118 0.397079 0.577487
Si Si4 0.572694 0.210578 0.073886
Si Si5 0.307169 0.950513 0.424085
Si Si6 0.181894 0.113718 0.576414
O O1 0.910335 0.043643 0.250000
O O2 0.879665 0.092187 0.487158
O O3 0.000000 0.060883 0.459154
O O4 0.900793 0.000000 0.500000
O O5 0.696791 0.728486 0.750000
O O6 0.623572 0.749731 0.985471
O O7 0.688318 0.668528 0.975287
O O8 0.750000 0.750000 0.000000
O O9 0.094557 0.403615 0.750000
O O10 0.093367 0.342959 0.523250
O O11 0.121730 0.433149 0.483105
O O12 0.000000 0.409216 0.548136
O O13 0.569360 0.210769 0.250000
O O14 0.500000 0.223453 0.009100
O O15 0.312839 0.958818 0.250000
O O16 0.250538 0.912169 0.465217
O O17 0.286370 0.000000 0.500000
O O18 0.165923 0.109406 0.750000
#
# Coordination Sequence:
#
# PCOD8258908 Si02
#       6
#    16  16  16  16  16  16
#     4  10  21  37  58  83 110 142 180 222 271 326
#     4  10  20  34  54  80 109 141 178 220 265 312
#     4   9  18  34  56  80 105 135 173 214 258 312
#     4   8  15  30  53  79 105 136 174 210 247 300
#     4  11  23  37  53  75 104 137 176 219 264 315
#     4  10  22  37  54  80 111 144 183 224 266 318
#
# _framework density 18.977634999999999
#
# number of rings (size 3 to 8) (size 9 to 14) (size 15 to 20)
#    0.000    2.333    0.000    3.500    0.000    5.667 
#    0.000    1.667    0.000    1.500    0.000    0.000 
#    0.000    0.000    0.000    0.000    0.000    0.000 
#
# Total GULP energy -595302.347875 kJ/mol
# GULP energy per Si atom -12402.132247 kJ/mol
# Density = 1.893444 g / cm^3
# Si number density = 18.977635 Si / 1000 Ang^3
#
#
#
# Elastic Constant Matrix: (Units=GPa)
#
#
# Indices 1 2 3 4 5 6 
#
# 1 110.0111 68.4680 45.9935 0.0000 0.0000 0.0000
# 2 68.4680 132.8337 48.0254 0.0000 0.0000 0.0000
# 3 45.9935 48.0254 60.7571 0.0000 0.0000 0.0000
# 4 0.0000 0.0000 0.0000 20.6708 0.0000 0.0000
# 5 0.0000 0.0000 0.0000 0.0000 30.4714 0.0000
# 6 0.0000 0.0000 0.0000 0.0000 0.0000 39.7820
#
#
#
# Elastic Compliance Matrix: (Units=1/GPa)
#
#
# Indices 1 2 3 4 5 6 
#
# 1 0.015546 -0.005262 -0.007609 0.000000 0.000000 0.000000
# 2 -0.005262 0.012322 -0.005756 0.000000 0.000000 0.000000
# 3 -0.007609 -0.005756 0.026769 0.000000 0.000000 0.000000
# 4 0.000000 0.000000 0.000000 0.048377 0.000000 0.000000
# 5 0.000000 0.000000 0.000000 0.000000 0.032818 0.000000
# 6 0.000000 0.000000 0.000000 0.000000 0.000000 0.025137
#
#
# Mechanical properties :
#
#
# Convention : Reuss Voigt Hill
#
# Bulk Modulus (GPa) = 57.53044 69.84175 63.68609
# Shear Modulus (GPa) = 24.50764 27.59252 26.05008
#
# Velocity S-wave (km/s) = 3.59750 3.81721 3.70898
# Velocity P-wave (km/s) = 6.90193 7.50401 7.20926
#
# Compressibility (1/GPa) = 0.01738210
#
# Stress axis : x y z
#
# Youngs Moduli (GPa) = 64.32425 81.15805 37.35642
#
# Poissons Ratio (x) = 0.42706 0.28425
# Poissons Ratio (y) = 0.33848 0.21503
# Poissons Ratio (z) = 0.48945 0.46716
#
# Static dielectric constant tensor:
#      x y z
#    x 3.368150 0.000000 0.000000 
#    y 0.000000 3.360560 0.000000 
#    z 0.000000 0.000000 3.248820 
# 
# 
# High freq. dielectric constant tensor:
#      x y z
#    x 1.748900 0.000000 0.000000 
#    y 0.000000 1.743400 0.000000 
#    z 0.000000 0.000000 1.718530 
# 
# From -- ./inp_files/8624.got.cif
#   From: 2010.03.12/outbox.cif.g09.slc.cpg/sg63_5_cif.got.tgz:8624.got - 2010.04.10 19:34:48.
