data_PCOD8258729
_publ_section_title
;
Structure prediction by ZEFSAII (Michael W. Deem and Ramdas Pophale) SiO2 
 PCOD8258729
Probable space group: C M C M
;
_chemical_formula_sum "Si O2"
_cell_formula_units_Z 72
_cell_length_a 27.333294
_cell_length_b 14.728872
_cell_length_c 8.941563
_cell_angle_alpha 90.000000
_cell_angle_beta 90.000000
_cell_angle_gamma 90.000000
_cell_volume 3599.771229
_symmetry_space_group_name_H-M "C M C M"
_symmetry_group_IT_number 63
_symmetry_cell_setting 'orthorhombic'
loop_
_space_group_symop_operation_xyz
x,y,z
-x,-y,1/2+z
x,-y,-z
-x,y,1/2-z
-x,-y,-z
x,y,1/2-z
-x,y,z
x,-y,1/2+z
1/2+x,1/2+y,z
1/2-x,1/2-y,1/2+z
1/2+x,1/2-y,-z
1/2-x,1/2+y,1/2-z
1/2-x,1/2-y,-z
1/2+x,1/2+y,1/2-z
1/2-x,1/2+y,z
1/2+x,1/2-y,1/2+z
loop_
_atom_site_type_symbol
_atom_site_label
_atom_site_fract_x
_atom_site_fract_y
_atom_site_fract_z
Si Si1 0.909763 0.720614 0.573679
Si Si2 0.771679 0.162034 0.921926
Si Si3 0.000000 0.399515 0.429055
Si Si4 0.169132 0.587109 0.917618
Si Si5 0.369549 0.406042 0.928232
O O1 0.914684 0.722571 0.750000
O O2 0.954101 0.659932 0.510242
O O3 0.858110 0.676910 0.518931
O O4 0.907557 0.826297 0.521454
O O5 0.786706 0.182489 0.750000
O O6 0.727450 0.090388 0.928112
O O7 0.750000 0.250000 0.000000
O O8 0.815779 0.118195 0.012659
O O9 0.000000 0.500000 0.500000
O O10 0.000000 0.410058 0.250000
O O11 0.150700 0.575467 0.750000
O O12 0.148216 0.500000 0.000000
O O13 0.366421 0.416318 0.750000
O O14 0.388188 0.500000 0.000000
#
# Coordination Sequence:
#
# PCOD8258729 Si02
#       5
#    16  16   8  16  16
#     4   9  19  37  58  81 113 148 185 231 286 344
#     4  11  21  35  55  80 114 154 195 236 284 334
#     4  10  20  38  65  90 114 148 183 226 289 348
#     4  10  20  34  51  77 110 145 182 226 275 331
#     4  11  22  39  58  81 115 153 197 241 285 342
#
# _framework density 20.001270000000002
#
# number of rings (size 3 to 8) (size 9 to 14) (size 15 to 20)
#    0.000    1.778    2.222    2.667    0.000    3.556 
#    0.000    2.778    0.000    0.000    0.000    0.000 
#    0.000    0.000    0.000    0.000    0.000    0.000 
#
# Total GULP energy -446120.591949 kJ/mol
# GULP energy per Si atom -12392.238665 kJ/mol
# Density = 1.995575 g / cm^3
# Si number density = 20.001270 Si / 1000 Ang^3
#
#
#
# Elastic Constant Matrix: (Units=GPa)
#
#
# Indices 1 2 3 4 5 6 
#
# 1 92.8015 56.1955 23.2051 0.0000 0.0000 0.0000
# 2 56.1955 188.8185 53.7056 0.0000 0.0000 0.0000
# 3 23.2051 53.7056 76.9799 0.0000 0.0000 0.0000
# 4 0.0000 0.0000 0.0000 37.7487 0.0000 0.0000
# 5 0.0000 0.0000 0.0000 0.0000 17.6534 0.0000
# 6 0.0000 0.0000 0.0000 0.0000 0.0000 33.7022
#
#
#
# Elastic Compliance Matrix: (Units=1/GPa)
#
#
# Indices 1 2 3 4 5 6 
#
# 1 0.013292 -0.003514 -0.001556 0.000000 0.000000 0.000000
# 2 -0.003514 0.007536 -0.004198 0.000000 0.000000 0.000000
# 3 -0.001556 -0.004198 0.016388 0.000000 0.000000 0.000000
# 4 0.000000 0.000000 0.000000 0.026491 0.000000 0.000000
# 5 0.000000 0.000000 0.000000 0.000000 0.056646 0.000000
# 6 0.000000 0.000000 0.000000 0.000000 0.000000 0.029672
#
#
# Mechanical properties :
#
#
# Convention : Reuss Voigt Hill
#
# Bulk Modulus (GPa) = 53.52886 69.42359 61.47623
# Shear Modulus (GPa) = 28.60615 32.85378 30.72996
#
# Velocity S-wave (km/s) = 3.78592 4.05728 3.92395
# Velocity P-wave (km/s) = 6.77730 7.53217 7.16468
#
# Compressibility (1/GPa) = 0.01868151
#
# Stress axis : x y z
#
# Youngs Moduli (GPa) = 75.23166 132.69793 61.01889
#
# Poissons Ratio (x) = 0.46624 0.09492
# Poissons Ratio (y) = 0.26433 0.25618
# Poissons Ratio (z) = 0.11703 0.55711
#
# Static dielectric constant tensor:
#      x y z
#    x 3.774900 0.000000 0.000000 
#    y 0.000000 4.197050 0.000000 
#    z 0.000000 0.000000 3.486550 
# 
# 
# High freq. dielectric constant tensor:
#      x y z
#    x 1.763830 0.000000 0.000000 
#    y 0.000000 1.796300 0.000000 
#    z 0.000000 0.000000 1.759590 
# 
# From -- ./inp_files/11679.got.cif
#   From: 2010.03.12/outbox.cif.g09.slc.cpg/sg63_6_cif.got.tgz:11679.got - 2010.04.10 19:34:48.
