data_PCOD8258221
_publ_section_title
;
Structure prediction by ZEFSAII (Michael W. Deem and Ramdas Pophale) SiO2 
 PCOD8258221
Probable space group: C M C M
;
_chemical_formula_sum "Si O2"
_cell_formula_units_Z 80
_cell_length_a 7.726317
_cell_length_b 28.865237
_cell_length_c 20.491744
_cell_angle_alpha 90.000000
_cell_angle_beta 90.000000
_cell_angle_gamma 90.000000
_cell_volume 4570.109143
_symmetry_space_group_name_H-M "C M C M"
_symmetry_group_IT_number 63
_symmetry_cell_setting 'orthorhombic'
loop_
_space_group_symop_operation_xyz
x,y,z
-x,-y,1/2+z
x,-y,-z
-x,y,1/2-z
-x,-y,-z
x,y,1/2-z
-x,y,z
x,-y,1/2+z
1/2+x,1/2+y,z
1/2-x,1/2-y,1/2+z
1/2+x,1/2-y,-z
1/2-x,1/2+y,1/2-z
1/2-x,1/2-y,-z
1/2+x,1/2+y,1/2-z
1/2-x,1/2+y,z
1/2+x,1/2-y,1/2+z
loop_
_atom_site_type_symbol
_atom_site_label
_atom_site_fract_x
_atom_site_fract_y
_atom_site_fract_z
Si Si1 0.805842 0.858249 0.654267
Si Si2 0.000000 0.450524 0.532871
Si Si3 0.193456 0.209949 0.951121
Si Si4 0.803586 0.881937 0.993021
Si Si5 0.299211 0.745062 0.177816
Si Si6 0.000000 0.425844 0.820426
O O1 0.807255 0.858250 0.577001
O O2 0.738280 0.808036 0.676514
O O3 0.673354 0.895464 0.682100
O O4 0.000000 0.868203 0.681560
O O5 0.000000 0.500000 0.500000
O O6 0.172950 0.425163 0.507164
O O7 0.000000 0.455904 0.612529
O O8 0.202558 0.224427 0.875799
O O9 0.000000 0.199379 0.971566
O O10 0.250000 0.250000 0.000000
O O11 0.279276 0.159046 0.961403
O O12 0.000000 0.898462 0.012750
O O13 0.259696 0.765368 0.250000
O O14 0.500000 0.747664 0.160133
O O15 0.000000 0.453710 0.750000
#
# Coordination Sequence:
#
# PCOD8258221 Si02
#       6
#    16   8  16  16  16   8
#     4   9  17  31  47  70 105 140 169 204 258 320
#     4  10  22  38  60  80 102 138 176 224 282 320
#     4  11  21  31  50  74 104 144 182 216 255 308
#     4   9  19  34  53  80 105 134 177 219 264 319
#     4  10  20  31  44  67 104 145 183 217 255 304
#     4  10  20  32  52  78 106 130 166 216 268 326
#
# _framework density 17.505053
#
# number of rings (size 3 to 8) (size 9 to 14) (size 15 to 20)
#    0.000    2.200    2.000    1.200    4.200    2.000 
#    0.000    0.000    0.000    1.200    0.000    0.000 
#    0.000    0.000    0.000    0.000    0.000    0.000 
#
# Total GULP energy -495559.843311 kJ/mol
# GULP energy per Si atom -12388.996083 kJ/mol
# Density = 1.746521 g / cm^3
# Si number density = 17.505053 Si / 1000 Ang^3
#
#
#
# Elastic Constant Matrix: (Units=GPa)
#
#
# Indices 1 2 3 4 5 6 
#
# 1 78.8025 39.8785 24.7812 0.0000 0.0000 0.0000
# 2 39.8785 96.3447 56.3686 0.0000 0.0000 0.0000
# 3 24.7812 56.3686 107.9935 0.0000 0.0000 0.0000
# 4 0.0000 0.0000 0.0000 16.1516 0.0000 0.0000
# 5 0.0000 0.0000 0.0000 0.0000 -9.0824 0.0000
# 6 0.0000 0.0000 0.0000 0.0000 0.0000 17.4636
#
#
#
# Elastic Compliance Matrix: (Units=1/GPa)
#
#
# Indices 1 2 3 4 5 6 
#
# 1 0.016060 -0.006466 -0.000310 0.000000 0.000000 0.000000
# 2 -0.006466 0.017546 -0.007675 0.000000 0.000000 0.000000
# 3 -0.000310 -0.007675 0.013337 0.000000 0.000000 0.000000
# 4 0.000000 0.000000 0.000000 0.061913 0.000000 0.000000
# 5 0.000000 0.000000 0.000000 0.000000 -0.110103 0.000000
# 6 0.000000 0.000000 0.000000 0.000000 0.000000 0.057262
#
#
# Mechanical properties :
#
#
# Convention : Reuss Voigt Hill
#
# Bulk Modulus (GPa) = 55.42925 58.35527 56.89226
# Shear Modulus (GPa) = 54.98741 15.71405 35.35073
#
# Velocity S-wave (km/s) = 5.61075 2.99939 4.49871
# Velocity P-wave (km/s) = 8.58530 6.73823 7.71723
#
# Compressibility (1/GPa) = 0.01804102
#
# Stress axis : x y z
#
# Youngs Moduli (GPa) = 62.26815 56.99346 74.98006
#
# Poissons Ratio (x) = 0.36851 0.02327
# Poissons Ratio (y) = 0.40261 0.57544
# Poissons Ratio (z) = 0.01932 0.43740
#
# Static dielectric constant tensor:
#      x y z
#    x 3.456530 0.000000 0.000000 
#    y 0.000000 3.863020 0.000000 
#    z 0.000000 0.000000 2.776080 
# 
# 
# High freq. dielectric constant tensor:
#      x y z
#    x 1.689010 0.000000 0.000000 
#    y 0.000000 1.623730 0.000000 
#    z 0.000000 0.000000 1.679030 
# 
# From -- ./inp_files/40738.got.cif
#   From: 2010.03.12/outbox.cif.g09.slc.cpg/sg63_21_cif.got.tgz:40738.got - 2010.04.10 19:34:48.
