data_PCOD8258094
_publ_section_title
;
Structure prediction by ZEFSAII (Michael W. Deem and Ramdas Pophale) SiO2 
 PCOD8258094
Probable space group: C M C M
;
_chemical_formula_sum "Si O2"
_cell_formula_units_Z 88
_cell_length_a 20.164701
_cell_length_b 9.313612
_cell_length_c 22.747324
_cell_angle_alpha 90.000000
_cell_angle_beta 90.000000
_cell_angle_gamma 90.000000
_cell_volume 4272.088508
_symmetry_space_group_name_H-M "C M C M"
_symmetry_group_IT_number 63
_symmetry_cell_setting 'orthorhombic'
loop_
_space_group_symop_operation_xyz
x,y,z
-x,-y,1/2+z
x,-y,-z
-x,y,1/2-z
-x,-y,-z
x,y,1/2-z
-x,y,z
x,-y,1/2+z
1/2+x,1/2+y,z
1/2-x,1/2-y,1/2+z
1/2+x,1/2-y,-z
1/2-x,1/2+y,1/2-z
1/2-x,1/2-y,-z
1/2+x,1/2+y,1/2-z
1/2-x,1/2+y,z
1/2+x,1/2-y,1/2+z
loop_
_atom_site_type_symbol
_atom_site_label
_atom_site_fract_x
_atom_site_fract_y
_atom_site_fract_z
Si Si1 0.806103 0.723655 0.682516
Si Si2 0.575568 0.713474 0.886431
Si Si3 0.575673 0.397541 0.862255
Si Si4 0.304240 0.084528 0.376207
Si Si5 0.330701 0.000000 0.500000
Si Si6 0.074114 0.748302 0.519473
O O1 0.784238 0.719651 0.750000
O O2 0.878014 0.797520 0.677477
O O3 0.754063 0.815744 0.646093
O O4 0.806760 0.562866 0.658771
O O5 0.500000 0.762052 0.872816
O O6 0.592436 0.565745 0.852329
O O7 0.624916 0.838567 0.865792
O O8 0.585114 0.682395 0.955648
O O9 0.500000 0.365407 0.843663
O O10 0.587108 0.367746 0.931315
O O11 0.287923 0.062770 0.445920
O O12 0.376205 0.881767 0.468576
O O13 0.000000 0.685532 0.525172
#
# Coordination Sequence:
#
# PCOD8258094 Si02
#       6
#    16  16  16  16   8  16
#     4  12  26  45  64  85 120 166 216 259 308 373
#     4   9  19  36  62  95 130 162 198 246 306 375
#     4  10  20  38  63  93 125 163 209 252 302 364
#     4  11  24  42  64  93 122 166 204 258 319 368
#     4  10  19  36  58  98 129 156 202 256 314 372
#     4   9  16  30  57  93 133 166 193 239 306 374
#
# _framework density 20.598825000000001
#
# number of rings (size 3 to 8) (size 9 to 14) (size 15 to 20)
#    0.000    1.818    1.818    2.455    0.000    4.727 
#    3.273    0.909    0.000    3.818    0.000    0.000 
#    0.000    0.000    0.000    0.000    0.000    0.000 
#
# Total GULP energy -545613.546171 kJ/mol
# GULP energy per Si atom -12400.307868 kJ/mol
# Density = 2.055194 g / cm^3
# Si number density = 20.598825 Si / 1000 Ang^3
#
#
#
# Elastic Constant Matrix: (Units=GPa)
#
#
# Indices 1 2 3 4 5 6 
#
# 1 106.8227 67.5935 45.4316 0.0000 0.0000 0.0000
# 2 67.5935 138.1979 42.9010 0.0000 0.0000 0.0000
# 3 45.4316 42.9010 91.1026 0.0000 0.0000 0.0000
# 4 0.0000 0.0000 0.0000 18.5767 0.0000 0.0000
# 5 0.0000 0.0000 0.0000 0.0000 14.2601 0.0000
# 6 0.0000 0.0000 0.0000 0.0000 0.0000 22.9164
#
#
#
# Elastic Compliance Matrix: (Units=1/GPa)
#
#
# Indices 1 2 3 4 5 6 
#
# 1 0.015134 -0.005925 -0.004757 0.000000 0.000000 0.000000
# 2 -0.005925 0.010795 -0.002129 0.000000 0.000000 0.000000
# 3 -0.004757 -0.002129 0.014351 0.000000 0.000000 0.000000
# 4 0.000000 0.000000 0.000000 0.053831 0.000000 0.000000
# 5 0.000000 0.000000 0.000000 0.000000 0.070126 0.000000
# 6 0.000000 0.000000 0.000000 0.000000 0.000000 0.043637
#
#
# Mechanical properties :
#
#
# Convention : Reuss Voigt Hill
#
# Bulk Modulus (GPa) = 68.21952 71.99726 70.10839
# Shear Modulus (GPa) = 20.97488 23.16377 22.06933
#
# Velocity S-wave (km/s) = 3.19447 3.35702 3.27676
# Velocity P-wave (km/s) = 6.84078 7.07489 6.95882
#
# Compressibility (1/GPa) = 0.01465856
#
# Stress axis : x y z
#
# Youngs Moduli (GPa) = 66.07796 92.63651 69.68140
#
# Poissons Ratio (x) = 0.54890 0.33145
# Poissons Ratio (y) = 0.39153 0.14832
# Poissons Ratio (z) = 0.31431 0.19718
#
# Static dielectric constant tensor:
#      x y z
#    x 3.809070 0.000000 0.000000 
#    y 0.000000 3.823330 0.000000 
#    z 0.000000 0.000000 3.544950 
# 
# 
# High freq. dielectric constant tensor:
#      x y z
#    x 1.805040 0.000000 0.000000 
#    y 0.000000 1.814110 0.000000 
#    z 0.000000 0.000000 1.785360 
# 
# From -- ./inp_files/64414.got.cif
#   From: 2010.03.12/outbox.cif.g09.slc.cpg/sg63_33_cif.got.tgz:64414.got - 2010.04.10 19:34:48.
