data_PCOD8258076
_publ_section_title
;
Structure prediction by ZEFSAII (Michael W. Deem and Ramdas Pophale) SiO2 
 PCOD8258076
Probable space group: C M C M
;
_chemical_formula_sum "Si O2"
_cell_formula_units_Z 128
_cell_length_a 22.517490
_cell_length_b 18.349060
_cell_length_c 18.142179
_cell_angle_alpha 90.000000
_cell_angle_beta 90.000000
_cell_angle_gamma 90.000000
_cell_volume 7495.890727
_symmetry_space_group_name_H-M "C M C M"
_symmetry_group_IT_number 63
_symmetry_cell_setting 'orthorhombic'
loop_
_space_group_symop_operation_xyz
x,y,z
-x,-y,1/2+z
x,-y,-z
-x,y,1/2-z
-x,-y,-z
x,y,1/2-z
-x,y,z
x,-y,1/2+z
1/2+x,1/2+y,z
1/2-x,1/2-y,1/2+z
1/2+x,1/2-y,-z
1/2-x,1/2+y,1/2-z
1/2-x,1/2-y,-z
1/2+x,1/2+y,1/2-z
1/2-x,1/2+y,z
1/2+x,1/2-y,1/2+z
loop_
_atom_site_type_symbol
_atom_site_label
_atom_site_fract_x
_atom_site_fract_y
_atom_site_fract_z
Si Si1 0.776320 0.377709 0.833641
Si Si2 0.842289 0.208124 0.166920
Si Si3 0.287562 0.827579 0.425354
Si Si4 0.431962 0.615173 0.414301
Si Si5 0.376638 0.476515 0.162833
Si Si6 0.931738 0.849410 0.421097
Si Si7 0.747125 0.484272 0.416182
Si Si8 0.670345 0.239845 0.430078
O O1 0.793471 0.396281 0.750000
O O2 0.707727 0.354005 0.840683
O O3 0.785334 0.448569 0.884409
O O4 0.818222 0.312003 0.860182
O O5 0.865548 0.214148 0.250000
O O6 0.816125 0.286349 0.144136
O O7 0.896094 0.185396 0.114270
O O8 0.289338 0.913719 0.411476
O O9 0.326639 0.809197 0.496870
O O10 0.219126 0.803944 0.437044
O O11 0.500000 0.629169 0.394262
O O12 0.411038 0.542320 0.374995
O O13 0.422518 0.607838 0.501892
O O14 0.375740 0.489051 0.250000
O O15 0.410878 0.401912 0.144634
O O16 0.309895 0.471019 0.134156
O O17 0.894177 0.774997 0.420456
O O18 0.000000 0.827186 0.409080
O O19 0.727434 0.500000 0.500000
#
# Coordination Sequence:
#
# PCOD8258076 Si02
#       8
#    16  16  16  16  16  16  16  16
#     4  10  21  35  54  81 112 142 180 226 276 328
#     4  10  20  34  52  77 110 143 180 228 273 321
#     4  10  20  33  55  78 106 141 178 225 275 331
#     4  11  22  37  56  77 107 152 196 228 262 317
#     4  12  25  36  50  78 118 152 189 228 263 318
#     4  11  23  39  59  79 106 145 194 235 268 322
#     4  12  21  34  57  83 109 149 183 222 275 335
#     4  10  19  36  55  79 106 141 181 226 277 321
#
# _framework density 17.076021999999998
#
# number of rings (size 3 to 8) (size 9 to 14) (size 15 to 20)
#    0.000    1.250    5.000    2.250    0.000    4.250 
#    0.000    0.000    0.000    0.000    0.000    2.625 
#    0.000    0.000    0.000    0.000    0.000    0.000 
#
# Total GULP energy -793901.707933 kJ/mol
# GULP energy per Si atom -12404.714186 kJ/mol
# Density = 1.703716 g / cm^3
# Si number density = 17.076022 Si / 1000 Ang^3
#
#
#
# Elastic Constant Matrix: (Units=GPa)
#
#
# Indices 1 2 3 4 5 6 
#
# 1 75.0721 42.5943 19.8107 0.0000 0.0000 0.0000
# 2 42.5943 100.3403 33.3064 0.0000 0.0000 0.0000
# 3 19.8107 33.3064 85.3357 0.0000 0.0000 0.0000
# 4 0.0000 0.0000 0.0000 23.6169 0.0000 0.0000
# 5 0.0000 0.0000 0.0000 0.0000 15.5528 0.0000
# 6 0.0000 0.0000 0.0000 0.0000 0.0000 21.5016
#
#
#
# Elastic Compliance Matrix: (Units=1/GPa)
#
#
# Indices 1 2 3 4 5 6 
#
# 1 0.017681 -0.007057 -0.001350 0.000000 0.000000 0.000000
# 2 -0.007057 0.014266 -0.003930 0.000000 0.000000 0.000000
# 3 -0.001350 -0.003930 0.013566 0.000000 0.000000 0.000000
# 4 0.000000 0.000000 0.000000 0.042343 0.000000 0.000000
# 5 0.000000 0.000000 0.000000 0.000000 0.064297 0.000000
# 6 0.000000 0.000000 0.000000 0.000000 0.000000 0.046508
#
#
# Mechanical properties :
#
#
# Convention : Reuss Voigt Hill
#
# Bulk Modulus (GPa) = 47.98837 50.24122 49.11480
# Shear Modulus (GPa) = 21.71252 23.13669 22.42460
#
# Velocity S-wave (km/s) = 3.56971 3.68492 3.62777
# Velocity P-wave (km/s) = 6.71969 6.89861 6.80974
#
# Compressibility (1/GPa) = 0.02083838
#
# Stress axis : x y z
#
# Youngs Moduli (GPa) = 56.55772 70.09488 73.71560
#
# Poissons Ratio (x) = 0.49469 0.09953
# Poissons Ratio (y) = 0.39915 0.28968
# Poissons Ratio (z) = 0.07636 0.27546
#
# Static dielectric constant tensor:
#      x y z
#    x 2.981180 0.000000 0.000000 
#    y 0.000000 3.168740 0.000000 
#    z 0.000000 0.000000 3.322410 
# 
# 
# High freq. dielectric constant tensor:
#      x y z
#    x 1.625230 0.000000 0.000000 
#    y 0.000000 1.653430 0.000000 
#    z 0.000000 0.000000 1.671610 
# 
# From -- ./inp_files/48432.got.cif
#   From: 2010.03.12/outbox.cif.g09.slc.cpg/sg63_25_cif.got.tgz:48432.got - 2010.04.10 19:34:48.
