data_PCOD8258540
_publ_section_title
;
Structure prediction by ZEFSAII (Michael W. Deem and Ramdas Pophale) SiO2 
 PCOD8258540
Probable space group: C M C M
;
_chemical_formula_sum "Si O2"
_cell_formula_units_Z 96
_cell_length_a 9.412443
_cell_length_b 18.340208
_cell_length_c 30.516464
_cell_angle_alpha 90.000000
_cell_angle_beta 90.000000
_cell_angle_gamma 90.000000
_cell_volume 5267.940071
_symmetry_space_group_name_H-M "C M C M"
_symmetry_group_IT_number 63
_symmetry_cell_setting 'orthorhombic'
loop_
_space_group_symop_operation_xyz
x,y,z
-x,-y,1/2+z
x,-y,-z
-x,y,1/2-z
-x,-y,-z
x,y,1/2-z
-x,y,z
x,-y,1/2+z
1/2+x,1/2+y,z
1/2-x,1/2-y,1/2+z
1/2+x,1/2-y,-z
1/2-x,1/2+y,1/2-z
1/2-x,1/2-y,-z
1/2+x,1/2+y,1/2-z
1/2-x,1/2+y,z
1/2+x,1/2-y,1/2+z
loop_
_atom_site_type_symbol
_atom_site_label
_atom_site_fract_x
_atom_site_fract_y
_atom_site_fract_z
Si Si1 0.667939 0.297947 0.376964
Si Si2 0.666137 0.460957 0.381155
Si Si3 0.337300 0.556305 0.200595
Si Si4 0.665901 0.041899 0.043990
Si Si5 0.166595 0.699140 0.299637
Si Si6 0.333359 0.789347 0.961876
O O1 0.500000 0.304169 0.375183
O O2 0.729967 0.379173 0.382922
O O3 0.722960 0.262925 0.331495
O O4 0.717701 0.246436 0.416490
O O5 0.500000 0.462908 0.393084
O O6 0.694512 0.490029 0.332157
O O7 0.747380 0.510454 0.415646
O O8 0.301608 0.529811 0.250000
O O9 0.500000 0.581789 0.197002
O O10 0.241527 0.624378 0.186891
O O11 0.500000 0.032178 0.054158
O O12 0.707547 0.126023 0.038411
O O13 0.710465 0.000000 0.000000
O O14 0.204071 0.722141 0.250000
O O15 0.000000 0.685757 0.306064
O O16 0.500000 0.777824 0.969703
O O17 0.250000 0.750000 0.000000
#
# Coordination Sequence:
#
# PCOD8258540 Si02
#       6
#    16  16  16  16  16  16
#     4   9  18  32  49  72 100 126 158 202 244 280
#     4  10  20  33  51  74  99 131 168 203 243 292
#     4   9  18  32  49  71 100 130 160 199 246 291
#     4  10  21  36  53  74 101 131 162 201 251 299
#     4   9  17  31  53  76  97 128 168 204 241 290
#     4  10  20  34  52  72  97 128 160 199 244 288
#
# _framework density 18.223441999999999
#
# number of rings (size 3 to 8) (size 9 to 14) (size 15 to 20)
#    0.000    2.500    0.000    2.000    0.000    3.667 
#    0.000    5.000    0.000    0.000    0.000    4.667 
#    0.000    0.000    0.000    0.000    0.000    0.000 
#
# Total GULP energy -595258.722973 kJ/mol
# GULP energy per Si atom -12401.223395 kJ/mol
# Density = 1.818196 g / cm^3
# Si number density = 18.223442 Si / 1000 Ang^3
#
#
#
# Elastic Constant Matrix: (Units=GPa)
#
#
# Indices 1 2 3 4 5 6 
#
# 1 36.4125 43.6948 41.7602 0.0000 0.0000 0.0000
# 2 43.6948 161.7363 89.2861 0.0000 0.0000 0.0000
# 3 41.7602 89.2861 133.6513 0.0000 0.0000 0.0000
# 4 0.0000 0.0000 0.0000 38.2549 0.0000 0.0000
# 5 0.0000 0.0000 0.0000 0.0000 27.4328 0.0000
# 6 0.0000 0.0000 0.0000 0.0000 0.0000 22.1240
#
#
#
# Elastic Compliance Matrix: (Units=1/GPa)
#
#
# Indices 1 2 3 4 5 6 
#
# 1 0.047801 -0.007397 -0.009995 0.000000 0.000000 0.000000
# 2 -0.007397 0.010940 -0.004997 0.000000 0.000000 0.000000
# 3 -0.009995 -0.004997 0.013944 0.000000 0.000000 0.000000
# 4 0.000000 0.000000 0.000000 0.026140 0.000000 0.000000
# 5 0.000000 0.000000 0.000000 0.000000 0.036453 0.000000
# 6 0.000000 0.000000 0.000000 0.000000 0.000000 0.045200
#
#
# Mechanical properties :
#
#
# Convention : Reuss Voigt Hill
#
# Bulk Modulus (GPa) = 35.83220 75.69805 55.76512
# Shear Modulus (GPa) = 21.31675 28.03294 24.67484
#
# Velocity S-wave (km/s) = 3.42386 3.92636 3.68369
# Velocity P-wave (km/s) = 5.94439 7.88569 6.98283
#
# Compressibility (1/GPa) = 0.02790786
#
# Stress axis : x y z
#
# Youngs Moduli (GPa) = 20.91989 91.40816 71.71796
#
# Poissons Ratio (x) = 0.67611 0.71679
# Poissons Ratio (y) = 0.15474 0.35840
# Poissons Ratio (z) = 0.20908 0.45680
#
# Static dielectric constant tensor:
#      x y z
#    x 3.164160 0.000000 0.000000 
#    y 0.000000 3.587240 0.000000 
#    z 0.000000 0.000000 3.571130 
# 
# 
# High freq. dielectric constant tensor:
#      x y z
#    x 1.681910 0.000000 0.000000 
#    y 0.000000 1.712180 0.000000 
#    z 0.000000 0.000000 1.720800 
# 
# From -- ./inp_files/68318.got.cif
#   From: 2010.03.12/outbox.cif.g09.slc.cpg/sg63_35_cif.got.tgz:68318.got - 2010.04.10 19:34:48.
