data_PCOD8258291
_publ_section_title
;
Structure prediction by ZEFSAII (Michael W. Deem and Ramdas Pophale) SiO2 
 PCOD8258291
Probable space group: C M C M
;
_chemical_formula_sum "Si O2"
_cell_formula_units_Z 96
_cell_length_a 18.131889
_cell_length_b 28.459192
_cell_length_c 9.709388
_cell_angle_alpha 90.000000
_cell_angle_beta 90.000000
_cell_angle_gamma 90.000000
_cell_volume 5010.227816
_symmetry_space_group_name_H-M "C M C M"
_symmetry_group_IT_number 63
_symmetry_cell_setting 'orthorhombic'
loop_
_space_group_symop_operation_xyz
x,y,z
-x,-y,1/2+z
x,-y,-z
-x,y,1/2-z
-x,-y,-z
x,y,1/2-z
-x,y,z
x,-y,1/2+z
1/2+x,1/2+y,z
1/2-x,1/2-y,1/2+z
1/2+x,1/2-y,-z
1/2-x,1/2+y,1/2-z
1/2-x,1/2-y,-z
1/2+x,1/2+y,1/2-z
1/2-x,1/2+y,z
1/2+x,1/2-y,1/2+z
loop_
_atom_site_type_symbol
_atom_site_label
_atom_site_fract_x
_atom_site_fract_y
_atom_site_fract_z
Si Si1 0.915714 0.038922 0.901678
Si Si2 0.587405 0.792739 0.597377
Si Si3 0.584957 0.290347 0.593437
Si Si4 0.918239 0.395983 0.586096
Si Si5 0.218335 0.545132 0.409687
Si Si6 0.643924 0.609771 0.094046
O O1 0.877328 0.039997 0.750000
O O2 0.000000 0.025095 0.879587
O O3 0.910824 0.088234 0.980285
O O4 0.876369 0.000000 0.000000
O O5 0.621684 0.785588 0.750000
O O6 0.500000 0.789465 0.606241
O O7 0.617445 0.751671 0.499006
O O8 0.607869 0.844121 0.535749
O O9 0.588635 0.272956 0.750000
O O10 0.500000 0.303689 0.555537
O O11 0.639714 0.334457 0.570645
O O12 0.920817 0.393548 0.750000
O O13 0.860606 0.435464 0.537143
O O14 0.000000 0.408584 0.528300
O O15 0.239910 0.500000 0.500000
O O16 0.215572 0.530100 0.250000
O O17 0.275250 0.588184 0.432003
O O18 0.617118 0.597653 0.250000
#
# Coordination Sequence:
#
# PCOD8258291 Si02
#       6
#    16  16  16  16  16  16
#     4  10  20  32  47  67  90 120 162 210 253 291
#     4   8  14  27  49  74  97 124 160 199 238 284
#     4   9  17  29  46  69  98 131 164 199 240 283
#     4   8  15  31  55  78  99 126 160 198 244 301
#     4  10  21  36  53  73  98 129 165 205 250 299
#     4  10  20  33  48  67  96 134 169 201 241 290
#
# _framework density 19.160805
#
# number of rings (size 3 to 8) (size 9 to 14) (size 15 to 20)
#    0.000    2.833    0.000    2.500    0.000    4.667 
#    0.000    3.333    0.000    1.000    0.000    0.000 
#    0.000    0.000    0.000    0.000    0.000    0.000 
#
# Total GULP energy -594850.781051 kJ/mol
# GULP energy per Si atom -12392.724605 kJ/mol
# Density = 1.911719 g / cm^3
# Si number density = 19.160805 Si / 1000 Ang^3
#
#
#
# Elastic Constant Matrix: (Units=GPa)
#
#
# Indices 1 2 3 4 5 6 
#
# 1 62.6286 35.8969 21.9726 0.0000 0.0000 0.0000
# 2 35.8969 92.0674 43.6398 0.0000 0.0000 0.0000
# 3 21.9726 43.6398 91.2334 0.0000 0.0000 0.0000
# 4 0.0000 0.0000 0.0000 25.8439 0.0000 0.0000
# 5 0.0000 0.0000 0.0000 0.0000 12.6538 0.0000
# 6 0.0000 0.0000 0.0000 0.0000 0.0000 23.6805
#
#
#
# Elastic Compliance Matrix: (Units=1/GPa)
#
#
# Indices 1 2 3 4 5 6 
#
# 1 0.020711 -0.007385 -0.001455 0.000000 0.000000 0.000000
# 2 -0.007385 0.016680 -0.006200 0.000000 0.000000 0.000000
# 3 -0.001455 -0.006200 0.014277 0.000000 0.000000 0.000000
# 4 0.000000 0.000000 0.000000 0.038694 0.000000 0.000000
# 5 0.000000 0.000000 0.000000 0.000000 0.079028 0.000000
# 6 0.000000 0.000000 0.000000 0.000000 0.000000 0.042229
#
#
# Mechanical properties :
#
#
# Convention : Reuss Voigt Hill
#
# Bulk Modulus (GPa) = 46.32489 49.88312 48.10400
# Shear Modulus (GPa) = 20.08884 22.06365 21.07624
#
# Velocity S-wave (km/s) = 3.24147 3.39706 3.32017
# Velocity P-wave (km/s) = 6.18376 6.44027 6.31332
#
# Compressibility (1/GPa) = 0.02158667
#
# Stress axis : x y z
#
# Youngs Moduli (GPa) = 48.28410 59.95278 70.04287
#
# Poissons Ratio (x) = 0.44277 0.10194
# Poissons Ratio (y) = 0.35659 0.43425
# Poissons Ratio (z) = 0.07027 0.37170
#
# Static dielectric constant tensor:
#      x y z
#    x 3.368290 0.000000 0.000000 
#    y 0.000000 3.559570 0.000000 
#    z 0.000000 0.000000 3.604360 
# 
# 
# High freq. dielectric constant tensor:
#      x y z
#    x 1.718700 0.000000 0.000000 
#    y 0.000000 1.741370 0.000000 
#    z 0.000000 0.000000 1.727900 
# 
# From -- ./inp_files/8522.got.cif
#   From: 2010.03.12/outbox.cif.g09.slc.cpg/sg63_5_cif.got.tgz:8522.got - 2010.04.10 19:34:48.
