data_PCOD8258310
_publ_section_title
;
Structure prediction by ZEFSAII (Michael W. Deem and Ramdas Pophale) SiO2 
 PCOD8258310
Probable space group: C M C M
;
_chemical_formula_sum "Si O2"
_cell_formula_units_Z 96
_cell_length_a 9.030464
_cell_length_b 27.244961
_cell_length_c 23.146786
_cell_angle_alpha 90.000000
_cell_angle_beta 90.000000
_cell_angle_gamma 90.000000
_cell_volume 5694.911149
_symmetry_space_group_name_H-M "C M C M"
_symmetry_group_IT_number 63
_symmetry_cell_setting 'orthorhombic'
loop_
_space_group_symop_operation_xyz
x,y,z
-x,-y,1/2+z
x,-y,-z
-x,y,1/2-z
-x,-y,-z
x,y,1/2-z
-x,y,z
x,-y,1/2+z
1/2+x,1/2+y,z
1/2-x,1/2-y,1/2+z
1/2+x,1/2-y,-z
1/2-x,1/2+y,1/2-z
1/2-x,1/2-y,-z
1/2+x,1/2+y,1/2-z
1/2-x,1/2+y,z
1/2+x,1/2-y,1/2+z
loop_
_atom_site_type_symbol
_atom_site_label
_atom_site_fract_x
_atom_site_fract_y
_atom_site_fract_z
Si Si1 0.173288 0.264115 0.911300
Si Si2 0.672658 0.820980 0.473422
Si Si3 0.329562 0.577973 0.521872
Si Si4 0.330025 0.482706 0.908913
Si Si5 0.827735 0.824903 0.817072
Si Si6 0.671397 0.074598 0.183667
O O1 0.238783 0.211136 0.926950
O O2 0.249716 0.282018 0.852745
O O3 0.000000 0.258535 0.900389
O O4 0.209570 0.302703 0.962058
O O5 0.500000 0.816193 0.459684
O O6 0.722213 0.876818 0.466761
O O7 0.500000 0.595403 0.521698
O O8 0.301816 0.538753 0.572669
O O9 0.288180 0.553536 0.461038
O O10 0.500000 0.475225 0.890988
O O11 0.226607 0.471015 0.854397
O O12 0.798271 0.813840 0.750000
O O13 0.760093 0.877070 0.835103
O O14 0.000000 0.826105 0.832317
O O15 0.701750 0.060874 0.250000
O O16 0.500000 0.084994 0.171844
#
# Coordination Sequence:
#
# PCOD8258310 Si02
#       6
#    16  16  16  16  16  16
#     4  10  20  33  50  72  98 128 160 196 238 283
#     4  10  20  32  48  72  99 128 161 196 237 284
#     4   9  18  32  49  71  98 126 157 196 240 283
#     4   9  18  32  50  71  96 127 160 194 236 285
#     4  10  20  33  50  72  98 128 160 195 237 284
#     4  10  20  32  47  70  99 128 159 196 236 278
#
# _framework density 16.857156
#
# number of rings (size 3 to 8) (size 9 to 14) (size 15 to 20)
#    0.000    2.333    0.000    4.000    0.000    8.000 
#    0.000    1.667    0.000    1.000    0.000    4.667 
#    0.000    0.000    0.000    0.000    0.000    0.000 
#
# Total GULP energy -595396.265275 kJ/mol
# GULP energy per Si atom -12404.088860 kJ/mol
# Density = 1.681879 g / cm^3
# Si number density = 16.857156 Si / 1000 Ang^3
#
#
#
# Elastic Constant Matrix: (Units=GPa)
#
#
# Indices 1 2 3 4 5 6 
#
# 1 94.1549 48.3483 47.7672 0.0000 0.0000 0.0000
# 2 48.3483 96.5736 40.5235 0.0000 0.0000 0.0000
# 3 47.7672 40.5235 72.2079 0.0000 0.0000 0.0000
# 4 0.0000 0.0000 0.0000 27.4346 0.0000 0.0000
# 5 0.0000 0.0000 0.0000 0.0000 30.6754 0.0000
# 6 0.0000 0.0000 0.0000 0.0000 0.0000 34.9318
#
#
#
# Elastic Compliance Matrix: (Units=1/GPa)
#
#
# Indices 1 2 3 4 5 6 
#
# 1 0.017771 -0.005185 -0.008846 0.000000 0.000000 0.000000
# 2 -0.005185 0.015057 -0.005020 0.000000 0.000000 0.000000
# 3 -0.008846 -0.005020 0.022518 0.000000 0.000000 0.000000
# 4 0.000000 0.000000 0.000000 0.036450 0.000000 0.000000
# 5 0.000000 0.000000 0.000000 0.000000 0.032599 0.000000
# 6 0.000000 0.000000 0.000000 0.000000 0.000000 0.028627
#
#
# Mechanical properties :
#
#
# Convention : Reuss Voigt Hill
#
# Bulk Modulus (GPa) = 57.99174 59.57937 58.78556
# Shear Modulus (GPa) = 25.39695 27.02819 26.21257
#
# Velocity S-wave (km/s) = 3.88570 4.00855 3.94760
# Velocity P-wave (km/s) = 7.38973 7.53956 7.46502
#
# Compressibility (1/GPa) = 0.01724383
#
# Stress axis : x y z
#
# Youngs Moduli (GPa) = 56.27098 66.41392 44.40839
#
# Poissons Ratio (x) = 0.34435 0.39285
# Poissons Ratio (y) = 0.29176 0.22294
# Poissons Ratio (z) = 0.49779 0.33341
#
# Static dielectric constant tensor:
#      x y z
#    x 3.186860 0.000000 0.000000 
#    y 0.000000 3.016260 0.000000 
#    z 0.000000 0.000000 3.056780 
# 
# 
# High freq. dielectric constant tensor:
#      x y z
#    x 1.661940 0.000000 0.000000 
#    y 0.000000 1.639230 0.000000 
#    z 0.000000 0.000000 1.637520 
# 
# From -- ./inp_files/51264.got.cif
#   From: 2010.03.12/outbox.cif.g09.slc.cpg/sg63_26_cif.got.tgz:51264.got - 2010.04.10 19:34:48.
