data_PCOD8258039
_publ_section_title
;
Structure prediction by ZEFSAII (Michael W. Deem and Ramdas Pophale) SiO2 
 PCOD8258039
Probable space group: C M C M
;
_chemical_formula_sum "Si O2"
_cell_formula_units_Z 72
_cell_length_a 21.389938
_cell_length_b 9.189255
_cell_length_c 19.244832
_cell_angle_alpha 90.000000
_cell_angle_beta 90.000000
_cell_angle_gamma 90.000000
_cell_volume 3782.717889
_symmetry_space_group_name_H-M "C M C M"
_symmetry_group_IT_number 63
_symmetry_cell_setting 'orthorhombic'
loop_
_space_group_symop_operation_xyz
x,y,z
-x,-y,1/2+z
x,-y,-z
-x,y,1/2-z
-x,-y,-z
x,y,1/2-z
-x,y,z
x,-y,1/2+z
1/2+x,1/2+y,z
1/2-x,1/2-y,1/2+z
1/2+x,1/2-y,-z
1/2-x,1/2+y,1/2-z
1/2-x,1/2-y,-z
1/2+x,1/2+y,1/2-z
1/2-x,1/2+y,z
1/2+x,1/2-y,1/2+z
loop_
_atom_site_type_symbol
_atom_site_label
_atom_site_fract_x
_atom_site_fract_y
_atom_site_fract_z
Si Si1 0.500000 0.262928 0.633032
Si Si2 0.395236 0.500000 0.500000
Si Si3 0.000000 0.572829 0.352705
Si Si4 0.868203 0.900251 0.855910
Si Si5 0.500000 0.287707 0.472626
Si Si6 0.183131 0.683286 0.750000
Si Si7 0.823634 0.122010 0.750000
Si Si8 0.104638 0.401155 0.750000
O O1 0.560333 0.352353 0.658230
O O2 0.500000 0.239965 0.551410
O O3 0.500000 0.099679 0.660723
O O4 0.354684 0.420048 0.560729
O O5 0.438613 0.385532 0.457690
O O6 0.000000 0.637372 0.430081
O O7 0.062793 0.631823 0.317397
O O8 0.823237 0.779725 0.820442
O O9 0.854391 0.052304 0.818505
O O10 0.249190 0.601977 0.750000
O O11 0.128965 0.564900 0.750000
O O12 0.836864 0.293165 0.750000
#
# Coordination Sequence:
#
# PCOD8258039 Si02
#       8
#     8   8   8  16   8   8   8   8
#     4  10  19  35  59  86 113 147 186 225 298 348
#     4   9  18  36  58  90 114 152 196 229 284 354
#     4  11  20  32  52  86 123 142 180 233 294 343
#     4  10  21  38  64  83 116 151 189 240 289 351
#     4   9  18  31  53  84 124 151 171 226 288 356
#     4  11  22  41  57  79 114 160 192 237 292 341
#     4  11  24  38  59  82 109 156 202 239 285 331
#     4  11  22  33  54  83 115 143 190 244 279 345
#
# _framework density 19.033933000000001
#
# number of rings (size 3 to 8) (size 9 to 14) (size 15 to 20)
#    0.000    1.778    2.222    3.667    0.000    3.556 
#    0.000    1.111    0.000    2.667    0.000    0.000 
#    0.000    0.000    0.000    0.000    0.000    0.000 
#
# Total GULP energy -446248.018817 kJ/mol
# GULP energy per Si atom -12395.778300 kJ/mol
# Density = 1.899061 g / cm^3
# Si number density = 19.033933 Si / 1000 Ang^3
#
#
#
# Elastic Constant Matrix: (Units=GPa)
#
#
# Indices 1 2 3 4 5 6 
#
# 1 87.8989 29.3327 44.6547 0.0000 0.0000 0.0000
# 2 29.3327 91.1281 40.7698 0.0000 0.0000 0.0000
# 3 44.6547 40.7698 117.6738 0.0000 0.0000 0.0000
# 4 0.0000 0.0000 0.0000 36.2220 0.0000 0.0000
# 5 0.0000 0.0000 0.0000 0.0000 15.5743 0.0000
# 6 0.0000 0.0000 0.0000 0.0000 0.0000 32.3375
#
#
#
# Elastic Compliance Matrix: (Units=1/GPa)
#
#
# Indices 1 2 3 4 5 6 
#
# 1 0.014607 -0.002630 -0.004632 0.000000 0.000000 0.000000
# 2 -0.002630 0.013460 -0.003666 0.000000 0.000000 0.000000
# 3 -0.004632 -0.003666 0.011526 0.000000 0.000000 0.000000
# 4 0.000000 0.000000 0.000000 0.027608 0.000000 0.000000
# 5 0.000000 0.000000 0.000000 0.000000 0.064208 0.000000
# 6 0.000000 0.000000 0.000000 0.000000 0.000000 0.030924
#
#
# Mechanical properties :
#
#
# Convention : Reuss Voigt Hill
#
# Bulk Modulus (GPa) = 56.37378 58.46836 57.42107
# Shear Modulus (GPa) = 26.30193 28.95635 27.62914
#
# Velocity S-wave (km/s) = 3.72135 3.90462 3.81408
# Velocity P-wave (km/s) = 6.93876 7.14931 7.04482
#
# Compressibility (1/GPa) = 0.01773874
#
# Stress axis : x y z
#
# Youngs Moduli (GPa) = 68.45821 74.29487 86.76136
#
# Poissons Ratio (x) = 0.19536 0.40189
# Poissons Ratio (y) = 0.18001 0.31803
# Poissons Ratio (z) = 0.31711 0.27233
#
# Static dielectric constant tensor:
#      x y z
#    x 3.242000 0.000000 0.000000 
#    y 0.000000 3.452520 0.000000 
#    z 0.000000 0.000000 3.485420 
# 
# 
# High freq. dielectric constant tensor:
#      x y z
#    x 1.715920 0.000000 0.000000 
#    y 0.000000 1.748550 0.000000 
#    z 0.000000 0.000000 1.738060 
# 
# From -- ./inp_files/56385.got.cif
#   From: 2010.03.12/outbox.cif.g09.slc.cpg/sg63_29_cif.got.tgz:56385.got - 2010.04.10 19:34:48.
