data_PCOD8258715
_publ_section_title
;
Structure prediction by ZEFSAII (Michael W. Deem and Ramdas Pophale) SiO2 
 PCOD8258715
Probable space group: C M C M
;
_chemical_formula_sum "Si O2"
_cell_formula_units_Z 88
_cell_length_a 17.803560
_cell_length_b 26.902354
_cell_length_c 9.899423
_cell_angle_alpha 90.000000
_cell_angle_beta 90.000000
_cell_angle_gamma 90.000000
_cell_volume 4741.404610
_symmetry_space_group_name_H-M "C M C M"
_symmetry_group_IT_number 63
_symmetry_cell_setting 'orthorhombic'
loop_
_space_group_symop_operation_xyz
x,y,z
-x,-y,1/2+z
x,-y,-z
-x,y,1/2-z
-x,-y,-z
x,y,1/2-z
-x,y,z
x,-y,1/2+z
1/2+x,1/2+y,z
1/2-x,1/2-y,1/2+z
1/2+x,1/2-y,-z
1/2-x,1/2+y,1/2-z
1/2-x,1/2-y,-z
1/2+x,1/2+y,1/2-z
1/2-x,1/2+y,z
1/2+x,1/2-y,1/2+z
loop_
_atom_site_type_symbol
_atom_site_label
_atom_site_fract_x
_atom_site_fract_y
_atom_site_fract_z
Si Si1 0.272754 0.042500 0.401394
Si Si2 0.085709 0.314922 0.399906
Si Si3 0.811694 0.775725 0.594378
Si Si4 0.585375 0.102125 0.095834
Si Si5 0.142481 0.882976 0.594882
Si Si6 0.000000 0.051842 0.414181
O O1 0.260417 0.022822 0.250000
O O2 0.360364 0.055144 0.426048
O O3 0.220968 0.089659 0.429701
O O4 0.245511 0.000000 0.500000
O O5 0.097674 0.337199 0.250000
O O6 0.117918 0.260337 0.410691
O O7 0.120497 0.353731 0.505971
O O8 0.000000 0.308708 0.438691
O O9 0.782045 0.781893 0.750000
O O10 0.750000 0.750000 0.500000
O O11 0.842718 0.827975 0.532517
O O12 0.588596 0.120372 0.250000
O O13 0.500000 0.087375 0.053784
O O14 0.123323 0.874461 0.750000
O O15 0.072566 0.915532 0.538013
O O16 0.000000 0.041199 0.250000
O O17 0.000000 0.000000 0.500000
#
# Coordination Sequence:
#
# PCOD8258715 Si02
#       6
#    16  16  16  16  16   8
#     4  10  20  34  51  72  98 129 169 212 256 304
#     4   9  18  31  50  76 103 130 164 206 248 290
#     4  10  20  34  53  77 106 138 173 212 255 309
#     4   9  18  33  52  73 101 137 170 202 248 308
#     4   9  19  34  54  77 102 136 175 214 260 319
#     4  10  20  36  58  80 104 138 182 228 277 322
#
# _framework density 18.559901
#
# number of rings (size 3 to 8) (size 9 to 14) (size 15 to 20)
#    0.000    2.545    0.000    1.636    1.273    3.273 
#    0.000    1.818    0.000    0.000    0.000    0.000 
#    0.000    0.000    0.000    0.000    0.000    0.000 
#
# Total GULP energy -545242.745121 kJ/mol
# GULP energy per Si atom -12391.880571 kJ/mol
# Density = 1.851766 g / cm^3
# Si number density = 18.559901 Si / 1000 Ang^3
#
#
#
# Elastic Constant Matrix: (Units=GPa)
#
#
# Indices 1 2 3 4 5 6 
#
# 1 78.5249 33.4527 30.0056 0.0000 0.0000 0.0000
# 2 33.4527 102.5805 50.3098 0.0000 0.0000 0.0000
# 3 30.0056 50.3098 65.8015 0.0000 0.0000 0.0000
# 4 0.0000 0.0000 0.0000 33.0487 0.0000 0.0000
# 5 0.0000 0.0000 0.0000 0.0000 21.8709 0.0000
# 6 0.0000 0.0000 0.0000 0.0000 0.0000 20.1602
#
#
#
# Elastic Compliance Matrix: (Units=1/GPa)
#
#
# Indices 1 2 3 4 5 6 
#
# 1 0.015843 -0.002597 -0.005239 0.000000 0.000000 0.000000
# 2 -0.002597 0.016023 -0.011066 0.000000 0.000000 0.000000
# 3 -0.005239 -0.011066 0.026047 0.000000 0.000000 0.000000
# 4 0.000000 0.000000 0.000000 0.030258 0.000000 0.000000
# 5 0.000000 0.000000 0.000000 0.000000 0.045723 0.000000
# 6 0.000000 0.000000 0.000000 0.000000 0.000000 0.049603
#
#
# Mechanical properties :
#
#
# Convention : Reuss Voigt Hill
#
# Bulk Modulus (GPa) = 49.73017 52.71591 51.22304
# Shear Modulus (GPa) = 21.92946 23.89188 22.91067
#
# Velocity S-wave (km/s) = 3.44110 3.59177 3.51724
# Velocity P-wave (km/s) = 6.52999 6.75765 6.64480
#
# Compressibility (1/GPa) = 0.02010852
#
# Stress axis : x y z
#
# Youngs Moduli (GPa) = 63.11906 62.41116 38.39233
#
# Poissons Ratio (x) = 0.16211 0.20112
# Poissons Ratio (y) = 0.16394 0.42485
# Poissons Ratio (z) = 0.33066 0.69065
#
# Static dielectric constant tensor:
#      x y z
#    x 3.544790 0.000000 0.000000 
#    y 0.000000 3.505010 0.000000 
#    z 0.000000 0.000000 3.241520 
# 
# 
# High freq. dielectric constant tensor:
#      x y z
#    x 1.728230 0.000000 0.000000 
#    y 0.000000 1.717900 0.000000 
#    z 0.000000 0.000000 1.699400 
# 
# From -- ./inp_files/21121.got.cif
#   From: 2010.03.12/outbox.cif.g09.slc.cpg/sg63_11_cif.got.tgz:21121.got - 2010.04.10 19:34:48.
