data_PCOD8258663
_publ_section_title
;
Structure prediction by ZEFSAII (Michael W. Deem and Ramdas Pophale) SiO2 
 PCOD8258663
Probable space group: C M C M
;
_chemical_formula_sum "Si O2"
_cell_formula_units_Z 72
_cell_length_a 12.648445
_cell_length_b 30.216692
_cell_length_c 10.689596
_cell_angle_alpha 90.000000
_cell_angle_beta 90.000000
_cell_angle_gamma 90.000000
_cell_volume 4085.501237
_symmetry_space_group_name_H-M "C M C M"
_symmetry_group_IT_number 63
_symmetry_cell_setting 'orthorhombic'
loop_
_space_group_symop_operation_xyz
x,y,z
-x,-y,1/2+z
x,-y,-z
-x,y,1/2-z
-x,-y,-z
x,y,1/2-z
-x,y,z
x,-y,1/2+z
1/2+x,1/2+y,z
1/2-x,1/2-y,1/2+z
1/2+x,1/2-y,-z
1/2-x,1/2+y,1/2-z
1/2-x,1/2-y,-z
1/2+x,1/2+y,1/2-z
1/2-x,1/2+y,z
1/2+x,1/2-y,1/2+z
loop_
_atom_site_type_symbol
_atom_site_label
_atom_site_fract_x
_atom_site_fract_y
_atom_site_fract_z
Si Si1 0.120966 0.903731 0.985111
Si Si2 0.693512 0.560730 0.750000
Si Si3 0.114722 0.747360 0.110203
Si Si4 0.242071 0.323772 0.039062
Si Si5 0.376876 0.464513 0.750000
Si Si6 0.875839 0.373589 0.250000
O O1 0.133878 0.923022 0.124942
O O2 0.196511 0.861799 0.963421
O O3 0.000000 0.888928 0.967161
O O4 0.151659 0.938398 0.876759
O O5 0.696581 0.507826 0.750000
O O6 0.812889 0.579819 0.750000
O O7 0.095871 0.732289 0.250000
O O8 0.171038 0.795005 0.111990
O O9 0.000000 0.751311 0.042235
O O10 0.183919 0.708596 0.053997
O O11 0.155236 0.344938 0.129725
O O12 0.500000 0.478492 0.750000
O O13 0.000000 0.384018 0.250000
#
# Coordination Sequence:
#
# PCOD8258663 Si02
#       6
#    16   8  16  16   8   8
#     4  10  20  33  54  81 110 140 173 214 261 315
#     4  10  20  34  56  80 102 140 174 216 260 316
#     4  10  20  34  53  75 104 138 175 215 253 303
#     4  10  20  34  53  77 104 139 173 213 260 306
#     4  10  20  34  53  81 112 138 166 210 267 318
#     4  10  20  36  55  77 102 134 176 218 259 308
#
# _framework density 17.623297999999998
#
# number of rings (size 3 to 8) (size 9 to 14) (size 15 to 20)
#    0.000    2.000    1.111    3.000    1.556    1.778 
#    0.000    0.000    0.000   12.000    0.000    0.000 
#    0.000    0.000    0.000    0.000    0.000    0.000 
#
# Total GULP energy -446286.368507 kJ/mol
# GULP energy per Si atom -12396.843570 kJ/mol
# Density = 1.758319 g / cm^3
# Si number density = 17.623298 Si / 1000 Ang^3
#
#
#
# Elastic Constant Matrix: (Units=GPa)
#
#
# Indices 1 2 3 4 5 6 
#
# 1 114.6495 58.7649 26.7724 0.0000 0.0000 0.0000
# 2 58.7649 125.9682 40.9076 0.0000 0.0000 0.0000
# 3 26.7724 40.9076 81.4202 0.0000 0.0000 0.0000
# 4 0.0000 0.0000 0.0000 16.7687 0.0000 0.0000
# 5 0.0000 0.0000 0.0000 0.0000 -47.8279 0.0000
# 6 0.0000 0.0000 0.0000 0.0000 0.0000 22.3173
#
#
#
# Elastic Compliance Matrix: (Units=1/GPa)
#
#
# Indices 1 2 3 4 5 6 
#
# 1 0.011578 -0.004977 -0.001307 0.000000 0.000000 0.000000
# 2 -0.004977 0.011626 -0.004205 0.000000 0.000000 0.000000
# 3 -0.001307 -0.004205 0.014824 0.000000 0.000000 0.000000
# 4 0.000000 0.000000 0.000000 0.059635 0.000000 0.000000
# 5 0.000000 0.000000 0.000000 0.000000 -0.020908 0.000000
# 6 0.000000 0.000000 0.000000 0.000000 0.000000 0.044808
#
#
# Mechanical properties :
#
#
# Convention : Reuss Voigt Hill
#
# Bulk Modulus (GPa) = 58.64468 63.88086 61.26277
# Shear Modulus (GPa) = 33.73289 11.29116 22.51202
#
# Velocity S-wave (km/s) = 4.37980 2.53394 3.57795
# Velocity P-wave (km/s) = 7.67632 6.69984 7.20464
#
# Compressibility (1/GPa) = 0.01705184
#
# Stress axis : x y z
#
# Youngs Moduli (GPa) = 86.36765 86.01593 67.45797
#
# Poissons Ratio (x) = 0.42811 0.08814
# Poissons Ratio (y) = 0.42986 0.28363
# Poissons Ratio (z) = 0.11284 0.36166
#
# Static dielectric constant tensor:
#      x y z
#    x 3.303080 0.000000 0.000000 
#    y 0.000000 3.289660 0.000000 
#    z 0.000000 0.000000 3.261300 
# 
# 
# High freq. dielectric constant tensor:
#      x y z
#    x 1.675800 0.000000 0.000000 
#    y 0.000000 1.684700 0.000000 
#    z 0.000000 0.000000 1.683190 
# 
# From -- ./inp_files/17616.got.cif
#   From: 2010.03.12/outbox.cif.g09.slc.cpg/sg63_9_cif.got.tgz:17616.got - 2010.04.10 19:34:48.
