data_PCOD8258364
_publ_section_title
;
Structure prediction by ZEFSAII (Michael W. Deem and Ramdas Pophale) SiO2 
 PCOD8258364
Probable space group: C M C M
;
_chemical_formula_sum "Si O2"
_cell_formula_units_Z 80
_cell_length_a 9.593547
_cell_length_b 25.725330
_cell_length_c 17.521432
_cell_angle_alpha 90.000000
_cell_angle_beta 90.000000
_cell_angle_gamma 90.000000
_cell_volume 4324.239700
_symmetry_space_group_name_H-M "C M C M"
_symmetry_group_IT_number 63
_symmetry_cell_setting 'orthorhombic'
loop_
_space_group_symop_operation_xyz
x,y,z
-x,-y,1/2+z
x,-y,-z
-x,y,1/2-z
-x,-y,-z
x,y,1/2-z
-x,y,z
x,-y,1/2+z
1/2+x,1/2+y,z
1/2-x,1/2-y,1/2+z
1/2+x,1/2-y,-z
1/2-x,1/2+y,1/2-z
1/2-x,1/2-y,-z
1/2+x,1/2+y,1/2-z
1/2-x,1/2+y,z
1/2+x,1/2-y,1/2+z
loop_
_atom_site_type_symbol
_atom_site_label
_atom_site_fract_x
_atom_site_fract_y
_atom_site_fract_z
Si Si1 0.656561 0.207446 0.840615
Si Si2 0.339753 0.494730 0.089281
Si Si3 0.338955 0.613600 0.661982
Si Si4 0.342174 0.084068 0.340647
Si Si5 0.156692 0.177622 0.340857
O O1 0.665541 0.207064 0.750000
O O2 0.500000 0.195379 0.867982
O O3 0.756641 0.162706 0.873487
O O4 0.702235 0.264870 0.869809
O O5 0.500000 0.506668 0.112239
O O6 0.297625 0.436740 0.113529
O O7 0.238737 0.533156 0.133415
O O8 0.315712 0.500000 0.000000
O O9 0.298924 0.603076 0.750000
O O10 0.500000 0.627409 0.653374
O O11 0.342685 0.085346 0.250000
O O12 0.500000 0.083423 0.372482
O O13 0.263721 0.135018 0.373952
O O14 0.158042 0.176480 0.250000
O O15 0.000000 0.164722 0.369776
#
# Coordination Sequence:
#
# PCOD8258364 Si02
#       5
#    16  16  16  16  16
#     4   8  14  25  43  69  98 125 153 187 231 282
#     4  10  21  36  52  69  93 129 169 205 243 289
#     4   9  17  29  47  71  96 122 154 194 239 284
#     4  10  20  32  49  75 102 127 158 198 243 287
#     4   8  14  26  45  69  97 127 156 188 230 281
#
# _framework density 18.500361000000002
#
# number of rings (size 3 to 8) (size 9 to 14) (size 15 to 20)
#    0.000    3.000    0.000    2.400    0.000    4.000 
#    0.000    6.000    0.000    1.200    0.000    0.000 
#    0.000    0.000    0.000    0.000    0.000    0.000 
#
# Total GULP energy -495860.317774 kJ/mol
# GULP energy per Si atom -12396.507944 kJ/mol
# Density = 1.845825 g / cm^3
# Si number density = 18.500361 Si / 1000 Ang^3
#
#
#
# Elastic Constant Matrix: (Units=GPa)
#
#
# Indices 1 2 3 4 5 6 
#
# 1 114.7768 87.8421 12.0171 0.0000 0.0000 0.0000
# 2 87.8421 141.3728 7.2643 0.0000 0.0000 0.0000
# 3 12.0171 7.2643 9.9763 0.0000 0.0000 0.0000
# 4 0.0000 0.0000 0.0000 0.2194 0.0000 0.0000
# 5 0.0000 0.0000 0.0000 0.0000 12.9724 0.0000
# 6 0.0000 0.0000 0.0000 0.0000 0.0000 39.5722
#
#
#
# Elastic Compliance Matrix: (Units=1/GPa)
#
#
# Indices 1 2 3 4 5 6 
#
# 1 0.018405 -0.010697 -0.014381 0.000000 0.000000 0.000000
# 2 -0.010697 0.013566 0.003007 0.000000 0.000000 0.000000
# 3 -0.014381 0.003007 0.115370 0.000000 0.000000 0.000000
# 4 0.000000 0.000000 0.000000 4.556916 0.000000 0.000000
# 5 0.000000 0.000000 0.000000 0.000000 0.077086 0.000000
# 6 0.000000 0.000000 0.000000 0.000000 0.000000 0.025270
#
#
# Mechanical properties :
#
#
# Convention : Reuss Voigt Hill
#
# Bulk Modulus (GPa) = 9.68993 53.37475 31.53234
# Shear Modulus (GPa) = 1.02351 21.15299 11.08825
#
# Velocity S-wave (km/s) = 0.74461 3.38506 2.45082
# Velocity P-wave (km/s) = 2.44710 6.64767 5.00898
#
# Compressibility (1/GPa) = 0.10319987
#
# Stress axis : x y z
#
# Youngs Moduli (GPa) = 54.33324 73.71621 8.66774
#
# Poissons Ratio (x) = 0.78854 0.12465
# Poissons Ratio (y) = 0.58120 -0.02607
# Poissons Ratio (z) = 0.78136 -0.22169
#
# Static dielectric constant tensor:
#      x y z
#    x 3.581700 0.000000 0.000000 
#    y 0.000000 3.756250 0.000000 
#    z 0.000000 0.000000 2.861860 
# 
# 
# High freq. dielectric constant tensor:
#      x y z
#    x 1.717050 0.000000 0.000000 
#    y 0.000000 1.733860 0.000000 
#    z 0.000000 0.000000 1.663690 
# 
# From -- ./inp_files/40503.got.cif
#   From: 2010.03.12/outbox.cif.g09.slc.cpg/sg63_21_cif.got.tgz:40503.got - 2010.04.10 19:34:48.
