data_PCOD8258216
_publ_section_title
;
Structure prediction by ZEFSAII (Michael W. Deem and Ramdas Pophale) SiO2 
 PCOD8258216
Probable space group: C M C M
;
_chemical_formula_sum "Si O2"
_cell_formula_units_Z 96
_cell_length_a 13.908401
_cell_length_b 23.876596
_cell_length_c 18.151647
_cell_angle_alpha 90.000000
_cell_angle_beta 90.000000
_cell_angle_gamma 90.000000
_cell_volume 6027.894625
_symmetry_space_group_name_H-M "C M C M"
_symmetry_group_IT_number 63
_symmetry_cell_setting 'orthorhombic'
loop_
_space_group_symop_operation_xyz
x,y,z
-x,-y,1/2+z
x,-y,-z
-x,y,1/2-z
-x,-y,-z
x,y,1/2-z
-x,y,z
x,-y,1/2+z
1/2+x,1/2+y,z
1/2-x,1/2-y,1/2+z
1/2+x,1/2-y,-z
1/2-x,1/2+y,1/2-z
1/2-x,1/2-y,-z
1/2+x,1/2+y,1/2-z
1/2-x,1/2+y,z
1/2+x,1/2-y,1/2+z
loop_
_atom_site_type_symbol
_atom_site_label
_atom_site_fract_x
_atom_site_fract_y
_atom_site_fract_z
Si Si1 0.894067 0.833930 0.337336
Si Si2 0.208236 0.603032 0.836699
Si Si3 0.605885 0.784148 0.162552
Si Si4 0.708957 0.775861 0.837738
Si Si5 0.388475 0.112331 0.164509
Si Si6 0.889819 0.501271 0.913292
O O1 0.897634 0.829495 0.250000
O O2 0.818212 0.882271 0.359036
O O3 0.859614 0.773619 0.368272
O O4 0.000000 0.848232 0.369370
O O5 0.198015 0.591676 0.750000
O O6 0.140226 0.654227 0.861956
O O7 0.178911 0.548039 0.880180
O O8 0.602239 0.782793 0.250000
O O9 0.500000 0.771898 0.129059
O O10 0.681699 0.736922 0.135288
O O11 0.703619 0.776234 0.750000
O O12 0.673276 0.835708 0.867645
O O13 0.366107 0.101036 0.250000
O O14 0.500000 0.126862 0.152536
O O15 0.356736 0.058195 0.118931
O O16 0.000000 0.513867 0.890589
O O17 0.876673 0.500000 0.000000
#
# Coordination Sequence:
#
# PCOD8258216 Si02
#       6
#    16  16  16  16  16  16
#     4   8  13  22  39  64  89 108 129 165 210 246
#     4   9  16  26  43  65  85 107 137 171 204 241
#     4   8  13  21  36  60  87 111 133 161 199 239
#     4   8  13  21  36  61  88 108 128 159 200 243
#     4   9  16  26  42  62  82 106 136 168 200 238
#     4  10  20  31  42  58  82 111 140 172 211 249
#
# _framework density 15.925958
#
# number of rings (size 3 to 8) (size 9 to 14) (size 15 to 20)
#    0.000    3.333    0.000    3.500    0.000    3.667 
#    0.000    0.000    0.000    5.500    0.000    7.000 
#    0.000    0.000    0.000    0.000    0.000    0.000 
#
# Total GULP energy -594875.934957 kJ/mol
# GULP energy per Si atom -12393.248645 kJ/mol
# Density = 1.588971 g / cm^3
# Si number density = 15.925958 Si / 1000 Ang^3
#
#
#
# Elastic Constant Matrix: (Units=GPa)
#
#
# Indices 1 2 3 4 5 6 
#
# 1 138.7300 80.3388 23.5074 0.0000 0.0000 0.0000
# 2 80.3388 140.0357 34.8928 0.0000 0.0000 0.0000
# 3 23.5074 34.8928 26.9028 0.0000 0.0000 0.0000
# 4 0.0000 0.0000 0.0000 -1.8954 0.0000 0.0000
# 5 0.0000 0.0000 0.0000 0.0000 8.9765 0.0000
# 6 0.0000 0.0000 0.0000 0.0000 0.0000 26.8294
#
#
#
# Elastic Compliance Matrix: (Units=1/GPa)
#
#
# Indices 1 2 3 4 5 6 
#
# 1 0.010873 -0.005719 -0.002084 0.000000 0.000000 0.000000
# 2 -0.005719 0.013559 -0.012588 0.000000 0.000000 0.000000
# 3 -0.002084 -0.012588 0.055319 0.000000 0.000000 0.000000
# 4 0.000000 0.000000 0.000000 -0.527605 0.000000 0.000000
# 5 0.000000 0.000000 0.000000 0.000000 0.111402 0.000000
# 6 0.000000 0.000000 0.000000 0.000000 0.000000 0.037272
#
#
# Mechanical properties :
#
#
# Convention : Reuss Voigt Hill
#
# Bulk Modulus (GPa) = 25.66160 64.79405 45.22783
# Shear Modulus (GPa) = -20.37410 17.91075 -1.23168
#
# Velocity S-wave (km/s) = -3.58061 3.35718 -0.88037
# Velocity P-wave (km/s) = 0.97280 7.46997 5.23708
#
# Compressibility (1/GPa) = 0.03896873
#
# Stress axis : x y z
#
# Youngs Moduli (GPa) = 91.97076 73.75430 18.07711
#
# Poissons Ratio (x) = 0.42178 0.03767
# Poissons Ratio (y) = 0.52595 0.22756
# Poissons Ratio (z) = 0.19163 0.92845
#
# Static dielectric constant tensor:
#      x y z
#    x 3.446180 0.000000 0.000000 
#    y 0.000000 3.024440 0.000000 
#    z 0.000000 0.000000 2.516100 
# 
# 
# High freq. dielectric constant tensor:
#      x y z
#    x 1.610610 0.000000 0.000000 
#    y 0.000000 1.607030 0.000000 
#    z 0.000000 0.000000 1.559340 
# 
# From -- ./inp_files/54603.got.cif
#   From: 2010.03.12/outbox.cif.g09.slc.cpg/sg63_28_cif.got.tgz:54603.got - 2010.04.10 19:34:48.
