data_PCOD8258476
_publ_section_title
;
Structure prediction by ZEFSAII (Michael W. Deem and Ramdas Pophale) SiO2 
 PCOD8258476
Probable space group: C M C M
;
_chemical_formula_sum "Si O2"
_cell_formula_units_Z 96
_cell_length_a 19.007538
_cell_length_b 30.898043
_cell_length_c 9.070763
_cell_angle_alpha 90.000000
_cell_angle_beta 90.000000
_cell_angle_gamma 90.000000
_cell_volume 5327.220346
_symmetry_space_group_name_H-M "C M C M"
_symmetry_group_IT_number 63
_symmetry_cell_setting 'orthorhombic'
loop_
_space_group_symop_operation_xyz
x,y,z
-x,-y,1/2+z
x,-y,-z
-x,y,1/2-z
-x,-y,-z
x,y,1/2-z
-x,y,z
x,-y,1/2+z
1/2+x,1/2+y,z
1/2-x,1/2-y,1/2+z
1/2+x,1/2-y,-z
1/2-x,1/2+y,1/2-z
1/2-x,1/2-y,-z
1/2+x,1/2+y,1/2-z
1/2-x,1/2+y,z
1/2+x,1/2-y,1/2+z
loop_
_atom_site_type_symbol
_atom_site_label
_atom_site_fract_x
_atom_site_fract_y
_atom_site_fract_z
Si Si1 0.333566 0.204052 0.078983
Si Si2 0.083854 0.958314 0.415803
Si Si3 0.583710 0.042214 0.083304
Si Si4 0.170643 0.791603 0.920511
Si Si5 0.417709 0.128827 0.922199
Si Si6 0.919017 0.126650 0.421719
O O1 0.354250 0.201142 0.250000
O O2 0.251305 0.195622 0.052708
O O3 0.353522 0.251328 0.018980
O O4 0.376771 0.169074 0.988754
O O5 0.112570 0.959324 0.250000
O O6 0.111447 0.914837 0.493171
O O7 0.000000 0.959372 0.420549
O O8 0.114723 0.000000 0.500000
O O9 0.612978 0.042870 0.250000
O O10 0.500000 0.040427 0.083390
O O11 0.609832 0.085098 0.999531
O O12 0.614011 0.000000 0.000000
O O13 0.156817 0.779929 0.750000
O O14 0.124270 0.831811 0.973712
O O15 0.401350 0.124973 0.750000
O O16 0.500000 0.135937 0.952449
O O17 0.908825 0.117265 0.250000
O O18 0.000000 0.135262 0.461675
#
# Coordination Sequence:
#
# PCOD8258476 Si02
#       6
#    16  16  16  16  16  16
#     4  10  20  34  52  72  96 128 165 204 244 290
#     4   9  16  26  42  66  96 127 158 192 232 279
#     4   9  16  27  45  70 100 131 162 196 237 287
#     4   9  19  35  52  71  97 130 165 199 240 293
#     4  10  20  33  50  73 100 129 163 204 248 292
#     4   9  17  30  49  72  97 125 158 196 237 280
#
# _framework density 18.020655000000001
#
# number of rings (size 3 to 8) (size 9 to 14) (size 15 to 20)
#    0.000    2.667    0.000    2.000    0.000    7.000 
#    0.000    1.667    0.000    1.000    0.000    4.667 
#    0.000    0.000    0.000    0.000    0.000    0.000 
#
# Total GULP energy -595276.014149 kJ/mol
# GULP energy per Si atom -12401.583628 kJ/mol
# Density = 1.797964 g / cm^3
# Si number density = 18.020655 Si / 1000 Ang^3
#
#
#
# Elastic Constant Matrix: (Units=GPa)
#
#
# Indices 1 2 3 4 5 6 
#
# 1 36.4186 56.5515 37.1693 0.0000 0.0000 0.0000
# 2 56.5515 176.9712 92.4758 0.0000 0.0000 0.0000
# 3 37.1693 92.4758 129.4220 0.0000 0.0000 0.0000
# 4 0.0000 0.0000 0.0000 43.0493 0.0000 0.0000
# 5 0.0000 0.0000 0.0000 0.0000 18.4865 0.0000
# 6 0.0000 0.0000 0.0000 0.0000 0.0000 -5.8179
#
#
#
# Elastic Compliance Matrix: (Units=1/GPa)
#
#
# Indices 1 2 3 4 5 6 
#
# 1 0.056716 -0.015340 -0.005328 0.000000 0.000000 0.000000
# 2 -0.015340 0.013166 -0.005002 0.000000 0.000000 0.000000
# 3 -0.005328 -0.005002 0.012831 0.000000 0.000000 0.000000
# 4 0.000000 0.000000 0.000000 0.023229 0.000000 0.000000
# 5 0.000000 0.000000 0.000000 0.000000 0.054094 0.000000
# 6 0.000000 0.000000 0.000000 0.000000 0.000000 -0.171884
#
#
# Mechanical properties :
#
#
# Convention : Reuss Voigt Hill
#
# Bulk Modulus (GPa) = 31.87378 79.46721 55.67050
# Shear Modulus (GPa) = 100.10120 21.58459 60.84289
#
# Velocity S-wave (km/s) = 7.46114 3.46464 5.81689
# Velocity P-wave (km/s) = 9.58909 7.75877 8.72207
#
# Compressibility (1/GPa) = 0.03137375
#
# Stress axis : x y z
#
# Youngs Moduli (GPa) = 17.63174 75.95109 77.93564
#
# Poissons Ratio (x) = 1.16506 0.41523
# Poissons Ratio (y) = 0.27046 0.38986
# Poissons Ratio (z) = 0.09394 0.37993
#
# Static dielectric constant tensor:
#      x y z
#    x 2.942060 0.000000 0.000000 
#    y 0.000000 3.493280 0.000000 
#    z 0.000000 0.000000 3.496920 
# 
# 
# High freq. dielectric constant tensor:
#      x y z
#    x 1.650810 0.000000 0.000000 
#    y 0.000000 1.712950 0.000000 
#    z 0.000000 0.000000 1.709680 
# 
# From -- ./inp_files/10439.got.cif
#   From: 2010.03.12/outbox.cif.g09.slc.cpg/sg63_6_cif.got.tgz:10439.got - 2010.04.10 19:34:48.
