data_PCOD8258066
_publ_section_title
;
Structure prediction by ZEFSAII (Michael W. Deem and Ramdas Pophale) SiO2 
 PCOD8258066
Probable space group: C M C M
;
_chemical_formula_sum "Si O2"
_cell_formula_units_Z 96
_cell_length_a 19.999627
_cell_length_b 14.380329
_cell_length_c 17.825225
_cell_angle_alpha 90.000000
_cell_angle_beta 90.000000
_cell_angle_gamma 90.000000
_cell_volume 5126.556388
_symmetry_space_group_name_H-M "C M C M"
_symmetry_group_IT_number 63
_symmetry_cell_setting 'orthorhombic'
loop_
_space_group_symop_operation_xyz
x,y,z
-x,-y,1/2+z
x,-y,-z
-x,y,1/2-z
-x,-y,-z
x,y,1/2-z
-x,y,z
x,-y,1/2+z
1/2+x,1/2+y,z
1/2-x,1/2-y,1/2+z
1/2+x,1/2-y,-z
1/2-x,1/2+y,1/2-z
1/2-x,1/2-y,-z
1/2+x,1/2+y,1/2-z
1/2-x,1/2+y,z
1/2+x,1/2-y,1/2+z
loop_
_atom_site_type_symbol
_atom_site_label
_atom_site_fract_x
_atom_site_fract_y
_atom_site_fract_z
Si Si1 0.723944 0.188312 0.336835
Si Si2 0.619168 0.685322 0.163227
Si Si3 0.812186 0.505619 0.088157
Si Si4 0.922753 0.610699 0.663836
Si Si5 0.308912 0.604198 0.838448
Si Si6 0.423605 0.496680 0.914636
O O1 0.707520 0.170026 0.250000
O O2 0.802387 0.181756 0.352343
O O3 0.685535 0.112906 0.386724
O O4 0.697764 0.288853 0.362680
O O5 0.602522 0.666625 0.250000
O O6 0.590385 0.784207 0.137228
O O7 0.582421 0.608259 0.114295
O O8 0.881428 0.459026 0.112314
O O9 0.749764 0.455586 0.125911
O O10 0.803900 0.500000 0.000000
O O11 0.899169 0.599860 0.750000
O O12 0.000000 0.585134 0.654084
O O13 0.302400 0.592149 0.750000
O O14 0.380342 0.567088 0.864974
O O15 0.500000 0.530266 0.908721
O O16 0.398016 0.500000 0.000000
#
# Coordination Sequence:
#
# PCOD8258066 Si02
#       6
#    16  16  16  16  16  16
#     4  10  21  37  60  88 116 148 196 247 283 336
#     4  10  19  35  62  89 112 146 198 252 289 328
#     4  12  24  37  59  90 121 156 186 233 293 353
#     4  10  21  39  62  86 114 149 195 247 289 331
#     4  11  22  39  61  84 115 154 199 244 286 341
#     4  11  24  39  56  86 126 159 190 236 296 354
#
# _framework density 18.726019999999998
#
# number of rings (size 3 to 8) (size 9 to 14) (size 15 to 20)
#    0.000    1.333    3.333    3.000    0.000    4.333 
#    0.000    0.833    0.000    1.000    0.000    0.000 
#    0.000    0.000    0.000    0.000    0.000    0.000 
#
# Total GULP energy -595503.609567 kJ/mol
# GULP energy per Si atom -12406.325199 kJ/mol
# Density = 1.868340 g / cm^3
# Si number density = 18.726020 Si / 1000 Ang^3
#
#
#
# Elastic Constant Matrix: (Units=GPa)
#
#
# Indices 1 2 3 4 5 6 
#
# 1 70.9089 42.5005 27.9594 0.0000 0.0000 0.0000
# 2 42.5005 129.9821 57.2889 0.0000 0.0000 0.0000
# 3 27.9594 57.2889 87.1500 0.0000 0.0000 0.0000
# 4 0.0000 0.0000 0.0000 0.4403 0.0000 0.0000
# 5 0.0000 0.0000 0.0000 0.0000 29.9454 0.0000
# 6 0.0000 0.0000 0.0000 0.0000 0.0000 41.0076
#
#
#
# Elastic Compliance Matrix: (Units=1/GPa)
#
#
# Indices 1 2 3 4 5 6 
#
# 1 0.017974 -0.004696 -0.002679 0.000000 0.000000 0.000000
# 2 -0.004696 0.012058 -0.006420 0.000000 0.000000 0.000000
# 3 -0.002679 -0.006420 0.016554 0.000000 0.000000 0.000000
# 4 0.000000 0.000000 0.000000 2.271104 0.000000 0.000000
# 5 0.000000 0.000000 0.000000 0.000000 0.033394 0.000000
# 6 0.000000 0.000000 0.000000 0.000000 0.000000 0.024386
#
#
# Mechanical properties :
#
#
# Convention : Reuss Voigt Hill
#
# Bulk Modulus (GPa) = 52.64393 60.39317 56.51855
# Shear Modulus (GPa) = 2.07521 24.96482 13.52001
#
# Velocity S-wave (km/s) = 1.05385 3.65521 2.68990
# Velocity P-wave (km/s) = 5.44560 7.08061 6.31623
#
# Compressibility (1/GPa) = 0.01899554
#
# Stress axis : x y z
#
# Youngs Moduli (GPa) = 55.63689 82.92906 60.40677
#
# Poissons Ratio (x) = 0.38943 0.16185
# Poissons Ratio (y) = 0.26127 0.38782
# Poissons Ratio (z) = 0.14907 0.53242
#
# Static dielectric constant tensor:
#      x y z
#    x 3.299200 0.000000 0.000000 
#    y 0.000000 3.598610 0.000000 
#    z 0.000000 0.000000 3.314380 
# 
# 
# High freq. dielectric constant tensor:
#      x y z
#    x 1.726590 0.000000 0.000000 
#    y 0.000000 1.735670 0.000000 
#    z 0.000000 0.000000 1.723570 
# 
# From -- ./inp_files/35361.got.cif
#   From: 2010.03.12/outbox.cif.g09.slc.cpg/sg63_18_cif.got.tgz:35361.got - 2010.04.10 19:34:48.
