data_PCOD8258139
_publ_section_title
;
Structure prediction by ZEFSAII (Michael W. Deem and Ramdas Pophale) SiO2 
 PCOD8258139
Probable space group: C M C M
;
_chemical_formula_sum "Si O2"
_cell_formula_units_Z 64
_cell_length_a 8.808245
_cell_length_b 23.614079
_cell_length_c 15.280374
_cell_angle_alpha 90.000000
_cell_angle_beta 90.000000
_cell_angle_gamma 90.000000
_cell_volume 3178.296297
_symmetry_space_group_name_H-M "C M C M"
_symmetry_group_IT_number 63
_symmetry_cell_setting 'orthorhombic'
loop_
_space_group_symop_operation_xyz
x,y,z
-x,-y,1/2+z
x,-y,-z
-x,y,1/2-z
-x,-y,-z
x,y,1/2-z
-x,y,z
x,-y,1/2+z
1/2+x,1/2+y,z
1/2-x,1/2-y,1/2+z
1/2+x,1/2-y,-z
1/2-x,1/2+y,1/2-z
1/2-x,1/2-y,-z
1/2+x,1/2+y,1/2-z
1/2-x,1/2+y,z
1/2+x,1/2-y,1/2+z
loop_
_atom_site_type_symbol
_atom_site_label
_atom_site_fract_x
_atom_site_fract_y
_atom_site_fract_z
Si Si1 0.676414 0.797130 0.750000
Si Si2 0.675778 0.997106 0.351518
Si Si3 0.178442 0.323088 0.250000
Si Si4 0.322569 0.121418 0.090708
Si Si5 0.178099 0.112661 0.911668
O O1 0.500000 0.779462 0.750000
O O2 0.781489 0.742646 0.750000
O O3 0.717001 0.833177 0.664536
O O4 0.705922 0.985084 0.250000
O O5 0.500000 0.988408 0.375280
O O6 0.772973 0.953067 0.408051
O O7 0.729266 0.060097 0.374614
O O8 0.243234 0.351889 0.336136
O O9 0.000000 0.331828 0.250000
O O10 0.500000 0.121562 0.068332
O O11 0.228723 0.138177 0.004681
O O12 0.000000 0.118545 0.900313
#
# Coordination Sequence:
#
# PCOD8258139 Si02
#       5
#     8  16   8  16  16
#     4  10  22  43  68  93 121 156 206 260 305 356
#     4  10  19  36  64  94 125 165 205 243 298 368
#     4  12  26  45  66  87 117 162 210 258 311 366
#     4  10  21  40  66  95 126 164 204 246 302 369
#     4  12  25  40  61  93 128 164 204 254 308 359
#
# _framework density 20.136572999999999
#
# number of rings (size 3 to 8) (size 9 to 14) (size 15 to 20)
#    0.000    1.250    2.500    4.125    0.000    6.000 
#    0.000    0.000    0.000    0.000    0.000    0.000 
#    0.000    0.000    0.000    0.000    0.000    0.000 
#
# Total GULP energy -397004.452915 kJ/mol
# GULP energy per Si atom -12406.389154 kJ/mol
# Density = 2.009074 g / cm^3
# Si number density = 20.136573 Si / 1000 Ang^3
#
#
#
# Elastic Constant Matrix: (Units=GPa)
#
#
# Indices 1 2 3 4 5 6 
#
# 1 123.1230 54.0736 63.8171 0.0000 0.0000 0.0000
# 2 54.0736 113.8926 42.0961 0.0000 0.0000 0.0000
# 3 63.8171 42.0961 125.4146 0.0000 0.0000 0.0000
# 4 0.0000 0.0000 0.0000 2.5934 0.0000 0.0000
# 5 0.0000 0.0000 0.0000 0.0000 11.1754 0.0000
# 6 0.0000 0.0000 0.0000 0.0000 0.0000 31.5485
#
#
#
# Elastic Compliance Matrix: (Units=1/GPa)
#
#
# Indices 1 2 3 4 5 6 
#
# 1 0.012506 -0.004093 -0.004990 0.000000 0.000000 0.000000
# 2 -0.004093 0.011364 -0.001731 0.000000 0.000000 0.000000
# 3 -0.004990 -0.001731 0.011094 0.000000 0.000000 0.000000
# 4 0.000000 0.000000 0.000000 0.385599 0.000000 0.000000
# 5 0.000000 0.000000 0.000000 0.000000 0.089482 0.000000
# 6 0.000000 0.000000 0.000000 0.000000 0.000000 0.031697
#
#
# Mechanical properties :
#
#
# Convention : Reuss Voigt Hill
#
# Bulk Modulus (GPa) = 74.99365 75.82266 75.40815
# Shear Modulus (GPa) = 8.80568 22.55968 15.68268
#
# Velocity S-wave (km/s) = 2.09344 3.35077 2.79375
# Velocity P-wave (km/s) = 6.57013 7.25990 6.92361
#
# Compressibility (1/GPa) = 0.01333446
#
# Stress axis : x y z
#
# Youngs Moduli (GPa) = 79.96220 88.00082 90.14132
#
# Poissons Ratio (x) = 0.36021 0.44978
# Poissons Ratio (y) = 0.32731 0.15607
# Poissons Ratio (z) = 0.39899 0.15236
#
# Static dielectric constant tensor:
#      x y z
#    x 3.526410 0.000000 0.000000 
#    y 0.000000 3.696660 0.000000 
#    z 0.000000 0.000000 3.828220 
# 
# 
# High freq. dielectric constant tensor:
#      x y z
#    x 1.774220 0.000000 0.000000 
#    y 0.000000 1.787370 0.000000 
#    z 0.000000 0.000000 1.804590 
# 
# From -- ./inp_files/27597.got.cif
#   From: 2010.03.12/outbox.cif.g09.slc.cpg/sg63_14_cif.got.tgz:27597.got - 2010.04.10 19:34:48.
