data_PCOD8258047
_publ_section_title
;
Structure prediction by ZEFSAII (Michael W. Deem and Ramdas Pophale) SiO2 
 PCOD8258047
Probable space group: C M C M
;
_chemical_formula_sum "Si O2"
_cell_formula_units_Z 112
_cell_length_a 12.358444
_cell_length_b 18.512804
_cell_length_c 26.880011
_cell_angle_alpha 90.000000
_cell_angle_beta 90.000000
_cell_angle_gamma 90.000000
_cell_volume 6149.862973
_symmetry_space_group_name_H-M "C M C M"
_symmetry_group_IT_number 63
_symmetry_cell_setting 'orthorhombic'
loop_
_space_group_symop_operation_xyz
x,y,z
-x,-y,1/2+z
x,-y,-z
-x,y,1/2-z
-x,-y,-z
x,y,1/2-z
-x,y,z
x,-y,1/2+z
1/2+x,1/2+y,z
1/2-x,1/2-y,1/2+z
1/2+x,1/2-y,-z
1/2-x,1/2+y,1/2-z
1/2-x,1/2-y,-z
1/2+x,1/2+y,1/2-z
1/2-x,1/2+y,z
1/2+x,1/2-y,1/2+z
loop_
_atom_site_type_symbol
_atom_site_label
_atom_site_fract_x
_atom_site_fract_y
_atom_site_fract_z
Si Si1 0.876041 0.983036 0.557504
Si Si2 0.124171 0.667154 0.146789
Si Si3 0.872144 0.479980 0.805530
Si Si4 0.233925 0.409415 0.377723
Si Si5 0.624057 0.315980 0.305373
Si Si6 0.374195 0.818093 0.460910
Si Si7 0.230620 0.167438 0.053809
O O1 0.839693 0.901651 0.568553
O O2 0.000000 0.992196 0.574170
O O3 0.860640 0.000000 0.500000
O O4 0.804489 0.037876 0.588737
O O5 0.172384 0.594371 0.170946
O O6 0.136056 0.730264 0.187104
O O7 0.189735 0.689276 0.098023
O O8 0.000000 0.656201 0.130514
O O9 0.823348 0.489250 0.750000
O O10 0.838951 0.546682 0.839403
O O11 0.000000 0.476248 0.802422
O O12 0.311491 0.357602 0.347225
O O13 0.154561 0.361037 0.410913
O O14 0.667307 0.334200 0.250000
O O15 0.500000 0.339857 0.310525
O O16 0.500000 0.829576 0.473117
O O17 0.302430 0.850455 0.505443
O O18 0.351502 0.732978 0.455744
#
# Coordination Sequence:
#
# PCOD8258047 Si02
#       7
#    16  16  16  16  16  16  16
#     4  11  23  39  59  84 114 151 189 225 277 341
#     4  10  19  35  60  85 112 145 189 236 281 333
#     4  10  21  36  57  84 113 148 189 234 284 335
#     4  12  21  38  57  84 117 151 186 231 280 340
#     4  10  21  37  58  84 111 145 192 243 285 323
#     4  11  24  38  58  86 115 150 189 231 277 336
#     4  11  21  41  58  83 115 150 189 227 280 336
#
# _framework density 18.211787000000001
#
# number of rings (size 3 to 8) (size 9 to 14) (size 15 to 20)
#    0.000    1.286    4.286    2.571    0.000    1.714 
#    0.000    0.714    0.000    0.000    0.000    2.000 
#    0.000    0.000    0.000    0.000    0.000    0.000 
#
# Total GULP energy -694599.338845 kJ/mol
# GULP energy per Si atom -12403.559622 kJ/mol
# Density = 1.817034 g / cm^3
# Si number density = 18.211787 Si / 1000 Ang^3
#
#
#
# Elastic Constant Matrix: (Units=GPa)
#
#
# Indices 1 2 3 4 5 6 
#
# 1 49.9191 21.8046 22.9933 0.0000 0.0000 0.0000
# 2 21.8046 82.8199 18.9914 0.0000 0.0000 0.0000
# 3 22.9933 18.9914 90.2135 0.0000 0.0000 0.0000
# 4 0.0000 0.0000 0.0000 -9.9516 0.0000 0.0000
# 5 0.0000 0.0000 0.0000 0.0000 22.8208 0.0000
# 6 0.0000 0.0000 0.0000 0.0000 0.0000 19.9370
#
#
#
# Elastic Compliance Matrix: (Units=1/GPa)
#
#
# Indices 1 2 3 4 5 6 
#
# 1 0.024748 -0.005326 -0.005186 0.000000 0.000000 0.000000
# 2 -0.005326 0.013833 -0.001555 0.000000 0.000000 0.000000
# 3 -0.005186 -0.001555 0.012734 0.000000 0.000000 0.000000
# 4 0.000000 0.000000 0.000000 -0.100487 0.000000 0.000000
# 5 0.000000 0.000000 0.000000 0.000000 0.043820 0.000000
# 6 0.000000 0.000000 0.000000 0.000000 0.000000 0.050158
#
#
# Mechanical properties :
#
#
# Convention : Reuss Voigt Hill
#
# Bulk Modulus (GPa) = 36.79102 38.94790 37.86946
# Shear Modulus (GPa) = 64.10190 17.17211 40.63700
#
# Velocity S-wave (km/s) = 5.93923 3.07402 4.72885
# Velocity P-wave (km/s) = 8.20233 5.83369 7.11724
#
# Compressibility (1/GPa) = 0.02718054
#
# Stress axis : x y z
#
# Youngs Moduli (GPa) = 40.40761 72.29015 78.53010
#
# Poissons Ratio (x) = 0.38503 0.40729
# Poissons Ratio (y) = 0.21522 0.12208
# Poissons Ratio (z) = 0.20957 0.11238
#
# Static dielectric constant tensor:
#      x y z
#    x 3.251710 0.000000 0.000000 
#    y 0.000000 3.427990 0.000000 
#    z 0.000000 0.000000 3.505450 
# 
# 
# High freq. dielectric constant tensor:
#      x y z
#    x 1.696280 0.000000 0.000000 
#    y 0.000000 1.716290 0.000000 
#    z 0.000000 0.000000 1.716330 
# 
# From -- ./inp_files/61778.got.cif
#   From: 2010.03.12/outbox.cif.g09.slc.cpg/sg63_31_cif.got.tgz:61778.got - 2010.04.10 19:34:48.
