data_PCOD8258781
_publ_section_title
;
Structure prediction by ZEFSAII (Michael W. Deem and Ramdas Pophale) SiO2 
 PCOD8258781
Probable space group: C M C M
;
_chemical_formula_sum "Si O2"
_cell_formula_units_Z 72
_cell_length_a 25.558970
_cell_length_b 17.201510
_cell_length_c 8.755203
_cell_angle_alpha 90.000000
_cell_angle_beta 90.000000
_cell_angle_gamma 90.000000
_cell_volume 3849.250197
_symmetry_space_group_name_H-M "C M C M"
_symmetry_group_IT_number 63
_symmetry_cell_setting 'orthorhombic'
loop_
_space_group_symop_operation_xyz
x,y,z
-x,-y,1/2+z
x,-y,-z
-x,y,1/2-z
-x,-y,-z
x,y,1/2-z
-x,y,z
x,-y,1/2+z
1/2+x,1/2+y,z
1/2-x,1/2-y,1/2+z
1/2+x,1/2-y,-z
1/2-x,1/2+y,1/2-z
1/2-x,1/2-y,-z
1/2+x,1/2+y,1/2-z
1/2-x,1/2+y,z
1/2+x,1/2-y,1/2+z
loop_
_atom_site_type_symbol
_atom_site_label
_atom_site_fract_x
_atom_site_fract_y
_atom_site_fract_z
Si Si1 0.194194 0.764185 0.070713
Si Si2 0.000000 0.413662 0.431479
Si Si3 0.943319 0.149971 0.420367
Si Si4 0.661129 0.421781 0.924608
Si Si5 0.913554 0.696119 0.428464
O O1 0.199162 0.760040 0.250000
O O2 0.148141 0.702967 0.019418
O O3 0.250000 0.750000 0.000000
O O4 0.181472 0.850646 0.021431
O O5 0.000000 0.500000 0.500000
O O6 0.946699 0.369491 0.482866
O O7 0.000000 0.419163 0.250000
O O8 0.937323 0.186867 0.250000
O O9 0.901788 0.080730 0.439120
O O10 0.937754 0.219263 0.541599
O O11 0.000000 0.111253 0.442739
O O12 0.680618 0.416781 0.750000
O O13 0.682915 0.500000 0.000000
O O14 0.917921 0.676714 0.250000
#
# Coordination Sequence:
#
# PCOD8258781 Si02
#       5
#    16   8  16  16  16
#     4  10  21  38  61  86 112 146 191 237 284 342
#     4  12  24  38  58  84 117 154 191 238 294 350
#     4   9  17  30  50  76 106 145 185 218 260 317
#     4  10  20  34  52  77 111 146 183 227 275 324
#     4  10  20  35  56  83 113 145 185 232 280 336
#
# _framework density 18.704940000000001
#
# number of rings (size 3 to 8) (size 9 to 14) (size 15 to 20)
#    0.000    2.000    1.111    3.000    0.000    4.000 
#    0.000    1.111    0.000    5.333    0.000    0.000 
#    0.000    0.000    0.000    0.000    0.000    0.000 
#
# Total GULP energy -446058.000448 kJ/mol
# GULP energy per Si atom -12390.500012 kJ/mol
# Density = 1.866237 g / cm^3
# Si number density = 18.704940 Si / 1000 Ang^3
#
#
#
# Elastic Constant Matrix: (Units=GPa)
#
#
# Indices 1 2 3 4 5 6 
#
# 1 148.2033 43.2553 52.9939 0.0000 0.0000 0.0000
# 2 43.2553 89.5613 37.6888 0.0000 0.0000 0.0000
# 3 52.9939 37.6888 83.6706 0.0000 0.0000 0.0000
# 4 0.0000 0.0000 0.0000 31.7405 0.0000 0.0000
# 5 0.0000 0.0000 0.0000 0.0000 29.2278 0.0000
# 6 0.0000 0.0000 0.0000 0.0000 0.0000 9.1259
#
#
#
# Elastic Compliance Matrix: (Units=1/GPa)
#
#
# Indices 1 2 3 4 5 6 
#
# 1 0.009136 -0.002440 -0.004687 0.000000 0.000000 0.000000
# 2 -0.002440 0.014429 -0.004954 0.000000 0.000000 0.000000
# 3 -0.004687 -0.004954 0.017152 0.000000 0.000000 0.000000
# 4 0.000000 0.000000 0.000000 0.031505 0.000000 0.000000
# 5 0.000000 0.000000 0.000000 0.000000 0.034214 0.000000
# 6 0.000000 0.000000 0.000000 0.000000 0.000000 0.109578
#
#
# Mechanical properties :
#
#
# Convention : Reuss Voigt Hill
#
# Bulk Modulus (GPa) = 60.40794 65.47902 62.94348
# Shear Modulus (GPa) = 20.35056 26.51867 23.43461
#
# Velocity S-wave (km/s) = 3.30203 3.76937 3.54341
# Velocity P-wave (km/s) = 6.84859 7.35027 7.10386
#
# Compressibility (1/GPa) = 0.01655411
#
# Stress axis : x y z
#
# Youngs Moduli (GPa) = 109.46198 69.30688 58.30290
#
# Poissons Ratio (x) = 0.16909 0.27328
# Poissons Ratio (y) = 0.26706 0.28883
# Poissons Ratio (z) = 0.51307 0.34335
#
# Static dielectric constant tensor:
#      x y z
#    x 3.799370 0.000000 0.000000 
#    y 0.000000 3.140070 0.000000 
#    z 0.000000 0.000000 3.572980 
# 
# 
# High freq. dielectric constant tensor:
#      x y z
#    x 1.729520 0.000000 0.000000 
#    y 0.000000 1.699220 0.000000 
#    z 0.000000 0.000000 1.738660 
# 
# From -- ./inp_files/11696.got.cif
#   From: 2010.03.12/outbox.cif.g09.slc.cpg/sg63_6_cif.got.tgz:11696.got - 2010.04.10 19:34:48.
