data_PCOD8258934
_publ_section_title
;
Structure prediction by ZEFSAII (Michael W. Deem and Ramdas Pophale) SiO2 
 PCOD8258934
Probable space group: C M C M
;
_chemical_formula_sum "Si O2"
_cell_formula_units_Z 96
_cell_length_a 19.838219
_cell_length_b 28.805384
_cell_length_c 9.303461
_cell_angle_alpha 90.000000
_cell_angle_beta 90.000000
_cell_angle_gamma 90.000000
_cell_volume 5316.439680
_symmetry_space_group_name_H-M "C M C M"
_symmetry_group_IT_number 63
_symmetry_cell_setting 'orthorhombic'
loop_
_space_group_symop_operation_xyz
x,y,z
-x,-y,1/2+z
x,-y,-z
-x,y,1/2-z
-x,-y,-z
x,y,1/2-z
-x,y,z
x,-y,1/2+z
1/2+x,1/2+y,z
1/2-x,1/2-y,1/2+z
1/2+x,1/2-y,-z
1/2-x,1/2+y,1/2-z
1/2-x,1/2-y,-z
1/2+x,1/2+y,1/2-z
1/2-x,1/2+y,z
1/2+x,1/2-y,1/2+z
loop_
_atom_site_type_symbol
_atom_site_label
_atom_site_fract_x
_atom_site_fract_y
_atom_site_fract_z
Si Si1 0.578652 0.381882 0.080001
Si Si2 0.680947 0.095461 0.091656
Si Si3 0.074368 0.453512 0.086837
Si Si4 0.663929 0.704085 0.583430
Si Si5 0.703661 0.801156 0.591256
Si Si6 0.323436 0.549377 0.079391
O O1 0.590532 0.389828 0.250000
O O2 0.500000 0.383166 0.041873
O O3 0.606757 0.331406 0.025813
O O4 0.614471 0.422918 0.991144
O O5 0.663353 0.074996 0.250000
O O6 0.666596 0.150124 0.094642
O O7 0.756686 0.080143 0.051655
O O8 0.630535 0.080731 0.968628
O O9 0.090355 0.465674 0.250000
O O10 0.000000 0.431246 0.068693
O O11 0.080309 0.500000 0.000000
O O12 0.669071 0.694085 0.750000
O O13 0.651364 0.759168 0.549288
O O14 0.736215 0.692629 0.519084
O O15 0.733401 0.789677 0.750000
O O16 0.336245 0.542069 0.250000
O O17 0.315358 0.500000 0.000000
#
# Coordination Sequence:
#
# PCOD8258934 Si02
#       6
#    16  16  16  16  16  16
#     4  10  21  37  56  79 109 145 186 229 275 328
#     4  10  20  34  54  82 112 142 177 221 266 317
#     4  10  21  36  54  76 104 140 180 219 263 319
#     4   9  17  31  53  79 106 138 174 214 261 313
#     4   9  17  31  52  80 110 136 171 215 260 312
#     4  11  23  38  56  80 109 141 183 232 279 329
#
# _framework density 18.057196000000001
#
# number of rings (size 3 to 8) (size 9 to 14) (size 15 to 20)
#    0.000    2.167    1.667    1.500    0.000    5.000 
#    0.000    0.833    0.000    3.000    0.000    0.000 
#    0.000    0.000    0.000    0.000    0.000    0.000 
#
# Total GULP energy -594737.085725 kJ/mol
# GULP energy per Si atom -12390.355953 kJ/mol
# Density = 1.801610 g / cm^3
# Si number density = 18.057196 Si / 1000 Ang^3
#
#
#
# Elastic Constant Matrix: (Units=GPa)
#
#
# Indices 1 2 3 4 5 6 
#
# 1 76.7507 50.0813 40.0480 0.0000 0.0000 0.0000
# 2 50.0813 109.4298 49.5670 0.0000 0.0000 0.0000
# 3 40.0480 49.5670 68.4890 0.0000 0.0000 0.0000
# 4 0.0000 0.0000 0.0000 25.1284 0.0000 0.0000
# 5 0.0000 0.0000 0.0000 0.0000 26.9664 0.0000
# 6 0.0000 0.0000 0.0000 0.0000 0.0000 24.5488
#
#
#
# Elastic Compliance Matrix: (Units=1/GPa)
#
#
# Indices 1 2 3 4 5 6 
#
# 1 0.021150 -0.006066 -0.007977 0.000000 0.000000 0.000000
# 2 -0.006066 0.015335 -0.007551 0.000000 0.000000 0.000000
# 3 -0.007977 -0.007551 0.024730 0.000000 0.000000 0.000000
# 4 0.000000 0.000000 0.000000 0.039796 0.000000 0.000000
# 5 0.000000 0.000000 0.000000 0.000000 0.037083 0.000000
# 6 0.000000 0.000000 0.000000 0.000000 0.000000 0.040735
#
#
# Mechanical properties :
#
#
# Convention : Reuss Voigt Hill
#
# Bulk Modulus (GPa) = 55.47358 59.34024 57.40691
# Shear Modulus (GPa) = 21.92739 22.99360 22.46050
#
# Velocity S-wave (km/s) = 3.48850 3.57231 3.53066
# Velocity P-wave (km/s) = 6.85667 7.06746 6.96286
#
# Compressibility (1/GPa) = 0.01802660
#
# Stress axis : x y z
#
# Youngs Moduli (GPa) = 47.28202 65.21112 40.43669
#
# Poissons Ratio (x) = 0.39558 0.32255
# Poissons Ratio (y) = 0.28682 0.30534
# Poissons Ratio (z) = 0.37716 0.49241
#
# Static dielectric constant tensor:
#      x y z
#    x 3.216140 0.000000 0.000000 
#    y 0.000000 3.621380 0.000000 
#    z 0.000000 0.000000 3.313560 
# 
# 
# High freq. dielectric constant tensor:
#      x y z
#    x 1.674980 0.000000 0.000000 
#    y 0.000000 1.710220 0.000000 
#    z 0.000000 0.000000 1.706760 
# 
# From -- ./inp_files/8511.got.cif
#   From: 2010.03.12/outbox.cif.g09.slc.cpg/sg63_5_cif.got.tgz:8511.got - 2010.04.10 19:34:48.
