data_PCOD8258498
_publ_section_title
;
Structure prediction by ZEFSAII (Michael W. Deem and Ramdas Pophale) SiO2 
 PCOD8258498
Probable space group: C M C M
;
_chemical_formula_sum "Si O2"
_cell_formula_units_Z 96
_cell_length_a 9.013248
_cell_length_b 19.589554
_cell_length_c 30.429621
_cell_angle_alpha 90.000000
_cell_angle_beta 90.000000
_cell_angle_gamma 90.000000
_cell_volume 5372.821503
_symmetry_space_group_name_H-M "C M C M"
_symmetry_group_IT_number 63
_symmetry_cell_setting 'orthorhombic'
loop_
_space_group_symop_operation_xyz
x,y,z
-x,-y,1/2+z
x,-y,-z
-x,y,1/2-z
-x,-y,-z
x,y,1/2-z
-x,y,z
x,-y,1/2+z
1/2+x,1/2+y,z
1/2-x,1/2-y,1/2+z
1/2+x,1/2-y,-z
1/2-x,1/2+y,1/2-z
1/2-x,1/2-y,-z
1/2+x,1/2+y,1/2-z
1/2-x,1/2+y,z
1/2+x,1/2-y,1/2+z
loop_
_atom_site_type_symbol
_atom_site_label
_atom_site_fract_x
_atom_site_fract_y
_atom_site_fract_z
Si Si1 0.671402 0.207043 0.698913
Si Si2 0.326490 0.451489 0.538745
Si Si3 0.826263 0.453065 0.627639
Si Si4 0.173612 0.703611 0.372192
Si Si5 0.175740 0.552412 0.701732
Si Si6 0.674751 0.705718 0.037476
O O1 0.699528 0.223566 0.750000
O O2 0.500000 0.220083 0.686753
O O3 0.775827 0.254679 0.670101
O O4 0.717624 0.129363 0.688228
O O5 0.267897 0.500000 0.500000
O O6 0.500000 0.460516 0.546129
O O7 0.247161 0.477189 0.582566
O O8 0.285839 0.373221 0.527956
O O9 0.787816 0.374868 0.638037
O O10 0.757869 0.499311 0.666593
O O11 0.000000 0.465359 0.622951
O O12 0.260437 0.728553 0.415471
O O13 0.000000 0.714585 0.380539
O O14 0.241935 0.535308 0.750000
O O15 0.000000 0.545437 0.704046
O O16 0.500000 0.719100 0.037491
O O17 0.750000 0.750000 0.000000
#
# Coordination Sequence:
#
# PCOD8258498 Si02
#       6
#    16  16  16  16  16  16
#     4   9  18  33  52  73  99 132 168 205 246 293
#     4   9  19  35  52  71  98 130 160 195 244 294
#     4   9  18  32  51  74  97 125 163 203 240 282
#     4  10  20  33  50  74 103 132 164 203 246 293
#     4   8  15  30  51  73  97 126 162 202 242 286
#     4  10  20  35  54  74 100 132 165 203 245 292
#
# _framework density 17.867706999999999
#
# number of rings (size 3 to 8) (size 9 to 14) (size 15 to 20)
#    0.000    2.833    0.000    2.000    0.000    4.000 
#    0.000    5.833    0.000    1.500    0.000    0.000 
#    0.000    0.000    0.000    0.000    0.000    0.000 
#
# Total GULP energy -595211.295185 kJ/mol
# GULP energy per Si atom -12400.235316 kJ/mol
# Density = 1.782704 g / cm^3
# Si number density = 17.867707 Si / 1000 Ang^3
#
#
#
# Elastic Constant Matrix: (Units=GPa)
#
#
# Indices 1 2 3 4 5 6 
#
# 1 51.0669 36.9226 49.3091 0.0000 0.0000 0.0000
# 2 36.9226 92.6079 88.9749 0.0000 0.0000 0.0000
# 3 49.3091 88.9749 148.6128 0.0000 0.0000 0.0000
# 4 0.0000 0.0000 0.0000 40.0551 0.0000 0.0000
# 5 0.0000 0.0000 0.0000 0.0000 32.4366 0.0000
# 6 0.0000 0.0000 0.0000 0.0000 0.0000 20.4100
#
#
#
# Elastic Compliance Matrix: (Units=1/GPa)
#
#
# Indices 1 2 3 4 5 6 
#
# 1 0.030017 -0.005648 -0.006578 0.000000 0.000000 0.000000
# 2 -0.005648 0.026483 -0.013982 0.000000 0.000000 0.000000
# 3 -0.006578 -0.013982 0.017282 0.000000 0.000000 0.000000
# 4 0.000000 0.000000 0.000000 0.024966 0.000000 0.000000
# 5 0.000000 0.000000 0.000000 0.000000 0.030829 0.000000
# 6 0.000000 0.000000 0.000000 0.000000 0.000000 0.048996
#
#
# Mechanical properties :
#
#
# Convention : Reuss Voigt Hill
#
# Bulk Modulus (GPa) = 46.79967 71.41121 59.10544
# Shear Modulus (GPa) = 20.99858 26.38573 23.69215
#
# Velocity S-wave (km/s) = 3.43187 3.84699 3.64535
# Velocity P-wave (km/s) = 6.47710 7.73213 7.13228
#
# Compressibility (1/GPa) = 0.02136767
#
# Stress axis : x y z
#
# Youngs Moduli (GPa) = 33.31393 37.76009 57.86217
#
# Poissons Ratio (x) = 0.21325 0.38065
# Poissons Ratio (y) = 0.18814 0.80901
# Poissons Ratio (z) = 0.21916 0.52795
#
# Static dielectric constant tensor:
#      x y z
#    x 3.123890 0.000000 0.000000 
#    y 0.000000 3.380720 0.000000 
#    z 0.000000 0.000000 3.581200 
# 
# 
# High freq. dielectric constant tensor:
#      x y z
#    x 1.675920 0.000000 0.000000 
#    y 0.000000 1.690290 0.000000 
#    z 0.000000 0.000000 1.699560 
# 
# From -- ./inp_files/66994.got.cif
#   From: 2010.03.12/outbox.cif.g09.slc.cpg/sg63_34_cif.got.tgz:66994.got - 2010.04.10 19:34:48.
