data_PCOD8258212
_publ_section_title
;
Structure prediction by ZEFSAII (Michael W. Deem and Ramdas Pophale) SiO2 
 PCOD8258212
Probable space group: C M C M
;
_chemical_formula_sum "Si O2"
_cell_formula_units_Z 80
_cell_length_a 28.125919
_cell_length_b 22.749411
_cell_length_c 9.526020
_cell_angle_alpha 90.000000
_cell_angle_beta 90.000000
_cell_angle_gamma 90.000000
_cell_volume 6095.205713
_symmetry_space_group_name_H-M "C M C M"
_symmetry_group_IT_number 63
_symmetry_cell_setting 'orthorhombic'
loop_
_space_group_symop_operation_xyz
x,y,z
-x,-y,1/2+z
x,-y,-z
-x,y,1/2-z
-x,-y,-z
x,y,1/2-z
-x,y,z
x,-y,1/2+z
1/2+x,1/2+y,z
1/2-x,1/2-y,1/2+z
1/2+x,1/2-y,-z
1/2-x,1/2+y,1/2-z
1/2-x,1/2-y,-z
1/2+x,1/2+y,1/2-z
1/2-x,1/2+y,z
1/2+x,1/2-y,1/2+z
loop_
_atom_site_type_symbol
_atom_site_label
_atom_site_fract_x
_atom_site_fract_y
_atom_site_fract_z
Si Si1 0.444601 0.441984 0.587435
Si Si2 0.222082 0.941557 0.414471
Si Si3 0.819724 0.758576 0.404484
Si Si4 0.222716 0.329889 0.095019
Si Si5 0.872998 0.127308 0.914597
O O1 0.431586 0.500000 0.500000
O O2 0.428991 0.450214 0.750000
O O3 0.500000 0.427234 0.577273
O O4 0.417089 0.388321 0.514454
O O5 0.227128 0.954484 0.250000
O O6 0.261463 0.893653 0.463075
O O7 0.169587 0.917688 0.447957
O O8 0.232295 0.000000 0.500000
O O9 0.834088 0.736704 0.250000
O O10 0.818041 0.700613 0.501288
O O11 0.768800 0.789179 0.398649
O O12 0.858047 0.806426 0.457353
O O13 0.200965 0.336659 0.250000
O O14 0.886848 0.124064 0.750000
#
# Coordination Sequence:
#
# PCOD8258212 Si02
#       5
#    16  16  16  16  16
#     4  10  20  31  41  53  69  90 117 148 182 219
#     4   9  17  26  35  50  71  93 118 148 178 208
#     4   8  14  24  37  52  68  86 110 141 174 207
#     4   8  14  24  35  48  68  90 112 140 172 205
#     4   9  17  28  40  54  71  89 114 149 183 214
#
# _framework density 13.125069
#
# number of rings (size 3 to 8) (size 9 to 14) (size 15 to 20)
#    0.000    3.200    0.000    3.600    0.000    5.200 
#    0.000    4.000    0.000    0.000    0.000    0.000 
#    0.000    0.000    0.000    0.000    0.000    1.000 
#
# Total GULP energy -495748.236067 kJ/mol
# GULP energy per Si atom -12393.705902 kJ/mol
# Density = 1.309520 g / cm^3
# Si number density = 13.125069 Si / 1000 Ang^3
#
#
#
# Elastic Constant Matrix: (Units=GPa)
#
#
# Indices 1 2 3 4 5 6 
#
# 1 39.8267 34.0418 36.0099 0.0000 0.0000 0.0000
# 2 34.0418 80.9082 50.2911 0.0000 0.0000 0.0000
# 3 36.0099 50.2911 76.1857 0.0000 0.0000 0.0000
# 4 0.0000 0.0000 0.0000 26.2531 0.0000 0.0000
# 5 0.0000 0.0000 0.0000 0.0000 18.9376 0.0000
# 6 0.0000 0.0000 0.0000 0.0000 0.0000 21.9218
#
#
#
# Elastic Compliance Matrix: (Units=1/GPa)
#
#
# Indices 1 2 3 4 5 6 
#
# 1 0.048555 -0.010453 -0.016050 0.000000 0.000000 0.000000
# 2 -0.010453 0.023210 -0.010381 0.000000 0.000000 0.000000
# 3 -0.016050 -0.010381 0.027564 0.000000 0.000000 0.000000
# 4 0.000000 0.000000 0.000000 0.038091 0.000000 0.000000
# 5 0.000000 0.000000 0.000000 0.000000 0.052805 0.000000
# 6 0.000000 0.000000 0.000000 0.000000 0.000000 0.045617
#
#
# Mechanical properties :
#
#
# Convention : Reuss Voigt Hill
#
# Bulk Modulus (GPa) = 39.11962 48.62289 43.87126
# Shear Modulus (GPa) = 15.71684 18.52768 17.12226
#
# Velocity S-wave (km/s) = 3.46420 3.76124 3.61577
# Velocity P-wave (km/s) = 6.77280 7.48256 7.13651
#
# Compressibility (1/GPa) = 0.02556262
#
# Stress axis : x y z
#
# Youngs Moduli (GPa) = 20.59511 43.08467 36.27885
#
# Poissons Ratio (x) = 0.45037 0.58227
# Poissons Ratio (y) = 0.21528 0.37659
# Poissons Ratio (z) = 0.33055 0.44724
#
# Static dielectric constant tensor:
#      x y z
#    x 2.345450 0.000000 0.000000 
#    y 0.000000 2.621590 0.000000 
#    z 0.000000 0.000000 2.849290 
# 
# 
# High freq. dielectric constant tensor:
#      x y z
#    x 1.451700 0.000000 0.000000 
#    y 0.000000 1.485660 0.000000 
#    z 0.000000 0.000000 1.507990 
# 
# From -- ./inp_files/14294.got.cif
#   From: 2010.03.12/outbox.cif.g09.slc.cpg/sg63_8_cif.got.tgz:14294.got - 2010.04.10 19:34:48.
