data_PCOD8258296
_publ_section_title
;
Structure prediction by ZEFSAII (Michael W. Deem and Ramdas Pophale) SiO2 
 PCOD8258296
Probable space group: C M C M
;
_chemical_formula_sum "Si O2"
_cell_formula_units_Z 88
_cell_length_a 19.745662
_cell_length_b 30.226567
_cell_length_c 8.792325
_cell_angle_alpha 90.000000
_cell_angle_beta 90.000000
_cell_angle_gamma 90.000000
_cell_volume 5247.642689
_symmetry_space_group_name_H-M "C M C M"
_symmetry_group_IT_number 63
_symmetry_cell_setting 'orthorhombic'
loop_
_space_group_symop_operation_xyz
x,y,z
-x,-y,1/2+z
x,-y,-z
-x,y,1/2-z
-x,-y,-z
x,y,1/2-z
-x,y,z
x,-y,1/2+z
1/2+x,1/2+y,z
1/2-x,1/2-y,1/2+z
1/2+x,1/2-y,-z
1/2-x,1/2+y,1/2-z
1/2-x,1/2-y,-z
1/2+x,1/2+y,1/2-z
1/2-x,1/2+y,z
1/2+x,1/2-y,1/2+z
loop_
_atom_site_type_symbol
_atom_site_label
_atom_site_fract_x
_atom_site_fract_y
_atom_site_fract_z
Si Si1 0.216635 0.706684 0.073339
Si Si2 0.075824 0.169419 0.423928
Si Si3 0.500000 0.546794 0.075469
Si Si4 0.351842 0.451786 0.928282
Si Si5 0.701272 0.370292 0.073050
Si Si6 0.573649 0.239359 0.422099
O O1 0.235706 0.707193 0.250000
O O2 0.135574 0.706108 0.045440
O O3 0.250000 0.750000 0.000000
O O4 0.243305 0.661616 0.000708
O O5 0.099963 0.161211 0.250000
O O6 0.126328 0.147794 0.542936
O O7 0.076171 0.221521 0.455994
O O8 0.000000 0.149659 0.445776
O O9 0.500000 0.535403 0.250000
O O10 0.427399 0.569907 0.036560
O O11 0.500000 0.500000 0.000000
O O12 0.338482 0.455511 0.750000
O O13 0.344428 0.500000 0.000000
O O14 0.295541 0.419448 0.000856
O O15 0.716166 0.373324 0.250000
O O16 0.581424 0.258498 0.250000
O O17 0.500000 0.215237 0.438146
#
# Coordination Sequence:
#
# PCOD8258296 Si02
#       6
#    16  16   8  16  16  16
#     4  11  21  34  52  74 102 134 167 208 253 301
#     4  10  20  32  47  68  95 128 169 214 256 298
#     4   8  16  30  50  70  92 122 158 204 254 298
#     4  10  20  36  53  72  96 126 165 210 257 303
#     4  12  24  35  49  71  98 135 173 210 252 299
#     4   9  18  33  52  72  96 128 166 207 252 301
#
# _framework density 16.769434
#
# number of rings (size 3 to 8) (size 9 to 14) (size 15 to 20)
#    0.000    1.818    1.818    3.273    1.273    2.545 
#    0.000    0.000    0.000    0.000    0.000    0.000 
#    0.000    0.727    0.000    2.000    0.000    2.909 
#
# Total GULP energy -545270.505468 kJ/mol
# GULP energy per Si atom -12392.511488 kJ/mol
# Density = 1.673127 g / cm^3
# Si number density = 16.769434 Si / 1000 Ang^3
#
#
#
# Elastic Constant Matrix: (Units=GPa)
#
#
# Indices 1 2 3 4 5 6 
#
# 1 90.7687 43.6383 36.1104 0.0000 0.0000 0.0000
# 2 43.6383 77.2784 39.0020 0.0000 0.0000 0.0000
# 3 36.1104 39.0020 96.3026 0.0000 0.0000 0.0000
# 4 0.0000 0.0000 0.0000 27.1988 0.0000 0.0000
# 5 0.0000 0.0000 0.0000 0.0000 19.5758 0.0000
# 6 0.0000 0.0000 0.0000 0.0000 0.0000 28.2813
#
#
#
# Elastic Compliance Matrix: (Units=1/GPa)
#
#
# Indices 1 2 3 4 5 6 
#
# 1 0.015739 -0.007427 -0.002894 0.000000 0.000000 0.000000
# 2 -0.007427 0.019770 -0.005222 0.000000 0.000000 0.000000
# 3 -0.002894 -0.005222 0.013584 0.000000 0.000000 0.000000
# 4 0.000000 0.000000 0.000000 0.036766 0.000000 0.000000
# 5 0.000000 0.000000 0.000000 0.000000 0.051084 0.000000
# 6 0.000000 0.000000 0.000000 0.000000 0.000000 0.035359
#
#
# Mechanical properties :
#
#
# Convention : Reuss Voigt Hill
#
# Bulk Modulus (GPa) = 55.53295 55.76124 55.64710
# Shear Modulus (GPa) = 23.87907 24.71777 24.29842
#
# Velocity S-wave (km/s) = 3.77764 3.84341 3.81066
# Velocity P-wave (km/s) = 7.22599 7.28146 7.25377
#
# Compressibility (1/GPa) = 0.01800733
#
# Stress axis : x y z
#
# Youngs Moduli (GPa) = 63.53681 50.58274 73.61775
#
# Poissons Ratio (x) = 0.37569 0.21302
# Poissons Ratio (y) = 0.47190 0.38440
# Poissons Ratio (z) = 0.18385 0.26412
#
# Static dielectric constant tensor:
#      x y z
#    x 3.328400 0.000000 0.000000 
#    y 0.000000 3.028150 0.000000 
#    z 0.000000 0.000000 3.218510 
# 
# 
# High freq. dielectric constant tensor:
#      x y z
#    x 1.625520 0.000000 0.000000 
#    y 0.000000 1.621840 0.000000 
#    z 0.000000 0.000000 1.660580 
# 
# From -- ./inp_files/8215.got.cif
#   From: 2010.03.12/outbox.cif.g09.slc.cpg/sg63_5_cif.got.tgz:8215.got - 2010.04.10 19:34:48.
