data_PCOD8258449
_publ_section_title
;
Structure prediction by ZEFSAII (Michael W. Deem and Ramdas Pophale) SiO2 
 PCOD8258449
Probable space group: C M C M
;
_chemical_formula_sum "Si O2"
_cell_formula_units_Z 96
_cell_length_a 8.923615
_cell_length_b 23.144112
_cell_length_c 23.689677
_cell_angle_alpha 90.000000
_cell_angle_beta 90.000000
_cell_angle_gamma 90.000000
_cell_volume 4892.608736
_symmetry_space_group_name_H-M "C M C M"
_symmetry_group_IT_number 63
_symmetry_cell_setting 'orthorhombic'
loop_
_space_group_symop_operation_xyz
x,y,z
-x,-y,1/2+z
x,-y,-z
-x,y,1/2-z
-x,-y,-z
x,y,1/2-z
-x,y,z
x,-y,1/2+z
1/2+x,1/2+y,z
1/2-x,1/2-y,1/2+z
1/2+x,1/2-y,-z
1/2-x,1/2+y,1/2-z
1/2-x,1/2-y,-z
1/2+x,1/2+y,1/2-z
1/2-x,1/2+y,z
1/2+x,1/2-y,1/2+z
loop_
_atom_site_type_symbol
_atom_site_label
_atom_site_fract_x
_atom_site_fract_y
_atom_site_fract_z
Si Si1 0.323977 0.108780 0.585879
Si Si2 0.327416 0.695882 0.367850
Si Si3 0.669739 0.421928 0.813951
Si Si4 0.178056 0.873289 0.974287
Si Si5 0.674989 0.023508 0.413433
Si Si6 0.678036 0.188324 0.813688
O O1 0.500000 0.116630 0.577321
O O2 0.241810 0.143811 0.535596
O O3 0.275115 0.134327 0.646794
O O4 0.273448 0.042563 0.581397
O O5 0.500000 0.709751 0.378342
O O6 0.303480 0.646411 0.321076
O O7 0.261264 0.673240 0.427994
O O8 0.251992 0.754149 0.343371
O O9 0.696671 0.439860 0.750000
O O10 0.500000 0.436627 0.833749
O O11 0.788633 0.457728 0.849799
O O12 0.236139 0.937293 0.957962
O O13 0.000000 0.874767 0.975025
O O14 0.500000 0.030503 0.425907
O O15 0.743298 0.180227 0.750000
O O16 0.500000 0.194086 0.809404
#
# Coordination Sequence:
#
# PCOD8258449 Si02
#       6
#    16  16  16  16  16  16
#     4  10  21  34  50  75 104 133 167 205 247 299
#     4   8  15  29  50  76 101 126 163 209 251 293
#     4   9  17  30  50  76 103 132 170 214 256 300
#     4  10  20  34  54  78 101 128 166 210 256 304
#     4  10  20  33  49  72 104 137 169 210 255 297
#     4   9  17  31  52  75 100 133 169 203 242 292
#
# _framework density 19.621433
#
# number of rings (size 3 to 8) (size 9 to 14) (size 15 to 20)
#    0.000    2.667    0.000    3.000    0.000    7.000 
#    0.000    1.667    0.000    4.500    0.000    0.000 
#    0.000    0.000    0.000    0.000    0.000    0.000 
#
# Total GULP energy -594974.113254 kJ/mol
# GULP energy per Si atom -12395.294026 kJ/mol
# Density = 1.957677 g / cm^3
# Si number density = 19.621433 Si / 1000 Ang^3
#
#
#
# Elastic Constant Matrix: (Units=GPa)
#
#
# Indices 1 2 3 4 5 6 
#
# 1 30.5812 21.8932 26.1212 0.0000 0.0000 0.0000
# 2 21.8932 75.9004 59.6766 0.0000 0.0000 0.0000
# 3 26.1212 59.6766 159.0707 0.0000 0.0000 0.0000
# 4 0.0000 0.0000 0.0000 18.4764 0.0000 0.0000
# 5 0.0000 0.0000 0.0000 0.0000 30.0818 0.0000
# 6 0.0000 0.0000 0.0000 0.0000 0.0000 13.0864
#
#
#
# Elastic Compliance Matrix: (Units=1/GPa)
#
#
# Indices 1 2 3 4 5 6 
#
# 1 0.042447 -0.009593 -0.003371 0.000000 0.000000 0.000000
# 2 -0.009593 0.020855 -0.006249 0.000000 0.000000 0.000000
# 3 -0.003371 -0.006249 0.009184 0.000000 0.000000 0.000000
# 4 0.000000 0.000000 0.000000 0.054123 0.000000 0.000000
# 5 0.000000 0.000000 0.000000 0.000000 0.033243 0.000000
# 6 0.000000 0.000000 0.000000 0.000000 0.000000 0.076415
#
#
# Mechanical properties :
#
#
# Convention : Reuss Voigt Hill
#
# Bulk Modulus (GPa) = 29.35940 53.43715 41.39827
# Shear Modulus (GPa) = 17.47960 22.85302 20.16631
#
# Velocity S-wave (km/s) = 2.98794 3.41647 3.20936
# Velocity P-wave (km/s) = 5.18643 6.54646 5.90573
#
# Compressibility (1/GPa) = 0.03406064
#
# Stress axis : x y z
#
# Youngs Moduli (GPa) = 23.55864 47.94945 108.88020
#
# Poissons Ratio (x) = 0.45998 0.36708
# Poissons Ratio (y) = 0.22600 0.68037
# Poissons Ratio (z) = 0.07943 0.29962
#
# Static dielectric constant tensor:
#      x y z
#    x 3.171660 0.000000 0.000000 
#    y 0.000000 3.608540 0.000000 
#    z 0.000000 0.000000 3.854690 
# 
# 
# High freq. dielectric constant tensor:
#      x y z
#    x 1.720220 0.000000 0.000000 
#    y 0.000000 1.755960 0.000000 
#    z 0.000000 0.000000 1.779050 
# 
# From -- ./inp_files/60255.got.cif
#   From: 2010.03.12/outbox.cif.g09.slc.cpg/sg63_31_cif.got.tgz:60255.got - 2010.04.10 19:34:48.
