data_PCOD8258270
_publ_section_title
;
Structure prediction by ZEFSAII (Michael W. Deem and Ramdas Pophale) SiO2 
 PCOD8258270
Probable space group: C M C M
;
_chemical_formula_sum "Si O2"
_cell_formula_units_Z 64
_cell_length_a 22.857339
_cell_length_b 19.879211
_cell_length_c 8.508927
_cell_angle_alpha 90.000000
_cell_angle_beta 90.000000
_cell_angle_gamma 90.000000
_cell_volume 3866.336154
_symmetry_space_group_name_H-M "C M C M"
_symmetry_group_IT_number 63
_symmetry_cell_setting 'orthorhombic'
loop_
_space_group_symop_operation_xyz
x,y,z
-x,-y,1/2+z
x,-y,-z
-x,y,1/2-z
-x,-y,-z
x,y,1/2-z
-x,y,z
x,-y,1/2+z
1/2+x,1/2+y,z
1/2-x,1/2-y,1/2+z
1/2+x,1/2-y,-z
1/2-x,1/2+y,1/2-z
1/2-x,1/2-y,-z
1/2+x,1/2+y,1/2-z
1/2-x,1/2+y,z
1/2+x,1/2-y,1/2+z
loop_
_atom_site_type_symbol
_atom_site_label
_atom_site_fract_x
_atom_site_fract_y
_atom_site_fract_z
Si Si1 0.133748 0.428219 0.567558
Si Si2 0.668234 0.266647 0.433205
Si Si3 0.766731 0.643116 0.571297
Si Si4 0.566372 0.198687 0.935188
O O1 0.115473 0.500000 0.500000
O O2 0.119911 0.426159 0.750000
O O3 0.203332 0.413951 0.537190
O O4 0.095100 0.372271 0.481576
O O5 0.676287 0.246931 0.250000
O O6 0.697766 0.340478 0.464406
O O7 0.699869 0.213237 0.545753
O O8 0.599975 0.261784 0.481608
O O9 0.774932 0.619138 0.750000
O O10 0.569510 0.207865 0.750000
O O11 0.500000 0.200051 0.996227
#
# Coordination Sequence:
#
# PCOD8258270 Si02
#       4
#    16  16  16  16
#     4  11  21  32  46  62  84 115 148 182 217 254
#     4   9  16  26  43  64  84 108 137 173 216 257
#     4   9  16  27  43  63  85 107 136 174 215 258
#     4  10  20  32  45  62  86 116 149 183 215 250
#
# _framework density 16.553139000000002
#
# number of rings (size 3 to 8) (size 9 to 14) (size 15 to 20)
#    0.000    2.250    0.000    7.500    0.000    5.500 
#    0.000    0.000    0.000    0.000    0.000    0.000 
#    0.000    1.000    0.000    3.250    0.000    5.750 
#
# Total GULP energy -396445.475094 kJ/mol
# GULP energy per Si atom -12388.921097 kJ/mol
# Density = 1.651546 g / cm^3
# Si number density = 16.553139 Si / 1000 Ang^3
#
#
#
# Elastic Constant Matrix: (Units=GPa)
#
#
# Indices 1 2 3 4 5 6 
#
# 1 115.6408 34.2267 21.3920 0.0000 0.0000 0.0000
# 2 34.2267 13.0719 5.8603 0.0000 0.0000 0.0000
# 3 21.3920 5.8603 53.5496 0.0000 0.0000 0.0000
# 4 0.0000 0.0000 0.0000 21.5092 0.0000 0.0000
# 5 0.0000 0.0000 0.0000 0.0000 25.6139 0.0000
# 6 0.0000 0.0000 0.0000 0.0000 0.0000 -381.3948
#
#
#
# Elastic Compliance Matrix: (Units=1/GPa)
#
#
# Indices 1 2 3 4 5 6 
#
# 1 0.039517 -0.101366 -0.004693 0.000000 0.000000 0.000000
# 2 -0.101366 0.340459 0.003235 0.000000 0.000000 0.000000
# 3 -0.004693 0.003235 0.020195 0.000000 0.000000 0.000000
# 4 0.000000 0.000000 0.000000 0.046492 0.000000 0.000000
# 5 0.000000 0.000000 0.000000 0.000000 0.039041 0.000000
# 6 0.000000 0.000000 0.000000 0.000000 0.000000 -0.002622
#
#
# Mechanical properties :
#
#
# Convention : Reuss Voigt Hill
#
# Bulk Modulus (GPa) = 5.14076 33.91334 19.52705
# Shear Modulus (GPa) = 6.63507 -58.80210 -26.08351
#
# Velocity S-wave (km/s) = 2.00426 -5.96660 -3.97387
# Velocity P-wave (km/s) = 2.91005 5.18990 3.03864
#
# Compressibility (1/GPa) = 0.19452390
#
# Stress axis : x y z
#
# Youngs Moduli (GPa) = 25.30543 2.93721 49.51689
#
# Poissons Ratio (x) = 0.29773 0.23240
# Poissons Ratio (y) = 2.56510 -0.16018
# Poissons Ratio (z) = 0.11877 -0.00950
#
# Static dielectric constant tensor:
#      x y z
#    x 3.626900 0.000000 0.000000 
#    y 0.000000 3.294030 0.000000 
#    z 0.000000 0.000000 3.169910 
# 
# 
# High freq. dielectric constant tensor:
#      x y z
#    x 1.628130 0.000000 0.000000 
#    y 0.000000 1.585680 0.000000 
#    z 0.000000 0.000000 1.655340 
# 
# From -- ./inp_files/6017.got.cif
#   From: 2010.03.12/outbox.cif.g09.slc.cpg/sg63_4_cif.got.tgz:6017.got - 2010.04.10 19:34:48.
