data_PCOD8258938
_publ_section_title
;
Structure prediction by ZEFSAII (Michael W. Deem and Ramdas Pophale) SiO2 
 PCOD8258938
Probable space group: C M C M
;
_chemical_formula_sum "Si O2"
_cell_formula_units_Z 88
_cell_length_a 16.991220
_cell_length_b 28.489228
_cell_length_c 9.025332
_cell_angle_alpha 90.000000
_cell_angle_beta 90.000000
_cell_angle_gamma 90.000000
_cell_volume 4368.863044
_symmetry_space_group_name_H-M "C M C M"
_symmetry_group_IT_number 63
_symmetry_cell_setting 'orthorhombic'
loop_
_space_group_symop_operation_xyz
x,y,z
-x,-y,1/2+z
x,-y,-z
-x,y,1/2-z
-x,-y,-z
x,y,1/2-z
-x,y,z
x,-y,1/2+z
1/2+x,1/2+y,z
1/2-x,1/2-y,1/2+z
1/2+x,1/2-y,-z
1/2-x,1/2+y,1/2-z
1/2-x,1/2-y,-z
1/2+x,1/2+y,1/2-z
1/2-x,1/2+y,z
1/2+x,1/2-y,1/2+z
loop_
_atom_site_type_symbol
_atom_site_label
_atom_site_fract_x
_atom_site_fract_y
_atom_site_fract_z
Si Si1 0.310944 0.450564 0.923622
Si Si2 0.000000 0.549494 0.575075
Si Si3 0.146006 0.595951 0.076611
Si Si4 0.411118 0.637116 0.426729
Si Si5 0.089667 0.321197 0.081350
Si Si6 0.324533 0.271340 0.581095
O O1 0.318508 0.458617 0.750000
O O2 0.225176 0.431129 0.965407
O O3 0.374448 0.412371 0.979387
O O4 0.327855 0.500000 0.000000
O O5 0.000000 0.500000 0.500000
O O6 0.077570 0.575918 0.524865
O O7 0.000000 0.543754 0.750000
O O8 0.126954 0.591359 0.250000
O O9 0.149566 0.650708 0.027971
O O10 0.411591 0.640261 0.250000
O O11 0.500000 0.640671 0.489095
O O12 0.357420 0.679971 0.488784
O O13 0.103709 0.338042 0.250000
O O14 0.104867 0.265915 0.067839
O O15 0.000000 0.331099 0.033007
O O16 0.299394 0.280115 0.750000
O O17 0.250000 0.250000 0.500000
#
# Coordination Sequence:
#
# PCOD8258938 Si02
#       6
#    16   8  16  16  16  16
#     4  10  22  38  58  84 112 146 192 243 296 351
#     4  12  24  38  56  80 112 152 200 248 293 346
#     4  11  22  37  56  82 115 153 195 239 294 353
#     4   9  18  36  61  86 114 152 196 238 283 346
#     4  10  20  34  54  82 114 149 189 234 283 340
#     4  10  20  35  57  85 116 152 192 233 284 345
#
# _framework density 20.142541000000001
#
# number of rings (size 3 to 8) (size 9 to 14) (size 15 to 20)
#    0.000    1.818    0.909    3.545    0.000    7.636 
#    0.000    0.909    0.000    2.727    0.000    0.000 
#    0.000    0.000    0.000    0.000    0.000    0.000 
#
# Total GULP energy -545565.750984 kJ/mol
# GULP energy per Si atom -12399.221613 kJ/mol
# Density = 2.009670 g / cm^3
# Si number density = 20.142541 Si / 1000 Ang^3
#
#
#
# Elastic Constant Matrix: (Units=GPa)
#
#
# Indices 1 2 3 4 5 6 
#
# 1 135.0543 74.5492 44.0416 0.0000 0.0000 0.0000
# 2 74.5492 166.4271 41.4292 0.0000 0.0000 0.0000
# 3 44.0416 41.4292 63.7651 0.0000 0.0000 0.0000
# 4 0.0000 0.0000 0.0000 32.4483 0.0000 0.0000
# 5 0.0000 0.0000 0.0000 0.0000 20.9227 0.0000
# 6 0.0000 0.0000 0.0000 0.0000 0.0000 26.4621
#
#
#
# Elastic Compliance Matrix: (Units=1/GPa)
#
#
# Indices 1 2 3 4 5 6 
#
# 1 0.011172 -0.003678 -0.005326 0.000000 0.000000 0.000000
# 2 -0.003678 0.008379 -0.002903 0.000000 0.000000 0.000000
# 3 -0.005326 -0.002903 0.021248 0.000000 0.000000 0.000000
# 4 0.000000 0.000000 0.000000 0.030818 0.000000 0.000000
# 5 0.000000 0.000000 0.000000 0.000000 0.047795 0.000000
# 6 0.000000 0.000000 0.000000 0.000000 0.000000 0.037790
#
#
# Mechanical properties :
#
#
# Convention : Reuss Voigt Hill
#
# Bulk Modulus (GPa) = 58.88436 76.14293 67.51365
# Shear Modulus (GPa) = 26.78397 29.64838 28.21618
#
# Velocity S-wave (km/s) = 3.65049 3.84073 3.74682
# Velocity P-wave (km/s) = 6.86042 7.58633 7.23249
#
# Compressibility (1/GPa) = 0.01698244
#
# Stress axis : x y z
#
# Youngs Moduli (GPa) = 89.51112 119.34472 47.06388
#
# Poissons Ratio (x) = 0.43900 0.25067
# Poissons Ratio (y) = 0.32926 0.13665
# Poissons Ratio (z) = 0.47676 0.34651
#
# Static dielectric constant tensor:
#      x y z
#    x 3.727840 0.000000 0.000000 
#    y 0.000000 3.902660 0.000000 
#    z 0.000000 0.000000 3.147880 
# 
# 
# High freq. dielectric constant tensor:
#      x y z
#    x 1.789050 0.000000 0.000000 
#    y 0.000000 1.806930 0.000000 
#    z 0.000000 0.000000 1.756860 
# 
# From -- ./inp_files/6783.got.cif
#   From: 2010.03.12/outbox.cif.g09.slc.cpg/sg63_4_cif.got.tgz:6783.got - 2010.04.10 19:34:48.
