data_PCOD8258268
_publ_section_title
;
Structure prediction by ZEFSAII (Michael W. Deem and Ramdas Pophale) SiO2 
 PCOD8258268
Probable space group: C M C M
;
_chemical_formula_sum "Si O2"
_cell_formula_units_Z 96
_cell_length_a 24.663662
_cell_length_b 24.824479
_cell_length_c 8.904241
_cell_angle_alpha 90.000000
_cell_angle_beta 90.000000
_cell_angle_gamma 90.000000
_cell_volume 5451.733384
_symmetry_space_group_name_H-M "C M C M"
_symmetry_group_IT_number 63
_symmetry_cell_setting 'orthorhombic'
loop_
_space_group_symop_operation_xyz
x,y,z
-x,-y,1/2+z
x,-y,-z
-x,y,1/2-z
-x,-y,-z
x,y,1/2-z
-x,y,z
x,-y,1/2+z
1/2+x,1/2+y,z
1/2-x,1/2-y,1/2+z
1/2+x,1/2-y,-z
1/2-x,1/2+y,1/2-z
1/2-x,1/2-y,-z
1/2+x,1/2+y,1/2-z
1/2-x,1/2+y,z
1/2+x,1/2-y,1/2+z
loop_
_atom_site_type_symbol
_atom_site_label
_atom_site_fract_x
_atom_site_fract_y
_atom_site_fract_z
Si Si1 0.602982 0.950117 0.414555
Si Si2 0.227388 0.448771 0.414464
Si Si3 0.560333 0.742389 0.425363
Si Si4 0.669554 0.731698 0.925095
Si Si5 0.263597 0.834427 0.925301
Si Si6 0.939579 0.353093 0.581835
O O1 0.575596 0.941306 0.250000
O O2 0.665271 0.964004 0.390087
O O3 0.600171 0.898149 0.519884
O O4 0.574266 0.000000 0.500000
O O5 0.255015 0.500000 0.500000
O O6 0.255114 0.442845 0.250000
O O7 0.231178 0.392467 0.500530
O O8 0.572223 0.734697 0.250000
O O9 0.500000 0.718882 0.466209
O O10 0.608859 0.715772 0.520725
O O11 0.561405 0.804853 0.465099
O O12 0.675150 0.718935 0.750000
O O13 0.684719 0.794817 0.958547
O O14 0.709730 0.693594 0.014613
O O15 0.256809 0.843706 0.750000
O O16 0.920564 0.334880 0.750000
O O17 0.000000 0.377330 0.589899
#
# Coordination Sequence:
#
# PCOD8258268 Si02
#       6
#    16  16  16  16  16  16
#     4  10  20  32  46  62  82 111 148 191 236 281
#     4  10  20  33  49  69  93 122 157 195 237 286
#     4  10  20  33  49  69  94 124 157 194 237 285
#     4  10  20  33  51  74 100 131 165 202 244 291
#     4  10  20  33  50  73 101 131 163 201 245 292
#     4  10  20  32  45  61  82 111 149 192 236 281
#
# _framework density 17.609079000000001
#
# number of rings (size 3 to 8) (size 9 to 14) (size 15 to 20)
#    0.000    2.000    0.000    4.000    0.000    9.000 
#    0.000    0.000    0.000    0.000    0.000    0.000 
#    0.000    0.667    0.000    2.500    0.000    3.833 
#
# Total GULP energy -594879.853420 kJ/mol
# GULP energy per Si atom -12393.330280 kJ/mol
# Density = 1.756900 g / cm^3
# Si number density = 17.609079 Si / 1000 Ang^3
#
#
#
# Elastic Constant Matrix: (Units=GPa)
#
#
# Indices 1 2 3 4 5 6 
#
# 1 61.8347 8.4642 27.3447 0.0000 0.0000 0.0000
# 2 8.4642 62.6751 37.3058 0.0000 0.0000 0.0000
# 3 27.3447 37.3058 114.5626 0.0000 0.0000 0.0000
# 4 0.0000 0.0000 0.0000 27.9145 0.0000 0.0000
# 5 0.0000 0.0000 0.0000 0.0000 25.9947 0.0000
# 6 0.0000 0.0000 0.0000 0.0000 0.0000 16.5640
#
#
#
# Elastic Compliance Matrix: (Units=1/GPa)
#
#
# Indices 1 2 3 4 5 6 
#
# 1 0.018082 0.000158 -0.004367 0.000000 0.000000 0.000000
# 2 0.000158 0.019793 -0.006483 0.000000 0.000000 0.000000
# 3 -0.004367 -0.006483 0.011882 0.000000 0.000000 0.000000
# 4 0.000000 0.000000 0.000000 0.035824 0.000000 0.000000
# 5 0.000000 0.000000 0.000000 0.000000 0.038469 0.000000
# 6 0.000000 0.000000 0.000000 0.000000 0.000000 0.060372
#
#
# Mechanical properties :
#
#
# Convention : Reuss Voigt Hill
#
# Bulk Modulus (GPa) = 35.24616 42.81132 39.02874
# Shear Modulus (GPa) = 23.22723 25.15847 24.19285
#
# Velocity S-wave (km/s) = 3.63581 3.78394 3.71062
# Velocity P-wave (km/s) = 6.13880 6.59210 6.36949
#
# Compressibility (1/GPa) = 0.02837188
#
# Stress axis : x y z
#
# Youngs Moduli (GPa) = 55.30399 50.52343 84.15864
#
# Poissons Ratio (x) = -0.00796 0.36754
# Poissons Ratio (y) = -0.00871 0.54559
# Poissons Ratio (z) = 0.24153 0.32754
#
# Static dielectric constant tensor:
#      x y z
#    x 3.270820 0.000000 0.000000 
#    y 0.000000 2.983440 0.000000 
#    z 0.000000 0.000000 3.633770 
# 
# 
# High freq. dielectric constant tensor:
#      x y z
#    x 1.655640 0.000000 0.000000 
#    y 0.000000 1.645870 0.000000 
#    z 0.000000 0.000000 1.705930 
# 
# From -- ./inp_files/10430.got.cif
#   From: 2010.03.12/outbox.cif.g09.slc.cpg/sg63_6_cif.got.tgz:10430.got - 2010.04.10 19:34:48.
