data_PCOD8258682
_publ_section_title
;
Structure prediction by ZEFSAII (Michael W. Deem and Ramdas Pophale) SiO2 
 PCOD8258682
Probable space group: C M C M
;
_chemical_formula_sum "Si O2"
_cell_formula_units_Z 96
_cell_length_a 21.614938
_cell_length_b 25.652480
_cell_length_c 8.726594
_cell_angle_alpha 90.000000
_cell_angle_beta 90.000000
_cell_angle_gamma 90.000000
_cell_volume 4838.693608
_symmetry_space_group_name_H-M "C M C M"
_symmetry_group_IT_number 63
_symmetry_cell_setting 'orthorhombic'
loop_
_space_group_symop_operation_xyz
x,y,z
-x,-y,1/2+z
x,-y,-z
-x,y,1/2-z
-x,-y,-z
x,y,1/2-z
-x,y,z
x,-y,1/2+z
1/2+x,1/2+y,z
1/2-x,1/2-y,1/2+z
1/2+x,1/2-y,-z
1/2-x,1/2+y,1/2-z
1/2-x,1/2-y,-z
1/2+x,1/2+y,1/2-z
1/2-x,1/2+y,z
1/2+x,1/2-y,1/2+z
loop_
_atom_site_type_symbol
_atom_site_label
_atom_site_fract_x
_atom_site_fract_y
_atom_site_fract_z
Si Si1 0.872253 0.448404 0.930414
Si Si2 0.500000 0.187761 0.424779
Si Si3 0.657385 0.353296 0.069120
Si Si4 0.570671 0.554802 0.931318
Si Si5 0.798884 0.645701 0.930010
Si Si6 0.500000 0.921295 0.070385
Si Si7 0.869746 0.261514 0.928559
O O1 0.872809 0.452204 0.750000
O O2 0.839141 0.500000 0.000000
O O3 0.837767 0.396396 0.978443
O O4 0.941258 0.447744 0.994094
O O5 0.500000 0.166293 0.250000
O O6 0.500000 0.140404 0.542129
O O7 0.559730 0.222528 0.456814
O O8 0.649724 0.353301 0.250000
O O9 0.614086 0.399170 0.000834
O O10 0.728081 0.362504 0.020925
O O11 0.636151 0.297056 0.006571
O O12 0.576843 0.551150 0.750000
O O13 0.500000 0.566519 0.980869
O O14 0.593536 0.500000 0.000000
O O15 0.808765 0.637719 0.750000
O O16 0.822216 0.702818 0.977104
O O17 0.500000 0.932295 0.250000
O O18 0.851458 0.265050 0.750000
#
# Coordination Sequence:
#
# PCOD8258682 Si02
#       7
#    16   8  16  16  16   8  16
#     4  12  25  42  62  86 116 153 201 247 294 348
#     4  10  20  33  57  88 119 153 196 245 290 346
#     4   9  20  36  58  87 116 151 196 241 285 349
#     4   9  18  35  59  84 113 146 184 232 289 347
#     4  11  22  38  57  82 119 158 196 240 292 345
#     4  12  23  39  62  88 121 155 193 241 299 348
#     4  10  20  36  58  85 117 153 195 240 293 348
#
# _framework density 19.840066
#
# number of rings (size 3 to 8) (size 9 to 14) (size 15 to 20)
#    0.000    1.667    1.667    3.500    1.167    0.667 
#    0.000    5.000    0.000    0.000    0.000    0.000 
#    0.000    0.000    0.000    0.000    0.000    0.000 
#
# Total GULP energy -595337.975723 kJ/mol
# GULP energy per Si atom -12402.874494 kJ/mol
# Density = 1.979491 g / cm^3
# Si number density = 19.840066 Si / 1000 Ang^3
#
#
#
# Elastic Constant Matrix: (Units=GPa)
#
#
# Indices 1 2 3 4 5 6 
#
# 1 113.1584 67.2828 36.6843 0.0000 0.0000 0.0000
# 2 67.2828 166.9253 40.1738 0.0000 0.0000 0.0000
# 3 36.6843 40.1738 86.1298 0.0000 0.0000 0.0000
# 4 0.0000 0.0000 0.0000 32.8834 0.0000 0.0000
# 5 0.0000 0.0000 0.0000 0.0000 -142.4006 0.0000
# 6 0.0000 0.0000 0.0000 0.0000 0.0000 23.7840
#
#
#
# Elastic Compliance Matrix: (Units=1/GPa)
#
#
# Indices 1 2 3 4 5 6 
#
# 1 0.012415 -0.004203 -0.003327 0.000000 0.000000 0.000000
# 2 -0.004203 0.008171 -0.002021 0.000000 0.000000 0.000000
# 3 -0.003327 -0.002021 0.013970 0.000000 0.000000 0.000000
# 4 0.000000 0.000000 0.000000 0.030411 0.000000 0.000000
# 5 0.000000 0.000000 0.000000 0.000000 -0.007022 0.000000
# 6 0.000000 0.000000 0.000000 0.000000 0.000000 0.042045
#
#
# Mechanical properties :
#
#
# Convention : Reuss Voigt Hill
#
# Bulk Modulus (GPa) = 64.71126 72.72172 68.71649
# Shear Modulus (GPa) = 40.24327 -2.34181 18.95073
#
# Velocity S-wave (km/s) = 4.50864 -1.08762 3.09394
# Velocity P-wave (km/s) = 7.73247 5.92928 6.89012
#
# Compressibility (1/GPa) = 0.01545326
#
# Stress axis : x y z
#
# Youngs Moduli (GPa) = 80.54702 122.37807 71.58088
#
# Poissons Ratio (x) = 0.51441 0.23816
# Poissons Ratio (y) = 0.33857 0.14467
# Poissons Ratio (z) = 0.26800 0.24734
#
# Static dielectric constant tensor:
#      x y z
#    x 3.736470 0.000000 0.000000 
#    y 0.000000 3.894380 0.000000 
#    z 0.000000 0.000000 3.461370 
# 
# 
# High freq. dielectric constant tensor:
#      x y z
#    x 1.776540 0.000000 0.000000 
#    y 0.000000 1.790500 0.000000 
#    z 0.000000 0.000000 1.755560 
# 
# From -- ./inp_files/10564.got.cif
#   From: 2010.03.12/outbox.cif.g09.slc.cpg/sg63_6_cif.got.tgz:10564.got - 2010.04.10 19:34:48.
