data_PCOD8258016
_publ_section_title
;
Structure prediction by ZEFSAII (Michael W. Deem and Ramdas Pophale) SiO2 
 PCOD8258016
Probable space group: C M C M
;
_chemical_formula_sum "Si O2"
_cell_formula_units_Z 80
_cell_length_a 8.553860
_cell_length_b 15.656677
_cell_length_c 28.952816
_cell_angle_alpha 90.000000
_cell_angle_beta 90.000000
_cell_angle_gamma 90.000000
_cell_volume 3877.506552
_symmetry_space_group_name_H-M "C M C M"
_symmetry_group_IT_number 63
_symmetry_cell_setting 'orthorhombic'
loop_
_space_group_symop_operation_xyz
x,y,z
-x,-y,1/2+z
x,-y,-z
-x,y,1/2-z
-x,-y,-z
x,y,1/2-z
-x,y,z
x,-y,1/2+z
1/2+x,1/2+y,z
1/2-x,1/2-y,1/2+z
1/2+x,1/2-y,-z
1/2-x,1/2+y,1/2-z
1/2-x,1/2-y,-z
1/2+x,1/2+y,1/2-z
1/2-x,1/2+y,z
1/2+x,1/2-y,1/2+z
loop_
_atom_site_type_symbol
_atom_site_label
_atom_site_fract_x
_atom_site_fract_y
_atom_site_fract_z
Si Si1 0.183862 0.340373 0.137869
Si Si2 0.185931 0.500644 0.801926
Si Si3 0.681683 0.411706 0.049176
Si Si4 0.681730 0.095397 0.045247
Si Si5 0.315715 0.164278 0.143294
O O1 0.246310 0.415835 0.170972
O O2 0.271774 0.345138 0.088754
O O3 0.229246 0.249769 0.160699
O O4 0.000000 0.347532 0.130180
O O5 0.253054 0.503313 0.750000
O O6 0.248517 0.415255 0.826878
O O7 0.000000 0.500433 0.801580
O O8 0.500000 0.434289 0.051732
O O9 0.782595 0.496837 0.056445
O O10 0.720269 0.371580 0.998906
O O11 0.500000 0.104554 0.033819
O O12 0.728180 0.150514 0.089718
O O13 0.500000 0.174440 0.150334
#
# Coordination Sequence:
#
# PCOD8258016 Si02
#       5
#    16  16  16  16  16
#     4  11  22  38  60  88 119 157 197 239 291 348
#     4   9  19  39  64  86 114 153 194 239 296 354
#     4  11  21  34  56  86 119 156 198 242 288 341
#     4  10  19  35  58  84 118 158 198 238 289 350
#     4  10  21  38  60  88 118 153 194 239 290 347
#
# _framework density 20.631815
#
# number of rings (size 3 to 8) (size 9 to 14) (size 15 to 20)
#    0.000    1.800    2.000    4.200    0.000    3.200 
#    0.000    0.000    0.000    4.200    0.000    0.000 
#    0.000    0.000    0.000    0.000    0.000    0.000 
#
# Total GULP energy -496100.401911 kJ/mol
# GULP energy per Si atom -12402.510048 kJ/mol
# Density = 2.058486 g / cm^3
# Si number density = 20.631815 Si / 1000 Ang^3
#
#
#
# Elastic Constant Matrix: (Units=GPa)
#
#
# Indices 1 2 3 4 5 6 
#
# 1 42.2034 19.6867 39.5704 0.0000 0.0000 0.0000
# 2 19.6867 148.8391 74.8261 0.0000 0.0000 0.0000
# 3 39.5704 74.8261 131.8233 0.0000 0.0000 0.0000
# 4 0.0000 0.0000 0.0000 14.7601 0.0000 0.0000
# 5 0.0000 0.0000 0.0000 0.0000 13.0655 0.0000
# 6 0.0000 0.0000 0.0000 0.0000 0.0000 30.7463
#
#
#
# Elastic Compliance Matrix: (Units=1/GPa)
#
#
# Indices 1 2 3 4 5 6 
#
# 1 0.033055 0.000862 -0.010412 0.000000 0.000000 0.000000
# 2 0.000862 0.009424 -0.005608 0.000000 0.000000 0.000000
# 3 -0.010412 -0.005608 0.013895 0.000000 0.000000 0.000000
# 4 0.000000 0.000000 0.000000 0.067750 0.000000 0.000000
# 5 0.000000 0.000000 0.000000 0.000000 0.076538 0.000000
# 6 0.000000 0.000000 0.000000 0.000000 0.000000 0.032524
#
#
# Mechanical properties :
#
#
# Convention : Reuss Voigt Hill
#
# Bulk Modulus (GPa) = 38.37580 65.67023 52.02302
# Shear Modulus (GPa) = 18.36975 24.29987 21.33481
#
# Velocity S-wave (km/s) = 2.98713 3.43561 3.21919
# Velocity P-wave (km/s) = 5.52611 6.90193 6.25198
#
# Compressibility (1/GPa) = 0.02605809
#
# Stress axis : x y z
#
# Youngs Moduli (GPa) = 30.25286 106.11220 71.97072
#
# Poissons Ratio (x) = -0.09149 0.74934
# Poissons Ratio (y) = -0.02608 0.40362
# Poissons Ratio (z) = 0.31498 0.59509
#
# Static dielectric constant tensor:
#      x y z
#    x 3.392570 0.000000 0.000000 
#    y 0.000000 3.693150 0.000000 
#    z 0.000000 0.000000 3.922250 
# 
# 
# High freq. dielectric constant tensor:
#      x y z
#    x 1.785930 0.000000 0.000000 
#    y 0.000000 1.805540 0.000000 
#    z 0.000000 0.000000 1.806350 
# 
# From -- ./inp_files/71561.got.cif
#   From: 2010.03.12/outbox.cif.g09.slc.cpg/sg63_36_cif.got.tgz:71561.got - 2010.04.10 19:34:48.
