data_PCOD8258975
_publ_section_title
;
Structure prediction by ZEFSAII (Michael W. Deem and Ramdas Pophale) SiO2 
 PCOD8258975
Probable space group: C M C M
;
_chemical_formula_sum "Si O2"
_cell_formula_units_Z 48
_cell_length_a 29.360718
_cell_length_b 4.997624
_cell_length_c 17.532147
_cell_angle_alpha 90.000000
_cell_angle_beta 90.000000
_cell_angle_gamma 90.000000
_cell_volume 2572.559059
_symmetry_space_group_name_H-M "C M C M"
_symmetry_group_IT_number 63
_symmetry_cell_setting 'orthorhombic'
loop_
_space_group_symop_operation_xyz
x,y,z
-x,-y,1/2+z
x,-y,-z
-x,y,1/2-z
-x,-y,-z
x,y,1/2-z
-x,y,z
x,-y,1/2+z
1/2+x,1/2+y,z
1/2-x,1/2-y,1/2+z
1/2+x,1/2-y,-z
1/2-x,1/2+y,1/2-z
1/2-x,1/2-y,-z
1/2+x,1/2+y,1/2-z
1/2-x,1/2+y,z
1/2+x,1/2-y,1/2+z
loop_
_atom_site_type_symbol
_atom_site_label
_atom_site_fract_x
_atom_site_fract_y
_atom_site_fract_z
Si Si1 0.000000 0.746098 0.554482
Si Si2 0.718827 0.634287 0.750000
Si Si3 0.132950 0.920516 0.334196
Si Si4 0.095832 0.409877 0.086873
O O1 0.000000 0.500000 0.500000
O O2 0.046005 0.721002 0.604244
O O3 0.000000 0.000000 0.500000
O O4 0.740795 0.342790 0.750000
O O5 0.686418 0.661759 0.674762
O O6 0.114253 0.004895 0.250000
O O7 0.103331 0.670150 0.362088
O O8 0.130601 0.172744 0.391376
O O9 0.103023 0.500000 0.000000
#
# Coordination Sequence:
#
# PCOD8258975 Si02
#       4
#     8   8  16  16
#     4  10  20  34  55  82 115 160 197 216 265 344
#     4  10  20  38  64  81 106 149 194 228 286 376
#     4  10  22  36  59  86 113 143 200 233 294 340
#     4  11  20  37  58  84 117 155 193 236 276 335
#
# _framework density 18.658463999999999
#
# number of rings (size 3 to 8) (size 9 to 14) (size 15 to 20)
#    1.000    0.667    0.000    8.000    0.000    0.000 
#    0.000    5.000    0.000   20.000    0.000    0.000 
#    0.000    0.000    0.000    0.000    0.000    0.000 
#
# Total GULP energy -297366.809110 kJ/mol
# GULP energy per Si atom -12390.283713 kJ/mol
# Density = 1.861600 g / cm^3
# Si number density = 18.658464 Si / 1000 Ang^3
#
#
#
# Elastic Constant Matrix: (Units=GPa)
#
#
# Indices 1 2 3 4 5 6 
#
# 1 94.7381 36.4808 49.9530 0.0000 0.0000 0.0000
# 2 36.4808 130.8731 37.3537 0.0000 0.0000 0.0000
# 3 49.9530 37.3537 75.6046 0.0000 0.0000 0.0000
# 4 0.0000 0.0000 0.0000 42.0140 0.0000 0.0000
# 5 0.0000 0.0000 0.0000 0.0000 21.3756 0.0000
# 6 0.0000 0.0000 0.0000 0.0000 0.0000 41.1156
#
#
#
# Elastic Compliance Matrix: (Units=1/GPa)
#
#
# Indices 1 2 3 4 5 6 
#
# 1 0.016530 -0.001735 -0.010065 0.000000 0.000000 0.000000
# 2 -0.001735 0.009078 -0.003338 0.000000 0.000000 0.000000
# 3 -0.010065 -0.003338 0.021526 0.000000 0.000000 0.000000
# 4 0.000000 0.000000 0.000000 0.023802 0.000000 0.000000
# 5 0.000000 0.000000 0.000000 0.000000 0.046782 0.000000
# 6 0.000000 0.000000 0.000000 0.000000 0.000000 0.024322
#
#
# Mechanical properties :
#
#
# Convention : Reuss Voigt Hill
#
# Bulk Modulus (GPa) = 59.32096 60.97674 60.14885
# Shear Modulus (GPa) = 28.10016 32.72958 30.41487
#
# Velocity S-wave (km/s) = 3.88497 4.19279 4.04181
# Velocity P-wave (km/s) = 7.21013 7.49605 7.35448
#
# Compressibility (1/GPa) = 0.01685745
#
# Stress axis : x y z
#
# Youngs Moduli (GPa) = 60.49468 110.16218 46.45571
#
# Poissons Ratio (x) = 0.19116 0.46756
# Poissons Ratio (y) = 0.10497 0.15509
# Poissons Ratio (z) = 0.60885 0.36777
#
# Static dielectric constant tensor:
#      x y z
#    x 0.924680 0.000000 0.000000 
#    y 0.000000 3.469300 0.000000 
#    z 0.000000 0.000000 3.294140 
# 
# 
# High freq. dielectric constant tensor:
#      x y z
#    x 1.717980 0.000000 0.000000 
#    y 0.000000 1.746900 0.000000 
#    z 0.000000 0.000000 1.699410 
# 
# From -- ./inp_files/38163.got.cif
#   From: 2010.03.12/outbox.cif.g09.slc.cpg/sg63_20_cif.got.tgz:38163.got - 2010.04.10 19:34:48.
