data_PCOD8258907
_publ_section_title
;
Structure prediction by ZEFSAII (Michael W. Deem and Ramdas Pophale) SiO2 
 PCOD8258907
Probable space group: C M C M
;
_chemical_formula_sum "Si O2"
_cell_formula_units_Z 96
_cell_length_a 14.990050
_cell_length_b 21.648623
_cell_length_c 15.050574
_cell_angle_alpha 90.000000
_cell_angle_beta 90.000000
_cell_angle_gamma 90.000000
_cell_volume 4884.121086
_symmetry_space_group_name_H-M "C M C M"
_symmetry_group_IT_number 63
_symmetry_cell_setting 'orthorhombic'
loop_
_space_group_symop_operation_xyz
x,y,z
-x,-y,1/2+z
x,-y,-z
-x,y,1/2-z
-x,-y,-z
x,y,1/2-z
-x,y,z
x,-y,1/2+z
1/2+x,1/2+y,z
1/2-x,1/2-y,1/2+z
1/2+x,1/2-y,-z
1/2-x,1/2+y,1/2-z
1/2-x,1/2-y,-z
1/2+x,1/2+y,1/2-z
1/2-x,1/2+y,z
1/2+x,1/2-y,1/2+z
loop_
_atom_site_type_symbol
_atom_site_label
_atom_site_fract_x
_atom_site_fract_y
_atom_site_fract_z
Si Si1 0.900450 0.130278 0.495065
Si Si2 0.175761 0.657292 0.651268
Si Si3 0.216551 0.428691 0.994297
Si Si4 0.135512 0.215848 0.649794
Si Si5 0.399557 0.719994 0.153596
Si Si6 0.397466 0.856285 0.853826
O O1 0.824828 0.077401 0.498020
O O2 0.913820 0.166514 0.587466
O O3 0.857614 0.177929 0.423294
O O4 0.000000 0.103677 0.471389
O O5 0.168310 0.627863 0.750000
O O6 0.173986 0.602347 0.581509
O O7 0.260298 0.702467 0.643258
O O8 0.098012 0.706704 0.630965
O O9 0.170658 0.399878 0.907386
O O10 0.191935 0.500000 0.000000
O O11 0.098823 0.207130 0.750000
O O12 0.117058 0.285308 0.616762
O O13 0.351544 0.709158 0.250000
O O14 0.500000 0.697087 0.160787
O O15 0.375296 0.864652 0.750000
O O16 0.500000 0.875024 0.873978
#
# Coordination Sequence:
#
# PCOD8258907 Si02
#       6
#    16  16  16  16  16  16
#     4  10  20  34  54  80 109 140 174 215 265 318
#     4   9  18  33  52  76 106 138 173 215 266 320
#     4  11  24  38  53  74 104 146 190 225 254 295
#     4   9  17  31  54  82 108 132 163 212 274 332
#     4   9  17  30  51  80 109 133 161 207 271 334
#     4  10  21  37  58  83 108 135 170 216 271 324
#
# _framework density 19.655532999999998
#
# number of rings (size 3 to 8) (size 9 to 14) (size 15 to 20)
#    0.000    2.333    0.000    2.500    0.000    9.000 
#    0.000    0.000    0.000    2.000    0.000    4.667 
#    0.000    0.000    0.000    0.000    0.000    0.000 
#
# Total GULP energy -594835.217489 kJ/mol
# GULP energy per Si atom -12392.400364 kJ/mol
# Density = 1.961080 g / cm^3
# Si number density = 19.655533 Si / 1000 Ang^3
#
#
#
# Elastic Constant Matrix: (Units=GPa)
#
#
# Indices 1 2 3 4 5 6 
#
# 1 61.2247 16.1441 19.2648 0.0000 0.0000 0.0000
# 2 16.1441 77.0526 34.2858 0.0000 0.0000 0.0000
# 3 19.2648 34.2858 93.1272 0.0000 0.0000 0.0000
# 4 0.0000 0.0000 0.0000 15.1547 0.0000 0.0000
# 5 0.0000 0.0000 0.0000 0.0000 23.9673 0.0000
# 6 0.0000 0.0000 0.0000 0.0000 0.0000 12.7500
#
#
#
# Elastic Compliance Matrix: (Units=1/GPa)
#
#
# Indices 1 2 3 4 5 6 
#
# 1 0.017867 -0.002510 -0.002772 0.000000 0.000000 0.000000
# 2 -0.002510 0.015873 -0.005325 0.000000 0.000000 0.000000
# 3 -0.002772 -0.005325 0.013272 0.000000 0.000000 0.000000
# 4 0.000000 0.000000 0.000000 0.065986 0.000000 0.000000
# 5 0.000000 0.000000 0.000000 0.000000 0.041723 0.000000
# 6 0.000000 0.000000 0.000000 0.000000 0.000000 0.078431
#
#
# Mechanical properties :
#
#
# Convention : Reuss Voigt Hill
#
# Bulk Modulus (GPa) = 38.76140 41.19933 39.98037
# Shear Modulus (GPa) = 19.01380 21.15506 20.08443
#
# Velocity S-wave (km/s) = 3.11360 3.28425 3.20006
# Velocity P-wave (km/s) = 5.71744 5.94877 5.83425
#
# Compressibility (1/GPa) = 0.02579886
#
# Stress axis : x y z
#
# Youngs Moduli (GPa) = 55.96780 62.99860 75.34783
#
# Poissons Ratio (x) = 0.15813 0.20887
# Poissons Ratio (y) = 0.14049 0.40120
# Poissons Ratio (z) = 0.15514 0.33545
#
# Static dielectric constant tensor:
#      x y z
#    x 3.617440 0.000000 0.000000 
#    y 0.000000 3.131840 0.000000 
#    z 0.000000 0.000000 3.955670 
# 
# 
# High freq. dielectric constant tensor:
#      x y z
#    x 1.770830 0.000000 0.000000 
#    y 0.000000 1.719530 0.000000 
#    z 0.000000 0.000000 1.778710 
# 
# From -- ./inp_files/31961.got.cif
#   From: 2010.03.12/outbox.cif.g09.slc.cpg/sg63_16_cif.got.tgz:31961.got - 2010.04.10 19:34:48.
