data_PCOD8258859
_publ_section_title
;
Structure prediction by ZEFSAII (Michael W. Deem and Ramdas Pophale) SiO2 
 PCOD8258859
Probable space group: C M C M
;
_chemical_formula_sum "Si O2"
_cell_formula_units_Z 128
_cell_length_a 22.499887
_cell_length_b 13.664401
_cell_length_c 22.903326
_cell_angle_alpha 90.000000
_cell_angle_beta 90.000000
_cell_angle_gamma 90.000000
_cell_volume 7041.569826
_symmetry_space_group_name_H-M "C M C M"
_symmetry_group_IT_number 63
_symmetry_cell_setting 'orthorhombic'
loop_
_space_group_symop_operation_xyz
x,y,z
-x,-y,1/2+z
x,-y,-z
-x,y,1/2-z
-x,-y,-z
x,y,1/2-z
-x,y,z
x,-y,1/2+z
1/2+x,1/2+y,z
1/2-x,1/2-y,1/2+z
1/2+x,1/2-y,-z
1/2-x,1/2+y,1/2-z
1/2-x,1/2-y,-z
1/2+x,1/2+y,1/2-z
1/2-x,1/2+y,z
1/2+x,1/2-y,1/2+z
loop_
_atom_site_type_symbol
_atom_site_label
_atom_site_fract_x
_atom_site_fract_y
_atom_site_fract_z
Si Si1 0.567750 0.235901 0.905663
Si Si2 0.674274 0.475753 0.182596
Si Si3 0.343195 0.299189 0.818395
Si Si4 0.931044 0.172738 0.683233
Si Si5 0.744623 0.164497 0.888953
Si Si6 0.932025 0.111751 0.993691
Si Si7 0.635228 0.749439 0.583606
Si Si8 0.647587 0.109494 0.979030
O O1 0.500000 0.208790 0.897759
O O2 0.592806 0.267528 0.843030
O O3 0.598583 0.137787 0.930707
O O4 0.579903 0.328543 0.947345
O O5 0.693473 0.465810 0.250000
O O6 0.670171 0.588896 0.164100
O O7 0.610206 0.423363 0.173048
O O8 0.726625 0.429049 0.143335
O O9 0.344284 0.284795 0.750000
O O10 0.296231 0.224387 0.845084
O O11 0.926608 0.208524 0.750000
O O12 0.903903 0.261326 0.643253
O O13 0.000000 0.148840 0.667248
O O14 0.795338 0.241306 0.904895
O O15 0.711263 0.133530 0.949110
O O16 0.889359 0.148612 0.942992
O O17 0.000000 0.124491 0.973637
O O18 0.914181 0.000000 0.000000
O O19 0.628628 0.836233 0.538265
O O20 0.645063 0.000000 0.000000
#
# Coordination Sequence:
#
# PCOD8258859 Si02
#       8
#    16  16  16  16  16  16  16  16
#     4   9  20  37  55  79 109 137 181 226 270 330
#     4   9  19  34  54  82 111 147 186 220 268 324
#     4  10  21  36  55  80 112 146 183 224 271 324
#     4   9  18  33  54  81 113 142 174 222 276 334
#     4  10  21  35  55  77 112 144 184 230 269 322
#     4   9  18  31  50  77 110 144 172 210 266 325
#     4  10  20  34  53  80 108 144 183 219 272 328
#     4  10  22  38  56  79 106 141 186 233 277 320
#
# _framework density 18.177765000000001
#
# number of rings (size 3 to 8) (size 9 to 14) (size 15 to 20)
#    0.000    2.500    0.000    1.125    5.250    2.500 
#    0.000    1.250    0.000    0.750    0.000    0.000 
#    0.000    0.000    0.000    0.000    0.000    0.000 
#
# Total GULP energy -793202.001529 kJ/mol
# GULP energy per Si atom -12393.781274 kJ/mol
# Density = 1.813639 g / cm^3
# Si number density = 18.177765 Si / 1000 Ang^3
#
#
#
# Elastic Constant Matrix: (Units=GPa)
#
#
# Indices 1 2 3 4 5 6 
#
# 1 109.3660 34.0856 46.1556 0.0000 0.0000 0.0000
# 2 34.0856 72.7869 48.8674 0.0000 0.0000 0.0000
# 3 46.1556 48.8674 102.1722 0.0000 0.0000 0.0000
# 4 0.0000 0.0000 0.0000 20.8154 0.0000 0.0000
# 5 0.0000 0.0000 0.0000 0.0000 22.5693 0.0000
# 6 0.0000 0.0000 0.0000 0.0000 0.0000 15.8315
#
#
#
# Elastic Compliance Matrix: (Units=1/GPa)
#
#
# Indices 1 2 3 4 5 6 
#
# 1 0.011683 -0.002839 -0.003920 0.000000 0.000000 0.000000
# 2 -0.002839 0.020927 -0.008726 0.000000 0.000000 0.000000
# 3 -0.003920 -0.008726 0.015732 0.000000 0.000000 0.000000
# 4 0.000000 0.000000 0.000000 0.048041 0.000000 0.000000
# 5 0.000000 0.000000 0.000000 0.000000 0.044308 0.000000
# 6 0.000000 0.000000 0.000000 0.000000 0.000000 0.063165
#
#
# Mechanical properties :
#
#
# Convention : Reuss Voigt Hill
#
# Bulk Modulus (GPa) = 57.56793 60.28248 58.92521
# Shear Modulus (GPa) = 20.77990 22.19102 21.48546
#
# Velocity S-wave (km/s) = 3.38472 3.49775 3.44170
# Velocity P-wave (km/s) = 6.85662 7.03897 6.94839
#
# Compressibility (1/GPa) = 0.01737078
#
# Stress axis : x y z
#
# Youngs Moduli (GPa) = 85.59649 47.78480 63.56581
#
# Poissons Ratio (x) = 0.13568 0.24915
# Poissons Ratio (y) = 0.24305 0.55470
# Poissons Ratio (z) = 0.33550 0.41699
#
# Static dielectric constant tensor:
#      x y z
#    x 3.468700 0.000000 0.000000 
#    y 0.000000 3.222420 0.000000 
#    z 0.000000 0.000000 3.567430 
# 
# 
# High freq. dielectric constant tensor:
#      x y z
#    x 1.709910 0.000000 0.000000 
#    y 0.000000 1.680950 0.000000 
#    z 0.000000 0.000000 1.717570 
# 
# From -- ./inp_files/65178.got.cif
#   From: 2010.03.12/outbox.cif.g09.slc.cpg/sg63_33_cif.got.tgz:65178.got - 2010.04.10 19:34:48.
