data_PCOD8258398
_publ_section_title
;
Structure prediction by ZEFSAII (Michael W. Deem and Ramdas Pophale) SiO2 
 PCOD8258398
Probable space group: C M C M
;
_chemical_formula_sum "Si O2"
_cell_formula_units_Z 96
_cell_length_a 25.651005
_cell_length_b 9.360268
_cell_length_c 20.467060
_cell_angle_alpha 90.000000
_cell_angle_beta 90.000000
_cell_angle_gamma 90.000000
_cell_volume 4914.146863
_symmetry_space_group_name_H-M "C M C M"
_symmetry_group_IT_number 63
_symmetry_cell_setting 'orthorhombic'
loop_
_space_group_symop_operation_xyz
x,y,z
-x,-y,1/2+z
x,-y,-z
-x,y,1/2-z
-x,-y,-z
x,y,1/2-z
-x,y,z
x,-y,1/2+z
1/2+x,1/2+y,z
1/2-x,1/2-y,1/2+z
1/2+x,1/2-y,-z
1/2-x,1/2+y,1/2-z
1/2-x,1/2-y,-z
1/2+x,1/2+y,1/2-z
1/2-x,1/2+y,z
1/2+x,1/2-y,1/2+z
loop_
_atom_site_type_symbol
_atom_site_label
_atom_site_fract_x
_atom_site_fract_y
_atom_site_fract_z
Si Si1 0.644575 0.883282 0.914204
Si Si2 0.103135 0.854052 0.175609
Si Si3 0.440581 0.443804 0.571354
Si Si4 0.756242 0.770007 0.602371
Si Si5 0.285754 0.520774 0.820878
Si Si6 0.363572 0.200256 0.554505
O O1 0.619307 0.802023 0.852337
O O2 0.705689 0.850002 0.925642
O O3 0.636177 0.052660 0.904035
O O4 0.617122 0.829887 0.980795
O O5 0.080853 0.835882 0.250000
O O6 0.152939 0.954970 0.176730
O O7 0.063048 0.932260 0.126621
O O8 0.423150 0.500000 0.500000
O O9 0.500000 0.390042 0.569496
O O10 0.403535 0.309808 0.588648
O O11 0.742880 0.609692 0.623044
O O12 0.804768 0.766527 0.552044
O O13 0.775099 0.854675 0.666692
O O14 0.263315 0.562166 0.750000
#
# Coordination Sequence:
#
# PCOD8258398 Si02
#       6
#    16  16  16  16  16  16
#     4  10  22  37  56  90 124 164 199 238 299 371
#     4  10  21  40  62  87 123 162 200 247 302 366
#     4  11  23  42  68  93 115 150 202 263 318 362
#     4  11  19  34  52  83 122 159 198 243 289 354
#     4  10  20  32  51  80 120 164 198 232 289 360
#     4  11  21  38  59  87 126 155 203 256 300 354
#
# _framework density 19.535436000000001
#
# number of rings (size 3 to 8) (size 9 to 14) (size 15 to 20)
#    0.000    1.500    5.000    1.000    0.000    1.000 
#    3.000    3.333    0.000    0.000    0.000    0.000 
#    0.000    0.000    0.000    0.000    0.000    0.000 
#
# Total GULP energy -594990.740866 kJ/mol
# GULP energy per Si atom -12395.640435 kJ/mol
# Density = 1.949097 g / cm^3
# Si number density = 19.535436 Si / 1000 Ang^3
#
#
#
# Elastic Constant Matrix: (Units=GPa)
#
#
# Indices 1 2 3 4 5 6 
#
# 1 69.5001 37.5069 20.2415 0.0000 0.0000 0.0000
# 2 37.5069 108.0569 35.3114 0.0000 0.0000 0.0000
# 3 20.2415 35.3114 105.0062 0.0000 0.0000 0.0000
# 4 0.0000 0.0000 0.0000 25.0096 0.0000 0.0000
# 5 0.0000 0.0000 0.0000 0.0000 18.0866 0.0000
# 6 0.0000 0.0000 0.0000 0.0000 0.0000 19.7815
#
#
#
# Elastic Compliance Matrix: (Units=1/GPa)
#
#
# Indices 1 2 3 4 5 6 
#
# 1 0.017921 -0.005720 -0.001531 0.000000 0.000000 0.000000
# 2 -0.005720 0.012223 -0.003008 0.000000 0.000000 0.000000
# 3 -0.001531 -0.003008 0.010830 0.000000 0.000000 0.000000
# 4 0.000000 0.000000 0.000000 0.039985 0.000000 0.000000
# 5 0.000000 0.000000 0.000000 0.000000 0.055290 0.000000
# 6 0.000000 0.000000 0.000000 0.000000 0.000000 0.050552
#
#
# Mechanical properties :
#
#
# Convention : Reuss Voigt Hill
#
# Bulk Modulus (GPa) = 48.88500 52.07589 50.48045
# Shear Modulus (GPa) = 23.34952 25.20908 24.27930
#
# Velocity S-wave (km/s) = 3.46097 3.59615 3.52921
# Velocity P-wave (km/s) = 6.40697 6.63009 6.51948
#
# Compressibility (1/GPa) = 0.02045617
#
# Stress axis : x y z
#
# Youngs Moduli (GPa) = 55.79916 81.81464 92.33816
#
# Poissons Ratio (x) = 0.46800 0.14137
# Poissons Ratio (y) = 0.31919 0.27772
# Poissons Ratio (z) = 0.08543 0.24606
#
# Static dielectric constant tensor:
#      x y z
#    x 3.257620 0.000000 0.000000 
#    y 0.000000 3.520170 0.000000 
#    z 0.000000 0.000000 3.530660 
# 
# 
# High freq. dielectric constant tensor:
#      x y z
#    x 1.732760 0.000000 0.000000 
#    y 0.000000 1.763980 0.000000 
#    z 0.000000 0.000000 1.752360 
# 
# From -- ./inp_files/58048.got.cif
#   From: 2010.03.12/outbox.cif.g09.slc.cpg/sg63_30_cif.got.tgz:58048.got - 2010.04.10 19:34:48.
