data_PCOD8258395
_publ_section_title
;
Structure prediction by ZEFSAII (Michael W. Deem and Ramdas Pophale) SiO2 
 PCOD8258395
Probable space group: C M C M
;
_chemical_formula_sum "Si O2"
_cell_formula_units_Z 56
_cell_length_a 13.192870
_cell_length_b 26.295886
_cell_length_c 9.444083
_cell_angle_alpha 90.000000
_cell_angle_beta 90.000000
_cell_angle_gamma 90.000000
_cell_volume 3276.324327
_symmetry_space_group_name_H-M "C M C M"
_symmetry_group_IT_number 63
_symmetry_cell_setting 'orthorhombic'
loop_
_space_group_symop_operation_xyz
x,y,z
-x,-y,1/2+z
x,-y,-z
-x,y,1/2-z
-x,-y,-z
x,y,1/2-z
-x,y,z
x,-y,1/2+z
1/2+x,1/2+y,z
1/2-x,1/2-y,1/2+z
1/2+x,1/2-y,-z
1/2-x,1/2+y,1/2-z
1/2-x,1/2-y,-z
1/2+x,1/2+y,1/2-z
1/2-x,1/2+y,z
1/2+x,1/2-y,1/2+z
loop_
_atom_site_type_symbol
_atom_site_label
_atom_site_fract_x
_atom_site_fract_y
_atom_site_fract_z
Si Si1 0.618804 0.323494 0.250000
Si Si2 0.221356 0.351641 0.480328
Si Si3 0.219301 0.280429 0.750000
Si Si4 0.384048 0.948927 0.585389
Si Si5 0.889734 0.298766 0.250000
O O1 0.500000 0.338204 0.250000
O O2 0.673606 0.346807 0.109560
O O3 0.629444 0.261853 0.250000
O O4 0.219014 0.315105 0.613645
O O5 0.198759 0.408830 0.529190
O O6 0.127723 0.334006 0.385462
O O7 0.323364 0.250976 0.750000
O O8 0.363836 0.959683 0.750000
O O9 0.500000 0.929799 0.562412
O O10 0.363693 0.000000 0.500000
O O11 0.000000 0.276022 0.250000
#
# Coordination Sequence:
#
# PCOD8258395 Si02
#       5
#     8  16   8  16   8
#     4  10  22  36  55  78 109 152 188 223 261 313
#     4  10  20  36  54  78 111 144 178 222 268 322
#     4  10  20  34  52  79 109 141 184 221 267 315
#     4  10  21  35  56  85 111 137 171 214 273 337
#     4  10  20  32  51  77 110 145 174 214 264 320
#
# _framework density 17.092324999999999
#
# number of rings (size 3 to 8) (size 9 to 14) (size 15 to 20)
#    0.000    2.286    1.429    4.286    4.000    5.714 
#    0.000    0.000    0.000    0.857    0.000    0.000 
#    0.000    0.000    0.000    0.000    0.000    0.000 
#
# Total GULP energy -347012.895694 kJ/mol
# GULP energy per Si atom -12393.317703 kJ/mol
# Density = 1.705342 g / cm^3
# Si number density = 17.092325 Si / 1000 Ang^3
#
#
#
# Elastic Constant Matrix: (Units=GPa)
#
#
# Indices 1 2 3 4 5 6 
#
# 1 106.1929 45.0527 44.5504 0.0000 0.0000 0.0000
# 2 45.0527 119.6023 66.0040 0.0000 0.0000 0.0000
# 3 44.5504 66.0040 146.0467 0.0000 0.0000 0.0000
# 4 0.0000 0.0000 0.0000 39.4125 0.0000 0.0000
# 5 0.0000 0.0000 0.0000 0.0000 27.8314 0.0000
# 6 0.0000 0.0000 0.0000 0.0000 0.0000 1.5712
#
#
#
# Elastic Compliance Matrix: (Units=1/GPa)
#
#
# Indices 1 2 3 4 5 6 
#
# 1 0.011670 -0.003239 -0.002096 0.000000 0.000000 0.000000
# 2 -0.003239 0.012038 -0.004452 0.000000 0.000000 0.000000
# 3 -0.002096 -0.004452 0.009499 0.000000 0.000000 0.000000
# 4 0.000000 0.000000 0.000000 0.025373 0.000000 0.000000
# 5 0.000000 0.000000 0.000000 0.000000 0.035931 0.000000
# 6 0.000000 0.000000 0.000000 0.000000 0.000000 0.636440
#
#
# Mechanical properties :
#
#
# Convention : Reuss Voigt Hill
#
# Bulk Modulus (GPa) = 73.35731 75.89514 74.62622
# Shear Modulus (GPa) = 6.62190 28.17869 17.40029
#
# Velocity S-wave (km/s) = 1.97043 4.06472 3.19410
# Velocity P-wave (km/s) = 6.94178 8.15651 7.57354
#
# Compressibility (1/GPa) = 0.01363191
#
# Stress axis : x y z
#
# Youngs Moduli (GPa) = 85.68631 83.06720 105.27742
#
# Poissons Ratio (x) = 0.26909 0.22066
# Poissons Ratio (y) = 0.27758 0.46874
# Poissons Ratio (z) = 0.17960 0.36985
#
# Static dielectric constant tensor:
#      x y z
#    x 3.023800 0.000000 0.000000 
#    y 0.000000 3.160090 0.000000 
#    z 0.000000 0.000000 3.162940 
# 
# 
# High freq. dielectric constant tensor:
#      x y z
#    x 1.635720 0.000000 0.000000 
#    y 0.000000 1.653690 0.000000 
#    z 0.000000 0.000000 1.684890 
# 
# From -- ./inp_files/4482.got.cif
#   From: 2010.03.12/outbox.cif.g09.slc.cpg/sg63_3_cif.got.tgz:4482.got - 2010.04.10 19:34:48.
