data_PCOD8258436
_publ_section_title
;
Structure prediction by ZEFSAII (Michael W. Deem and Ramdas Pophale) SiO2 
 PCOD8258436
Probable space group: C M C M
;
_chemical_formula_sum "Si O2"
_cell_formula_units_Z 96
_cell_length_a 25.228820
_cell_length_b 25.287164
_cell_length_c 8.864043
_cell_angle_alpha 90.000000
_cell_angle_beta 90.000000
_cell_angle_gamma 90.000000
_cell_volume 5654.951930
_symmetry_space_group_name_H-M "C M C M"
_symmetry_group_IT_number 63
_symmetry_cell_setting 'orthorhombic'
loop_
_space_group_symop_operation_xyz
x,y,z
-x,-y,1/2+z
x,-y,-z
-x,y,1/2-z
-x,-y,-z
x,y,1/2-z
-x,y,z
x,-y,1/2+z
1/2+x,1/2+y,z
1/2-x,1/2-y,1/2+z
1/2+x,1/2-y,-z
1/2-x,1/2+y,1/2-z
1/2-x,1/2-y,-z
1/2+x,1/2+y,1/2-z
1/2-x,1/2+y,z
1/2+x,1/2-y,1/2+z
loop_
_atom_site_type_symbol
_atom_site_label
_atom_site_fract_x
_atom_site_fract_y
_atom_site_fract_z
Si Si1 0.858390 0.943128 0.073665
Si Si2 0.937135 0.258028 0.582675
Si Si3 0.258481 0.056885 0.926281
Si Si4 0.361795 0.942249 0.928236
Si Si5 0.440697 0.642098 0.930065
Si Si6 0.937353 0.637654 0.577863
O O1 0.867788 0.951322 0.250000
O O2 0.799668 0.917961 0.044826
O O3 0.900867 0.902090 0.004621
O O4 0.866623 0.000000 0.000000
O O5 0.912966 0.267355 0.750000
O O6 0.920597 0.200344 0.517377
O O7 0.916941 0.304361 0.472831
O O8 0.000000 0.258759 0.594670
O O9 0.271378 0.052752 0.750000
O O10 0.307706 0.086112 0.008833
O O11 0.255730 0.000000 0.000000
O O12 0.358931 0.947637 0.750000
O O13 0.411622 0.906821 0.973490
O O14 0.368995 0.000000 0.000000
O O15 0.440992 0.641677 0.750000
O O16 0.500000 0.630104 0.991254
O O17 0.920106 0.628872 0.750000
O O18 0.000000 0.632642 0.556742
#
# Coordination Sequence:
#
# PCOD8258436 Si02
#       6
#    16  16  16  16  16  16
#     4   9  17  28  44  67  94 125 157 191 231 273
#     4   8  14  27  47  67  87 117 157 193 223 263
#     4   9  16  28  45  64  88 118 155 193 227 267
#     4  11  21  33  50  70  93 120 151 186 224 268
#     4   8  14  26  45  68  94 124 157 191 229 274
#     4  10  20  33  49  70  96 122 147 180 224 271
#
# _framework density 16.976271000000001
#
# number of rings (size 3 to 8) (size 9 to 14) (size 15 to 20)
#    0.000    2.833    0.000    4.500    0.000    2.333 
#    0.000    0.833    0.000    2.000    0.000    0.000 
#    0.000    0.000    0.000    0.000    0.000    0.000 
#
# Total GULP energy -594785.764110 kJ/mol
# GULP energy per Si atom -12391.370086 kJ/mol
# Density = 1.693763 g / cm^3
# Si number density = 16.976271 Si / 1000 Ang^3
#
#
#
# Elastic Constant Matrix: (Units=GPa)
#
#
# Indices 1 2 3 4 5 6 
#
# 1 79.5454 54.1068 40.5960 0.0000 0.0000 0.0000
# 2 54.1068 101.6124 40.5162 0.0000 0.0000 0.0000
# 3 40.5960 40.5162 88.3313 0.0000 0.0000 0.0000
# 4 0.0000 0.0000 0.0000 20.5962 0.0000 0.0000
# 5 0.0000 0.0000 0.0000 0.0000 18.5534 0.0000
# 6 0.0000 0.0000 0.0000 0.0000 0.0000 4.8512
#
#
#
# Elastic Compliance Matrix: (Units=1/GPa)
#
#
# Indices 1 2 3 4 5 6 
#
# 1 0.021872 -0.009348 -0.005764 0.000000 0.000000 0.000000
# 2 -0.009348 0.016039 -0.003061 0.000000 0.000000 0.000000
# 3 -0.005764 -0.003061 0.015374 0.000000 0.000000 0.000000
# 4 0.000000 0.000000 0.000000 0.048553 0.000000 0.000000
# 5 0.000000 0.000000 0.000000 0.000000 0.053898 0.000000
# 6 0.000000 0.000000 0.000000 0.000000 0.000000 0.206135
#
#
# Mechanical properties :
#
#
# Convention : Reuss Voigt Hill
#
# Bulk Modulus (GPa) = 59.03439 59.99190 59.51314
# Shear Modulus (GPa) = 12.38043 17.75151 15.06597
#
# Velocity S-wave (km/s) = 2.70345 3.23718 2.98228
# Velocity P-wave (km/s) = 6.67795 7.02765 6.85503
#
# Compressibility (1/GPa) = 0.01693928
#
# Stress axis : x y z
#
# Youngs Moduli (GPa) = 45.72131 62.34668 65.04434
#
# Poissons Ratio (x) = 0.58281 0.37493
# Poissons Ratio (y) = 0.42740 0.19909
# Poissons Ratio (z) = 0.26355 0.19083
#
# Static dielectric constant tensor:
#      x y z
#    x 3.660610 0.000000 0.000000 
#    y 0.000000 3.226790 0.000000 
#    z 0.000000 0.000000 3.301100 
# 
# 
# High freq. dielectric constant tensor:
#      x y z
#    x 1.644230 0.000000 0.000000 
#    y 0.000000 1.635900 0.000000 
#    z 0.000000 0.000000 1.647530 
# 
# From -- ./inp_files/10679.got.cif
#   From: 2010.03.12/outbox.cif.g09.slc.cpg/sg63_6_cif.got.tgz:10679.got - 2010.04.10 19:34:48.
