data_PCOD8258669
_publ_section_title
;
Structure prediction by ZEFSAII (Michael W. Deem and Ramdas Pophale) SiO2 
 PCOD8258669
Probable space group: C M C M
;
_chemical_formula_sum "Si O2"
_cell_formula_units_Z 80
_cell_length_a 23.341410
_cell_length_b 20.492507
_cell_length_c 9.768777
_cell_angle_alpha 90.000000
_cell_angle_beta 90.000000
_cell_angle_gamma 90.000000
_cell_volume 4672.640566
_symmetry_space_group_name_H-M "C M C M"
_symmetry_group_IT_number 63
_symmetry_cell_setting 'orthorhombic'
loop_
_space_group_symop_operation_xyz
x,y,z
-x,-y,1/2+z
x,-y,-z
-x,y,1/2-z
-x,-y,-z
x,y,1/2-z
-x,y,z
x,-y,1/2+z
1/2+x,1/2+y,z
1/2-x,1/2-y,1/2+z
1/2+x,1/2-y,-z
1/2-x,1/2+y,1/2-z
1/2-x,1/2-y,-z
1/2+x,1/2+y,1/2-z
1/2-x,1/2+y,z
1/2+x,1/2-y,1/2+z
loop_
_atom_site_type_symbol
_atom_site_label
_atom_site_fract_x
_atom_site_fract_y
_atom_site_fract_z
Si Si1 0.500000 0.590565 0.403907
Si Si2 0.811503 0.205776 0.250000
Si Si3 0.000000 0.754345 0.902779
Si Si4 0.200053 0.000000 0.000000
Si Si5 0.815255 0.306481 0.750000
Si Si6 0.897286 0.091902 0.596502
Si Si7 0.618909 0.738307 0.983094
Si Si8 0.743133 0.574641 0.250000
O O1 0.500000 0.560631 0.250000
O O2 0.500000 0.667845 0.393432
O O3 0.443971 0.566954 0.486328
O O4 0.745888 0.232149 0.250000
O O5 0.844310 0.232235 0.380540
O O6 0.810738 0.126083 0.250000
O O7 0.000000 0.724661 0.750000
O O8 0.943403 0.731463 0.982990
O O9 0.240907 0.030247 0.115411
O O10 0.162126 0.943624 0.067470
O O11 0.850415 0.289402 0.615108
O O12 0.802506 0.384359 0.750000
O O13 0.918561 0.075083 0.750000
O O14 0.887132 0.169050 0.590340
#
# Coordination Sequence:
#
# PCOD8258669 Si02
#       8
#     8   8   8   8   8  16  16   8
#     4   9  21  32  50  73 103 142 194 227 270 301
#     4  10  20  33  55  78 109 151 183 219 273 325
#     4   9  18  30  53  79 110 152 176 221 268 326
#     4  12  22  37  54  74 104 143 188 230 276 324
#     4  10  22  36  54  83 111 144 192 232 274 333
#     4  11  21  33  51  73 105 144 186 233 267 313
#     4  11  19  35  55  82 116 145 187 224 277 325
#     4  10  24  37  55  77 104 145 189 227 279 324
#
# _framework density 17.120940999999998
#
# number of rings (size 3 to 8) (size 9 to 14) (size 15 to 20)
#    0.600    1.000    5.000    0.900    2.800    0.800 
#    0.000    1.000    0.000    0.000    0.000    0.000 
#    0.000    3.200    0.000    0.000    0.000    0.000 
#
# Total GULP energy -495977.925761 kJ/mol
# GULP energy per Si atom -12399.448144 kJ/mol
# Density = 1.708197 g / cm^3
# Si number density = 17.120941 Si / 1000 Ang^3
#
#
#
# Elastic Constant Matrix: (Units=GPa)
#
#
# Indices 1 2 3 4 5 6 
#
# 1 110.3130 36.2896 60.2202 0.0000 0.0000 0.0000
# 2 36.2896 59.2545 44.5193 0.0000 0.0000 0.0000
# 3 60.2202 44.5193 166.6524 0.0000 0.0000 0.0000
# 4 0.0000 0.0000 0.0000 17.0318 0.0000 0.0000
# 5 0.0000 0.0000 0.0000 0.0000 33.5780 0.0000
# 6 0.0000 0.0000 0.0000 0.0000 0.0000 22.3489
#
#
#
# Elastic Compliance Matrix: (Units=1/GPa)
#
#
# Indices 1 2 3 4 5 6 
#
# 1 0.012510 -0.005336 -0.003095 0.000000 0.000000 0.000000
# 2 -0.005336 0.023390 -0.004320 0.000000 0.000000 0.000000
# 3 -0.003095 -0.004320 0.008273 0.000000 0.000000 0.000000
# 4 0.000000 0.000000 0.000000 0.058714 0.000000 0.000000
# 5 0.000000 0.000000 0.000000 0.000000 0.029781 0.000000
# 6 0.000000 0.000000 0.000000 0.000000 0.000000 0.044745
#
#
# Mechanical properties :
#
#
# Convention : Reuss Voigt Hill
#
# Bulk Modulus (GPa) = 53.56052 68.69757 61.12905
# Shear Modulus (GPa) = 23.90742 27.60447 25.75594
#
# Velocity S-wave (km/s) = 3.74088 4.01973 3.88281
# Velocity P-wave (km/s) = 7.07181 7.85852 7.47552
#
# Compressibility (1/GPa) = 0.01867047
#
# Stress axis : x y z
#
# Youngs Moduli (GPa) = 79.93480 42.75267 120.87506
#
# Poissons Ratio (x) = 0.22814 0.37411
# Poissons Ratio (y) = 0.42656 0.52220
# Poissons Ratio (z) = 0.24740 0.18470
#
# Static dielectric constant tensor:
#      x y z
#    x 3.165250 0.000000 0.000000 
#    y 0.000000 2.824470 0.000000 
#    z 0.000000 0.000000 3.729860 
# 
# 
# High freq. dielectric constant tensor:
#      x y z
#    x 1.645510 0.000000 0.000000 
#    y 0.000000 1.614160 0.000000 
#    z 0.000000 0.000000 1.682840 
# 
# From -- ./inp_files/10396.got.cif
#   From: 2010.03.12/outbox.cif.g09.slc.cpg/sg63_6_cif.got.tgz:10396.got - 2010.04.10 19:34:48.
