data_PCOD8258103
_publ_section_title
;
Structure prediction by ZEFSAII (Michael W. Deem and Ramdas Pophale) SiO2 
 PCOD8258103
Probable space group: C M C M
;
_chemical_formula_sum "Si O2"
_cell_formula_units_Z 80
_cell_length_a 13.668711
_cell_length_b 14.993253
_cell_length_c 20.259131
_cell_angle_alpha 90.000000
_cell_angle_beta 90.000000
_cell_angle_gamma 90.000000
_cell_volume 4151.874748
_symmetry_space_group_name_H-M "C M C M"
_symmetry_group_IT_number 63
_symmetry_cell_setting 'orthorhombic'
loop_
_space_group_symop_operation_xyz
x,y,z
-x,-y,1/2+z
x,-y,-z
-x,y,1/2-z
-x,-y,-z
x,y,1/2-z
-x,y,z
x,-y,1/2+z
1/2+x,1/2+y,z
1/2-x,1/2-y,1/2+z
1/2+x,1/2-y,-z
1/2-x,1/2+y,1/2-z
1/2-x,1/2-y,-z
1/2+x,1/2+y,1/2-z
1/2-x,1/2+y,z
1/2+x,1/2-y,1/2+z
loop_
_atom_site_type_symbol
_atom_site_label
_atom_site_fract_x
_atom_site_fract_y
_atom_site_fract_z
Si Si1 0.892425 0.976232 0.569339
Si Si2 0.726152 0.286806 0.398499
Si Si3 0.893594 0.210055 0.480106
Si Si4 0.755602 0.537805 0.826284
Si Si5 0.613359 0.872967 0.672662
O O1 0.902274 0.870235 0.571273
O O2 0.000000 0.022006 0.570031
O O3 0.837992 0.000000 0.500000
O O4 0.837281 0.003283 0.634621
O O5 0.816870 0.276937 0.448228
O O6 0.639650 0.323146 0.446275
O O7 0.767139 0.358382 0.345882
O O8 0.684748 0.196971 0.364229
O O9 0.000000 0.256690 0.487166
O O10 0.729244 0.532616 0.750000
O O11 0.849113 0.474294 0.842126
O O12 0.620212 0.851602 0.750000
O O13 0.500000 0.865760 0.648933
#
# Coordination Sequence:
#
# PCOD8258103 Si02
#       5
#    16  16  16  16  16
#     4  10  19  36  59  82 116 153 188 237 299 356
#     4  11  21  37  62  86 118 155 202 246 299 360
#     4  10  21  36  58  87 117 152 194 244 300 358
#     4  11  23  38  59  88 120 155 200 250 302 358
#     4  10  22  40  59  82 117 159 201 248 302 358
#
# _framework density 19.268404
#
# number of rings (size 3 to 8) (size 9 to 14) (size 15 to 20)
#    0.000    1.600    4.000    1.200    0.000    2.000 
#    0.000    0.000    0.000    6.000    0.000    0.000 
#    0.000    0.000    0.000    0.000    0.000    0.000 
#
# Total GULP energy -495589.359879 kJ/mol
# GULP energy per Si atom -12389.733997 kJ/mol
# Density = 1.922455 g / cm^3
# Si number density = 19.268404 Si / 1000 Ang^3
#
#
#
# Elastic Constant Matrix: (Units=GPa)
#
#
# Indices 1 2 3 4 5 6 
#
# 1 112.1132 37.1946 44.4507 0.0000 0.0000 0.0000
# 2 37.1946 90.5267 37.1829 0.0000 0.0000 0.0000
# 3 44.4507 37.1829 100.1561 0.0000 0.0000 0.0000
# 4 0.0000 0.0000 0.0000 32.8373 0.0000 0.0000
# 5 0.0000 0.0000 0.0000 0.0000 26.9266 0.0000
# 6 0.0000 0.0000 0.0000 0.0000 0.0000 23.2767
#
#
#
# Elastic Compliance Matrix: (Units=1/GPa)
#
#
# Indices 1 2 3 4 5 6 
#
# 1 0.011520 -0.003107 -0.003959 0.000000 0.000000 0.000000
# 2 -0.003107 0.013872 -0.003771 0.000000 0.000000 0.000000
# 3 -0.003959 -0.003771 0.013142 0.000000 0.000000 0.000000
# 4 0.000000 0.000000 0.000000 0.030453 0.000000 0.000000
# 5 0.000000 0.000000 0.000000 0.000000 0.037138 0.000000
# 6 0.000000 0.000000 0.000000 0.000000 0.000000 0.042961
#
#
# Mechanical properties :
#
#
# Convention : Reuss Voigt Hill
#
# Bulk Modulus (GPa) = 59.31556 60.05025 59.68291
# Shear Modulus (GPa) = 28.34779 28.87265 28.61022
#
# Velocity S-wave (km/s) = 3.83979 3.87518 3.85752
# Velocity P-wave (km/s) = 7.10699 7.15929 7.13319
#
# Compressibility (1/GPa) = 0.01685898
#
# Stress axis : x y z
#
# Youngs Moduli (GPa) = 86.80466 72.08799 76.09424
#
# Poissons Ratio (x) = 0.22398 0.30128
# Poissons Ratio (y) = 0.26970 0.28695
# Poissons Ratio (z) = 0.34369 0.27185
#
# Static dielectric constant tensor:
#      x y z
#    x 3.654370 0.000000 0.000000 
#    y 0.000000 3.545100 0.000000 
#    z 0.000000 0.000000 3.548170 
# 
# 
# High freq. dielectric constant tensor:
#      x y z
#    x 1.746930 0.000000 0.000000 
#    y 0.000000 1.747650 0.000000 
#    z 0.000000 0.000000 1.748150 
# 
# From -- ./inp_files/53978.got.cif
#   From: 2010.03.12/outbox.cif.g09.slc.cpg/sg63_27_cif.got.tgz:53978.got - 2010.04.10 19:34:48.
