data_PCOD8258065
_publ_section_title
;
Structure prediction by ZEFSAII (Michael W. Deem and Ramdas Pophale) SiO2 
 PCOD8258065
Probable space group: C M C M
;
_chemical_formula_sum "Si O2"
_cell_formula_units_Z 96
_cell_length_a 18.220510
_cell_length_b 18.403491
_cell_length_c 14.051175
_cell_angle_alpha 90.000000
_cell_angle_beta 90.000000
_cell_angle_gamma 90.000000
_cell_volume 4711.653937
_symmetry_space_group_name_H-M "C M C M"
_symmetry_group_IT_number 63
_symmetry_cell_setting 'orthorhombic'
loop_
_space_group_symop_operation_xyz
x,y,z
-x,-y,1/2+z
x,-y,-z
-x,y,1/2-z
-x,-y,-z
x,y,1/2-z
-x,y,z
x,-y,1/2+z
1/2+x,1/2+y,z
1/2-x,1/2-y,1/2+z
1/2+x,1/2-y,-z
1/2-x,1/2+y,1/2-z
1/2-x,1/2-y,-z
1/2+x,1/2+y,1/2-z
1/2-x,1/2+y,z
1/2+x,1/2-y,1/2+z
loop_
_atom_site_type_symbol
_atom_site_label
_atom_site_fract_x
_atom_site_fract_y
_atom_site_fract_z
Si Si1 0.585477 0.132708 0.352792
Si Si2 0.834237 0.117357 0.535369
Si Si3 0.187432 0.663650 0.859444
Si Si4 0.178035 0.024157 0.145940
Si Si5 0.335023 0.007679 0.607705
Si Si6 0.413641 0.756408 0.009151
O O1 0.619819 0.153955 0.250000
O O2 0.500000 0.145689 0.349636
O O3 0.599226 0.047738 0.372867
O O4 0.617564 0.184106 0.434267
O O5 0.759716 0.154078 0.575029
O O6 0.828370 0.091960 0.425380
O O7 0.898471 0.177280 0.535378
O O8 0.857618 0.049247 0.601284
O O9 0.209091 0.680304 0.750000
O O10 0.139201 0.589303 0.866937
O O11 0.135624 0.729174 0.896882
O O12 0.141469 0.040427 0.250000
O O13 0.263477 0.010481 0.168924
O O14 0.307244 0.000000 0.500000
O O15 0.500000 0.764353 0.031808
#
# Coordination Sequence:
#
# PCOD8258065 Si02
#       6
#    16  16  16  16  16  16
#     4  10  21  35  52  77 110 153 199 234 276 339
#     4  10  20  39  60  86 118 148 193 245 300 357
#     4  11  22  37  59  88 119 156 199 242 293 350
#     4  10  19  35  62  89 110 140 187 246 302 357
#     4  11  17  33  57  81 112 144 183 236 286 335
#     4  11  24  40  58  82 120 162 198 242 292 350
#
# _framework density 20.37501
#
# number of rings (size 3 to 8) (size 9 to 14) (size 15 to 20)
#    0.000    1.500    5.000    3.500    0.000    3.333 
#    0.000    1.667    0.000    1.000    0.000    0.000 
#    0.000    0.000    0.000    0.000    0.000    0.000 
#
# Total GULP energy -594902.427073 kJ/mol
# GULP energy per Si atom -12393.800564 kJ/mol
# Density = 2.032864 g / cm^3
# Si number density = 20.375010 Si / 1000 Ang^3
#
#
#
# Elastic Constant Matrix: (Units=GPa)
#
#
# Indices 1 2 3 4 5 6 
#
# 1 41.1574 29.0850 22.5763 0.0000 0.0000 0.0000
# 2 29.0850 84.3521 32.6721 0.0000 0.0000 0.0000
# 3 22.5763 32.6721 144.0954 0.0000 0.0000 0.0000
# 4 0.0000 0.0000 0.0000 13.0538 0.0000 0.0000
# 5 0.0000 0.0000 0.0000 0.0000 12.0234 0.0000
# 6 0.0000 0.0000 0.0000 0.0000 0.0000 29.6459
#
#
#
# Elastic Compliance Matrix: (Units=1/GPa)
#
#
# Indices 1 2 3 4 5 6 
#
# 1 0.033162 -0.010329 -0.002854 0.000000 0.000000 0.000000
# 2 -0.010329 0.016214 -0.002058 0.000000 0.000000 0.000000
# 3 -0.002854 -0.002058 0.007854 0.000000 0.000000 0.000000
# 4 0.000000 0.000000 0.000000 0.076606 0.000000 0.000000
# 5 0.000000 0.000000 0.000000 0.000000 0.083171 0.000000
# 6 0.000000 0.000000 0.000000 0.000000 0.000000 0.033731
#
#
# Mechanical properties :
#
#
# Convention : Reuss Voigt Hill
#
# Bulk Modulus (GPa) = 37.38649 48.69687 43.04168
# Shear Modulus (GPa) = 17.23341 23.29606 20.26474
#
# Velocity S-wave (km/s) = 2.91144 3.38504 3.15713
# Velocity P-wave (km/s) = 5.44894 6.26340 5.87031
#
# Compressibility (1/GPa) = 0.02674763
#
# Stress axis : x y z
#
# Youngs Moduli (GPa) = 30.15542 61.67643 127.33066
#
# Poissons Ratio (x) = 0.63705 0.36336
# Poissons Ratio (y) = 0.31147 0.26204
# Poissons Ratio (z) = 0.08605 0.12693
#
# Static dielectric constant tensor:
#      x y z
#    x 3.146990 0.000000 0.000000 
#    y 0.000000 3.691270 0.000000 
#    z 0.000000 0.000000 4.039370 
# 
# 
# High freq. dielectric constant tensor:
#      x y z
#    x 1.746370 0.000000 0.000000 
#    y 0.000000 1.792390 0.000000 
#    z 0.000000 0.000000 1.813330 
# 
# From -- ./inp_files/31927.got.cif
#   From: 2010.03.12/outbox.cif.g09.slc.cpg/sg63_16_cif.got.tgz:31927.got - 2010.04.10 19:34:48.
