data_PCOD8258024
_publ_section_title
;
Structure prediction by ZEFSAII (Michael W. Deem and Ramdas Pophale) SiO2 
 PCOD8258024
Probable space group: C M C M
;
_chemical_formula_sum "Si O2"
_cell_formula_units_Z 88
_cell_length_a 15.709730
_cell_length_b 17.418870
_cell_length_c 16.496127
_cell_angle_alpha 90.000000
_cell_angle_beta 90.000000
_cell_angle_gamma 90.000000
_cell_volume 4514.094956
_symmetry_space_group_name_H-M "C M C M"
_symmetry_group_IT_number 63
_symmetry_cell_setting 'orthorhombic'
loop_
_space_group_symop_operation_xyz
x,y,z
-x,-y,1/2+z
x,-y,-z
-x,y,1/2-z
-x,-y,-z
x,y,1/2-z
-x,y,z
x,-y,1/2+z
1/2+x,1/2+y,z
1/2-x,1/2-y,1/2+z
1/2+x,1/2-y,-z
1/2-x,1/2+y,1/2-z
1/2-x,1/2-y,-z
1/2+x,1/2+y,1/2-z
1/2-x,1/2+y,z
1/2+x,1/2-y,1/2+z
loop_
_atom_site_type_symbol
_atom_site_label
_atom_site_fract_x
_atom_site_fract_y
_atom_site_fract_z
Si Si1 0.000000 0.732131 0.507301
Si Si2 0.697025 0.463590 0.083952
Si Si3 0.500000 0.148053 0.657420
Si Si4 0.627587 0.980974 0.341450
Si Si5 0.599673 0.402477 0.653847
Si Si6 0.500000 0.065893 0.435866
Si Si7 0.171792 0.810862 0.994595
O O1 0.000000 0.726287 0.605720
O O2 0.000000 0.647563 0.473960
O O3 0.084753 0.772202 0.476607
O O4 0.772759 0.472796 0.147212
O O5 0.617925 0.509595 0.124437
O O6 0.727221 0.500000 0.000000
O O7 0.680342 0.374681 0.064837
O O8 0.500000 0.175142 0.750000
O O9 0.583051 0.098871 0.632922
O O10 0.605073 0.997388 0.250000
O O11 0.587397 0.054555 0.385977
O O12 0.621175 0.391399 0.750000
O O13 0.500000 0.386695 0.636949
O O14 0.658327 0.346556 0.596726
O O15 0.500000 0.000000 0.500000
O O16 0.250000 0.750000 0.000000
#
# Coordination Sequence:
#
# PCOD8258024 Si02
#       7
#     8  16   8  16  16   8  16
#     4  12  23  38  59  88 130 167 200 257 322 379
#     4  10  22  37  64  87 118 156 214 258 303 366
#     4   9  19  32  53  84 118 157 199 245 304 366
#     4  10  19  35  58  87 116 152 204 261 305 356
#     4  10  22  43  69  92 120 166 219 270 318 371
#     4  11  21  33  61  87 122 159 209 248 308 378
#     4  11  25  40  62  96 132 169 210 257 326 386
#
# _framework density 19.494494
#
# number of rings (size 3 to 8) (size 9 to 14) (size 15 to 20)
#    0.000    1.636    2.727    3.000    6.364    1.818 
#    0.000    1.818    0.000    4.364    0.000    0.000 
#    0.000    0.000    0.000    0.000    0.000    0.000 
#
# Total GULP energy -545228.464306 kJ/mol
# GULP energy per Si atom -12391.556007 kJ/mol
# Density = 1.945012 g / cm^3
# Si number density = 19.494494 Si / 1000 Ang^3
#
#
#
# Elastic Constant Matrix: (Units=GPa)
#
#
# Indices 1 2 3 4 5 6 
#
# 1 124.1109 55.5953 33.2536 0.0000 0.0000 0.0000
# 2 55.5953 121.8630 39.8801 0.0000 0.0000 0.0000
# 3 33.2536 39.8801 76.1269 0.0000 0.0000 0.0000
# 4 0.0000 0.0000 0.0000 24.4960 0.0000 0.0000
# 5 0.0000 0.0000 0.0000 0.0000 38.2608 0.0000
# 6 0.0000 0.0000 0.0000 0.0000 0.0000 18.1872
#
#
#
# Elastic Compliance Matrix: (Units=1/GPa)
#
#
# Indices 1 2 3 4 5 6 
#
# 1 0.010509 -0.003973 -0.002509 0.000000 0.000000 0.000000
# 2 -0.003973 0.011406 -0.004240 0.000000 0.000000 0.000000
# 3 -0.002509 -0.004240 0.016453 0.000000 0.000000 0.000000
# 4 0.000000 0.000000 0.000000 0.040823 0.000000 0.000000
# 5 0.000000 0.000000 0.000000 0.000000 0.026136 0.000000
# 6 0.000000 0.000000 0.000000 0.000000 0.000000 0.054984
#
#
# Mechanical properties :
#
#
# Convention : Reuss Voigt Hill
#
# Bulk Modulus (GPa) = 59.08706 64.39540 61.74123
# Shear Modulus (GPa) = 26.68126 29.08025 27.88076
#
# Velocity S-wave (km/s) = 3.70355 3.86646 3.78588
# Velocity P-wave (km/s) = 6.97594 7.28265 7.13095
#
# Compressibility (1/GPa) = 0.01692418
#
# Stress axis : x y z
#
# Youngs Moduli (GPa) = 95.15211 87.67265 60.77922
#
# Poissons Ratio (x) = 0.34836 0.15251
# Poissons Ratio (y) = 0.37808 0.25768
# Poissons Ratio (z) = 0.23876 0.37169
#
# Static dielectric constant tensor:
#      x y z
#    x 3.595490 0.000000 0.000000 
#    y 0.000000 3.611260 0.000000 
#    z 0.000000 0.000000 3.656680 
# 
# 
# High freq. dielectric constant tensor:
#      x y z
#    x 1.761050 0.000000 0.000000 
#    y 0.000000 1.754760 0.000000 
#    z 0.000000 0.000000 1.759700 
# 
# From -- ./inp_files/44158.got.cif
#   From: 2010.03.12/outbox.cif.g09.slc.cpg/sg63_23_cif.got.tgz:44158.got - 2010.04.10 19:34:48.
