data_PCOD8258971
_publ_section_title
;
Structure prediction by ZEFSAII (Michael W. Deem and Ramdas Pophale) SiO2 
 PCOD8258971
Probable space group: C M C M
;
_chemical_formula_sum "Si O2"
_cell_formula_units_Z 104
_cell_length_a 25.999648
_cell_length_b 23.830815
_cell_length_c 8.988967
_cell_angle_alpha 90.000000
_cell_angle_beta 90.000000
_cell_angle_gamma 90.000000
_cell_volume 5569.499247
_symmetry_space_group_name_H-M "C M C M"
_symmetry_group_IT_number 63
_symmetry_cell_setting 'orthorhombic'
loop_
_space_group_symop_operation_xyz
x,y,z
-x,-y,1/2+z
x,-y,-z
-x,y,1/2-z
-x,-y,-z
x,y,1/2-z
-x,y,z
x,-y,1/2+z
1/2+x,1/2+y,z
1/2-x,1/2-y,1/2+z
1/2+x,1/2-y,-z
1/2-x,1/2+y,1/2-z
1/2-x,1/2-y,-z
1/2+x,1/2+y,1/2-z
1/2-x,1/2+y,z
1/2+x,1/2-y,1/2+z
loop_
_atom_site_type_symbol
_atom_site_label
_atom_site_fract_x
_atom_site_fract_y
_atom_site_fract_z
Si Si1 0.500000 0.557790 0.919311
Si Si2 0.287552 0.143521 0.078109
Si Si3 0.642025 0.940289 0.424580
Si Si4 0.670468 0.656167 0.074940
Si Si5 0.371132 0.764336 0.923470
Si Si6 0.058993 0.348453 0.076976
Si Si7 0.389120 0.560522 0.925096
O O1 0.500000 0.539826 0.750000
O O2 0.445959 0.589179 0.954570
O O3 0.500000 0.500000 0.000000
O O4 0.291427 0.126063 0.250000
O O5 0.230343 0.161809 0.033354
O O6 0.322296 0.197010 0.041003
O O7 0.306399 0.090112 0.983258
O O8 0.647565 0.949107 0.250000
O O9 0.592225 0.903046 0.467015
O O10 0.634630 0.000000 0.500000
O O11 0.661212 0.655761 0.250000
O O12 0.637256 0.705870 0.005289
O O13 0.653040 0.597943 0.004603
O O14 0.378360 0.752517 0.750000
O O15 0.422300 0.794327 0.985006
O O16 0.066010 0.334358 0.250000
O O17 0.000000 0.361172 0.035769
O O18 0.377107 0.555787 0.750000
O O19 0.386265 0.500000 0.000000
#
# Coordination Sequence:
#
# PCOD8258971 Si02
#       7
#     8  16  16  16  16  16  16
#     4   8  16  32  54  74  96 128 164 202 247 298
#     4   9  20  37  56  77 106 142 181 224 271 321
#     4  10  20  34  55  82 112 147 186 227 273 327
#     4  11  22  36  55  81 109 141 180 222 268 323
#     4  10  20  36  57  81 107 139 179 225 274 324
#     4   9  19  37  58  80 110 147 185 227 276 327
#     4  10  20  36  56  79 106 137 173 217 265 317
#
# _framework density 18.673133
#
# number of rings (size 3 to 8) (size 9 to 14) (size 15 to 20)
#    0.000    2.308    0.000    2.308    0.000    4.308 
#    1.385    0.000    0.000    0.000    0.000    0.000 
#    0.000    0.000    0.000    0.000    0.000    0.000 
#
# Total GULP energy -644740.958758 kJ/mol
# GULP energy per Si atom -12398.864591 kJ/mol
# Density = 1.863063 g / cm^3
# Si number density = 18.673133 Si / 1000 Ang^3
#
#
#
# Elastic Constant Matrix: (Units=GPa)
#
#
# Indices 1 2 3 4 5 6 
#
# 1 54.3284 34.5761 35.9205 0.0000 0.0000 0.0000
# 2 34.5761 107.5024 52.3757 0.0000 0.0000 0.0000
# 3 35.9205 52.3757 88.1137 0.0000 0.0000 0.0000
# 4 0.0000 0.0000 0.0000 35.2025 0.0000 0.0000
# 5 0.0000 0.0000 0.0000 0.0000 27.5765 0.0000
# 6 0.0000 0.0000 0.0000 0.0000 0.0000 20.1265
#
#
#
# Elastic Compliance Matrix: (Units=1/GPa)
#
#
# Indices 1 2 3 4 5 6 
#
# 1 0.026742 -0.004631 -0.008149 0.000000 0.000000 0.000000
# 2 -0.004631 0.013896 -0.006372 0.000000 0.000000 0.000000
# 3 -0.008149 -0.006372 0.018459 0.000000 0.000000 0.000000
# 4 0.000000 0.000000 0.000000 0.028407 0.000000 0.000000
# 5 0.000000 0.000000 0.000000 0.000000 0.036263 0.000000
# 6 0.000000 0.000000 0.000000 0.000000 0.000000 0.049686
#
#
# Mechanical properties :
#
#
# Convention : Reuss Voigt Hill
#
# Bulk Modulus (GPa) = 48.09402 55.07655 51.58529
# Shear Modulus (GPa) = 22.86379 25.05259 23.95819
#
# Velocity S-wave (km/s) = 3.50297 3.66681 3.58583
# Velocity P-wave (km/s) = 6.49405 6.89104 6.69549
#
# Compressibility (1/GPa) = 0.02079260
#
# Stress axis : x y z
#
# Youngs Moduli (GPa) = 37.39497 71.96276 54.17505
#
# Poissons Ratio (x) = 0.33324 0.44147
# Poissons Ratio (y) = 0.17317 0.34522
# Poissons Ratio (z) = 0.30473 0.45856
#
# Static dielectric constant tensor:
#      x y z
#    x 3.752650 0.000000 0.000000 
#    y 0.000000 3.422990 0.000000 
#    z 0.000000 0.000000 3.484720 
# 
# 
# High freq. dielectric constant tensor:
#      x y z
#    x 1.729900 0.000000 0.000000 
#    y 0.000000 1.714270 0.000000 
#    z 0.000000 0.000000 1.735050 
# 
# From -- ./inp_files/12543.got.cif
#   From: 2010.03.12/outbox.cif.g09.slc.cpg/sg63_7_cif.got.tgz:12543.got - 2010.04.10 19:34:48.
