data_PCOD8258379
_publ_section_title
;
Structure prediction by ZEFSAII (Michael W. Deem and Ramdas Pophale) SiO2 
 PCOD8258379
Probable space group: C M C M
;
_chemical_formula_sum "Si O2"
_cell_formula_units_Z 112
_cell_length_a 20.104156
_cell_length_b 17.580942
_cell_length_c 17.780520
_cell_angle_alpha 90.000000
_cell_angle_beta 90.000000
_cell_angle_gamma 90.000000
_cell_volume 6284.524805
_symmetry_space_group_name_H-M "C M C M"
_symmetry_group_IT_number 63
_symmetry_cell_setting 'orthorhombic'
loop_
_space_group_symop_operation_xyz
x,y,z
-x,-y,1/2+z
x,-y,-z
-x,y,1/2-z
-x,-y,-z
x,y,1/2-z
-x,y,z
x,-y,1/2+z
1/2+x,1/2+y,z
1/2-x,1/2-y,1/2+z
1/2+x,1/2-y,-z
1/2-x,1/2+y,1/2-z
1/2-x,1/2-y,-z
1/2+x,1/2+y,1/2-z
1/2-x,1/2+y,z
1/2+x,1/2-y,1/2+z
loop_
_atom_site_type_symbol
_atom_site_label
_atom_site_fract_x
_atom_site_fract_y
_atom_site_fract_z
Si Si1 0.176474 0.580207 0.100320
Si Si2 0.425477 0.878981 0.020955
Si Si3 0.796319 0.845195 0.958905
Si Si4 0.863846 0.425344 0.165769
Si Si5 0.925550 0.791096 0.481995
Si Si6 0.236246 0.300712 0.385000
Si Si7 0.867373 0.739817 0.166362
O O1 0.255364 0.583607 0.076515
O O2 0.169734 0.506995 0.152248
O O3 0.152987 0.654053 0.145963
O O4 0.128068 0.574309 0.027740
O O5 0.500000 0.892839 0.989315
O O6 0.422479 0.909532 0.106377
O O7 0.408803 0.789021 0.022523
O O8 0.798668 0.781294 0.893766
O O9 0.873061 0.855102 0.987442
O O10 0.750673 0.824873 0.029731
O O11 0.893355 0.423209 0.250000
O O12 0.808546 0.360662 0.157873
O O13 0.919910 0.774908 0.392658
O O14 0.000000 0.819987 0.499974
O O15 0.302571 0.292929 0.335862
O O16 0.898559 0.741774 0.250000
#
# Coordination Sequence:
#
# PCOD8258379 Si02
#       7
#    16  16  16  16  16  16  16
#     4  10  20  32  50  70  95 133 175 206 240 291
#     4  10  20  35  51  68  96 137 174 200 234 287
#     4   9  15  31  53  71  92 124 168 209 246 283
#     4  12  22  31  46  73 101 127 163 206 247 295
#     4   9  17  30  52  76  96 127 171 207 240 292
#     4   9  16  29  48  71  93 125 160 202 245 292
#     4   9  17  30  46  69 103 131 156 201 254 294
#
# _framework density 17.821555
#
# number of rings (size 3 to 8) (size 9 to 14) (size 15 to 20)
#    0.000    2.286    2.857    3.000    0.000    1.714 
#    0.000    0.000    0.000    2.571    0.000    8.000 
#    0.000    4.571    0.000    0.000    0.000    0.000 
#
# Total GULP energy -693823.798244 kJ/mol
# GULP energy per Si atom -12389.710683 kJ/mol
# Density = 1.778099 g / cm^3
# Si number density = 17.821555 Si / 1000 Ang^3
#
#
#
# Elastic Constant Matrix: (Units=GPa)
#
#
# Indices 1 2 3 4 5 6 
#
# 1 85.5176 16.1888 24.2334 0.0000 0.0000 0.0000
# 2 16.1888 33.6589 14.3689 0.0000 0.0000 0.0000
# 3 24.2334 14.3689 78.8841 0.0000 0.0000 0.0000
# 4 0.0000 0.0000 0.0000 20.3002 0.0000 0.0000
# 5 0.0000 0.0000 0.0000 0.0000 15.1180 0.0000
# 6 0.0000 0.0000 0.0000 0.0000 0.0000 12.3594
#
#
#
# Elastic Compliance Matrix: (Units=1/GPa)
#
#
# Indices 1 2 3 4 5 6 
#
# 1 0.013586 -0.005153 -0.003235 0.000000 0.000000 0.000000
# 2 -0.005153 0.034170 -0.004641 0.000000 0.000000 0.000000
# 3 -0.003235 -0.004641 0.014516 0.000000 0.000000 0.000000
# 4 0.000000 0.000000 0.000000 0.049261 0.000000 0.000000
# 5 0.000000 0.000000 0.000000 0.000000 0.066146 0.000000
# 6 0.000000 0.000000 0.000000 0.000000 0.000000 0.080910
#
#
# Mechanical properties :
#
#
# Convention : Reuss Voigt Hill
#
# Bulk Modulus (GPa) = 27.61439 34.18251 30.89845
# Shear Modulus (GPa) = 16.85104 19.10682 17.97893
#
# Velocity S-wave (km/s) = 3.07830 3.27787 3.17966
# Velocity P-wave (km/s) = 5.30690 5.79207 5.55478
#
# Compressibility (1/GPa) = 0.03621300
#
# Stress axis : x y z
#
# Youngs Moduli (GPa) = 73.60673 29.26577 68.88976
#
# Poissons Ratio (x) = 0.15082 0.22285
# Poissons Ratio (y) = 0.37932 0.31971
# Poissons Ratio (z) = 0.23811 0.13582
#
# Static dielectric constant tensor:
#      x y z
#    x 3.201130 0.000000 0.000000 
#    y 0.000000 3.077130 0.000000 
#    z 0.000000 0.000000 3.267480 
# 
# 
# High freq. dielectric constant tensor:
#      x y z
#    x 1.678070 0.000000 0.000000 
#    y 0.000000 1.656520 0.000000 
#    z 0.000000 0.000000 1.680640 
# 
# From -- ./inp_files/47468.got.cif
#   From: 2010.03.12/outbox.cif.g09.slc.cpg/sg63_24_cif.got.tgz:47468.got - 2010.04.10 19:34:48.
