data_PCOD8258966
_publ_section_title
;
Structure prediction by ZEFSAII (Michael W. Deem and Ramdas Pophale) SiO2 
 PCOD8258966
Probable space group: C M C M
;
_chemical_formula_sum "Si O2"
_cell_formula_units_Z 88
_cell_length_a 34.415292
_cell_length_b 14.320552
_cell_length_c 9.758459
_cell_angle_alpha 90.000000
_cell_angle_beta 90.000000
_cell_angle_gamma 90.000000
_cell_volume 4809.417276
_symmetry_space_group_name_H-M "C M C M"
_symmetry_group_IT_number 63
_symmetry_cell_setting 'orthorhombic'
loop_
_space_group_symop_operation_xyz
x,y,z
-x,-y,1/2+z
x,-y,-z
-x,y,1/2-z
-x,-y,-z
x,y,1/2-z
-x,y,z
x,-y,1/2+z
1/2+x,1/2+y,z
1/2-x,1/2-y,1/2+z
1/2+x,1/2-y,-z
1/2-x,1/2+y,1/2-z
1/2-x,1/2-y,-z
1/2+x,1/2+y,1/2-z
1/2-x,1/2+y,z
1/2+x,1/2-y,1/2+z
loop_
_atom_site_type_symbol
_atom_site_label
_atom_site_fract_x
_atom_site_fract_y
_atom_site_fract_z
Si Si1 0.329019 0.076650 0.099970
Si Si2 0.920817 0.418479 0.595985
Si Si3 0.287427 0.737959 0.592199
Si Si4 0.500000 0.592612 0.911299
Si Si5 0.148247 0.092749 0.911095
Si Si6 0.425161 0.288684 0.088726
O O1 0.312009 0.054677 0.250000
O O2 0.374941 0.069860 0.101828
O O3 0.317050 0.179632 0.053572
O O4 0.310311 0.000000 0.000000
O O5 0.938928 0.500000 0.500000
O O6 0.938237 0.428537 0.750000
O O7 0.930049 0.316599 0.529939
O O8 0.274363 0.742363 0.750000
O O9 0.250000 0.750000 0.500000
O O10 0.310328 0.642109 0.562278
O O11 0.500000 0.567907 0.750000
O O12 0.462399 0.651487 0.953778
O O13 0.500000 0.500000 0.000000
O O14 0.142739 0.069235 0.750000
O O15 0.113488 0.159522 0.964928
O O16 0.147092 0.000000 0.000000
O O17 0.421034 0.276520 0.250000
#
# Coordination Sequence:
#
# PCOD8258966 Si02
#       6
#    16  16  16   8  16  16
#     4   9  17  31  51  72  94 125 163 204 249 297
#     4   9  16  30  52  76 101 131 168 207 247 299
#     4  10  21  36  52  71 100 134 168 209 258 308
#     4  10  20  34  55  82 108 140 179 218 259 306
#     4  10  20  36  55  75 102 138 175 214 259 309
#     4   9  17  33  56  78 106 142 176 210 257 314
#
# _framework density 18.297433999999999
#
# number of rings (size 3 to 8) (size 9 to 14) (size 15 to 20)
#    0.000    2.545    1.818    0.545    0.000    2.182 
#    0.000    5.909    0.000    0.000    0.000    0.000 
#    0.000    0.000    0.000    0.000    0.000    0.000 
#
# Total GULP energy -545436.940989 kJ/mol
# GULP energy per Si atom -12396.294113 kJ/mol
# Density = 1.825579 g / cm^3
# Si number density = 18.297434 Si / 1000 Ang^3
#
#
#
# Elastic Constant Matrix: (Units=GPa)
#
#
# Indices 1 2 3 4 5 6 
#
# 1 77.2202 39.8886 33.6919 0.0000 0.0000 0.0000
# 2 39.8886 170.7469 72.1569 0.0000 0.0000 0.0000
# 3 33.6919 72.1569 68.0047 0.0000 0.0000 0.0000
# 4 0.0000 0.0000 0.0000 38.0198 0.0000 0.0000
# 5 0.0000 0.0000 0.0000 0.0000 14.4053 0.0000
# 6 0.0000 0.0000 0.0000 0.0000 0.0000 20.8108
#
#
#
# Elastic Compliance Matrix: (Units=1/GPa)
#
#
# Indices 1 2 3 4 5 6 
#
# 1 0.016571 -0.000728 -0.007437 0.000000 0.000000 0.000000
# 2 -0.000728 0.010649 -0.010939 0.000000 0.000000 0.000000
# 3 -0.007437 -0.010939 0.029996 0.000000 0.000000 0.000000
# 4 0.000000 0.000000 0.000000 0.026302 0.000000 0.000000
# 5 0.000000 0.000000 0.000000 0.000000 0.069419 0.000000
# 6 0.000000 0.000000 0.000000 0.000000 0.000000 0.048052
#
#
# Mechanical properties :
#
#
# Convention : Reuss Voigt Hill
#
# Bulk Modulus (GPa) = 52.60885 67.49405 60.05145
# Shear Modulus (GPa) = 20.36374 25.99614 23.17994
#
# Velocity S-wave (km/s) = 3.33968 3.77338 3.56313
# Velocity P-wave (km/s) = 6.60952 7.48009 7.05824
#
# Compressibility (1/GPa) = 0.01900821
#
# Stress axis : x y z
#
# Youngs Moduli (GPa) = 60.34616 93.90128 33.33756
#
# Poissons Ratio (x) = 0.06839 0.24793
# Poissons Ratio (y) = 0.04395 0.36468
# Poissons Ratio (z) = 0.44880 1.02717
#
# Static dielectric constant tensor:
#      x y z
#    x 3.250840 0.000000 0.000000 
#    y 0.000000 3.664650 0.000000 
#    z 0.000000 0.000000 3.260620 
# 
# 
# High freq. dielectric constant tensor:
#      x y z
#    x 1.694750 0.000000 0.000000 
#    y 0.000000 1.722700 0.000000 
#    z 0.000000 0.000000 1.684990 
# 
# From -- ./inp_files/25724.got.cif
#   From: 2010.03.12/outbox.cif.g09.slc.cpg/sg63_13_cif.got.tgz:25724.got - 2010.04.10 19:34:48.
