data_PCOD8258737
_publ_section_title
;
Structure prediction by ZEFSAII (Michael W. Deem and Ramdas Pophale) SiO2 
 PCOD8258737
Probable space group: C M C M
;
_chemical_formula_sum "Si O2"
_cell_formula_units_Z 96
_cell_length_a 9.191414
_cell_length_b 30.857498
_cell_length_c 18.571060
_cell_angle_alpha 90.000000
_cell_angle_beta 90.000000
_cell_angle_gamma 90.000000
_cell_volume 5267.199048
_symmetry_space_group_name_H-M "C M C M"
_symmetry_group_IT_number 63
_symmetry_cell_setting 'orthorhombic'
loop_
_space_group_symop_operation_xyz
x,y,z
-x,-y,1/2+z
x,-y,-z
-x,y,1/2-z
-x,-y,-z
x,y,1/2-z
-x,y,z
x,-y,1/2+z
1/2+x,1/2+y,z
1/2-x,1/2-y,1/2+z
1/2+x,1/2-y,-z
1/2-x,1/2+y,1/2-z
1/2-x,1/2-y,-z
1/2+x,1/2+y,1/2-z
1/2-x,1/2+y,z
1/2+x,1/2-y,1/2+z
loop_
_atom_site_type_symbol
_atom_site_label
_atom_site_fract_x
_atom_site_fract_y
_atom_site_fract_z
Si Si1 0.668515 0.459218 0.166457
Si Si2 0.329769 0.953674 0.666562
Si Si3 0.330730 0.707385 0.167322
Si Si4 0.172082 0.124112 0.581834
Si Si5 0.671642 0.377975 0.916688
Si Si6 0.829370 0.793256 0.333090
O O1 0.689985 0.447806 0.250000
O O2 0.500000 0.468732 0.148829
O O3 0.761000 0.500756 0.143089
O O4 0.731109 0.418983 0.120819
O O5 0.296591 0.944211 0.750000
O O6 0.500000 0.955130 0.650305
O O7 0.256506 0.916664 0.620109
O O8 0.291357 0.697080 0.250000
O O9 0.500000 0.716814 0.157281
O O10 0.280153 0.666722 0.120191
O O11 0.245920 0.749448 0.139206
O O12 0.220996 0.124120 0.499304
O O13 0.234960 0.166822 0.620901
O O14 0.000000 0.124922 0.590115
O O15 0.500000 0.386105 0.907960
O O16 0.791213 0.802217 0.250000
O O17 0.000000 0.787516 0.345162
#
# Coordination Sequence:
#
# PCOD8258737 Si02
#       6
#    16  16  16  16  16  16
#     4   9  17  32  55  77  97 127 167 206 244 290
#     4  10  21  36  53  74 100 128 162 206 250 292
#     4   9  18  32  49  70  96 127 165 206 246 291
#     4   9  18  32  51  76 102 129 165 206 244 288
#     4  10  20  34  52  73 100 134 168 202 243 293
#     4   9  17  31  52  75  99 129 165 205 248 291
#
# _framework density 18.226005000000001
#
# number of rings (size 3 to 8) (size 9 to 14) (size 15 to 20)
#    0.000    2.667    0.000    1.500    0.000    5.667 
#    0.000    7.500    0.000    4.000    0.000    0.000 
#    0.000    0.000    0.000    0.000    0.000    0.000 
#
# Total GULP energy -595308.931366 kJ/mol
# GULP energy per Si atom -12402.269403 kJ/mol
# Density = 1.818452 g / cm^3
# Si number density = 18.226005 Si / 1000 Ang^3
#
#
#
# Elastic Constant Matrix: (Units=GPa)
#
#
# Indices 1 2 3 4 5 6 
#
# 1 47.1879 62.9516 45.2626 0.0000 0.0000 0.0000
# 2 62.9516 202.7927 108.2870 0.0000 0.0000 0.0000
# 3 45.2626 108.2870 111.9147 0.0000 0.0000 0.0000
# 4 0.0000 0.0000 0.0000 -709.2154 0.0000 0.0000
# 5 0.0000 0.0000 0.0000 0.0000 17.7408 0.0000
# 6 0.0000 0.0000 0.0000 0.0000 0.0000 31.5556
#
#
#
# Elastic Compliance Matrix: (Units=1/GPa)
#
#
# Indices 1 2 3 4 5 6 
#
# 1 0.039780 -0.007775 -0.008566 0.000000 0.000000 0.000000
# 2 -0.007775 0.011722 -0.008198 0.000000 0.000000 0.000000
# 3 -0.008566 -0.008198 0.020332 0.000000 0.000000 0.000000
# 4 0.000000 0.000000 0.000000 -0.001410 0.000000 0.000000
# 5 0.000000 0.000000 0.000000 0.000000 0.056367 0.000000
# 6 0.000000 0.000000 0.000000 0.000000 0.000000 0.031690
#
#
# Mechanical properties :
#
#
# Convention : Reuss Voigt Hill
#
# Bulk Modulus (GPa) = 43.94192 88.32199 66.13196
# Shear Modulus (GPa) = 23.24030 -122.29087 -49.52529
#
# Velocity S-wave (km/s) = 3.57475 -8.20016 -5.21842
# Velocity P-wave (km/s) = 6.41874 6.41032 0.23242
#
# Compressibility (1/GPa) = 0.02275731
#
# Stress axis : x y z
#
# Youngs Moduli (GPa) = 25.13810 85.31035 49.18437
#
# Poissons Ratio (x) = 0.66326 0.42132
# Poissons Ratio (y) = 0.19544 0.40319
# Poissons Ratio (z) = 0.21533 0.69934
#
# Static dielectric constant tensor:
#      x y z
#    x 3.135900 0.000000 0.000000 
#    y 0.000000 3.566840 0.000000 
#    z 0.000000 0.000000 3.450230 
# 
# 
# High freq. dielectric constant tensor:
#      x y z
#    x 1.681280 0.000000 0.000000 
#    y 0.000000 1.720970 0.000000 
#    z 0.000000 0.000000 1.703490 
# 
# From -- ./inp_files/51263.got.cif
#   From: 2010.03.12/outbox.cif.g09.slc.cpg/sg63_26_cif.got.tgz:51263.got - 2010.04.10 19:34:48.
