data_PCOD8258127
_publ_section_title
;
Structure prediction by ZEFSAII (Michael W. Deem and Ramdas Pophale) SiO2 
 PCOD8258127
Probable space group: C M C M
;
_chemical_formula_sum "Si O2"
_cell_formula_units_Z 56
_cell_length_a 7.571475
_cell_length_b 16.767491
_cell_length_c 24.161027
_cell_angle_alpha 90.000000
_cell_angle_beta 90.000000
_cell_angle_gamma 90.000000
_cell_volume 3067.354459
_symmetry_space_group_name_H-M "C M C M"
_symmetry_group_IT_number 63
_symmetry_cell_setting 'orthorhombic'
loop_
_space_group_symop_operation_xyz
x,y,z
-x,-y,1/2+z
x,-y,-z
-x,y,1/2-z
-x,-y,-z
x,y,1/2-z
-x,y,z
x,-y,1/2+z
1/2+x,1/2+y,z
1/2-x,1/2-y,1/2+z
1/2+x,1/2-y,-z
1/2-x,1/2+y,1/2-z
1/2-x,1/2-y,-z
1/2+x,1/2+y,1/2-z
1/2-x,1/2+y,z
1/2+x,1/2-y,1/2+z
loop_
_atom_site_type_symbol
_atom_site_label
_atom_site_fract_x
_atom_site_fract_y
_atom_site_fract_z
Si Si1 0.000000 0.702935 0.405510
Si Si2 0.199400 0.956812 0.186705
Si Si3 0.304901 0.173030 0.899116
Si Si4 0.500000 0.906977 0.010202
Si Si5 0.000000 0.577583 0.314668
O O1 0.824527 0.754869 0.412584
O O2 0.000000 0.661720 0.345596
O O3 0.000000 0.635191 0.451387
O O4 0.241308 0.933291 0.250000
O O5 0.226466 0.877956 0.150930
O O6 0.000000 0.988221 0.179817
O O7 0.328234 0.027288 0.167173
O O8 0.500000 0.206397 0.882452
O O9 0.325762 0.118310 0.954375
O O10 0.500000 0.000000 0.000000
O O11 0.000000 0.597534 0.250000
#
# Coordination Sequence:
#
# PCOD8258127 Si02
#       5
#     8  16  16   8   8
#     4  12  22  40  59  85 125 152 193 242 294 348
#     4  10  19  36  61  86 115 153 196 239 288 347
#     4  10  22  36  61  88 116 153 193 241 296 346
#     4  10  22  42  61  82 116 158 194 245 290 348
#     4  10  22  38  60  87 119 156 194 239 282 342
#
# _framework density 18.256775999999999
#
# number of rings (size 3 to 8) (size 9 to 14) (size 15 to 20)
#    0.857    0.857    2.857    2.571    0.000    2.286 
#    0.000    0.714    0.000    0.000    0.000    0.000 
#    0.000    0.000    0.000    0.000    0.000    0.000 
#
# Total GULP energy -347173.967429 kJ/mol
# GULP energy per Si atom -12399.070265 kJ/mol
# Density = 1.821522 g / cm^3
# Si number density = 18.256776 Si / 1000 Ang^3
#
#
#
# Elastic Constant Matrix: (Units=GPa)
#
#
# Indices 1 2 3 4 5 6 
#
# 1 136.2574 60.3289 34.8744 0.0000 0.0000 0.0000
# 2 60.3289 134.3196 59.8185 0.0000 0.0000 0.0000
# 3 34.8744 59.8185 87.2149 0.0000 0.0000 0.0000
# 4 0.0000 0.0000 0.0000 39.6436 0.0000 0.0000
# 5 0.0000 0.0000 0.0000 0.0000 9.6355 0.0000
# 6 0.0000 0.0000 0.0000 0.0000 0.0000 22.6945
#
#
#
# Elastic Compliance Matrix: (Units=1/GPa)
#
#
# Indices 1 2 3 4 5 6 
#
# 1 0.009250 -0.003610 -0.001223 0.000000 0.000000 0.000000
# 2 -0.003610 0.012128 -0.006875 0.000000 0.000000 0.000000
# 3 -0.001223 -0.006875 0.016670 0.000000 0.000000 0.000000
# 4 0.000000 0.000000 0.000000 0.025225 0.000000 0.000000
# 5 0.000000 0.000000 0.000000 0.000000 0.103783 0.000000
# 6 0.000000 0.000000 0.000000 0.000000 0.000000 0.044063
#
#
# Mechanical properties :
#
#
# Convention : Reuss Voigt Hill
#
# Bulk Modulus (GPa) = 68.33810 74.20395 71.27103
# Shear Modulus (GPa) = 20.88437 27.91272 24.39855
#
# Velocity S-wave (km/s) = 3.38586 3.91435 3.65966
# Velocity P-wave (km/s) = 7.26625 7.82064 7.54853
#
# Compressibility (1/GPa) = 0.01463313
#
# Stress axis : x y z
#
# Youngs Moduli (GPa) = 108.10255 82.45331 59.98767
#
# Poissons Ratio (x) = 0.29768 0.07335
# Poissons Ratio (y) = 0.39028 0.41240
# Poissons Ratio (z) = 0.13219 0.56684
#
# Static dielectric constant tensor:
#      x y z
#    x 3.537750 0.000000 0.000000 
#    y 0.000000 3.103810 0.000000 
#    z 0.000000 0.000000 3.394360 
# 
# 
# High freq. dielectric constant tensor:
#      x y z
#    x 1.714110 0.000000 0.000000 
#    y 0.000000 1.692240 0.000000 
#    z 0.000000 0.000000 1.715730 
# 
# From -- ./inp_files/66227.got.cif
#   From: 2010.03.12/outbox.cif.g09.slc.cpg/sg63_34_cif.got.tgz:66227.got - 2010.04.10 19:34:48.
