data_PCOD8258656
_publ_section_title
;
Structure prediction by ZEFSAII (Michael W. Deem and Ramdas Pophale) SiO2 
 PCOD8258656
Probable space group: C M C M
;
_chemical_formula_sum "Si O2"
_cell_formula_units_Z 112
_cell_length_a 14.170241
_cell_length_b 25.561113
_cell_length_c 15.496741
_cell_angle_alpha 90.000000
_cell_angle_beta 90.000000
_cell_angle_gamma 90.000000
_cell_volume 5613.030104
_symmetry_space_group_name_H-M "C M C M"
_symmetry_group_IT_number 63
_symmetry_cell_setting 'orthorhombic'
loop_
_space_group_symop_operation_xyz
x,y,z
-x,-y,1/2+z
x,-y,-z
-x,y,1/2-z
-x,-y,-z
x,y,1/2-z
-x,y,z
x,-y,1/2+z
1/2+x,1/2+y,z
1/2-x,1/2-y,1/2+z
1/2+x,1/2-y,-z
1/2-x,1/2+y,1/2-z
1/2-x,1/2-y,-z
1/2+x,1/2+y,1/2-z
1/2-x,1/2+y,z
1/2+x,1/2-y,1/2+z
loop_
_atom_site_type_symbol
_atom_site_label
_atom_site_fract_x
_atom_site_fract_y
_atom_site_fract_z
Si Si1 0.105087 0.341734 0.902164
Si Si2 0.704267 0.377257 0.348385
Si Si3 0.608391 0.561816 0.500000
Si Si4 0.607206 0.271938 0.349081
Si Si5 0.204268 0.122743 0.348385
Si Si6 0.392795 0.271938 0.650919
Si Si7 0.394913 0.158266 0.597837
O O1 0.132183 0.280332 0.901092
O O2 0.181497 0.376804 0.851451
O O3 0.000000 0.349666 0.861445
O O4 0.105643 0.361182 0.000000
O O5 0.671406 0.389456 0.250000
O O6 0.660447 0.419368 0.413086
O O7 0.670795 0.320120 0.380330
O O8 0.818503 0.376804 0.351451
O O9 0.613657 0.500000 0.500000
O O10 0.500000 0.581365 0.500000
O O11 0.660447 0.580632 0.413086
O O12 0.627852 0.258550 0.250000
O O13 0.500000 0.289475 0.364638
O O14 0.171407 0.110544 0.250000
O O15 0.170796 0.179881 0.380330
O O16 0.372152 0.258550 0.750000
O O17 0.500000 0.289475 0.635358
O O18 0.367816 0.219668 0.598909
O O19 0.500000 0.150335 0.638555
#
# Coordination Sequence:
#
# PCOD8258656 Si02
#       7
#    16  16  16  16  16  16  16
#     4  10  20  33  53  86 126 164 199 235 277 332
#     4  11  22  38  62  88 117 157 199 238 287 346
#     4  11  26  46  66  89 115 143 184 244 306 355
#     4   9  18  31  49  81 122 160 197 234 277 336
#     4  11  22  38  62  88 117 157 199 238 287 346
#     4   9  18  31  49  81 122 160 197 234 277 336
#     4  10  20  33  53  86 126 164 199 235 277 332
#
# _framework density 19.953572000000001
#
# number of rings (size 3 to 8) (size 9 to 14) (size 15 to 20)
#    0.000    1.857    1.429    2.571    2.000    7.429 
#    0.000    1.429    0.000    1.714    0.000    2.000 
#    0.000    0.000    0.000    0.000    0.000    0.000 
#
# Total GULP energy -694325.277087 kJ/mol
# GULP energy per Si atom -12398.665662 kJ/mol
# Density = 1.990816 g / cm^3
# Si number density = 19.953572 Si / 1000 Ang^3
#
#
#
# Elastic Constant Matrix: (Units=GPa)
#
#
# Indices 1 2 3 4 5 6 
#
# 1 124.9884 52.2093 34.1165 0.0000 0.0000 0.0000
# 2 52.2093 50.9575 32.2920 0.0000 0.0000 0.0000
# 3 34.1165 32.2920 90.5852 0.0000 0.0000 0.0000
# 4 0.0000 0.0000 0.0000 7.7653 0.0000 0.0000
# 5 0.0000 0.0000 0.0000 0.0000 25.3814 0.0000
# 6 0.0000 0.0000 0.0000 0.0000 0.0000 23.3206
#
#
#
# Elastic Compliance Matrix: (Units=1/GPa)
#
#
# Indices 1 2 3 4 5 6 
#
# 1 0.013990 -0.014203 -0.000206 0.000000 0.000000 0.000000
# 2 -0.014203 0.039771 -0.008828 0.000000 0.000000 0.000000
# 3 -0.000206 -0.008828 0.014264 0.000000 0.000000 0.000000
# 4 0.000000 0.000000 0.000000 0.128778 0.000000 0.000000
# 5 0.000000 0.000000 0.000000 0.000000 0.039399 0.000000
# 6 0.000000 0.000000 0.000000 0.000000 0.000000 0.042881
#
#
# Mechanical properties :
#
#
# Convention : Reuss Voigt Hill
#
# Bulk Modulus (GPa) = 46.40334 55.97407 51.18871
# Shear Modulus (GPa) = 15.02679 21.15433 18.09056
#
# Velocity S-wave (km/s) = 2.74722 3.25957 3.01430
# Velocity P-wave (km/s) = 5.77660 6.50226 6.15014
#
# Compressibility (1/GPa) = 0.02155017
#
# Stress axis : x y z
#
# Youngs Moduli (GPa) = 71.48149 25.14426 70.10675
#
# Poissons Ratio (x) = 0.35712 0.01442
# Poissons Ratio (y) = 1.01524 0.61892
# Poissons Ratio (z) = 0.01471 0.22198
#
# Static dielectric constant tensor:
#      x y z
#    x 3.951560 0.000000 0.000000 
#    y 0.000000 3.156520 0.000000 
#    z 0.000000 0.000000 3.522740 
# 
# 
# High freq. dielectric constant tensor:
#      x y z
#    x 1.797920 0.000000 0.000000 
#    y 0.000000 1.720370 0.000000 
#    z 0.000000 0.000000 1.779240 
# 
# From -- ./inp_files/32560.got.cif
#   From: 2010.03.12/outbox.cif.g09.slc.cpg/sg63_17_cif.got.tgz:32560.got - 2010.04.10 19:34:48.
