data_PCOD8258145
_publ_section_title
;
Structure prediction by ZEFSAII (Michael W. Deem and Ramdas Pophale) SiO2 
 PCOD8258145
Probable space group: C M C M
;
_chemical_formula_sum "Si O2"
_cell_formula_units_Z 56
_cell_length_a 18.009346
_cell_length_b 16.163072
_cell_length_c 10.155526
_cell_angle_alpha 90.000000
_cell_angle_beta 90.000000
_cell_angle_gamma 90.000000
_cell_volume 2956.135057
_symmetry_space_group_name_H-M "C M C M"
_symmetry_group_IT_number 63
_symmetry_cell_setting 'orthorhombic'
loop_
_space_group_symop_operation_xyz
x,y,z
-x,-y,1/2+z
x,-y,-z
-x,y,1/2-z
-x,-y,-z
x,y,1/2-z
-x,y,z
x,-y,1/2+z
1/2+x,1/2+y,z
1/2-x,1/2-y,1/2+z
1/2+x,1/2-y,-z
1/2-x,1/2+y,1/2-z
1/2-x,1/2-y,-z
1/2+x,1/2+y,1/2-z
1/2-x,1/2+y,z
1/2+x,1/2-y,1/2+z
loop_
_atom_site_type_symbol
_atom_site_label
_atom_site_fract_x
_atom_site_fract_y
_atom_site_fract_z
Si Si1 0.500000 0.239037 0.900764
Si Si2 0.000000 0.112497 0.895526
Si Si3 0.375965 0.500000 0.000000
Si Si4 0.659801 0.189099 0.899199
Si Si5 0.729148 0.634516 0.397153
O O1 0.500000 0.272628 0.750000
O O2 0.571791 0.181638 0.925914
O O3 0.500000 0.317768 0.994471
O O4 0.000000 0.152967 0.750000
O O5 0.073209 0.056284 0.906627
O O6 0.324239 0.556137 0.091778
O O7 0.679907 0.162623 0.750000
O O8 0.681017 0.284059 0.926596
O O9 0.703215 0.128797 0.998798
O O10 0.762714 0.637061 0.250000
#
# Coordination Sequence:
#
# PCOD8258145 Si02
#       5
#     8   8   8  16  16
#     4  10  19  37  58  78 111 147 176 218 275 326
#     4  11  23  33  52  84 113 144 180 216 261 326
#     4  11  22  36  52  79 116 150 176 217 272 328
#     4   9  19  35  55  77 105 143 183 222 267 320
#     4  10  20  35  54  77 108 146 183 222 265 319
#
# _framework density 18.943656000000001
#
# number of rings (size 3 to 8) (size 9 to 14) (size 15 to 20)
#    0.000    2.000    2.857    0.857    0.000    5.714 
#    0.000    0.000    0.000    0.857    0.000    0.000 
#    0.000    0.000    0.000    0.000    0.000    0.000 
#
# Total GULP energy -347223.344680 kJ/mol
# GULP energy per Si atom -12400.833739 kJ/mol
# Density = 1.890054 g / cm^3
# Si number density = 18.943656 Si / 1000 Ang^3
#
#
#
# Elastic Constant Matrix: (Units=GPa)
#
#
# Indices 1 2 3 4 5 6 
#
# 1 139.1292 30.0568 74.1943 0.0000 0.0000 0.0000
# 2 30.0568 39.6430 29.3541 0.0000 0.0000 0.0000
# 3 74.1943 29.3541 127.9843 0.0000 0.0000 0.0000
# 4 0.0000 0.0000 0.0000 20.3485 0.0000 0.0000
# 5 0.0000 0.0000 0.0000 0.0000 19.3135 0.0000
# 6 0.0000 0.0000 0.0000 0.0000 0.0000 29.0632
#
#
#
# Elastic Compliance Matrix: (Units=1/GPa)
#
#
# Indices 1 2 3 4 5 6 
#
# 1 0.010995 -0.004356 -0.005375 0.000000 0.000000 0.000000
# 2 -0.004356 0.032112 -0.004840 0.000000 0.000000 0.000000
# 3 -0.005375 -0.004840 0.012039 0.000000 0.000000 0.000000
# 4 0.000000 0.000000 0.000000 0.049144 0.000000 0.000000
# 5 0.000000 0.000000 0.000000 0.000000 0.051777 0.000000
# 6 0.000000 0.000000 0.000000 0.000000 0.000000 0.034408
#
#
# Mechanical properties :
#
#
# Convention : Reuss Voigt Hill
#
# Bulk Modulus (GPa) = 38.45507 63.77410 51.11459
# Shear Modulus (GPa) = 21.90254 25.28846 23.59550
#
# Velocity S-wave (km/s) = 3.40397 3.65763 3.53308
# Velocity P-wave (km/s) = 5.98274 7.18164 6.60943
#
# Compressibility (1/GPa) = 0.02600437
#
# Stress axis : x y z
#
# Youngs Moduli (GPa) = 90.95110 31.14139 83.06162
#
# Poissons Ratio (x) = 0.13566 0.44643
# Poissons Ratio (y) = 0.39622 0.40198
# Poissons Ratio (z) = 0.48884 0.15071
#
# Static dielectric constant tensor:
#      x y z
#    x 3.663340 0.000000 0.000000 
#    y 0.000000 3.063640 0.000000 
#    z 0.000000 0.000000 3.477120 
# 
# 
# High freq. dielectric constant tensor:
#      x y z
#    x 1.739730 0.000000 0.000000 
#    y 0.000000 1.692550 0.000000 
#    z 0.000000 0.000000 1.742300 
# 
# From -- ./inp_files/5573.got.cif
#   From: 2010.03.12/outbox.cif.g09.slc.cpg/sg63_3_cif.got.tgz:5573.got - 2010.04.10 19:34:48.
