data_PCOD8258723
_publ_section_title
;
Structure prediction by ZEFSAII (Michael W. Deem and Ramdas Pophale) SiO2 
 PCOD8258723
Probable space group: C M C M
;
_chemical_formula_sum "Si O2"
_cell_formula_units_Z 88
_cell_length_a 23.665421
_cell_length_b 12.805178
_cell_length_c 15.873262
_cell_angle_alpha 90.000000
_cell_angle_beta 90.000000
_cell_angle_gamma 90.000000
_cell_volume 4810.232179
_symmetry_space_group_name_H-M "C M C M"
_symmetry_group_IT_number 63
_symmetry_cell_setting 'orthorhombic'
loop_
_space_group_symop_operation_xyz
x,y,z
-x,-y,1/2+z
x,-y,-z
-x,y,1/2-z
-x,-y,-z
x,y,1/2-z
-x,y,z
x,-y,1/2+z
1/2+x,1/2+y,z
1/2-x,1/2-y,1/2+z
1/2+x,1/2-y,-z
1/2-x,1/2+y,1/2-z
1/2-x,1/2-y,-z
1/2+x,1/2+y,1/2-z
1/2-x,1/2+y,z
1/2+x,1/2-y,1/2+z
loop_
_atom_site_type_symbol
_atom_site_label
_atom_site_fract_x
_atom_site_fract_y
_atom_site_fract_z
Si Si1 0.937135 0.413338 0.571086
Si Si2 0.435620 0.696886 0.021169
Si Si3 0.288167 0.573457 0.348249
Si Si4 0.854487 0.274459 0.153914
Si Si5 0.667737 0.999531 0.652872
Si Si6 0.137231 0.000000 0.500000
O O1 0.927535 0.500000 0.500000
O O2 0.930757 0.295801 0.539630
O O3 0.888198 0.430513 0.639353
O O4 0.000000 0.428722 0.610430
O O5 0.500000 0.662758 0.035076
O O6 0.410035 0.727126 0.111254
O O7 0.401395 0.600639 0.981977
O O8 0.298188 0.537285 0.250000
O O9 0.301465 0.696535 0.356103
O O10 0.223802 0.558638 0.380052
O O11 0.326740 0.509514 0.413909
O O12 0.872267 0.290570 0.250000
O O13 0.837819 0.385204 0.110929
O O14 0.676803 0.018487 0.750000
#
# Coordination Sequence:
#
# PCOD8258723 Si02
#       6
#    16  16  16  16  16   8
#     4  10  20  34  51  75 107 137 168 214 264 313
#     4  10  20  35  54  78 107 139 179 223 265 316
#     4   9  20  36  53  79 110 138 178 226 265 313
#     4   9  18  33  52  76 105 137 177 224 268 309
#     4  10  20  34  54  78 106 141 178 217 265 321
#     4  10  21  36  58  80 105 146 182 218 270 322
#
# _framework density 18.294335
#
# number of rings (size 3 to 8) (size 9 to 14) (size 15 to 20)
#    0.000    2.364    1.818    0.273    1.273    2.182 
#    0.000    8.182    0.000    2.727    0.000    0.000 
#    0.000    0.000    0.000    0.000    0.000    0.000 
#
# Total GULP energy -545349.237173 kJ/mol
# GULP energy per Si atom -12394.300845 kJ/mol
# Density = 1.825270 g / cm^3
# Si number density = 18.294335 Si / 1000 Ang^3
#
#
#
# Elastic Constant Matrix: (Units=GPa)
#
#
# Indices 1 2 3 4 5 6 
#
# 1 162.9673 70.4676 45.1468 0.0000 0.0000 0.0000
# 2 70.4676 106.2032 31.2976 0.0000 0.0000 0.0000
# 3 45.1468 31.2976 48.1639 0.0000 0.0000 0.0000
# 4 0.0000 0.0000 0.0000 24.3687 0.0000 0.0000
# 5 0.0000 0.0000 0.0000 0.0000 25.9807 0.0000
# 6 0.0000 0.0000 0.0000 0.0000 0.0000 29.0776
#
#
#
# Elastic Compliance Matrix: (Units=1/GPa)
#
#
# Indices 1 2 3 4 5 6 
#
# 1 0.009906 -0.004745 -0.006202 0.000000 0.000000 0.000000
# 2 -0.004745 0.013919 -0.004597 0.000000 0.000000 0.000000
# 3 -0.006202 -0.004597 0.029563 0.000000 0.000000 0.000000
# 4 0.000000 0.000000 0.000000 0.041036 0.000000 0.000000
# 5 0.000000 0.000000 0.000000 0.000000 0.038490 0.000000
# 6 0.000000 0.000000 0.000000 0.000000 0.000000 0.034391
#
#
# Mechanical properties :
#
#
# Convention : Reuss Voigt Hill
#
# Bulk Modulus (GPa) = 44.84299 67.90649 56.37474
# Shear Modulus (GPa) = 24.29217 27.24688 25.76952
#
# Velocity S-wave (km/s) = 3.64792 3.86341 3.75721
# Velocity P-wave (km/s) = 6.50448 7.55650 7.05014
#
# Compressibility (1/GPa) = 0.02230003
#
# Stress axis : x y z
#
# Youngs Moduli (GPa) = 100.94651 71.84371 33.82581
#
# Poissons Ratio (x) = 0.34091 0.20979
# Poissons Ratio (y) = 0.47901 0.15549
# Poissons Ratio (z) = 0.62609 0.33026
#
# Static dielectric constant tensor:
#      x y z
#    x 3.594170 0.000000 0.000000 
#    y 0.000000 3.567160 0.000000 
#    z 0.000000 0.000000 3.167410 
# 
# 
# High freq. dielectric constant tensor:
#      x y z
#    x 1.717510 0.000000 0.000000 
#    y 0.000000 1.715380 0.000000 
#    z 0.000000 0.000000 1.688430 
# 
# From -- ./inp_files/36601.got.cif
#   From: 2010.03.12/outbox.cif.g09.slc.cpg/sg63_19_cif.got.tgz:36601.got - 2010.04.10 19:34:48.
