data_PCOD8258739
_publ_section_title
;
Structure prediction by ZEFSAII (Michael W. Deem and Ramdas Pophale) SiO2 
 PCOD8258739
Probable space group: C M C M
;
_chemical_formula_sum "Si O2"
_cell_formula_units_Z 96
_cell_length_a 23.646023
_cell_length_b 24.239665
_cell_length_c 8.906022
_cell_angle_alpha 90.000000
_cell_angle_beta 90.000000
_cell_angle_gamma 90.000000
_cell_volume 5104.679557
_symmetry_space_group_name_H-M "C M C M"
_symmetry_group_IT_number 63
_symmetry_cell_setting 'orthorhombic'
loop_
_space_group_symop_operation_xyz
x,y,z
-x,-y,1/2+z
x,-y,-z
-x,y,1/2-z
-x,-y,-z
x,y,1/2-z
-x,y,z
x,-y,1/2+z
1/2+x,1/2+y,z
1/2-x,1/2-y,1/2+z
1/2+x,1/2-y,-z
1/2-x,1/2+y,1/2-z
1/2-x,1/2-y,-z
1/2+x,1/2+y,1/2-z
1/2-x,1/2+y,z
1/2+x,1/2-y,1/2+z
loop_
_atom_site_type_symbol
_atom_site_label
_atom_site_fract_x
_atom_site_fract_y
_atom_site_fract_z
Si Si1 0.861709 0.151741 0.422777
Si Si2 0.336810 0.942685 0.426431
Si Si3 0.561793 0.128430 0.572926
Si Si4 0.640906 0.225251 0.926876
Si Si5 0.729197 0.845860 0.925239
Si Si6 0.935100 0.942351 0.073317
O O1 0.874111 0.137249 0.250000
O O2 0.882030 0.213608 0.464090
O O3 0.795465 0.153636 0.457177
O O4 0.894794 0.107298 0.521605
O O5 0.329084 0.947413 0.250000
O O6 0.400634 0.924638 0.470802
O O7 0.293228 0.898434 0.486796
O O8 0.321603 0.000000 0.500000
O O9 0.555422 0.132494 0.750000
O O10 0.500000 0.122885 0.496878
O O11 0.592214 0.183899 0.515432
O O12 0.653446 0.219182 0.750000
O O13 0.699440 0.209670 0.011200
O O14 0.715492 0.850725 0.750000
O O15 0.928840 0.949096 0.250000
O O16 0.000000 0.929095 0.027178
O O17 0.915283 0.000000 0.000000
#
# Coordination Sequence:
#
# PCOD8258739 Si02
#       6
#    16  16  16  16  16  16
#     4  10  21  35  55  83 109 139 178 214 255 313
#     4  10  20  34  52  73 100 135 175 218 265 315
#     4   8  15  29  49  73 101 133 169 209 252 300
#     4   9  18  33  53  78 108 141 176 214 259 307
#     4  10  20  34  52  76 108 142 176 216 263 311
#     4  10  22  40  60  81 107 139 174 216 266 316
#
# _framework density 18.806273000000001
#
# number of rings (size 3 to 8) (size 9 to 14) (size 15 to 20)
#    0.000    2.500    0.000    3.000    0.000    4.667 
#    0.000    1.667    0.000   12.000    0.000    0.000 
#    0.000    0.000    0.000    0.000    0.000    0.000 
#
# Total GULP energy -595053.537665 kJ/mol
# GULP energy per Si atom -12396.948701 kJ/mol
# Density = 1.876347 g / cm^3
# Si number density = 18.806273 Si / 1000 Ang^3
#
#
#
# Elastic Constant Matrix: (Units=GPa)
#
#
# Indices 1 2 3 4 5 6 
#
# 1 28.0547 4.2257 15.5155 0.0000 0.0000 0.0000
# 2 4.2257 93.2577 30.7974 0.0000 0.0000 0.0000
# 3 15.5155 30.7974 66.8712 0.0000 0.0000 0.0000
# 4 0.0000 0.0000 0.0000 30.0733 0.0000 0.0000
# 5 0.0000 0.0000 0.0000 0.0000 23.0792 0.0000
# 6 0.0000 0.0000 0.0000 0.0000 0.0000 23.4749
#
#
#
# Elastic Compliance Matrix: (Units=1/GPa)
#
#
# Indices 1 2 3 4 5 6 
#
# 1 0.041073 0.001517 -0.010228 0.000000 0.000000 0.000000
# 2 0.001517 0.012702 -0.006202 0.000000 0.000000 0.000000
# 3 -0.010228 -0.006202 0.020184 0.000000 0.000000 0.000000
# 4 0.000000 0.000000 0.000000 0.033252 0.000000 0.000000
# 5 0.000000 0.000000 0.000000 0.000000 0.043329 0.000000
# 6 0.000000 0.000000 0.000000 0.000000 0.000000 0.042599
#
#
# Mechanical properties :
#
#
# Convention : Reuss Voigt Hill
#
# Bulk Modulus (GPa) = 22.65939 32.14008 27.39974
# Shear Modulus (GPa) = 21.03701 24.50183 22.76942
#
# Velocity S-wave (km/s) = 3.34820 3.61342 3.48334
# Velocity P-wave (km/s) = 5.19830 5.87676 5.54791
#
# Compressibility (1/GPa) = 0.04413181
#
# Stress axis : x y z
#
# Youngs Moduli (GPa) = 24.34694 78.72539 49.54518
#
# Poissons Ratio (x) = -0.11940 0.50676
# Poissons Ratio (y) = -0.03693 0.30728
# Poissons Ratio (z) = 0.24903 0.48825
#
# Static dielectric constant tensor:
#      x y z
#    x 3.642320 0.000000 0.000000 
#    y 0.000000 3.549620 0.000000 
#    z 0.000000 0.000000 3.349130 
# 
# 
# High freq. dielectric constant tensor:
#      x y z
#    x 1.728870 0.000000 0.000000 
#    y 0.000000 1.738350 0.000000 
#    z 0.000000 0.000000 1.718470 
# 
# From -- ./inp_files/10490.got.cif
#   From: 2010.03.12/outbox.cif.g09.slc.cpg/sg63_6_cif.got.tgz:10490.got - 2010.04.10 19:34:48.
