data_PCOD8258576
_publ_section_title
;
Structure prediction by ZEFSAII (Michael W. Deem and Ramdas Pophale) SiO2 
 PCOD8258576
Probable space group: C M C M
;
_chemical_formula_sum "Si O2"
_cell_formula_units_Z 112
_cell_length_a 17.601991
_cell_length_b 15.788298
_cell_length_c 24.859806
_cell_angle_alpha 90.000000
_cell_angle_beta 90.000000
_cell_angle_gamma 90.000000
_cell_volume 6908.676302
_symmetry_space_group_name_H-M "C M C M"
_symmetry_group_IT_number 63
_symmetry_cell_setting 'orthorhombic'
loop_
_space_group_symop_operation_xyz
x,y,z
-x,-y,1/2+z
x,-y,-z
-x,y,1/2-z
-x,-y,-z
x,y,1/2-z
-x,y,z
x,-y,1/2+z
1/2+x,1/2+y,z
1/2-x,1/2-y,1/2+z
1/2+x,1/2-y,-z
1/2-x,1/2+y,1/2-z
1/2-x,1/2-y,-z
1/2+x,1/2+y,1/2-z
1/2-x,1/2+y,z
1/2+x,1/2-y,1/2+z
loop_
_atom_site_type_symbol
_atom_site_label
_atom_site_fract_x
_atom_site_fract_y
_atom_site_fract_z
Si Si1 0.410152 0.388245 0.088367
Si Si2 0.184958 0.038016 0.057493
Si Si3 0.166747 0.789841 0.992972
Si Si4 0.910798 0.379135 0.013955
Si Si5 0.910276 0.399863 0.809968
Si Si6 0.589892 0.711062 0.808779
Si Si7 0.150882 0.523413 0.414571
O O1 0.500000 0.379412 0.077572
O O2 0.386418 0.486646 0.082053
O O3 0.384863 0.357729 0.147433
O O4 0.363006 0.329348 0.048300
O O5 0.165001 0.137312 0.052610
O O6 0.258727 0.025426 0.094189
O O7 0.208038 0.000000 0.000000
O O8 0.250000 0.750000 0.000000
O O9 0.108346 0.718038 0.973738
O O10 0.874883 0.403566 0.956261
O O11 0.000000 0.394678 0.010908
O O12 0.876317 0.433471 0.062571
O O13 0.882751 0.427737 0.750000
O O14 0.879180 0.305122 0.822838
O O15 0.881925 0.464457 0.855123
O O16 0.000000 0.399844 0.811712
O O17 0.620638 0.682585 0.750000
O O18 0.500000 0.716527 0.807237
#
# Coordination Sequence:
#
# PCOD8258576 Si02
#       7
#    16  16  16  16  16  16  16
#     4  10  20  33  52  75  98 131 171 208 250 299
#     4  10  20  34  49  67  99 137 159 198 248 293
#     4  11  20  33  47  69 102 133 163 196 248 302
#     4  11  20  29  49  74  96 127 163 201 237 288
#     4   9  17  29  48  74 102 130 161 205 254 294
#     4   8  15  29  49  75 100 120 154 206 255 290
#     4  11  18  33  46  70 101 129 164 196 247 303
#
# _framework density 16.211500000000001
#
# number of rings (size 3 to 8) (size 9 to 14) (size 15 to 20)
#    0.000    2.000    2.857    4.714    0.000    4.286 
#    0.000    0.714    0.000    0.000    0.000    1.000 
#    0.000    2.286    0.000    0.000    0.000    0.000 
#
# Total GULP energy -694211.335407 kJ/mol
# GULP energy per Si atom -12396.630989 kJ/mol
# Density = 1.617460 g / cm^3
# Si number density = 16.211500 Si / 1000 Ang^3
#
#
#
# Elastic Constant Matrix: (Units=GPa)
#
#
# Indices 1 2 3 4 5 6 
#
# 1 68.4272 28.2008 30.8647 0.0000 0.0000 0.0000
# 2 28.2008 110.1762 48.6026 0.0000 0.0000 0.0000
# 3 30.8647 48.6026 106.8078 0.0000 0.0000 0.0000
# 4 0.0000 0.0000 0.0000 20.3355 0.0000 0.0000
# 5 0.0000 0.0000 0.0000 0.0000 16.0945 0.0000
# 6 0.0000 0.0000 0.0000 0.0000 0.0000 26.9713
#
#
#
# Elastic Compliance Matrix: (Units=1/GPa)
#
#
# Indices 1 2 3 4 5 6 
#
# 1 0.017473 -0.002809 -0.003771 0.000000 0.000000 0.000000
# 2 -0.002809 0.011807 -0.004561 0.000000 0.000000 0.000000
# 3 -0.003771 -0.004561 0.012528 0.000000 0.000000 0.000000
# 4 0.000000 0.000000 0.000000 0.049175 0.000000 0.000000
# 5 0.000000 0.000000 0.000000 0.000000 0.062133 0.000000
# 6 0.000000 0.000000 0.000000 0.000000 0.000000 0.037077
#
#
# Mechanical properties :
#
#
# Convention : Reuss Voigt Hill
#
# Bulk Modulus (GPa) = 51.21417 55.63860 53.42639
# Shear Modulus (GPa) = 22.83278 24.52979 23.68129
#
# Velocity S-wave (km/s) = 3.75698 3.89409 3.82615
# Velocity P-wave (km/s) = 7.10491 7.39010 7.24891
#
# Compressibility (1/GPa) = 0.01952585
#
# Stress axis : x y z
#
# Youngs Moduli (GPa) = 57.23254 84.69226 79.82155
#
# Poissons Ratio (x) = 0.23788 0.30101
# Poissons Ratio (y) = 0.16075 0.36409
# Poissons Ratio (z) = 0.21582 0.38631
#
# Static dielectric constant tensor:
#      x y z
#    x 2.960440 0.000000 0.000000 
#    y 0.000000 3.235660 0.000000 
#    z 0.000000 0.000000 3.107610 
# 
# 
# High freq. dielectric constant tensor:
#      x y z
#    x 1.613140 0.000000 0.000000 
#    y 0.000000 1.622420 0.000000 
#    z 0.000000 0.000000 1.602230 
# 
# From -- ./inp_files/63015.got.cif
#   From: 2010.03.12/outbox.cif.g09.slc.cpg/sg63_32_cif.got.tgz:63015.got - 2010.04.10 19:34:48.
