data_PCOD8258625
_publ_section_title
;
Structure prediction by ZEFSAII (Michael W. Deem and Ramdas Pophale) SiO2 
 PCOD8258625
Probable space group: C M C M
;
_chemical_formula_sum "Si O2"
_cell_formula_units_Z 96
_cell_length_a 22.747818
_cell_length_b 12.399578
_cell_length_c 17.446881
_cell_angle_alpha 90.000000
_cell_angle_beta 90.000000
_cell_angle_gamma 90.000000
_cell_volume 4921.125591
_symmetry_space_group_name_H-M "C M C M"
_symmetry_group_IT_number 63
_symmetry_cell_setting 'orthorhombic'
loop_
_space_group_symop_operation_xyz
x,y,z
-x,-y,1/2+z
x,-y,-z
-x,y,1/2-z
-x,-y,-z
x,y,1/2-z
-x,y,z
x,-y,1/2+z
1/2+x,1/2+y,z
1/2-x,1/2-y,1/2+z
1/2+x,1/2-y,-z
1/2-x,1/2+y,1/2-z
1/2-x,1/2-y,-z
1/2+x,1/2+y,1/2-z
1/2-x,1/2+y,z
1/2+x,1/2-y,1/2+z
loop_
_atom_site_type_symbol
_atom_site_label
_atom_site_fract_x
_atom_site_fract_y
_atom_site_fract_z
Si Si1 0.369821 0.784257 0.164015
Si Si2 0.836025 0.755553 0.445571
Si Si3 0.280372 0.642887 0.415164
Si Si4 0.068477 0.377241 0.475047
Si Si5 0.937622 0.930499 0.662733
Si Si6 0.828700 0.056025 0.840854
O O1 0.366422 0.833744 0.250000
O O2 0.305595 0.732969 0.144802
O O3 0.393265 0.872771 0.103741
O O4 0.418908 0.692840 0.158486
O O5 0.786292 0.663657 0.441177
O O6 0.822551 0.844571 0.510891
O O7 0.899128 0.699505 0.461808
O O8 0.830783 0.819455 0.365315
O O9 0.279763 0.521586 0.380262
O O10 0.071105 0.500000 0.500000
O O11 0.000000 0.341122 0.466065
O O12 0.944533 0.966561 0.750000
O O13 0.000000 0.944544 0.619553
O O14 0.889376 0.007503 0.625858
O O15 0.820425 0.047592 0.750000
#
# Coordination Sequence:
#
# PCOD8258625 Si02
#       6
#    16  16  16  16  16  16
#     4   9  17  32  57  85 107 133 177 233 286 331
#     4  10  21  36  56  77 105 147 186 221 274 335
#     4   9  19  35  54  78 110 142 177 223 277 337
#     4  10  22  39  56  78 111 149 190 233 275 327
#     4   8  14  26  46  74 106 134 160 199 255 312
#     4  10  20  33  52  81 112 139 175 224 273 326
#
# _framework density 19.507732000000001
#
# number of rings (size 3 to 8) (size 9 to 14) (size 15 to 20)
#    0.000    2.667    0.000    2.500    0.000    7.000 
#    0.000    0.833    0.000    7.000    0.000    0.000 
#    0.000    0.000    0.000    0.000    0.000    0.000 
#
# Total GULP energy -594691.121661 kJ/mol
# GULP energy per Si atom -12389.398368 kJ/mol
# Density = 1.946333 g / cm^3
# Si number density = 19.507732 Si / 1000 Ang^3
#
#
#
# Elastic Constant Matrix: (Units=GPa)
#
#
# Indices 1 2 3 4 5 6 
#
# 1 78.8224 14.4011 27.1706 0.0000 0.0000 0.0000
# 2 14.4011 65.9257 33.5846 0.0000 0.0000 0.0000
# 3 27.1706 33.5846 82.1076 0.0000 0.0000 0.0000
# 4 0.0000 0.0000 0.0000 31.6758 0.0000 0.0000
# 5 0.0000 0.0000 0.0000 0.0000 18.5823 0.0000
# 6 0.0000 0.0000 0.0000 0.0000 0.0000 16.2397
#
#
#
# Elastic Compliance Matrix: (Units=1/GPa)
#
#
# Indices 1 2 3 4 5 6 
#
# 1 0.014363 -0.000905 -0.004383 0.000000 0.000000 0.000000
# 2 -0.000905 0.019218 -0.007561 0.000000 0.000000 0.000000
# 3 -0.004383 -0.007561 0.016722 0.000000 0.000000 0.000000
# 4 0.000000 0.000000 0.000000 0.031570 0.000000 0.000000
# 5 0.000000 0.000000 0.000000 0.000000 0.053815 0.000000
# 6 0.000000 0.000000 0.000000 0.000000 0.000000 0.061578
#
#
# Mechanical properties :
#
#
# Convention : Reuss Voigt Hill
#
# Bulk Modulus (GPa) = 40.64151 41.90761 41.27456
# Shear Modulus (GPa) = 21.62953 23.41284 22.52118
#
# Velocity S-wave (km/s) = 3.33343 3.46812 3.40144
# Velocity P-wave (km/s) = 5.97448 6.12914 6.05231
#
# Compressibility (1/GPa) = 0.02460538
#
# Stress axis : x y z
#
# Youngs Moduli (GPa) = 69.62420 52.03377 59.80015
#
# Poissons Ratio (x) = 0.04708 0.26209
# Poissons Ratio (y) = 0.06299 0.45218
# Poissons Ratio (z) = 0.30515 0.39345
#
# Static dielectric constant tensor:
#      x y z
#    x 3.940080 0.000000 0.000000 
#    y 0.000000 3.238010 0.000000 
#    z 0.000000 0.000000 3.577330 
# 
# 
# High freq. dielectric constant tensor:
#      x y z
#    x 1.760070 0.000000 0.000000 
#    y 0.000000 1.734380 0.000000 
#    z 0.000000 0.000000 1.750120 
# 
# From -- ./inp_files/48016.got.cif
#   From: 2010.03.12/outbox.cif.g09.slc.cpg/sg63_25_cif.got.tgz:48016.got - 2010.04.10 19:34:48.
