data_PCOD8258051
_publ_section_title
;
Structure prediction by ZEFSAII (Michael W. Deem and Ramdas Pophale) SiO2 
 PCOD8258051
Probable space group: C M C M
;
_chemical_formula_sum "Si O2"
_cell_formula_units_Z 112
_cell_length_a 13.950925
_cell_length_b 22.305692
_cell_length_c 17.997811
_cell_angle_alpha 90.000000
_cell_angle_beta 90.000000
_cell_angle_gamma 90.000000
_cell_volume 5600.649467
_symmetry_space_group_name_H-M "C M C M"
_symmetry_group_IT_number 63
_symmetry_cell_setting 'orthorhombic'
loop_
_space_group_symop_operation_xyz
x,y,z
-x,-y,1/2+z
x,-y,-z
-x,y,1/2-z
-x,-y,-z
x,y,1/2-z
-x,y,z
x,-y,1/2+z
1/2+x,1/2+y,z
1/2-x,1/2-y,1/2+z
1/2+x,1/2-y,-z
1/2-x,1/2+y,1/2-z
1/2-x,1/2-y,-z
1/2+x,1/2+y,1/2-z
1/2-x,1/2+y,z
1/2+x,1/2-y,1/2+z
loop_
_atom_site_type_symbol
_atom_site_label
_atom_site_fract_x
_atom_site_fract_y
_atom_site_fract_z
Si Si1 0.770873 0.693063 0.334622
Si Si2 0.387816 0.125823 0.575499
Si Si3 0.393604 0.422119 0.164906
Si Si4 0.613706 0.910446 0.589197
Si Si5 0.299549 0.975843 0.164329
Si Si6 0.389451 0.295310 0.102253
Si Si7 0.611866 0.263359 0.565400
O O1 0.741141 0.682718 0.250000
O O2 0.839048 0.639245 0.359245
O O3 0.827119 0.755496 0.342148
O O4 0.672562 0.693221 0.381591
O O5 0.500000 0.118534 0.585875
O O6 0.356285 0.100070 0.495725
O O7 0.337523 0.089689 0.641619
O O8 0.357562 0.195026 0.581877
O O9 0.389834 0.399932 0.250000
O O10 0.500000 0.446977 0.145323
O O11 0.315972 0.474863 0.152009
O O12 0.367732 0.365340 0.113666
O O13 0.500000 0.907124 0.600034
O O14 0.651821 0.975371 0.612165
O O15 0.325762 0.988460 0.250000
O O16 0.500000 0.280692 0.118333
O O17 0.360785 0.277751 0.018969
O O18 0.500000 0.274752 0.580770
#
# Coordination Sequence:
#
# PCOD8258051 Si02
#       7
#    16  16  16  16  16  16  16
#     4  12  24  36  58  91 123 157 195 240 298 355
#     4  10  21  39  62  87 116 156 200 243 296 351
#     4   9  19  35  57  87 118 148 190 245 300 349
#     4  11  24  42  61  85 119 158 199 245 295 353
#     4  11  23  38  59  87 118 157 201 247 298 348
#     4  10  19  35  60  88 117 150 191 243 299 351
#     4  10  22  40  61  86 119 159 199 240 291 355
#
# _framework density 19.997681
#
# number of rings (size 3 to 8) (size 9 to 14) (size 15 to 20)
#    0.000    1.571    1.429    3.429    2.000    6.571 
#    0.000    2.143    0.000    3.429    0.000    0.000 
#    0.000    0.000    0.000    0.000    0.000    0.000 
#
# Total GULP energy -694620.095257 kJ/mol
# GULP energy per Si atom -12403.930272 kJ/mol
# Density = 1.995217 g / cm^3
# Si number density = 19.997681 Si / 1000 Ang^3
#
#
#
# Elastic Constant Matrix: (Units=GPa)
#
#
# Indices 1 2 3 4 5 6 
#
# 1 63.9378 40.0524 26.3419 0.0000 0.0000 0.0000
# 2 40.0524 56.6206 20.5877 0.0000 0.0000 0.0000
# 3 26.3419 20.5877 54.9591 0.0000 0.0000 0.0000
# 4 0.0000 0.0000 0.0000 13.8387 0.0000 0.0000
# 5 0.0000 0.0000 0.0000 0.0000 30.3650 0.0000
# 6 0.0000 0.0000 0.0000 0.0000 0.0000 35.4935
#
#
#
# Elastic Compliance Matrix: (Units=1/GPa)
#
#
# Indices 1 2 3 4 5 6 
#
# 1 0.030597 -0.018883 -0.007591 0.000000 0.000000 0.000000
# 2 -0.018883 0.032101 -0.002974 0.000000 0.000000 0.000000
# 3 -0.007591 -0.002974 0.022948 0.000000 0.000000 0.000000
# 4 0.000000 0.000000 0.000000 0.072261 0.000000 0.000000
# 5 0.000000 0.000000 0.000000 0.000000 0.032933 0.000000
# 6 0.000000 0.000000 0.000000 0.000000 0.000000 0.028174
#
#
# Mechanical properties :
#
#
# Convention : Reuss Voigt Hill
#
# Bulk Modulus (GPa) = 37.38628 38.83128 38.10878
# Shear Modulus (GPa) = 17.43211 21.84180 19.63696
#
# Velocity S-wave (km/s) = 2.95567 3.30846 3.13703
# Velocity P-wave (km/s) = 5.51216 5.83563 5.67620
#
# Compressibility (1/GPa) = 0.02674778
#
# Stress axis : x y z
#
# Youngs Moduli (GPa) = 32.68305 31.15206 43.57678
#
# Poissons Ratio (x) = 0.58826 0.33081
# Poissons Ratio (y) = 0.61717 0.12960
# Poissons Ratio (z) = 0.24811 0.09265
#
# Static dielectric constant tensor:
#      x y z
#    x 3.841130 0.000000 0.000000 
#    y 0.000000 3.504610 0.000000 
#    z 0.000000 0.000000 3.603720 
# 
# 
# High freq. dielectric constant tensor:
#      x y z
#    x 1.796150 0.000000 0.000000 
#    y 0.000000 1.766370 0.000000 
#    z 0.000000 0.000000 1.777010 
# 
# From -- ./inp_files/32353.got.cif
#   From: 2010.03.12/outbox.cif.g09.slc.cpg/sg63_17_cif.got.tgz:32353.got - 2010.04.10 19:34:48.
