data_PCOD8258443
_publ_section_title
;
Structure prediction by ZEFSAII (Michael W. Deem and Ramdas Pophale) SiO2 
 PCOD8258443
Probable space group: C M C M
;
_chemical_formula_sum "Si O2"
_cell_formula_units_Z 80
_cell_length_a 9.109249
_cell_length_b 25.648318
_cell_length_c 19.319941
_cell_angle_alpha 90.000000
_cell_angle_beta 90.000000
_cell_angle_gamma 90.000000
_cell_volume 4513.851415
_symmetry_space_group_name_H-M "C M C M"
_symmetry_group_IT_number 63
_symmetry_cell_setting 'orthorhombic'
loop_
_space_group_symop_operation_xyz
x,y,z
-x,-y,1/2+z
x,-y,-z
-x,y,1/2-z
-x,-y,-z
x,y,1/2-z
-x,y,z
x,-y,1/2+z
1/2+x,1/2+y,z
1/2-x,1/2-y,1/2+z
1/2+x,1/2-y,-z
1/2-x,1/2+y,1/2-z
1/2-x,1/2-y,-z
1/2+x,1/2+y,1/2-z
1/2-x,1/2+y,z
1/2+x,1/2-y,1/2+z
loop_
_atom_site_type_symbol
_atom_site_label
_atom_site_fract_x
_atom_site_fract_y
_atom_site_fract_z
Si Si1 0.173764 0.056762 0.582584
Si Si2 0.673361 0.439904 0.926483
Si Si3 0.665589 0.744855 0.832291
Si Si4 0.168355 0.357029 0.168084
Si Si5 0.327161 0.651774 0.329919
O O1 0.219616 0.073656 0.504929
O O2 0.258387 0.091836 0.637004
O O3 0.000000 0.062597 0.594154
O O4 0.227903 0.997404 0.595267
O O5 0.500000 0.440579 0.921870
O O6 0.736419 0.396684 0.873983
O O7 0.667193 0.743824 0.750000
O O8 0.500000 0.744565 0.861296
O O9 0.749508 0.694159 0.861080
O O10 0.747929 0.796568 0.858397
O O11 0.184025 0.360903 0.250000
O O12 0.000000 0.353437 0.144922
O O13 0.288777 0.640930 0.250000
O O14 0.500000 0.659729 0.340496
#
# Coordination Sequence:
#
# PCOD8258443 Si02
#       5
#    16  16  16  16  16
#     4   9  17  32  52  71  95 128 164 198 232 276
#     4   8  16  31  50  72  98 128 160 195 235 278
#     4   9  17  30  48  70  95 123 156 194 237 283
#     4  10  20  33  49  71  98 125 156 197 242 285
#     4   9  16  28  48  72  97 125 156 191 234 283
#
# _framework density 17.723223999999998
#
# number of rings (size 3 to 8) (size 9 to 14) (size 15 to 20)
#    0.000    3.000    0.000    2.400    0.000    4.400 
#    0.000    7.000    0.000    2.400    0.000    0.000 
#    0.000    0.000    0.000    0.000    0.000    0.000 
#
# Total GULP energy -495914.556734 kJ/mol
# GULP energy per Si atom -12397.863918 kJ/mol
# Density = 1.768289 g / cm^3
# Si number density = 17.723224 Si / 1000 Ang^3
#
#
#
# Elastic Constant Matrix: (Units=GPa)
#
#
# Indices 1 2 3 4 5 6 
#
# 1 84.1969 59.2116 31.0579 0.0000 0.0000 0.0000
# 2 59.2116 139.4794 42.3921 0.0000 0.0000 0.0000
# 3 31.0579 42.3921 34.4896 0.0000 0.0000 0.0000
# 4 0.0000 0.0000 0.0000 13.3531 0.0000 0.0000
# 5 0.0000 0.0000 0.0000 0.0000 16.9187 0.0000
# 6 0.0000 0.0000 0.0000 0.0000 0.0000 30.1233
#
#
#
# Elastic Compliance Matrix: (Units=1/GPa)
#
#
# Indices 1 2 3 4 5 6 
#
# 1 0.019545 -0.004706 -0.011816 0.000000 0.000000 0.000000
# 2 -0.004706 0.012578 -0.011222 0.000000 0.000000 0.000000
# 3 -0.011816 -0.011222 0.053428 0.000000 0.000000 0.000000
# 4 0.000000 0.000000 0.000000 0.074889 0.000000 0.000000
# 5 0.000000 0.000000 0.000000 0.000000 0.059106 0.000000
# 6 0.000000 0.000000 0.000000 0.000000 0.000000 0.033197
#
#
# Mechanical properties :
#
#
# Convention : Reuss Voigt Hill
#
# Bulk Modulus (GPa) = 33.26388 58.16546 45.71467
# Shear Modulus (GPa) = 15.71076 20.44598 18.07837
#
# Velocity S-wave (km/s) = 2.98056 3.40019 3.19727
# Velocity P-wave (km/s) = 5.53663 6.95019 6.28329
#
# Compressibility (1/GPa) = 0.03006264
#
# Stress axis : x y z
#
# Youngs Moduli (GPa) = 51.16398 79.50332 18.71665
#
# Poissons Ratio (x) = 0.37414 0.22116
# Poissons Ratio (y) = 0.24077 0.21005
# Poissons Ratio (z) = 0.60456 0.89222
#
# Static dielectric constant tensor:
#      x y z
#    x 3.153910 0.000000 0.000000 
#    y 0.000000 3.625130 0.000000 
#    z 0.000000 0.000000 3.168560 
# 
# 
# High freq. dielectric constant tensor:
#      x y z
#    x 1.667920 0.000000 0.000000 
#    y 0.000000 1.699190 0.000000 
#    z 0.000000 0.000000 1.658790 
# 
# From -- ./inp_files/40436.got.cif
#   From: 2010.03.12/outbox.cif.g09.slc.cpg/sg63_21_cif.got.tgz:40436.got - 2010.04.10 19:34:48.
