data_PCOD8258617
_publ_section_title
;
Structure prediction by ZEFSAII (Michael W. Deem and Ramdas Pophale) SiO2 
 PCOD8258617
Probable space group: C M C M
;
_chemical_formula_sum "Si O2"
_cell_formula_units_Z 96
_cell_length_a 9.388236
_cell_length_b 21.955360
_cell_length_c 23.368240
_cell_angle_alpha 90.000000
_cell_angle_beta 90.000000
_cell_angle_gamma 90.000000
_cell_volume 4816.710729
_symmetry_space_group_name_H-M "C M C M"
_symmetry_group_IT_number 63
_symmetry_cell_setting 'orthorhombic'
loop_
_space_group_symop_operation_xyz
x,y,z
-x,-y,1/2+z
x,-y,-z
-x,y,1/2-z
-x,-y,-z
x,y,1/2-z
-x,y,z
x,-y,1/2+z
1/2+x,1/2+y,z
1/2-x,1/2-y,1/2+z
1/2+x,1/2-y,-z
1/2-x,1/2+y,1/2-z
1/2-x,1/2-y,-z
1/2+x,1/2+y,1/2-z
1/2-x,1/2+y,z
1/2+x,1/2-y,1/2+z
loop_
_atom_site_type_symbol
_atom_site_label
_atom_site_fract_x
_atom_site_fract_y
_atom_site_fract_z
Si Si1 0.837519 0.397368 0.969849
Si Si2 0.161444 0.836849 0.685079
Si Si3 0.665533 0.773908 0.905080
Si Si4 0.837696 0.343504 0.414035
Si Si5 0.663556 0.462280 0.879740
Si Si6 0.335350 0.933909 0.316260
O O1 0.801983 0.329324 0.947864
O O2 0.738852 0.448684 0.940719
O O3 0.000000 0.414732 0.954997
O O4 0.810171 0.396189 0.038160
O O5 0.209774 0.841823 0.750000
O O6 0.264635 0.788127 0.656091
O O7 0.179102 0.902987 0.658637
O O8 0.000000 0.813206 0.678535
O O9 0.500000 0.762217 0.896495
O O10 0.735031 0.712368 0.928692
O O11 0.808872 0.371452 0.351266
O O12 0.000000 0.320148 0.419618
O O13 0.500000 0.480007 0.891329
O O14 0.737582 0.515116 0.844150
O O15 0.292728 0.923125 0.250000
O O16 0.500000 0.954052 0.321487
#
# Coordination Sequence:
#
# PCOD8258617 Si02
#       6
#    16  16  16  16  16  16
#     4   9  19  36  57  81 109 141 178 221 270 323
#     4   9  18  33  53  76 103 138 178 218 264 321
#     4  10  20  33  52  80 110 139 175 222 274 320
#     4  10  21  37  56  77 106 147 187 220 261 319
#     4  10  20  35  57  83 109 137 174 223 276 324
#     4  10  22  39  57  77 104 142 184 221 261 314
#
# _framework density 19.930613000000001
#
# number of rings (size 3 to 8) (size 9 to 14) (size 15 to 20)
#    0.000    2.333    0.000    2.000    0.000    5.333 
#    0.000    5.000    0.000    0.000    0.000    0.000 
#    0.000    0.000    0.000    0.000    0.000    0.000 
#
# Total GULP energy -595248.065627 kJ/mol
# GULP energy per Si atom -12401.001367 kJ/mol
# Density = 1.988525 g / cm^3
# Si number density = 19.930613 Si / 1000 Ang^3
#
#
#
# Elastic Constant Matrix: (Units=GPa)
#
#
# Indices 1 2 3 4 5 6 
#
# 1 95.7476 34.2134 34.1854 0.0000 0.0000 0.0000
# 2 34.2134 41.5215 17.7591 0.0000 0.0000 0.0000
# 3 34.1854 17.7591 93.3326 0.0000 0.0000 0.0000
# 4 0.0000 0.0000 0.0000 23.2470 0.0000 0.0000
# 5 0.0000 0.0000 0.0000 0.0000 24.8178 0.0000
# 6 0.0000 0.0000 0.0000 0.0000 0.0000 34.3261
#
#
#
# Elastic Compliance Matrix: (Units=1/GPa)
#
#
# Indices 1 2 3 4 5 6 
#
# 1 0.015849 -0.011513 -0.003614 0.000000 0.000000 0.000000
# 2 -0.011513 0.034581 -0.002363 0.000000 0.000000 0.000000
# 3 -0.003614 -0.002363 0.012488 0.000000 0.000000 0.000000
# 4 0.000000 0.000000 0.000000 0.043016 0.000000 0.000000
# 5 0.000000 0.000000 0.000000 0.000000 0.040294 0.000000
# 6 0.000000 0.000000 0.000000 0.000000 0.000000 0.029132
#
#
# Mechanical properties :
#
#
# Convention : Reuss Voigt Hill
#
# Bulk Modulus (GPa) = 35.79516 44.76862 40.28189
# Shear Modulus (GPa) = 22.76312 26.10775 24.43544
#
# Velocity S-wave (km/s) = 3.38319 3.62322 3.50526
# Velocity P-wave (km/s) = 5.76716 6.32572 6.05289
#
# Compressibility (1/GPa) = 0.02793674
#
# Stress axis : x y z
#
# Youngs Moduli (GPa) = 63.09727 28.91725 80.07813
#
# Poissons Ratio (x) = 0.33293 0.28942
# Poissons Ratio (y) = 0.72645 0.18923
# Poissons Ratio (z) = 0.22805 0.06833
#
# Static dielectric constant tensor:
#      x y z
#    x 3.670030 0.000000 0.000000 
#    y 0.000000 3.368130 0.000000 
#    z 0.000000 0.000000 3.843300 
# 
# 
# High freq. dielectric constant tensor:
#      x y z
#    x 1.775330 0.000000 0.000000 
#    y 0.000000 1.763990 0.000000 
#    z 0.000000 0.000000 1.786390 
# 
# From -- ./inp_files/59902.got.cif
#   From: 2010.03.12/outbox.cif.g09.slc.cpg/sg63_30_cif.got.tgz:59902.got - 2010.04.10 19:34:48.
