data_PCOD8258566
_publ_section_title
;
Structure prediction by ZEFSAII (Michael W. Deem and Ramdas Pophale) SiO2 
 PCOD8258566
Probable space group: C M C M
;
_chemical_formula_sum "Si O2"
_cell_formula_units_Z 96
_cell_length_a 18.305146
_cell_length_b 29.459331
_cell_length_c 9.297814
_cell_angle_alpha 90.000000
_cell_angle_beta 90.000000
_cell_angle_gamma 90.000000
_cell_volume 5013.914585
_symmetry_space_group_name_H-M "C M C M"
_symmetry_group_IT_number 63
_symmetry_cell_setting 'orthorhombic'
loop_
_space_group_symop_operation_xyz
x,y,z
-x,-y,1/2+z
x,-y,-z
-x,y,1/2-z
-x,-y,-z
x,y,1/2-z
-x,y,z
x,-y,1/2+z
1/2+x,1/2+y,z
1/2-x,1/2-y,1/2+z
1/2+x,1/2-y,-z
1/2-x,1/2+y,1/2-z
1/2-x,1/2-y,-z
1/2+x,1/2+y,1/2-z
1/2-x,1/2+y,z
1/2+x,1/2-y,1/2+z
loop_
_atom_site_type_symbol
_atom_site_label
_atom_site_fract_x
_atom_site_fract_y
_atom_site_fract_z
Si Si1 0.266985 0.795372 0.917286
Si Si2 0.206401 0.462329 0.590546
Si Si3 0.419503 0.162778 0.412510
Si Si4 0.081655 0.427086 0.411851
Si Si5 0.914274 0.046325 0.583206
Si Si6 0.817316 0.115539 0.412505
O O1 0.252789 0.787764 0.750000
O O2 0.352705 0.803869 0.947980
O O3 0.211566 0.835654 0.969783
O O4 0.250000 0.750000 0.000000
O O5 0.253116 0.500000 0.500000
O O6 0.193552 0.480939 0.750000
O O7 0.129416 0.459711 0.510085
O O8 0.244255 0.414025 0.590917
O O9 0.409368 0.143260 0.250000
O O10 0.500000 0.186930 0.424620
O O11 0.416099 0.123330 0.527214
O O12 0.112816 0.425540 0.250000
O O13 0.000000 0.446581 0.414772
O O14 0.890846 0.040847 0.750000
O O15 0.875910 0.091084 0.515747
O O16 0.000000 0.055439 0.569156
O O17 0.892785 0.000000 0.500000
O O18 0.849772 0.118931 0.250000
#
# Coordination Sequence:
#
# PCOD8258566 Si02
#       6
#    16  16  16  16  16  16
#     4  10  21  38  58  86 115 146 187 234 291 348
#     4  11  22  36  53  77 109 146 186 228 272 326
#     4   9  17  34  59  81 106 143 185 229 276 328
#     4  10  20  33  51  77 107 141 183 226 269 318
#     4  10  21  37  59  88 119 153 193 234 284 348
#     4  10  21  38  58  82 113 147 187 232 282 340
#
# _framework density 19.146716000000001
#
# number of rings (size 3 to 8) (size 9 to 14) (size 15 to 20)
#    0.000    2.000    1.667    2.000    0.000    6.333 
#    0.000    0.833    0.000    3.000    0.000    0.000 
#    0.000    0.000    0.000    0.000    0.000    0.000 
#
# Total GULP energy -594880.629020 kJ/mol
# GULP energy per Si atom -12393.346438 kJ/mol
# Density = 1.910314 g / cm^3
# Si number density = 19.146716 Si / 1000 Ang^3
#
#
#
# Elastic Constant Matrix: (Units=GPa)
#
#
# Indices 1 2 3 4 5 6 
#
# 1 91.7681 45.0188 52.2547 0.0000 0.0000 0.0000
# 2 45.0188 123.7089 55.4578 0.0000 0.0000 0.0000
# 3 52.2547 55.4578 127.3148 0.0000 0.0000 0.0000
# 4 0.0000 0.0000 0.0000 35.8252 0.0000 0.0000
# 5 0.0000 0.0000 0.0000 0.0000 27.7544 0.0000
# 6 0.0000 0.0000 0.0000 0.0000 0.0000 21.9673
#
#
#
# Elastic Compliance Matrix: (Units=1/GPa)
#
#
# Indices 1 2 3 4 5 6 
#
# 1 0.015303 -0.003421 -0.004791 0.000000 0.000000 0.000000
# 2 -0.003421 0.010810 -0.003304 0.000000 0.000000 0.000000
# 3 -0.004791 -0.003304 0.011260 0.000000 0.000000 0.000000
# 4 0.000000 0.000000 0.000000 0.027913 0.000000 0.000000
# 5 0.000000 0.000000 0.000000 0.000000 0.036030 0.000000
# 6 0.000000 0.000000 0.000000 0.000000 0.000000 0.045522
#
#
# Mechanical properties :
#
#
# Convention : Reuss Voigt Hill
#
# Bulk Modulus (GPa) = 69.73326 72.02827 70.88077
# Shear Modulus (GPa) = 28.62822 29.78010 29.20416
#
# Velocity S-wave (km/s) = 3.87098 3.94809 3.90972
# Velocity P-wave (km/s) = 7.51524 7.64748 7.58165
#
# Compressibility (1/GPa) = 0.01434036
#
# Stress axis : x y z
#
# Youngs Moduli (GPa) = 65.34481 92.50732 88.80783
#
# Poissons Ratio (x) = 0.31651 0.42546
# Poissons Ratio (y) = 0.22357 0.29346
# Poissons Ratio (z) = 0.31305 0.30569
#
# Static dielectric constant tensor:
#      x y z
#    x 3.669280 0.000000 0.000000 
#    y 0.000000 3.324420 0.000000 
#    z 0.000000 0.000000 3.566690 
# 
# 
# High freq. dielectric constant tensor:
#      x y z
#    x 1.748550 0.000000 0.000000 
#    y 0.000000 1.721600 0.000000 
#    z 0.000000 0.000000 1.752320 
# 
# From -- ./inp_files/8630.got.cif
#   From: 2010.03.12/outbox.cif.g09.slc.cpg/sg63_5_cif.got.tgz:8630.got - 2010.04.10 19:34:48.
