data_PCOD8258797
_publ_section_title
;
Structure prediction by ZEFSAII (Michael W. Deem and Ramdas Pophale) SiO2 
 PCOD8258797
Probable space group: C M C M
;
_chemical_formula_sum "Si O2"
_cell_formula_units_Z 96
_cell_length_a 9.185693
_cell_length_b 32.061767
_cell_length_c 18.337245
_cell_angle_alpha 90.000000
_cell_angle_beta 90.000000
_cell_angle_gamma 90.000000
_cell_volume 5400.493749
_symmetry_space_group_name_H-M "C M C M"
_symmetry_group_IT_number 63
_symmetry_cell_setting 'orthorhombic'
loop_
_space_group_symop_operation_xyz
x,y,z
-x,-y,1/2+z
x,-y,-z
-x,y,1/2-z
-x,-y,-z
x,y,1/2-z
-x,y,z
x,-y,1/2+z
1/2+x,1/2+y,z
1/2-x,1/2-y,1/2+z
1/2+x,1/2-y,-z
1/2-x,1/2+y,1/2-z
1/2-x,1/2-y,-z
1/2+x,1/2+y,1/2-z
1/2-x,1/2+y,z
1/2+x,1/2-y,1/2+z
loop_
_atom_site_type_symbol
_atom_site_label
_atom_site_fract_x
_atom_site_fract_y
_atom_site_fract_z
Si Si1 0.170122 0.080942 0.167349
Si Si2 0.169731 0.831633 0.334564
Si Si3 0.670422 0.873977 0.043279
Si Si4 0.167147 0.248571 0.334204
Si Si5 0.169959 0.541878 0.038322
Si Si6 0.330501 0.664582 0.085646
O O1 0.226113 0.075044 0.250000
O O2 0.250455 0.047846 0.115515
O O3 0.206359 0.128071 0.143034
O O4 0.000000 0.071819 0.161744
O O5 0.201659 0.840258 0.250000
O O6 0.251334 0.867880 0.379090
O O7 0.232352 0.786845 0.358681
O O8 0.000000 0.832468 0.352696
O O9 0.500000 0.866064 0.051791
O O10 0.706265 0.920431 0.016336
O O11 0.735284 0.840529 0.986777
O O12 0.191014 0.237451 0.250000
O O13 0.215451 0.208290 0.379450
O O14 0.000000 0.260679 0.349630
O O15 0.000000 0.538912 0.055515
O O16 0.227939 0.500000 0.000000
O O17 0.500000 0.663533 0.064340
#
# Coordination Sequence:
#
# PCOD8258797 Si02
#       6
#    16  16  16  16  16  16
#     4   9  17  30  50  77 106 133 162 197 240 292
#     4  10  21  36  52  70  95 128 165 206 248 286
#     4  10  20  34  53  74  95 124 162 201 243 292
#     4   9  17  30  49  72  98 131 169 204 239 281
#     4   9  19  36  55  75 100 129 162 201 245 293
#     4   9  17  30  49  73 102 133 162 197 241 287
#
# _framework density 17.776153000000001
#
# number of rings (size 3 to 8) (size 9 to 14) (size 15 to 20)
#    0.000    2.667    0.000    1.500    0.000    5.667 
#    0.000    0.833    0.000    8.000    0.000    0.000 
#    0.000    0.000    0.000    0.000    0.000    0.000 
#
# Total GULP energy -595324.189183 kJ/mol
# GULP energy per Si atom -12402.587275 kJ/mol
# Density = 1.773569 g / cm^3
# Si number density = 17.776153 Si / 1000 Ang^3
#
#
#
# Elastic Constant Matrix: (Units=GPa)
#
#
# Indices 1 2 3 4 5 6 
#
# 1 76.5225 45.9431 61.0391 0.0000 0.0000 0.0000
# 2 45.9431 87.4766 66.6762 0.0000 0.0000 0.0000
# 3 61.0391 66.6762 121.6460 0.0000 0.0000 0.0000
# 4 0.0000 0.0000 0.0000 28.1422 0.0000 0.0000
# 5 0.0000 0.0000 0.0000 0.0000 31.2458 0.0000
# 6 0.0000 0.0000 0.0000 0.0000 0.0000 25.5332
#
#
#
# Elastic Compliance Matrix: (Units=1/GPa)
#
#
# Indices 1 2 3 4 5 6 
#
# 1 0.023346 -0.005724 -0.008577 0.000000 0.000000 0.000000
# 2 -0.005724 0.021038 -0.008659 0.000000 0.000000 0.000000
# 3 -0.008577 -0.008659 0.017271 0.000000 0.000000 0.000000
# 4 0.000000 0.000000 0.000000 0.035534 0.000000 0.000000
# 5 0.000000 0.000000 0.000000 0.000000 0.032004 0.000000
# 6 0.000000 0.000000 0.000000 0.000000 0.000000 0.039165
#
#
# Mechanical properties :
#
#
# Convention : Reuss Voigt Hill
#
# Bulk Modulus (GPa) = 63.55509 70.32912 66.94211
# Shear Modulus (GPa) = 22.77662 24.45003 23.61333
#
# Velocity S-wave (km/s) = 3.58341 3.71272 3.64864
# Velocity P-wave (km/s) = 7.27679 7.61765 7.44917
#
# Compressibility (1/GPa) = 0.01573438
#
# Stress axis : x y z
#
# Youngs Moduli (GPa) = 42.83321 47.53300 57.90146
#
# Poissons Ratio (x) = 0.27207 0.49664
# Poissons Ratio (y) = 0.24517 0.50138
# Poissons Ratio (z) = 0.36739 0.41160
#
# Static dielectric constant tensor:
#      x y z
#    x 3.264480 0.000000 0.000000 
#    y 0.000000 3.223880 0.000000 
#    z 0.000000 0.000000 3.353240 
# 
# 
# High freq. dielectric constant tensor:
#      x y z
#    x 1.687360 0.000000 0.000000 
#    y 0.000000 1.674860 0.000000 
#    z 0.000000 0.000000 1.689650 
# 
# From -- ./inp_files/51362.got.cif
#   From: 2010.03.12/outbox.cif.g09.slc.cpg/sg63_26_cif.got.tgz:51362.got - 2010.04.10 19:34:48.
