data_PCOD8258250
_publ_section_title
;
Structure prediction by ZEFSAII (Michael W. Deem and Ramdas Pophale) SiO2 
 PCOD8258250
Probable space group: C M C M
;
_chemical_formula_sum "Si O2"
_cell_formula_units_Z 96
_cell_length_a 14.781445
_cell_length_b 22.119384
_cell_length_c 13.988942
_cell_angle_alpha 90.000000
_cell_angle_beta 90.000000
_cell_angle_gamma 90.000000
_cell_volume 4573.774928
_symmetry_space_group_name_H-M "C M C M"
_symmetry_group_IT_number 63
_symmetry_cell_setting 'orthorhombic'
loop_
_space_group_symop_operation_xyz
x,y,z
-x,-y,1/2+z
x,-y,-z
-x,y,1/2-z
-x,-y,-z
x,y,1/2-z
-x,y,z
x,-y,1/2+z
1/2+x,1/2+y,z
1/2-x,1/2-y,1/2+z
1/2+x,1/2-y,-z
1/2-x,1/2+y,1/2-z
1/2-x,1/2-y,-z
1/2+x,1/2+y,1/2-z
1/2-x,1/2+y,z
1/2+x,1/2-y,1/2+z
loop_
_atom_site_type_symbol
_atom_site_label
_atom_site_fract_x
_atom_site_fract_y
_atom_site_fract_z
Si Si1 0.103597 0.573720 0.750000
Si Si2 0.152332 0.760879 0.955493
Si Si3 0.843002 0.704055 0.750000
Si Si4 0.899830 0.124803 0.938891
Si Si5 0.901574 0.646002 0.453784
Si Si6 0.853914 0.186578 0.750000
Si Si7 0.104604 0.680042 0.250000
Si Si8 0.281915 0.942084 0.434724
O O1 0.089161 0.646826 0.750000
O O2 0.161584 0.547667 0.838535
O O3 0.000000 0.547570 0.750000
O O4 0.146410 0.746723 0.842514
O O5 0.250000 0.750000 0.000000
O O6 0.122678 0.830340 0.972602
O O7 0.087072 0.715566 0.013338
O O8 0.749952 0.664746 0.750000
O O9 0.905667 0.164452 0.843159
O O10 0.825368 0.071884 0.923867
O O11 0.000000 0.096080 0.955708
O O12 0.871219 0.640975 0.343231
O O13 0.823986 0.616524 0.515946
O O14 0.000000 0.614632 0.467922
O O15 0.839241 0.258560 0.750000
O O16 0.000000 0.699106 0.250000
O O17 0.295544 0.000000 0.500000
#
# Coordination Sequence:
#
# PCOD8258250 Si02
#       8
#     8  16   8  16  16   8   8  16
#     4  12  24  44  71  98 129 167 214 272 338 407
#     4  12  20  37  62  97 137 169 206 264 333 403
#     4  12  22  36  65  98 135 170 211 253 328 405
#     4  12  24  41  67  99 134 174 224 274 329 389
#     4  11  21  37  61  94 133 169 207 264 332 395
#     4  12  18  35  66 101 129 163 212 265 327 393
#     4  10  20  31  57 101 137 166 208 260 324 399
#     4  12  27  47  66  91 128 174 231 276 327 382
#
# _framework density 20.989225999999999
#
# number of rings (size 3 to 8) (size 9 to 14) (size 15 to 20)
#    0.000    0.333    8.333    1.750    0.000    3.000 
#    0.000    1.667    0.000    0.000    0.000    0.000 
#    0.000    0.000    0.000    0.000    0.000    0.000 
#
# Total GULP energy -595061.629864 kJ/mol
# GULP energy per Si atom -12397.117289 kJ/mol
# Density = 2.094145 g / cm^3
# Si number density = 20.989226 Si / 1000 Ang^3
#
#
#
# Elastic Constant Matrix: (Units=GPa)
#
#
# Indices 1 2 3 4 5 6 
#
# 1 144.9058 25.6652 41.1184 0.0000 0.0000 0.0000
# 2 25.6652 53.1594 25.9652 0.0000 0.0000 0.0000
# 3 41.1184 25.9652 157.4431 0.0000 0.0000 0.0000
# 4 0.0000 0.0000 0.0000 24.8293 0.0000 0.0000
# 5 0.0000 0.0000 0.0000 0.0000 16.2627 0.0000
# 6 0.0000 0.0000 0.0000 0.0000 0.0000 12.1148
#
#
#
# Elastic Compliance Matrix: (Units=1/GPa)
#
#
# Indices 1 2 3 4 5 6 
#
# 1 0.007882 -0.003045 -0.001556 0.000000 0.000000 0.000000
# 2 -0.003045 0.021636 -0.002773 0.000000 0.000000 0.000000
# 3 -0.001556 -0.002773 0.007215 0.000000 0.000000 0.000000
# 4 0.000000 0.000000 0.000000 0.040275 0.000000 0.000000
# 5 0.000000 0.000000 0.000000 0.000000 0.061491 0.000000
# 6 0.000000 0.000000 0.000000 0.000000 0.000000 0.082544
#
#
# Mechanical properties :
#
#
# Convention : Reuss Voigt Hill
#
# Bulk Modulus (GPa) = 45.48672 60.11177 52.79925
# Shear Modulus (GPa) = 20.56603 28.15865 24.36234
#
# Velocity S-wave (km/s) = 3.13363 3.66673 3.41061
# Velocity P-wave (km/s) = 5.90012 6.82847 6.38120
#
# Compressibility (1/GPa) = 0.02198444
#
# Stress axis : x y z
#
# Youngs Moduli (GPa) = 126.87113 46.21932 138.59561
#
# Poissons Ratio (x) = 0.14075 0.21569
# Poissons Ratio (y) = 0.38636 0.38430
# Poissons Ratio (z) = 0.19745 0.12816
#
# Static dielectric constant tensor:
#      x y z
#    x 3.948130 0.000000 0.000000 
#    y 0.000000 3.336530 0.000000 
#    z 0.000000 0.000000 4.096820 
# 
# 
# High freq. dielectric constant tensor:
#      x y z
#    x 1.835130 0.000000 0.000000 
#    y 0.000000 1.773250 0.000000 
#    z 0.000000 0.000000 1.833090 
# 
# From -- ./inp_files/32004.got.cif
#   From: 2010.03.12/outbox.cif.g09.slc.cpg/sg63_17_cif.got.tgz:32004.got - 2010.04.10 19:34:48.
