data_PCOD8258586
_publ_section_title
;
Structure prediction by ZEFSAII (Michael W. Deem and Ramdas Pophale) SiO2 
 PCOD8258586
Probable space group: C M C M
;
_chemical_formula_sum "Si O2"
_cell_formula_units_Z 112
_cell_length_a 15.081151
_cell_length_b 26.954908
_cell_length_c 15.069708
_cell_angle_alpha 90.000000
_cell_angle_beta 90.000000
_cell_angle_gamma 90.000000
_cell_volume 6126.002638
_symmetry_space_group_name_H-M "C M C M"
_symmetry_group_IT_number 63
_symmetry_cell_setting 'orthorhombic'
loop_
_space_group_symop_operation_xyz
x,y,z
-x,-y,1/2+z
x,-y,-z
-x,y,1/2-z
-x,-y,-z
x,y,1/2-z
-x,y,z
x,-y,1/2+z
1/2+x,1/2+y,z
1/2-x,1/2-y,1/2+z
1/2+x,1/2-y,-z
1/2-x,1/2+y,1/2-z
1/2-x,1/2-y,-z
1/2+x,1/2+y,1/2-z
1/2-x,1/2+y,z
1/2+x,1/2-y,1/2+z
loop_
_atom_site_type_symbol
_atom_site_label
_atom_site_fract_x
_atom_site_fract_y
_atom_site_fract_z
Si Si1 0.397510 0.056267 0.991510
Si Si2 0.319926 0.692208 0.848898
Si Si3 0.399047 0.551751 0.548051
Si Si4 0.901431 0.842332 0.978311
Si Si5 0.254188 0.702432 0.148121
Si Si6 0.899166 0.372404 0.649410
Si Si7 0.738756 0.912148 0.152138
O O1 0.500000 0.061078 0.965396
O O2 0.342174 0.080247 0.913387
O O3 0.376034 0.082112 0.085066
O O4 0.366910 0.000000 0.000000
O O5 0.363068 0.698944 0.750000
O O6 0.262681 0.740319 0.874849
O O7 0.252499 0.646623 0.848135
O O8 0.394106 0.681362 0.923011
O O9 0.378885 0.500000 0.500000
O O10 0.500000 0.552327 0.585729
O O11 0.385364 0.598162 0.480901
O O12 0.328563 0.558142 0.626914
O O13 0.832682 0.817935 0.911859
O O14 0.000000 0.830935 0.943302
O O15 0.282670 0.695100 0.250000
O O16 0.163345 0.673729 0.126635
O O17 0.884453 0.391356 0.750000
O O18 0.000000 0.354062 0.635127
O O19 0.711892 0.930743 0.250000
#
# Coordination Sequence:
#
# PCOD8258586 Si02
#       7
#    16  16  16  16  16  16  16
#     4  10  21  36  53  74 103 136 168 209 258 303
#     4   9  19  35  53  74 101 133 169 212 258 296
#     4   9  18  34  54  75 103 136 169 210 256 299
#     4  10  20  33  52  77 104 137 172 205 246 299
#     4  10  20  35  54  75 105 138 166 206 255 302
#     4   9  18  33  54  78 100 127 168 214 258 303
#     4  10  20  34  53  76 103 135 172 210 248 300
#
# _framework density 18.282722
#
# number of rings (size 3 to 8) (size 9 to 14) (size 15 to 20)
#    0.000    2.429    0.000    2.571    0.000    2.286 
#    0.000   10.000    0.000    5.143    0.000    0.000 
#    0.000    0.000    0.000    0.000    0.000    0.000 
#
# Total GULP energy -694300.922181 kJ/mol
# GULP energy per Si atom -12398.230753 kJ/mol
# Density = 1.824111 g / cm^3
# Si number density = 18.282722 Si / 1000 Ang^3
#
#
#
# Elastic Constant Matrix: (Units=GPa)
#
#
# Indices 1 2 3 4 5 6 
#
# 1 95.0944 54.1938 63.9877 0.0000 0.0000 0.0000
# 2 54.1938 127.8605 61.6886 0.0000 0.0000 0.0000
# 3 63.9877 61.6886 109.1576 0.0000 0.0000 0.0000
# 4 0.0000 0.0000 0.0000 22.0815 0.0000 0.0000
# 5 0.0000 0.0000 0.0000 0.0000 21.4662 0.0000
# 6 0.0000 0.0000 0.0000 0.0000 0.0000 17.8087
#
#
#
# Elastic Compliance Matrix: (Units=1/GPa)
#
#
# Indices 1 2 3 4 5 6 
#
# 1 0.018488 -0.003585 -0.008812 0.000000 0.000000 0.000000
# 2 -0.003585 0.011448 -0.004368 0.000000 0.000000 0.000000
# 3 -0.008812 -0.004368 0.016795 0.000000 0.000000 0.000000
# 4 0.000000 0.000000 0.000000 0.045287 0.000000 0.000000
# 5 0.000000 0.000000 0.000000 0.000000 0.046585 0.000000
# 6 0.000000 0.000000 0.000000 0.000000 0.000000 0.056152
#
#
# Mechanical properties :
#
#
# Convention : Reuss Voigt Hill
#
# Bulk Modulus (GPa) = 75.74833 76.87251 76.31042
# Shear Modulus (GPa) = 21.48826 22.42079 21.95452
#
# Velocity S-wave (km/s) = 3.43203 3.50571 3.46907
# Velocity P-wave (km/s) = 7.56483 7.65013 7.60760
#
# Compressibility (1/GPa) = 0.01320161
#
# Stress axis : x y z
#
# Youngs Moduli (GPa) = 54.08873 87.35159 59.54120
#
# Poissons Ratio (x) = 0.31314 0.52466
# Poissons Ratio (y) = 0.19390 0.26009
# Poissons Ratio (z) = 0.47662 0.38157
#
# Static dielectric constant tensor:
#      x y z
#    x 3.300690 0.000000 0.000000 
#    y 0.000000 3.492030 0.000000 
#    z 0.000000 0.000000 3.449520 
# 
# 
# High freq. dielectric constant tensor:
#      x y z
#    x 1.704330 0.000000 0.000000 
#    y 0.000000 1.715180 0.000000 
#    z 0.000000 0.000000 1.704690 
# 
# From -- ./inp_files/32501.got.cif
#   From: 2010.03.12/outbox.cif.g09.slc.cpg/sg63_17_cif.got.tgz:32501.got - 2010.04.10 19:34:48.
