data_PCOD8258130
_publ_section_title
;
Structure prediction by ZEFSAII (Michael W. Deem and Ramdas Pophale) SiO2 
 PCOD8258130
Probable space group: C M C M
;
_chemical_formula_sum "Si O2"
_cell_formula_units_Z 80
_cell_length_a 25.762840
_cell_length_b 9.193742
_cell_length_c 16.134403
_cell_angle_alpha 90.000000
_cell_angle_beta 90.000000
_cell_angle_gamma 90.000000
_cell_volume 3821.544745
_symmetry_space_group_name_H-M "C M C M"
_symmetry_group_IT_number 63
_symmetry_cell_setting 'orthorhombic'
loop_
_space_group_symop_operation_xyz
x,y,z
-x,-y,1/2+z
x,-y,-z
-x,y,1/2-z
-x,-y,-z
x,y,1/2-z
-x,y,z
x,-y,1/2+z
1/2+x,1/2+y,z
1/2-x,1/2-y,1/2+z
1/2+x,1/2-y,-z
1/2-x,1/2+y,1/2-z
1/2-x,1/2-y,-z
1/2+x,1/2+y,1/2-z
1/2-x,1/2+y,z
1/2+x,1/2-y,1/2+z
loop_
_atom_site_type_symbol
_atom_site_label
_atom_site_fract_x
_atom_site_fract_y
_atom_site_fract_z
Si Si1 0.293615 0.872547 0.343836
Si Si2 0.902476 0.084101 0.153938
Si Si3 0.908037 0.407043 0.153583
Si Si4 0.500000 0.572033 0.590440
Si Si5 0.500000 0.110063 0.350082
Si Si6 0.707446 0.562352 0.088974
O O1 0.297847 0.811964 0.250000
O O2 0.348374 0.952326 0.366369
O O3 0.284624 0.735850 0.404759
O O4 0.247185 0.986709 0.347827
O O5 0.888604 0.096024 0.250000
O O6 0.917086 0.243742 0.118036
O O7 0.851729 0.019536 0.108998
O O8 0.949336 0.975639 0.140018
O O9 0.920087 0.402579 0.250000
O O10 0.949199 0.522061 0.117745
O O11 0.500000 0.500000 0.500000
O O12 0.500000 0.745726 0.593890
O O13 0.500000 0.140825 0.250000
O O14 0.722729 0.500000 0.000000
#
# Coordination Sequence:
#
# PCOD8258130 Si02
#       6
#    16  16  16   8   8  16
#     4  10  20  37  59  87 120 161 205 244 292 362
#     4  10  20  39  62  82 109 155 199 237 293 364
#     4   8  17  34  59  84 110 145 195 244 282 334
#     4  12  25  38  54  84 122 152 187 242 296 348
#     4  10  19  36  61  90 115 146 195 248 292 342
#     4  11  22  37  58  87 121 156 197 252 307 351
#
# _framework density 20.933941999999998
#
# number of rings (size 3 to 8) (size 9 to 14) (size 15 to 20)
#    0.000    2.000    0.000    5.700    0.000    3.200 
#    0.000   10.000    0.000    0.000    0.000    0.000 
#    0.000    0.000    0.000    0.000    0.000    0.000 
#
# Total GULP energy -495893.436782 kJ/mol
# GULP energy per Si atom -12397.335920 kJ/mol
# Density = 2.088630 g / cm^3
# Si number density = 20.933942 Si / 1000 Ang^3
#
#
#
# Elastic Constant Matrix: (Units=GPa)
#
#
# Indices 1 2 3 4 5 6 
#
# 1 165.3462 87.9027 13.4352 0.0000 0.0000 0.0000
# 2 87.9027 126.6973 28.2307 0.0000 0.0000 0.0000
# 3 13.4352 28.2307 58.5564 0.0000 0.0000 0.0000
# 4 0.0000 0.0000 0.0000 27.2665 0.0000 0.0000
# 5 0.0000 0.0000 0.0000 0.0000 18.8313 0.0000
# 6 0.0000 0.0000 0.0000 0.0000 0.0000 44.4680
#
#
#
# Elastic Compliance Matrix: (Units=1/GPa)
#
#
# Indices 1 2 3 4 5 6 
#
# 1 0.009649 -0.006948 0.001136 0.000000 0.000000 0.000000
# 2 -0.006948 0.013845 -0.005081 0.000000 0.000000 0.000000
# 3 0.001136 -0.005081 0.019267 0.000000 0.000000 0.000000
# 4 0.000000 0.000000 0.000000 0.036675 0.000000 0.000000
# 5 0.000000 0.000000 0.000000 0.000000 0.053103 0.000000
# 6 0.000000 0.000000 0.000000 0.000000 0.000000 0.022488
#
#
# Mechanical properties :
#
#
# Convention : Reuss Voigt Hill
#
# Bulk Modulus (GPa) = 47.67542 67.74857 57.71200
# Shear Modulus (GPa) = 27.20280 32.84859 30.02569
#
# Velocity S-wave (km/s) = 3.60871 3.96555 3.79133
# Velocity P-wave (km/s) = 6.33935 7.30758 6.84062
#
# Compressibility (1/GPa) = 0.02097517
#
# Stress axis : x y z
#
# Youngs Moduli (GPa) = 103.63535 72.22698 51.90352
#
# Poissons Ratio (x) = 0.50181 -0.05894
# Poissons Ratio (y) = 0.72002 0.26371
# Poissons Ratio (z) = -0.11769 0.36698
#
# Static dielectric constant tensor:
#      x y z
#    x 3.943120 0.000000 0.000000 
#    y 0.000000 3.720060 0.000000 
#    z 0.000000 0.000000 3.452950 
# 
# 
# High freq. dielectric constant tensor:
#      x y z
#    x 1.838510 0.000000 0.000000 
#    y 0.000000 1.810420 0.000000 
#    z 0.000000 0.000000 1.796020 
# 
# From -- ./inp_files/48867.got.cif
#   From: 2010.03.12/outbox.cif.g09.slc.cpg/sg63_25_cif.got.tgz:48867.got - 2010.04.10 19:34:48.
