data_PCOD8258243
_publ_section_title
;
Structure prediction by ZEFSAII (Michael W. Deem and Ramdas Pophale) SiO2 
 PCOD8258243
Probable space group: C M C M
;
_chemical_formula_sum "Si O2"
_cell_formula_units_Z 80
_cell_length_a 9.543329
_cell_length_b 27.840141
_cell_length_c 16.232180
_cell_angle_alpha 90.000000
_cell_angle_beta 90.000000
_cell_angle_gamma 90.000000
_cell_volume 4312.689352
_symmetry_space_group_name_H-M "C M C M"
_symmetry_group_IT_number 63
_symmetry_cell_setting 'orthorhombic'
loop_
_space_group_symop_operation_xyz
x,y,z
-x,-y,1/2+z
x,-y,-z
-x,y,1/2-z
-x,-y,-z
x,y,1/2-z
-x,y,z
x,-y,1/2+z
1/2+x,1/2+y,z
1/2-x,1/2-y,1/2+z
1/2+x,1/2-y,-z
1/2-x,1/2+y,1/2-z
1/2-x,1/2-y,-z
1/2+x,1/2+y,1/2-z
1/2-x,1/2+y,z
1/2+x,1/2-y,1/2+z
loop_
_atom_site_type_symbol
_atom_site_label
_atom_site_fract_x
_atom_site_fract_y
_atom_site_fract_z
Si Si1 0.332663 0.874135 0.750000
Si Si2 0.666361 0.971359 0.079803
Si Si3 0.833671 0.314348 0.597125
Si Si4 0.834361 0.361387 0.071796
Si Si5 0.157907 0.213358 0.844667
Si Si6 0.332994 0.017265 0.250000
O O1 0.500000 0.874249 0.750000
O O2 0.271895 0.847270 0.669950
O O3 0.276724 0.928475 0.750000
O O4 0.500000 0.975584 0.079159
O O5 0.714860 0.916358 0.072654
O O6 0.724844 0.992022 0.166571
O O7 0.726293 0.000000 0.000000
O O8 0.781322 0.337017 0.512237
O O9 0.782007 0.259265 0.604920
O O10 0.000000 0.315188 0.603217
O O11 0.757192 0.332699 0.144283
O O12 0.000000 0.357103 0.084643
O O13 0.158336 0.228903 0.750000
O O14 0.000000 0.200430 0.873150
O O15 0.500000 0.015037 0.250000
#
# Coordination Sequence:
#
# PCOD8258243 Si02
#       6
#     8  16  16  16  16   8
#     4   9  14  24  45  68  93 127 169 203 234 283
#     4   9  17  29  43  67 101 130 157 194 243 294
#     4   9  16  29  47  70  95 127 166 204 241 283
#     4  10  20  31  50  75 102 129 159 202 250 295
#     4  10  20  34  50  69  97 131 168 204 239 289
#     4   9  16  24  39  62  93 129 157 191 242 289
#
# _framework density 18.549909
#
# number of rings (size 3 to 8) (size 9 to 14) (size 15 to 20)
#    0.000    2.600    1.000    1.800    1.400    5.200 
#    0.000    0.000    0.000    0.600    0.000    0.000 
#    0.000    1.600    0.000    0.000    0.000    0.000 
#
# Total GULP energy -495909.178804 kJ/mol
# GULP energy per Si atom -12397.729470 kJ/mol
# Density = 1.850769 g / cm^3
# Si number density = 18.549909 Si / 1000 Ang^3
#
#
#
# Elastic Constant Matrix: (Units=GPa)
#
#
# Indices 1 2 3 4 5 6 
#
# 1 19.0071 28.4636 14.2131 0.0000 0.0000 0.0000
# 2 28.4636 162.6603 56.1520 0.0000 0.0000 0.0000
# 3 14.2131 56.1520 104.7539 0.0000 0.0000 0.0000
# 4 0.0000 0.0000 0.0000 39.0530 0.0000 0.0000
# 5 0.0000 0.0000 0.0000 0.0000 14.1407 0.0000
# 6 0.0000 0.0000 0.0000 0.0000 0.0000 16.9688
#
#
#
# Elastic Compliance Matrix: (Units=1/GPa)
#
#
# Indices 1 2 3 4 5 6 
#
# 1 0.072459 -0.011394 -0.003724 0.000000 0.000000 0.000000
# 2 -0.011394 0.009335 -0.003458 0.000000 0.000000 0.000000
# 3 -0.003724 -0.003458 0.011905 0.000000 0.000000 0.000000
# 4 0.000000 0.000000 0.000000 0.025606 0.000000 0.000000
# 5 0.000000 0.000000 0.000000 0.000000 0.070718 0.000000
# 6 0.000000 0.000000 0.000000 0.000000 0.000000 0.058932
#
#
# Mechanical properties :
#
#
# Convention : Reuss Voigt Hill
#
# Bulk Modulus (GPa) = 17.68413 53.78655 35.73534
# Shear Modulus (GPa) = 16.39577 26.53866 21.46722
#
# Velocity S-wave (km/s) = 2.97623 3.78651 3.40555
# Velocity P-wave (km/s) = 4.62218 6.94085 5.89661
#
# Compressibility (1/GPa) = 0.05654789
#
# Stress axis : x y z
#
# Youngs Moduli (GPa) = 13.80087 107.11910 83.99737
#
# Poissons Ratio (x) = 1.22052 0.31278
# Poissons Ratio (y) = 0.15725 0.29048
# Poissons Ratio (z) = 0.05139 0.37044
#
# Static dielectric constant tensor:
#      x y z
#    x 2.673070 0.000000 0.000000 
#    y 0.000000 3.551290 0.000000 
#    z 0.000000 0.000000 3.598230 
# 
# 
# High freq. dielectric constant tensor:
#      x y z
#    x 1.637690 0.000000 0.000000 
#    y 0.000000 1.736730 0.000000 
#    z 0.000000 0.000000 1.733920 
# 
# From -- ./inp_files/29760.got.cif
#   From: 2010.03.12/outbox.cif.g09.slc.cpg/sg63_15_cif.got.tgz:29760.got - 2010.04.10 19:34:48.
