data_PCOD8258347
_publ_section_title
;
Structure prediction by ZEFSAII (Michael W. Deem and Ramdas Pophale) SiO2 
 PCOD8258347
Probable space group: C M C M
;
_chemical_formula_sum "Si O2"
_cell_formula_units_Z 80
_cell_length_a 12.584673
_cell_length_b 13.180337
_cell_length_c 23.513165
_cell_angle_alpha 90.000000
_cell_angle_beta 90.000000
_cell_angle_gamma 90.000000
_cell_volume 3900.134114
_symmetry_space_group_name_H-M "C M C M"
_symmetry_group_IT_number 63
_symmetry_cell_setting 'orthorhombic'
loop_
_space_group_symop_operation_xyz
x,y,z
-x,-y,1/2+z
x,-y,-z
-x,y,1/2-z
-x,-y,-z
x,y,1/2-z
-x,y,z
x,-y,1/2+z
1/2+x,1/2+y,z
1/2-x,1/2-y,1/2+z
1/2+x,1/2-y,-z
1/2-x,1/2+y,1/2-z
1/2-x,1/2-y,-z
1/2+x,1/2+y,1/2-z
1/2-x,1/2+y,z
1/2+x,1/2-y,1/2+z
loop_
_atom_site_type_symbol
_atom_site_label
_atom_site_fract_x
_atom_site_fract_y
_atom_site_fract_z
Si Si1 0.124844 0.183273 0.520127
Si Si2 0.876093 0.689296 0.684094
Si Si3 0.879156 0.132452 0.393962
Si Si4 0.265669 0.450792 0.114439
Si Si5 0.382395 0.912689 0.546402
O O1 0.163042 0.138854 0.459377
O O2 0.199869 0.130112 0.567065
O O3 0.149327 0.303477 0.519926
O O4 0.000000 0.159994 0.532016
O O5 0.859077 0.712561 0.750000
O O6 0.830229 0.784267 0.648642
O O7 0.799784 0.596806 0.666034
O O8 0.000000 0.663078 0.671322
O O9 0.000000 0.163870 0.397557
O O10 0.868186 0.018042 0.367574
O O11 0.196565 0.549382 0.094808
O O12 0.500000 0.902051 0.573154
O O13 0.382990 0.000000 0.500000
#
# Coordination Sequence:
#
# PCOD8258347 Si02
#       5
#    16  16  16  16  16
#     4  10  21  36  54  84 123 152 177 219 278 341
#     4  10  23  42  59  77 106 145 191 240 282 324
#     4  10  21  37  58  84 116 152 185 221 274 339
#     4  12  21  33  57  85 111 141 184 231 281 332
#     4  10  20  32  48  74 110 148 182 217 263 323
#
# _framework density 20.512115000000001
#
# number of rings (size 3 to 8) (size 9 to 14) (size 15 to 20)
#    0.000    1.600    0.000    5.400    0.000    8.000 
#    0.000    0.000    0.000    1.800    0.000    0.000 
#    0.000    0.000    0.000    0.000    0.000    0.000 
#
# Total GULP energy -495629.913895 kJ/mol
# GULP energy per Si atom -12390.747847 kJ/mol
# Density = 2.046543 g / cm^3
# Si number density = 20.512115 Si / 1000 Ang^3
#
#
#
# Elastic Constant Matrix: (Units=GPa)
#
#
# Indices 1 2 3 4 5 6 
#
# 1 46.6870 27.4950 31.3927 0.0000 0.0000 0.0000
# 2 27.4950 130.5616 32.0564 0.0000 0.0000 0.0000
# 3 31.3927 32.0564 86.7623 0.0000 0.0000 0.0000
# 4 0.0000 0.0000 0.0000 20.6465 0.0000 0.0000
# 5 0.0000 0.0000 0.0000 0.0000 28.7711 0.0000
# 6 0.0000 0.0000 0.0000 0.0000 0.0000 42.2014
#
#
#
# Elastic Compliance Matrix: (Units=1/GPa)
#
#
# Indices 1 2 3 4 5 6 
#
# 1 0.030121 -0.004033 -0.009408 0.000000 0.000000 0.000000
# 2 -0.004033 0.008963 -0.001852 0.000000 0.000000 0.000000
# 3 -0.009408 -0.001852 0.015614 0.000000 0.000000 0.000000
# 4 0.000000 0.000000 0.000000 0.048434 0.000000 0.000000
# 5 0.000000 0.000000 0.000000 0.000000 0.034757 0.000000
# 6 0.000000 0.000000 0.000000 0.000000 0.000000 0.023696
#
#
# Mechanical properties :
#
#
# Convention : Reuss Voigt Hill
#
# Bulk Modulus (GPa) = 41.47543 49.54435 45.50989
# Shear Modulus (GPa) = 24.97375 29.86156 27.41766
#
# Velocity S-wave (km/s) = 3.49307 3.81964 3.66000
# Velocity P-wave (km/s) = 6.04422 6.60749 6.33212
#
# Compressibility (1/GPa) = 0.02411066
#
# Stress axis : x y z
#
# Youngs Moduli (GPa) = 33.19992 111.56497 64.04392
#
# Poissons Ratio (x) = 0.44996 0.60254
# Poissons Ratio (y) = 0.13390 0.11864
# Poissons Ratio (z) = 0.31235 0.20667
#
# Static dielectric constant tensor:
#      x y z
#    x 4.278240 0.000000 0.000000 
#    y 0.000000 3.780120 0.000000 
#    z 0.000000 0.000000 3.352760 
# 
# 
# High freq. dielectric constant tensor:
#      x y z
#    x 1.828070 0.000000 0.000000 
#    y 0.000000 1.818670 0.000000 
#    z 0.000000 0.000000 1.750450 
# 
# From -- ./inp_files/62556.got.cif
#   From: 2010.03.12/outbox.cif.g09.slc.cpg/sg63_32_cif.got.tgz:62556.got - 2010.04.10 19:34:48.
