data_PCOD8258996
_publ_section_title
;
Structure prediction by ZEFSAII (Michael W. Deem and Ramdas Pophale) SiO2 
 PCOD8258996
Probable space group: C M C M
;
_chemical_formula_sum "Si O2"
_cell_formula_units_Z 80
_cell_length_a 17.119895
_cell_length_b 14.223539
_cell_length_c 16.006131
_cell_angle_alpha 90.000000
_cell_angle_beta 90.000000
_cell_angle_gamma 90.000000
_cell_volume 3897.580840
_symmetry_space_group_name_H-M "C M C M"
_symmetry_group_IT_number 63
_symmetry_cell_setting 'orthorhombic'
loop_
_space_group_symop_operation_xyz
x,y,z
-x,-y,1/2+z
x,-y,-z
-x,y,1/2-z
-x,-y,-z
x,y,1/2-z
-x,y,z
x,-y,1/2+z
1/2+x,1/2+y,z
1/2-x,1/2-y,1/2+z
1/2+x,1/2-y,-z
1/2-x,1/2+y,1/2-z
1/2-x,1/2-y,-z
1/2+x,1/2+y,1/2-z
1/2-x,1/2+y,z
1/2+x,1/2-y,1/2+z
loop_
_atom_site_type_symbol
_atom_site_label
_atom_site_fract_x
_atom_site_fract_y
_atom_site_fract_z
Si Si1 0.669510 0.283105 0.345765
Si Si2 0.666969 0.224871 0.570903
Si Si3 0.586911 0.074046 0.843748
Si Si4 0.592297 0.394159 0.481915
Si Si5 0.407026 0.882084 0.919622
O O1 0.692890 0.308595 0.250000
O O2 0.740817 0.265489 0.411599
O O3 0.620157 0.367476 0.388122
O O4 0.617479 0.188699 0.344726
O O5 0.634428 0.172051 0.653043
O O6 0.630522 0.326948 0.552550
O O7 0.640852 0.150259 0.500570
O O8 0.587890 0.036166 0.750000
O O9 0.500000 0.096850 0.874779
O O10 0.620071 0.987925 0.899238
O O11 0.619153 0.500000 0.500000
O O12 0.500000 0.382274 0.487880
O O13 0.500000 0.875462 0.933670
#
# Coordination Sequence:
#
# PCOD8258996 Si02
#       5
#    16  16  16  16  16
#     4  11  23  38  58  86 118 150 187 237 294 346
#     4  11  21  36  56  83 116 151 187 230 288 348
#     4  10  20  34  55  85 117 147 182 228 284 342
#     4  10  22  41  64  86 111 153 206 248 282 331
#     4  10  20  36  60  84 109 146 191 236 281 337
#
# _framework density 20.525552999999999
#
# number of rings (size 3 to 8) (size 9 to 14) (size 15 to 20)
#    0.000    1.600    0.000    7.800    0.000    7.200 
#    0.000    4.000    0.000    2.400    0.000    0.000 
#    0.000    0.000    0.000    0.000    0.000    0.000 
#
# Total GULP energy -495665.923637 kJ/mol
# GULP energy per Si atom -12391.648091 kJ/mol
# Density = 2.047884 g / cm^3
# Si number density = 20.525553 Si / 1000 Ang^3
#
#
#
# Elastic Constant Matrix: (Units=GPa)
#
#
# Indices 1 2 3 4 5 6 
#
# 1 93.7757 52.1294 32.9641 0.0000 0.0000 0.0000
# 2 52.1294 162.3296 41.6752 0.0000 0.0000 0.0000
# 3 32.9641 41.6752 87.2220 0.0000 0.0000 0.0000
# 4 0.0000 0.0000 0.0000 21.2932 0.0000 0.0000
# 5 0.0000 0.0000 0.0000 0.0000 30.5290 0.0000
# 6 0.0000 0.0000 0.0000 0.0000 0.0000 15.2970
#
#
#
# Elastic Compliance Matrix: (Units=1/GPa)
#
#
# Indices 1 2 3 4 5 6 
#
# 1 0.013884 -0.003547 -0.003553 0.000000 0.000000 0.000000
# 2 -0.003547 0.007928 -0.002447 0.000000 0.000000 0.000000
# 3 -0.003553 -0.002447 0.013977 0.000000 0.000000 0.000000
# 4 0.000000 0.000000 0.000000 0.046963 0.000000 0.000000
# 5 0.000000 0.000000 0.000000 0.000000 0.032756 0.000000
# 6 0.000000 0.000000 0.000000 0.000000 0.000000 0.065372
#
#
# Mechanical properties :
#
#
# Convention : Reuss Voigt Hill
#
# Bulk Modulus (GPa) = 59.89708 66.31832 63.10770
# Shear Modulus (GPa) = 24.32630 27.86107 26.09369
#
# Velocity S-wave (km/s) = 3.44637 3.68827 3.56937
# Velocity P-wave (km/s) = 6.71429 7.10760 6.91374
#
# Compressibility (1/GPa) = 0.01669530
#
# Stress axis : x y z
#
# Youngs Moduli (GPa) = 72.02480 126.14202 71.54560
#
# Poissons Ratio (x) = 0.44737 0.25418
# Poissons Ratio (y) = 0.25544 0.17511
# Poissons Ratio (z) = 0.25588 0.30873
#
# Static dielectric constant tensor:
#      x y z
#    x 3.822800 0.000000 0.000000 
#    y 0.000000 3.967980 0.000000 
#    z 0.000000 0.000000 3.717010 
# 
# 
# High freq. dielectric constant tensor:
#      x y z
#    x 1.805440 0.000000 0.000000 
#    y 0.000000 1.804320 0.000000 
#    z 0.000000 0.000000 1.800620 
# 
# From -- ./inp_files/45441.got.cif
#   From: 2010.03.12/outbox.cif.g09.slc.cpg/sg63_23_cif.got.tgz:45441.got - 2010.04.10 19:34:48.
