data_PCOD8258879
_publ_section_title
;
Structure prediction by ZEFSAII (Michael W. Deem and Ramdas Pophale) SiO2 
 PCOD8258879
Probable space group: C M C M
;
_chemical_formula_sum "Si O2"
_cell_formula_units_Z 96
_cell_length_a 8.296996
_cell_length_b 23.657815
_cell_length_c 25.718394
_cell_angle_alpha 90.000000
_cell_angle_beta 90.000000
_cell_angle_gamma 90.000000
_cell_volume 5048.232604
_symmetry_space_group_name_H-M "C M C M"
_symmetry_group_IT_number 63
_symmetry_cell_setting 'orthorhombic'
loop_
_space_group_symop_operation_xyz
x,y,z
-x,-y,1/2+z
x,-y,-z
-x,y,1/2-z
-x,-y,-z
x,y,1/2-z
-x,y,z
x,-y,1/2+z
1/2+x,1/2+y,z
1/2-x,1/2-y,1/2+z
1/2+x,1/2-y,-z
1/2-x,1/2+y,1/2-z
1/2-x,1/2-y,-z
1/2+x,1/2+y,1/2-z
1/2-x,1/2+y,z
1/2+x,1/2-y,1/2+z
loop_
_atom_site_type_symbol
_atom_site_label
_atom_site_fract_x
_atom_site_fract_y
_atom_site_fract_z
Si Si1 0.686586 0.564330 0.495741
Si Si2 0.191250 0.564712 0.692780
Si Si3 0.808038 0.751880 0.058882
Si Si4 0.810555 0.369673 0.092875
Si Si5 0.191895 0.561965 0.307759
Si Si6 0.187222 0.633316 0.401708
O O1 0.745950 0.500000 0.500000
O O2 0.500000 0.567838 0.480403
O O3 0.714212 0.596016 0.549666
O O4 0.789639 0.593420 0.451087
O O5 0.254525 0.583905 0.750000
O O6 0.251948 0.608074 0.648831
O O7 0.255264 0.501448 0.680392
O O8 0.000000 0.563510 0.693518
O O9 0.729585 0.803740 0.089496
O O10 0.741288 0.695537 0.087391
O O11 0.000000 0.756352 0.059919
O O12 0.750000 0.750000 0.000000
O O13 0.000000 0.379930 0.085080
O O14 0.247441 0.580965 0.250000
O O15 0.267111 0.604932 0.350378
O O16 0.000000 0.562080 0.311454
O O17 0.000000 0.640535 0.391619
#
# Coordination Sequence:
#
# PCOD8258879 Si02
#       6
#    16  16  16  16  16  16
#     4  11  23  35  50  76 109 139 168 214 272 323
#     4   8  15  29  51  79 107 134 169 215 266 317
#     4  11  22  36  53  75 106 144 183 222 267 316
#     4  11  21  34  55  79 104 139 181 223 265 312
#     4   8  14  28  52  80 106 131 166 218 270 313
#     4  10  20  34  54  78 102 135 179 219 259 315
#
# _framework density 19.016555
#
# number of rings (size 3 to 8) (size 9 to 14) (size 15 to 20)
#    0.000    2.167    1.667    3.500    0.000    3.333 
#    0.000    0.833    0.000    3.500    0.000    7.000 
#    0.000    0.000    0.000    0.000    0.000    0.000 
#
# Total GULP energy -595089.701882 kJ/mol
# GULP energy per Si atom -12397.702123 kJ/mol
# Density = 1.897327 g / cm^3
# Si number density = 19.016555 Si / 1000 Ang^3
#
#
#
# Elastic Constant Matrix: (Units=GPa)
#
#
# Indices 1 2 3 4 5 6 
#
# 1 16.9741 3.7389 -0.0685 0.0000 0.0000 0.0000
# 2 3.7389 162.6683 92.8181 0.0000 0.0000 0.0000
# 3 -0.0685 92.8181 166.3795 0.0000 0.0000 0.0000
# 4 0.0000 0.0000 0.0000 32.9553 0.0000 0.0000
# 5 0.0000 0.0000 0.0000 0.0000 3.7293 0.0000
# 6 0.0000 0.0000 0.0000 0.0000 0.0000 23.4029
#
#
#
# Elastic Compliance Matrix: (Units=1/GPa)
#
#
# Indices 1 2 3 4 5 6 
#
# 1 0.059363 -0.002022 0.001152 0.000000 0.000000 0.000000
# 2 -0.002022 0.009087 -0.005070 0.000000 0.000000 0.000000
# 3 0.001152 -0.005070 0.008839 0.000000 0.000000 0.000000
# 4 0.000000 0.000000 0.000000 0.030344 0.000000 0.000000
# 5 0.000000 0.000000 0.000000 0.000000 0.268144 0.000000
# 6 0.000000 0.000000 0.000000 0.000000 0.000000 0.042730
#
#
# Mechanical properties :
#
#
# Convention : Reuss Voigt Hill
#
# Bulk Modulus (GPa) = 15.28817 59.88878 37.58847
# Shear Modulus (GPa) = 11.05728 28.65305 19.85517
#
# Velocity S-wave (km/s) = 2.41395 3.88589 3.23476
# Velocity P-wave (km/s) = 3.97824 7.18991 5.81039
#
# Compressibility (1/GPa) = 0.06541005
#
# Stress axis : x y z
#
# Youngs Moduli (GPa) = 16.84543 110.04742 113.13070
#
# Poissons Ratio (x) = 0.22252 -0.13038
# Poissons Ratio (y) = 0.03406 0.57359
# Poissons Ratio (z) = -0.01941 0.55796
#
# Static dielectric constant tensor:
#      x y z
#    x 3.141960 0.000000 0.000000 
#    y 0.000000 3.837350 0.000000 
#    z 0.000000 0.000000 3.838690 
# 
# 
# High freq. dielectric constant tensor:
#      x y z
#    x 1.709320 0.000000 0.000000 
#    y 0.000000 1.742690 0.000000 
#    z 0.000000 0.000000 1.743280 
# 
# From -- ./inp_files/67222.got.cif
#   From: 2010.03.12/outbox.cif.g09.slc.cpg/sg63_34_cif.got.tgz:67222.got - 2010.04.10 19:34:48.
