data_PCOD8258671
_publ_section_title
;
Structure prediction by ZEFSAII (Michael W. Deem and Ramdas Pophale) SiO2 
 PCOD8258671
Probable space group: C M C M
;
_chemical_formula_sum "Si O2"
_cell_formula_units_Z 80
_cell_length_a 7.565950
_cell_length_b 27.138704
_cell_length_c 20.347381
_cell_angle_alpha 90.000000
_cell_angle_beta 90.000000
_cell_angle_gamma 90.000000
_cell_volume 4177.929318
_symmetry_space_group_name_H-M "C M C M"
_symmetry_group_IT_number 63
_symmetry_cell_setting 'orthorhombic'
loop_
_space_group_symop_operation_xyz
x,y,z
-x,-y,1/2+z
x,-y,-z
-x,y,1/2-z
-x,-y,-z
x,y,1/2-z
-x,y,z
x,-y,1/2+z
1/2+x,1/2+y,z
1/2-x,1/2-y,1/2+z
1/2+x,1/2-y,-z
1/2-x,1/2+y,1/2-z
1/2-x,1/2-y,-z
1/2+x,1/2+y,1/2-z
1/2-x,1/2+y,z
1/2+x,1/2-y,1/2+z
loop_
_atom_site_type_symbol
_atom_site_label
_atom_site_fract_x
_atom_site_fract_y
_atom_site_fract_z
Si Si1 0.802603 0.107954 0.626588
Si Si2 0.707534 0.212253 0.824289
Si Si3 0.208613 0.111502 0.474168
Si Si4 0.000000 0.460955 0.175434
Si Si5 0.293707 0.281789 0.563189
Si Si6 0.000000 0.463237 0.939102
O O1 0.803006 0.161340 0.659812
O O2 0.745021 0.112572 0.551045
O O3 0.673417 0.071610 0.664312
O O4 0.000000 0.086143 0.632042
O O5 0.750437 0.228424 0.750000
O O6 0.500000 0.204204 0.835726
O O7 0.783969 0.254914 0.872117
O O8 0.280349 0.162948 0.444017
O O9 0.320834 0.068595 0.440237
O O10 0.000000 0.102501 0.461637
O O11 0.000000 0.480030 0.250000
O O12 0.000000 0.508215 0.129206
O O13 0.500000 0.286969 0.570711
O O14 0.250000 0.250000 0.500000
O O15 0.000000 0.500000 0.000000
#
# Coordination Sequence:
#
# PCOD8258671 Si02
#       6
#    16  16  16   8  16   8
#     4  11  21  36  61  91 124 154 194 254 310 358
#     4  10  20  34  54  83 122 164 199 238 293 357
#     4  10  22  39  61  94 122 149 203 257 297 353
#     4  12  26  44  62  90 124 158 200 254 312 363
#     4  10  20  33  55  84 119 157 195 239 289 349
#     4  12  24  42  68  88 116 162 204 252 312 359
#
# _framework density 19.148242
#
# number of rings (size 3 to 8) (size 9 to 14) (size 15 to 20)
#    0.000    1.400    5.000    0.600    1.400    2.800 
#    0.000    1.000    0.000    1.200    0.000    0.000 
#    0.000    0.000    0.000    0.000    0.000    0.000 
#
# Total GULP energy -496058.188493 kJ/mol
# GULP energy per Si atom -12401.454712 kJ/mol
# Density = 1.910466 g / cm^3
# Si number density = 19.148242 Si / 1000 Ang^3
#
#
#
# Elastic Constant Matrix: (Units=GPa)
#
#
# Indices 1 2 3 4 5 6 
#
# 1 75.0923 45.1288 37.2726 0.0000 0.0000 0.0000
# 2 45.1288 142.5951 74.4090 0.0000 0.0000 0.0000
# 3 37.2726 74.4090 155.4001 0.0000 0.0000 0.0000
# 4 0.0000 0.0000 0.0000 25.6862 0.0000 0.0000
# 5 0.0000 0.0000 0.0000 0.0000 16.1566 0.0000
# 6 0.0000 0.0000 0.0000 0.0000 0.0000 1.2485
#
#
#
# Elastic Compliance Matrix: (Units=1/GPa)
#
#
# Indices 1 2 3 4 5 6 
#
# 1 0.016894 -0.004309 -0.001989 0.000000 0.000000 0.000000
# 2 -0.004309 0.010448 -0.003969 0.000000 0.000000 0.000000
# 3 -0.001989 -0.003969 0.008813 0.000000 0.000000 0.000000
# 4 0.000000 0.000000 0.000000 0.038931 0.000000 0.000000
# 5 0.000000 0.000000 0.000000 0.000000 0.061894 0.000000
# 6 0.000000 0.000000 0.000000 0.000000 0.000000 0.800983
#
#
# Mechanical properties :
#
#
# Convention : Reuss Voigt Hill
#
# Bulk Modulus (GPa) = 64.01864 76.30091 70.15977
# Shear Modulus (GPa) = 5.18832 23.03672 14.11252
#
# Velocity S-wave (km/s) = 1.64786 3.47230 2.71775
# Velocity P-wave (km/s) = 6.09314 7.48397 6.82408
#
# Compressibility (1/GPa) = 0.01562045
#
# Stress axis : x y z
#
# Youngs Moduli (GPa) = 59.19426 95.71515 113.47480
#
# Poissons Ratio (x) = 0.41241 0.22568
# Poissons Ratio (y) = 0.25505 0.45040
# Poissons Ratio (z) = 0.11773 0.37991
#
# Static dielectric constant tensor:
#      x y z
#    x 3.480050 0.000000 0.000000 
#    y 0.000000 3.631740 0.000000 
#    z 0.000000 0.000000 3.938500 
# 
# 
# High freq. dielectric constant tensor:
#      x y z
#    x 1.752240 0.000000 0.000000 
#    y 0.000000 1.736110 0.000000 
#    z 0.000000 0.000000 1.737490 
# 
# From -- ./inp_files/50969.got.cif
#   From: 2010.03.12/outbox.cif.g09.slc.cpg/sg63_26_cif.got.tgz:50969.got - 2010.04.10 19:34:48.
