data_PCOD8258610
_publ_section_title
;
Structure prediction by ZEFSAII (Michael W. Deem and Ramdas Pophale) SiO2 
 PCOD8258610
Probable space group: C M C M
;
_chemical_formula_sum "Si O2"
_cell_formula_units_Z 96
_cell_length_a 8.904933
_cell_length_b 23.471343
_cell_length_c 25.132402
_cell_angle_alpha 90.000000
_cell_angle_beta 90.000000
_cell_angle_gamma 90.000000
_cell_volume 5252.941860
_symmetry_space_group_name_H-M "C M C M"
_symmetry_group_IT_number 63
_symmetry_cell_setting 'orthorhombic'
loop_
_space_group_symop_operation_xyz
x,y,z
-x,-y,1/2+z
x,-y,-z
-x,y,1/2-z
-x,-y,-z
x,y,1/2-z
-x,y,z
x,-y,1/2+z
1/2+x,1/2+y,z
1/2-x,1/2-y,1/2+z
1/2+x,1/2-y,-z
1/2-x,1/2+y,1/2-z
1/2-x,1/2-y,-z
1/2+x,1/2+y,1/2-z
1/2-x,1/2+y,z
1/2+x,1/2-y,1/2+z
loop_
_atom_site_type_symbol
_atom_site_label
_atom_site_fract_x
_atom_site_fract_y
_atom_site_fract_z
Si Si1 0.823604 0.441596 0.689938
Si Si2 0.324023 0.362752 0.094910
Si Si3 0.824478 0.058206 0.690141
Si Si4 0.827595 0.434642 0.005768
Si Si5 0.826885 0.360087 0.902417
Si Si6 0.322908 0.249609 0.557817
O O1 0.771483 0.427059 0.750000
O O2 0.752614 0.500482 0.669888
O O3 0.772901 0.390061 0.651993
O O4 0.000000 0.450170 0.685943
O O5 0.500000 0.349228 0.090832
O O6 0.279746 0.390104 0.151551
O O7 0.281114 0.406017 0.048285
O O8 0.231643 0.304710 0.090809
O O9 0.771446 0.073878 0.750000
O O10 0.000000 0.046640 0.687975
O O11 0.000000 0.428918 0.024891
O O12 0.779870 0.500000 0.000000
O O13 0.803069 0.404634 0.949562
O O14 0.722413 0.305522 0.909794
O O15 0.000000 0.340291 0.899257
O O16 0.500000 0.246734 0.550352
O O17 0.250000 0.250000 0.500000
#
# Coordination Sequence:
#
# PCOD8258610 Si02
#       6
#    16  16  16  16  16  16
#     4   9  18  34  58  86 114 147 186 225 269 323
#     4  11  22  36  56  81 109 144 186 230 274 326
#     4   9  19  36  57  82 113 148 184 225 275 325
#     4  10  20  33  52  79 111 145 178 221 275 330
#     4  10  20  35  55  80 112 147 183 224 271 325
#     4  12  24  39  58  79 107 145 186 229 277 331
#
# _framework density 18.275473999999999
#
# number of rings (size 3 to 8) (size 9 to 14) (size 15 to 20)
#    0.000    1.833    1.667    3.000    0.000    3.667 
#    0.000    0.833    0.000    5.000    0.000    0.000 
#    0.000    0.000    0.000    0.000    0.000    0.000 
#
# Total GULP energy -595375.103845 kJ/mol
# GULP energy per Si atom -12403.647997 kJ/mol
# Density = 1.823388 g / cm^3
# Si number density = 18.275474 Si / 1000 Ang^3
#
#
#
# Elastic Constant Matrix: (Units=GPa)
#
#
# Indices 1 2 3 4 5 6 
#
# 1 83.3029 61.5642 48.2081 0.0000 0.0000 0.0000
# 2 61.5642 155.9000 69.1531 0.0000 0.0000 0.0000
# 3 48.2081 69.1531 106.1490 0.0000 0.0000 0.0000
# 4 0.0000 0.0000 0.0000 29.9119 0.0000 0.0000
# 5 0.0000 0.0000 0.0000 0.0000 47.0355 0.0000
# 6 0.0000 0.0000 0.0000 0.0000 0.0000 32.1562
#
#
#
# Elastic Compliance Matrix: (Units=1/GPa)
#
#
# Indices 1 2 3 4 5 6 
#
# 1 0.018796 -0.005114 -0.005205 0.000000 0.000000 0.000000
# 2 -0.005114 0.010413 -0.004461 0.000000 0.000000 0.000000
# 3 -0.005205 -0.004461 0.014691 0.000000 0.000000 0.000000
# 4 0.000000 0.000000 0.000000 0.033431 0.000000 0.000000
# 5 0.000000 0.000000 0.000000 0.000000 0.021261 0.000000
# 6 0.000000 0.000000 0.000000 0.000000 0.000000 0.031098
#
#
# Mechanical properties :
#
#
# Convention : Reuss Voigt Hill
#
# Bulk Modulus (GPa) = 69.73512 78.13363 73.93438
# Shear Modulus (GPa) = 30.48263 32.91584 31.69923
#
# Velocity S-wave (km/s) = 4.08849 4.24853 4.16928
# Velocity P-wave (km/s) = 7.77999 8.18002 7.98251
#
# Compressibility (1/GPa) = 0.01433998
#
# Stress axis : x y z
#
# Youngs Moduli (GPa) = 53.20408 96.03811 68.07002
#
# Poissons Ratio (x) = 0.49110 0.35429
# Poissons Ratio (y) = 0.27206 0.30367
# Poissons Ratio (z) = 0.27691 0.42844
#
# Static dielectric constant tensor:
#      x y z
#    x 3.350170 0.000000 0.000000 
#    y 0.000000 3.469830 0.000000 
#    z 0.000000 0.000000 3.538040 
# 
# 
# High freq. dielectric constant tensor:
#      x y z
#    x 1.706520 0.000000 0.000000 
#    y 0.000000 1.711420 0.000000 
#    z 0.000000 0.000000 1.709520 
# 
# From -- ./inp_files/66981.got.cif
#   From: 2010.03.12/outbox.cif.g09.slc.cpg/sg63_34_cif.got.tgz:66981.got - 2010.04.10 19:34:48.
