data_PCOD8258561
_publ_section_title
;
Structure prediction by ZEFSAII (Michael W. Deem and Ramdas Pophale) SiO2 
 PCOD8258561
Probable space group: C M C M
;
_chemical_formula_sum "Si O2"
_cell_formula_units_Z 96
_cell_length_a 18.654495
_cell_length_b 30.968545
_cell_length_c 9.078022
_cell_angle_alpha 90.000000
_cell_angle_beta 90.000000
_cell_angle_gamma 90.000000
_cell_volume 5244.396620
_symmetry_space_group_name_H-M "C M C M"
_symmetry_group_IT_number 63
_symmetry_cell_setting 'orthorhombic'
loop_
_space_group_symop_operation_xyz
x,y,z
-x,-y,1/2+z
x,-y,-z
-x,y,1/2-z
-x,-y,-z
x,y,1/2-z
-x,y,z
x,-y,1/2+z
1/2+x,1/2+y,z
1/2-x,1/2-y,1/2+z
1/2+x,1/2-y,-z
1/2-x,1/2+y,1/2-z
1/2-x,1/2-y,-z
1/2+x,1/2+y,1/2-z
1/2-x,1/2+y,z
1/2+x,1/2-y,1/2+z
loop_
_atom_site_type_symbol
_atom_site_label
_atom_site_fract_x
_atom_site_fract_y
_atom_site_fract_z
Si Si1 0.666307 0.704360 0.078730
Si Si2 0.915717 0.128043 0.579027
Si Si3 0.085330 0.957949 0.583479
Si Si4 0.918317 0.540368 0.920689
Si Si5 0.914833 0.635600 0.917612
Si Si6 0.332555 0.791641 0.920352
O O1 0.645982 0.702394 0.250000
O O2 0.750103 0.696665 0.050591
O O3 0.623222 0.668374 0.992240
O O4 0.642984 0.750735 0.016094
O O5 0.895671 0.124927 0.750000
O O6 0.887639 0.084600 0.500851
O O7 0.000000 0.134093 0.555052
O O8 0.115166 0.957341 0.750000
O O9 0.000000 0.959526 0.583851
O O10 0.116067 0.000000 0.500000
O O11 0.913803 0.530726 0.750000
O O12 0.884975 0.587486 0.956081
O O13 0.000000 0.541966 0.976264
O O14 0.878169 0.500000 0.000000
O O15 0.893220 0.647700 0.750000
O O16 0.000000 0.637159 0.934467
O O17 0.879757 0.667867 0.032616
O O18 0.346517 0.780917 0.750000
#
# Coordination Sequence:
#
# PCOD8258561 Si02
#       6
#    16  16  16  16  16  16
#     4  10  21  37  55  73  96 129 166 203 248 302
#     4  10  20  33  51  77 105 131 164 207 251 294
#     4   9  16  27  45  70 101 135 168 202 243 292
#     4   8  14  25  42  66  96 128 161 195 233 280
#     4   9  18  32  50  74 103 133 164 200 245 294
#     4  10  21  36  54  75  97 126 166 207 246 294
#
# _framework density 18.305250999999998
#
# number of rings (size 3 to 8) (size 9 to 14) (size 15 to 20)
#    0.000    2.667    0.000    3.000    0.000    6.667 
#    0.000    1.667    0.000    1.000    0.000    2.333 
#    0.000    0.000    0.000    0.000    0.000    0.000 
#
# Total GULP energy -595107.534225 kJ/mol
# GULP energy per Si atom -12398.073630 kJ/mol
# Density = 1.826359 g / cm^3
# Si number density = 18.305251 Si / 1000 Ang^3
#
#
#
# Elastic Constant Matrix: (Units=GPa)
#
#
# Indices 1 2 3 4 5 6 
#
# 1 24.6672 37.4624 31.4837 0.0000 0.0000 0.0000
# 2 37.4624 152.5546 78.1326 0.0000 0.0000 0.0000
# 3 31.4837 78.1326 123.4131 0.0000 0.0000 0.0000
# 4 0.0000 0.0000 0.0000 44.4403 0.0000 0.0000
# 5 0.0000 0.0000 0.0000 0.0000 20.6681 0.0000
# 6 0.0000 0.0000 0.0000 0.0000 0.0000 -17.8898
#
#
#
# Elastic Compliance Matrix: (Units=1/GPa)
#
#
# Indices 1 2 3 4 5 6 
#
# 1 0.073236 -0.012454 -0.010799 0.000000 0.000000 0.000000
# 2 -0.012454 0.011818 -0.004305 0.000000 0.000000 0.000000
# 3 -0.010799 -0.004305 0.013583 0.000000 0.000000 0.000000
# 4 0.000000 0.000000 0.000000 0.022502 0.000000 0.000000
# 5 0.000000 0.000000 0.000000 0.000000 0.048384 0.000000
# 6 0.000000 0.000000 0.000000 0.000000 0.000000 -0.055898
#
#
# Mechanical properties :
#
#
# Convention : Reuss Voigt Hill
#
# Bulk Modulus (GPa) = 22.97654 66.08802 44.53228
# Shear Modulus (GPa) = 27.28542 19.68080 23.48311
#
# Velocity S-wave (km/s) = 3.86499 3.28250 3.58559
# Velocity P-wave (km/s) = 5.70058 7.10972 6.44379
#
# Compressibility (1/GPa) = 0.04352265
#
# Stress axis : x y z
#
# Youngs Moduli (GPa) = 13.65445 84.61602 73.62049
#
# Poissons Ratio (x) = 1.05378 0.79501
# Poissons Ratio (y) = 0.17005 0.31693
# Poissons Ratio (z) = 0.14745 0.36427
#
# Static dielectric constant tensor:
#      x y z
#    x 2.933370 0.000000 0.000000 
#    y 0.000000 3.665780 0.000000 
#    z 0.000000 0.000000 3.552430 
# 
# 
# High freq. dielectric constant tensor:
#      x y z
#    x 1.658620 0.000000 0.000000 
#    y 0.000000 1.728900 0.000000 
#    z 0.000000 0.000000 1.720970 
# 
# From -- ./inp_files/10428.got.cif
#   From: 2010.03.12/outbox.cif.g09.slc.cpg/sg63_6_cif.got.tgz:10428.got - 2010.04.10 19:34:48.
