data_PCOD8258125
_publ_section_title
;
Structure prediction by ZEFSAII (Michael W. Deem and Ramdas Pophale) SiO2 
 PCOD8258125
Probable space group: C M C M
;
_chemical_formula_sum "Si O2"
_cell_formula_units_Z 96
_cell_length_a 20.191729
_cell_length_b 14.491177
_cell_length_c 17.577557
_cell_angle_alpha 90.000000
_cell_angle_beta 90.000000
_cell_angle_gamma 90.000000
_cell_volume 5143.226907
_symmetry_space_group_name_H-M "C M C M"
_symmetry_group_IT_number 63
_symmetry_cell_setting 'orthorhombic'
loop_
_space_group_symop_operation_xyz
x,y,z
-x,-y,1/2+z
x,-y,-z
-x,y,1/2-z
-x,-y,-z
x,y,1/2-z
-x,y,z
x,-y,1/2+z
1/2+x,1/2+y,z
1/2-x,1/2-y,1/2+z
1/2+x,1/2-y,-z
1/2-x,1/2+y,1/2-z
1/2-x,1/2-y,-z
1/2+x,1/2+y,1/2-z
1/2-x,1/2+y,z
1/2+x,1/2-y,1/2+z
loop_
_atom_site_type_symbol
_atom_site_label
_atom_site_fract_x
_atom_site_fract_y
_atom_site_fract_z
Si Si1 0.728209 0.481217 0.839729
Si Si2 0.876868 0.491014 0.838560
Si Si3 0.424288 0.807574 0.906098
Si Si4 0.181201 0.821881 0.160948
Si Si5 0.184769 0.215921 0.160398
Si Si6 0.925049 0.332553 0.079860
O O1 0.735559 0.472375 0.750000
O O2 0.802452 0.489586 0.872266
O O3 0.685713 0.570667 0.862734
O O4 0.692910 0.388765 0.870256
O O5 0.877847 0.518195 0.750000
O O6 0.909605 0.391276 0.848877
O O7 0.918107 0.566525 0.884263
O O8 0.500000 0.776057 0.896633
O O9 0.379159 0.720115 0.885967
O O10 0.408111 0.840589 0.991061
O O11 0.166941 0.809536 0.250000
O O12 0.249637 0.772507 0.138773
O O13 0.171485 0.220388 0.250000
O O14 0.122029 0.258153 0.118736
O O15 0.000000 0.298146 0.092227
#
# Coordination Sequence:
#
# PCOD8258125 Si02
#       6
#    16  16  16  16  16  16
#     4   9  18  34  57  88 116 138 179 241 288 325
#     4  11  20  36  61  87 115 147 187 235 288 342
#     4  11  24  39  54  81 121 156 189 233 284 340
#     4  10  19  36  61  85 112 147 190 237 283 336
#     4  10  19  36  61  85 112 147 190 237 283 336
#     4  11  24  39  54  81 121 156 189 233 284 340
#
# _framework density 18.665323999999998
#
# number of rings (size 3 to 8) (size 9 to 14) (size 15 to 20)
#    0.000    1.667    3.333    2.000    0.000    5.333 
#    0.000    1.667    0.000    5.000    0.000    0.000 
#    0.000    0.000    0.000    0.000    0.000    0.000 
#
# Total GULP energy -595365.008963 kJ/mol
# GULP energy per Si atom -12403.437687 kJ/mol
# Density = 1.862284 g / cm^3
# Si number density = 18.665324 Si / 1000 Ang^3
#
#
#
# Elastic Constant Matrix: (Units=GPa)
#
#
# Indices 1 2 3 4 5 6 
#
# 1 113.0937 45.8790 36.5209 0.0000 0.0000 0.0000
# 2 45.8790 122.3726 19.0112 0.0000 0.0000 0.0000
# 3 36.5209 19.0112 45.8909 0.0000 0.0000 0.0000
# 4 0.0000 0.0000 0.0000 20.3046 0.0000 0.0000
# 5 0.0000 0.0000 0.0000 0.0000 27.3949 0.0000
# 6 0.0000 0.0000 0.0000 0.0000 0.0000 29.7958
#
#
#
# Elastic Compliance Matrix: (Units=1/GPa)
#
#
# Indices 1 2 3 4 5 6 
#
# 1 0.013198 -0.003544 -0.009035 0.000000 0.000000 0.000000
# 2 -0.003544 0.009686 -0.001192 0.000000 0.000000 0.000000
# 3 -0.009035 -0.001192 0.029474 0.000000 0.000000 0.000000
# 4 0.000000 0.000000 0.000000 0.049250 0.000000 0.000000
# 5 0.000000 0.000000 0.000000 0.000000 0.036503 0.000000
# 6 0.000000 0.000000 0.000000 0.000000 0.000000 0.033562
#
#
# Mechanical properties :
#
#
# Convention : Reuss Voigt Hill
#
# Bulk Modulus (GPa) = 40.29621 53.79770 47.04695
# Shear Modulus (GPa) = 24.09799 27.49547 25.79673
#
# Velocity S-wave (km/s) = 3.59703 3.84223 3.72165
# Velocity P-wave (km/s) = 6.23595 6.96911 6.61270
#
# Compressibility (1/GPa) = 0.02481623
#
# Stress axis : x y z
#
# Youngs Moduli (GPa) = 75.77144 103.24445 33.92772
#
# Poissons Ratio (x) = 0.36594 0.30652
# Poissons Ratio (y) = 0.26856 0.04044
# Poissons Ratio (z) = 0.68456 0.12305
#
# Static dielectric constant tensor:
#      x y z
#    x 3.414130 0.000000 0.000000 
#    y 0.000000 3.564370 0.000000 
#    z 0.000000 0.000000 3.278260 
# 
# 
# High freq. dielectric constant tensor:
#      x y z
#    x 1.721600 0.000000 0.000000 
#    y 0.000000 1.728700 0.000000 
#    z 0.000000 0.000000 1.710350 
# 
# From -- ./inp_files/35303.got.cif
#   From: 2010.03.12/outbox.cif.g09.slc.cpg/sg63_18_cif.got.tgz:35303.got - 2010.04.10 19:34:48.
