data_PCOD8258530
_publ_section_title
;
Structure prediction by ZEFSAII (Michael W. Deem and Ramdas Pophale) SiO2 
 PCOD8258530
Probable space group: C M C M
;
_chemical_formula_sum "Si O2"
_cell_formula_units_Z 96
_cell_length_a 13.371680
_cell_length_b 17.653183
_cell_length_c 21.037722
_cell_angle_alpha 90.000000
_cell_angle_beta 90.000000
_cell_angle_gamma 90.000000
_cell_volume 4966.011376
_symmetry_space_group_name_H-M "C M C M"
_symmetry_group_IT_number 63
_symmetry_cell_setting 'orthorhombic'
loop_
_space_group_symop_operation_xyz
x,y,z
-x,-y,1/2+z
x,-y,-z
-x,y,1/2-z
-x,-y,-z
x,y,1/2-z
-x,y,z
x,-y,1/2+z
1/2+x,1/2+y,z
1/2-x,1/2-y,1/2+z
1/2+x,1/2-y,-z
1/2-x,1/2+y,1/2-z
1/2-x,1/2-y,-z
1/2+x,1/2+y,1/2-z
1/2-x,1/2+y,z
1/2+x,1/2-y,1/2+z
loop_
_atom_site_type_symbol
_atom_site_label
_atom_site_fract_x
_atom_site_fract_y
_atom_site_fract_z
Si Si1 0.191260 0.484979 0.427686
Si Si2 0.887293 0.796685 0.015269
Si Si3 0.887067 0.403827 0.821828
Si Si4 0.694690 0.812287 0.416142
Si Si5 0.193156 0.184574 0.322021
Si Si6 0.887178 0.928865 0.583887
O O1 0.154043 0.500000 0.500000
O O2 0.131614 0.534556 0.376560
O O3 0.167051 0.399508 0.407372
O O4 0.310456 0.501584 0.423127
O O5 0.865425 0.719490 0.976857
O O6 0.864460 0.869217 0.971627
O O7 0.000000 0.795518 0.040619
O O8 0.813736 0.802127 0.074766
O O9 0.871714 0.437762 0.750000
O O10 0.810967 0.333930 0.831277
O O11 0.000000 0.373040 0.829540
O O12 0.664911 0.764346 0.354255
O O13 0.160629 0.193134 0.250000
O O14 0.128573 0.115190 0.350029
O O15 0.000000 0.961279 0.580229
#
# Coordination Sequence:
#
# PCOD8258530 Si02
#       6
#    16  16  16  16  16  16
#     4  11  21  34  53  83 118 144 177 225 275 328
#     4   9  18  33  52  72 102 141 175 215 262 311
#     4   9  20  39  58  75 103 146 187 221 269 332
#     4  10  20  33  50  78 109 135 177 220 269 323
#     4   9  19  36  56  76 101 137 182 229 268 317
#     4   9  18  34  55  78 106 142 179 214 263 326
#
# _framework density 19.331409000000001
#
# number of rings (size 3 to 8) (size 9 to 14) (size 15 to 20)
#    0.000    2.500    1.667    0.000    2.333    3.667 
#    0.000    0.000    0.000    0.000    0.000    2.333 
#    0.000    0.000    0.000    0.000    0.000    0.000 
#
# Total GULP energy -595090.187713 kJ/mol
# GULP energy per Si atom -12397.712244 kJ/mol
# Density = 1.928741 g / cm^3
# Si number density = 19.331409 Si / 1000 Ang^3
#
#
#
# Elastic Constant Matrix: (Units=GPa)
#
#
# Indices 1 2 3 4 5 6 
#
# 1 44.2847 -18.7788 -10.5432 0.0000 0.0000 0.0000
# 2 -18.7788 82.6682 16.0775 0.0000 0.0000 0.0000
# 3 -10.5432 16.0775 89.4989 0.0000 0.0000 0.0000
# 4 0.0000 0.0000 0.0000 16.4760 0.0000 0.0000
# 5 0.0000 0.0000 0.0000 0.0000 18.9763 0.0000
# 6 0.0000 0.0000 0.0000 0.0000 0.0000 13.7023
#
#
#
# Elastic Compliance Matrix: (Units=1/GPa)
#
#
# Indices 1 2 3 4 5 6 
#
# 1 0.025336 0.005362 0.002021 0.000000 0.000000 0.000000
# 2 0.005362 0.013669 -0.001824 0.000000 0.000000 0.000000
# 3 0.002021 -0.001824 0.011739 0.000000 0.000000 0.000000
# 4 0.000000 0.000000 0.000000 0.060695 0.000000 0.000000
# 5 0.000000 0.000000 0.000000 0.000000 0.052697 0.000000
# 6 0.000000 0.000000 0.000000 0.000000 0.000000 0.072981
#
#
# Mechanical properties :
#
#
# Convention : Reuss Voigt Hill
#
# Bulk Modulus (GPa) = 16.16443 21.10697 18.63570
# Shear Modulus (GPa) = 20.27419 25.14399 22.70909
#
# Velocity S-wave (km/s) = 3.24198 3.61041 3.43114
# Velocity P-wave (km/s) = 4.73221 5.32186 5.03568
#
# Compressibility (1/GPa) = 0.06186425
#
# Stress axis : x y z
#
# Youngs Moduli (GPa) = 39.46912 73.15641 85.18547
#
# Poissons Ratio (x) = -0.39228 -0.17220
# Poissons Ratio (y) = -0.21164 0.15537
# Poissons Ratio (z) = -0.07978 0.13343
#
# Static dielectric constant tensor:
#      x y z
#    x 3.537440 0.000000 0.000000 
#    y 0.000000 3.327900 0.000000 
#    z 0.000000 0.000000 3.517560 
# 
# 
# High freq. dielectric constant tensor:
#      x y z
#    x 1.751270 0.000000 0.000000 
#    y 0.000000 1.735970 0.000000 
#    z 0.000000 0.000000 1.743440 
# 
# From -- ./inp_files/54228.got.cif
#   From: 2010.03.12/outbox.cif.g09.slc.cpg/sg63_28_cif.got.tgz:54228.got - 2010.04.10 19:34:48.
