data_PCOD8258885
_publ_section_title
;
Structure prediction by ZEFSAII (Michael W. Deem and Ramdas Pophale) SiO2 
 PCOD8258885
Probable space group: C M C M
;
_chemical_formula_sum "Si O2"
_cell_formula_units_Z 96
_cell_length_a 24.839934
_cell_length_b 23.482172
_cell_length_c 9.201944
_cell_angle_alpha 90.000000
_cell_angle_beta 90.000000
_cell_angle_gamma 90.000000
_cell_volume 5367.453471
_symmetry_space_group_name_H-M "C M C M"
_symmetry_group_IT_number 63
_symmetry_cell_setting 'orthorhombic'
loop_
_space_group_symop_operation_xyz
x,y,z
-x,-y,1/2+z
x,-y,-z
-x,y,1/2-z
-x,-y,-z
x,y,1/2-z
-x,y,z
x,-y,1/2+z
1/2+x,1/2+y,z
1/2-x,1/2-y,1/2+z
1/2+x,1/2-y,-z
1/2-x,1/2+y,1/2-z
1/2-x,1/2-y,-z
1/2+x,1/2+y,1/2-z
1/2-x,1/2+y,z
1/2+x,1/2-y,1/2+z
loop_
_atom_site_type_symbol
_atom_site_label
_atom_site_fract_x
_atom_site_fract_y
_atom_site_fract_z
Si Si1 0.439505 0.556571 0.580820
Si Si2 0.646068 0.872834 0.581506
Si Si3 0.805445 0.744894 0.082489
Si Si4 0.746313 0.559326 0.080599
Si Si5 0.937516 0.557351 0.582045
Si Si6 0.840623 0.868371 0.417251
O O1 0.419310 0.500000 0.500000
O O2 0.437944 0.542447 0.750000
O O3 0.500000 0.573547 0.531148
O O4 0.399627 0.608151 0.541020
O O5 0.629267 0.872464 0.750000
O O6 0.661983 0.809932 0.526568
O O7 0.694325 0.916740 0.552553
O O8 0.595160 0.890435 0.485479
O O9 0.790490 0.735956 0.250000
O O10 0.841958 0.800619 0.056838
O O11 0.750000 0.750000 0.000000
O O12 0.734781 0.550162 0.250000
O O13 0.739022 0.500000 0.000000
O O14 0.704004 0.604503 0.019968
O O15 0.920676 0.500000 0.500000
O O16 0.922421 0.549432 0.750000
O O17 0.000000 0.571321 0.559998
O O18 0.826247 0.882722 0.250000
#
# Coordination Sequence:
#
# PCOD8258885 Si02
#       6
#    16  16  16  16  16  16
#     4   9  18  33  52  75 103 135 171 213 260 310
#     4  10  21  36  54  79 109 141 181 221 264 322
#     4  10  20  36  55  78 107 142 182 219 263 317
#     4  11  22  34  50  76 109 139 173 218 268 320
#     4  10  21  37  58  83 110 142 180 223 274 327
#     4  10  20  34  54  78 105 137 176 219 266 317
#
# _framework density 17.885577000000001
#
# number of rings (size 3 to 8) (size 9 to 14) (size 15 to 20)
#    0.000    2.000    1.667    2.000    0.000    6.333 
#    0.000    0.833    0.000    3.000    0.000    2.333 
#    0.000    0.000    0.000    0.000    0.000    0.000 
#
# Total GULP energy -595368.816133 kJ/mol
# GULP energy per Si atom -12403.517003 kJ/mol
# Density = 1.784487 g / cm^3
# Si number density = 17.885577 Si / 1000 Ang^3
#
#
#
# Elastic Constant Matrix: (Units=GPa)
#
#
# Indices 1 2 3 4 5 6 
#
# 1 92.3549 56.5365 51.3538 0.0000 0.0000 0.0000
# 2 56.5365 125.5751 54.0717 0.0000 0.0000 0.0000
# 3 51.3538 54.0717 81.6634 0.0000 0.0000 0.0000
# 4 0.0000 0.0000 0.0000 26.2228 0.0000 0.0000
# 5 0.0000 0.0000 0.0000 0.0000 29.1942 0.0000
# 6 0.0000 0.0000 0.0000 0.0000 0.0000 28.1674
#
#
#
# Elastic Compliance Matrix: (Units=1/GPa)
#
#
# Indices 1 2 3 4 5 6 
#
# 1 0.018381 -0.004614 -0.008504 0.000000 0.000000 0.000000
# 2 -0.004614 0.012297 -0.005241 0.000000 0.000000 0.000000
# 3 -0.008504 -0.005241 0.021063 0.000000 0.000000 0.000000
# 4 0.000000 0.000000 0.000000 0.038135 0.000000 0.000000
# 5 0.000000 0.000000 0.000000 0.000000 0.034253 0.000000
# 6 0.000000 0.000000 0.000000 0.000000 0.000000 0.035502
#
#
# Mechanical properties :
#
#
# Convention : Reuss Voigt Hill
#
# Bulk Modulus (GPa) = 66.55976 69.27972 67.91974
# Shear Modulus (GPa) = 24.83156 25.89229 25.36192
#
# Velocity S-wave (km/s) = 3.73011 3.80894 3.76973
# Velocity P-wave (km/s) = 7.47306 7.62648 7.55016
#
# Compressibility (1/GPa) = 0.01502409
#
# Stress axis : x y z
#
# Youngs Moduli (GPa) = 54.40504 81.31849 47.47610
#
# Poissons Ratio (x) = 0.37518 0.40373
# Poissons Ratio (y) = 0.25101 0.24883
# Poissons Ratio (z) = 0.46265 0.42620
#
# Static dielectric constant tensor:
#      x y z
#    x 3.348880 0.000000 0.000000 
#    y 0.000000 3.515250 0.000000 
#    z 0.000000 0.000000 3.399870 
# 
# 
# High freq. dielectric constant tensor:
#      x y z
#    x 1.688870 0.000000 0.000000 
#    y 0.000000 1.694290 0.000000 
#    z 0.000000 0.000000 1.695140 
# 
# From -- ./inp_files/10426.got.cif
#   From: 2010.03.12/outbox.cif.g09.slc.cpg/sg63_6_cif.got.tgz:10426.got - 2010.04.10 19:34:48.
