data_PCOD8258283
_publ_section_title
;
Structure prediction by ZEFSAII (Michael W. Deem and Ramdas Pophale) SiO2 
 PCOD8258283
Probable space group: C M C M
;
_chemical_formula_sum "Si O2"
_cell_formula_units_Z 72
_cell_length_a 17.996793
_cell_length_b 22.934684
_cell_length_c 9.543658
_cell_angle_alpha 90.000000
_cell_angle_beta 90.000000
_cell_angle_gamma 90.000000
_cell_volume 3939.152097
_symmetry_space_group_name_H-M "C M C M"
_symmetry_group_IT_number 63
_symmetry_cell_setting 'orthorhombic'
loop_
_space_group_symop_operation_xyz
x,y,z
-x,-y,1/2+z
x,-y,-z
-x,y,1/2-z
-x,-y,-z
x,y,1/2-z
-x,y,z
x,-y,1/2+z
1/2+x,1/2+y,z
1/2-x,1/2-y,1/2+z
1/2+x,1/2-y,-z
1/2-x,1/2+y,1/2-z
1/2-x,1/2-y,-z
1/2+x,1/2+y,1/2-z
1/2-x,1/2+y,z
1/2+x,1/2-y,1/2+z
loop_
_atom_site_type_symbol
_atom_site_label
_atom_site_fract_x
_atom_site_fract_y
_atom_site_fract_z
Si Si1 0.500000 0.941312 0.913911
Si Si2 0.586205 0.760879 0.411672
Si Si3 0.139272 0.363476 0.911783
Si Si4 0.779413 0.942496 0.586227
Si Si5 0.581905 0.369838 0.916544
O O1 0.500000 0.956668 0.750000
O O2 0.572586 0.905489 0.958044
O O3 0.500000 0.000000 0.000000
O O4 0.609125 0.766841 0.250000
O O5 0.500000 0.776958 0.433095
O O6 0.637511 0.804203 0.500084
O O7 0.601303 0.695444 0.468074
O O8 0.131353 0.346264 0.750000
O O9 0.216466 0.395063 0.943503
O O10 0.782978 0.958580 0.750000
O O11 0.857135 0.915837 0.529991
O O12 0.760615 0.000000 0.500000
O O13 0.581200 0.368073 0.750000
O O14 0.500000 0.388616 0.972173
#
# Coordination Sequence:
#
# PCOD8258283 Si02
#       5
#     8  16  16  16  16
#     4  10  20  32  46  66  96 134 171 204 241 288
#     4   9  17  31  53  78 101 130 171 210 245 298
#     4  10  20  33  49  72 104 137 166 206 257 298
#     4  10  21  36  53  74 102 135 171 211 253 299
#     4   8  16  33  55  77 102 132 165 206 257 306
#
# _framework density 18.278044000000001
#
# number of rings (size 3 to 8) (size 9 to 14) (size 15 to 20)
#    0.000    2.667    1.111    2.000    0.000    3.111 
#    0.000    1.111    0.000    1.333    0.000    0.000 
#    0.000    0.000    0.000    0.000    0.000    0.000 
#
# Total GULP energy -446396.745410 kJ/mol
# GULP energy per Si atom -12399.909595 kJ/mol
# Density = 1.823644 g / cm^3
# Si number density = 18.278044 Si / 1000 Ang^3
#
#
#
# Elastic Constant Matrix: (Units=GPa)
#
#
# Indices 1 2 3 4 5 6 
#
# 1 88.5708 17.6997 20.5578 0.0000 0.0000 0.0000
# 2 17.6997 52.4356 28.7574 0.0000 0.0000 0.0000
# 3 20.5578 28.7574 39.9366 0.0000 0.0000 0.0000
# 4 0.0000 0.0000 0.0000 19.8432 0.0000 0.0000
# 5 0.0000 0.0000 0.0000 0.0000 10.0680 0.0000
# 6 0.0000 0.0000 0.0000 0.0000 0.0000 17.0114
#
#
#
# Elastic Compliance Matrix: (Units=1/GPa)
#
#
# Indices 1 2 3 4 5 6 
#
# 1 0.012866 -0.001175 -0.005777 0.000000 0.000000 0.000000
# 2 -0.001175 0.031625 -0.022168 0.000000 0.000000 0.000000
# 3 -0.005777 -0.022168 0.043976 0.000000 0.000000 0.000000
# 4 0.000000 0.000000 0.000000 0.050395 0.000000 0.000000
# 5 0.000000 0.000000 0.000000 0.000000 0.099324 0.000000
# 6 0.000000 0.000000 0.000000 0.000000 0.000000 0.058784
#
#
# Mechanical properties :
#
#
# Convention : Reuss Voigt Hill
#
# Bulk Modulus (GPa) = 33.08185 34.99698 34.03941
# Shear Modulus (GPa) = 13.68791 16.97974 15.33382
#
# Velocity S-wave (km/s) = 2.73952 3.05121 2.89955
# Velocity P-wave (km/s) = 5.30520 5.62154 5.46566
#
# Compressibility (1/GPa) = 0.03022806
#
# Stress axis : x y z
#
# Youngs Moduli (GPa) = 77.72408 31.62045 22.73958
#
# Poissons Ratio (x) = 0.03714 0.13137
# Poissons Ratio (y) = 0.09129 0.50409
# Poissons Ratio (z) = 0.44902 0.70096
#
# Static dielectric constant tensor:
#      x y z
#    x 3.677330 0.000000 0.000000 
#    y 0.000000 3.306020 0.000000 
#    z 0.000000 0.000000 3.076130 
# 
# 
# High freq. dielectric constant tensor:
#      x y z
#    x 1.714160 0.000000 0.000000 
#    y 0.000000 1.710010 0.000000 
#    z 0.000000 0.000000 1.678150 
# 
# From -- ./inp_files/6081.got.cif
#   From: 2010.03.12/outbox.cif.g09.slc.cpg/sg63_4_cif.got.tgz:6081.got - 2010.04.10 19:34:48.
