data_PCOD8258402
_publ_section_title
;
Structure prediction by ZEFSAII (Michael W. Deem and Ramdas Pophale) SiO2 
 PCOD8258402
Probable space group: C M C M
;
_chemical_formula_sum "Si O2"
_cell_formula_units_Z 96
_cell_length_a 18.079777
_cell_length_b 9.913225
_cell_length_c 29.169657
_cell_angle_alpha 90.000000
_cell_angle_beta 90.000000
_cell_angle_gamma 90.000000
_cell_volume 5228.045460
_symmetry_space_group_name_H-M "C M C M"
_symmetry_group_IT_number 63
_symmetry_cell_setting 'orthorhombic'
loop_
_space_group_symop_operation_xyz
x,y,z
-x,-y,1/2+z
x,-y,-z
-x,y,1/2-z
-x,-y,-z
x,y,1/2-z
-x,y,z
x,-y,1/2+z
1/2+x,1/2+y,z
1/2-x,1/2-y,1/2+z
1/2+x,1/2-y,-z
1/2-x,1/2+y,1/2-z
1/2-x,1/2-y,-z
1/2+x,1/2+y,1/2-z
1/2-x,1/2+y,z
1/2+x,1/2-y,1/2+z
loop_
_atom_site_type_symbol
_atom_site_label
_atom_site_fract_x
_atom_site_fract_y
_atom_site_fract_z
Si Si1 0.840655 0.126447 0.972266
Si Si2 0.828318 0.615984 0.966619
Si Si3 0.412196 0.228746 0.800733
Si Si4 0.088056 0.531894 0.879090
Si Si5 0.412014 0.530208 0.698475
Si Si6 0.912487 0.224872 0.880466
O O1 0.757880 0.095752 0.954536
O O2 0.890054 0.159150 0.928470
O O3 0.842500 0.243829 0.009149
O O4 0.873889 0.000000 0.000000
O O5 0.876616 0.610761 0.921229
O O6 0.857352 0.500000 0.000000
O O7 0.382401 0.193360 0.750000
O O8 0.500000 0.228760 0.800685
O O9 0.383024 0.113043 0.834677
O O10 0.384821 0.379079 0.814936
O O11 0.117530 0.378058 0.876369
O O12 0.000000 0.536409 0.884039
O O13 0.384649 0.567510 0.750000
O O14 0.500000 0.535123 0.697324
O O15 0.379384 0.636953 0.661717
O O16 0.000000 0.225849 0.877759
#
# Coordination Sequence:
#
# PCOD8258402 Si02
#       6
#    16  16  16  16  16  16
#     4  10  22  36  53  73  97 136 175 207 245 298
#     4  10  20  38  54  70 100 135 173 205 244 303
#     4   8  15  29  48  72 102 134 167 200 242 299
#     4  10  20  32  52  79 104 132 164 207 255 296
#     4   8  15  29  48  71 103 137 164 198 246 298
#     4  10  20  33  50  78 108 130 163 208 254 298
#
# _framework density 18.362504000000001
#
# number of rings (size 3 to 8) (size 9 to 14) (size 15 to 20)
#    0.000    2.667    1.667    1.000    2.333    2.000 
#    0.000    3.333    0.000    1.000    0.000    0.000 
#    0.000    0.000    0.000    0.000    0.000    0.000 
#
# Total GULP energy -595042.373139 kJ/mol
# GULP energy per Si atom -12396.716107 kJ/mol
# Density = 1.832071 g / cm^3
# Si number density = 18.362504 Si / 1000 Ang^3
#
#
#
# Elastic Constant Matrix: (Units=GPa)
#
#
# Indices 1 2 3 4 5 6 
#
# 1 12.5843 17.9848 20.3296 0.0000 0.0000 0.0000
# 2 17.9848 125.0741 75.1347 0.0000 0.0000 0.0000
# 3 20.3296 75.1347 135.4419 0.0000 0.0000 0.0000
# 4 0.0000 0.0000 0.0000 37.0205 0.0000 0.0000
# 5 0.0000 0.0000 0.0000 0.0000 -2.7609 0.0000
# 6 0.0000 0.0000 0.0000 0.0000 0.0000 19.5476
#
#
#
# Elastic Compliance Matrix: (Units=1/GPa)
#
#
# Indices 1 2 3 4 5 6 
#
# 1 0.111193 -0.008943 -0.011729 0.000000 0.000000 0.000000
# 2 -0.008943 0.012711 -0.005709 0.000000 0.000000 0.000000
# 3 -0.011729 -0.005709 0.012311 0.000000 0.000000 0.000000
# 4 0.000000 0.000000 0.000000 0.027012 0.000000 0.000000
# 5 0.000000 0.000000 0.000000 0.000000 -0.362200 0.000000
# 6 0.000000 0.000000 0.000000 0.000000 0.000000 0.051157
#
#
# Mechanical properties :
#
#
# Convention : Reuss Voigt Hill
#
# Bulk Modulus (GPa) = 11.98282 55.55540 33.76911
# Shear Modulus (GPa) = -74.36234 21.40483 -26.47875
#
# Velocity S-wave (km/s) = -6.37062 3.41791 -3.80149
# Velocity P-wave (km/s) = 6.89733 6.77471 0.91556
#
# Compressibility (1/GPa) = 0.08345282
#
# Stress axis : x y z
#
# Youngs Moduli (GPa) = 8.99339 78.67493 81.23121
#
# Poissons Ratio (x) = 0.70359 0.95275
# Poissons Ratio (y) = 0.08043 0.46372
# Poissons Ratio (z) = 0.10548 0.44913
#
# Static dielectric constant tensor:
#      x y z
#    x 2.931970 0.000000 0.000000 
#    y 0.000000 3.737850 0.000000 
#    z 0.000000 0.000000 3.593150 
# 
# 
# High freq. dielectric constant tensor:
#      x y z
#    x 1.661100 0.000000 0.000000 
#    y 0.000000 1.727740 0.000000 
#    z 0.000000 0.000000 1.720150 
# 
# From -- ./inp_files/70611.got.cif
#   From: 2010.03.12/outbox.cif.g09.slc.cpg/sg63_36_cif.got.tgz:70611.got - 2010.04.10 19:34:48.
