data_PCOD8258679
_publ_section_title
;
Structure prediction by ZEFSAII (Michael W. Deem and Ramdas Pophale) SiO2 
 PCOD8258679
Probable space group: C M C M
;
_chemical_formula_sum "Si O2"
_cell_formula_units_Z 128
_cell_length_a 23.684842
_cell_length_b 11.766127
_cell_length_c 23.000417
_cell_angle_alpha 90.000000
_cell_angle_beta 90.000000
_cell_angle_gamma 90.000000
_cell_volume 6409.729965
_symmetry_space_group_name_H-M "C M C M"
_symmetry_group_IT_number 63
_symmetry_cell_setting 'orthorhombic'
loop_
_space_group_symop_operation_xyz
x,y,z
-x,-y,1/2+z
x,-y,-z
-x,y,1/2-z
-x,-y,-z
x,y,1/2-z
-x,y,z
x,-y,1/2+z
1/2+x,1/2+y,z
1/2-x,1/2-y,1/2+z
1/2+x,1/2-y,-z
1/2-x,1/2+y,1/2-z
1/2-x,1/2-y,-z
1/2+x,1/2+y,1/2-z
1/2-x,1/2+y,z
1/2+x,1/2-y,1/2+z
loop_
_atom_site_type_symbol
_atom_site_label
_atom_site_fract_x
_atom_site_fract_y
_atom_site_fract_z
Si Si1 0.934744 0.182513 0.376478
Si Si2 0.658738 0.882647 0.883748
Si Si3 0.723896 0.309961 0.317787
Si Si4 0.874129 0.028734 0.817128
Si Si5 0.658636 0.137074 0.870565
Si Si6 0.591558 0.631292 0.503857
Si Si7 0.561085 0.282195 0.377180
Si Si8 0.311146 0.800704 0.498981
O O1 0.899752 0.295161 0.357153
O O2 0.939650 0.176539 0.446162
O O3 0.000000 0.183842 0.352137
O O4 0.896616 0.077178 0.354491
O O5 0.701466 0.802489 0.848984
O O6 0.596323 0.831992 0.883421
O O7 0.652425 0.005239 0.854091
O O8 0.680994 0.893848 0.950123
O O9 0.715281 0.290357 0.250000
O O10 0.688764 0.425180 0.335998
O O11 0.789904 0.316552 0.332168
O O12 0.875413 0.992217 0.750000
O O13 0.914939 0.134915 0.827759
O O14 0.673642 0.144008 0.938089
O O15 0.605163 0.500000 0.500000
O O16 0.554280 0.653720 0.560895
O O17 0.650635 0.692645 0.513663
O O18 0.500000 0.243741 0.355765
O O19 0.250000 0.750000 0.500000
#
# Coordination Sequence:
#
# PCOD8258679 Si02
#       8
#    16  16  16  16  16  16  16  16
#     4  11  24  39  58  91 127 163 204 245 300 366
#     4  10  22  40  59  88 120 153 199 242 295 359
#     4  10  23  42  64  89 117 152 202 255 304 357
#     4  10  22  39  61  89 118 152 199 257 306 349
#     4  11  24  39  62  88 122 163 197 242 304 366
#     4  10  20  33  56  87 120 157 197 246 300 351
#     4  10  20  36  60  87 116 155 198 242 293 348
#     4  10  20  36  56  88 121 155 195 245 301 363
#
# _framework density 19.969639999999998
#
# number of rings (size 3 to 8) (size 9 to 14) (size 15 to 20)
#    0.000    1.750    2.500    1.125    1.750    4.000 
#    0.000    0.000    0.000    4.500    0.000    3.500 
#    0.000    0.000    0.000    0.000    0.000    0.000 
#
# Total GULP energy -793355.051969 kJ/mol
# GULP energy per Si atom -12396.172687 kJ/mol
# Density = 1.992419 g / cm^3
# Si number density = 19.969640 Si / 1000 Ang^3
#
#
#
# Elastic Constant Matrix: (Units=GPa)
#
#
# Indices 1 2 3 4 5 6 
#
# 1 119.3801 35.5604 11.5332 0.0000 0.0000 0.0000
# 2 35.5604 105.8801 9.3055 0.0000 0.0000 0.0000
# 3 11.5332 9.3055 53.1587 0.0000 0.0000 0.0000
# 4 0.0000 0.0000 0.0000 13.6921 0.0000 0.0000
# 5 0.0000 0.0000 0.0000 0.0000 15.9007 0.0000
# 6 0.0000 0.0000 0.0000 0.0000 0.0000 17.2949
#
#
#
# Elastic Compliance Matrix: (Units=1/GPa)
#
#
# Indices 1 2 3 4 5 6 
#
# 1 0.009426 -0.003033 -0.001514 0.000000 0.000000 0.000000
# 2 -0.003033 0.010568 -0.001192 0.000000 0.000000 0.000000
# 3 -0.001514 -0.001192 0.019349 0.000000 0.000000 0.000000
# 4 0.000000 0.000000 0.000000 0.073035 0.000000 0.000000
# 5 0.000000 0.000000 0.000000 0.000000 0.062890 0.000000
# 6 0.000000 0.000000 0.000000 0.000000 0.000000 0.057820
#
#
# Mechanical properties :
#
#
# Convention : Reuss Voigt Hill
#
# Bulk Modulus (GPa) = 35.88714 43.46856 39.67785
# Shear Modulus (GPa) = 19.69631 24.17887 21.93759
#
# Velocity S-wave (km/s) = 3.14397 3.48340 3.31803
# Velocity P-wave (km/s) = 5.58473 6.16388 5.88144
#
# Compressibility (1/GPa) = 0.02786514
#
# Stress axis : x y z
#
# Youngs Moduli (GPa) = 106.08629 94.62544 51.68287
#
# Poissons Ratio (x) = 0.28698 0.07826
# Poissons Ratio (y) = 0.32174 0.06160
# Poissons Ratio (z) = 0.16064 0.11279
#
# Static dielectric constant tensor:
#      x y z
#    x 3.726070 0.000000 0.000000 
#    y 0.000000 3.528690 0.000000 
#    z 0.000000 0.000000 3.594150 
# 
# 
# High freq. dielectric constant tensor:
#      x y z
#    x 1.781940 0.000000 0.000000 
#    y 0.000000 1.769160 0.000000 
#    z 0.000000 0.000000 1.776400 
# 
# From -- ./inp_files/65182.got.cif
#   From: 2010.03.12/outbox.cif.g09.slc.cpg/sg63_33_cif.got.tgz:65182.got - 2010.04.10 19:34:48.
