data_PCOD8258850
_publ_section_title
;
Structure prediction by ZEFSAII (Michael W. Deem and Ramdas Pophale) SiO2 
 PCOD8258850
Probable space group: C M C M
;
_chemical_formula_sum "Si O2"
_cell_formula_units_Z 88
_cell_length_a 12.533197
_cell_length_b 31.880683
_cell_length_c 12.059100
_cell_angle_alpha 90.000000
_cell_angle_beta 90.000000
_cell_angle_gamma 90.000000
_cell_volume 4818.416969
_symmetry_space_group_name_H-M "C M C M"
_symmetry_group_IT_number 63
_symmetry_cell_setting 'orthorhombic'
loop_
_space_group_symop_operation_xyz
x,y,z
-x,-y,1/2+z
x,-y,-z
-x,y,1/2-z
-x,-y,-z
x,y,1/2-z
-x,y,z
x,-y,1/2+z
1/2+x,1/2+y,z
1/2-x,1/2-y,1/2+z
1/2+x,1/2-y,-z
1/2-x,1/2+y,1/2-z
1/2-x,1/2-y,-z
1/2+x,1/2+y,1/2-z
1/2-x,1/2+y,z
1/2+x,1/2-y,1/2+z
loop_
_atom_site_type_symbol
_atom_site_label
_atom_site_fract_x
_atom_site_fract_y
_atom_site_fract_z
Si Si1 0.379304 0.247314 0.620330
Si Si2 0.755965 0.180664 0.998532
Si Si3 0.500000 0.023312 0.876044
Si Si4 0.877951 0.614359 0.119860
Si Si5 0.879847 0.892374 0.378833
Si Si6 0.210348 0.452957 0.464042
O O1 0.375273 0.254208 0.750000
O O2 0.500000 0.241392 0.577604
O O3 0.312611 0.206024 0.591034
O O4 0.331485 0.288663 0.566039
O O5 0.674690 0.157594 0.080826
O O6 0.830204 0.147624 0.937754
O O7 0.500000 0.000687 0.750000
O O8 0.390711 0.049783 0.879307
O O9 0.500000 0.000000 0.000000
O O10 0.868565 0.611502 0.250000
O O11 0.000000 0.613432 0.079385
O O12 0.816746 0.573914 0.072938
O O13 0.879524 0.882598 0.250000
O O14 0.813151 0.934375 0.403014
O O15 0.000000 0.899514 0.422690
O O16 0.238089 0.500000 0.500000
#
# Coordination Sequence:
#
# PCOD8258850 Si02
#       6
#    16  16   8  16  16  16
#     4  10  20  34  54  79 106 137 174 220 272 326
#     4  10  20  35  54  77 107 139 178 221 269 328
#     4  10  20  34  54  82 112 144 182 230 284 340
#     4  10  20  34  53  78 110 145 182 224 276 333
#     4  10  21  37  56  77 105 143 184 227 275 329
#     4  10  21  36  55  81 111 143 185 232 281 333
#
# _framework density 18.263261
#
# number of rings (size 3 to 8) (size 9 to 14) (size 15 to 20)
#    0.000    2.000    0.909    2.727    0.000    4.000 
#    0.000    0.000    0.000   13.636    0.000    0.000 
#    0.000    0.000    0.000    0.000    0.000    0.000 
#
# Total GULP energy -545409.502051 kJ/mol
# GULP energy per Si atom -12395.670501 kJ/mol
# Density = 1.822169 g / cm^3
# Si number density = 18.263261 Si / 1000 Ang^3
#
#
#
# Elastic Constant Matrix: (Units=GPa)
#
#
# Indices 1 2 3 4 5 6 
#
# 1 140.1711 60.9771 43.5085 0.0000 0.0000 0.0000
# 2 60.9771 101.6726 28.6749 0.0000 0.0000 0.0000
# 3 43.5085 28.6749 78.2441 0.0000 0.0000 0.0000
# 4 0.0000 0.0000 0.0000 17.0587 0.0000 0.0000
# 5 0.0000 0.0000 0.0000 0.0000 26.8204 0.0000
# 6 0.0000 0.0000 0.0000 0.0000 0.0000 25.5560
#
#
#
# Elastic Compliance Matrix: (Units=1/GPa)
#
#
# Indices 1 2 3 4 5 6 
#
# 1 0.010669 -0.005270 -0.004001 0.000000 0.000000 0.000000
# 2 -0.005270 0.013572 -0.002044 0.000000 0.000000 0.000000
# 3 -0.004001 -0.002044 0.015754 0.000000 0.000000 0.000000
# 4 0.000000 0.000000 0.000000 0.058621 0.000000 0.000000
# 5 0.000000 0.000000 0.000000 0.000000 0.037285 0.000000
# 6 0.000000 0.000000 0.000000 0.000000 0.000000 0.039130
#
#
# Mechanical properties :
#
#
# Convention : Reuss Voigt Hill
#
# Bulk Modulus (GPa) = 57.58350 65.15654 61.37002
# Shear Modulus (GPa) = 24.57615 26.34884 25.46249
#
# Velocity S-wave (km/s) = 3.67230 3.80244 3.73794
# Velocity P-wave (km/s) = 7.04125 7.41834 7.23226
#
# Compressibility (1/GPa) = 0.01736608
#
# Stress axis : x y z
#
# Youngs Moduli (GPa) = 93.73327 73.67863 63.47482
#
# Poissons Ratio (x) = 0.38828 0.25397
# Poissons Ratio (y) = 0.49397 0.12972
# Poissons Ratio (z) = 0.37503 0.15057
#
# Static dielectric constant tensor:
#      x y z
#    x 3.730630 0.000000 0.000000 
#    y 0.000000 3.781320 0.000000 
#    z 0.000000 0.000000 3.374120 
# 
# 
# High freq. dielectric constant tensor:
#      x y z
#    x 1.719780 0.000000 0.000000 
#    y 0.000000 1.707980 0.000000 
#    z 0.000000 0.000000 1.711340 
# 
# From -- ./inp_files/18005.got.cif
#   From: 2010.03.12/outbox.cif.g09.slc.cpg/sg63_10_cif.got.tgz:18005.got - 2010.04.10 19:34:48.
