data_PCOD8258637
_publ_section_title
;
Structure prediction by ZEFSAII (Michael W. Deem and Ramdas Pophale) SiO2 
 PCOD8258637
Probable space group: C M C M
;
_chemical_formula_sum "Si O2"
_cell_formula_units_Z 96
_cell_length_a 23.572975
_cell_length_b 23.972787
_cell_length_c 9.070537
_cell_angle_alpha 90.000000
_cell_angle_beta 90.000000
_cell_angle_gamma 90.000000
_cell_volume 5125.850335
_symmetry_space_group_name_H-M "C M C M"
_symmetry_group_IT_number 63
_symmetry_cell_setting 'orthorhombic'
loop_
_space_group_symop_operation_xyz
x,y,z
-x,-y,1/2+z
x,-y,-z
-x,y,1/2-z
-x,-y,-z
x,y,1/2-z
-x,y,z
x,-y,1/2+z
1/2+x,1/2+y,z
1/2-x,1/2-y,1/2+z
1/2+x,1/2-y,-z
1/2-x,1/2+y,1/2-z
1/2-x,1/2-y,-z
1/2+x,1/2+y,1/2-z
1/2-x,1/2+y,z
1/2+x,1/2-y,1/2+z
loop_
_atom_site_type_symbol
_atom_site_label
_atom_site_fract_x
_atom_site_fract_y
_atom_site_fract_z
Si Si1 0.361003 0.160812 0.577025
Si Si2 0.934694 0.443002 0.076823
Si Si3 0.934717 0.118328 0.578332
Si Si4 0.131077 0.771710 0.418233
Si Si5 0.230900 0.850226 0.078533
Si Si6 0.660999 0.443080 0.575288
O O1 0.368739 0.163670 0.750000
O O2 0.396013 0.107708 0.515749
O O3 0.385569 0.218082 0.513247
O O4 0.295517 0.157482 0.530087
O O5 0.926102 0.451104 0.250000
O O6 0.000000 0.429612 0.037293
O O7 0.914474 0.500000 0.000000
O O8 0.923035 0.105635 0.750000
O O9 0.913251 0.180098 0.538822
O O10 0.901644 0.073139 0.481186
O O11 0.000000 0.113447 0.536214
O O12 0.124109 0.753758 0.250000
O O13 0.195250 0.793474 0.448849
O O14 0.225132 0.868174 0.250000
O O15 0.206653 0.897666 0.973600
O O16 0.680399 0.500000 0.500000
O O17 0.660560 0.449284 0.750000
#
# Coordination Sequence:
#
# PCOD8258637 Si02
#       6
#    16  16  16  16  16  16
#     4  10  20  33  53  79 105 136 173 213 257 308
#     4   9  19  36  54  73 100 132 166 208 257 304
#     4   9  19  37  57  77 106 142 178 219 263 304
#     4   9  18  32  51  76 106 138 171 210 256 305
#     4   9  19  36  53  73 105 140 175 216 260 305
#     4  11  22  36  55  78 105 138 176 218 266 316
#
# _framework density 18.728601000000001
#
# number of rings (size 3 to 8) (size 9 to 14) (size 15 to 20)
#    0.000    2.500    0.000    3.000    0.000    6.000 
#    0.000    1.667    0.000    0.000    0.000    0.000 
#    0.000    0.000    0.000    0.000    0.000    0.000 
#
# Total GULP energy -595247.928280 kJ/mol
# GULP energy per Si atom -12400.998506 kJ/mol
# Density = 1.868597 g / cm^3
# Si number density = 18.728601 Si / 1000 Ang^3
#
#
#
# Elastic Constant Matrix: (Units=GPa)
#
#
# Indices 1 2 3 4 5 6 
#
# 1 32.3430 10.1501 13.5572 0.0000 0.0000 0.0000
# 2 10.1501 106.5313 39.3126 0.0000 0.0000 0.0000
# 3 13.5572 39.3126 63.8396 0.0000 0.0000 0.0000
# 4 0.0000 0.0000 0.0000 38.3828 0.0000 0.0000
# 5 0.0000 0.0000 0.0000 0.0000 22.9497 0.0000
# 6 0.0000 0.0000 0.0000 0.0000 0.0000 20.8435
#
#
#
# Elastic Compliance Matrix: (Units=1/GPa)
#
#
# Indices 1 2 3 4 5 6 
#
# 1 0.033985 -0.000744 -0.006759 0.000000 0.000000 0.000000
# 2 -0.000744 0.012164 -0.007332 0.000000 0.000000 0.000000
# 3 -0.006759 -0.007332 0.021615 0.000000 0.000000 0.000000
# 4 0.000000 0.000000 0.000000 0.026053 0.000000 0.000000
# 5 0.000000 0.000000 0.000000 0.000000 0.043574 0.000000
# 6 0.000000 0.000000 0.000000 0.000000 0.000000 0.047977
#
#
# Mechanical properties :
#
#
# Convention : Reuss Voigt Hill
#
# Bulk Modulus (GPa) = 26.25150 36.52817 31.38984
# Shear Modulus (GPa) = 21.95527 25.74814 23.85170
#
# Velocity S-wave (km/s) = 3.42758 3.71186 3.57255
# Velocity P-wave (km/s) = 5.45084 6.15766 5.81500
#
# Compressibility (1/GPa) = 0.03809306
#
# Stress axis : x y z
#
# Youngs Moduli (GPa) = 29.42458 82.21231 46.26415
#
# Poissons Ratio (x) = 0.06114 0.31271
# Poissons Ratio (y) = 0.02188 0.33923
# Poissons Ratio (z) = 0.19889 0.60282
#
# Static dielectric constant tensor:
#      x y z
#    x 3.491350 0.000000 0.000000 
#    y 0.000000 3.433600 0.000000 
#    z 0.000000 0.000000 3.281170 
# 
# 
# High freq. dielectric constant tensor:
#      x y z
#    x 1.725070 0.000000 0.000000 
#    y 0.000000 1.730210 0.000000 
#    z 0.000000 0.000000 1.717570 
# 
# From -- ./inp_files/10497.got.cif
#   From: 2010.03.12/outbox.cif.g09.slc.cpg/sg63_6_cif.got.tgz:10497.got - 2010.04.10 19:34:48.
