data_PCOD8258915
_publ_section_title
;
Structure prediction by ZEFSAII (Michael W. Deem and Ramdas Pophale) SiO2 
 PCOD8258915
Probable space group: C M C M
;
_chemical_formula_sum "Si O2"
_cell_formula_units_Z 80
_cell_length_a 13.150129
_cell_length_b 10.827178
_cell_length_c 29.611115
_cell_angle_alpha 90.000000
_cell_angle_beta 90.000000
_cell_angle_gamma 90.000000
_cell_volume 4215.994647
_symmetry_space_group_name_H-M "C M C M"
_symmetry_group_IT_number 63
_symmetry_cell_setting 'orthorhombic'
loop_
_space_group_symop_operation_xyz
x,y,z
-x,-y,1/2+z
x,-y,-z
-x,y,1/2-z
-x,-y,-z
x,y,1/2-z
-x,y,z
x,-y,1/2+z
1/2+x,1/2+y,z
1/2-x,1/2-y,1/2+z
1/2+x,1/2-y,-z
1/2-x,1/2+y,1/2-z
1/2-x,1/2-y,-z
1/2+x,1/2+y,1/2-z
1/2-x,1/2+y,z
1/2+x,1/2-y,1/2+z
loop_
_atom_site_type_symbol
_atom_site_label
_atom_site_fract_x
_atom_site_fract_y
_atom_site_fract_z
Si Si1 0.116315 0.021008 0.902255
Si Si2 0.112061 0.477469 0.250000
Si Si3 0.751617 0.129225 0.825653
Si Si4 0.385157 0.760695 0.398130
Si Si5 0.888995 0.763578 0.250000
Si Si6 0.738923 0.876097 0.027879
O O1 0.183331 0.038558 0.857374
O O2 0.157180 0.102812 0.943944
O O3 0.000000 0.060076 0.892744
O O4 0.124482 0.878290 0.916828
O O5 0.173553 0.446167 0.204924
O O6 0.093647 0.620403 0.250000
O O7 0.000000 0.412306 0.250000
O O8 0.687354 0.226368 0.854894
O O9 0.829581 0.203008 0.795037
O O10 0.500000 0.791224 0.383475
O O11 0.353653 0.856429 0.437262
O O12 0.000000 0.829482 0.250000
O O13 0.750000 0.750000 0.000000
O O14 0.712710 0.000000 0.000000
#
# Coordination Sequence:
#
# PCOD8258915 Si02
#       6
#    16   8  16  16   8  16
#     4  10  21  37  59  83 112 151 191 234 286 341
#     4  10  20  34  54  80 114 150 184 229 288 339
#     4  10  20  35  56  81 111 148 191 235 278 336
#     4  10  21  37  58  83 114 149 189 236 286 340
#     4  10  20  34  54  80 112 148 188 233 280 335
#     4  11  22  39  61  86 116 149 189 236 282 340
#
# _framework density 18.975356000000001
#
# number of rings (size 3 to 8) (size 9 to 14) (size 15 to 20)
#    0.000    1.800    2.000    2.400    0.000    1.600 
#    0.000    0.000    0.000    9.600    0.000    0.000 
#    0.000    0.000    0.000    0.000    0.000    0.000 
#
# Total GULP energy -495932.503316 kJ/mol
# GULP energy per Si atom -12398.312583 kJ/mol
# Density = 1.893217 g / cm^3
# Si number density = 18.975356 Si / 1000 Ang^3
#
#
#
# Elastic Constant Matrix: (Units=GPa)
#
#
# Indices 1 2 3 4 5 6 
#
# 1 166.3452 53.7580 70.4692 0.0000 0.0000 0.0000
# 2 53.7580 98.3943 52.1961 0.0000 0.0000 0.0000
# 3 70.4692 52.1961 124.6954 0.0000 0.0000 0.0000
# 4 0.0000 0.0000 0.0000 22.3994 0.0000 0.0000
# 5 0.0000 0.0000 0.0000 0.0000 13.9340 0.0000
# 6 0.0000 0.0000 0.0000 0.0000 0.0000 28.7408
#
#
#
# Elastic Compliance Matrix: (Units=1/GPa)
#
#
# Indices 1 2 3 4 5 6 
#
# 1 0.008415 -0.002667 -0.003639 0.000000 0.000000 0.000000
# 2 -0.002667 0.013909 -0.004315 0.000000 0.000000 0.000000
# 3 -0.003639 -0.004315 0.011882 0.000000 0.000000 0.000000
# 4 0.000000 0.000000 0.000000 0.044644 0.000000 0.000000
# 5 0.000000 0.000000 0.000000 0.000000 0.071767 0.000000
# 6 0.000000 0.000000 0.000000 0.000000 0.000000 0.034794
#
#
# Mechanical properties :
#
#
# Convention : Reuss Voigt Hill
#
# Bulk Modulus (GPa) = 77.13557 82.47572 79.80565
# Shear Modulus (GPa) = 23.69938 27.21562 25.45750
#
# Velocity S-wave (km/s) = 3.53789 3.79127 3.66677
# Velocity P-wave (km/s) = 7.57810 7.91985 7.75086
#
# Compressibility (1/GPa) = 0.01296419
#
# Stress axis : x y z
#
# Youngs Moduli (GPa) = 118.83172 71.89367 84.15777
#
# Poissons Ratio (x) = 0.19175 0.30627
# Poissons Ratio (y) = 0.31694 0.36314
# Poissons Ratio (z) = 0.43246 0.31022
#
# Static dielectric constant tensor:
#      x y z
#    x 3.743990 0.000000 0.000000 
#    y 0.000000 3.360080 0.000000 
#    z 0.000000 0.000000 3.645600 
# 
# 
# High freq. dielectric constant tensor:
#      x y z
#    x 1.748950 0.000000 0.000000 
#    y 0.000000 1.729810 0.000000 
#    z 0.000000 0.000000 1.747030 
# 
# From -- ./inp_files/72538.got.cif
#   From: 2010.03.12/outbox.cif.g09.slc.cpg/sg63_37_cif.got.tgz:72538.got - 2010.04.10 19:34:48.
