data_PCOD8258136
_publ_section_title
;
Structure prediction by ZEFSAII (Michael W. Deem and Ramdas Pophale) SiO2 
 PCOD8258136
Probable space group: C M C M
;
_chemical_formula_sum "Si O2"
_cell_formula_units_Z 112
_cell_length_a 30.628931
_cell_length_b 11.982743
_cell_length_c 14.893881
_cell_angle_alpha 90.000000
_cell_angle_beta 90.000000
_cell_angle_gamma 90.000000
_cell_volume 5466.331480
_symmetry_space_group_name_H-M "C M C M"
_symmetry_group_IT_number 63
_symmetry_cell_setting 'orthorhombic'
loop_
_space_group_symop_operation_xyz
x,y,z
-x,-y,1/2+z
x,-y,-z
-x,y,1/2-z
-x,-y,-z
x,y,1/2-z
-x,y,z
x,-y,1/2+z
1/2+x,1/2+y,z
1/2-x,1/2-y,1/2+z
1/2+x,1/2-y,-z
1/2-x,1/2+y,1/2-z
1/2-x,1/2-y,-z
1/2+x,1/2+y,1/2-z
1/2-x,1/2+y,z
1/2+x,1/2-y,1/2+z
loop_
_atom_site_type_symbol
_atom_site_label
_atom_site_fract_x
_atom_site_fract_y
_atom_site_fract_z
Si Si1 0.374195 0.278948 0.650930
Si Si2 0.910057 0.013309 0.906219
Si Si3 0.686576 0.163038 0.151875
Si Si4 0.049910 0.232411 0.649603
Si Si5 0.389262 0.875197 0.519881
Si Si6 0.183042 0.104394 0.908363
Si Si7 0.714496 0.626022 0.103512
O O1 0.385982 0.230697 0.750000
O O2 0.401276 0.394984 0.641615
O O3 0.386028 0.190270 0.574122
O O4 0.321980 0.297300 0.650090
O O5 0.936202 0.101731 0.845982
O O6 0.865171 0.070958 0.938711
O O7 0.936563 0.000000 0.000000
O O8 0.675507 0.110142 0.250000
O O9 0.657174 0.111657 0.072121
O O10 0.677949 0.294954 0.160694
O O11 0.737395 0.155900 0.131919
O O12 0.056028 0.280241 0.750000
O O13 0.077580 0.308648 0.582704
O O14 0.000000 0.240511 0.618312
O O15 0.406507 0.000000 0.500000
O O16 0.207182 0.000659 0.862402
O O17 0.209809 0.140318 0.996647
#
# Coordination Sequence:
#
# PCOD8258136 Si02
#       7
#    16  16  16  16  16  16  16
#     4  11  22  39  63  95 131 170 215 260 315 382
#     4  11  17  39  68  99 128 168 200 250 330 388
#     4  12  24  37  59  88 122 165 217 270 316 372
#     4  11  24  44  73 104 130 160 208 265 322 392
#     4  12  27  45  65  87 126 176 218 269 322 377
#     4  10  19  36  63  83 122 168 208 253 314 375
#     4  10  20  36  57  88 123 168 212 258 319 373
#
# _framework density 20.489063000000002
#
# number of rings (size 3 to 8) (size 9 to 14) (size 15 to 20)
#    0.000    1.000    7.143    1.714    2.000    4.571 
#    0.000    0.000    0.000    0.429    0.000    0.000 
#    0.000    0.000    0.000    0.000    0.000    0.000 
#
# Total GULP energy -694000.953987 kJ/mol
# GULP energy per Si atom -12392.874178 kJ/mol
# Density = 2.044243 g / cm^3
# Si number density = 20.489063 Si / 1000 Ang^3
#
#
#
# Elastic Constant Matrix: (Units=GPa)
#
#
# Indices 1 2 3 4 5 6 
#
# 1 75.6636 35.4588 45.0485 0.0000 0.0000 0.0000
# 2 35.4588 110.0640 43.2491 0.0000 0.0000 0.0000
# 3 45.0485 43.2491 145.4877 0.0000 0.0000 0.0000
# 4 0.0000 0.0000 0.0000 14.0661 0.0000 0.0000
# 5 0.0000 0.0000 0.0000 0.0000 2.5457 0.0000
# 6 0.0000 0.0000 0.0000 0.0000 0.0000 11.9760
#
#
#
# Elastic Compliance Matrix: (Units=1/GPa)
#
#
# Indices 1 2 3 4 5 6 
#
# 1 0.017635 -0.004003 -0.004270 0.000000 0.000000 0.000000
# 2 -0.004003 0.011196 -0.002089 0.000000 0.000000 0.000000
# 3 -0.004270 -0.002089 0.008817 0.000000 0.000000 0.000000
# 4 0.000000 0.000000 0.000000 0.071093 0.000000 0.000000
# 5 0.000000 0.000000 0.000000 0.000000 0.392820 0.000000
# 6 0.000000 0.000000 0.000000 0.000000 0.000000 0.083501
#
#
# Mechanical properties :
#
#
# Convention : Reuss Voigt Hill
#
# Bulk Modulus (GPa) = 59.09160 64.30314 61.69737
# Shear Modulus (GPa) = 8.17760 19.54815 13.86287
#
# Velocity S-wave (km/s) = 1.99997 3.09216 2.60397
# Velocity P-wave (km/s) = 5.85118 6.64838 6.26248
#
# Compressibility (1/GPa) = 0.01692288
#
# Stress axis : x y z
#
# Youngs Moduli (GPa) = 56.70531 89.31685 113.42227
#
# Poissons Ratio (x) = 0.35757 0.48436
# Poissons Ratio (y) = 0.22701 0.23690
# Poissons Ratio (z) = 0.24215 0.18655
#
# Static dielectric constant tensor:
#      x y z
#    x 3.557630 0.000000 0.000000 
#    y 0.000000 4.025060 0.000000 
#    z 0.000000 0.000000 4.088070 
# 
# 
# High freq. dielectric constant tensor:
#      x y z
#    x 1.777250 0.000000 0.000000 
#    y 0.000000 1.788570 0.000000 
#    z 0.000000 0.000000 1.811760 
# 
# From -- ./inp_files/38543.got.cif
#   From: 2010.03.12/outbox.cif.g09.slc.cpg/sg63_20_cif.got.tgz:38543.got - 2010.04.10 19:34:48.
