data_PCOD8258755
_publ_section_title
;
Structure prediction by ZEFSAII (Michael W. Deem and Ramdas Pophale) SiO2 
 PCOD8258755
Probable space group: C M C M
;
_chemical_formula_sum "Si O2"
_cell_formula_units_Z 96
_cell_length_a 22.583112
_cell_length_b 27.306207
_cell_length_c 8.807750
_cell_angle_alpha 90.000000
_cell_angle_beta 90.000000
_cell_angle_gamma 90.000000
_cell_volume 5431.379461
_symmetry_space_group_name_H-M "C M C M"
_symmetry_group_IT_number 63
_symmetry_cell_setting 'orthorhombic'
loop_
_space_group_symop_operation_xyz
x,y,z
-x,-y,1/2+z
x,-y,-z
-x,y,1/2-z
-x,-y,-z
x,y,1/2-z
-x,y,z
x,-y,1/2+z
1/2+x,1/2+y,z
1/2-x,1/2-y,1/2+z
1/2+x,1/2-y,-z
1/2-x,1/2+y,1/2-z
1/2-x,1/2-y,-z
1/2+x,1/2+y,1/2-z
1/2-x,1/2+y,z
1/2+x,1/2-y,1/2+z
loop_
_atom_site_type_symbol
_atom_site_label
_atom_site_fract_x
_atom_site_fract_y
_atom_site_fract_z
Si Si1 0.374382 0.895791 0.927342
Si Si2 0.195873 0.141175 0.574350
Si Si3 0.500000 0.873133 0.931442
Si Si4 0.816764 0.690604 0.579739
Si Si5 0.500000 0.761211 0.569791
Si Si6 0.759454 0.551842 0.069054
Si Si7 0.885327 0.214013 0.074877
O O1 0.375637 0.903491 0.750000
O O2 0.441513 0.902272 0.991634
O O3 0.325392 0.933363 0.994222
O O4 0.355367 0.840342 0.961451
O O5 0.184566 0.129139 0.750000
O O6 0.247549 0.181272 0.551257
O O7 0.211791 0.091091 0.488183
O O8 0.136441 0.163482 0.501250
O O9 0.500000 0.871180 0.750000
O O10 0.500000 0.817142 0.991890
O O11 0.833973 0.673457 0.750000
O O12 0.831807 0.747270 0.556042
O O13 0.500000 0.759698 0.750000
O O14 0.557029 0.733086 0.509435
O O15 0.757851 0.549879 0.250000
O O16 0.741842 0.500000 0.000000
O O17 0.900669 0.204333 0.250000
#
# Coordination Sequence:
#
# PCOD8258755 Si02
#       7
#    16  16   8  16   8  16  16
#     4   9  17  30  49  71  96 132 176 217 256 304
#     4  10  20  34  52  75 101 132 170 211 257 311
#     4   9  16  29  48  70  96 133 180 219 251 294
#     4   9  18  30  46  70 102 135 168 209 253 301
#     4  11  21  33  51  72 101 145 185 214 248 295
#     4  10  20  35  55  76 100 129 165 215 271 320
#     4  11  21  33  48  73 107 139 172 210 254 302
#
# _framework density 17.675066999999999
#
# number of rings (size 3 to 8) (size 9 to 14) (size 15 to 20)
#    0.000    2.167    1.667    2.250    0.000    2.000 
#    0.000    0.833    0.000    0.000    0.000    0.583 
#    0.000    0.000    0.000    0.000    0.000    0.000 
#
# Total GULP energy -594996.369965 kJ/mol
# GULP energy per Si atom -12395.757708 kJ/mol
# Density = 1.763484 g / cm^3
# Si number density = 17.675067 Si / 1000 Ang^3
#
#
#
# Elastic Constant Matrix: (Units=GPa)
#
#
# Indices 1 2 3 4 5 6 
#
# 1 53.6376 35.1800 24.9111 0.0000 0.0000 0.0000
# 2 35.1800 93.8370 34.9266 0.0000 0.0000 0.0000
# 3 24.9111 34.9266 65.9784 0.0000 0.0000 0.0000
# 4 0.0000 0.0000 0.0000 24.7091 0.0000 0.0000
# 5 0.0000 0.0000 0.0000 0.0000 25.0699 0.0000
# 6 0.0000 0.0000 0.0000 0.0000 0.0000 16.6517
#
#
#
# Elastic Compliance Matrix: (Units=1/GPa)
#
#
# Indices 1 2 3 4 5 6 
#
# 1 0.026446 -0.007719 -0.005899 0.000000 0.000000 0.000000
# 2 -0.007719 0.015525 -0.005304 0.000000 0.000000 0.000000
# 3 -0.005899 -0.005304 0.020191 0.000000 0.000000 0.000000
# 4 0.000000 0.000000 0.000000 0.040471 0.000000 0.000000
# 5 0.000000 0.000000 0.000000 0.000000 0.039889 0.000000
# 6 0.000000 0.000000 0.000000 0.000000 0.000000 0.060054
#
#
# Mechanical properties :
#
#
# Convention : Reuss Voigt Hill
#
# Bulk Modulus (GPa) = 41.12081 44.83204 42.97642
# Shear Modulus (GPa) = 20.11863 21.18181 20.65022
#
# Velocity S-wave (km/s) = 3.37746 3.46555 3.42179
# Velocity P-wave (km/s) = 6.20685 6.43685 6.32289
#
# Compressibility (1/GPa) = 0.02431859
#
# Stress axis : x y z
#
# Youngs Moduli (GPa) = 37.81263 64.41283 49.52622
#
# Poissons Ratio (x) = 0.49722 0.29215
# Poissons Ratio (y) = 0.29188 0.26268
# Poissons Ratio (z) = 0.22305 0.34163
#
# Static dielectric constant tensor:
#      x y z
#    x 3.330290 0.000000 0.000000 
#    y 0.000000 3.049250 0.000000 
#    z 0.000000 0.000000 3.258090 
# 
# 
# High freq. dielectric constant tensor:
#      x y z
#    x 1.672040 0.000000 0.000000 
#    y 0.000000 1.655120 0.000000 
#    z 0.000000 0.000000 1.684580 
# 
# From -- ./inp_files/10562.got.cif
#   From: 2010.03.12/outbox.cif.g09.slc.cpg/sg63_6_cif.got.tgz:10562.got - 2010.04.10 19:34:48.
