data_PCOD8258732
_publ_section_title
;
Structure prediction by ZEFSAII (Michael W. Deem and Ramdas Pophale) SiO2 
 PCOD8258732
Probable space group: C M C M
;
_chemical_formula_sum "Si O2"
_cell_formula_units_Z 104
_cell_length_a 29.807575
_cell_length_b 8.558472
_cell_length_c 21.220080
_cell_angle_alpha 90.000000
_cell_angle_beta 90.000000
_cell_angle_gamma 90.000000
_cell_volume 5413.397230
_symmetry_space_group_name_H-M "C M C M"
_symmetry_group_IT_number 63
_symmetry_cell_setting 'orthorhombic'
loop_
_space_group_symop_operation_xyz
x,y,z
-x,-y,1/2+z
x,-y,-z
-x,y,1/2-z
-x,-y,-z
x,y,1/2-z
-x,y,z
x,-y,1/2+z
1/2+x,1/2+y,z
1/2-x,1/2-y,1/2+z
1/2+x,1/2-y,-z
1/2-x,1/2+y,1/2-z
1/2-x,1/2-y,-z
1/2+x,1/2+y,1/2-z
1/2-x,1/2+y,z
1/2+x,1/2-y,1/2+z
loop_
_atom_site_type_symbol
_atom_site_label
_atom_site_fract_x
_atom_site_fract_y
_atom_site_fract_z
Si Si1 0.630420 0.542985 0.821338
Si Si2 0.378095 0.728047 0.098333
Si Si3 0.948095 0.723131 0.176986
Si Si4 0.797126 0.457643 0.072685
Si Si5 0.447719 0.966281 0.428910
Si Si6 0.343041 0.500000 0.000000
Si Si7 0.294801 0.693599 0.904328
O O1 0.641747 0.569228 0.750000
O O2 0.625545 0.356679 0.834063
O O3 0.584156 0.631742 0.839159
O O4 0.674633 0.606818 0.854514
O O5 0.342246 0.863681 0.086394
O O6 0.426801 0.802782 0.092391
O O7 0.374572 0.580176 0.051357
O O8 0.940727 0.664577 0.250000
O O9 0.935162 0.593823 0.124405
O O10 0.000000 0.774256 0.168218
O O11 0.756925 0.355853 0.101549
O O12 0.799614 0.622712 0.108420
O O13 0.790029 0.500000 0.000000
O O14 0.500000 0.938821 0.431960
O O15 0.429306 0.000000 0.500000
O O16 0.311690 0.360430 0.026468
#
# Coordination Sequence:
#
# PCOD8258732 Si02
#       7
#    16  16  16  16  16   8  16
#     4  10  23  41  58  83 118 153 197 245 292 348
#     4  11  23  35  58  84 114 157 194 237 291 343
#     4   9  19  39  65  86 111 156 206 246 289 349
#     4  12  21  36  59  90 117 146 196 240 288 346
#     4  10  22  38  57  90 127 155 190 243 303 357
#     4  10  20  34  51  84 112 146 189 230 284 332
#     4  11  21  36  58  85 116 148 187 240 288 340
#
# _framework density 19.211597000000001
#
# number of rings (size 3 to 8) (size 9 to 14) (size 15 to 20)
#    0.000    1.538    2.308    3.692    4.308    1.231 
#    0.000    4.231    0.000    0.000    0.000    0.000 
#    0.000    0.000    0.000    0.000    0.000    0.000 
#
# Total GULP energy -644603.845468 kJ/mol
# GULP energy per Si atom -12396.227797 kJ/mol
# Density = 1.916787 g / cm^3
# Si number density = 19.211597 Si / 1000 Ang^3
#
#
#
# Elastic Constant Matrix: (Units=GPa)
#
#
# Indices 1 2 3 4 5 6 
#
# 1 61.1803 36.9517 30.5912 0.0000 0.0000 0.0000
# 2 36.9517 122.5076 31.7821 0.0000 0.0000 0.0000
# 3 30.5912 31.7821 74.1138 0.0000 0.0000 0.0000
# 4 0.0000 0.0000 0.0000 21.0546 0.0000 0.0000
# 5 0.0000 0.0000 0.0000 0.0000 19.9087 0.0000
# 6 0.0000 0.0000 0.0000 0.0000 0.0000 34.8282
#
#
#
# Elastic Compliance Matrix: (Units=1/GPa)
#
#
# Indices 1 2 3 4 5 6 
#
# 1 0.023075 -0.005051 -0.007358 0.000000 0.000000 0.000000
# 2 -0.005051 0.010290 -0.002328 0.000000 0.000000 0.000000
# 3 -0.007358 -0.002328 0.017528 0.000000 0.000000 0.000000
# 4 0.000000 0.000000 0.000000 0.047495 0.000000 0.000000
# 5 0.000000 0.000000 0.000000 0.000000 0.050229 0.000000
# 6 0.000000 0.000000 0.000000 0.000000 0.000000 0.028712
#
#
# Mechanical properties :
#
#
# Convention : Reuss Voigt Hill
#
# Bulk Modulus (GPa) = 46.68776 50.71687 48.70231
# Shear Modulus (GPa) = 23.37044 25.72343 24.54693
#
# Velocity S-wave (km/s) = 3.49158 3.66314 3.57839
# Velocity P-wave (km/s) = 6.37256 6.65942 6.51757
#
# Compressibility (1/GPa) = 0.02141889
#
# Stress axis : x y z
#
# Youngs Moduli (GPa) = 43.33643 97.17960 57.05060
#
# Poissons Ratio (x) = 0.49087 0.41981
# Poissons Ratio (y) = 0.21890 0.13280
# Poissons Ratio (z) = 0.31889 0.22622
#
# Static dielectric constant tensor:
#      x y z
#    x 3.486660 0.000000 0.000000 
#    y 0.000000 3.726310 0.000000 
#    z 0.000000 0.000000 3.641910 
# 
# 
# High freq. dielectric constant tensor:
#      x y z
#    x 1.754380 0.000000 0.000000 
#    y 0.000000 1.750370 0.000000 
#    z 0.000000 0.000000 1.736270 
# 
# From -- ./inp_files/58203.got.cif
#   From: 2010.03.12/outbox.cif.g09.slc.cpg/sg63_30_cif.got.tgz:58203.got - 2010.04.10 19:34:48.
