data_PCOD8258328
_publ_section_title
;
Structure prediction by ZEFSAII (Michael W. Deem and Ramdas Pophale) SiO2 
 PCOD8258328
Probable space group: C M C M
;
_chemical_formula_sum "Si O2"
_cell_formula_units_Z 80
_cell_length_a 32.146529
_cell_length_b 14.573446
_cell_length_c 9.314192
_cell_angle_alpha 90.000000
_cell_angle_beta 90.000000
_cell_angle_gamma 90.000000
_cell_volume 4363.565801
_symmetry_space_group_name_H-M "C M C M"
_symmetry_group_IT_number 63
_symmetry_cell_setting 'orthorhombic'
loop_
_space_group_symop_operation_xyz
x,y,z
-x,-y,1/2+z
x,-y,-z
-x,y,1/2-z
-x,-y,-z
x,y,1/2-z
-x,y,z
x,-y,1/2+z
1/2+x,1/2+y,z
1/2-x,1/2-y,1/2+z
1/2+x,1/2-y,-z
1/2-x,1/2+y,1/2-z
1/2-x,1/2-y,-z
1/2+x,1/2+y,1/2-z
1/2-x,1/2+y,z
1/2+x,1/2-y,1/2+z
loop_
_atom_site_type_symbol
_atom_site_label
_atom_site_fract_x
_atom_site_fract_y
_atom_site_fract_z
Si Si1 0.177766 0.415126 0.589000
Si Si2 0.353808 0.406394 0.578403
Si Si3 0.047357 0.590101 0.083150
Si Si4 0.115486 0.262279 0.581955
Si Si5 0.764321 0.836754 0.587629
O O1 0.160219 0.500000 0.500000
O O2 0.162833 0.434071 0.750000
O O3 0.156659 0.320216 0.538643
O O4 0.227584 0.411233 0.576119
O O5 0.366663 0.500000 0.500000
O O6 0.358704 0.415813 0.750000
O O7 0.384497 0.328104 0.517030
O O8 0.306631 0.382288 0.530444
O O9 0.051876 0.567337 0.250000
O O10 0.074961 0.678177 0.042065
O O11 0.000000 0.613952 0.040492
O O12 0.063159 0.500000 0.000000
O O13 0.115972 0.234441 0.750000
O O14 0.770895 0.803276 0.750000
O O15 0.750000 0.750000 0.500000
#
# Coordination Sequence:
#
# PCOD8258328 Si02
#       5
#    16  16  16  16  16
#     4  10  20  32  48  72 101 134 170 209 256 304
#     4  11  23  37  55  77 102 138 181 224 268 313
#     4   9  18  33  55  84 115 145 174 207 255 314
#     4  10  20  35  54  76 107 140 173 217 261 308
#     4  10  20  34  51  72  99 135 176 218 263 308
#
# _framework density 18.333628999999998
#
# number of rings (size 3 to 8) (size 9 to 14) (size 15 to 20)
#    0.000    2.000    2.000    1.800    0.000    3.200 
#    0.000    0.000    0.000    0.600    0.000    0.000 
#    0.000    0.000    0.000    0.000    0.000    0.000 
#
# Total GULP energy -496007.937477 kJ/mol
# GULP energy per Si atom -12400.198437 kJ/mol
# Density = 1.829190 g / cm^3
# Si number density = 18.333629 Si / 1000 Ang^3
#
#
#
# Elastic Constant Matrix: (Units=GPa)
#
#
# Indices 1 2 3 4 5 6 
#
# 1 80.6373 41.7373 26.7184 0.0000 0.0000 0.0000
# 2 41.7373 143.5660 70.4991 0.0000 0.0000 0.0000
# 3 26.7184 70.4991 76.4649 0.0000 0.0000 0.0000
# 4 0.0000 0.0000 0.0000 39.8135 0.0000 0.0000
# 5 0.0000 0.0000 0.0000 0.0000 19.6073 0.0000
# 6 0.0000 0.0000 0.0000 0.0000 0.0000 24.8065
#
#
#
# Elastic Compliance Matrix: (Units=1/GPa)
#
#
# Indices 1 2 3 4 5 6 
#
# 1 0.014798 -0.003221 -0.002201 0.000000 0.000000 0.000000
# 2 -0.003221 0.013429 -0.011256 0.000000 0.000000 0.000000
# 3 -0.002201 -0.011256 0.024224 0.000000 0.000000 0.000000
# 4 0.000000 0.000000 0.000000 0.025117 0.000000 0.000000
# 5 0.000000 0.000000 0.000000 0.000000 0.051001 0.000000
# 6 0.000000 0.000000 0.000000 0.000000 0.000000 0.040312
#
#
# Mechanical properties :
#
#
# Convention : Reuss Voigt Hill
#
# Bulk Modulus (GPa) = 52.36754 64.28641 58.32698
# Shear Modulus (GPa) = 23.96901 27.62637 25.79769
#
# Velocity S-wave (km/s) = 3.61969 3.88605 3.75523
# Velocity P-wave (km/s) = 6.78935 7.43479 7.11939
#
# Compressibility (1/GPa) = 0.01909580
#
# Stress axis : x y z
#
# Youngs Moduli (GPa) = 67.57805 74.46468 41.28055
#
# Poissons Ratio (x) = 0.23988 0.09084
# Poissons Ratio (y) = 0.21769 0.46465
# Poissons Ratio (z) = 0.14871 0.83816
#
# Static dielectric constant tensor:
#      x y z
#    x 3.471030 0.000000 0.000000 
#    y 0.000000 3.212900 0.000000 
#    z 0.000000 0.000000 3.334120 
# 
# 
# High freq. dielectric constant tensor:
#      x y z
#    x 1.696830 0.000000 0.000000 
#    y 0.000000 1.703050 0.000000 
#    z 0.000000 0.000000 1.709430 
# 
# From -- ./inp_files/25650.got.cif
#   From: 2010.03.12/outbox.cif.g09.slc.cpg/sg63_13_cif.got.tgz:25650.got - 2010.04.10 19:34:48.
