data_PCOD8258905
_publ_section_title
;
Structure prediction by ZEFSAII (Michael W. Deem and Ramdas Pophale) SiO2 
 PCOD8258905
Probable space group: C M C M
;
_chemical_formula_sum "Si O2"
_cell_formula_units_Z 64
_cell_length_a 23.351021
_cell_length_b 7.881100
_cell_length_c 16.938811
_cell_angle_alpha 90.000000
_cell_angle_beta 90.000000
_cell_angle_gamma 90.000000
_cell_volume 3117.278720
_symmetry_space_group_name_H-M "C M C M"
_symmetry_group_IT_number 63
_symmetry_cell_setting 'orthorhombic'
loop_
_space_group_symop_operation_xyz
x,y,z
-x,-y,1/2+z
x,-y,-z
-x,y,1/2-z
-x,-y,-z
x,y,1/2-z
-x,y,z
x,-y,1/2+z
1/2+x,1/2+y,z
1/2-x,1/2-y,1/2+z
1/2+x,1/2-y,-z
1/2-x,1/2+y,1/2-z
1/2-x,1/2-y,-z
1/2+x,1/2+y,1/2-z
1/2-x,1/2+y,z
1/2+x,1/2-y,1/2+z
loop_
_atom_site_type_symbol
_atom_site_label
_atom_site_fract_x
_atom_site_fract_y
_atom_site_fract_z
Si Si1 0.437647 0.051994 0.910507
Si Si2 0.860516 0.833895 0.951030
Si Si3 0.171744 0.639995 0.398731
Si Si4 0.277963 0.479302 0.340564
O O1 0.500000 0.041465 0.867422
O O2 0.415214 0.246777 0.909369
O O3 0.391005 0.925741 0.870355
O O4 0.446276 0.000000 0.000000
O O5 0.816777 0.879821 0.882329
O O6 0.830678 0.696077 0.009404
O O7 0.880140 0.000000 0.000000
O O8 0.216504 0.485619 0.385277
O O9 0.192862 0.795712 0.345238
O O10 0.270606 0.532386 0.250000
#
# Coordination Sequence:
#
# PCOD8258905 Si02
#       4
#    16  16  16  16
#     4   9  18  34  56  80 105 137 179 222 263 314
#     4   9  19  34  55  84 112 138 173 221 275 327
#     4  10  20  34  54  80 108 141 179 223 272 323
#     4  11  21  34  54  79 110 142 178 224 273 327
#
# _framework density 20.530726999999999
#
# number of rings (size 3 to 8) (size 9 to 14) (size 15 to 20)
#    0.000    2.250    0.000    3.000    0.000    7.500 
#    0.000    5.000    0.000    8.250    0.000    0.000 
#    0.000    0.000    0.000    0.000    0.000    0.000 
#
# Total GULP energy -396615.603889 kJ/mol
# GULP energy per Si atom -12394.237622 kJ/mol
# Density = 2.048400 g / cm^3
# Si number density = 20.530727 Si / 1000 Ang^3
#
#
#
# Elastic Constant Matrix: (Units=GPa)
#
#
# Indices 1 2 3 4 5 6 
#
# 1 202.1186 82.1179 40.8359 0.0000 0.0000 0.0000
# 2 82.1179 111.2900 30.3398 0.0000 0.0000 0.0000
# 3 40.8359 30.3398 60.8863 0.0000 0.0000 0.0000
# 4 0.0000 0.0000 0.0000 16.8243 0.0000 0.0000
# 5 0.0000 0.0000 0.0000 0.0000 3.3068 0.0000
# 6 0.0000 0.0000 0.0000 0.0000 0.0000 21.8195
#
#
#
# Elastic Compliance Matrix: (Units=1/GPa)
#
#
# Indices 1 2 3 4 5 6 
#
# 1 0.007404 -0.004756 -0.002596 0.000000 0.000000 0.000000
# 2 -0.004756 0.013453 -0.003514 0.000000 0.000000 0.000000
# 3 -0.002596 -0.003514 0.019916 0.000000 0.000000 0.000000
# 4 0.000000 0.000000 0.000000 0.059438 0.000000 0.000000
# 5 0.000000 0.000000 0.000000 0.000000 0.302403 0.000000
# 6 0.000000 0.000000 0.000000 0.000000 0.000000 0.045830
#
#
# Mechanical properties :
#
#
# Convention : Reuss Voigt Hill
#
# Bulk Modulus (GPa) = 52.51654 75.65357 64.08505
# Shear Modulus (GPa) = 10.49267 23.12356 16.80812
#
# Velocity S-wave (km/s) = 2.26314 3.35967 2.86436
# Velocity P-wave (km/s) = 5.69773 7.20963 6.49780
#
# Compressibility (1/GPa) = 0.01904162
#
# Stress axis : x y z
#
# Youngs Moduli (GPa) = 135.05709 74.33539 50.21011
#
# Poissons Ratio (x) = 0.35351 0.13036
# Poissons Ratio (y) = 0.64228 0.17643
# Poissons Ratio (z) = 0.35064 0.26121
#
# Static dielectric constant tensor:
#      x y z
#    x 4.199600 0.000000 0.000000 
#    y 0.000000 3.962370 0.000000 
#    z 0.000000 0.000000 3.287900 
# 
# 
# High freq. dielectric constant tensor:
#      x y z
#    x 1.795180 0.000000 0.000000 
#    y 0.000000 1.818200 0.000000 
#    z 0.000000 0.000000 1.763670 
# 
# From -- ./inp_files/36178.got.cif
#   From: 2010.03.12/outbox.cif.g09.slc.cpg/sg63_19_cif.got.tgz:36178.got - 2010.04.10 19:34:48.
