data_PCOD8258714
_publ_section_title
;
Structure prediction by ZEFSAII (Michael W. Deem and Ramdas Pophale) SiO2 
 PCOD8258714
Probable space group: C M C M
;
_chemical_formula_sum "Si O2"
_cell_formula_units_Z 88
_cell_length_a 16.797403
_cell_length_b 30.230088
_cell_length_c 9.608340
_cell_angle_alpha 90.000000
_cell_angle_beta 90.000000
_cell_angle_gamma 90.000000
_cell_volume 4878.989864
_symmetry_space_group_name_H-M "C M C M"
_symmetry_group_IT_number 63
_symmetry_cell_setting 'orthorhombic'
loop_
_space_group_symop_operation_xyz
x,y,z
-x,-y,1/2+z
x,-y,-z
-x,y,1/2-z
-x,-y,-z
x,y,1/2-z
-x,y,z
x,-y,1/2+z
1/2+x,1/2+y,z
1/2-x,1/2-y,1/2+z
1/2+x,1/2-y,-z
1/2-x,1/2+y,1/2-z
1/2-x,1/2-y,-z
1/2+x,1/2+y,1/2-z
1/2-x,1/2+y,z
1/2+x,1/2-y,1/2+z
loop_
_atom_site_type_symbol
_atom_site_label
_atom_site_fract_x
_atom_site_fract_y
_atom_site_fract_z
Si Si1 0.406860 0.959624 0.409121
Si Si2 0.408587 0.699131 0.401451
Si Si3 0.310613 0.123446 0.914998
Si Si4 0.589649 0.795113 0.415405
Si Si5 0.369113 0.382631 0.086187
Si Si6 0.000000 0.045660 0.913985
O O1 0.383168 0.968978 0.250000
O O2 0.500000 0.952410 0.427028
O O3 0.365338 0.916161 0.468899
O O4 0.374905 0.000000 0.500000
O O5 0.370917 0.685823 0.250000
O O6 0.500000 0.709574 0.375402
O O7 0.374921 0.746550 0.456170
O O8 0.401598 0.661097 0.514145
O O9 0.311221 0.125947 0.750000
O O10 0.347846 0.168787 0.977030
O O11 0.221399 0.112692 0.966645
O O12 0.586316 0.799696 0.250000
O O13 0.500000 0.803557 0.475203
O O14 0.375758 0.374672 0.250000
O O15 0.421539 0.425673 0.045116
O O16 0.000000 0.034252 0.750000
O O17 0.000000 0.000000 0.000000
#
# Coordination Sequence:
#
# PCOD8258714 Si02
#       6
#    16  16  16  16  16   8
#     4   9  17  30  49  71  94 124 160 196 237 286
#     4   9  17  30  50  73  97 127 164 201 237 283
#     4   9  17  29  47  71  99 129 161 198 241 289
#     4   8  14  26  46  73 101 129 163 201 234 274
#     4  10  20  34  51  72  98 127 159 199 247 296
#     4  10  22  38  54  72  94 124 164 208 251 296
#
# _framework density 18.036519999999999
#
# number of rings (size 3 to 8) (size 9 to 14) (size 15 to 20)
#    0.000    2.909    0.909    1.636    0.000    4.364 
#    0.000    0.909    0.000    1.091    0.000    2.545 
#    0.000    0.000    0.000    0.000    0.000    0.000 
#
# Total GULP energy -545209.258751 kJ/mol
# GULP energy per Si atom -12391.119517 kJ/mol
# Density = 1.799547 g / cm^3
# Si number density = 18.036520 Si / 1000 Ang^3
#
#
#
# Elastic Constant Matrix: (Units=GPa)
#
#
# Indices 1 2 3 4 5 6 
#
# 1 75.9262 64.3809 25.7988 0.0000 0.0000 0.0000
# 2 64.3809 176.2024 51.2794 0.0000 0.0000 0.0000
# 3 25.7988 51.2794 37.0650 0.0000 0.0000 0.0000
# 4 0.0000 0.0000 0.0000 25.5250 0.0000 0.0000
# 5 0.0000 0.0000 0.0000 0.0000 12.6521 0.0000
# 6 0.0000 0.0000 0.0000 0.0000 0.0000 10.2681
#
#
#
# Elastic Compliance Matrix: (Units=1/GPa)
#
#
# Indices 1 2 3 4 5 6 
#
# 1 0.019940 -0.005435 -0.006360 0.000000 0.000000 0.000000
# 2 -0.005435 0.010982 -0.011410 0.000000 0.000000 0.000000
# 3 -0.006360 -0.011410 0.047193 0.000000 0.000000 0.000000
# 4 0.000000 0.000000 0.000000 0.039177 0.000000 0.000000
# 5 0.000000 0.000000 0.000000 0.000000 0.079038 0.000000
# 6 0.000000 0.000000 0.000000 0.000000 0.000000 0.097389
#
#
# Mechanical properties :
#
#
# Convention : Reuss Voigt Hill
#
# Bulk Modulus (GPa) = 31.54174 63.56796 47.55485
# Shear Modulus (GPa) = 14.25728 19.53801 16.89765
#
# Velocity S-wave (km/s) = 2.81458 3.29484 3.06413
# Velocity P-wave (km/s) = 5.29982 7.05657 6.24033
#
# Compressibility (1/GPa) = 0.03170402
#
# Stress axis : x y z
#
# Youngs Moduli (GPa) = 50.15004 91.06000 21.18965
#
# Poissons Ratio (x) = 0.49489 0.13477
# Poissons Ratio (y) = 0.27255 0.24178
# Poissons Ratio (z) = 0.31896 1.03903
#
# Static dielectric constant tensor:
#      x y z
#    x 3.555300 0.000000 0.000000 
#    y 0.000000 3.510840 0.000000 
#    z 0.000000 0.000000 2.936350 
# 
# 
# High freq. dielectric constant tensor:
#      x y z
#    x 1.693440 0.000000 0.000000 
#    y 0.000000 1.709280 0.000000 
#    z 0.000000 0.000000 1.653490 
# 
# From -- ./inp_files/6799.got.cif
#   From: 2010.03.12/outbox.cif.g09.slc.cpg/sg63_4_cif.got.tgz:6799.got - 2010.04.10 19:34:48.
