data_PCOD8258410
_publ_section_title
;
Structure prediction by ZEFSAII (Michael W. Deem and Ramdas Pophale) SiO2 
 PCOD8258410
Probable space group: C M C M
;
_chemical_formula_sum "Si O2"
_cell_formula_units_Z 72
_cell_length_a 9.127943
_cell_length_b 29.618625
_cell_length_c 13.996405
_cell_angle_alpha 90.000000
_cell_angle_beta 90.000000
_cell_angle_gamma 90.000000
_cell_volume 3784.027756
_symmetry_space_group_name_H-M "C M C M"
_symmetry_group_IT_number 63
_symmetry_cell_setting 'orthorhombic'
loop_
_space_group_symop_operation_xyz
x,y,z
-x,-y,1/2+z
x,-y,-z
-x,y,1/2-z
-x,-y,-z
x,y,1/2-z
-x,y,z
x,-y,1/2+z
1/2+x,1/2+y,z
1/2-x,1/2-y,1/2+z
1/2+x,1/2-y,-z
1/2-x,1/2+y,1/2-z
1/2-x,1/2-y,-z
1/2+x,1/2+y,1/2-z
1/2-x,1/2+y,z
1/2+x,1/2-y,1/2+z
loop_
_atom_site_type_symbol
_atom_site_label
_atom_site_fract_x
_atom_site_fract_y
_atom_site_fract_z
Si Si1 0.662996 0.190671 0.250000
Si Si2 0.175823 0.004091 0.750000
Si Si3 0.842726 0.887551 0.963048
Si Si4 0.169270 0.786824 0.562192
Si Si5 0.166107 0.458925 0.071526
Si Si6 0.773891 0.096755 0.250000
O O1 0.500000 0.210461 0.250000
O O2 0.749740 0.210872 0.162085
O O3 0.647797 0.135410 0.250000
O O4 0.223044 0.033022 0.658452
O O5 0.000000 0.995525 0.750000
O O6 0.267459 0.956650 0.750000
O O7 0.816303 0.835380 0.988915
O O8 0.859730 0.894464 0.848533
O O9 0.000000 0.903221 0.005384
O O10 0.712450 0.914932 0.012030
O O11 0.250000 0.750000 0.500000
O O12 0.000000 0.773387 0.577188
O O13 0.000000 0.452226 0.108799
O O14 0.176834 0.500000 0.000000
#
# Coordination Sequence:
#
# PCOD8258410 Si02
#       6
#     8   8  16  16  16   8
#     4  10  21  36  58  87 119 151 188 237 293 346
#     4  12  23  38  60  81 111 155 200 241 283 338
#     4  10  20  37  59  85 115 151 195 236 281 341
#     4  10  21  38  61  89 119 151 192 240 291 349
#     4  11  24  38  54  82 118 152 188 234 288 341
#     4  10  20  32  56  88 114 144 188 240 286 330
#
# _framework density 19.027345
#
# number of rings (size 3 to 8) (size 9 to 14) (size 15 to 20)
#    0.000    1.556    2.222    3.000    0.000    9.778 
#    0.000    1.111    0.000    6.667    0.000    0.000 
#    0.000    0.000    0.000    0.000    0.000    0.000 
#
# Total GULP energy -446123.983100 kJ/mol
# GULP energy per Si atom -12392.332864 kJ/mol
# Density = 1.898404 g / cm^3
# Si number density = 19.027345 Si / 1000 Ang^3
#
#
#
# Elastic Constant Matrix: (Units=GPa)
#
#
# Indices 1 2 3 4 5 6 
#
# 1 144.3364 56.8151 58.9691 0.0000 0.0000 0.0000
# 2 56.8151 106.4501 53.9211 0.0000 0.0000 0.0000
# 3 58.9691 53.9211 97.7641 0.0000 0.0000 0.0000
# 4 0.0000 0.0000 0.0000 30.2216 0.0000 0.0000
# 5 0.0000 0.0000 0.0000 0.0000 22.5383 0.0000
# 6 0.0000 0.0000 0.0000 0.0000 0.0000 22.3579
#
#
#
# Elastic Compliance Matrix: (Units=1/GPa)
#
#
# Indices 1 2 3 4 5 6 
#
# 1 0.009894 -0.003133 -0.004240 0.000000 0.000000 0.000000
# 2 -0.003133 0.014028 -0.005847 0.000000 0.000000 0.000000
# 3 -0.004240 -0.005847 0.016011 0.000000 0.000000 0.000000
# 4 0.000000 0.000000 0.000000 0.033089 0.000000 0.000000
# 5 0.000000 0.000000 0.000000 0.000000 0.044369 0.000000
# 6 0.000000 0.000000 0.000000 0.000000 0.000000 0.044727
#
#
# Mechanical properties :
#
#
# Convention : Reuss Voigt Hill
#
# Bulk Modulus (GPa) = 74.11346 76.44014 75.27680
# Shear Modulus (GPa) = 25.89936 26.94659 26.42297
#
# Velocity S-wave (km/s) = 3.69340 3.76733 3.73055
# Velocity P-wave (km/s) = 7.56465 7.69316 7.62917
#
# Compressibility (1/GPa) = 0.01349282
#
# Stress axis : x y z
#
# Youngs Moduli (GPa) = 101.07550 71.28537 62.45680
#
# Poissons Ratio (x) = 0.22333 0.26480
# Poissons Ratio (y) = 0.31666 0.36521
# Poissons Ratio (z) = 0.42853 0.41683
#
# Static dielectric constant tensor:
#      x y z
#    x 3.507750 0.000000 0.000000 
#    y 0.000000 3.505060 0.000000 
#    z 0.000000 0.000000 3.262430 
# 
# 
# High freq. dielectric constant tensor:
#      x y z
#    x 1.745750 0.000000 0.000000 
#    y 0.000000 1.733250 0.000000 
#    z 0.000000 0.000000 1.731720 
# 
# From -- ./inp_files/27935.got.cif
#   From: 2010.03.12/outbox.cif.g09.slc.cpg/sg63_14_cif.got.tgz:27935.got - 2010.04.10 19:34:48.
