data_PCOD8258709
_publ_section_title
;
Structure prediction by ZEFSAII (Michael W. Deem and Ramdas Pophale) SiO2 
 PCOD8258709
Probable space group: C M C M
;
_chemical_formula_sum "Si O2"
_cell_formula_units_Z 96
_cell_length_a 30.779206
_cell_length_b 19.640980
_cell_length_c 9.264812
_cell_angle_alpha 90.000000
_cell_angle_beta 90.000000
_cell_angle_gamma 90.000000
_cell_volume 5600.891722
_symmetry_space_group_name_H-M "C M C M"
_symmetry_group_IT_number 63
_symmetry_cell_setting 'orthorhombic'
loop_
_space_group_symop_operation_xyz
x,y,z
-x,-y,1/2+z
x,-y,-z
-x,y,1/2-z
-x,-y,-z
x,y,1/2-z
-x,y,z
x,-y,1/2+z
1/2+x,1/2+y,z
1/2-x,1/2-y,1/2+z
1/2+x,1/2-y,-z
1/2-x,1/2+y,1/2-z
1/2-x,1/2-y,-z
1/2+x,1/2+y,1/2-z
1/2-x,1/2+y,z
1/2+x,1/2-y,1/2+z
loop_
_atom_site_type_symbol
_atom_site_label
_atom_site_fract_x
_atom_site_fract_y
_atom_site_fract_z
Si Si1 0.699964 0.431858 0.580688
Si Si2 0.047603 0.683673 0.582099
Si Si3 0.139731 0.166689 0.585699
Si Si4 0.370022 0.825728 0.917168
Si Si5 0.546279 0.320429 0.086833
Si Si6 0.200440 0.567160 0.081873
O O1 0.684521 0.500000 0.500000
O O2 0.692195 0.441682 0.750000
O O3 0.671928 0.368833 0.524853
O O4 0.749846 0.415273 0.543145
O O5 0.058786 0.683763 0.750000
O O6 0.087019 0.646334 0.499448
O O7 0.045345 0.760759 0.528278
O O8 0.000000 0.649222 0.553783
O O9 0.155447 0.154071 0.750000
O O10 0.139489 0.246855 0.548657
O O11 0.090502 0.136247 0.562181
O O12 0.378918 0.837595 0.750000
O O13 0.328623 0.869269 0.969379
O O14 0.549676 0.289592 0.250000
O O15 0.500000 0.361691 0.071959
O O16 0.195183 0.552308 0.250000
O O17 0.184500 0.500000 0.000000
#
# Coordination Sequence:
#
# PCOD8258709 Si02
#       6
#    16  16  16  16  16  16
#     4  10  20  34  51  69  92 123 158 194 234 282
#     4   9  16  25  40  66  97 124 153 191 230 269
#     4   9  17  29  47  72  99 124 153 191 231 273
#     4   9  18  32  49  70  97 126 156 191 233 280
#     4   8  14  26  44  65  92 127 159 186 225 277
#     4   9  19  35  52  70  92 122 159 195 233 280
#
# _framework density 17.140127
#
# number of rings (size 3 to 8) (size 9 to 14) (size 15 to 20)
#    0.000    3.000    0.000    2.000    0.000    5.667 
#    0.000    0.000    0.000    1.000    0.000    0.000 
#    0.000    0.000    0.000    0.000    0.000    0.000 
#
# Total GULP energy -594718.664029 kJ/mol
# GULP energy per Si atom -12389.972167 kJ/mol
# Density = 1.710111 g / cm^3
# Si number density = 17.140127 Si / 1000 Ang^3
#
#
#
# Elastic Constant Matrix: (Units=GPa)
#
#
# Indices 1 2 3 4 5 6 
#
# 1 131.9437 57.8916 58.2090 0.0000 0.0000 0.0000
# 2 57.8916 59.1464 37.0428 0.0000 0.0000 0.0000
# 3 58.2090 37.0428 70.6975 0.0000 0.0000 0.0000
# 4 0.0000 0.0000 0.0000 21.9364 0.0000 0.0000
# 5 0.0000 0.0000 0.0000 0.0000 28.4954 0.0000
# 6 0.0000 0.0000 0.0000 0.0000 0.0000 5.0778
#
#
#
# Elastic Compliance Matrix: (Units=1/GPa)
#
#
# Indices 1 2 3 4 5 6 
#
# 1 0.015353 -0.010583 -0.007096 0.000000 0.000000 0.000000
# 2 -0.010583 0.032461 -0.008294 0.000000 0.000000 0.000000
# 3 -0.007096 -0.008294 0.024333 0.000000 0.000000 0.000000
# 4 0.000000 0.000000 0.000000 0.045586 0.000000 0.000000
# 5 0.000000 0.000000 0.000000 0.000000 0.035093 0.000000
# 6 0.000000 0.000000 0.000000 0.000000 0.000000 0.196937
#
#
# Mechanical properties :
#
#
# Convention : Reuss Voigt Hill
#
# Bulk Modulus (GPa) = 49.50520 63.11937 56.31229
# Shear Modulus (GPa) = 12.24162 18.34486 15.29324
#
# Velocity S-wave (km/s) = 2.67537 3.27507 2.99029
# Velocity P-wave (km/s) = 6.20393 7.15590 6.69685
#
# Compressibility (1/GPa) = 0.02019990
#
# Stress axis : x y z
#
# Youngs Moduli (GPa) = 65.13482 30.80660 41.09660
#
# Poissons Ratio (x) = 0.32603 0.29160
# Poissons Ratio (y) = 0.68933 0.34087
# Poissons Ratio (z) = 0.46217 0.25552
#
# Static dielectric constant tensor:
#      x y z
#    x 3.725390 0.000000 0.000000 
#    y 0.000000 2.801950 0.000000 
#    z 0.000000 0.000000 3.192060 
# 
# 
# High freq. dielectric constant tensor:
#      x y z
#    x 1.682800 0.000000 0.000000 
#    y 0.000000 1.605100 0.000000 
#    z 0.000000 0.000000 1.665790 
# 
# From -- ./inp_files/12367.got.cif
#   From: 2010.03.12/outbox.cif.g09.slc.cpg/sg63_7_cif.got.tgz:12367.got - 2010.04.10 19:34:48.
