data_PCOD8258234
_publ_section_title
;
Structure prediction by ZEFSAII (Michael W. Deem and Ramdas Pophale) SiO2 
 PCOD8258234
Probable space group: C M C M
;
_chemical_formula_sum "Si O2"
_cell_formula_units_Z 96
_cell_length_a 13.478855
_cell_length_b 17.218081
_cell_length_c 24.012262
_cell_angle_alpha 90.000000
_cell_angle_beta 90.000000
_cell_angle_gamma 90.000000
_cell_volume 5572.766177
_symmetry_space_group_name_H-M "C M C M"
_symmetry_group_IT_number 63
_symmetry_cell_setting 'orthorhombic'
loop_
_space_group_symop_operation_xyz
x,y,z
-x,-y,1/2+z
x,-y,-z
-x,y,1/2-z
-x,-y,-z
x,y,1/2-z
-x,y,z
x,-y,1/2+z
1/2+x,1/2+y,z
1/2-x,1/2-y,1/2+z
1/2+x,1/2-y,-z
1/2-x,1/2+y,1/2-z
1/2-x,1/2-y,-z
1/2+x,1/2+y,1/2-z
1/2-x,1/2+y,z
1/2+x,1/2-y,1/2+z
loop_
_atom_site_type_symbol
_atom_site_label
_atom_site_fract_x
_atom_site_fract_y
_atom_site_fract_z
Si Si1 0.612836 0.833791 0.484910
Si Si2 0.194113 0.630379 0.400046
Si Si3 0.888539 0.746110 0.313616
Si Si4 0.389242 0.289709 0.892277
Si Si5 0.617757 0.042011 0.893729
Si Si6 0.195192 0.335898 0.314778
O O1 0.500000 0.845282 0.503854
O O2 0.677195 0.828817 0.540524
O O3 0.626739 0.754662 0.450625
O O4 0.645074 0.907349 0.447735
O O5 0.129600 0.672021 0.352611
O O6 0.311186 0.640000 0.386838
O O7 0.165122 0.541368 0.402779
O O8 0.874828 0.717823 0.250000
O O9 0.810594 0.814838 0.327136
O O10 0.000000 0.778045 0.323703
O O11 0.500000 0.324559 0.888515
O O12 0.375456 0.228696 0.842199
O O13 0.500000 0.036963 0.884436
O O14 0.669774 0.080081 0.839934
O O15 0.171303 0.338536 0.250000
#
# Coordination Sequence:
#
# PCOD8258234 Si02
#       6
#    16  16  16  16  16  16
#     4   9  17  31  50  70  93 123 157 190 229 278
#     4  11  19  30  50  72  97 126 153 189 241 284
#     4   9  18  32  49  71  97 122 153 193 232 275
#     4   9  19  33  49  71  95 121 159 201 231 267
#     4  10  20  31  46  72  99 121 153 196 234 274
#     4   9  18  33  52  70  91 125 161 190 229 278
#
# _framework density 17.226634000000001
#
# number of rings (size 3 to 8) (size 9 to 14) (size 15 to 20)
#    0.000    2.500    0.000    4.000    0.000    3.333 
#    0.000    0.833    0.000    2.000    0.000    0.000 
#    0.000    0.000    0.000    0.000    0.000    0.000 
#
# Total GULP energy -595172.660021 kJ/mol
# GULP energy per Si atom -12399.430417 kJ/mol
# Density = 1.718743 g / cm^3
# Si number density = 17.226634 Si / 1000 Ang^3
#
#
#
# Elastic Constant Matrix: (Units=GPa)
#
#
# Indices 1 2 3 4 5 6 
#
# 1 111.8739 32.0533 35.9746 0.0000 0.0000 0.0000
# 2 32.0533 41.2583 11.8554 0.0000 0.0000 0.0000
# 3 35.9746 11.8554 87.9830 0.0000 0.0000 0.0000
# 4 0.0000 0.0000 0.0000 17.1311 0.0000 0.0000
# 5 0.0000 0.0000 0.0000 0.0000 23.5085 0.0000
# 6 0.0000 0.0000 0.0000 0.0000 0.0000 23.7265
#
#
#
# Elastic Compliance Matrix: (Units=1/GPa)
#
#
# Indices 1 2 3 4 5 6 
#
# 1 0.012738 -0.008738 -0.004031 0.000000 0.000000 0.000000
# 2 -0.008738 0.031208 -0.000632 0.000000 0.000000 0.000000
# 3 -0.004031 -0.000632 0.013099 0.000000 0.000000 0.000000
# 4 0.000000 0.000000 0.000000 0.058373 0.000000 0.000000
# 5 0.000000 0.000000 0.000000 0.000000 0.042538 0.000000
# 6 0.000000 0.000000 0.000000 0.000000 0.000000 0.042147
#
#
# Mechanical properties :
#
#
# Convention : Reuss Voigt Hill
#
# Bulk Modulus (GPa) = 33.06601 44.54246 38.80423
# Shear Modulus (GPa) = 21.09815 23.62201 22.36008
#
# Velocity S-wave (km/s) = 3.50343 3.70706 3.60668
# Velocity P-wave (km/s) = 5.96672 6.65101 6.31813
#
# Compressibility (1/GPa) = 0.03024253
#
# Stress axis : x y z
#
# Youngs Moduli (GPa) = 78.50232 32.04325 76.34015
#
# Poissons Ratio (x) = 0.28000 0.30773
# Poissons Ratio (y) = 0.68596 0.04827
# Poissons Ratio (z) = 0.31645 0.02026
#
# Static dielectric constant tensor:
#      x y z
#    x 3.315530 0.000000 0.000000 
#    y 0.000000 2.920220 0.000000 
#    z 0.000000 0.000000 3.326380 
# 
# 
# High freq. dielectric constant tensor:
#      x y z
#    x 1.669930 0.000000 0.000000 
#    y 0.000000 1.634450 0.000000 
#    z 0.000000 0.000000 1.675690 
# 
# From -- ./inp_files/61482.got.cif
#   From: 2010.03.12/outbox.cif.g09.slc.cpg/sg63_31_cif.got.tgz:61482.got - 2010.04.10 19:34:48.
