data_PCOD8258526
_publ_section_title
;
Structure prediction by ZEFSAII (Michael W. Deem and Ramdas Pophale) SiO2 
 PCOD8258526
Probable space group: C M C M
;
_chemical_formula_sum "Si O2"
_cell_formula_units_Z 96
_cell_length_a 25.525091
_cell_length_b 8.946668
_cell_length_c 22.896867
_cell_angle_alpha 90.000000
_cell_angle_beta 90.000000
_cell_angle_gamma 90.000000
_cell_volume 5228.831924
_symmetry_space_group_name_H-M "C M C M"
_symmetry_group_IT_number 63
_symmetry_cell_setting 'orthorhombic'
loop_
_space_group_symop_operation_xyz
x,y,z
-x,-y,1/2+z
x,-y,-z
-x,y,1/2-z
-x,-y,-z
x,y,1/2-z
-x,y,z
x,-y,1/2+z
1/2+x,1/2+y,z
1/2-x,1/2-y,1/2+z
1/2+x,1/2-y,-z
1/2-x,1/2+y,1/2-z
1/2-x,1/2-y,-z
1/2+x,1/2+y,1/2-z
1/2-x,1/2+y,z
1/2+x,1/2-y,1/2+z
loop_
_atom_site_type_symbol
_atom_site_label
_atom_site_fract_x
_atom_site_fract_y
_atom_site_fract_z
Si Si1 0.275483 0.143065 0.317268
Si Si2 0.365333 0.910978 0.316309
Si Si3 0.060763 0.329529 0.681228
Si Si4 0.146616 0.824044 0.383737
Si Si5 0.306787 0.177973 0.496733
Si Si6 0.329707 0.341134 0.610643
O O1 0.256092 0.157684 0.250000
O O2 0.312246 0.285656 0.331793
O O3 0.228559 0.141761 0.363386
O O4 0.309127 0.991815 0.326648
O O5 0.375168 0.876030 0.250000
O O6 0.366667 0.748654 0.345229
O O7 0.412849 0.014382 0.338562
O O8 0.070647 0.298282 0.750000
O O9 0.088361 0.203677 0.641475
O O10 0.000000 0.333649 0.665617
O O11 0.160836 0.720960 0.439080
O O12 0.148162 0.995747 0.402096
O O13 0.250000 0.250000 0.500000
O O14 0.335867 0.244087 0.552478
O O15 0.302126 0.000000 0.500000
#
# Coordination Sequence:
#
# PCOD8258526 Si02
#       6
#    16  16  16  16  16  16
#     4  10  20  33  50  76 114 156 187 220 273 343
#     4   9  19  34  53  80 111 148 191 230 279 341
#     4   9  19  39  64  85 110 149 194 240 290 340
#     4  11  22  36  56  83 114 150 191 237 286 339
#     4  12  24  38  55  79 113 155 198 233 276 338
#     4  12  22  33  53  81 117 151 187 232 281 341
#
# _framework density 18.359741
#
# number of rings (size 3 to 8) (size 9 to 14) (size 15 to 20)
#    0.000    1.500    1.667    6.500    0.000    4.000 
#    0.000    0.833    0.000    8.500    0.000    0.000 
#    0.000    0.000    0.000    0.000    0.000    0.000 
#
# Total GULP energy -595103.683915 kJ/mol
# GULP energy per Si atom -12397.993415 kJ/mol
# Density = 1.831795 g / cm^3
# Si number density = 18.359741 Si / 1000 Ang^3
#
#
#
# Elastic Constant Matrix: (Units=GPa)
#
#
# Indices 1 2 3 4 5 6 
#
# 1 104.9638 34.1938 35.7747 0.0000 0.0000 0.0000
# 2 34.1938 149.2005 40.6284 0.0000 0.0000 0.0000
# 3 35.7747 40.6284 73.1939 0.0000 0.0000 0.0000
# 4 0.0000 0.0000 0.0000 31.4846 0.0000 0.0000
# 5 0.0000 0.0000 0.0000 0.0000 19.9203 0.0000
# 6 0.0000 0.0000 0.0000 0.0000 0.0000 10.7725
#
#
#
# Elastic Compliance Matrix: (Units=1/GPa)
#
#
# Indices 1 2 3 4 5 6 
#
# 1 0.011647 -0.001318 -0.004961 0.000000 0.000000 0.000000
# 2 -0.001318 0.008045 -0.003821 0.000000 0.000000 0.000000
# 3 -0.004961 -0.003821 0.018208 0.000000 0.000000 0.000000
# 4 0.000000 0.000000 0.000000 0.031762 0.000000 0.000000
# 5 0.000000 0.000000 0.000000 0.000000 0.050200 0.000000
# 6 0.000000 0.000000 0.000000 0.000000 0.000000 0.092829
#
#
# Mechanical properties :
#
#
# Convention : Reuss Voigt Hill
#
# Bulk Modulus (GPa) = 56.49940 60.95024 58.72482
# Shear Modulus (GPa) = 20.93870 26.88624 23.91247
#
# Velocity S-wave (km/s) = 3.38075 3.83092 3.61285
# Velocity P-wave (km/s) = 6.78819 7.26896 7.03269
#
# Compressibility (1/GPa) = 0.01769930
#
# Stress axis : x y z
#
# Youngs Moduli (GPa) = 85.85552 124.29917 54.92020
#
# Poissons Ratio (x) = 0.16388 0.27246
# Poissons Ratio (y) = 0.11319 0.20986
# Poissons Ratio (z) = 0.42593 0.47498
#
# Static dielectric constant tensor:
#      x y z
#    x 3.130390 0.000000 0.000000 
#    y 0.000000 3.437060 0.000000 
#    z 0.000000 0.000000 3.715370 
# 
# 
# High freq. dielectric constant tensor:
#      x y z
#    x 1.671350 0.000000 0.000000 
#    y 0.000000 1.715870 0.000000 
#    z 0.000000 0.000000 1.722560 
# 
# From -- ./inp_files/64928.got.cif
#   From: 2010.03.12/outbox.cif.g09.slc.cpg/sg63_33_cif.got.tgz:64928.got - 2010.04.10 19:34:48.
