data_PCOD8258926
_publ_section_title
;
Structure prediction by ZEFSAII (Michael W. Deem and Ramdas Pophale) SiO2 
 PCOD8258926
Probable space group: C M C M
;
_chemical_formula_sum "Si O2"
_cell_formula_units_Z 120
_cell_length_a 14.641808
_cell_length_b 30.377053
_cell_length_c 14.017045
_cell_angle_alpha 90.000000
_cell_angle_beta 90.000000
_cell_angle_gamma 90.000000
_cell_volume 6234.430876
_symmetry_space_group_name_H-M "C M C M"
_symmetry_group_IT_number 63
_symmetry_cell_setting 'orthorhombic'
loop_
_space_group_symop_operation_xyz
x,y,z
-x,-y,1/2+z
x,-y,-z
-x,y,1/2-z
-x,-y,-z
x,y,1/2-z
-x,y,z
x,-y,1/2+z
1/2+x,1/2+y,z
1/2-x,1/2-y,1/2+z
1/2+x,1/2-y,-z
1/2-x,1/2+y,1/2-z
1/2-x,1/2-y,-z
1/2+x,1/2+y,1/2-z
1/2-x,1/2+y,z
1/2+x,1/2-y,1/2+z
loop_
_atom_site_type_symbol
_atom_site_label
_atom_site_fract_x
_atom_site_fract_y
_atom_site_fract_z
Si Si1 0.104485 0.927228 0.860292
Si Si2 0.778896 0.841306 0.638030
Si Si3 0.749551 0.434277 0.359204
Si Si4 0.102766 0.634438 0.644090
Si Si5 0.895407 0.311057 0.963468
Si Si6 0.893263 0.212276 0.002650
Si Si7 0.603244 0.638006 0.642054
Si Si8 0.822825 0.000000 0.500000
O O1 0.123518 0.941860 0.750000
O O2 0.172392 0.887452 0.890374
O O3 0.000000 0.910432 0.869464
O O4 0.116587 0.967686 0.933810
O O5 0.777284 0.835245 0.750000
O O6 0.674231 0.839634 0.600527
O O7 0.836000 0.800179 0.596362
O O8 0.756252 0.450275 0.250000
O O9 0.837083 0.406364 0.390042
O O10 0.659013 0.405908 0.377326
O O11 0.745334 0.475607 0.428211
O O12 0.133558 0.650131 0.750000
O O13 0.114697 0.675285 0.573750
O O14 0.000000 0.616802 0.644619
O O15 0.867942 0.259951 0.961178
O O16 0.000000 0.318708 0.927316
O O17 0.861728 0.177939 0.922071
O O18 0.000000 0.209781 0.027518
O O19 0.614569 0.654427 0.750000
O O20 0.500000 0.625362 0.616944
#
# Coordination Sequence:
#
# PCOD8258926 Si02
#       8
#    16  16  16  16  16  16  16   8
#     4  10  22  38  55  79 109 140 177 217 260 318
#     4  11  23  38  55  75 108 153 190 220 262 318
#     4  10  21  35  53  78 105 134 171 214 260 318
#     4   9  18  35  58  80 104 136 173 218 272 321
#     4  10  21  36  55  82 112 141 183 233 271 310
#     4  10  20  34  54  81 111 141 180 228 271 315
#     4   9  18  33  53  77 107 142 176 213 263 319
#     4  12  21  34  57  80 106 138 167 212 271 322
#
# _framework density 19.247948000000001
#
# number of rings (size 3 to 8) (size 9 to 14) (size 15 to 20)
#    0.000    2.000    0.000    3.800    0.000    4.267 
#    0.000    5.667    0.000    0.800    0.000    1.867 
#    0.000    0.000    0.000    0.000    0.000    0.000 
#
# Total GULP energy -743986.058165 kJ/mol
# GULP energy per Si atom -12399.767636 kJ/mol
# Density = 1.920414 g / cm^3
# Si number density = 19.247948 Si / 1000 Ang^3
#
#
#
# Elastic Constant Matrix: (Units=GPa)
#
#
# Indices 1 2 3 4 5 6 
#
# 1 66.6728 25.3637 23.9925 0.0000 0.0000 0.0000
# 2 25.3637 78.5491 39.2878 0.0000 0.0000 0.0000
# 3 23.9925 39.2878 79.2860 0.0000 0.0000 0.0000
# 4 0.0000 0.0000 0.0000 29.1331 0.0000 0.0000
# 5 0.0000 0.0000 0.0000 0.0000 25.9675 0.0000
# 6 0.0000 0.0000 0.0000 0.0000 0.0000 28.7296
#
#
#
# Elastic Compliance Matrix: (Units=1/GPa)
#
#
# Indices 1 2 3 4 5 6 
#
# 1 0.017750 -0.004048 -0.003365 0.000000 0.000000 0.000000
# 2 -0.004048 0.017849 -0.007620 0.000000 0.000000 0.000000
# 3 -0.003365 -0.007620 0.017407 0.000000 0.000000 0.000000
# 4 0.000000 0.000000 0.000000 0.034325 0.000000 0.000000
# 5 0.000000 0.000000 0.000000 0.000000 0.038510 0.000000
# 6 0.000000 0.000000 0.000000 0.000000 0.000000 0.034807
#
#
# Mechanical properties :
#
#
# Convention : Reuss Voigt Hill
#
# Bulk Modulus (GPa) = 43.59329 44.64401 44.11865
# Shear Modulus (GPa) = 25.20669 25.82363 25.51516
#
# Velocity S-wave (km/s) = 3.62273 3.66680 3.64483
# Velocity P-wave (km/s) = 6.34006 6.41652 6.37841
#
# Compressibility (1/GPa) = 0.02293931
#
# Stress axis : x y z
#
# Youngs Moduli (GPa) = 56.33922 56.02498 57.44963
#
# Poissons Ratio (x) = 0.22680 0.19333
# Poissons Ratio (y) = 0.22808 0.43774
# Poissons Ratio (z) = 0.18959 0.42689
#
# Static dielectric constant tensor:
#      x y z
#    x 3.621750 0.000000 0.000000 
#    y 0.000000 3.393710 0.000000 
#    z 0.000000 0.000000 3.666280 
# 
# 
# High freq. dielectric constant tensor:
#      x y z
#    x 1.752340 0.000000 0.000000 
#    y 0.000000 1.732420 0.000000 
#    z 0.000000 0.000000 1.758710 
# 
# From -- ./inp_files/32847.got.cif
#   From: 2010.03.12/outbox.cif.g09.slc.cpg/sg63_17_cif.got.tgz:32847.got - 2010.04.10 19:34:48.
