data_PCOD8258203
_publ_section_title
;
Structure prediction by ZEFSAII (Michael W. Deem and Ramdas Pophale) SiO2 
 PCOD8258203
Probable space group: C M C M
;
_chemical_formula_sum "Si O2"
_cell_formula_units_Z 88
_cell_length_a 30.929955
_cell_length_b 17.998445
_cell_length_c 8.621608
_cell_angle_alpha 90.000000
_cell_angle_beta 90.000000
_cell_angle_gamma 90.000000
_cell_volume 4799.572389
_symmetry_space_group_name_H-M "C M C M"
_symmetry_group_IT_number 63
_symmetry_cell_setting 'orthorhombic'
loop_
_space_group_symop_operation_xyz
x,y,z
-x,-y,1/2+z
x,-y,-z
-x,y,1/2-z
-x,-y,-z
x,y,1/2-z
-x,y,z
x,-y,1/2+z
1/2+x,1/2+y,z
1/2-x,1/2-y,1/2+z
1/2+x,1/2-y,-z
1/2-x,1/2+y,1/2-z
1/2-x,1/2-y,-z
1/2+x,1/2+y,1/2-z
1/2-x,1/2+y,z
1/2+x,1/2-y,1/2+z
loop_
_atom_site_type_symbol
_atom_site_label
_atom_site_fract_x
_atom_site_fract_y
_atom_site_fract_z
Si Si1 0.049163 0.080643 0.565184
Si Si2 0.328429 0.078241 0.568754
Si Si3 0.910705 0.636635 0.427792
Si Si4 0.500000 0.919924 0.567279
Si Si5 0.881861 0.198408 0.573658
Si Si6 0.296020 0.770441 0.565600
O O1 0.051175 0.079680 0.750000
O O2 0.086269 0.136691 0.495923
O O3 0.000000 0.103592 0.513289
O O4 0.060827 0.000000 0.500000
O O5 0.318340 0.080560 0.750000
O O6 0.379207 0.088747 0.536258
O O7 0.304043 0.145219 0.484343
O O8 0.311904 0.000000 0.500000
O O9 0.903490 0.610378 0.250000
O O10 0.958191 0.622797 0.493244
O O11 0.905861 0.724055 0.441581
O O12 0.500000 0.923166 0.750000
O O13 0.500000 0.000000 0.500000
O O14 0.875490 0.173573 0.750000
O O15 0.833417 0.212863 0.501744
O O16 0.296556 0.767429 0.750000
O O17 0.250000 0.750000 0.500000
#
# Coordination Sequence:
#
# PCOD8258203 Si02
#       6
#    16  16  16   8  16  16
#     4   9  17  30  50  75 103 137 174 214 260 310
#     4  11  21  35  55  78 104 137 175 216 264 317
#     4   9  18  32  49  72  99 133 175 218 258 306
#     4  10  20  30  44  66  97 132 168 208 253 300
#     4   8  16  31  52  75  99 131 173 216 255 306
#     4  10  20  37  58  81 108 137 175 221 272 325
#
# _framework density 18.334968
#
# number of rings (size 3 to 8) (size 9 to 14) (size 15 to 20)
#    0.000    2.545    0.000    3.818    1.273    2.182 
#    0.000    5.455    0.000    2.182    0.000    0.000 
#    0.000    0.000    0.000    0.000    0.000    0.000 
#
# Total GULP energy -545168.919044 kJ/mol
# GULP energy per Si atom -12390.202706 kJ/mol
# Density = 1.829324 g / cm^3
# Si number density = 18.334968 Si / 1000 Ang^3
#
#
#
# Elastic Constant Matrix: (Units=GPa)
#
#
# Indices 1 2 3 4 5 6 
#
# 1 168.6274 74.2639 25.6414 0.0000 0.0000 0.0000
# 2 74.2639 103.5889 20.7273 0.0000 0.0000 0.0000
# 3 25.6414 20.7273 45.1453 0.0000 0.0000 0.0000
# 4 0.0000 0.0000 0.0000 28.9716 0.0000 0.0000
# 5 0.0000 0.0000 0.0000 0.0000 24.6940 0.0000
# 6 0.0000 0.0000 0.0000 0.0000 0.0000 17.4489
#
#
#
# Elastic Compliance Matrix: (Units=1/GPa)
#
#
# Indices 1 2 3 4 5 6 
#
# 1 0.008885 -0.005902 -0.002337 0.000000 0.000000 0.000000
# 2 -0.005902 0.014551 -0.003328 0.000000 0.000000 0.000000
# 3 -0.002337 -0.003328 0.025006 0.000000 0.000000 0.000000
# 4 0.000000 0.000000 0.000000 0.034517 0.000000 0.000000
# 5 0.000000 0.000000 0.000000 0.000000 0.040496 0.000000
# 6 0.000000 0.000000 0.000000 0.000000 0.000000 0.057310
#
#
# Mechanical properties :
#
#
# Convention : Reuss Voigt Hill
#
# Bulk Modulus (GPa) = 39.51398 62.06965 50.79181
# Shear Modulus (GPa) = 23.54782 27.33817 25.44300
#
# Velocity S-wave (km/s) = 3.58762 3.86559 3.72919
# Velocity P-wave (km/s) = 6.22570 7.33828 6.80476
#
# Compressibility (1/GPa) = 0.02530750
#
# Stress axis : x y z
#
# Youngs Moduli (GPa) = 112.55143 68.72478 39.99045
#
# Poissons Ratio (x) = 0.40562 0.09344
# Poissons Ratio (y) = 0.66429 0.13310
# Poissons Ratio (z) = 0.26298 0.22874
#
# Static dielectric constant tensor:
#      x y z
#    x 3.736990 0.000000 0.000000 
#    y 0.000000 3.448660 0.000000 
#    z 0.000000 0.000000 3.316010 
# 
# 
# High freq. dielectric constant tensor:
#      x y z
#    x 1.714690 0.000000 0.000000 
#    y 0.000000 1.708940 0.000000 
#    z 0.000000 0.000000 1.687920 
# 
# From -- ./inp_files/14231.got.cif
#   From: 2010.03.12/outbox.cif.g09.slc.cpg/sg63_8_cif.got.tgz:14231.got - 2010.04.10 19:34:48.
