data_PCOD8258785
_publ_section_title
;
Structure prediction by ZEFSAII (Michael W. Deem and Ramdas Pophale) SiO2 
 PCOD8258785
Probable space group: C M C M
;
_chemical_formula_sum "Si O2"
_cell_formula_units_Z 96
_cell_length_a 10.655179
_cell_length_b 25.817664
_cell_length_c 19.163425
_cell_angle_alpha 90.000000
_cell_angle_beta 90.000000
_cell_angle_gamma 90.000000
_cell_volume 5271.701677
_symmetry_space_group_name_H-M "C M C M"
_symmetry_group_IT_number 63
_symmetry_cell_setting 'orthorhombic'
loop_
_space_group_symop_operation_xyz
x,y,z
-x,-y,1/2+z
x,-y,-z
-x,y,1/2-z
-x,-y,-z
x,y,1/2-z
-x,y,z
x,-y,1/2+z
1/2+x,1/2+y,z
1/2-x,1/2-y,1/2+z
1/2+x,1/2-y,-z
1/2-x,1/2+y,1/2-z
1/2-x,1/2-y,-z
1/2+x,1/2+y,1/2-z
1/2-x,1/2+y,z
1/2+x,1/2-y,1/2+z
loop_
_atom_site_type_symbol
_atom_site_label
_atom_site_fract_x
_atom_site_fract_y
_atom_site_fract_z
Si Si1 0.500000 0.814949 0.452704
Si Si2 0.640947 0.447141 0.461001
Si Si3 0.738327 0.145634 0.467364
Si Si4 0.500000 0.614304 0.326514
Si Si5 0.726556 0.027023 0.828755
Si Si6 0.500000 0.896126 0.170868
Si Si7 0.769673 0.587967 0.170251
Si Si8 0.500000 0.695079 0.440884
O O1 0.623772 0.823633 0.498872
O O2 0.500000 0.848803 0.382750
O O3 0.500000 0.755914 0.428936
O O4 0.666761 0.500000 0.500000
O O5 0.500000 0.426388 0.474357
O O6 0.742267 0.407411 0.490903
O O7 0.659992 0.456909 0.378968
O O8 0.693993 0.131396 0.387446
O O9 0.867982 0.178118 0.477022
O O10 0.500000 0.636871 0.250000
O O11 0.379633 0.578622 0.341047
O O12 0.500000 0.667727 0.367037
O O13 0.778365 0.029308 0.750000
O O14 0.618428 0.067936 0.842346
O O15 0.671599 0.968845 0.843355
O O16 0.500000 0.873974 0.250000
O O17 0.801149 0.607164 0.250000
#
# Coordination Sequence:
#
# PCOD8258785 Si02
#       8
#     8  16  16   8  16   8  16   8
#     4  12  24  38  59  81 104 145 193 235 281 331
#     4  11  21  33  55  84 116 148 182 221 276 333
#     4  11  21  38  57  85 111 142 184 232 281 334
#     4   8  16  31  55  82 106 137 182 230 274 325
#     4  10  20  34  52  78 113 151 183 214 260 329
#     4  10  22  38  53  75 111 149 188 223 262 325
#     4   9  18  32  52  80 113 145 176 217 269 327
#     4  10  22  39  59  79 108 140 184 244 289 322
#
# _framework density 18.210438
#
# number of rings (size 3 to 8) (size 9 to 14) (size 15 to 20)
#    0.000    1.833    4.167    0.500    1.167    1.333 
#    0.000    2.917    0.000    0.000    0.000    2.333 
#    0.000    0.000    0.000    0.000    0.000    0.000 
#
# Total GULP energy -594810.066859 kJ/mol
# GULP energy per Si atom -12391.876393 kJ/mol
# Density = 1.816899 g / cm^3
# Si number density = 18.210438 Si / 1000 Ang^3
#
#
#
# Elastic Constant Matrix: (Units=GPa)
#
#
# Indices 1 2 3 4 5 6 
#
# 1 77.0788 38.6703 33.3127 0.0000 0.0000 0.0000
# 2 38.6703 103.9690 44.5308 0.0000 0.0000 0.0000
# 3 33.3127 44.5308 104.0077 0.0000 0.0000 0.0000
# 4 0.0000 0.0000 0.0000 16.4587 0.0000 0.0000
# 5 0.0000 0.0000 0.0000 0.0000 3.9621 0.0000
# 6 0.0000 0.0000 0.0000 0.0000 0.0000 131.0208
#
#
#
# Elastic Compliance Matrix: (Units=1/GPa)
#
#
# Indices 1 2 3 4 5 6 
#
# 1 0.016837 -0.004840 -0.003320 0.000000 0.000000 0.000000
# 2 -0.004840 0.013170 -0.004088 0.000000 0.000000 0.000000
# 3 -0.003320 -0.004088 0.012429 0.000000 0.000000 0.000000
# 4 0.000000 0.000000 0.000000 0.060758 0.000000 0.000000
# 5 0.000000 0.000000 0.000000 0.000000 0.252394 0.000000
# 6 0.000000 0.000000 0.000000 0.000000 0.000000 0.007632
#
#
# Mechanical properties :
#
#
# Convention : Reuss Voigt Hill
#
# Bulk Modulus (GPa) = 55.74942 57.56478 56.65710
# Shear Modulus (GPa) = 12.70015 41.52443 27.11229
#
# Velocity S-wave (km/s) = 2.64372 4.78038 3.86273
# Velocity P-wave (km/s) = 6.32451 7.88346 7.14662
#
# Compressibility (1/GPa) = 0.01793741
#
# Stress axis : x y z
#
# Youngs Moduli (GPa) = 59.39254 75.93266 80.45983
#
# Poissons Ratio (x) = 0.36753 0.26716
# Poissons Ratio (y) = 0.28747 0.32894
# Poissons Ratio (z) = 0.19721 0.31043
#
# Static dielectric constant tensor:
#      x y z
#    x 3.810950 0.000000 0.000000 
#    y 0.000000 3.115640 0.000000 
#    z 0.000000 0.000000 3.584490 
# 
# 
# High freq. dielectric constant tensor:
#      x y z
#    x 1.698000 0.000000 0.000000 
#    y 0.000000 1.685200 0.000000 
#    z 0.000000 0.000000 1.716160 
# 
# From -- ./inp_files/53122.got.cif
#   From: 2010.03.12/outbox.cif.g09.slc.cpg/sg63_27_cif.got.tgz:53122.got - 2010.04.10 19:34:48.
