data_PCOD8258334
_publ_section_title
;
Structure prediction by ZEFSAII (Michael W. Deem and Ramdas Pophale) SiO2 
 PCOD8258334
Probable space group: C M C M
;
_chemical_formula_sum "Si O2"
_cell_formula_units_Z 96
_cell_length_a 27.740450
_cell_length_b 20.760660
_cell_length_c 9.135850
_cell_angle_alpha 90.000000
_cell_angle_beta 90.000000
_cell_angle_gamma 90.000000
_cell_volume 5261.427837
_symmetry_space_group_name_H-M "C M C M"
_symmetry_group_IT_number 63
_symmetry_cell_setting 'orthorhombic'
loop_
_space_group_symop_operation_xyz
x,y,z
-x,-y,1/2+z
x,-y,-z
-x,y,1/2-z
-x,-y,-z
x,y,1/2-z
-x,y,z
x,-y,1/2+z
1/2+x,1/2+y,z
1/2-x,1/2-y,1/2+z
1/2+x,1/2-y,-z
1/2-x,1/2+y,1/2-z
1/2-x,1/2-y,-z
1/2+x,1/2+y,1/2-z
1/2-x,1/2+y,z
1/2+x,1/2-y,1/2+z
loop_
_atom_site_type_symbol
_atom_site_label
_atom_site_fract_x
_atom_site_fract_y
_atom_site_fract_z
Si Si1 0.944346 0.298045 0.077949
Si Si2 0.387533 0.562243 0.084784
Si Si3 0.942942 0.559115 0.589417
Si Si4 0.727274 0.437270 0.583792
Si Si5 0.273422 0.309720 0.080904
Si Si6 0.112644 0.188626 0.582023
O O1 0.933427 0.291041 0.250000
O O2 0.931428 0.370444 0.022931
O O3 0.000000 0.282159 0.045938
O O4 0.911142 0.251356 0.985744
O O5 0.407713 0.561950 0.250000
O O6 0.330141 0.560695 0.085117
O O7 0.407967 0.500000 0.000000
O O8 0.406457 0.625963 0.003578
O O9 0.919610 0.500000 0.500000
O O10 0.920067 0.554734 0.750000
O O11 0.000000 0.550704 0.599097
O O12 0.747602 0.500000 0.500000
O O13 0.747140 0.436004 0.750000
O O14 0.745577 0.374486 0.497139
O O15 0.257243 0.311108 0.250000
O O16 0.330471 0.303931 0.065939
O O17 0.250000 0.250000 0.000000
O O18 0.097123 0.181352 0.750000
#
# Coordination Sequence:
#
# PCOD8258334 Si02
#       6
#    16  16  16  16  16  16
#     4   9  18  32  49  70  97 128 160 194 235 284
#     4   9  16  27  45  68  94 123 156 195 236 278
#     4   8  14  25  42  65  91 118 151 191 231 271
#     4   9  16  27  45  69  95 123 156 195 237 280
#     4  10  20  33  49  71  98 127 160 199 242 287
#     4  10  20  32  48  72  99 126 159 198 238 283
#
# _framework density 18.245996999999999
#
# number of rings (size 3 to 8) (size 9 to 14) (size 15 to 20)
#    0.000    2.833    0.000    3.000    0.000    7.000 
#    0.000    1.667    0.000    1.500    0.000    2.333 
#    0.000    0.000    0.000    0.000    0.000    0.000 
#
# Total GULP energy -595063.256036 kJ/mol
# GULP energy per Si atom -12397.151167 kJ/mol
# Density = 1.820447 g / cm^3
# Si number density = 18.245997 Si / 1000 Ang^3
#
#
#
# Elastic Constant Matrix: (Units=GPa)
#
#
# Indices 1 2 3 4 5 6 
#
# 1 10.8613 24.7889 22.7429 0.0000 0.0000 0.0000
# 2 24.7889 187.6455 101.7620 0.0000 0.0000 0.0000
# 3 22.7429 101.7620 155.8595 0.0000 0.0000 0.0000
# 4 0.0000 0.0000 0.0000 43.5670 0.0000 0.0000
# 5 0.0000 0.0000 0.0000 0.0000 19.8760 0.0000
# 6 0.0000 0.0000 0.0000 0.0000 0.0000 25.9404
#
#
#
# Elastic Compliance Matrix: (Units=1/GPa)
#
#
# Indices 1 2 3 4 5 6 
#
# 1 0.148644 -0.012190 -0.013731 0.000000 0.000000 0.000000
# 2 -0.012190 0.009250 -0.004261 0.000000 0.000000 0.000000
# 3 -0.013731 -0.004261 0.011202 0.000000 0.000000 0.000000
# 4 0.000000 0.000000 0.000000 0.022953 0.000000 0.000000
# 5 0.000000 0.000000 0.000000 0.000000 0.050312 0.000000
# 6 0.000000 0.000000 0.000000 0.000000 0.000000 0.038550
#
#
# Mechanical properties :
#
#
# Convention : Reuss Voigt Hill
#
# Bulk Modulus (GPa) = 9.19691 72.55043 40.87367
# Shear Modulus (GPa) = 13.24437 31.54819 22.39628
#
# Velocity S-wave (km/s) = 2.69714 4.16269 3.50732
# Velocity P-wave (km/s) = 3.84068 7.93427 6.23312
#
# Compressibility (1/GPa) = 0.10873213
#
# Stress axis : x y z
#
# Youngs Moduli (GPa) = 6.72747 108.10521 89.27347
#
# Poissons Ratio (x) = 1.31783 1.22581
# Poissons Ratio (y) = 0.08201 0.38037
# Poissons Ratio (z) = 0.09237 0.46061
#
# Static dielectric constant tensor:
#      x y z
#    x 2.768190 0.000000 0.000000 
#    y 0.000000 3.618720 0.000000 
#    z 0.000000 0.000000 3.694820 
# 
# 
# High freq. dielectric constant tensor:
#      x y z
#    x 1.640130 0.000000 0.000000 
#    y 0.000000 1.727530 0.000000 
#    z 0.000000 0.000000 1.719110 
# 
# From -- ./inp_files/12392.got.cif
#   From: 2010.03.12/outbox.cif.g09.slc.cpg/sg63_7_cif.got.tgz:12392.got - 2010.04.10 19:34:48.
