data_PCOD8258946
_publ_section_title
;
Structure prediction by ZEFSAII (Michael W. Deem and Ramdas Pophale) SiO2 
 PCOD8258946
Probable space group: C M C M
;
_chemical_formula_sum "Si O2"
_cell_formula_units_Z 112
_cell_length_a 13.497121
_cell_length_b 18.213296
_cell_length_c 22.877906
_cell_angle_alpha 90.000000
_cell_angle_beta 90.000000
_cell_angle_gamma 90.000000
_cell_volume 5624.008369
_symmetry_space_group_name_H-M "C M C M"
_symmetry_group_IT_number 63
_symmetry_cell_setting 'orthorhombic'
loop_
_space_group_symop_operation_xyz
x,y,z
-x,-y,1/2+z
x,-y,-z
-x,y,1/2-z
-x,-y,-z
x,y,1/2-z
-x,y,z
x,-y,1/2+z
1/2+x,1/2+y,z
1/2-x,1/2-y,1/2+z
1/2+x,1/2-y,-z
1/2-x,1/2+y,1/2-z
1/2-x,1/2-y,-z
1/2+x,1/2+y,1/2-z
1/2-x,1/2+y,z
1/2+x,1/2-y,1/2+z
loop_
_atom_site_type_symbol
_atom_site_label
_atom_site_fract_x
_atom_site_fract_y
_atom_site_fract_z
Si Si1 0.113575 0.916372 0.182011
Si Si2 0.385405 0.082960 0.983087
Si Si3 0.388885 0.210869 0.426580
Si Si4 0.242631 0.326296 0.103826
Si Si5 0.383698 0.723483 0.316835
Si Si6 0.686638 0.431711 0.682696
Si Si7 0.891987 0.378229 0.684136
O O1 0.143370 0.914626 0.250000
O O2 0.178338 0.858279 0.148324
O O3 0.000000 0.895623 0.172052
O O4 0.135047 0.997225 0.154646
O O5 0.500000 0.085295 0.962484
O O6 0.313290 0.110380 0.931834
O O7 0.367981 0.136111 0.038234
O O8 0.354974 0.000000 0.000000
O O9 0.500000 0.240077 0.441408
O O10 0.305599 0.272542 0.439640
O O11 0.379772 0.191730 0.357799
O O12 0.160589 0.284292 0.140930
O O13 0.344485 0.732096 0.250000
O O14 0.500000 0.732966 0.318795
O O15 0.353377 0.644381 0.344193
O O16 0.655539 0.430075 0.750000
O O17 0.805796 0.437988 0.673355
O O18 0.883469 0.346931 0.750000
O O19 0.000000 0.416015 0.673634
#
# Coordination Sequence:
#
# PCOD8258946 Si02
#       7
#    16  16  16  16  16  16  16
#     4  10  22  38  57  87 125 161 193 229 282 347
#     4  10  24  44  62  81 108 149 198 245 296 350
#     4  10  21  38  60  86 117 148 186 238 293 349
#     4  12  22  36  61  85 114 150 195 242 289 343
#     4  10  20  34  54  83 117 151 189 235 286 338
#     4   9  17  33  54  79 116 158 192 224 272 339
#     4   9  17  30  54  89 121 148 184 230 282 342
#
# _framework density 19.914622000000001
#
# number of rings (size 3 to 8) (size 9 to 14) (size 15 to 20)
#    0.000    2.000    1.429    2.143    2.000    2.286 
#    0.000    2.143    0.000    4.286    0.000    0.000 
#    0.000    0.000    0.000    0.000    0.000    0.000 
#
# Total GULP energy -694197.782931 kJ/mol
# GULP energy per Si atom -12396.388981 kJ/mol
# Density = 1.986930 g / cm^3
# Si number density = 19.914622 Si / 1000 Ang^3
#
#
#
# Elastic Constant Matrix: (Units=GPa)
#
#
# Indices 1 2 3 4 5 6 
#
# 1 111.3808 58.2051 42.0193 0.0000 0.0000 0.0000
# 2 58.2051 119.6305 37.8871 0.0000 0.0000 0.0000
# 3 42.0193 37.8871 57.9247 0.0000 0.0000 0.0000
# 4 0.0000 0.0000 0.0000 25.7865 0.0000 0.0000
# 5 0.0000 0.0000 0.0000 0.0000 25.0285 0.0000
# 6 0.0000 0.0000 0.0000 0.0000 0.0000 34.9671
#
#
#
# Elastic Compliance Matrix: (Units=1/GPa)
#
#
# Indices 1 2 3 4 5 6 
#
# 1 0.014095 -0.004565 -0.007238 0.000000 0.000000 0.000000
# 2 -0.004565 0.012022 -0.004551 0.000000 0.000000 0.000000
# 3 -0.007238 -0.004551 0.025492 0.000000 0.000000 0.000000
# 4 0.000000 0.000000 0.000000 0.038780 0.000000 0.000000
# 5 0.000000 0.000000 0.000000 0.000000 0.039954 0.000000
# 6 0.000000 0.000000 0.000000 0.000000 0.000000 0.028598
#
#
# Mechanical properties :
#
#
# Convention : Reuss Voigt Hill
#
# Bulk Modulus (GPa) = 52.91622 62.79544 57.85583
# Shear Modulus (GPa) = 25.25890 27.21139 26.23514
#
# Velocity S-wave (km/s) = 3.56527 3.70050 3.63351
# Velocity P-wave (km/s) = 6.60132 7.06109 6.83507
#
# Compressibility (1/GPa) = 0.01889780
#
# Stress axis : x y z
#
# Youngs Moduli (GPa) = 70.94894 83.18315 39.22852
#
# Poissons Ratio (x) = 0.37975 0.28395
# Poissons Ratio (y) = 0.32389 0.17855
# Poissons Ratio (z) = 0.51356 0.37860
#
# Static dielectric constant tensor:
#      x y z
#    x 3.848110 0.000000 0.000000 
#    y 0.000000 3.608360 0.000000 
#    z 0.000000 0.000000 3.426610 
# 
# 
# High freq. dielectric constant tensor:
#      x y z
#    x 1.793490 0.000000 0.000000 
#    y 0.000000 1.766530 0.000000 
#    z 0.000000 0.000000 1.750010 
# 
# From -- ./inp_files/62963.got.cif
#   From: 2010.03.12/outbox.cif.g09.slc.cpg/sg63_32_cif.got.tgz:62963.got - 2010.04.10 19:34:48.
