data_PCOD8258989
_publ_section_title
;
Structure prediction by ZEFSAII (Michael W. Deem and Ramdas Pophale) SiO2 
 PCOD8258989
Probable space group: C M C M
;
_chemical_formula_sum "Si O2"
_cell_formula_units_Z 96
_cell_length_a 7.576236
_cell_length_b 24.808348
_cell_length_c 27.198564
_cell_angle_alpha 90.000000
_cell_angle_beta 90.000000
_cell_angle_gamma 90.000000
_cell_volume 5112.076157
_symmetry_space_group_name_H-M "C M C M"
_symmetry_group_IT_number 63
_symmetry_cell_setting 'orthorhombic'
loop_
_space_group_symop_operation_xyz
x,y,z
-x,-y,1/2+z
x,-y,-z
-x,y,1/2-z
-x,-y,-z
x,y,1/2-z
-x,y,z
x,-y,1/2+z
1/2+x,1/2+y,z
1/2-x,1/2-y,1/2+z
1/2+x,1/2-y,-z
1/2-x,1/2+y,1/2-z
1/2-x,1/2-y,-z
1/2+x,1/2+y,1/2-z
1/2-x,1/2+y,z
1/2+x,1/2-y,1/2+z
loop_
_atom_site_type_symbol
_atom_site_label
_atom_site_fract_x
_atom_site_fract_y
_atom_site_fract_z
Si Si1 0.000000 0.023630 0.807240
Si Si2 0.706139 0.085981 0.554560
Si Si3 0.500000 0.349027 0.306773
Si Si4 0.206724 0.318474 0.122672
Si Si5 0.206966 0.485672 0.621758
Si Si6 0.297988 0.722433 0.051154
Si Si7 0.698029 0.103656 0.051626
O O1 0.000000 0.008908 0.750000
O O2 0.000000 0.087253 0.816291
O O3 0.822890 0.998029 0.830336
O O4 0.500000 0.097199 0.548681
O O5 0.780907 0.134442 0.587483
O O6 0.794221 0.089147 0.500159
O O7 0.748151 0.029459 0.579647
O O8 0.500000 0.334784 0.250000
O O9 0.677028 0.321663 0.328291
O O10 0.243870 0.262012 0.096041
O O11 0.000000 0.325761 0.136034
O O12 0.276046 0.429076 0.598292
O O13 0.000000 0.486196 0.637267
O O14 0.500000 0.705764 0.050094
O O15 0.192518 0.667571 0.060649
O O16 0.250000 0.750000 0.000000
O O17 0.500000 0.081207 0.047910
#
# Coordination Sequence:
#
# PCOD8258989 Si02
#       7
#     8  16   8  16  16  16  16
#     4  11  24  40  60  88 114 138 192 254 296 347
#     4   9  16  32  54  80 119 156 184 221 277 335
#     4  11  24  40  63  89 109 147 195 246 304 340
#     4  10  21  37  57  84 119 153 187 233 287 346
#     4  10  21  38  58  82 117 156 190 231 289 347
#     4  11  22  34  53  84 120 159 193 230 281 339
#     4  10  20  34  55  84 117 157 196 226 269 342
#
# _framework density 18.779063000000001
#
# number of rings (size 3 to 8) (size 9 to 14) (size 15 to 20)
#    0.000    1.833    3.333    1.000    3.500    2.667 
#    1.500    2.500    0.000    1.000    0.000    0.000 
#    0.000    0.000    0.000    0.000    0.000    0.000 
#
# Total GULP energy -595078.139685 kJ/mol
# GULP energy per Si atom -12397.461243 kJ/mol
# Density = 1.873632 g / cm^3
# Si number density = 18.779063 Si / 1000 Ang^3
#
#
#
# Elastic Constant Matrix: (Units=GPa)
#
#
# Indices 1 2 3 4 5 6 
#
# 1 80.3731 27.3016 60.8331 0.0000 0.0000 0.0000
# 2 27.3016 111.8860 56.4838 0.0000 0.0000 0.0000
# 3 60.8331 56.4838 140.8948 0.0000 0.0000 0.0000
# 4 0.0000 0.0000 0.0000 25.5701 0.0000 0.0000
# 5 0.0000 0.0000 0.0000 0.0000 27.4712 0.0000
# 6 0.0000 0.0000 0.0000 0.0000 0.0000 23.4061
#
#
#
# Elastic Compliance Matrix: (Units=1/GPa)
#
#
# Indices 1 2 3 4 5 6 
#
# 1 0.018514 -0.000605 -0.007751 0.000000 0.000000 0.000000
# 2 -0.000605 0.011225 -0.004239 0.000000 0.000000 0.000000
# 3 -0.007751 -0.004239 0.012144 0.000000 0.000000 0.000000
# 4 0.000000 0.000000 0.000000 0.039108 0.000000 0.000000
# 5 0.000000 0.000000 0.000000 0.000000 0.036402 0.000000
# 6 0.000000 0.000000 0.000000 0.000000 0.000000 0.042724
#
#
# Mechanical properties :
#
#
# Convention : Reuss Voigt Hill
#
# Bulk Modulus (GPa) = 59.90514 69.15457 64.52986
# Shear Modulus (GPa) = 26.19566 27.85852 27.02709
#
# Velocity S-wave (km/s) = 3.73894 3.85579 3.79781
# Velocity P-wave (km/s) = 7.11399 7.53180 7.32587
#
# Compressibility (1/GPa) = 0.01669306
#
# Stress axis : x y z
#
# Youngs Moduli (GPa) = 54.01253 89.08507 82.34738
#
# Poissons Ratio (x) = 0.05386 0.63831
# Poissons Ratio (y) = 0.03265 0.34908
# Poissons Ratio (z) = 0.41867 0.37764
#
# Static dielectric constant tensor:
#      x y z
#    x 3.394540 0.000000 0.000000 
#    y 0.000000 3.434680 0.000000 
#    z 0.000000 0.000000 3.291570 
# 
# 
# High freq. dielectric constant tensor:
#      x y z
#    x 1.728270 0.000000 0.000000 
#    y 0.000000 1.730330 0.000000 
#    z 0.000000 0.000000 1.703080 
# 
# From -- ./inp_files/60061.got.cif
#   From: 2010.03.12/outbox.cif.g09.slc.cpg/sg63_31_cif.got.tgz:60061.got - 2010.04.10 19:34:48.
