data_PCOD8258407
_publ_section_title
;
Structure prediction by ZEFSAII (Michael W. Deem and Ramdas Pophale) SiO2 
 PCOD8258407
Probable space group: C M C M
;
_chemical_formula_sum "Si O2"
_cell_formula_units_Z 104
_cell_length_a 11.849763
_cell_length_b 26.577557
_cell_length_c 18.045619
_cell_angle_alpha 90.000000
_cell_angle_beta 90.000000
_cell_angle_gamma 90.000000
_cell_volume 5683.246674
_symmetry_space_group_name_H-M "C M C M"
_symmetry_group_IT_number 63
_symmetry_cell_setting 'orthorhombic'
loop_
_space_group_symop_operation_xyz
x,y,z
-x,-y,1/2+z
x,-y,-z
-x,y,1/2-z
-x,-y,-z
x,y,1/2-z
-x,y,z
x,-y,1/2+z
1/2+x,1/2+y,z
1/2-x,1/2-y,1/2+z
1/2+x,1/2-y,-z
1/2-x,1/2+y,1/2-z
1/2-x,1/2-y,-z
1/2+x,1/2+y,1/2-z
1/2-x,1/2+y,z
1/2+x,1/2-y,1/2+z
loop_
_atom_site_type_symbol
_atom_site_label
_atom_site_fract_x
_atom_site_fract_y
_atom_site_fract_z
Si Si1 0.254416 0.945143 0.536567
Si Si2 0.000000 0.647039 0.573605
Si Si3 0.130386 0.900602 0.833453
Si Si4 0.367360 0.285690 0.336244
Si Si5 0.751148 0.343238 0.463100
Si Si6 0.500000 0.942875 0.515412
Si Si7 0.791545 0.796118 0.886022
Si Si8 0.500000 0.765619 0.165584
O O1 0.180815 0.942528 0.611240
O O2 0.216471 0.901547 0.478921
O O3 0.384461 0.931906 0.559945
O O4 0.239785 0.000000 0.500000
O O5 0.114049 0.665479 0.533568
O O6 0.000000 0.586212 0.565181
O O7 0.000000 0.673171 0.654898
O O8 0.145132 0.920903 0.750000
O O9 0.194819 0.847698 0.840814
O O10 0.000000 0.891545 0.853295
O O11 0.339283 0.296104 0.250000
O O12 0.500000 0.288239 0.351649
O O13 0.303939 0.328346 0.384645
O O14 0.324037 0.230204 0.359512
O O15 0.703361 0.307036 0.526680
O O16 0.500000 0.000000 0.500000
O O17 0.890279 0.756711 0.872198
O O18 0.500000 0.750513 0.250000
#
# Coordination Sequence:
#
# PCOD8258407 Si02
#       8
#    16   8  16  16  16   8  16   8
#     4   9  19  37  60  83 106 139 179 228 274 328
#     4  10  20  32  54  85 106 137 184 228 267 315
#     4  10  20  35  55  81 112 141 178 225 276 321
#     4  11  24  38  53  77 115 151 181 220 271 325
#     4  10  22  35  57  81 107 142 185 227 268 325
#     4   8  16  36  59  79 108 140 174 222 278 322
#     4  11  22  35  57  78 110 151 184 224 265 323
#     4  12  22  32  54  82 112 145 185 226 268 317
#
# _framework density 18.299399000000001
#
# number of rings (size 3 to 8) (size 9 to 14) (size 15 to 20)
#    0.000    1.846    2.308    1.846    2.154    0.923 
#    1.385    1.154    0.000    7.385    0.000    0.000 
#    0.000    0.000    0.000    0.000    0.000    0.000 
#
# Total GULP energy -644308.634254 kJ/mol
# GULP energy per Si atom -12390.550659 kJ/mol
# Density = 1.825775 g / cm^3
# Si number density = 18.299399 Si / 1000 Ang^3
#
#
#
# Elastic Constant Matrix: (Units=GPa)
#
#
# Indices 1 2 3 4 5 6 
#
# 1 98.1146 48.0556 57.7860 0.0000 0.0000 0.0000
# 2 48.0556 117.5241 62.5674 0.0000 0.0000 0.0000
# 3 57.7860 62.5674 122.1045 0.0000 0.0000 0.0000
# 4 0.0000 0.0000 0.0000 20.7675 0.0000 0.0000
# 5 0.0000 0.0000 0.0000 0.0000 22.7981 0.0000
# 6 0.0000 0.0000 0.0000 0.0000 0.0000 24.7457
#
#
#
# Elastic Compliance Matrix: (Units=1/GPa)
#
#
# Indices 1 2 3 4 5 6 
#
# 1 0.014973 -0.003232 -0.005430 0.000000 0.000000 0.000000
# 2 -0.003232 0.012398 -0.004824 0.000000 0.000000 0.000000
# 3 -0.005430 -0.004824 0.013231 0.000000 0.000000 0.000000
# 4 0.000000 0.000000 0.000000 0.048152 0.000000 0.000000
# 5 0.000000 0.000000 0.000000 0.000000 0.043863 0.000000
# 6 0.000000 0.000000 0.000000 0.000000 0.000000 0.040411
#
#
# Mechanical properties :
#
#
# Convention : Reuss Voigt Hill
#
# Bulk Modulus (GPa) = 73.35758 74.95124 74.15441
# Shear Modulus (GPa) = 24.44462 24.95120 24.69791
#
# Velocity S-wave (km/s) = 3.65885 3.69656 3.67775
# Velocity P-wave (km/s) = 7.61735 7.69848 7.65802
#
# Compressibility (1/GPa) = 0.01363186
#
# Stress axis : x y z
#
# Youngs Moduli (GPa) = 66.78631 80.65613 75.57900
#
# Poissons Ratio (x) = 0.26065 0.41040
# Poissons Ratio (y) = 0.21583 0.36457
# Poissons Ratio (z) = 0.36266 0.38906
#
# Static dielectric constant tensor:
#      x y z
#    x 5.686290 0.000000 0.000000 
#    y 0.000000 3.632740 0.000000 
#    z 0.000000 0.000000 3.296050 
# 
# 
# High freq. dielectric constant tensor:
#      x y z
#    x 1.724160 0.000000 0.000000 
#    y 0.000000 1.702290 0.000000 
#    z 0.000000 0.000000 1.691940 
# 
# From -- ./inp_files/42831.got.cif
#   From: 2010.03.12/outbox.cif.g09.slc.cpg/sg63_22_cif.got.tgz:42831.got - 2010.04.10 19:34:48.
