data_PCOD8258370
_publ_section_title
;
Structure prediction by ZEFSAII (Michael W. Deem and Ramdas Pophale) SiO2 
 PCOD8258370
Probable space group: C M C M
;
_chemical_formula_sum "Si O2"
_cell_formula_units_Z 80
_cell_length_a 9.521581
_cell_length_b 25.139558
_cell_length_c 19.039009
_cell_angle_alpha 90.000000
_cell_angle_beta 90.000000
_cell_angle_gamma 90.000000
_cell_volume 4557.335938
_symmetry_space_group_name_H-M "C M C M"
_symmetry_group_IT_number 63
_symmetry_cell_setting 'orthorhombic'
loop_
_space_group_symop_operation_xyz
x,y,z
-x,-y,1/2+z
x,-y,-z
-x,y,1/2-z
-x,-y,-z
x,y,1/2-z
-x,y,z
x,-y,1/2+z
1/2+x,1/2+y,z
1/2-x,1/2-y,1/2+z
1/2+x,1/2-y,-z
1/2-x,1/2+y,1/2-z
1/2-x,1/2-y,-z
1/2+x,1/2+y,1/2-z
1/2-x,1/2+y,z
1/2+x,1/2-y,1/2+z
loop_
_atom_site_type_symbol
_atom_site_label
_atom_site_fract_x
_atom_site_fract_y
_atom_site_fract_z
Si Si1 0.160970 0.057717 0.585492
Si Si2 0.660533 0.434975 0.923848
Si Si3 0.655842 0.737540 0.833445
Si Si4 0.160056 0.359466 0.166595
Si Si5 0.165651 0.644020 0.329816
O O1 0.191127 0.074633 0.505684
O O2 0.264239 0.088822 0.636629
O O3 0.000000 0.070512 0.605476
O O4 0.192337 0.995665 0.596345
O O5 0.500000 0.420818 0.906238
O O6 0.760888 0.397901 0.879497
O O7 0.649283 0.735936 0.750000
O O8 0.500000 0.725075 0.863498
O O9 0.764208 0.693748 0.862541
O O10 0.705218 0.796518 0.856299
O O11 0.168939 0.362405 0.250000
O O12 0.000000 0.358147 0.140301
O O13 0.217648 0.635314 0.250000
O O14 0.000000 0.635534 0.334499
#
# Coordination Sequence:
#
# PCOD8258370 Si02
#       5
#    16  16  16  16  16
#     4   9  19  36  53  69  95 131 167 201 241 290
#     4   9  19  35  53  72  95 127 167 206 241 282
#     4   8  15  30  50  70  96 131 163 191 234 290
#     4  10  20  32  49  76 103 125 158 204 245 283
#     4   9  18  32  51  76 103 129 159 197 242 292
#
# _framework density 17.554116
#
# number of rings (size 3 to 8) (size 9 to 14) (size 15 to 20)
#    0.000    3.000    0.000    3.000    0.000    4.800 
#    0.000    9.000    0.000    0.000    0.000    0.000 
#    0.000    0.000    0.000    0.000    0.000    0.000 
#
# Total GULP energy -495926.904910 kJ/mol
# GULP energy per Si atom -12398.172623 kJ/mol
# Density = 1.751416 g / cm^3
# Si number density = 17.554116 Si / 1000 Ang^3
#
#
#
# Elastic Constant Matrix: (Units=GPa)
#
#
# Indices 1 2 3 4 5 6 
#
# 1 101.2639 68.5034 35.4262 0.0000 0.0000 0.0000
# 2 68.5034 105.7870 36.3365 0.0000 0.0000 0.0000
# 3 35.4262 36.3365 31.3558 0.0000 0.0000 0.0000
# 4 0.0000 0.0000 0.0000 -19.7435 0.0000 0.0000
# 5 0.0000 0.0000 0.0000 0.0000 30.5459 0.0000
# 6 0.0000 0.0000 0.0000 0.0000 0.0000 33.2576
#
#
#
# Elastic Compliance Matrix: (Units=1/GPa)
#
#
# Indices 1 2 3 4 5 6 
#
# 1 0.020240 -0.008725 -0.012757 0.000000 0.000000 0.000000
# 2 -0.008725 0.019465 -0.012699 0.000000 0.000000 0.000000
# 3 -0.012757 -0.012699 0.061021 0.000000 0.000000 0.000000
# 4 0.000000 0.000000 0.000000 -0.050650 0.000000 0.000000
# 5 0.000000 0.000000 0.000000 0.000000 0.032738 0.000000
# 6 0.000000 0.000000 0.000000 0.000000 0.000000 0.030068
#
#
# Mechanical properties :
#
#
# Convention : Reuss Voigt Hill
#
# Bulk Modulus (GPa) = 30.89811 57.65987 44.27899
# Shear Modulus (GPa) = 26.03714 15.35472 20.69593
#
# Velocity S-wave (km/s) = 3.85548 2.96075 3.43735
# Velocity P-wave (km/s) = 6.12041 6.67880 6.40569
#
# Compressibility (1/GPa) = 0.03236444
#
# Stress axis : x y z
#
# Youngs Moduli (GPa) = 49.40612 51.37439 16.38770
#
# Poissons Ratio (x) = 0.44824 0.20906
# Poissons Ratio (y) = 0.43107 0.20811
# Poissons Ratio (z) = 0.63027 0.65241
#
# Static dielectric constant tensor:
#      x y z
#    x 3.308570 0.000000 0.000000 
#    y 0.000000 3.367290 0.000000 
#    z 0.000000 0.000000 2.973710 
# 
# 
# High freq. dielectric constant tensor:
#      x y z
#    x 1.679240 0.000000 0.000000 
#    y 0.000000 1.687990 0.000000 
#    z 0.000000 0.000000 1.652100 
# 
# From -- ./inp_files/40435.got.cif
#   From: 2010.03.12/outbox.cif.g09.slc.cpg/sg63_21_cif.got.tgz:40435.got - 2010.04.10 19:34:48.
