data_PCOD8258553
_publ_section_title
;
Structure prediction by ZEFSAII (Michael W. Deem and Ramdas Pophale) SiO2 
 PCOD8258553
Probable space group: C M C M
;
_chemical_formula_sum "Si O2"
_cell_formula_units_Z 96
_cell_length_a 9.047704
_cell_length_b 19.397756
_cell_length_c 30.660301
_cell_angle_alpha 90.000000
_cell_angle_beta 90.000000
_cell_angle_gamma 90.000000
_cell_volume 5381.040866
_symmetry_space_group_name_H-M "C M C M"
_symmetry_group_IT_number 63
_symmetry_cell_setting 'orthorhombic'
loop_
_space_group_symop_operation_xyz
x,y,z
-x,-y,1/2+z
x,-y,-z
-x,y,1/2-z
-x,-y,-z
x,y,1/2-z
-x,y,z
x,-y,1/2+z
1/2+x,1/2+y,z
1/2-x,1/2-y,1/2+z
1/2+x,1/2-y,-z
1/2-x,1/2+y,1/2-z
1/2-x,1/2-y,-z
1/2+x,1/2+y,1/2-z
1/2-x,1/2+y,z
1/2+x,1/2-y,1/2+z
loop_
_atom_site_type_symbol
_atom_site_label
_atom_site_fract_x
_atom_site_fract_y
_atom_site_fract_z
Si Si1 0.329674 0.918225 0.383157
Si Si2 0.328199 0.425189 0.202084
Si Si3 0.672567 0.321043 0.448895
Si Si4 0.171620 0.181786 0.450356
Si Si5 0.666621 0.081269 0.389690
Si Si6 0.167288 0.434574 0.796521
O O1 0.500000 0.897473 0.385284
O O2 0.264590 0.890159 0.337023
O O3 0.245947 0.883082 0.422973
O O4 0.304214 0.999684 0.388220
O O5 0.294961 0.391516 0.250000
O O6 0.500000 0.418540 0.190519
O O7 0.286178 0.505130 0.204555
O O8 0.500000 0.319611 0.439046
O O9 0.739443 0.248200 0.433645
O O10 0.708300 0.334329 0.499516
O O11 0.219034 0.115671 0.422482
O O12 0.000000 0.196514 0.443293
O O13 0.500000 0.097338 0.405508
O O14 0.693509 0.111059 0.340164
O O15 0.180608 0.393159 0.750000
O O16 0.000000 0.465993 0.800647
#
# Coordination Sequence:
#
# PCOD8258553 Si02
#       6
#    16  16  16  16  16  16
#     4  10  20  33  51  76 104 133 166 205 248 291
#     4   9  16  26  43  69 100 132 165 201 242 288
#     4  10  21  37  55  73  96 128 166 207 251 301
#     4  10  21  36  54  74  97 129 166 204 249 303
#     4   9  18  31  49  75 104 133 164 203 248 289
#     4   8  14  26  44  67  97 132 167 200 238 286
#
# _framework density 17.840415
#
# number of rings (size 3 to 8) (size 9 to 14) (size 15 to 20)
#    0.000    2.667    0.000    3.000    0.000    7.000 
#    0.000    3.333    0.000    1.000    0.000    2.333 
#    0.000    0.000    0.000    0.000    0.000    0.000 
#
# Total GULP energy -594836.052302 kJ/mol
# GULP energy per Si atom -12392.417756 kJ/mol
# Density = 1.779981 g / cm^3
# Si number density = 17.840415 Si / 1000 Ang^3
#
#
#
# Elastic Constant Matrix: (Units=GPa)
#
#
# Indices 1 2 3 4 5 6 
#
# 1 94.5360 33.5630 61.0148 0.0000 0.0000 0.0000
# 2 33.5630 45.2665 45.4303 0.0000 0.0000 0.0000
# 3 61.0148 45.4303 118.5307 0.0000 0.0000 0.0000
# 4 0.0000 0.0000 0.0000 3.6893 0.0000 0.0000
# 5 0.0000 0.0000 0.0000 0.0000 32.7280 0.0000
# 6 0.0000 0.0000 0.0000 0.0000 0.0000 27.5270
#
#
#
# Elastic Compliance Matrix: (Units=1/GPa)
#
#
# Indices 1 2 3 4 5 6 
#
# 1 0.016832 -0.006150 -0.006307 0.000000 0.000000 0.000000
# 2 -0.006150 0.038149 -0.011456 0.000000 0.000000 0.000000
# 3 -0.006307 -0.011456 0.016074 0.000000 0.000000 0.000000
# 4 0.000000 0.000000 0.000000 0.271055 0.000000 0.000000
# 5 0.000000 0.000000 0.000000 0.000000 0.030555 0.000000
# 6 0.000000 0.000000 0.000000 0.000000 0.000000 0.036328
#
#
# Mechanical properties :
#
#
# Convention : Reuss Voigt Hill
#
# Bulk Modulus (GPa) = 43.05045 59.81661 51.43353
# Shear Modulus (GPa) = 10.76282 20.67721 15.72001
#
# Velocity S-wave (km/s) = 2.45885 3.40812 2.97163
# Velocity P-wave (km/s) = 5.67842 7.00632 6.37703
#
# Compressibility (1/GPa) = 0.02322856
#
# Stress axis : x y z
#
# Youngs Moduli (GPa) = 59.40943 26.21333 62.21188
#
# Poissons Ratio (x) = 0.16122 0.39239
# Poissons Ratio (y) = 0.36538 0.71268
# Poissons Ratio (z) = 0.37472 0.30029
#
# Static dielectric constant tensor:
#      x y z
#    x 3.368830 0.000000 0.000000 
#    y 0.000000 2.815080 0.000000 
#    z 0.000000 0.000000 3.745200 
# 
# 
# High freq. dielectric constant tensor:
#      x y z
#    x 1.702470 0.000000 0.000000 
#    y 0.000000 1.631980 0.000000 
#    z 0.000000 0.000000 1.711910 
# 
# From -- ./inp_files/67017.got.cif
#   From: 2010.03.12/outbox.cif.g09.slc.cpg/sg63_34_cif.got.tgz:67017.got - 2010.04.10 19:34:48.
