data_PCOD8258995
_publ_section_title
;
Structure prediction by ZEFSAII (Michael W. Deem and Ramdas Pophale) SiO2 
 PCOD8258995
Probable space group: C M C M
;
_chemical_formula_sum "Si O2"
_cell_formula_units_Z 96
_cell_length_a 8.966677
_cell_length_b 20.454397
_cell_length_c 27.923300
_cell_angle_alpha 90.000000
_cell_angle_beta 90.000000
_cell_angle_gamma 90.000000
_cell_volume 5121.355800
_symmetry_space_group_name_H-M "C M C M"
_symmetry_group_IT_number 63
_symmetry_cell_setting 'orthorhombic'
loop_
_space_group_symop_operation_xyz
x,y,z
-x,-y,1/2+z
x,-y,-z
-x,y,1/2-z
-x,-y,-z
x,y,1/2-z
-x,y,z
x,-y,1/2+z
1/2+x,1/2+y,z
1/2-x,1/2-y,1/2+z
1/2+x,1/2-y,-z
1/2-x,1/2+y,1/2-z
1/2-x,1/2-y,-z
1/2+x,1/2+y,1/2-z
1/2-x,1/2+y,z
1/2+x,1/2-y,1/2+z
loop_
_atom_site_type_symbol
_atom_site_label
_atom_site_fract_x
_atom_site_fract_y
_atom_site_fract_z
Si Si1 0.828183 0.633086 0.045404
Si Si2 0.675948 0.740885 0.898091
Si Si3 0.823096 0.889818 0.053755
Si Si4 0.327627 0.193556 0.303326
Si Si5 0.329149 0.006301 0.392192
Si Si6 0.827282 0.943678 0.695822
O O1 0.766476 0.700259 0.068276
O O2 0.811110 0.577868 0.085493
O O3 0.000000 0.638727 0.028636
O O4 0.725152 0.615810 0.000948
O O5 0.500000 0.738852 0.902363
O O6 0.741649 0.672147 0.916437
O O7 0.723005 0.752881 0.842666
O O8 0.000000 0.893474 0.056491
O O9 0.757162 0.955529 0.075036
O O10 0.304702 0.223282 0.250000
O O11 0.500000 0.173277 0.311653
O O12 0.229261 0.129781 0.310362
O O13 0.500000 0.984480 0.388972
O O14 0.260249 0.007142 0.338998
O O15 0.800347 0.968193 0.750000
O O16 0.000000 0.945138 0.681981
#
# Coordination Sequence:
#
# PCOD8258995 Si02
#       6
#    16  16  16  16  16  16
#     4  10  20  37  58  78 104 143 192 233 269 322
#     4   9  18  35  55  80 111 144 182 225 271 325
#     4  11  23  36  53  79 115 148 182 231 281 328
#     4   9  16  31  57  83 106 139 182 220 261 321
#     4  11  22  38  59  80 108 147 186 225 270 327
#     4  10  20  34  55  85 115 139 172 224 277 320
#
# _framework density 18.745037
#
# number of rings (size 3 to 8) (size 9 to 14) (size 15 to 20)
#    0.000    2.000    1.667    2.500    0.000    4.333 
#    0.000    3.333    0.000    3.000    0.000    0.000 
#    0.000    0.000    0.000    0.000    0.000    0.000 
#
# Total GULP energy -595242.616889 kJ/mol
# GULP energy per Si atom -12400.887852 kJ/mol
# Density = 1.870237 g / cm^3
# Si number density = 18.745037 Si / 1000 Ang^3
#
#
#
# Elastic Constant Matrix: (Units=GPa)
#
#
# Indices 1 2 3 4 5 6 
#
# 1 77.6051 22.7447 41.7253 0.0000 0.0000 0.0000
# 2 22.7447 46.8355 10.1112 0.0000 0.0000 0.0000
# 3 41.7253 10.1112 109.2583 0.0000 0.0000 0.0000
# 4 0.0000 0.0000 0.0000 2.0674 0.0000 0.0000
# 5 0.0000 0.0000 0.0000 0.0000 28.7466 0.0000
# 6 0.0000 0.0000 0.0000 0.0000 0.0000 17.9752
#
#
#
# Elastic Compliance Matrix: (Units=1/GPa)
#
#
# Indices 1 2 3 4 5 6 
#
# 1 0.018552 -0.007632 -0.006379 0.000000 0.000000 0.000000
# 2 -0.007632 0.024927 0.000608 0.000000 0.000000 0.000000
# 3 -0.006379 0.000608 0.011532 0.000000 0.000000 0.000000
# 4 0.000000 0.000000 0.000000 0.483702 0.000000 0.000000
# 5 0.000000 0.000000 0.000000 0.000000 0.034787 0.000000
# 6 0.000000 0.000000 0.000000 0.000000 0.000000 0.055632
#
#
# Mechanical properties :
#
#
# Convention : Reuss Voigt Hill
#
# Bulk Modulus (GPa) = 35.45481 42.54016 38.99748
# Shear Modulus (GPa) = 7.51495 20.36567 13.94031
#
# Velocity S-wave (km/s) = 2.00443 3.29972 2.73001
# Velocity P-wave (km/s) = 4.93075 6.10417 5.54857
#
# Compressibility (1/GPa) = 0.02820492
#
# Stress axis : x y z
#
# Youngs Moduli (GPa) = 53.90175 40.11776 86.71249
#
# Poissons Ratio (x) = 0.30620 0.55311
# Poissons Ratio (y) = 0.41140 -0.05272
# Poissons Ratio (z) = 0.34382 -0.02439
#
# Static dielectric constant tensor:
#      x y z
#    x 3.373260 0.000000 0.000000 
#    y 0.000000 3.475980 0.000000 
#    z 0.000000 0.000000 3.711980 
# 
# 
# High freq. dielectric constant tensor:
#      x y z
#    x 1.717340 0.000000 0.000000 
#    y 0.000000 1.710820 0.000000 
#    z 0.000000 0.000000 1.743960 
# 
# From -- ./inp_files/59935.got.cif
#   From: 2010.03.12/outbox.cif.g09.slc.cpg/sg63_30_cif.got.tgz:59935.got - 2010.04.10 19:34:48.
