data_PCOD8258868
_publ_section_title
;
Structure prediction by ZEFSAII (Michael W. Deem and Ramdas Pophale) SiO2 
 PCOD8258868
Probable space group: C M C M
;
_chemical_formula_sum "Si O2"
_cell_formula_units_Z 64
_cell_length_a 9.517986
_cell_length_b 26.367395
_cell_length_c 13.374284
_cell_angle_alpha 90.000000
_cell_angle_beta 90.000000
_cell_angle_gamma 90.000000
_cell_volume 3356.470450
_symmetry_space_group_name_H-M "C M C M"
_symmetry_group_IT_number 63
_symmetry_cell_setting 'orthorhombic'
loop_
_space_group_symop_operation_xyz
x,y,z
-x,-y,1/2+z
x,-y,-z
-x,y,1/2-z
-x,-y,-z
x,y,1/2-z
-x,y,z
x,-y,1/2+z
1/2+x,1/2+y,z
1/2-x,1/2-y,1/2+z
1/2+x,1/2-y,-z
1/2-x,1/2+y,1/2-z
1/2-x,1/2-y,-z
1/2+x,1/2+y,1/2-z
1/2-x,1/2+y,z
1/2+x,1/2-y,1/2+z
loop_
_atom_site_type_symbol
_atom_site_label
_atom_site_fract_x
_atom_site_fract_y
_atom_site_fract_z
Si Si1 0.665873 0.700934 0.532144
Si Si2 0.347311 0.936149 0.250000
Si Si3 0.164717 0.160630 0.750000
Si Si4 0.160718 0.523562 0.097370
Si Si5 0.161488 0.121095 0.361423
O O1 0.500000 0.711522 0.525275
O O2 0.750000 0.750000 0.500000
O O3 0.711263 0.688329 0.646730
O O4 0.710397 0.657577 0.452045
O O5 0.500000 0.908667 0.250000
O O6 0.226972 0.894949 0.250000
O O7 0.331425 0.972777 0.341442
O O8 0.000000 0.153753 0.750000
O O9 0.249156 0.569924 0.139322
O O10 0.000000 0.542726 0.084604
O O11 0.230564 0.500000 0.000000
O O12 0.181581 0.146114 0.250000
O O13 0.000000 0.106260 0.378160
#
# Coordination Sequence:
#
# PCOD8258868 Si02
#       5
#    16   8   8  16  16
#     4  10  23  41  61  86 114 148 191 239 290 342
#     4  10  20  34  53  82 115 149 188 227 275 332
#     4  10  22  40  59  84 117 149 190 239 283 340
#     4  10  20  34  54  82 116 151 189 231 275 329
#     4  10  21  37  57  84 116 150 191 234 281 340
#
# _framework density 19.067647999999998
#
# number of rings (size 3 to 8) (size 9 to 14) (size 15 to 20)
#    0.000    2.000    1.250    1.500    1.750    3.500 
#    0.000    0.000    0.000    0.000    0.000    0.000 
#    0.000    0.000    0.000    0.000    0.000    0.000 
#
# Total GULP energy -396441.614907 kJ/mol
# GULP energy per Si atom -12388.800466 kJ/mol
# Density = 1.902425 g / cm^3
# Si number density = 19.067648 Si / 1000 Ang^3
#
#
#
# Elastic Constant Matrix: (Units=GPa)
#
#
# Indices 1 2 3 4 5 6 
#
# 1 43.9676 46.2755 32.6698 0.0000 0.0000 0.0000
# 2 46.2755 104.2589 53.0998 0.0000 0.0000 0.0000
# 3 32.6698 53.0998 170.3169 0.0000 0.0000 0.0000
# 4 0.0000 0.0000 0.0000 70.1713 0.0000 0.0000
# 5 0.0000 0.0000 0.0000 0.0000 18.1202 0.0000
# 6 0.0000 0.0000 0.0000 0.0000 0.0000 40.5877
#
#
#
# Elastic Compliance Matrix: (Units=1/GPa)
#
#
# Indices 1 2 3 4 5 6 
#
# 1 0.043764 -0.018009 -0.002780 0.000000 0.000000 0.000000
# 2 -0.018009 0.018813 -0.002411 0.000000 0.000000 0.000000
# 3 -0.002780 -0.002411 0.007156 0.000000 0.000000 0.000000
# 4 0.000000 0.000000 0.000000 0.014251 0.000000 0.000000
# 5 0.000000 0.000000 0.000000 0.000000 0.055187 0.000000
# 6 0.000000 0.000000 0.000000 0.000000 0.000000 0.024638
#
#
# Mechanical properties :
#
#
# Convention : Reuss Voigt Hill
#
# Bulk Modulus (GPa) = 42.85703 64.73707 53.79705
# Shear Modulus (GPa) = 22.93732 38.20905 30.57318
#
# Velocity S-wave (km/s) = 3.47211 4.48131 4.00860
# Velocity P-wave (km/s) = 6.21282 7.79751 7.04984
#
# Compressibility (1/GPa) = 0.02333340
#
# Stress axis : x y z
#
# Youngs Moduli (GPa) = 22.84997 53.15600 139.73710
#
# Poissons Ratio (x) = 0.95727 0.38848
# Poissons Ratio (y) = 0.41150 0.33688
# Poissons Ratio (z) = 0.06352 0.12815
#
# Static dielectric constant tensor:
#      x y z
#    x 3.497340 0.000000 0.000000 
#    y 0.000000 3.251420 0.000000 
#    z 0.000000 0.000000 4.122290 
# 
# 
# High freq. dielectric constant tensor:
#      x y z
#    x 1.733830 0.000000 0.000000 
#    y 0.000000 1.727730 0.000000 
#    z 0.000000 0.000000 1.774390 
# 
# From -- ./inp_files/27581.got.cif
#   From: 2010.03.12/outbox.cif.g09.slc.cpg/sg63_14_cif.got.tgz:27581.got - 2010.04.10 19:34:48.
