data_PCOD8258120
_publ_section_title
;
Structure prediction by ZEFSAII (Michael W. Deem and Ramdas Pophale) SiO2 
 PCOD8258120
Probable space group: C M C M
;
_chemical_formula_sum "Si O2"
_cell_formula_units_Z 64
_cell_length_a 20.538093
_cell_length_b 17.760442
_cell_length_c 8.354636
_cell_angle_alpha 90.000000
_cell_angle_beta 90.000000
_cell_angle_gamma 90.000000
_cell_volume 3047.483893
_symmetry_space_group_name_H-M "C M C M"
_symmetry_group_IT_number 63
_symmetry_cell_setting 'orthorhombic'
loop_
_space_group_symop_operation_xyz
x,y,z
-x,-y,1/2+z
x,-y,-z
-x,y,1/2-z
-x,-y,-z
x,y,1/2-z
-x,y,z
x,-y,1/2+z
1/2+x,1/2+y,z
1/2-x,1/2-y,1/2+z
1/2+x,1/2-y,-z
1/2-x,1/2+y,1/2-z
1/2-x,1/2-y,-z
1/2+x,1/2+y,1/2-z
1/2-x,1/2+y,z
1/2+x,1/2-y,1/2+z
loop_
_atom_site_type_symbol
_atom_site_label
_atom_site_fract_x
_atom_site_fract_y
_atom_site_fract_z
Si Si1 0.640196 0.363552 0.063827
Si Si2 0.367228 0.801567 0.435034
Si Si3 0.500000 0.813329 0.560834
Si Si4 0.000000 0.856170 0.061607
Si Si5 0.230285 0.419165 0.934974
O O1 0.653706 0.380456 0.250000
O O2 0.568165 0.395281 0.009423
O O3 0.642789 0.273650 0.039078
O O4 0.692466 0.407372 0.957600
O O5 0.369597 0.779189 0.250000
O O6 0.432957 0.847024 0.488227
O O7 0.306297 0.855561 0.464710
O O8 0.500000 0.824493 0.750000
O O9 0.500000 0.728177 0.494122
O O10 0.000000 0.847221 0.250000
O O11 0.211713 0.412522 0.750000
O O12 0.208799 0.500000 0.000000
#
# Coordination Sequence:
#
# PCOD8258120 Si02
#       5
#    16  16   8   8  16
#     4  10  19  36  60  87 115 148 187 232 280 332
#     4  11  21  36  59  88 116 148 187 231 279 334
#     4   9  17  33  56  85 116 147 182 229 279 329
#     4   7  14  29  54  83 112 141 177 223 273 321
#     4  12  25  41  57  79 111 150 191 236 285 338
#
# _framework density 21.000931000000001
#
# number of rings (size 3 to 8) (size 9 to 14) (size 15 to 20)
#    0.000    1.750    0.000    7.875    0.000    0.000 
#    0.000    3.125    0.000    0.000    0.000    0.000 
#    0.000    0.000    0.000    0.000    0.000    0.000 
#
# Total GULP energy -396692.275160 kJ/mol
# GULP energy per Si atom -12396.633599 kJ/mol
# Density = 2.095313 g / cm^3
# Si number density = 21.000931 Si / 1000 Ang^3
#
#
#
# Elastic Constant Matrix: (Units=GPa)
#
#
# Indices 1 2 3 4 5 6 
#
# 1 91.0987 -4.3151 15.5084 0.0000 0.0000 0.0000
# 2 -4.3151 33.2577 0.7539 0.0000 0.0000 0.0000
# 3 15.5084 0.7539 90.5168 0.0000 0.0000 0.0000
# 4 0.0000 0.0000 0.0000 25.6915 0.0000 0.0000
# 5 0.0000 0.0000 0.0000 0.0000 37.1204 0.0000
# 6 0.0000 0.0000 0.0000 0.0000 0.0000 3.2348
#
#
#
# Elastic Compliance Matrix: (Units=1/GPa)
#
#
# Indices 1 2 3 4 5 6 
#
# 1 0.011383 0.001521 -0.001963 0.000000 0.000000 0.000000
# 2 0.001521 0.030277 -0.000513 0.000000 0.000000 0.000000
# 3 -0.001963 -0.000513 0.011388 0.000000 0.000000 0.000000
# 4 0.000000 0.000000 0.000000 0.038923 0.000000 0.000000
# 5 0.000000 0.000000 0.000000 0.000000 0.026939 0.000000
# 6 0.000000 0.000000 0.000000 0.000000 0.000000 0.309138
#
#
# Mechanical properties :
#
#
# Convention : Reuss Voigt Hill
#
# Bulk Modulus (GPa) = 19.55413 26.52973 23.04193
# Shear Modulus (GPa) = 11.18556 26.73774 18.96165
#
# Velocity S-wave (km/s) = 2.31036 3.57202 3.00808
# Velocity P-wave (km/s) = 4.05565 5.44725 4.80213
#
# Compressibility (1/GPa) = 0.05114010
#
# Stress axis : x y z
#
# Youngs Moduli (GPa) = 87.84760 33.02806 87.80965
#
# Poissons Ratio (x) = -0.05025 0.17237
# Poissons Ratio (y) = -0.13366 0.04503
# Poissons Ratio (z) = 0.17244 0.01694
#
# Static dielectric constant tensor:
#      x y z
#    x 4.386840 0.000000 0.000000 
#    y 0.000000 3.310040 0.000000 
#    z 0.000000 0.000000 3.603820 
# 
# 
# High freq. dielectric constant tensor:
#      x y z
#    x 1.848350 0.000000 0.000000 
#    y 0.000000 1.772500 0.000000 
#    z 0.000000 0.000000 1.822400 
# 
# From -- ./inp_files/7500.got.cif
#   From: 2010.03.12/outbox.cif.g09.slc.cpg/sg63_4_cif.got.tgz:7500.got - 2010.04.10 19:34:48.
