data_PCOD8258239
_publ_section_title
;
Structure prediction by ZEFSAII (Michael W. Deem and Ramdas Pophale) SiO2 
 PCOD8258239
Probable space group: C M C M
;
_chemical_formula_sum "Si O2"
_cell_formula_units_Z 96
_cell_length_a 9.220503
_cell_length_b 23.102806
_cell_length_c 26.263011
_cell_angle_alpha 90.000000
_cell_angle_beta 90.000000
_cell_angle_gamma 90.000000
_cell_volume 5594.533262
_symmetry_space_group_name_H-M "C M C M"
_symmetry_group_IT_number 63
_symmetry_cell_setting 'orthorhombic'
loop_
_space_group_symop_operation_xyz
x,y,z
-x,-y,1/2+z
x,-y,-z
-x,y,1/2-z
-x,-y,-z
x,y,1/2-z
-x,y,z
x,-y,1/2+z
1/2+x,1/2+y,z
1/2-x,1/2-y,1/2+z
1/2+x,1/2-y,-z
1/2-x,1/2+y,1/2-z
1/2-x,1/2-y,-z
1/2+x,1/2+y,1/2-z
1/2-x,1/2+y,z
1/2+x,1/2-y,1/2+z
loop_
_atom_site_type_symbol
_atom_site_label
_atom_site_fract_x
_atom_site_fract_y
_atom_site_fract_z
Si Si1 0.662719 0.575315 0.611256
Si Si2 0.828369 0.520048 0.443845
Si Si3 0.166336 0.137524 0.432784
Si Si4 0.170774 0.831486 0.308149
Si Si5 0.338303 0.319025 0.040800
Si Si6 0.667566 0.250019 0.620832
O O1 0.500000 0.551725 0.621176
O O2 0.768534 0.522027 0.600136
O O3 0.718711 0.611437 0.660487
O O4 0.665300 0.616022 0.562174
O O5 0.775021 0.500000 0.500000
O O6 0.772606 0.583537 0.429612
O O7 0.000000 0.520024 0.441044
O O8 0.204330 0.176562 0.481913
O O9 0.189355 0.180466 0.384482
O O10 0.000000 0.115565 0.435690
O O11 0.218092 0.840120 0.250000
O O12 0.246513 0.773949 0.330296
O O13 0.000000 0.821881 0.314458
O O14 0.500000 0.292824 0.048399
O O15 0.222110 0.279723 0.069081
O O16 0.500000 0.234143 0.627635
#
# Coordination Sequence:
#
# PCOD8258239 Si02
#       6
#    16  16  16  16  16  16
#     4   9  17  31  52  74  98 132 171 208 246 297
#     4  11  22  32  46  72 104 138 174 212 250 292
#     4  10  20  33  48  68 100 142 177 202 239 297
#     4   9  19  37  59  79  99 128 166 207 257 313
#     4   9  17  30  48  69  98 138 174 201 240 294
#     4  10  20  31  48  76 104 129 165 211 255 296
#
# _framework density 17.159607999999999
#
# number of rings (size 3 to 8) (size 9 to 14) (size 15 to 20)
#    0.000    2.333    1.667    2.500    0.000    5.667 
#    0.000    0.000    0.000    1.000    0.000    2.333 
#    0.000    0.000    0.000    0.000    0.000    0.000 
#
# Total GULP energy -595111.470315 kJ/mol
# GULP energy per Si atom -12398.155632 kJ/mol
# Density = 1.712055 g / cm^3
# Si number density = 17.159608 Si / 1000 Ang^3
#
#
#
# Elastic Constant Matrix: (Units=GPa)
#
#
# Indices 1 2 3 4 5 6 
#
# 1 70.4588 49.4874 38.4998 0.0000 0.0000 0.0000
# 2 49.4874 91.6668 46.6815 0.0000 0.0000 0.0000
# 3 38.4998 46.6815 97.9662 0.0000 0.0000 0.0000
# 4 0.0000 0.0000 0.0000 14.7406 0.0000 0.0000
# 5 0.0000 0.0000 0.0000 0.0000 19.7266 0.0000
# 6 0.0000 0.0000 0.0000 0.0000 0.0000 31.0320
#
#
#
# Elastic Compliance Matrix: (Units=1/GPa)
#
#
# Indices 1 2 3 4 5 6 
#
# 1 0.024179 -0.010846 -0.004334 0.000000 0.000000 0.000000
# 2 -0.010846 0.019270 -0.004920 0.000000 0.000000 0.000000
# 3 -0.004334 -0.004920 0.014255 0.000000 0.000000 0.000000
# 4 0.000000 0.000000 0.000000 0.067840 0.000000 0.000000
# 5 0.000000 0.000000 0.000000 0.000000 0.050693 0.000000
# 6 0.000000 0.000000 0.000000 0.000000 0.000000 0.032225
#
#
# Mechanical properties :
#
#
# Convention : Reuss Voigt Hill
#
# Bulk Modulus (GPa) = 57.12907 58.82546 57.97726
# Shear Modulus (GPa) = 19.64674 21.46139 20.55406
#
# Velocity S-wave (km/s) = 3.38737 3.54035 3.46470
# Velocity P-wave (km/s) = 6.97596 7.14618 7.06158
#
# Compressibility (1/GPa) = 0.01750422
#
# Stress axis : x y z
#
# Youngs Moduli (GPa) = 41.35894 51.89435 70.15082
#
# Poissons Ratio (x) = 0.56285 0.30401
# Poissons Ratio (y) = 0.44859 0.34513
# Poissons Ratio (z) = 0.17924 0.25531
#
# Static dielectric constant tensor:
#      x y z
#    x 3.162220 0.000000 0.000000 
#    y 0.000000 3.093950 0.000000 
#    z 0.000000 0.000000 3.077440 
# 
# 
# High freq. dielectric constant tensor:
#      x y z
#    x 1.664320 0.000000 0.000000 
#    y 0.000000 1.654130 0.000000 
#    z 0.000000 0.000000 1.633890 
# 
# From -- ./inp_files/59936.got.cif
#   From: 2010.03.12/outbox.cif.g09.slc.cpg/sg63_30_cif.got.tgz:59936.got - 2010.04.10 19:34:48.
