data_PCOD8258581
_publ_section_title
;
Structure prediction by ZEFSAII (Michael W. Deem and Ramdas Pophale) SiO2 
 PCOD8258581
Probable space group: C M C M
;
_chemical_formula_sum "Si O2"
_cell_formula_units_Z 88
_cell_length_a 18.036104
_cell_length_b 30.289260
_cell_length_c 9.009933
_cell_angle_alpha 90.000000
_cell_angle_beta 90.000000
_cell_angle_gamma 90.000000
_cell_volume 4922.128591
_symmetry_space_group_name_H-M "C M C M"
_symmetry_group_IT_number 63
_symmetry_cell_setting 'orthorhombic'
loop_
_space_group_symop_operation_xyz
x,y,z
-x,-y,1/2+z
x,-y,-z
-x,y,1/2-z
-x,-y,-z
x,y,1/2-z
-x,y,z
x,-y,1/2+z
1/2+x,1/2+y,z
1/2-x,1/2-y,1/2+z
1/2+x,1/2-y,-z
1/2-x,1/2+y,1/2-z
1/2-x,1/2-y,-z
1/2+x,1/2+y,1/2-z
1/2-x,1/2+y,z
1/2+x,1/2-y,1/2+z
loop_
_atom_site_type_symbol
_atom_site_label
_atom_site_fract_x
_atom_site_fract_y
_atom_site_fract_z
Si Si1 0.204712 0.211125 0.075582
Si Si2 0.338771 0.452702 0.574911
Si Si3 0.414714 0.755633 0.582842
Si Si4 0.915543 0.347950 0.075846
Si Si5 0.500000 0.546086 0.422135
Si Si6 0.278819 0.118928 0.075538
O O1 0.200434 0.218125 0.250000
O O2 0.238502 0.164272 0.032938
O O3 0.250000 0.250000 0.000000
O O4 0.122837 0.215165 0.005124
O O5 0.327501 0.500000 0.500000
O O6 0.331255 0.459148 0.750000
O O7 0.420676 0.431052 0.535985
O O8 0.274445 0.420134 0.517319
O O9 0.382759 0.760244 0.750000
O O10 0.500000 0.743646 0.585718
O O11 0.398314 0.801525 0.501319
O O12 0.902448 0.342539 0.250000
O O13 0.000000 0.363275 0.041846
O O14 0.858018 0.383749 0.008958
O O15 0.500000 0.500000 0.500000
O O16 0.500000 0.536149 0.250000
O O17 0.293817 0.115155 0.250000
#
# Coordination Sequence:
#
# PCOD8258581 Si02
#       6
#    16  16  16  16   8  16
#     4  11  21  33  50  74 104 139 176 215 256 305
#     4   9  18  34  55  80 105 134 171 210 255 306
#     4  10  20  34  51  70  98 137 177 217 261 305
#     4  10  20  33  52  77 101 131 175 219 259 309
#     4   8  14  28  52  76 102 132 166 206 246 294
#     4  10  21  35  52  77 106 137 173 211 261 316
#
# _framework density 17.878443000000001
#
# number of rings (size 3 to 8) (size 9 to 14) (size 15 to 20)
#    0.000    2.182    1.818    1.636    0.000    3.636 
#    1.636    0.000    0.000    0.545    0.000    0.000 
#    0.000    0.000    0.000    0.000    0.000    0.000 
#
# Total GULP energy -545301.506074 kJ/mol
# GULP energy per Si atom -12393.216047 kJ/mol
# Density = 1.783775 g / cm^3
# Si number density = 17.878443 Si / 1000 Ang^3
#
#
#
# Elastic Constant Matrix: (Units=GPa)
#
#
# Indices 1 2 3 4 5 6 
#
# 1 146.6269 62.7248 57.4632 0.0000 0.0000 0.0000
# 2 62.7248 79.9826 39.2353 0.0000 0.0000 0.0000
# 3 57.4632 39.2353 70.6328 0.0000 0.0000 0.0000
# 4 0.0000 0.0000 0.0000 22.8014 0.0000 0.0000
# 5 0.0000 0.0000 0.0000 0.0000 32.4646 0.0000
# 6 0.0000 0.0000 0.0000 0.0000 0.0000 30.6928
#
#
#
# Elastic Compliance Matrix: (Units=1/GPa)
#
#
# Indices 1 2 3 4 5 6 
#
# 1 0.011966 -0.006335 -0.006216 0.000000 0.000000 0.000000
# 2 -0.006335 0.020539 -0.006256 0.000000 0.000000 0.000000
# 3 -0.006216 -0.006256 0.022690 0.000000 0.000000 0.000000
# 4 0.000000 0.000000 0.000000 0.043857 0.000000 0.000000
# 5 0.000000 0.000000 0.000000 0.000000 0.030803 0.000000
# 6 0.000000 0.000000 0.000000 0.000000 0.000000 0.032581
#
#
# Mechanical properties :
#
#
# Convention : Reuss Voigt Hill
#
# Bulk Modulus (GPa) = 56.87595 68.45433 62.66514
# Shear Modulus (GPa) = 24.28252 26.37969 25.33111
#
# Velocity S-wave (km/s) = 3.68938 3.84539 3.76819
# Velocity P-wave (km/s) = 7.07321 7.62155 7.35249
#
# Compressibility (1/GPa) = 0.01758212
#
# Stress axis : x y z
#
# Youngs Moduli (GPa) = 83.56949 48.68698 44.07304
#
# Poissons Ratio (x) = 0.30843 0.27396
# Poissons Ratio (y) = 0.52940 0.27570
# Poissons Ratio (z) = 0.51947 0.30456
#
# Static dielectric constant tensor:
#      x y z
#    x 3.599440 0.000000 0.000000 
#    y 0.000000 2.945070 0.000000 
#    z 0.000000 0.000000 3.452980 
# 
# 
# High freq. dielectric constant tensor:
#      x y z
#    x 1.714600 0.000000 0.000000 
#    y 0.000000 1.645810 0.000000 
#    z 0.000000 0.000000 1.699280 
# 
# From -- ./inp_files/6833.got.cif
#   From: 2010.03.12/outbox.cif.g09.slc.cpg/sg63_4_cif.got.tgz:6833.got - 2010.04.10 19:34:48.
