data_PCOD8258927
_publ_section_title
;
Structure prediction by ZEFSAII (Michael W. Deem and Ramdas Pophale) SiO2 
 PCOD8258927
Probable space group: C M C M
;
_chemical_formula_sum "Si O2"
_cell_formula_units_Z 80
_cell_length_a 8.630537
_cell_length_b 19.306193
_cell_length_c 25.468648
_cell_angle_alpha 90.000000
_cell_angle_beta 90.000000
_cell_angle_gamma 90.000000
_cell_volume 4243.657773
_symmetry_space_group_name_H-M "C M C M"
_symmetry_group_IT_number 63
_symmetry_cell_setting 'orthorhombic'
loop_
_space_group_symop_operation_xyz
x,y,z
-x,-y,1/2+z
x,-y,-z
-x,y,1/2-z
-x,-y,-z
x,y,1/2-z
-x,y,z
x,-y,1/2+z
1/2+x,1/2+y,z
1/2-x,1/2-y,1/2+z
1/2+x,1/2-y,-z
1/2-x,1/2+y,1/2-z
1/2-x,1/2-y,-z
1/2+x,1/2+y,1/2-z
1/2-x,1/2+y,z
1/2+x,1/2-y,1/2+z
loop_
_atom_site_type_symbol
_atom_site_label
_atom_site_fract_x
_atom_site_fract_y
_atom_site_fract_z
Si Si1 0.814765 0.203307 0.750000
Si Si2 0.181706 0.300069 0.841304
Si Si3 0.318634 0.451021 0.952210
Si Si4 0.317438 0.196591 0.040772
Si Si5 0.316977 0.044292 0.341658
Si Si6 0.183034 0.046594 0.750000
O O1 0.748095 0.243997 0.699012
O O2 0.750489 0.125067 0.750000
O O3 0.000000 0.202287 0.750000
O O4 0.221351 0.276592 0.900501
O O5 0.246037 0.377698 0.830419
O O6 0.000000 0.303667 0.832510
O O7 0.500000 0.452918 0.939870
O O8 0.267551 0.375131 0.969704
O O9 0.227886 0.477061 0.900723
O O10 0.272412 0.500000 0.000000
O O11 0.500000 0.186542 0.033155
O O12 0.250000 0.250000 0.000000
O O13 0.500000 0.040349 0.334816
O O14 0.239692 0.991310 0.301980
O O15 0.000000 0.047770 0.750000
#
# Coordination Sequence:
#
# PCOD8258927 Si02
#       6
#     8  16  16  16  16   8
#     4   9  17  31  51  75 102 131 168 214 262 313
#     4   8  16  32  54  76  97 131 178 219 259 312
#     4  10  21  37  57  81 110 144 183 228 279 336
#     4  10  20  34  54  81 111 144 183 225 272 327
#     4  10  20  36  58  79 104 141 183 226 270 323
#     4  11  22  33  51  81 112 141 174 218 272 327
#
# _framework density 18.851661
#
# number of rings (size 3 to 8) (size 9 to 14) (size 15 to 20)
#    0.000    2.400    0.000    3.900    0.000    4.800 
#    0.000    4.000    0.000   15.600    0.000    0.000 
#    0.000    0.000    0.000    0.000    0.000    0.000 
#
# Total GULP energy -495962.401769 kJ/mol
# GULP energy per Si atom -12399.060044 kJ/mol
# Density = 1.880875 g / cm^3
# Si number density = 18.851661 Si / 1000 Ang^3
#
#
#
# Elastic Constant Matrix: (Units=GPa)
#
#
# Indices 1 2 3 4 5 6 
#
# 1 31.4291 21.6451 23.4740 0.0000 0.0000 0.0000
# 2 21.6451 131.5186 100.6652 0.0000 0.0000 0.0000
# 3 23.4740 100.6652 146.2086 0.0000 0.0000 0.0000
# 4 0.0000 0.0000 0.0000 40.3378 0.0000 0.0000
# 5 0.0000 0.0000 0.0000 0.0000 29.9919 0.0000
# 6 0.0000 0.0000 0.0000 0.0000 0.0000 27.7095
#
#
#
# Elastic Compliance Matrix: (Units=1/GPa)
#
#
# Indices 1 2 3 4 5 6 
#
# 1 0.036796 -0.003243 -0.003675 0.000000 0.000000 0.000000
# 2 -0.003243 0.016360 -0.010744 0.000000 0.000000 0.000000
# 3 -0.003675 -0.010744 0.014826 0.000000 0.000000 0.000000
# 4 0.000000 0.000000 0.000000 0.024791 0.000000 0.000000
# 5 0.000000 0.000000 0.000000 0.000000 0.033342 0.000000
# 6 0.000000 0.000000 0.000000 0.000000 0.000000 0.036089
#
#
# Mechanical properties :
#
#
# Convention : Reuss Voigt Hill
#
# Bulk Modulus (GPa) = 30.61856 66.74720 48.68288
# Shear Modulus (GPa) = 23.99076 30.49930 27.24503
#
# Velocity S-wave (km/s) = 3.57123 4.02662 3.80575
# Velocity P-wave (km/s) = 5.76906 7.55656 6.72249
#
# Compressibility (1/GPa) = 0.03265993
#
# Stress axis : x y z
#
# Youngs Moduli (GPa) = 27.17706 61.12323 67.44690
#
# Poissons Ratio (x) = 0.19823 0.24785
# Poissons Ratio (y) = 0.08814 0.72462
# Poissons Ratio (z) = 0.09987 0.65668
#
# Static dielectric constant tensor:
#      x y z
#    x 3.296170 0.000000 0.000000 
#    y 0.000000 3.683820 0.000000 
#    z 0.000000 0.000000 3.591690 
# 
# 
# High freq. dielectric constant tensor:
#      x y z
#    x 1.715510 0.000000 0.000000 
#    y 0.000000 1.731750 0.000000 
#    z 0.000000 0.000000 1.745770 
# 
# From -- ./inp_files/66698.got.cif
#   From: 2010.03.12/outbox.cif.g09.slc.cpg/sg63_34_cif.got.tgz:66698.got - 2010.04.10 19:34:48.
