data_PCOD8258184
_publ_section_title
;
Structure prediction by ZEFSAII (Michael W. Deem and Ramdas Pophale) SiO2 
 PCOD8258184
Probable space group: C M C M
;
_chemical_formula_sum "Si O2"
_cell_formula_units_Z 88
_cell_length_a 14.302093
_cell_length_b 15.488705
_cell_length_c 20.171669
_cell_angle_alpha 90.000000
_cell_angle_beta 90.000000
_cell_angle_gamma 90.000000
_cell_volume 4468.446258
_symmetry_space_group_name_H-M "C M C M"
_symmetry_group_IT_number 63
_symmetry_cell_setting 'orthorhombic'
loop_
_space_group_symop_operation_xyz
x,y,z
-x,-y,1/2+z
x,-y,-z
-x,y,1/2-z
-x,-y,-z
x,y,1/2-z
-x,y,z
x,-y,1/2+z
1/2+x,1/2+y,z
1/2-x,1/2-y,1/2+z
1/2+x,1/2-y,-z
1/2-x,1/2+y,1/2-z
1/2-x,1/2-y,-z
1/2+x,1/2+y,1/2-z
1/2-x,1/2+y,z
1/2+x,1/2-y,1/2+z
loop_
_atom_site_type_symbol
_atom_site_label
_atom_site_fract_x
_atom_site_fract_y
_atom_site_fract_z
Si Si1 0.760038 0.347283 0.018375
Si Si2 0.393408 0.564570 0.892173
Si Si3 0.896591 0.592519 0.877241
Si Si4 0.160344 0.921926 0.250000
Si Si5 0.286757 0.374845 0.750000
Si Si6 0.850976 0.314482 0.250000
Si Si7 0.738474 0.064531 0.381113
O O1 0.666094 0.379059 0.055321
O O2 0.851173 0.354115 0.063406
O O3 0.750000 0.250000 0.000000
O O4 0.787184 0.398129 0.951982
O O5 0.500000 0.557034 0.917816
O O6 0.393873 0.604486 0.817472
O O7 0.344890 0.470667 0.887902
O O8 0.906389 0.655272 0.814604
O O9 0.831568 0.511426 0.860746
O O10 0.000000 0.561094 0.897689
O O11 0.251604 0.862388 0.250000
O O12 0.171921 0.027039 0.250000
O O13 0.352256 0.290414 0.750000
O O14 0.230056 0.367485 0.680087
#
# Coordination Sequence:
#
# PCOD8258184 Si02
#       7
#    16  16  16   8   8   8  16
#     4  11  23  38  57  87 122 161 201 252 306 361
#     4  10  20  37  61  86 114 154 198 244 296 358
#     4  11  22  39  62  88 121 161 208 253 300 363
#     4  10  19  39  61  88 118 157 196 241 301 360
#     4  10  20  37  64  89 116 157 196 252 302 362
#     4  12  19  38  65  89 122 162 200 249 303 358
#     4  10  21  39  61  86 117 159 203 243 311 360
#
# _framework density 19.693646000000001
#
# number of rings (size 3 to 8) (size 9 to 14) (size 15 to 20)
#    0.000    1.455    5.455    3.818    0.000    3.636 
#    0.000   10.909    0.000    0.000    0.000    0.000 
#    0.000    0.000    0.000    0.000    0.000    0.000 
#
# Total GULP energy -545091.062587 kJ/mol
# GULP energy per Si atom -12388.433241 kJ/mol
# Density = 1.964882 g / cm^3
# Si number density = 19.693646 Si / 1000 Ang^3
#
#
#
# Elastic Constant Matrix: (Units=GPa)
#
#
# Indices 1 2 3 4 5 6 
#
# 1 115.0831 23.2950 26.4100 0.0000 0.0000 0.0000
# 2 23.2950 85.4484 35.9259 0.0000 0.0000 0.0000
# 3 26.4100 35.9259 169.0511 0.0000 0.0000 0.0000
# 4 0.0000 0.0000 0.0000 17.8418 0.0000 0.0000
# 5 0.0000 0.0000 0.0000 0.0000 -4.7500 0.0000
# 6 0.0000 0.0000 0.0000 0.0000 0.0000 5.5810
#
#
#
# Elastic Compliance Matrix: (Units=1/GPa)
#
#
# Indices 1 2 3 4 5 6 
#
# 1 0.009351 -0.002125 -0.001009 0.000000 0.000000 0.000000
# 2 -0.002125 0.013334 -0.002502 0.000000 0.000000 0.000000
# 3 -0.001009 -0.002502 0.006605 0.000000 0.000000 0.000000
# 4 0.000000 0.000000 0.000000 0.056048 0.000000 0.000000
# 5 0.000000 0.000000 0.000000 0.000000 -0.210527 0.000000
# 6 0.000000 0.000000 0.000000 0.000000 0.000000 0.179180
#
#
# Mechanical properties :
#
#
# Convention : Reuss Voigt Hill
#
# Bulk Modulus (GPa) = 55.50015 60.09382 57.79698
# Shear Modulus (GPa) = 70.15601 22.66466 46.41033
#
# Velocity S-wave (km/s) = 5.97503 3.39612 4.85976
# Velocity P-wave (km/s) = 8.70886 6.77928 7.80394
#
# Compressibility (1/GPa) = 0.01801797
#
# Stress axis : x y z
#
# Youngs Moduli (GPa) = 106.93904 74.99562 151.40722
#
# Poissons Ratio (x) = 0.15936 0.15281
# Poissons Ratio (y) = 0.22724 0.37878
# Poissons Ratio (z) = 0.10793 0.18762
#
# Static dielectric constant tensor:
#      x y z
#    x 3.280450 0.000000 0.000000 
#    y 0.000000 3.357170 0.000000 
#    z 0.000000 0.000000 4.240970 
# 
# 
# High freq. dielectric constant tensor:
#      x y z
#    x 1.741360 0.000000 0.000000 
#    y 0.000000 1.747650 0.000000 
#    z 0.000000 0.000000 1.802410 
# 
# From -- ./inp_files/54117.got.cif
#   From: 2010.03.12/outbox.cif.g09.slc.cpg/sg63_28_cif.got.tgz:54117.got - 2010.04.10 19:34:48.
