data_PCOD8258299
_publ_section_title
;
Structure prediction by ZEFSAII (Michael W. Deem and Ramdas Pophale) SiO2 
 PCOD8258299
Probable space group: C M C M
;
_chemical_formula_sum "Si O2"
_cell_formula_units_Z 96
_cell_length_a 9.267050
_cell_length_b 26.834318
_cell_length_c 23.533631
_cell_angle_alpha 90.000000
_cell_angle_beta 90.000000
_cell_angle_gamma 90.000000
_cell_volume 5852.224903
_symmetry_space_group_name_H-M "C M C M"
_symmetry_group_IT_number 63
_symmetry_cell_setting 'orthorhombic'
loop_
_space_group_symop_operation_xyz
x,y,z
-x,-y,1/2+z
x,-y,-z
-x,y,1/2-z
-x,-y,-z
x,y,1/2-z
-x,y,z
x,-y,1/2+z
1/2+x,1/2+y,z
1/2-x,1/2-y,1/2+z
1/2+x,1/2-y,-z
1/2-x,1/2+y,1/2-z
1/2-x,1/2-y,-z
1/2+x,1/2+y,1/2-z
1/2-x,1/2+y,z
1/2+x,1/2-y,1/2+z
loop_
_atom_site_type_symbol
_atom_site_label
_atom_site_fract_x
_atom_site_fract_y
_atom_site_fract_z
Si Si1 0.332604 0.273799 0.916800
Si Si2 0.667381 0.825080 0.484441
Si Si3 0.332475 0.577741 0.525506
Si Si4 0.333287 0.478153 0.911916
Si Si5 0.667270 0.813287 0.815381
Si Si6 0.669088 0.072712 0.186170
O O1 0.500000 0.288774 0.916032
O O2 0.309768 0.217468 0.937520
O O3 0.265996 0.277763 0.853995
O O4 0.250064 0.312056 0.957684
O O5 0.500000 0.832660 0.499210
O O6 0.733843 0.875315 0.458513
O O7 0.500000 0.593251 0.526011
O O8 0.302306 0.535444 0.572306
O O9 0.286764 0.557373 0.463752
O O10 0.500000 0.470028 0.898416
O O11 0.245113 0.465223 0.856036
O O12 0.698416 0.799766 0.750000
O O13 0.500000 0.804085 0.829866
O O14 0.710505 0.870374 0.827907
O O15 0.719131 0.059635 0.250000
O O16 0.500000 0.065290 0.179950
#
# Coordination Sequence:
#
# PCOD8258299 Si02
#       6
#    16  16  16  16  16  16
#     4  10  20  32  47  69  96 124 154 190 231 273
#     4  10  20  32  47  69  95 123 156 191 228 273
#     4   9  18  32  48  68  95 122 149 187 232 273
#     4   9  18  31  47  69  95 121 150 186 228 273
#     4   9  18  32  49  70  96 124 154 189 229 274
#     4   9  18  31  46  67  95 123 151 186 226 267
#
# _framework density 16.404015999999999
#
# number of rings (size 3 to 8) (size 9 to 14) (size 15 to 20)
#    0.000    2.667    0.000    4.000    0.000    7.333 
#    0.000    3.333    0.000    1.000    0.000    0.000 
#    0.000    0.000    0.000    0.000    0.000    0.000 
#
# Total GULP energy -595272.925143 kJ/mol
# GULP energy per Si atom -12401.519274 kJ/mol
# Density = 1.636668 g / cm^3
# Si number density = 16.404016 Si / 1000 Ang^3
#
#
#
# Elastic Constant Matrix: (Units=GPa)
#
#
# Indices 1 2 3 4 5 6 
#
# 1 88.7827 54.6748 58.0643 0.0000 0.0000 0.0000
# 2 54.6748 84.9829 45.8173 0.0000 0.0000 0.0000
# 3 58.0643 45.8173 106.1485 0.0000 0.0000 0.0000
# 4 0.0000 0.0000 0.0000 22.5943 0.0000 0.0000
# 5 0.0000 0.0000 0.0000 0.0000 34.0922 0.0000
# 6 0.0000 0.0000 0.0000 0.0000 0.0000 31.4517
#
#
#
# Elastic Compliance Matrix: (Units=1/GPa)
#
#
# Indices 1 2 3 4 5 6 
#
# 1 0.022950 -0.010422 -0.008055 0.000000 0.000000 0.000000
# 2 -0.010422 0.020069 -0.002961 0.000000 0.000000 0.000000
# 3 -0.008055 -0.002961 0.015105 0.000000 0.000000 0.000000
# 4 0.000000 0.000000 0.000000 0.044259 0.000000 0.000000
# 5 0.000000 0.000000 0.000000 0.000000 0.029332 0.000000
# 6 0.000000 0.000000 0.000000 0.000000 0.000000 0.031795
#
#
# Mechanical properties :
#
#
# Convention : Reuss Voigt Hill
#
# Bulk Modulus (GPa) = 65.58908 66.33632 65.96270
# Shear Modulus (GPa) = 23.64403 25.71815 24.68109
#
# Velocity S-wave (km/s) = 3.80064 3.96384 3.88309
# Velocity P-wave (km/s) = 7.70261 7.84068 7.77195
#
# Compressibility (1/GPa) = 0.01524644
#
# Stress axis : x y z
#
# Youngs Moduli (GPa) = 43.57313 49.82835 66.20190
#
# Poissons Ratio (x) = 0.51932 0.53327
# Poissons Ratio (y) = 0.45413 0.19605
# Poissons Ratio (z) = 0.35099 0.14756
#
# Static dielectric constant tensor:
#      x y z
#    x 3.046480 0.000000 0.000000 
#    y 0.000000 2.970160 0.000000 
#    z 0.000000 0.000000 2.977510 
# 
# 
# High freq. dielectric constant tensor:
#      x y z
#    x 1.635680 0.000000 0.000000 
#    y 0.000000 1.620100 0.000000 
#    z 0.000000 0.000000 1.621360 
# 
# From -- ./inp_files/59908.got.cif
#   From: 2010.03.12/outbox.cif.g09.slc.cpg/sg63_30_cif.got.tgz:59908.got - 2010.04.10 19:34:48.
