data_PCOD8258895
_publ_section_title
;
Structure prediction by ZEFSAII (Michael W. Deem and Ramdas Pophale) SiO2 
 PCOD8258895
Probable space group: C M C M
;
_chemical_formula_sum "Si O2"
_cell_formula_units_Z 88
_cell_length_a 18.627384
_cell_length_b 27.587275
_cell_length_c 8.966312
_cell_angle_alpha 90.000000
_cell_angle_beta 90.000000
_cell_angle_gamma 90.000000
_cell_volume 4607.597337
_symmetry_space_group_name_H-M "C M C M"
_symmetry_group_IT_number 63
_symmetry_cell_setting 'orthorhombic'
loop_
_space_group_symop_operation_xyz
x,y,z
-x,-y,1/2+z
x,-y,-z
-x,y,1/2-z
-x,-y,-z
x,y,1/2-z
-x,y,z
x,-y,1/2+z
1/2+x,1/2+y,z
1/2-x,1/2-y,1/2+z
1/2+x,1/2-y,-z
1/2-x,1/2+y,1/2-z
1/2-x,1/2-y,-z
1/2+x,1/2+y,1/2-z
1/2-x,1/2+y,z
1/2+x,1/2-y,1/2+z
loop_
_atom_site_type_symbol
_atom_site_label
_atom_site_fract_x
_atom_site_fract_y
_atom_site_fract_z
Si Si1 0.869163 0.092534 0.579452
Si Si2 0.326462 0.686182 0.077341
Si Si3 0.174166 0.645626 0.418056
Si Si4 0.583004 0.766195 0.576670
Si Si5 0.000000 0.050013 0.421559
Si Si6 0.715996 0.050220 0.922429
O O1 0.895038 0.088100 0.750000
O O2 0.856173 0.147868 0.540443
O O3 0.929550 0.078343 0.464573
O O4 0.800272 0.058963 0.549525
O O5 0.346942 0.675478 0.250000
O O6 0.240396 0.683310 0.056466
O O7 0.362771 0.736364 0.028456
O O8 0.176878 0.625711 0.250000
O O9 0.102610 0.677080 0.448416
O O10 0.173568 0.597527 0.519271
O O11 0.594928 0.752249 0.750000
O O12 0.500000 0.757903 0.529952
O O13 0.000000 0.039588 0.250000
O O14 0.000000 0.000000 0.500000
O O15 0.697496 0.044896 0.750000
O O16 0.692290 0.000000 0.000000
#
# Coordination Sequence:
#
# PCOD8258895 Si02
#       6
#    16  16  16  16   8  16
#     4  10  21  36  53  74 103 139 179 222 267 317
#     4  10  20  34  54  79 107 141 181 225 268 316
#     4   9  19  36  56  79 108 142 180 223 270 320
#     4  10  21  36  55  79 109 145 181 221 272 327
#     4  12  24  36  50  70 100 140 182 224 271 318
#     4  10  20  34  56  82 106 135 173 219 269 321
#
# _framework density 19.098891999999999
#
# number of rings (size 3 to 8) (size 9 to 14) (size 15 to 20)
#    0.000    2.000    0.000    3.545    1.273    5.455 
#    0.000    0.000    0.000    0.545    0.000    0.000 
#    0.000    0.000    0.000    0.000    0.000    0.000 
#
# Total GULP energy -545425.567908 kJ/mol
# GULP energy per Si atom -12396.035634 kJ/mol
# Density = 1.905542 g / cm^3
# Si number density = 19.098892 Si / 1000 Ang^3
#
#
#
# Elastic Constant Matrix: (Units=GPa)
#
#
# Indices 1 2 3 4 5 6 
#
# 1 42.7797 28.1817 21.1888 0.0000 0.0000 0.0000
# 2 28.1817 98.4870 41.6270 0.0000 0.0000 0.0000
# 3 21.1888 41.6270 98.5510 0.0000 0.0000 0.0000
# 4 0.0000 0.0000 0.0000 36.8224 0.0000 0.0000
# 5 0.0000 0.0000 0.0000 0.0000 19.7163 0.0000
# 6 0.0000 0.0000 0.0000 0.0000 0.0000 2.7297
#
#
#
# Elastic Compliance Matrix: (Units=1/GPa)
#
#
# Indices 1 2 3 4 5 6 
#
# 1 0.029716 -0.007064 -0.003405 0.000000 0.000000 0.000000
# 2 -0.007064 0.014039 -0.004411 0.000000 0.000000 0.000000
# 3 -0.003405 -0.004411 0.012743 0.000000 0.000000 0.000000
# 4 0.000000 0.000000 0.000000 0.027157 0.000000 0.000000
# 5 0.000000 0.000000 0.000000 0.000000 0.050720 0.000000
# 6 0.000000 0.000000 0.000000 0.000000 0.000000 0.366335
#
#
# Mechanical properties :
#
#
# Convention : Reuss Voigt Hill
#
# Bulk Modulus (GPa) = 37.40179 46.86806 42.13492
# Shear Modulus (GPa) = 9.26987 21.77503 15.52245
#
# Velocity S-wave (km/s) = 2.20548 3.38023 2.85395
# Velocity P-wave (km/s) = 5.10992 6.31091 5.74190
#
# Compressibility (1/GPa) = 0.02673669
#
# Stress axis : x y z
#
# Youngs Moduli (GPa) = 33.65244 71.22800 78.47746
#
# Poissons Ratio (x) = 0.50313 0.26724
# Poissons Ratio (y) = 0.23771 0.34620
# Poissons Ratio (z) = 0.11460 0.31421
#
# Static dielectric constant tensor:
#      x y z
#    x 3.345530 0.000000 0.000000 
#    y 0.000000 3.314700 0.000000 
#    z 0.000000 0.000000 3.507400 
# 
# 
# High freq. dielectric constant tensor:
#      x y z
#    x 1.717760 0.000000 0.000000 
#    y 0.000000 1.743500 0.000000 
#    z 0.000000 0.000000 1.750650 
# 
# From -- ./inp_files/6848.got.cif
#   From: 2010.03.12/outbox.cif.g09.slc.cpg/sg63_4_cif.got.tgz:6848.got - 2010.04.10 19:34:48.
