data_PCOD8258474
_publ_section_title
;
Structure prediction by ZEFSAII (Michael W. Deem and Ramdas Pophale) SiO2 
 PCOD8258474
Probable space group: C M C M
;
_chemical_formula_sum "Si O2"
_cell_formula_units_Z 96
_cell_length_a 17.541932
_cell_length_b 28.591952
_cell_length_c 9.169391
_cell_angle_alpha 90.000000
_cell_angle_beta 90.000000
_cell_angle_gamma 90.000000
_cell_volume 4598.982124
_symmetry_space_group_name_H-M "C M C M"
_symmetry_group_IT_number 63
_symmetry_cell_setting 'orthorhombic'
loop_
_space_group_symop_operation_xyz
x,y,z
-x,-y,1/2+z
x,-y,-z
-x,y,1/2-z
-x,-y,-z
x,y,1/2-z
-x,y,z
x,-y,1/2+z
1/2+x,1/2+y,z
1/2-x,1/2-y,1/2+z
1/2+x,1/2-y,-z
1/2-x,1/2+y,1/2-z
1/2-x,1/2-y,-z
1/2+x,1/2+y,1/2-z
1/2-x,1/2+y,z
1/2+x,1/2-y,1/2+z
loop_
_atom_site_type_symbol
_atom_site_label
_atom_site_fract_x
_atom_site_fract_y
_atom_site_fract_z
Si Si1 0.913455 0.041165 0.908589
Si Si2 0.590174 0.805591 0.910473
Si Si3 0.588112 0.299123 0.421682
Si Si4 0.909957 0.394884 0.417416
Si Si5 0.208375 0.547780 0.078492
Si Si6 0.654483 0.617565 0.079578
O O1 0.872882 0.046015 0.750000
O O2 0.000000 0.026690 0.881601
O O3 0.912131 0.088835 0.999527
O O4 0.871617 0.000000 0.000000
O O5 0.624948 0.817153 0.750000
O O6 0.500000 0.806525 0.897535
O O7 0.614345 0.753675 0.960369
O O8 0.618848 0.844302 0.024652
O O9 0.595919 0.308904 0.250000
O O10 0.500000 0.307731 0.470154
O O11 0.648555 0.330883 0.510337
O O12 0.884755 0.399215 0.250000
O O13 0.872146 0.436082 0.511384
O O14 0.000000 0.400321 0.436446
O O15 0.199824 0.538702 0.250000
O O16 0.267449 0.589963 0.044809
O O17 0.234288 0.500000 0.000000
O O18 0.638160 0.620613 0.250000
#
# Coordination Sequence:
#
# PCOD8258474 Si02
#       6
#    16  16  16  16  16  16
#     4  10  20  33  50  72  99 135 181 231 281 331
#     4   8  15  31  56  85 117 151 185 224 273 327
#     4   9  18  33  55  84 117 155 197 236 276 323
#     4  10  21  38  63  93 118 141 175 221 276 339
#     4  11  25  43  61  82 110 146 187 230 281 339
#     4  11  23  36  52  77 109 147 190 233 277 326
#
# _framework density 20.874184
#
# number of rings (size 3 to 8) (size 9 to 14) (size 15 to 20)
#    0.000    2.167    0.000    4.000    0.000    9.333 
#    0.000    2.500    0.000    0.000    0.000    0.000 
#    0.000    0.000    0.000    0.000    0.000    0.000 
#
# Total GULP energy -595010.688564 kJ/mol
# GULP energy per Si atom -12396.056012 kJ/mol
# Density = 2.082667 g / cm^3
# Si number density = 20.874184 Si / 1000 Ang^3
#
#
#
# Elastic Constant Matrix: (Units=GPa)
#
#
# Indices 1 2 3 4 5 6 
#
# 1 49.0997 37.1408 46.3038 0.0000 0.0000 0.0000
# 2 37.1408 102.4596 65.6277 0.0000 0.0000 0.0000
# 3 46.3038 65.6277 145.1062 0.0000 0.0000 0.0000
# 4 0.0000 0.0000 0.0000 39.5223 0.0000 0.0000
# 5 0.0000 0.0000 0.0000 0.0000 24.3702 0.0000
# 6 0.0000 0.0000 0.0000 0.0000 0.0000 15.6546
#
#
#
# Elastic Compliance Matrix: (Units=1/GPa)
#
#
# Indices 1 2 3 4 5 6 
#
# 1 0.032554 -0.007246 -0.007111 0.000000 0.000000 0.000000
# 2 -0.007246 0.015353 -0.004632 0.000000 0.000000 0.000000
# 3 -0.007111 -0.004632 0.011255 0.000000 0.000000 0.000000
# 4 0.000000 0.000000 0.000000 0.025302 0.000000 0.000000
# 5 0.000000 0.000000 0.000000 0.000000 0.041034 0.000000
# 6 0.000000 0.000000 0.000000 0.000000 0.000000 0.063879
#
#
# Mechanical properties :
#
#
# Convention : Reuss Voigt Hill
#
# Bulk Modulus (GPa) = 47.20200 66.09000 56.64600
# Shear Modulus (GPa) = 21.32964 25.74897 23.53931
#
# Velocity S-wave (km/s) = 3.20006 3.51598 3.36173
# Velocity P-wave (km/s) = 6.02624 6.94353 6.50108
#
# Compressibility (1/GPa) = 0.02118554
#
# Stress axis : x y z
#
# Youngs Moduli (GPa) = 30.71855 65.13308 88.84627
#
# Poissons Ratio (x) = 0.47194 0.63178
# Poissons Ratio (y) = 0.22258 0.41151
# Poissons Ratio (z) = 0.21844 0.30168
#
# Static dielectric constant tensor:
#      x y z
#    x 3.407340 0.000000 0.000000 
#    y 0.000000 3.949150 0.000000 
#    z 0.000000 0.000000 4.017580 
# 
# 
# High freq. dielectric constant tensor:
#      x y z
#    x 1.786640 0.000000 0.000000 
#    y 0.000000 1.822720 0.000000 
#    z 0.000000 0.000000 1.824350 
# 
# From -- ./inp_files/8519.got.cif
#   From: 2010.03.12/outbox.cif.g09.slc.cpg/sg63_5_cif.got.tgz:8519.got - 2010.04.10 19:34:48.
