data_PCOD8258008
_publ_section_title
;
Structure prediction by ZEFSAII (Michael W. Deem and Ramdas Pophale) SiO2 
 PCOD8258008
Probable space group: C M C M
;
_chemical_formula_sum "Si O2"
_cell_formula_units_Z 96
_cell_length_a 8.854731
_cell_length_b 20.507135
_cell_length_c 28.101689
_cell_angle_alpha 90.000000
_cell_angle_beta 90.000000
_cell_angle_gamma 90.000000
_cell_volume 5102.849806
_symmetry_space_group_name_H-M "C M C M"
_symmetry_group_IT_number 63
_symmetry_cell_setting 'orthorhombic'
loop_
_space_group_symop_operation_xyz
x,y,z
-x,-y,1/2+z
x,-y,-z
-x,y,1/2-z
-x,-y,-z
x,y,1/2-z
-x,y,z
x,-y,1/2+z
1/2+x,1/2+y,z
1/2-x,1/2-y,1/2+z
1/2+x,1/2-y,-z
1/2-x,1/2+y,1/2-z
1/2-x,1/2-y,-z
1/2+x,1/2+y,1/2-z
1/2-x,1/2+y,z
1/2+x,1/2-y,1/2+z
loop_
_atom_site_type_symbol
_atom_site_label
_atom_site_fract_x
_atom_site_fract_y
_atom_site_fract_z
Si Si1 0.824034 0.502626 0.694685
Si Si2 0.178596 0.880428 0.360595
Si Si3 0.322999 0.130384 0.358350
Si Si4 0.822466 0.823233 0.950030
Si Si5 0.820460 0.756241 0.197161
Si Si6 0.822259 0.673557 0.549030
O O1 0.776582 0.502314 0.750000
O O2 0.726202 0.554429 0.666136
O O3 0.784688 0.432932 0.672329
O O4 0.000000 0.519201 0.688941
O O5 0.239652 0.819575 0.330117
O O6 0.252797 0.875773 0.412491
O O7 0.000000 0.879036 0.366455
O O8 0.500000 0.136588 0.368946
O O9 0.235846 0.129433 0.408401
O O10 0.260954 0.191682 0.328659
O O11 0.776578 0.748252 0.938843
O O12 0.000000 0.830784 0.956207
O O13 0.744034 0.847003 0.998257
O O14 0.751536 0.757843 0.250000
O O15 0.000000 0.755848 0.199336
O O16 0.000000 0.664133 0.547851
#
# Coordination Sequence:
#
# PCOD8258008 Si02
#       6
#    16  16  16  16  16  16
#     4  10  22  39  58  81 114 156 195 232 279 336
#     4  11  21  35  57  84 115 149 189 236 286 336
#     4  10  19  35  58  82 111 149 192 233 278 334
#     4  10  20  34  56  86 118 147 182 231 288 339
#     4   9  17  30  52  81 108 138 184 235 277 324
#     4  10  20  35  57  84 116 150 187 229 282 343
#
# _framework density 18.813018
#
# number of rings (size 3 to 8) (size 9 to 14) (size 15 to 20)
#    0.000    2.000    1.667    2.500    0.000    5.000 
#    0.000    0.833    0.000    7.500    0.000    0.000 
#    0.000    0.000    0.000    0.000    0.000    0.000 
#
# Total GULP energy -595376.251382 kJ/mol
# GULP energy per Si atom -12403.671904 kJ/mol
# Density = 1.877020 g / cm^3
# Si number density = 18.813018 Si / 1000 Ang^3
#
#
#
# Elastic Constant Matrix: (Units=GPa)
#
#
# Indices 1 2 3 4 5 6 
#
# 1 60.6427 24.1308 40.1292 0.0000 0.0000 0.0000
# 2 24.1308 70.8945 28.4304 0.0000 0.0000 0.0000
# 3 40.1292 28.4304 133.9501 0.0000 0.0000 0.0000
# 4 0.0000 0.0000 0.0000 35.2750 0.0000 0.0000
# 5 0.0000 0.0000 0.0000 0.0000 29.6212 0.0000
# 6 0.0000 0.0000 0.0000 0.0000 0.0000 27.6119
#
#
#
# Elastic Compliance Matrix: (Units=1/GPa)
#
#
# Indices 1 2 3 4 5 6 
#
# 1 0.022291 -0.005366 -0.005539 0.000000 0.000000 0.000000
# 2 -0.005366 0.016709 -0.001939 0.000000 0.000000 0.000000
# 3 -0.005539 -0.001939 0.009536 0.000000 0.000000 0.000000
# 4 0.000000 0.000000 0.000000 0.028349 0.000000 0.000000
# 5 0.000000 0.000000 0.000000 0.000000 0.033760 0.000000
# 6 0.000000 0.000000 0.000000 0.000000 0.000000 0.036216
#
#
# Mechanical properties :
#
#
# Convention : Reuss Voigt Hill
#
# Bulk Modulus (GPa) = 43.76622 50.09645 46.93134
# Shear Modulus (GPa) = 27.75235 30.02141 28.88688
#
# Velocity S-wave (km/s) = 3.84496 3.99905 3.92276
# Velocity P-wave (km/s) = 6.55941 6.92890 6.74669
#
# Compressibility (1/GPa) = 0.02284867
#
# Stress axis : x y z
#
# Youngs Moduli (GPa) = 44.86209 59.84625 104.86136
#
# Poissons Ratio (x) = 0.32113 0.58083
# Poissons Ratio (y) = 0.24073 0.20333
# Poissons Ratio (z) = 0.24849 0.11604
#
# Static dielectric constant tensor:
#      x y z
#    x 3.214050 0.000000 0.000000 
#    y 0.000000 3.342610 0.000000 
#    z 0.000000 0.000000 3.606940 
# 
# 
# High freq. dielectric constant tensor:
#      x y z
#    x 1.717490 0.000000 0.000000 
#    y 0.000000 1.715280 0.000000 
#    z 0.000000 0.000000 1.747820 
# 
# From -- ./inp_files/66866.got.cif
#   From: 2010.03.12/outbox.cif.g09.slc.cpg/sg63_34_cif.got.tgz:66866.got - 2010.04.10 19:34:48.
