data_PCOD8258872
_publ_section_title
;
Structure prediction by ZEFSAII (Michael W. Deem and Ramdas Pophale) SiO2 
 PCOD8258872
Probable space group: C M C M
;
_chemical_formula_sum "Si O2"
_cell_formula_units_Z 64
_cell_length_a 9.589665
_cell_length_b 37.688200
_cell_length_c 10.316900
_cell_angle_alpha 90.000000
_cell_angle_beta 90.000000
_cell_angle_gamma 90.000000
_cell_volume 3728.705239
_symmetry_space_group_name_H-M "C M C M"
_symmetry_group_IT_number 63
_symmetry_cell_setting 'orthorhombic'
loop_
_space_group_symop_operation_xyz
x,y,z
-x,-y,1/2+z
x,-y,-z
-x,y,1/2-z
-x,-y,-z
x,y,1/2-z
-x,y,z
x,-y,1/2+z
1/2+x,1/2+y,z
1/2-x,1/2-y,1/2+z
1/2+x,1/2-y,-z
1/2-x,1/2+y,1/2-z
1/2-x,1/2-y,-z
1/2+x,1/2+y,1/2-z
1/2-x,1/2+y,z
1/2+x,1/2-y,1/2+z
loop_
_atom_site_type_symbol
_atom_site_label
_atom_site_fract_x
_atom_site_fract_y
_atom_site_fract_z
Si Si1 0.834147 0.027061 0.605958
Si Si2 0.660684 0.607049 0.900800
Si Si3 0.838514 0.288309 0.750000
Si Si4 0.836718 0.282679 0.250000
Si Si5 0.838066 0.669566 0.992118
O O1 0.777369 0.017417 0.750000
O O2 0.790077 0.066984 0.568240
O O3 0.000000 0.024616 0.608178
O O4 0.770343 0.000000 0.500000
O O5 0.684151 0.615503 0.750000
O O6 0.500000 0.612419 0.939143
O O7 0.752858 0.633125 0.987266
O O8 0.746529 0.253523 0.750000
O O9 0.800496 0.311432 0.625472
O O10 0.000000 0.276913 0.750000
O O11 0.792315 0.304673 0.123875
O O12 0.000000 0.273710 0.250000
O O13 0.000000 0.659777 0.981512
#
# Coordination Sequence:
#
# PCOD8258872 Si02
#       5
#    16  16   8   8  16
#     4   8  14  26  44  67  96 126 156 193 237 282
#     4   9  17  30  50  75  99 127 165 203 238 281
#     4  10  22  36  50  72 101 130 157 197 252 293
#     4  10  20  34  54  74  93 124 167 203 234 289
#     4  10  20  35  52  72  99 130 163 197 241 292
#
# _framework density 17.164134000000001
#
# number of rings (size 3 to 8) (size 9 to 14) (size 15 to 20)
#    0.000    2.750    1.250    2.250    0.000    2.000 
#    2.250    0.000    0.000    0.750    0.000    0.000 
#    0.000    0.000    0.000    0.000    0.000    0.000 
#
# Total GULP energy -396792.453311 kJ/mol
# GULP energy per Si atom -12399.764166 kJ/mol
# Density = 1.712507 g / cm^3
# Si number density = 17.164134 Si / 1000 Ang^3
#
#
#
# Elastic Constant Matrix: (Units=GPa)
#
#
# Indices 1 2 3 4 5 6 
#
# 1 41.5231 56.4839 37.0788 0.0000 0.0000 0.0000
# 2 56.4839 152.7257 86.9915 0.0000 0.0000 0.0000
# 3 37.0788 86.9915 135.4925 0.0000 0.0000 0.0000
# 4 0.0000 0.0000 0.0000 25.1125 0.0000 0.0000
# 5 0.0000 0.0000 0.0000 0.0000 5.0436 0.0000
# 6 0.0000 0.0000 0.0000 0.0000 0.0000 25.3624
#
#
#
# Elastic Compliance Matrix: (Units=1/GPa)
#
#
# Indices 1 2 3 4 5 6 
#
# 1 0.049133 -0.016574 -0.002805 0.000000 0.000000 0.000000
# 2 -0.016574 0.015913 -0.005681 0.000000 0.000000 0.000000
# 3 -0.002805 -0.005681 0.011796 0.000000 0.000000 0.000000
# 4 0.000000 0.000000 0.000000 0.039821 0.000000 0.000000
# 5 0.000000 0.000000 0.000000 0.000000 0.198270 0.000000
# 6 0.000000 0.000000 0.000000 0.000000 0.000000 0.039429
#
#
# Mechanical properties :
#
#
# Convention : Reuss Voigt Hill
#
# Bulk Modulus (GPa) = 37.42219 76.76109 57.09164
# Shear Modulus (GPa) = 12.09516 21.04949 16.57232
#
# Velocity S-wave (km/s) = 2.65745 3.50575 3.11065
# Velocity P-wave (km/s) = 5.59160 7.82342 6.79970
#
# Compressibility (1/GPa) = 0.02672212
#
# Stress axis : x y z
#
# Youngs Moduli (GPa) = 20.35310 62.84017 84.77620
#
# Poissons Ratio (x) = 1.04149 0.23777
# Poissons Ratio (y) = 0.33732 0.48166
# Poissons Ratio (z) = 0.05708 0.35703
#
# Static dielectric constant tensor:
#      x y z
#    x 2.904660 0.000000 0.000000 
#    y 0.000000 3.230150 0.000000 
#    z 0.000000 0.000000 3.341040 
# 
# 
# High freq. dielectric constant tensor:
#      x y z
#    x 1.631520 0.000000 0.000000 
#    y 0.000000 1.668430 0.000000 
#    z 0.000000 0.000000 1.663480 
# 
# From -- ./inp_files/3208.got.cif
#   From: 2010.03.12/outbox.cif.g09.slc.cpg/sg63_2_cif.got.tgz:3208.got - 2010.04.10 19:34:48.
