data_PCOD8258191
_publ_section_title
;
Structure prediction by ZEFSAII (Michael W. Deem and Ramdas Pophale) SiO2 
 PCOD8258191
Probable space group: C M C M
;
_chemical_formula_sum "Si O2"
_cell_formula_units_Z 64
_cell_length_a 25.715434
_cell_length_b 8.522863
_cell_length_c 14.013122
_cell_angle_alpha 90.000000
_cell_angle_beta 90.000000
_cell_angle_gamma 90.000000
_cell_volume 3071.243631
_symmetry_space_group_name_H-M "C M C M"
_symmetry_group_IT_number 63
_symmetry_cell_setting 'orthorhombic'
loop_
_space_group_symop_operation_xyz
x,y,z
-x,-y,1/2+z
x,-y,-z
-x,y,1/2-z
-x,-y,-z
x,y,1/2-z
-x,y,z
x,-y,1/2+z
1/2+x,1/2+y,z
1/2-x,1/2-y,1/2+z
1/2+x,1/2-y,-z
1/2-x,1/2+y,1/2-z
1/2-x,1/2-y,-z
1/2+x,1/2+y,1/2-z
1/2-x,1/2+y,z
1/2+x,1/2-y,1/2+z
loop_
_atom_site_type_symbol
_atom_site_label
_atom_site_fract_x
_atom_site_fract_y
_atom_site_fract_z
Si Si1 0.941212 0.930185 0.359612
Si Si2 0.324476 0.153129 0.250000
Si Si3 0.613406 0.147640 0.055964
Si Si4 0.784133 0.014924 0.250000
Si Si5 0.655138 0.380426 0.576770
O O1 0.931127 0.883140 0.250000
O O2 0.931083 0.776110 0.423610
O O3 0.000000 0.988264 0.376583
O O4 0.902771 0.069945 0.388483
O O5 0.357575 0.113157 0.344437
O O6 0.305335 0.335665 0.250000
O O7 0.277874 0.027214 0.250000
O O8 0.653587 0.212953 0.975853
O O9 0.588284 0.000000 0.000000
O O10 0.804326 0.117499 0.161794
O O11 0.677627 0.500000 0.500000
#
# Coordination Sequence:
#
# PCOD8258191 Si02
#       5
#    16   8  16   8  16
#     4  10  19  40  71  93 122 165 207 256 314 371
#     4  12  26  44  60  92 125 168 210 261 319 357
#     4  11  24  41  62  92 131 165 203 255 313 377
#     4  12  24  42  64  90 125 164 212 265 303 367
#     4  10  20  40  64  89 124 161 209 254 303 366
#
# _framework density 20.838463000000001
#
# number of rings (size 3 to 8) (size 9 to 14) (size 15 to 20)
#    0.000    1.250    7.500    0.000    3.500    7.000 
#    0.000    0.000    0.000    3.000    0.000    0.000 
#    0.000    0.000    0.000    0.000    0.000    0.000 
#
# Total GULP energy -396570.062379 kJ/mol
# GULP energy per Si atom -12392.814449 kJ/mol
# Density = 2.079103 g / cm^3
# Si number density = 20.838463 Si / 1000 Ang^3
#
#
#
# Elastic Constant Matrix: (Units=GPa)
#
#
# Indices 1 2 3 4 5 6 
#
# 1 79.5307 -7.3530 30.4528 0.0000 0.0000 0.0000
# 2 -7.3530 41.6084 20.9261 0.0000 0.0000 0.0000
# 3 30.4528 20.9261 134.8838 0.0000 0.0000 0.0000
# 4 0.0000 0.0000 0.0000 31.0486 0.0000 0.0000
# 5 0.0000 0.0000 0.0000 0.0000 78.9325 0.0000
# 6 0.0000 0.0000 0.0000 0.0000 0.0000 19.9108
#
#
#
# Elastic Compliance Matrix: (Units=1/GPa)
#
#
# Indices 1 2 3 4 5 6 
#
# 1 0.014524 0.004573 -0.003988 0.000000 0.000000 0.000000
# 2 0.004573 0.027507 -0.005300 0.000000 0.000000 0.000000
# 3 -0.003988 -0.005300 0.009136 0.000000 0.000000 0.000000
# 4 0.000000 0.000000 0.000000 0.032208 0.000000 0.000000
# 5 0.000000 0.000000 0.000000 0.000000 0.012669 0.000000
# 6 0.000000 0.000000 0.000000 0.000000 0.000000 0.050224
#
#
# Mechanical properties :
#
#
# Convention : Reuss Voigt Hill
#
# Bulk Modulus (GPa) = 23.96022 38.23050 31.09536
# Shear Modulus (GPa) = 29.47917 40.11152 34.79534
#
# Velocity S-wave (km/s) = 3.76527 4.39210 4.09071
# Velocity P-wave (km/s) = 5.51598 6.64129 6.10462
#
# Compressibility (1/GPa) = 0.04173585
#
# Stress axis : x y z
#
# Youngs Moduli (GPa) = 68.85297 36.35422 109.45131
#
# Poissons Ratio (x) = -0.16623 0.43654
# Poissons Ratio (y) = -0.31483 0.58007
# Poissons Ratio (z) = 0.27461 0.19267
#
# Static dielectric constant tensor:
#      x y z
#    x 3.523770 0.000000 0.000000 
#    y 0.000000 3.636510 0.000000 
#    z 0.000000 0.000000 4.307270 
# 
# 
# High freq. dielectric constant tensor:
#      x y z
#    x 1.792440 0.000000 0.000000 
#    y 0.000000 1.793220 0.000000 
#    z 0.000000 0.000000 1.849110 
# 
# From -- ./inp_files/36237.got.cif
#   From: 2010.03.12/outbox.cif.g09.slc.cpg/sg63_19_cif.got.tgz:36237.got - 2010.04.10 19:34:48.
