data_PCOD8258665
_publ_section_title
;
Structure prediction by ZEFSAII (Michael W. Deem and Ramdas Pophale) SiO2 
 PCOD8258665
Probable space group: C M C M
;
_chemical_formula_sum "Si O2"
_cell_formula_units_Z 96
_cell_length_a 29.932848
_cell_length_b 9.516460
_cell_length_c 18.004255
_cell_angle_alpha 90.000000
_cell_angle_beta 90.000000
_cell_angle_gamma 90.000000
_cell_volume 5128.597569
_symmetry_space_group_name_H-M "C M C M"
_symmetry_group_IT_number 63
_symmetry_cell_setting 'orthorhombic'
loop_
_space_group_symop_operation_xyz
x,y,z
-x,-y,1/2+z
x,-y,-z
-x,y,1/2-z
-x,-y,-z
x,y,1/2-z
-x,y,z
x,-y,1/2+z
1/2+x,1/2+y,z
1/2-x,1/2-y,1/2+z
1/2+x,1/2-y,-z
1/2-x,1/2+y,1/2-z
1/2-x,1/2-y,-z
1/2+x,1/2+y,1/2-z
1/2-x,1/2+y,z
1/2+x,1/2-y,1/2+z
loop_
_atom_site_type_symbol
_atom_site_label
_atom_site_fract_x
_atom_site_fract_y
_atom_site_fract_z
Si Si1 0.372197 0.015476 0.335912
Si Si2 0.378580 0.693511 0.336378
Si Si3 0.950757 0.611169 0.064096
Si Si4 0.448093 0.354027 0.538136
Si Si5 0.206432 0.984411 0.838031
Si Si6 0.710615 0.196107 0.161280
O O1 0.377925 0.047834 0.250000
O O2 0.418898 0.057706 0.371600
O O3 0.332427 0.111095 0.368769
O O4 0.361071 0.851952 0.350130
O O5 0.391186 0.671651 0.250000
O O6 0.422287 0.661797 0.384445
O O7 0.340163 0.585804 0.362120
O O8 0.000000 0.640581 0.098873
O O9 0.955484 0.500000 0.000000
O O10 0.930434 0.748076 0.024745
O O11 0.438879 0.500000 0.500000
O O12 0.500000 0.327132 0.556810
O O13 0.210284 0.989138 0.750000
O O14 0.246199 0.886825 0.869809
O O15 0.209813 0.143741 0.869597
O O16 0.711194 0.197459 0.250000
#
# Coordination Sequence:
#
# PCOD8258665 Si02
#       6
#    16  16  16  16  16  16
#     4  10  20  33  54  84 112 140 180 229 272 312
#     4  10  20  34  55  83 111 140 180 228 272 315
#     4  10  20  37  57  77 106 145 184 219 266 325
#     4  10  22  39  57  78 107 147 186 220 268 330
#     4   9  17  30  50  76 108 143 178 219 267 321
#     4   9  17  30  50  77 109 143 178 217 266 321
#
# _framework density 18.718567
#
# number of rings (size 3 to 8) (size 9 to 14) (size 15 to 20)
#    0.000    2.333    1.667    1.000    2.333    4.667 
#    0.000    1.667    0.000    5.000    0.000    0.000 
#    0.000    0.000    0.000    0.000    0.000    0.000 
#
# Total GULP energy -595081.285235 kJ/mol
# GULP energy per Si atom -12397.526776 kJ/mol
# Density = 1.867596 g / cm^3
# Si number density = 18.718567 Si / 1000 Ang^3
#
#
#
# Elastic Constant Matrix: (Units=GPa)
#
#
# Indices 1 2 3 4 5 6 
#
# 1 108.1802 56.9521 39.6633 0.0000 0.0000 0.0000
# 2 56.9521 145.6601 33.2477 0.0000 0.0000 0.0000
# 3 39.6633 33.2477 38.8490 0.0000 0.0000 0.0000
# 4 0.0000 0.0000 0.0000 19.9663 0.0000 0.0000
# 5 0.0000 0.0000 0.0000 0.0000 10.2843 0.0000
# 6 0.0000 0.0000 0.0000 0.0000 0.0000 36.1890
#
#
#
# Elastic Compliance Matrix: (Units=1/GPa)
#
#
# Indices 1 2 3 4 5 6 
#
# 1 0.015831 -0.003108 -0.013503 0.000000 0.000000 0.000000
# 2 -0.003108 0.009142 -0.004651 0.000000 0.000000 0.000000
# 3 -0.013503 -0.004651 0.043507 0.000000 0.000000 0.000000
# 4 0.000000 0.000000 0.000000 0.050084 0.000000 0.000000
# 5 0.000000 0.000000 0.000000 0.000000 0.097236 0.000000
# 6 0.000000 0.000000 0.000000 0.000000 0.000000 0.027633
#
#
# Mechanical properties :
#
#
# Convention : Reuss Voigt Hill
#
# Bulk Modulus (GPa) = 38.52601 61.37950 49.95275
# Shear Modulus (GPa) = 16.97170 24.14299 20.55735
#
# Velocity S-wave (km/s) = 3.01438 3.59526 3.31756
# Velocity P-wave (km/s) = 5.72203 7.07788 6.43576
#
# Compressibility (1/GPa) = 0.02595649
#
# Stress axis : x y z
#
# Youngs Moduli (GPa) = 63.16919 109.38541 22.98471
#
# Poissons Ratio (x) = 0.33992 0.31036
# Poissons Ratio (y) = 0.19630 0.10691
# Poissons Ratio (z) = 0.85296 0.50878
#
# Static dielectric constant tensor:
#      x y z
#    x 3.581840 0.000000 0.000000 
#    y 0.000000 3.791950 0.000000 
#    z 0.000000 0.000000 2.956970 
# 
# 
# High freq. dielectric constant tensor:
#      x y z
#    x 1.731130 0.000000 0.000000 
#    y 0.000000 1.748540 0.000000 
#    z 0.000000 0.000000 1.680930 
# 
# From -- ./inp_files/58100.got.cif
#   From: 2010.03.12/outbox.cif.g09.slc.cpg/sg63_30_cif.got.tgz:58100.got - 2010.04.10 19:34:48.
