data_PCOD8258719
_publ_section_title
;
Structure prediction by ZEFSAII (Michael W. Deem and Ramdas Pophale) SiO2 
 PCOD8258719
Probable space group: C M C M
;
_chemical_formula_sum "Si O2"
_cell_formula_units_Z 80
_cell_length_a 18.067537
_cell_length_b 13.983948
_cell_length_c 18.472732
_cell_angle_alpha 90.000000
_cell_angle_beta 90.000000
_cell_angle_gamma 90.000000
_cell_volume 4667.237301
_symmetry_space_group_name_H-M "C M C M"
_symmetry_group_IT_number 63
_symmetry_cell_setting 'orthorhombic'
loop_
_space_group_symop_operation_xyz
x,y,z
-x,-y,1/2+z
x,-y,-z
-x,y,1/2-z
-x,-y,-z
x,y,1/2-z
-x,y,z
x,-y,1/2+z
1/2+x,1/2+y,z
1/2-x,1/2-y,1/2+z
1/2+x,1/2-y,-z
1/2-x,1/2+y,1/2-z
1/2-x,1/2-y,-z
1/2+x,1/2+y,1/2-z
1/2-x,1/2+y,z
1/2+x,1/2-y,1/2+z
loop_
_atom_site_type_symbol
_atom_site_label
_atom_site_fract_x
_atom_site_fract_y
_atom_site_fract_z
Si Si1 0.773333 0.527001 0.420189
Si Si2 0.253331 0.820349 0.106194
Si Si3 0.649146 0.818193 0.829781
Si Si4 0.500000 0.708854 0.834032
Si Si5 0.500000 0.389037 0.483270
Si Si6 0.343503 0.669878 0.035948
O O1 0.802321 0.500000 0.500000
O O2 0.769206 0.430261 0.372108
O O3 0.833030 0.598681 0.386711
O O4 0.692218 0.576678 0.424390
O O5 0.211554 0.765142 0.170479
O O6 0.328869 0.764333 0.084845
O O7 0.196416 0.816594 0.039998
O O8 0.648474 0.863594 0.750000
O O9 0.570125 0.774960 0.849208
O O10 0.500000 0.669049 0.750000
O O11 0.500000 0.625878 0.895614
O O12 0.500000 0.500000 0.500000
O O13 0.569873 0.341762 0.523082
#
# Coordination Sequence:
#
# PCOD8258719 Si02
#       6
#    16  16  16   8   8  16
#     4   9  18  32  53  74 101 130 173 220 254 290
#     4   9  16  32  50  70 101 132 166 216 253 287
#     4  10  20  34  51  74 104 137 169 207 257 310
#     4  10  22  36  50  74 111 137 160 206 257 305
#     4  12  20  30  55  77 104 140 173 203 253 309
#     4   9  18  29  48  76 103 128 167 214 250 293
#
# _framework density 17.140761000000001
#
# number of rings (size 3 to 8) (size 9 to 14) (size 15 to 20)
#    0.000    2.400    2.000    3.000    0.000    0.800 
#    0.000    1.500    0.000    0.000    0.000    0.000 
#    0.000    0.000    0.000    0.000    0.000    0.000 
#
# Total GULP energy -495738.562542 kJ/mol
# GULP energy per Si atom -12393.464064 kJ/mol
# Density = 1.710175 g / cm^3
# Si number density = 17.140761 Si / 1000 Ang^3
#
#
#
# Elastic Constant Matrix: (Units=GPa)
#
#
# Indices 1 2 3 4 5 6 
#
# 1 117.7377 45.8783 43.7223 0.0000 0.0000 0.0000
# 2 45.8783 119.4431 47.3118 0.0000 0.0000 0.0000
# 3 43.7223 47.3118 64.9197 0.0000 0.0000 0.0000
# 4 0.0000 0.0000 0.0000 23.5204 0.0000 0.0000
# 5 0.0000 0.0000 0.0000 0.0000 11.0241 0.0000
# 6 0.0000 0.0000 0.0000 0.0000 0.0000 17.9664
#
#
#
# Elastic Compliance Matrix: (Units=1/GPa)
#
#
# Indices 1 2 3 4 5 6 
#
# 1 0.011631 -0.001918 -0.006435 0.000000 0.000000 0.000000
# 2 -0.001918 0.012086 -0.007516 0.000000 0.000000 0.000000
# 3 -0.006435 -0.007516 0.025215 0.000000 0.000000 0.000000
# 4 0.000000 0.000000 0.000000 0.042516 0.000000 0.000000
# 5 0.000000 0.000000 0.000000 0.000000 0.090710 0.000000
# 6 0.000000 0.000000 0.000000 0.000000 0.000000 0.055659
#
#
# Mechanical properties :
#
#
# Convention : Reuss Voigt Hill
#
# Bulk Modulus (GPa) = 58.16341 63.99169 61.07755
# Shear Modulus (GPa) = 18.16284 21.51473 19.83878
#
# Velocity S-wave (km/s) = 3.25872 3.54669 3.40575
# Velocity P-wave (km/s) = 6.94014 7.36112 7.15373
#
# Compressibility (1/GPa) = 0.01719294
#
# Stress axis : x y z
#
# Youngs Moduli (GPa) = 85.97976 82.73887 39.65896
#
# Poissons Ratio (x) = 0.15873 0.25520
# Poissons Ratio (y) = 0.16495 0.29808
# Poissons Ratio (z) = 0.55327 0.62187
#
# Static dielectric constant tensor:
#      x y z
#    x 3.172460 0.000000 0.000000 
#    y 0.000000 3.468070 0.000000 
#    z 0.000000 0.000000 3.155580 
# 
# 
# High freq. dielectric constant tensor:
#      x y z
#    x 1.645770 0.000000 0.000000 
#    y 0.000000 1.666190 0.000000 
#    z 0.000000 0.000000 1.640430 
# 
# From -- ./inp_files/45451.got.cif
#   From: 2010.03.12/outbox.cif.g09.slc.cpg/sg63_23_cif.got.tgz:45451.got - 2010.04.10 19:34:48.
