data_PCOD8258390
_publ_section_title
;
Structure prediction by ZEFSAII (Michael W. Deem and Ramdas Pophale) SiO2 
 PCOD8258390
Probable space group: C M C M
;
_chemical_formula_sum "Si O2"
_cell_formula_units_Z 112
_cell_length_a 29.471818
_cell_length_b 14.577904
_cell_length_c 14.424584
_cell_angle_alpha 90.000000
_cell_angle_beta 90.000000
_cell_angle_gamma 90.000000
_cell_volume 6197.339807
_symmetry_space_group_name_H-M "C M C M"
_symmetry_group_IT_number 63
_symmetry_cell_setting 'orthorhombic'
loop_
_space_group_symop_operation_xyz
x,y,z
-x,-y,1/2+z
x,-y,-z
-x,y,1/2-z
-x,-y,-z
x,y,1/2-z
-x,y,z
x,-y,1/2+z
1/2+x,1/2+y,z
1/2-x,1/2-y,1/2+z
1/2+x,1/2-y,-z
1/2-x,1/2+y,1/2-z
1/2-x,1/2-y,-z
1/2+x,1/2+y,1/2-z
1/2-x,1/2+y,z
1/2+x,1/2-y,1/2+z
loop_
_atom_site_type_symbol
_atom_site_label
_atom_site_fract_x
_atom_site_fract_y
_atom_site_fract_z
Si Si1 0.950319 0.348597 0.993003
Si Si2 0.800417 0.162848 0.648483
Si Si3 0.210672 0.230968 0.356645
Si Si4 0.264574 0.522540 0.105823
Si Si5 0.166061 0.563567 0.146566
Si Si6 0.571018 0.993116 0.143197
Si Si7 0.855504 0.270048 0.983811
O O1 0.948264 0.407212 0.087471
O O2 0.000000 0.300317 0.990308
O O3 0.946562 0.412612 0.902266
O O4 0.910182 0.273294 0.993408
O O5 0.812522 0.202434 0.750000
O O6 0.755559 0.214877 0.609247
O O7 0.841678 0.181861 0.577672
O O8 0.793089 0.054240 0.659822
O O9 0.200195 0.254610 0.250000
O O10 0.217931 0.122596 0.367944
O O11 0.167457 0.264149 0.415495
O O12 0.212387 0.508400 0.134315
O O13 0.271970 0.500000 0.000000
O O14 0.163403 0.607213 0.250000
O O15 0.125607 0.490494 0.133707
O O16 0.163576 0.641398 0.069187
O O17 0.554826 0.988698 0.250000
#
# Coordination Sequence:
#
# PCOD8258390 Si02
#       7
#    16  16  16  16  16  16  16
#     4  10  22  36  53  76 105 140 183 235 280 325
#     4  11  22  35  55  80 109 147 184 220 267 322
#     4  11  23  38  53  79 114 145 185 228 264 319
#     4  12  22  34  54  78 115 152 186 218 263 320
#     4  10  20  32  50  79 113 149 183 222 261 311
#     4   9  19  33  53  78 108 144 184 224 268 321
#     4  11  21  37  53  74 107 145 184 222 273 322
#
# _framework density 18.072271000000001
#
# number of rings (size 3 to 8) (size 9 to 14) (size 15 to 20)
#    0.000    1.429    2.857    3.857    6.000    2.286 
#    0.000    0.000    0.000    0.000    0.000    2.000 
#    0.000    2.286    0.000    0.000    0.000    0.000 
#
# Total GULP energy -694357.726814 kJ/mol
# GULP energy per Si atom -12399.245122 kJ/mol
# Density = 1.803114 g / cm^3
# Si number density = 18.072271 Si / 1000 Ang^3
#
#
#
# Elastic Constant Matrix: (Units=GPa)
#
#
# Indices 1 2 3 4 5 6 
#
# 1 137.1249 36.4084 41.1678 0.0000 0.0000 0.0000
# 2 36.4084 71.2879 12.6971 0.0000 0.0000 0.0000
# 3 41.1678 12.6971 112.4025 0.0000 0.0000 0.0000
# 4 0.0000 0.0000 0.0000 30.2642 0.0000 0.0000
# 5 0.0000 0.0000 0.0000 0.0000 3.6009 0.0000
# 6 0.0000 0.0000 0.0000 0.0000 0.0000 19.2814
#
#
#
# Elastic Compliance Matrix: (Units=1/GPa)
#
#
# Indices 1 2 3 4 5 6 
#
# 1 0.009293 -0.004225 -0.002926 0.000000 0.000000 0.000000
# 2 -0.004225 0.016236 -0.000287 0.000000 0.000000 0.000000
# 3 -0.002926 -0.000287 0.010001 0.000000 0.000000 0.000000
# 4 0.000000 0.000000 0.000000 0.033042 0.000000 0.000000
# 5 0.000000 0.000000 0.000000 0.000000 0.277707 0.000000
# 6 0.000000 0.000000 0.000000 0.000000 0.000000 0.051863
#
#
# Mechanical properties :
#
#
# Convention : Reuss Voigt Hill
#
# Bulk Modulus (GPa) = 48.41610 55.70687 52.06149
# Shear Modulus (GPa) = 11.90750 25.99878 18.95314
#
# Velocity S-wave (km/s) = 2.56966 3.79700 3.24194
# Velocity P-wave (km/s) = 5.97098 7.07915 6.54855
#
# Compressibility (1/GPa) = 0.02065429
#
# Stress axis : x y z
#
# Youngs Moduli (GPa) = 107.60877 61.58987 99.99246
#
# Poissons Ratio (x) = 0.26021 0.29261
# Poissons Ratio (y) = 0.45464 0.02867
# Poissons Ratio (z) = 0.31490 0.01766
#
# Static dielectric constant tensor:
#      x y z
#    x 3.347840 0.000000 0.000000 
#    y 0.000000 3.236470 0.000000 
#    z 0.000000 0.000000 3.635610 
# 
# 
# High freq. dielectric constant tensor:
#      x y z
#    x 1.675110 0.000000 0.000000 
#    y 0.000000 1.664590 0.000000 
#    z 0.000000 0.000000 1.725520 
# 
# From -- ./inp_files/37977.got.cif
#   From: 2010.03.12/outbox.cif.g09.slc.cpg/sg63_19_cif.got.tgz:37977.got - 2010.04.10 19:34:48.
