data_PCOD8258757
_publ_section_title
;
Structure prediction by ZEFSAII (Michael W. Deem and Ramdas Pophale) SiO2 
 PCOD8258757
Probable space group: C M C M
;
_chemical_formula_sum "Si O2"
_cell_formula_units_Z 80
_cell_length_a 8.493507
_cell_length_b 19.377645
_cell_length_c 25.937221
_cell_angle_alpha 90.000000
_cell_angle_beta 90.000000
_cell_angle_gamma 90.000000
_cell_volume 4268.855821
_symmetry_space_group_name_H-M "C M C M"
_symmetry_group_IT_number 63
_symmetry_cell_setting 'orthorhombic'
loop_
_space_group_symop_operation_xyz
x,y,z
-x,-y,1/2+z
x,-y,-z
-x,y,1/2-z
-x,-y,-z
x,y,1/2-z
-x,y,z
x,-y,1/2+z
1/2+x,1/2+y,z
1/2-x,1/2-y,1/2+z
1/2+x,1/2-y,-z
1/2-x,1/2+y,1/2-z
1/2-x,1/2-y,-z
1/2+x,1/2+y,1/2-z
1/2-x,1/2+y,z
1/2+x,1/2-y,1/2+z
loop_
_atom_site_type_symbol
_atom_site_label
_atom_site_fract_x
_atom_site_fract_y
_atom_site_fract_z
Si Si1 0.683563 0.770475 0.890499
Si Si2 0.685397 0.021972 0.393673
Si Si3 0.182518 0.871607 0.970871
Si Si4 0.185403 0.376254 0.806776
Si Si5 0.182472 0.630775 0.582712
O O1 0.500000 0.784000 0.900316
O O2 0.778447 0.803682 0.937826
O O3 0.737419 0.807065 0.837261
O O4 0.719937 0.689496 0.887394
O O5 0.500000 0.032079 0.403704
O O6 0.776374 0.058827 0.440215
O O7 0.737432 0.056478 0.339540
O O8 0.733664 0.942038 0.392339
O O9 0.000000 0.871089 0.985893
O O10 0.284429 0.869314 0.022270
O O11 0.265730 0.377670 0.750000
O O12 0.000000 0.376773 0.799806
O O13 0.000000 0.645140 0.592117
#
# Coordination Sequence:
#
# PCOD8258757 Si02
#       5
#    16  16  16  16  16
#     4  10  20  34  52  75 102 133 170 208 248 296
#     4   9  19  34  52  75 102 133 168 205 247 296
#     4  11  21  33  51  74 102 137 173 206 244 295
#     4   8  15  32  57  77  93 123 168 210 249 298
#     4  11  21  33  49  73 107 139 167 205 250 294
#
# _framework density 18.740385
#
# number of rings (size 3 to 8) (size 9 to 14) (size 15 to 20)
#    0.000    2.200    0.000    5.400    0.000    4.000 
#    0.000    1.000    0.000   16.200    0.000    0.000 
#    0.000    0.000    0.000    0.000    0.000    0.000 
#
# Total GULP energy -496020.248180 kJ/mol
# GULP energy per Si atom -12400.506205 kJ/mol
# Density = 1.869773 g / cm^3
# Si number density = 18.740385 Si / 1000 Ang^3
#
#
#
# Elastic Constant Matrix: (Units=GPa)
#
#
# Indices 1 2 3 4 5 6 
#
# 1 33.8041 17.5763 1.8520 0.0000 0.0000 0.0000
# 2 17.5763 157.1018 62.7731 0.0000 0.0000 0.0000
# 3 1.8520 62.7731 125.7080 0.0000 0.0000 0.0000
# 4 0.0000 0.0000 0.0000 2.8001 0.0000 0.0000
# 5 0.0000 0.0000 0.0000 0.0000 11.9442 0.0000
# 6 0.0000 0.0000 0.0000 0.0000 0.0000 29.6238
#
#
#
# Elastic Compliance Matrix: (Units=1/GPa)
#
#
# Indices 1 2 3 4 5 6 
#
# 1 0.031674 -0.004194 0.001628 0.000000 0.000000 0.000000
# 2 -0.004194 0.008507 -0.004186 0.000000 0.000000 0.000000
# 3 0.001628 -0.004186 0.010021 0.000000 0.000000 0.000000
# 4 0.000000 0.000000 0.000000 0.357126 0.000000 0.000000
# 5 0.000000 0.000000 0.000000 0.000000 0.083723 0.000000
# 6 0.000000 0.000000 0.000000 0.000000 0.000000 0.033757
#
#
# Mechanical properties :
#
#
# Convention : Reuss Voigt Hill
#
# Bulk Modulus (GPa) = 27.25016 53.44628 40.34822
# Shear Modulus (GPa) = 9.08191 24.50113 16.79152
#
# Velocity S-wave (km/s) = 2.20379 3.61972 2.99659
# Velocity P-wave (km/s) = 4.58781 6.78609 5.79220
#
# Compressibility (1/GPa) = 0.03669703
#
# Stress axis : x y z
#
# Youngs Moduli (GPa) = 31.57197 117.54675 99.78596
#
# Poissons Ratio (x) = 0.49298 -0.16242
# Poissons Ratio (y) = 0.13241 0.41774
# Poissons Ratio (z) = -0.05139 0.49209
#
# Static dielectric constant tensor:
#      x y z
#    x 3.227400 0.000000 0.000000 
#    y 0.000000 3.600820 0.000000 
#    z 0.000000 0.000000 3.569570 
# 
# 
# High freq. dielectric constant tensor:
#      x y z
#    x 1.713030 0.000000 0.000000 
#    y 0.000000 1.735560 0.000000 
#    z 0.000000 0.000000 1.710120 
# 
# From -- ./inp_files/66546.got.cif
#   From: 2010.03.12/outbox.cif.g09.slc.cpg/sg63_34_cif.got.tgz:66546.got - 2010.04.10 19:34:48.
