data_PCOD8258967
_publ_section_title
;
Structure prediction by ZEFSAII (Michael W. Deem and Ramdas Pophale) SiO2 
 PCOD8258967
Probable space group: C M C M
;
_chemical_formula_sum "Si O2"
_cell_formula_units_Z 96
_cell_length_a 19.561411
_cell_length_b 30.525337
_cell_length_c 8.779277
_cell_angle_alpha 90.000000
_cell_angle_beta 90.000000
_cell_angle_gamma 90.000000
_cell_volume 5242.270144
_symmetry_space_group_name_H-M "C M C M"
_symmetry_group_IT_number 63
_symmetry_cell_setting 'orthorhombic'
loop_
_space_group_symop_operation_xyz
x,y,z
-x,-y,1/2+z
x,-y,-z
-x,y,1/2-z
-x,-y,-z
x,y,1/2-z
-x,y,z
x,-y,1/2+z
1/2+x,1/2+y,z
1/2-x,1/2-y,1/2+z
1/2+x,1/2-y,-z
1/2-x,1/2+y,1/2-z
1/2-x,1/2-y,-z
1/2+x,1/2+y,1/2-z
1/2-x,1/2+y,z
1/2+x,1/2-y,1/2+z
loop_
_atom_site_type_symbol
_atom_site_label
_atom_site_fract_x
_atom_site_fract_y
_atom_site_fract_z
Si Si1 0.720107 0.548067 0.069593
Si Si2 0.071933 0.952865 0.928133
Si Si3 0.077547 0.664603 0.426245
Si Si4 0.294306 0.126712 0.929085
Si Si5 0.216883 0.207193 0.427241
Si Si6 0.575784 0.744139 0.076483
O O1 0.731197 0.545634 0.250000
O O2 0.644691 0.568772 0.026272
O O3 0.729474 0.500000 0.000000
O O4 0.775845 0.579604 0.996519
O O5 0.073021 0.960135 0.750000
O O6 0.000000 0.927705 0.974298
O O7 0.069741 0.000000 0.000000
O O8 0.095536 0.657880 0.250000
O O9 0.127073 0.634970 0.527408
O O10 0.089046 0.715420 0.464913
O O11 0.000000 0.650426 0.463056
O O12 0.285614 0.126239 0.750000
O O13 0.245039 0.163791 0.995846
O O14 0.235941 0.206050 0.250000
O O15 0.250000 0.250000 0.500000
O O16 0.134511 0.208038 0.452543
O O17 0.581209 0.761641 0.250000
O O18 0.500000 0.723714 0.047020
#
# Coordination Sequence:
#
# PCOD8258967 Si02
#       6
#    16  16  16  16  16  16
#     4  10  20  36  57  81 110 143 183 232 281 332
#     4   8  14  26  47  74 101 131 169 214 264 316
#     4  10  20  34  55  82 109 138 177 226 275 326
#     4  12  24  37  55  80 111 149 188 227 271 327
#     4  11  21  34  54  80 111 145 181 226 275 327
#     4   9  18  33  53  77 107 145 185 224 272 329
#
# _framework density 18.312677000000001
#
# number of rings (size 3 to 8) (size 9 to 14) (size 15 to 20)
#    0.000    2.000    1.667    3.000    0.000    2.333 
#    0.000    0.833    0.000    5.500    0.000    0.000 
#    0.000    0.000    0.000    0.000    0.000    0.000 
#
# Total GULP energy -594787.351041 kJ/mol
# GULP energy per Si atom -12391.403147 kJ/mol
# Density = 1.827100 g / cm^3
# Si number density = 18.312677 Si / 1000 Ang^3
#
#
#
# Elastic Constant Matrix: (Units=GPa)
#
#
# Indices 1 2 3 4 5 6 
#
# 1 134.4649 52.9693 49.5056 0.0000 0.0000 0.0000
# 2 52.9693 81.3114 43.8711 0.0000 0.0000 0.0000
# 3 49.5056 43.8711 102.8135 0.0000 0.0000 0.0000
# 4 0.0000 0.0000 0.0000 27.2078 0.0000 0.0000
# 5 0.0000 0.0000 0.0000 0.0000 24.1539 0.0000
# 6 0.0000 0.0000 0.0000 0.0000 0.0000 25.2223
#
#
#
# Elastic Compliance Matrix: (Units=1/GPa)
#
#
# Indices 1 2 3 4 5 6 
#
# 1 0.010590 -0.005388 -0.002800 0.000000 0.000000 0.000000
# 2 -0.005388 0.018718 -0.005393 0.000000 0.000000 0.000000
# 3 -0.002800 -0.005393 0.013376 0.000000 0.000000 0.000000
# 4 0.000000 0.000000 0.000000 0.036754 0.000000 0.000000
# 5 0.000000 0.000000 0.000000 0.000000 0.041401 0.000000
# 6 0.000000 0.000000 0.000000 0.000000 0.000000 0.039647
#
#
# Mechanical properties :
#
#
# Convention : Reuss Voigt Hill
#
# Bulk Modulus (GPa) = 64.42407 67.92018 66.17212
# Shear Modulus (GPa) = 25.93055 26.79973 26.36514
#
# Velocity S-wave (km/s) = 3.76704 3.82966 3.79848
# Velocity P-wave (km/s) = 7.36052 7.53158 7.44654
#
# Compressibility (1/GPa) = 0.01552215
#
# Stress axis : x y z
#
# Youngs Moduli (GPa) = 94.42562 53.42456 74.76224
#
# Poissons Ratio (x) = 0.28786 0.20935
# Poissons Ratio (y) = 0.50878 0.40317
# Poissons Ratio (z) = 0.26441 0.28810
#
# Static dielectric constant tensor:
#      x y z
#    x 4.030050 0.000000 0.000000 
#    y 0.000000 2.981660 0.000000 
#    z 0.000000 0.000000 3.472200 
# 
# 
# High freq. dielectric constant tensor:
#      x y z
#    x 1.731920 0.000000 0.000000 
#    y 0.000000 1.661390 0.000000 
#    z 0.000000 0.000000 1.721370 
# 
# From -- ./inp_files/8573.got.cif
#   From: 2010.03.12/outbox.cif.g09.slc.cpg/sg63_5_cif.got.tgz:8573.got - 2010.04.10 19:34:48.
