data_PCOD8258135
_publ_section_title
;
Structure prediction by ZEFSAII (Michael W. Deem and Ramdas Pophale) SiO2 
 PCOD8258135
Probable space group: C M C M
;
_chemical_formula_sum "Si O2"
_cell_formula_units_Z 96
_cell_length_a 30.014885
_cell_length_b 8.806832
_cell_length_c 17.974148
_cell_angle_alpha 90.000000
_cell_angle_beta 90.000000
_cell_angle_gamma 90.000000
_cell_volume 4751.215279
_symmetry_space_group_name_H-M "C M C M"
_symmetry_group_IT_number 63
_symmetry_cell_setting 'orthorhombic'
loop_
_space_group_symop_operation_xyz
x,y,z
-x,-y,1/2+z
x,-y,-z
-x,y,1/2-z
-x,-y,-z
x,y,1/2-z
-x,y,z
x,-y,1/2+z
1/2+x,1/2+y,z
1/2-x,1/2-y,1/2+z
1/2+x,1/2-y,-z
1/2-x,1/2+y,1/2-z
1/2-x,1/2-y,-z
1/2+x,1/2+y,1/2-z
1/2-x,1/2+y,z
1/2+x,1/2-y,1/2+z
loop_
_atom_site_type_symbol
_atom_site_label
_atom_site_fract_x
_atom_site_fract_y
_atom_site_fract_z
Si Si1 0.449707 0.421783 0.420880
Si Si2 0.785235 0.759720 0.665336
Si Si3 0.868821 0.383446 0.395578
Si Si4 0.949994 0.216385 0.337278
Si Si5 0.867601 0.280422 0.937726
Si Si6 0.714254 0.565740 0.917830
O O1 0.445558 0.500000 0.500000
O O2 0.500000 0.362879 0.405978
O O3 0.434946 0.546771 0.360140
O O4 0.416805 0.279161 0.417946
O O5 0.767263 0.746345 0.750000
O O6 0.834484 0.688761 0.662499
O O7 0.754254 0.676215 0.605215
O O8 0.788099 0.934896 0.643315
O O9 0.919104 0.345507 0.372425
O O10 0.860173 0.310392 0.475643
O O11 0.861373 0.563680 0.393181
O O12 0.947748 0.229768 0.250000
O O13 0.000000 0.245592 0.367621
O O14 0.831830 0.156438 0.912881
O O15 0.723641 0.500000 0.000000
#
# Coordination Sequence:
#
# PCOD8258135 Si02
#       6
#    16  16  16  16  16  16
#     4  10  19  36  62  92 122 157 204 257 303 357
#     4  12  26  43  65  93 126 161 207 261 311 368
#     4  11  23  39  61  91 128 161 204 256 309 365
#     4  10  21  39  62  88 123 167 208 249 309 374
#     4  11  23  38  62  94 123 160 207 256 304 371
#     4  12  24  43  68  93 123 165 209 251 312 375
#
# _framework density 20.205355000000001
#
# number of rings (size 3 to 8) (size 9 to 14) (size 15 to 20)
#    0.000    1.000    3.333    4.000    2.333    0.667 
#    0.000    6.667    0.000    2.000    0.000    0.000 
#    0.000    0.000    0.000    0.000    0.000    0.000 
#
# Total GULP energy -595426.234410 kJ/mol
# GULP energy per Si atom -12404.713217 kJ/mol
# Density = 2.015937 g / cm^3
# Si number density = 20.205355 Si / 1000 Ang^3
#
#
#
# Elastic Constant Matrix: (Units=GPa)
#
#
# Indices 1 2 3 4 5 6 
#
# 1 113.1556 60.1217 26.0666 0.0000 0.0000 0.0000
# 2 60.1217 126.9367 40.2890 0.0000 0.0000 0.0000
# 3 26.0666 40.2890 67.3762 0.0000 0.0000 0.0000
# 4 0.0000 0.0000 0.0000 20.6060 0.0000 0.0000
# 5 0.0000 0.0000 0.0000 0.0000 23.0476 0.0000
# 6 0.0000 0.0000 0.0000 0.0000 0.0000 40.4450
#
#
#
# Elastic Compliance Matrix: (Units=1/GPa)
#
#
# Indices 1 2 3 4 5 6 
#
# 1 0.011935 -0.005168 -0.001527 0.000000 0.000000 0.000000
# 2 -0.005168 0.011961 -0.005153 0.000000 0.000000 0.000000
# 3 -0.001527 -0.005153 0.018514 0.000000 0.000000 0.000000
# 4 0.000000 0.000000 0.000000 0.048529 0.000000 0.000000
# 5 0.000000 0.000000 0.000000 0.000000 0.043389 0.000000
# 6 0.000000 0.000000 0.000000 0.000000 0.000000 0.024725
#
#
# Mechanical properties :
#
#
# Convention : Reuss Voigt Hill
#
# Bulk Modulus (GPa) = 53.43576 62.26924 57.85250
# Shear Modulus (GPa) = 26.45666 28.88579 27.67122
#
# Velocity S-wave (km/s) = 3.62247 3.78512 3.70469
# Velocity P-wave (km/s) = 6.63326 7.07022 6.85522
#
# Compressibility (1/GPa) = 0.01871406
#
# Stress axis : x y z
#
# Youngs Moduli (GPa) = 83.78618 83.60255 54.01259
#
# Poissons Ratio (x) = 0.43208 0.08248
# Poissons Ratio (y) = 0.43303 0.27833
# Poissons Ratio (z) = 0.12794 0.43081
#
# Static dielectric constant tensor:
#      x y z
#    x 3.871350 0.000000 0.000000 
#    y 0.000000 2.617430 0.000000 
#    z 0.000000 0.000000 3.608330 
# 
# 
# High freq. dielectric constant tensor:
#      x y z
#    x 1.800780 0.000000 0.000000 
#    y 0.000000 1.790790 0.000000 
#    z 0.000000 0.000000 1.782390 
# 
# From -- ./inp_files/58112.got.cif
#   From: 2010.03.12/outbox.cif.g09.slc.cpg/sg63_30_cif.got.tgz:58112.got - 2010.04.10 19:34:48.
