data_PCOD8258260
_publ_section_title
;
Structure prediction by ZEFSAII (Michael W. Deem and Ramdas Pophale) SiO2 
 PCOD8258260
Probable space group: C M C M
;
_chemical_formula_sum "Si O2"
_cell_formula_units_Z 104
_cell_length_a 32.307998
_cell_length_b 20.569873
_cell_length_c 8.783284
_cell_angle_alpha 90.000000
_cell_angle_beta 90.000000
_cell_angle_gamma 90.000000
_cell_volume 5837.119483
_symmetry_space_group_name_H-M "C M C M"
_symmetry_group_IT_number 63
_symmetry_cell_setting 'orthorhombic'
loop_
_space_group_symop_operation_xyz
x,y,z
-x,-y,1/2+z
x,-y,-z
-x,y,1/2-z
-x,-y,-z
x,y,1/2-z
-x,y,z
x,-y,1/2+z
1/2+x,1/2+y,z
1/2-x,1/2-y,1/2+z
1/2+x,1/2-y,-z
1/2-x,1/2+y,1/2-z
1/2-x,1/2-y,-z
1/2+x,1/2+y,1/2-z
1/2-x,1/2+y,z
1/2+x,1/2-y,1/2+z
loop_
_atom_site_type_symbol
_atom_site_label
_atom_site_fract_x
_atom_site_fract_y
_atom_site_fract_z
Si Si1 0.573118 0.654891 0.924192
Si Si2 0.131254 0.681989 0.929402
Si Si3 0.453768 0.800402 0.924400
Si Si4 0.655192 0.677282 0.427750
Si Si5 0.781141 0.930867 0.932302
Si Si6 0.000000 0.931208 0.429852
Si Si7 0.191973 0.567237 0.931112
O O1 0.586618 0.642816 0.750000
O O2 0.550933 0.723706 0.941402
O O3 0.540971 0.603443 0.988976
O O4 0.612084 0.643716 0.032475
O O5 0.128352 0.688785 0.750000
O O6 0.152155 0.748797 0.996661
O O7 0.159938 0.622697 0.980190
O O8 0.084634 0.666895 0.987105
O O9 0.450503 0.822504 0.750000
O O10 0.500000 0.819800 0.986953
O O11 0.662004 0.682446 0.250000
O O12 0.691276 0.630179 0.492430
O O13 0.781373 0.936201 0.750000
O O14 0.735589 0.915517 0.993174
O O15 0.797121 0.000000 0.000000
O O16 0.000000 0.931282 0.250000
O O17 0.000000 0.000000 0.500000
O O18 0.197162 0.561635 0.750000
O O19 0.174796 0.500000 0.000000
#
# Coordination Sequence:
#
# PCOD8258260 Si02
#       7
#    16  16  16  16  16   8  16
#     4   9  17  31  48  65  91 126 161 202 248 290
#     4   9  19  34  51  76 105 131 162 203 251 296
#     4   9  16  29  51  75  98 126 161 200 242 291
#     4   9  19  34  50  72 101 129 163 207 250 294
#     4  10  20  34  52  72  98 133 171 208 247 295
#     4  10  20  32  44  62  90 124 165 208 247 290
#     4  10  20  35  55  76 101 131 164 202 244 298
#
# _framework density 17.817007
#
# number of rings (size 3 to 8) (size 9 to 14) (size 15 to 20)
#    0.000    2.615    0.769    1.846    0.000    4.615 
#    0.000    3.077    0.000    0.462    0.000    0.000 
#    0.000    0.000    0.000    0.000    0.000    0.000 
#
# Total GULP energy -644402.266669 kJ/mol
# GULP energy per Si atom -12392.351282 kJ/mol
# Density = 1.777645 g / cm^3
# Si number density = 17.817007 Si / 1000 Ang^3
#
#
#
# Elastic Constant Matrix: (Units=GPa)
#
#
# Indices 1 2 3 4 5 6 
#
# 1 135.1525 89.9549 29.7366 0.0000 0.0000 0.0000
# 2 89.9549 114.4893 28.9119 0.0000 0.0000 0.0000
# 3 29.7366 28.9119 33.0540 0.0000 0.0000 0.0000
# 4 0.0000 0.0000 0.0000 23.9821 0.0000 0.0000
# 5 0.0000 0.0000 0.0000 0.0000 31.3943 0.0000
# 6 0.0000 0.0000 0.0000 0.0000 0.0000 35.9199
#
#
#
# Elastic Compliance Matrix: (Units=1/GPa)
#
#
# Indices 1 2 3 4 5 6 
#
# 1 0.015984 -0.011459 -0.004357 0.000000 0.000000 0.000000
# 2 -0.011459 0.019425 -0.006682 0.000000 0.000000 0.000000
# 3 -0.004357 -0.006682 0.040018 0.000000 0.000000 0.000000
# 4 0.000000 0.000000 0.000000 0.041698 0.000000 0.000000
# 5 0.000000 0.000000 0.000000 0.000000 0.031853 0.000000
# 6 0.000000 0.000000 0.000000 0.000000 0.000000 0.027840
#
#
# Mechanical properties :
#
#
# Convention : Reuss Voigt Hill
#
# Bulk Modulus (GPa) = 32.86088 64.43361 48.64724
# Shear Modulus (GPa) = 21.55556 27.19876 24.37716
#
# Velocity S-wave (km/s) = 3.48204 3.91136 3.70293
# Velocity P-wave (km/s) = 5.88640 7.52602 6.75613
#
# Compressibility (1/GPa) = 0.03043132
#
# Stress axis : x y z
#
# Youngs Moduli (GPa) = 62.56065 51.47992 24.98852
#
# Poissons Ratio (x) = 0.58989 0.10889
# Poissons Ratio (y) = 0.71686 0.16698
# Poissons Ratio (z) = 0.27261 0.34399
#
# Static dielectric constant tensor:
#      x y z
#    x 3.463650 0.000000 0.000000 
#    y 0.000000 3.376390 0.000000 
#    z 0.000000 0.000000 3.278400 
# 
# 
# High freq. dielectric constant tensor:
#      x y z
#    x 1.694210 0.000000 0.000000 
#    y 0.000000 1.675550 0.000000 
#    z 0.000000 0.000000 1.681280 
# 
# From -- ./inp_files/12838.got.cif
#   From: 2010.03.12/outbox.cif.g09.slc.cpg/sg63_7_cif.got.tgz:12838.got - 2010.04.10 19:34:48.
