data_PCOD8258405
_publ_section_title
;
Structure prediction by ZEFSAII (Michael W. Deem and Ramdas Pophale) SiO2 
 PCOD8258405
Probable space group: C M C M
;
_chemical_formula_sum "Si O2"
_cell_formula_units_Z 80
_cell_length_a 9.377967
_cell_length_b 26.235740
_cell_length_c 16.215541
_cell_angle_alpha 90.000000
_cell_angle_beta 90.000000
_cell_angle_gamma 90.000000
_cell_volume 3989.637719
_symmetry_space_group_name_H-M "C M C M"
_symmetry_group_IT_number 63
_symmetry_cell_setting 'orthorhombic'
loop_
_space_group_symop_operation_xyz
x,y,z
-x,-y,1/2+z
x,-y,-z
-x,y,1/2-z
-x,-y,-z
x,y,1/2-z
-x,y,z
x,-y,1/2+z
1/2+x,1/2+y,z
1/2-x,1/2-y,1/2+z
1/2+x,1/2-y,-z
1/2-x,1/2+y,1/2-z
1/2-x,1/2-y,-z
1/2+x,1/2+y,1/2-z
1/2-x,1/2+y,z
1/2+x,1/2-y,1/2+z
loop_
_atom_site_type_symbol
_atom_site_label
_atom_site_fract_x
_atom_site_fract_y
_atom_site_fract_z
Si Si1 0.839184 0.435553 0.340858
Si Si2 0.330983 0.783626 0.933093
Si Si3 0.838183 0.031113 0.105678
Si Si4 0.167211 0.706916 0.250000
Si Si5 0.162563 0.605827 0.007936
Si Si6 0.845219 0.890153 0.750000
O O1 0.807285 0.412454 0.250000
O O2 0.731199 0.481097 0.357191
O O3 0.822550 0.390240 0.408187
O O4 0.000000 0.457688 0.344973
O O5 0.500000 0.777110 0.946694
O O6 0.285753 0.767668 0.838265
O O7 0.250000 0.750000 0.000000
O O8 0.282920 0.842097 0.949836
O O9 0.830037 0.075524 0.171022
O O10 0.000000 0.018467 0.079679
O O11 0.753624 0.054916 0.028317
O O12 0.219086 0.649502 0.250000
O O13 0.000000 0.703481 0.250000
O O14 0.000000 0.595975 0.035276
O O15 0.000000 0.862439 0.750000
#
# Coordination Sequence:
#
# PCOD8258405 Si02
#       6
#    16  16  16   8  16   8
#     4  10  21  36  54  77 111 154 195 231 271 328
#     4  10  22  40  62  88 116 146 186 237 290 345
#     4  11  21  34  54  83 116 149 187 231 279 328
#     4  10  20  38  64  87 110 147 191 234 285 343
#     4  10  21  38  58  82 110 146 191 235 280 333
#     4  10  20  32  52  83 114 145 185 232 275 323
#
# _framework density 20.051946999999998
#
# number of rings (size 3 to 8) (size 9 to 14) (size 15 to 20)
#    0.000    1.800    3.000    1.200    0.000    5.600 
#    1.800    0.000    0.000    0.000    0.000    0.000 
#    0.000    0.000    0.000    0.000    0.000    0.000 
#
# Total GULP energy -495645.736882 kJ/mol
# GULP energy per Si atom -12391.143422 kJ/mol
# Density = 2.000631 g / cm^3
# Si number density = 20.051947 Si / 1000 Ang^3
#
#
#
# Elastic Constant Matrix: (Units=GPa)
#
#
# Indices 1 2 3 4 5 6 
#
# 1 60.3483 22.2436 40.4211 0.0000 0.0000 0.0000
# 2 22.2436 38.0550 31.6905 0.0000 0.0000 0.0000
# 3 40.4211 31.6905 165.9236 0.0000 0.0000 0.0000
# 4 0.0000 0.0000 0.0000 21.7395 0.0000 0.0000
# 5 0.0000 0.0000 0.0000 0.0000 25.1837 0.0000
# 6 0.0000 0.0000 0.0000 0.0000 0.0000 21.2200
#
#
#
# Elastic Compliance Matrix: (Units=1/GPa)
#
#
# Indices 1 2 3 4 5 6 
#
# 1 0.022774 -0.010335 -0.003574 0.000000 0.000000 0.000000
# 2 -0.010335 0.035938 -0.004346 0.000000 0.000000 0.000000
# 3 -0.003574 -0.004346 0.007728 0.000000 0.000000 0.000000
# 4 0.000000 0.000000 0.000000 0.045999 0.000000 0.000000
# 5 0.000000 0.000000 0.000000 0.000000 0.039708 0.000000
# 6 0.000000 0.000000 0.000000 0.000000 0.000000 0.047125
#
#
# Mechanical properties :
#
#
# Convention : Reuss Voigt Hill
#
# Bulk Modulus (GPa) = 33.41281 50.33749 41.87515
# Shear Modulus (GPa) = 20.34509 24.96008 22.65259
#
# Velocity S-wave (km/s) = 3.18876 3.53196 3.36474
# Velocity P-wave (km/s) = 5.50063 6.46460 6.00200
#
# Compressibility (1/GPa) = 0.02992864
#
# Stress axis : x y z
#
# Youngs Moduli (GPa) = 43.91011 27.82559 129.40556
#
# Poissons Ratio (x) = 0.28759 0.46250
# Poissons Ratio (y) = 0.45382 0.56242
# Poissons Ratio (z) = 0.15694 0.12094
#
# Static dielectric constant tensor:
#      x y z
#    x 3.742280 0.000000 0.000000 
#    y 0.000000 3.245450 0.000000 
#    z 0.000000 0.000000 3.601660 
# 
# 
# High freq. dielectric constant tensor:
#      x y z
#    x 1.779300 0.000000 0.000000 
#    y 0.000000 1.741050 0.000000 
#    z 0.000000 0.000000 1.813500 
# 
# From -- ./inp_files/40599.got.cif
#   From: 2010.03.12/outbox.cif.g09.slc.cpg/sg63_21_cif.got.tgz:40599.got - 2010.04.10 19:34:48.
