data_PCOD8258164
_publ_section_title
;
Structure prediction by ZEFSAII (Michael W. Deem and Ramdas Pophale) SiO2 
 PCOD8258164
Probable space group: C M C M
;
_chemical_formula_sum "Si O2"
_cell_formula_units_Z 112
_cell_length_a 13.801975
_cell_length_b 14.761274
_cell_length_c 27.896469
_cell_angle_alpha 90.000000
_cell_angle_beta 90.000000
_cell_angle_gamma 90.000000
_cell_volume 5683.479711
_symmetry_space_group_name_H-M "C M C M"
_symmetry_group_IT_number 63
_symmetry_cell_setting 'orthorhombic'
loop_
_space_group_symop_operation_xyz
x,y,z
-x,-y,1/2+z
x,-y,-z
-x,y,1/2-z
-x,-y,-z
x,y,1/2-z
-x,y,z
x,-y,1/2+z
1/2+x,1/2+y,z
1/2-x,1/2-y,1/2+z
1/2+x,1/2-y,-z
1/2-x,1/2+y,1/2-z
1/2-x,1/2-y,-z
1/2+x,1/2+y,1/2-z
1/2-x,1/2+y,z
1/2+x,1/2-y,1/2+z
loop_
_atom_site_type_symbol
_atom_site_label
_atom_site_fract_x
_atom_site_fract_y
_atom_site_fract_z
Si Si1 0.109695 0.213834 0.196244
Si Si2 0.746031 0.963421 0.385885
Si Si3 0.607894 0.927722 0.304357
Si Si4 0.858980 0.233732 0.011497
Si Si5 0.604956 0.074442 0.535304
Si Si6 0.776982 0.167436 0.103965
Si Si7 0.390247 0.314951 0.089578
O O1 0.142994 0.185462 0.250000
O O2 0.115333 0.320728 0.190684
O O3 0.180403 0.169724 0.157459
O O4 0.000000 0.180033 0.187468
O O5 0.695217 0.971800 0.334238
O O6 0.674074 0.906392 0.419893
O O7 0.846186 0.906047 0.385763
O O8 0.754074 0.063290 0.407433
O O9 0.623833 0.959214 0.250000
O O10 0.500000 0.958813 0.321535
O O11 0.912906 0.329893 0.009209
O O12 0.861408 0.192062 0.065198
O O13 0.750000 0.250000 0.000000
O O14 0.900237 0.171181 0.968441
O O15 0.500000 0.037558 0.552494
O O16 0.652330 0.000000 0.500000
O O17 0.679332 0.228630 0.100968
O O18 0.500000 0.300534 0.109988
#
# Coordination Sequence:
#
# PCOD8258164 Si02
#       7
#    16  16  16  16  16  16  16
#     4   9  18  36  63  91 116 144 189 250 305 351
#     4  12  23  36  61  87 120 158 200 249 293 364
#     4   9  18  36  63  91 116 145 189 248 309 357
#     4  10  19  38  56  79 115 158 199 239 289 349
#     4  11  21  34  59  89 115 148 194 246 301 357
#     4  11  23  38  62  86 117 163 204 243 296 367
#     4  11  24  42  58  83 125 167 201 249 302 353
#
# _framework density 19.706237999999999
#
# number of rings (size 3 to 8) (size 9 to 14) (size 15 to 20)
#    0.000    1.571    4.286    3.429    0.000    5.714 
#    0.000    0.714    0.000    1.714    0.000    0.000 
#    0.000    0.000    0.000    0.000    0.000    0.000 
#
# Total GULP energy -693935.429640 kJ/mol
# GULP energy per Si atom -12391.704101 kJ/mol
# Density = 1.966139 g / cm^3
# Si number density = 19.706238 Si / 1000 Ang^3
#
#
#
# Elastic Constant Matrix: (Units=GPa)
#
#
# Indices 1 2 3 4 5 6 
#
# 1 110.3494 31.3412 43.1277 0.0000 0.0000 0.0000
# 2 31.3412 95.7995 23.6136 0.0000 0.0000 0.0000
# 3 43.1277 23.6136 110.0363 0.0000 0.0000 0.0000
# 4 0.0000 0.0000 0.0000 23.3641 0.0000 0.0000
# 5 0.0000 0.0000 0.0000 0.0000 23.5268 0.0000
# 6 0.0000 0.0000 0.0000 0.0000 0.0000 0.9755
#
#
#
# Elastic Compliance Matrix: (Units=1/GPa)
#
#
# Indices 1 2 3 4 5 6 
#
# 1 0.011355 -0.002764 -0.003857 0.000000 0.000000 0.000000
# 2 -0.002764 0.011694 -0.001426 0.000000 0.000000 0.000000
# 3 -0.003857 -0.001426 0.010906 0.000000 0.000000 0.000000
# 4 0.000000 0.000000 0.000000 0.042801 0.000000 0.000000
# 5 0.000000 0.000000 0.000000 0.000000 0.042505 0.000000
# 6 0.000000 0.000000 0.000000 0.000000 0.000000 1.025083
#
#
# Mechanical properties :
#
#
# Convention : Reuss Voigt Hill
#
# Bulk Modulus (GPa) = 55.99155 56.92780 56.45968
# Shear Modulus (GPa) = 4.28673 24.11346 14.20009
#
# Velocity S-wave (km/s) = 1.47649 3.50186 2.68729
# Velocity P-wave (km/s) = 5.60192 6.73065 6.19206
#
# Compressibility (1/GPa) = 0.01785984
#
# Stress axis : x y z
#
# Youngs Moduli (GPa) = 88.06968 85.51199 91.69446
#
# Poissons Ratio (x) = 0.23635 0.35368
# Poissons Ratio (y) = 0.24342 0.13078
# Poissons Ratio (z) = 0.33970 0.12196
#
# Static dielectric constant tensor:
#      x y z
#    x 3.827320 0.000000 0.000000 
#    y 0.000000 3.237040 0.000000 
#    z 0.000000 0.000000 4.103860 
# 
# 
# High freq. dielectric constant tensor:
#      x y z
#    x 1.763750 0.000000 0.000000 
#    y 0.000000 1.746070 0.000000 
#    z 0.000000 0.000000 1.763890 
# 
# From -- ./inp_files/69379.got.cif
#   From: 2010.03.12/outbox.cif.g09.slc.cpg/sg63_35_cif.got.tgz:69379.got - 2010.04.10 19:34:48.
