data_PCOD8258792
_publ_section_title
;
Structure prediction by ZEFSAII (Michael W. Deem and Ramdas Pophale) SiO2 
 PCOD8258792
Probable space group: C M C M
;
_chemical_formula_sum "Si O2"
_cell_formula_units_Z 80
_cell_length_a 13.517352
_cell_length_b 12.408307
_cell_length_c 24.136149
_cell_angle_alpha 90.000000
_cell_angle_beta 90.000000
_cell_angle_gamma 90.000000
_cell_volume 4048.294808
_symmetry_space_group_name_H-M "C M C M"
_symmetry_group_IT_number 63
_symmetry_cell_setting 'orthorhombic'
loop_
_space_group_symop_operation_xyz
x,y,z
-x,-y,1/2+z
x,-y,-z
-x,y,1/2-z
-x,-y,-z
x,y,1/2-z
-x,y,z
x,-y,1/2+z
1/2+x,1/2+y,z
1/2-x,1/2-y,1/2+z
1/2+x,1/2-y,-z
1/2-x,1/2+y,1/2-z
1/2-x,1/2-y,-z
1/2+x,1/2+y,1/2-z
1/2-x,1/2+y,z
1/2+x,1/2-y,1/2+z
loop_
_atom_site_type_symbol
_atom_site_label
_atom_site_fract_x
_atom_site_fract_y
_atom_site_fract_z
Si Si1 0.112434 0.724941 0.106418
Si Si2 0.385514 0.819363 0.483506
Si Si3 0.110769 0.920822 0.948201
Si Si4 0.613220 0.969876 0.686945
Si Si5 0.752137 0.424577 0.395798
O O1 0.127600 0.643732 0.156695
O O2 0.181427 0.825790 0.117533
O O3 0.000000 0.768438 0.103054
O O4 0.137243 0.664730 0.048575
O O5 0.500000 0.843405 0.470005
O O6 0.355298 0.697665 0.466964
O O7 0.318885 0.903771 0.450149
O O8 0.000000 0.916128 0.922918
O O9 0.187324 0.966676 0.903114
O O10 0.112177 0.000000 0.000000
O O11 0.648686 0.956338 0.750000
O O12 0.500000 0.008112 0.683801
O O13 0.678270 0.061318 0.657467
#
# Coordination Sequence:
#
# PCOD8258792 Si02
#       5
#    16  16  16  16  16
#     4  10  21  36  56  82 114 146 180 224 272 332
#     4  10  21  34  51  85 121 148 178 217 274 334
#     4  10  20  34  52  81 123 153 170 210 274 335
#     4  10  24  43  57  75 107 146 188 238 287 320
#     4  12  21  33  60  86 110 145 191 225 268 332
#
# _framework density 19.761405
#
# number of rings (size 3 to 8) (size 9 to 14) (size 15 to 20)
#    0.000    1.600    2.000    3.000    2.800    0.800 
#    0.000    3.000    0.000    1.800    0.000    0.000 
#    0.000    0.000    0.000    0.000    0.000    0.000 
#
# Total GULP energy -496186.757245 kJ/mol
# GULP energy per Si atom -12404.668931 kJ/mol
# Density = 1.971643 g / cm^3
# Si number density = 19.761405 Si / 1000 Ang^3
#
#
#
# Elastic Constant Matrix: (Units=GPa)
#
#
# Indices 1 2 3 4 5 6 
#
# 1 93.5313 34.1195 64.6662 0.0000 0.0000 0.0000
# 2 34.1195 52.1368 45.0324 0.0000 0.0000 0.0000
# 3 64.6662 45.0324 146.3919 0.0000 0.0000 0.0000
# 4 0.0000 0.0000 0.0000 17.6984 0.0000 0.0000
# 5 0.0000 0.0000 0.0000 0.0000 18.4681 0.0000
# 6 0.0000 0.0000 0.0000 0.0000 0.0000 26.2674
#
#
#
# Elastic Compliance Matrix: (Units=1/GPa)
#
#
# Indices 1 2 3 4 5 6 
#
# 1 0.016756 -0.006227 -0.005486 0.000000 0.000000 0.000000
# 2 -0.006227 0.028435 -0.005996 0.000000 0.000000 0.000000
# 3 -0.005486 -0.005996 0.011099 0.000000 0.000000 0.000000
# 4 0.000000 0.000000 0.000000 0.056502 0.000000 0.000000
# 5 0.000000 0.000000 0.000000 0.000000 0.054147 0.000000
# 6 0.000000 0.000000 0.000000 0.000000 0.000000 0.038070
#
#
# Mechanical properties :
#
#
# Convention : Reuss Voigt Hill
#
# Bulk Modulus (GPa) = 47.91385 64.41070 56.16227
# Shear Modulus (GPa) = 20.21136 22.36957 21.29047
#
# Velocity S-wave (km/s) = 3.20155 3.36815 3.28590
# Velocity P-wave (km/s) = 6.16160 6.91309 6.54814
#
# Compressibility (1/GPa) = 0.02087079
#
# Stress axis : x y z
#
# Youngs Moduli (GPa) = 59.67890 35.16847 90.09826
#
# Poissons Ratio (x) = 0.21899 0.49431
# Poissons Ratio (y) = 0.37162 0.54025
# Poissons Ratio (z) = 0.32742 0.21088
#
# Static dielectric constant tensor:
#      x y z
#    x 4.027870 0.000000 0.000000 
#    y 0.000000 3.511030 0.000000 
#    z 0.000000 0.000000 3.403170 
# 
# 
# High freq. dielectric constant tensor:
#      x y z
#    x 1.798340 0.000000 0.000000 
#    y 0.000000 1.768200 0.000000 
#    z 0.000000 0.000000 1.731970 
# 
# From -- ./inp_files/62557.got.cif
#   From: 2010.03.12/outbox.cif.g09.slc.cpg/sg63_32_cif.got.tgz:62557.got - 2010.04.10 19:34:48.
