data_PCOD8258512
_publ_section_title
;
Structure prediction by ZEFSAII (Michael W. Deem and Ramdas Pophale) SiO2 
 PCOD8258512
Probable space group: C M C M
;
_chemical_formula_sum "Si O2"
_cell_formula_units_Z 64
_cell_length_a 24.051948
_cell_length_b 13.302636
_cell_length_c 8.904987
_cell_angle_alpha 90.000000
_cell_angle_beta 90.000000
_cell_angle_gamma 90.000000
_cell_volume 2849.188965
_symmetry_space_group_name_H-M "C M C M"
_symmetry_group_IT_number 63
_symmetry_cell_setting 'orthorhombic'
loop_
_space_group_symop_operation_xyz
x,y,z
-x,-y,1/2+z
x,-y,-z
-x,y,1/2-z
-x,-y,-z
x,y,1/2-z
-x,y,z
x,-y,1/2+z
1/2+x,1/2+y,z
1/2-x,1/2-y,1/2+z
1/2+x,1/2-y,-z
1/2-x,1/2+y,1/2-z
1/2-x,1/2-y,-z
1/2+x,1/2+y,1/2-z
1/2-x,1/2+y,z
1/2+x,1/2-y,1/2+z
loop_
_atom_site_type_symbol
_atom_site_label
_atom_site_fract_x
_atom_site_fract_y
_atom_site_fract_z
Si Si1 0.563157 0.592890 0.084505
Si Si2 0.671191 0.812642 0.423871
Si Si3 0.561676 0.800702 0.573938
Si Si4 0.778587 0.101283 0.424132
O O1 0.591381 0.614310 0.250000
O O2 0.500000 0.562551 0.117178
O O3 0.593394 0.500000 0.000000
O O4 0.565504 0.685727 0.973154
O O5 0.676076 0.838736 0.250000
O O6 0.611857 0.854708 0.484750
O O7 0.718974 0.871884 0.508330
O O8 0.677482 0.691969 0.453476
O O9 0.572118 0.811113 0.750000
O O10 0.500000 0.843855 0.530984
O O11 0.769423 0.081832 0.250000
O O12 0.801936 0.000000 0.500000
#
# Coordination Sequence:
#
# PCOD8258512 Si02
#       4
#    16  16  16  16
#     4   9  16  26  40  59  87 126 172 218 263 315
#     4  10  21  37  58  85 116 150 190 235 282 337
#     4  10  20  33  50  74 107 147 187 228 276 331
#     4  10  21  38  61  87 114 146 186 235 289 341
#
# _framework density 22.462531999999999
#
# number of rings (size 3 to 8) (size 9 to 14) (size 15 to 20)
#    0.000    2.250    0.000    3.000    0.000    8.500 
#    0.000    2.500    0.000    0.750    0.000    0.000 
#    0.000    0.000    0.000    0.000    0.000    0.000 
#
# Total GULP energy -396599.894751 kJ/mol
# GULP energy per Si atom -12393.746711 kJ/mol
# Density = 2.241141 g / cm^3
# Si number density = 22.462532 Si / 1000 Ang^3
#
#
#
# Elastic Constant Matrix: (Units=GPa)
#
#
# Indices 1 2 3 4 5 6 
#
# 1 153.0394 0.6614 58.2318 0.0000 0.0000 0.0000
# 2 0.6614 31.5001 16.9113 0.0000 0.0000 0.0000
# 3 58.2318 16.9113 129.1613 0.0000 0.0000 0.0000
# 4 0.0000 0.0000 0.0000 29.5354 0.0000 0.0000
# 5 0.0000 0.0000 0.0000 0.0000 30.2257 0.0000
# 6 0.0000 0.0000 0.0000 0.0000 0.0000 -33.3160
#
#
#
# Elastic Compliance Matrix: (Units=1/GPa)
#
#
# Indices 1 2 3 4 5 6 
#
# 1 0.007992 0.001900 -0.003852 0.000000 0.000000 0.000000
# 2 0.001900 0.034598 -0.005387 0.000000 0.000000 0.000000
# 3 -0.003852 -0.005387 0.010184 0.000000 0.000000 0.000000
# 4 0.000000 0.000000 0.000000 0.033858 0.000000 0.000000
# 5 0.000000 0.000000 0.000000 0.000000 0.033084 0.000000
# 6 0.000000 0.000000 0.000000 0.000000 0.000000 -0.030016
#
#
# Mechanical properties :
#
#
# Convention : Reuss Voigt Hill
#
# Bulk Modulus (GPa) = 26.24875 51.70107 38.97491
# Shear Modulus (GPa) = 42.70738 21.14877 31.92808
#
# Velocity S-wave (km/s) = 4.36509 3.07174 3.77423
# Velocity P-wave (km/s) = 6.09231 5.97054 6.03173
#
# Compressibility (1/GPa) = 0.03809705
#
# Stress axis : x y z
#
# Youngs Moduli (GPa) = 125.13031 28.90352 98.19234
#
# Poissons Ratio (x) = -0.05492 0.37822
# Poissons Ratio (y) = -0.23776 0.52892
# Poissons Ratio (z) = 0.48198 0.15569
#
# Static dielectric constant tensor:
#      x y z
#    x 4.451720 0.000000 0.000000 
#    y 0.000000 3.661660 0.000000 
#    z 0.000000 0.000000 4.354990 
# 
# 
# High freq. dielectric constant tensor:
#      x y z
#    x 1.904270 0.000000 0.000000 
#    y 0.000000 1.839750 0.000000 
#    z 0.000000 0.000000 1.897530 
# 
# From -- ./inp_files/9597.got.cif
#   From: 2010.03.12/outbox.cif.g09.slc.cpg/sg63_5_cif.got.tgz:9597.got - 2010.04.10 19:34:48.
