data_PCOD8258647
_publ_section_title
;
Structure prediction by ZEFSAII (Michael W. Deem and Ramdas Pophale) SiO2 
 PCOD8258647
Probable space group: C M C M
;
_chemical_formula_sum "Si O2"
_cell_formula_units_Z 64
_cell_length_a 8.623229
_cell_length_b 24.713573
_cell_length_c 15.454044
_cell_angle_alpha 90.000000
_cell_angle_beta 90.000000
_cell_angle_gamma 90.000000
_cell_volume 3293.423671
_symmetry_space_group_name_H-M "C M C M"
_symmetry_group_IT_number 63
_symmetry_cell_setting 'orthorhombic'
loop_
_space_group_symop_operation_xyz
x,y,z
-x,-y,1/2+z
x,-y,-z
-x,y,1/2-z
-x,-y,-z
x,y,1/2-z
-x,y,z
x,-y,1/2+z
1/2+x,1/2+y,z
1/2-x,1/2-y,1/2+z
1/2+x,1/2-y,-z
1/2-x,1/2+y,1/2-z
1/2-x,1/2-y,-z
1/2+x,1/2+y,1/2-z
1/2-x,1/2+y,z
1/2+x,1/2-y,1/2+z
loop_
_atom_site_type_symbol
_atom_site_label
_atom_site_fract_x
_atom_site_fract_y
_atom_site_fract_z
Si Si1 0.685142 0.737335 0.906940
Si Si2 0.684233 0.432518 0.750000
Si Si3 0.327485 0.623896 0.851285
Si Si4 0.816091 0.687709 0.250000
Si Si5 0.685048 0.490122 0.402898
O O1 0.500000 0.736246 0.906022
O O2 0.755736 0.677949 0.885912
O O3 0.743665 0.780604 0.835560
O O4 0.750000 0.750000 0.000000
O O5 0.500000 0.429381 0.750000
O O6 0.749571 0.372380 0.750000
O O7 0.744936 0.464117 0.664114
O O8 0.336996 0.628693 0.750000
O O9 0.500000 0.621825 0.891492
O O10 0.241965 0.568224 0.877412
O O11 0.000000 0.684394 0.250000
O O12 0.743947 0.500000 0.500000
O O13 0.500000 0.488661 0.396467
#
# Coordination Sequence:
#
# PCOD8258647 Si02
#       5
#    16   8  16   8  16
#     4  10  21  36  56  80 105 140 181 218 264 318
#     4  10  20  33  53  81 105 132 177 222 260 312
#     4   9  15  29  51  72  99 135 172 211 257 309
#     4  10  22  39  53  73 113 152 175 206 266 332
#     4   9  17  28  46  77 108 128 158 216 274 303
#
# _framework density 19.432665
#
# number of rings (size 3 to 8) (size 9 to 14) (size 15 to 20)
#    0.000    2.500    2.500    0.000    3.500    1.000 
#    0.000    0.000    0.000    2.250    0.000    0.000 
#    0.000    0.000    0.000    0.000    0.000    0.000 
#
# Total GULP energy -396549.811005 kJ/mol
# GULP energy per Si atom -12392.181594 kJ/mol
# Density = 1.938843 g / cm^3
# Si number density = 19.432665 Si / 1000 Ang^3
#
#
#
# Elastic Constant Matrix: (Units=GPa)
#
#
# Indices 1 2 3 4 5 6 
#
# 1 9.2386 18.5143 15.5704 0.0000 0.0000 0.0000
# 2 18.5143 220.5882 97.7086 0.0000 0.0000 0.0000
# 3 15.5704 97.7086 164.5358 0.0000 0.0000 0.0000
# 4 0.0000 0.0000 0.0000 40.5776 0.0000 0.0000
# 5 0.0000 0.0000 0.0000 0.0000 20.4525 0.0000
# 6 0.0000 0.0000 0.0000 0.0000 0.0000 21.1113
#
#
#
# Elastic Compliance Matrix: (Units=1/GPa)
#
#
# Indices 1 2 3 4 5 6 
#
# 1 0.138182 -0.007878 -0.008398 0.000000 0.000000 0.000000
# 2 -0.007878 0.006601 -0.003174 0.000000 0.000000 0.000000
# 3 -0.008398 -0.003174 0.008757 0.000000 0.000000 0.000000
# 4 0.000000 0.000000 0.000000 0.024644 0.000000 0.000000
# 5 0.000000 0.000000 0.000000 0.000000 0.048894 0.000000
# 6 0.000000 0.000000 0.000000 0.000000 0.000000 0.047368
#
#
# Mechanical properties :
#
#
# Convention : Reuss Voigt Hill
#
# Bulk Modulus (GPa) = 8.72299 73.10547 40.91423
# Shear Modulus (GPa) = 14.22232 33.93290 24.07761
#
# Velocity S-wave (km/s) = 2.70826 4.18326 3.52380
# Velocity P-wave (km/s) = 3.77864 7.81246 6.13647
#
# Compressibility (1/GPa) = 0.11463965
#
# Stress axis : x y z
#
# Youngs Moduli (GPa) = 7.23681 151.50308 114.18879
#
# Poissons Ratio (x) = 1.19352 0.95899
# Poissons Ratio (y) = 0.05701 0.36246
# Poissons Ratio (z) = 0.06078 0.48090
#
# Static dielectric constant tensor:
#      x y z
#    x 2.927370 0.000000 0.000000 
#    y 0.000000 3.697550 0.000000 
#    z 0.000000 0.000000 4.221250 
# 
# 
# High freq. dielectric constant tensor:
#      x y z
#    x 1.683800 0.000000 0.000000 
#    y 0.000000 1.783030 0.000000 
#    z 0.000000 0.000000 1.767520 
# 
# From -- ./inp_files/27534.got.cif
#   From: 2010.03.12/outbox.cif.g09.slc.cpg/sg63_14_cif.got.tgz:27534.got - 2010.04.10 19:34:48.
