data_PCOD8258984
_publ_section_title
;
Structure prediction by ZEFSAII (Michael W. Deem and Ramdas Pophale) SiO2 
 PCOD8258984
Probable space group: C M C M
;
_chemical_formula_sum "Si O2"
_cell_formula_units_Z 96
_cell_length_a 12.930579
_cell_length_b 21.251938
_cell_length_c 17.081791
_cell_angle_alpha 90.000000
_cell_angle_beta 90.000000
_cell_angle_gamma 90.000000
_cell_volume 4694.073830
_symmetry_space_group_name_H-M "C M C M"
_symmetry_group_IT_number 63
_symmetry_cell_setting 'orthorhombic'
loop_
_space_group_symop_operation_xyz
x,y,z
-x,-y,1/2+z
x,-y,-z
-x,y,1/2-z
-x,-y,-z
x,y,1/2-z
-x,y,z
x,-y,1/2+z
1/2+x,1/2+y,z
1/2-x,1/2-y,1/2+z
1/2+x,1/2-y,-z
1/2-x,1/2+y,1/2-z
1/2-x,1/2-y,-z
1/2+x,1/2+y,1/2-z
1/2-x,1/2+y,z
1/2+x,1/2-y,1/2+z
loop_
_atom_site_type_symbol
_atom_site_label
_atom_site_fract_x
_atom_site_fract_y
_atom_site_fract_z
Si Si1 0.837884 0.211838 0.544353
Si Si2 0.680665 0.486878 0.589607
Si Si3 0.667045 0.812003 0.661798
Si Si4 0.618924 0.387068 0.338906
Si Si5 0.888034 0.154416 0.388384
Si Si6 0.615440 0.047016 0.159507
O O1 0.750000 0.250000 0.500000
O O2 0.889115 0.263420 0.602497
O O3 0.807237 0.153904 0.602807
O O4 0.906048 0.180580 0.476592
O O5 0.657122 0.500000 0.500000
O O6 0.626214 0.539205 0.642252
O O7 0.634830 0.419724 0.612879
O O8 0.804039 0.490190 0.605520
O O9 0.637652 0.792697 0.750000
O O10 0.793050 0.810510 0.654242
O O11 0.621505 0.879332 0.639797
O O12 0.655651 0.375621 0.250000
O O13 0.500000 0.365647 0.350569
O O14 0.000000 0.165457 0.346395
O O15 0.644561 0.035834 0.250000
O O16 0.500000 0.022501 0.140982
#
# Coordination Sequence:
#
# PCOD8258984 Si02
#       6
#    16  16  16  16  16  16
#     4  10  20  35  55  78 109 148 190 233 279 332
#     4  11  21  35  57  82 117 151 188 233 285 339
#     4   9  19  35  55  80 108 142 185 233 283 333
#     4  11  23  37  58  89 120 152 190 234 287 343
#     4  10  20  34  55  83 115 150 186 228 280 340
#     4   9  19  36  56  78 106 142 185 234 286 339
#
# _framework density 20.451319000000002
#
# number of rings (size 3 to 8) (size 9 to 14) (size 15 to 20)
#    0.000    2.000    1.667    2.000    0.000    3.333 
#    0.000    1.667    0.000    1.000    0.000    0.000 
#    0.000    0.000    0.000    0.000    0.000    0.000 
#
# Total GULP energy -594680.682371 kJ/mol
# GULP energy per Si atom -12389.180883 kJ/mol
# Density = 2.040477 g / cm^3
# Si number density = 20.451319 Si / 1000 Ang^3
#
#
#
# Elastic Constant Matrix: (Units=GPa)
#
#
# Indices 1 2 3 4 5 6 
#
# 1 83.0294 12.6805 8.6765 0.0000 0.0000 0.0000
# 2 12.6805 83.0958 32.8621 0.0000 0.0000 0.0000
# 3 8.6765 32.8621 83.4766 0.0000 0.0000 0.0000
# 4 0.0000 0.0000 0.0000 19.6576 0.0000 0.0000
# 5 0.0000 0.0000 0.0000 0.0000 14.2280 0.0000
# 6 0.0000 0.0000 0.0000 0.0000 0.0000 2.4983
#
#
#
# Elastic Compliance Matrix: (Units=1/GPa)
#
#
# Indices 1 2 3 4 5 6 
#
# 1 0.012360 -0.001632 -0.000642 0.000000 0.000000 0.000000
# 2 -0.001632 0.014469 -0.005526 0.000000 0.000000 0.000000
# 3 -0.000642 -0.005526 0.014222 0.000000 0.000000 0.000000
# 4 0.000000 0.000000 0.000000 0.050871 0.000000 0.000000
# 5 0.000000 0.000000 0.000000 0.000000 0.070284 0.000000
# 6 0.000000 0.000000 0.000000 0.000000 0.000000 0.400272
#
#
# Mechanical properties :
#
#
# Convention : Reuss Voigt Hill
#
# Bulk Modulus (GPa) = 39.29351 39.78222 39.53786
# Shear Modulus (GPa) = 8.52425 20.30230 14.41328
#
# Velocity S-wave (km/s) = 2.04380 3.15415 2.65761
# Velocity P-wave (km/s) = 4.98241 5.72357 5.36580
#
# Compressibility (1/GPa) = 0.02544950
#
# Stress axis : x y z
#
# Youngs Moduli (GPa) = 80.90409 69.11389 70.31525
#
# Poissons Ratio (x) = 0.11281 0.04515
# Poissons Ratio (y) = 0.13205 0.38858
# Poissons Ratio (z) = 0.05195 0.38194
#
# Static dielectric constant tensor:
#      x y z
#    x 3.631630 0.000000 0.000000 
#    y 0.000000 3.779250 0.000000 
#    z 0.000000 0.000000 3.930460 
# 
# 
# High freq. dielectric constant tensor:
#      x y z
#    x 1.781290 0.000000 0.000000 
#    y 0.000000 1.795150 0.000000 
#    z 0.000000 0.000000 1.804370 
# 
# From -- ./inp_files/52859.got.cif
#   From: 2010.03.12/outbox.cif.g09.slc.cpg/sg63_27_cif.got.tgz:52859.got - 2010.04.10 19:34:48.
