data_PCOD8258149
_publ_section_title
;
Structure prediction by ZEFSAII (Michael W. Deem and Ramdas Pophale) SiO2 
 PCOD8258149
Probable space group: C M C M
;
_chemical_formula_sum "Si O2"
_cell_formula_units_Z 56
_cell_length_a 7.531380
_cell_length_b 17.629735
_cell_length_c 24.699246
_cell_angle_alpha 90.000000
_cell_angle_beta 90.000000
_cell_angle_gamma 90.000000
_cell_volume 3279.472856
_symmetry_space_group_name_H-M "C M C M"
_symmetry_group_IT_number 63
_symmetry_cell_setting 'orthorhombic'
loop_
_space_group_symop_operation_xyz
x,y,z
-x,-y,1/2+z
x,-y,-z
-x,y,1/2-z
-x,-y,-z
x,y,1/2-z
-x,y,z
x,-y,1/2+z
1/2+x,1/2+y,z
1/2-x,1/2-y,1/2+z
1/2+x,1/2-y,-z
1/2-x,1/2+y,1/2-z
1/2-x,1/2-y,-z
1/2+x,1/2+y,1/2-z
1/2-x,1/2+y,z
1/2+x,1/2-y,1/2+z
loop_
_atom_site_type_symbol
_atom_site_label
_atom_site_fract_x
_atom_site_fract_y
_atom_site_fract_z
Si Si1 0.196021 0.763708 0.112782
Si Si2 0.702151 0.895887 0.187454
Si Si3 0.000000 0.865456 0.460684
Si Si4 0.500000 0.515937 0.872736
Si Si5 0.500000 0.648338 0.086420
O O1 0.272031 0.812438 0.162364
O O2 0.174705 0.818853 0.060035
O O3 0.323908 0.694907 0.099297
O O4 0.000000 0.731901 0.128759
O O5 0.754216 0.889890 0.250000
O O6 0.500000 0.922576 0.179460
O O7 0.825519 0.958127 0.159310
O O8 0.000000 0.876291 0.524256
O O9 0.000000 0.948072 0.432806
O O10 0.500000 0.425564 0.876270
#
# Coordination Sequence:
#
# PCOD8258149 Si02
#       5
#    16  16   8   8   8
#     4   9  20  33  56  85 103 139 187 222 263 318
#     4  10  19  37  60  76 100 144 185 221 267 329
#     4   8  19  37  53  77 112 151 180 209 263 327
#     4  10  22  34  54  84 112 142 178 218 269 329
#     4  12  19  35  55  81 120 137 174 233 268 304
#
# _framework density 17.075914999999998
#
# number of rings (size 3 to 8) (size 9 to 14) (size 15 to 20)
#    0.857    1.429    2.857    1.714    0.000    1.143 
#    0.000    2.857    0.000    5.143    0.000    0.000 
#    0.000    0.000    0.000    0.000    0.000    0.000 
#
# Total GULP energy -347050.943161 kJ/mol
# GULP energy per Si atom -12394.676541 kJ/mol
# Density = 1.703705 g / cm^3
# Si number density = 17.075915 Si / 1000 Ang^3
#
#
#
# Elastic Constant Matrix: (Units=GPa)
#
#
# Indices 1 2 3 4 5 6 
#
# 1 109.0929 39.7754 44.6726 0.0000 0.0000 0.0000
# 2 39.7754 85.5964 40.6561 0.0000 0.0000 0.0000
# 3 44.6726 40.6561 112.3417 0.0000 0.0000 0.0000
# 4 0.0000 0.0000 0.0000 13.4859 0.0000 0.0000
# 5 0.0000 0.0000 0.0000 0.0000 21.5123 0.0000
# 6 0.0000 0.0000 0.0000 0.0000 0.0000 -7.4804
#
#
#
# Elastic Compliance Matrix: (Units=1/GPa)
#
#
# Indices 1 2 3 4 5 6 
#
# 1 0.011981 -0.003990 -0.003320 0.000000 0.000000 0.000000
# 2 -0.003990 0.015437 -0.004000 0.000000 0.000000 0.000000
# 3 -0.003320 -0.004000 0.011669 0.000000 0.000000 0.000000
# 4 0.000000 0.000000 0.000000 0.074151 0.000000 0.000000
# 5 0.000000 0.000000 0.000000 0.000000 0.046485 0.000000
# 6 0.000000 0.000000 0.000000 0.000000 0.000000 -0.133683
#
#
# Mechanical properties :
#
#
# Convention : Reuss Voigt Hill
#
# Bulk Modulus (GPa) = 60.72978 61.91546 61.32262
# Shear Modulus (GPa) = 92.33583 17.63201 54.98392
#
# Velocity S-wave (km/s) = 7.36146 3.21684 5.68063
# Velocity P-wave (km/s) = 10.38733 7.08061 8.88909
#
# Compressibility (1/GPa) = 0.01646639
#
# Stress axis : x y z
#
# Youngs Moduli (GPa) = 83.46570 64.78026 85.69605
#
# Poissons Ratio (x) = 0.25850 0.28452
# Poissons Ratio (y) = 0.33306 0.34276
# Poissons Ratio (z) = 0.27712 0.25910
#
# Static dielectric constant tensor:
#      x y z
#    x 3.230440 0.000000 0.000000 
#    y 0.000000 2.904380 0.000000 
#    z 0.000000 0.000000 3.108570 
# 
# 
# High freq. dielectric constant tensor:
#      x y z
#    x 1.666490 0.000000 0.000000 
#    y 0.000000 1.639010 0.000000 
#    z 0.000000 0.000000 1.657500 
# 
# From -- ./inp_files/50168.got.cif
#   From: 2010.03.12/outbox.cif.g09.slc.cpg/sg63_26_cif.got.tgz:50168.got - 2010.04.10 19:34:48.
