data_PCOD8258806
_publ_section_title
;
Structure prediction by ZEFSAII (Michael W. Deem and Ramdas Pophale) SiO2 
 PCOD8258806
Probable space group: C M C M
;
_chemical_formula_sum "Si O2"
_cell_formula_units_Z 80
_cell_length_a 9.401017
_cell_length_b 25.371062
_cell_length_c 18.446995
_cell_angle_alpha 90.000000
_cell_angle_beta 90.000000
_cell_angle_gamma 90.000000
_cell_volume 4399.862602
_symmetry_space_group_name_H-M "C M C M"
_symmetry_group_IT_number 63
_symmetry_cell_setting 'orthorhombic'
loop_
_space_group_symop_operation_xyz
x,y,z
-x,-y,1/2+z
x,-y,-z
-x,y,1/2-z
-x,-y,-z
x,y,1/2-z
-x,y,z
x,-y,1/2+z
1/2+x,1/2+y,z
1/2-x,1/2-y,1/2+z
1/2+x,1/2-y,-z
1/2-x,1/2+y,1/2-z
1/2-x,1/2-y,-z
1/2+x,1/2+y,1/2-z
1/2-x,1/2+y,z
1/2+x,1/2-y,1/2+z
loop_
_atom_site_type_symbol
_atom_site_label
_atom_site_fract_x
_atom_site_fract_y
_atom_site_fract_z
Si Si1 0.831020 0.595410 0.330747
Si Si2 0.165062 0.904845 0.332802
Si Si3 0.166353 0.311795 0.930937
Si Si4 0.667754 0.993073 0.083452
Si Si5 0.162929 0.807226 0.072631
O O1 0.765941 0.593932 0.250000
O O2 0.776033 0.648315 0.369922
O O3 0.777153 0.544420 0.374053
O O4 0.000000 0.595468 0.327369
O O5 0.217930 0.909275 0.250000
O O6 0.255161 0.942587 0.383959
O O7 0.190517 0.844789 0.358750
O O8 0.000000 0.920309 0.339324
O O9 0.202393 0.252570 0.904689
O O10 0.000000 0.320356 0.944207
O O11 0.241673 0.326169 0.005999
O O12 0.500000 0.984601 0.092327
O O13 0.710847 0.000000 0.000000
O O14 0.000000 0.810027 0.046775
#
# Coordination Sequence:
#
# PCOD8258806 Si02
#       5
#    16  16  16  16  16
#     4   9  17  29  47  72  98 122 154 198 242 282
#     4  10  21  35  50  72 103 135 166 201 244 296
#     4   9  17  31  52  74  95 124 162 200 239 286
#     4  10  20  34  53  75  98 127 165 207 248 291
#     4   9  18  32  50  72  98 127 159 198 241 284
#
# _framework density 18.182386000000001
#
# number of rings (size 3 to 8) (size 9 to 14) (size 15 to 20)
#    0.000    2.600    0.000    1.800    0.000    4.800 
#    0.000    5.000    0.000    1.800    0.000    5.600 
#    0.000    0.000    0.000    0.000    0.000    0.000 
#
# Total GULP energy -496028.597680 kJ/mol
# GULP energy per Si atom -12400.714942 kJ/mol
# Density = 1.814100 g / cm^3
# Si number density = 18.182386 Si / 1000 Ang^3
#
#
#
# Elastic Constant Matrix: (Units=GPa)
#
#
# Indices 1 2 3 4 5 6 
#
# 1 32.5489 29.4204 35.2910 0.0000 0.0000 0.0000
# 2 29.4204 114.3799 69.2587 0.0000 0.0000 0.0000
# 3 35.2910 69.2587 140.1376 0.0000 0.0000 0.0000
# 4 0.0000 0.0000 0.0000 32.3636 0.0000 0.0000
# 5 0.0000 0.0000 0.0000 0.0000 20.9454 0.0000
# 6 0.0000 0.0000 0.0000 0.0000 0.0000 24.7698
#
#
#
# Elastic Compliance Matrix: (Units=1/GPa)
#
#
# Indices 1 2 3 4 5 6 
#
# 1 0.045722 -0.006833 -0.008137 0.000000 0.000000 0.000000
# 2 -0.006833 0.013498 -0.004950 0.000000 0.000000 0.000000
# 3 -0.008137 -0.004950 0.011631 0.000000 0.000000 0.000000
# 4 0.000000 0.000000 0.000000 0.030899 0.000000 0.000000
# 5 0.000000 0.000000 0.000000 0.000000 0.047743 0.000000
# 6 0.000000 0.000000 0.000000 0.000000 0.000000 0.040372
#
#
# Mechanical properties :
#
#
# Convention : Reuss Voigt Hill
#
# Bulk Modulus (GPa) = 32.24724 61.66742 46.95733
# Shear Modulus (GPa) = 20.82962 25.82219 23.32590
#
# Velocity S-wave (km/s) = 3.38833 3.77261 3.58562
# Velocity P-wave (km/s) = 5.75167 7.27780 6.55927
#
# Compressibility (1/GPa) = 0.03101041
#
# Stress axis : x y z
#
# Youngs Moduli (GPa) = 21.87121 74.08650 85.97424
#
# Poissons Ratio (x) = 0.50626 0.69958
# Poissons Ratio (y) = 0.14945 0.42557
# Poissons Ratio (z) = 0.17797 0.36673
#
# Static dielectric constant tensor:
#      x y z
#    x 3.100700 0.000000 0.000000 
#    y 0.000000 3.523460 0.000000 
#    z 0.000000 0.000000 3.517080 
# 
# 
# High freq. dielectric constant tensor:
#      x y z
#    x 1.675140 0.000000 0.000000 
#    y 0.000000 1.719230 0.000000 
#    z 0.000000 0.000000 1.706460 
# 
# From -- ./inp_files/30038.got.cif
#   From: 2010.03.12/outbox.cif.g09.slc.cpg/sg63_16_cif.got.tgz:30038.got - 2010.04.10 19:34:48.
