data_PCOD8258516
_publ_section_title
;
Structure prediction by ZEFSAII (Michael W. Deem and Ramdas Pophale) SiO2 
 PCOD8258516
Probable space group: C M C M
;
_chemical_formula_sum "Si O2"
_cell_formula_units_Z 96
_cell_length_a 19.494651
_cell_length_b 30.459269
_cell_length_c 8.990091
_cell_angle_alpha 90.000000
_cell_angle_beta 90.000000
_cell_angle_gamma 90.000000
_cell_volume 5338.251477
_symmetry_space_group_name_H-M "C M C M"
_symmetry_group_IT_number 63
_symmetry_cell_setting 'orthorhombic'
loop_
_space_group_symop_operation_xyz
x,y,z
-x,-y,1/2+z
x,-y,-z
-x,y,1/2-z
-x,-y,-z
x,y,1/2-z
-x,y,z
x,-y,1/2+z
1/2+x,1/2+y,z
1/2-x,1/2-y,1/2+z
1/2+x,1/2-y,-z
1/2-x,1/2+y,1/2-z
1/2-x,1/2-y,-z
1/2+x,1/2+y,1/2-z
1/2-x,1/2+y,z
1/2+x,1/2-y,1/2+z
loop_
_atom_site_type_symbol
_atom_site_label
_atom_site_fract_x
_atom_site_fract_y
_atom_site_fract_z
Si Si1 0.677956 0.368250 0.574329
Si Si2 0.579246 0.201948 0.080176
Si Si3 0.821585 0.363285 0.426655
Si Si4 0.420298 0.303357 0.080637
Si Si5 0.833078 0.541072 0.912724
Si Si6 0.170546 0.042254 0.916384
O O1 0.685886 0.373242 0.750000
O O2 0.749961 0.352748 0.505719
O O3 0.622353 0.331427 0.536499
O O4 0.651567 0.414156 0.507231
O O5 0.596558 0.189095 0.250000
O O6 0.500000 0.192625 0.045636
O O7 0.596921 0.252567 0.051798
O O8 0.623753 0.173488 0.967277
O O9 0.808759 0.364558 0.250000
O O10 0.849974 0.410986 0.482107
O O11 0.400617 0.316013 0.250000
O O12 0.500000 0.312508 0.052287
O O13 0.865815 0.538090 0.750000
O O14 0.751643 0.536507 0.906178
O O15 0.865833 0.500000 0.000000
O O16 0.139412 0.045431 0.750000
O O17 0.138465 0.000000 0.000000
#
# Coordination Sequence:
#
# PCOD8258516 Si02
#       6
#    16  16  16  16  16  16
#     4  11  21  32  50  77 106 135 169 210 253 296
#     4   9  19  36  56  76  98 128 167 208 254 309
#     4  10  20  33  50  75 105 134 167 208 253 300
#     4   9  19  37  57  74  97 131 168 207 253 306
#     4   8  15  26  42  66  95 127 161 198 239 285
#     4   9  16  28  46  70 101 134 168 205 247 296
#
# _framework density 17.983416999999999
#
# number of rings (size 3 to 8) (size 9 to 14) (size 15 to 20)
#    0.000    2.667    0.000    4.500    0.000    6.667 
#    0.000    1.667    0.000    1.000    0.000    0.000 
#    0.000    0.000    0.000    0.000    0.000    0.000 
#
# Total GULP energy -595076.118750 kJ/mol
# GULP energy per Si atom -12397.419141 kJ/mol
# Density = 1.794249 g / cm^3
# Si number density = 17.983417 Si / 1000 Ang^3
#
#
#
# Elastic Constant Matrix: (Units=GPa)
#
#
# Indices 1 2 3 4 5 6 
#
# 1 48.9373 52.0823 37.7976 0.0000 0.0000 0.0000
# 2 52.0823 119.3508 60.8997 0.0000 0.0000 0.0000
# 3 37.7976 60.8997 117.6323 0.0000 0.0000 0.0000
# 4 0.0000 0.0000 0.0000 35.3525 0.0000 0.0000
# 5 0.0000 0.0000 0.0000 0.0000 24.4200 0.0000
# 6 0.0000 0.0000 0.0000 0.0000 0.0000 -5.4826
#
#
#
# Elastic Compliance Matrix: (Units=1/GPa)
#
#
# Indices 1 2 3 4 5 6 
#
# 1 0.040396 -0.014956 -0.005237 0.000000 0.000000 0.000000
# 2 -0.014956 0.016924 -0.003956 0.000000 0.000000 0.000000
# 3 -0.005237 -0.003956 0.012232 0.000000 0.000000 0.000000
# 4 0.000000 0.000000 0.000000 0.028287 0.000000 0.000000
# 5 0.000000 0.000000 0.000000 0.000000 0.040950 0.000000
# 6 0.000000 0.000000 0.000000 0.000000 0.000000 -0.182394
#
#
# Mechanical properties :
#
#
# Convention : Reuss Voigt Hill
#
# Bulk Modulus (GPa) = 47.05051 65.27553 56.16302
# Shear Modulus (GPa) = 424.54751 19.86735 222.20743
#
# Velocity S-wave (km/s) = 15.38147 3.32740 11.12792
# Velocity P-wave (km/s) = 18.48440 7.15112 14.01449
#
# Compressibility (1/GPa) = 0.02125375
#
# Stress axis : x y z
#
# Youngs Moduli (GPa) = 24.75469 59.08894 81.75269
#
# Poissons Ratio (x) = 0.88372 0.42817
# Poissons Ratio (y) = 0.37023 0.32341
# Poissons Ratio (z) = 0.12965 0.23376
#
# Static dielectric constant tensor:
#      x y z
#    x 2.864100 0.000000 0.000000 
#    y 0.000000 3.507100 0.000000 
#    z 0.000000 0.000000 3.400440 
# 
# 
# High freq. dielectric constant tensor:
#      x y z
#    x 1.649560 0.000000 0.000000 
#    y 0.000000 1.709950 0.000000 
#    z 0.000000 0.000000 1.700530 
# 
# From -- ./inp_files/8614.got.cif
#   From: 2010.03.12/outbox.cif.g09.slc.cpg/sg63_5_cif.got.tgz:8614.got - 2010.04.10 19:34:48.
