data_PCOD8258949
_publ_section_title
;
Structure prediction by ZEFSAII (Michael W. Deem and Ramdas Pophale) SiO2 
 PCOD8258949
Probable space group: C M C M
;
_chemical_formula_sum "Si O2"
_cell_formula_units_Z 80
_cell_length_a 21.484795
_cell_length_b 14.250832
_cell_length_c 12.792049
_cell_angle_alpha 90.000000
_cell_angle_beta 90.000000
_cell_angle_gamma 90.000000
_cell_volume 3916.621005
_symmetry_space_group_name_H-M "C M C M"
_symmetry_group_IT_number 63
_symmetry_cell_setting 'orthorhombic'
loop_
_space_group_symop_operation_xyz
x,y,z
-x,-y,1/2+z
x,-y,-z
-x,y,1/2-z
-x,-y,-z
x,y,1/2-z
-x,y,z
x,-y,1/2+z
1/2+x,1/2+y,z
1/2-x,1/2-y,1/2+z
1/2+x,1/2-y,-z
1/2-x,1/2+y,1/2-z
1/2-x,1/2-y,-z
1/2+x,1/2+y,1/2-z
1/2-x,1/2+y,z
1/2+x,1/2-y,1/2+z
loop_
_atom_site_type_symbol
_atom_site_label
_atom_site_fract_x
_atom_site_fract_y
_atom_site_fract_z
Si Si1 0.784675 0.338207 0.368797
Si Si2 0.264831 0.043831 0.129486
Si Si3 0.125447 0.939047 0.867594
Si Si4 0.331589 0.773841 0.573516
Si Si5 0.571689 0.630989 0.929551
O O1 0.811011 0.333720 0.250000
O O2 0.784721 0.443441 0.421079
O O3 0.715338 0.298381 0.371931
O O4 0.826211 0.274933 0.446421
O O5 0.256367 0.016717 0.250000
O O6 0.196505 0.076948 0.090760
O O7 0.318280 0.122292 0.117518
O O8 0.117153 0.899902 0.750000
O O9 0.108140 0.049277 0.868547
O O10 0.079381 0.884514 0.945625
O O11 0.399687 0.733115 0.601116
O O12 0.500000 0.631075 0.897084
#
# Coordination Sequence:
#
# PCOD8258949 Si02
#       5
#    16  16  16  16  16
#     4  10  20  34  54  84 113 139 179 234 289 337
#     4  10  20  34  58  87 114 140 176 233 295 340
#     4  10  20  37  57  80 110 144 184 231 287 336
#     4  11  21  34  56  80 113 148 184 225 281 329
#     4  11  24  37  52  79 114 153 193 224 262 332
#
# _framework density 20.425768999999999
#
# number of rings (size 3 to 8) (size 9 to 14) (size 15 to 20)
#    0.000    1.600    2.000    4.800    2.800    4.800 
#    0.000    0.000    0.000    2.400    0.000    2.800 
#    0.000    0.000    0.000    0.000    0.000    0.000 
#
# Total GULP energy -495816.032674 kJ/mol
# GULP energy per Si atom -12395.400817 kJ/mol
# Density = 2.037928 g / cm^3
# Si number density = 20.425769 Si / 1000 Ang^3
#
#
#
# Elastic Constant Matrix: (Units=GPa)
#
#
# Indices 1 2 3 4 5 6 
#
# 1 72.6499 28.4744 -4.4346 0.0000 0.0000 0.0000
# 2 28.4744 113.4331 -0.9552 0.0000 0.0000 0.0000
# 3 -4.4346 -0.9552 50.3080 0.0000 0.0000 0.0000
# 4 0.0000 0.0000 0.0000 18.7557 0.0000 0.0000
# 5 0.0000 0.0000 0.0000 0.0000 11.2121 0.0000
# 6 0.0000 0.0000 0.0000 0.0000 0.0000 28.1345
#
#
#
# Elastic Compliance Matrix: (Units=1/GPa)
#
#
# Indices 1 2 3 4 5 6 
#
# 1 0.015349 -0.003842 0.001280 0.000000 0.000000 0.000000
# 2 -0.003842 0.009779 -0.000153 0.000000 0.000000 0.000000
# 3 0.001280 -0.000153 0.019987 0.000000 0.000000 0.000000
# 4 0.000000 0.000000 0.000000 0.053317 0.000000 0.000000
# 5 0.000000 0.000000 0.000000 0.000000 0.089190 0.000000
# 6 0.000000 0.000000 0.000000 0.000000 0.000000 0.035544
#
#
# Mechanical properties :
#
#
# Convention : Reuss Voigt Hill
#
# Bulk Modulus (GPa) = 25.19851 31.39558 28.29705
# Shear Modulus (GPa) = 20.67621 25.84087 23.25854
#
# Velocity S-wave (km/s) = 3.18506 3.56070 3.37810
# Velocity P-wave (km/s) = 5.08817 5.68408 5.39436
#
# Compressibility (1/GPa) = 0.03968489
#
# Stress axis : x y z
#
# Youngs Moduli (GPa) = 65.15230 102.26058 50.03132
#
# Poissons Ratio (x) = 0.39290 -0.06404
# Poissons Ratio (y) = 0.25032 0.00765
# Poissons Ratio (z) = -0.08340 0.01565
#
# Static dielectric constant tensor:
#      x y z
#    x 3.230600 0.000000 0.000000 
#    y 0.000000 3.732550 0.000000 
#    z 0.000000 0.000000 3.883030 
# 
# 
# High freq. dielectric constant tensor:
#      x y z
#    x 1.731060 0.000000 0.000000 
#    y 0.000000 1.800360 0.000000 
#    z 0.000000 0.000000 1.822830 
# 
# From -- ./inp_files/35109.got.cif
#   From: 2010.03.12/outbox.cif.g09.slc.cpg/sg63_18_cif.got.tgz:35109.got - 2010.04.10 19:34:48.
