data_PCOD8258646
_publ_section_title
;
Structure prediction by ZEFSAII (Michael W. Deem and Ramdas Pophale) SiO2 
 PCOD8258646
Probable space group: C M C M
;
_chemical_formula_sum "Si O2"
_cell_formula_units_Z 96
_cell_length_a 23.279020
_cell_length_b 25.238798
_cell_length_c 9.063330
_cell_angle_alpha 90.000000
_cell_angle_beta 90.000000
_cell_angle_gamma 90.000000
_cell_volume 5325.018910
_symmetry_space_group_name_H-M "C M C M"
_symmetry_group_IT_number 63
_symmetry_cell_setting 'orthorhombic'
loop_
_space_group_symop_operation_xyz
x,y,z
-x,-y,1/2+z
x,-y,-z
-x,y,1/2-z
-x,-y,-z
x,y,1/2-z
-x,y,z
x,-y,1/2+z
1/2+x,1/2+y,z
1/2-x,1/2-y,1/2+z
1/2+x,1/2-y,-z
1/2-x,1/2+y,1/2-z
1/2-x,1/2-y,-z
1/2+x,1/2+y,1/2-z
1/2-x,1/2+y,z
1/2+x,1/2-y,1/2+z
loop_
_atom_site_type_symbol
_atom_site_label
_atom_site_fract_x
_atom_site_fract_y
_atom_site_fract_z
Si Si1 0.691706 0.946380 0.422548
Si Si2 0.614005 0.847512 0.424894
Si Si3 0.809505 0.250369 0.080991
Si Si4 0.500000 0.296984 0.577280
Si Si5 0.117308 0.852655 0.581080
Si Si6 0.677442 0.445969 0.423398
Si Si7 0.500000 0.816476 0.573924
O O1 0.688137 0.956500 0.250000
O O2 0.650168 0.899036 0.471528
O O3 0.757003 0.931883 0.469051
O O4 0.670637 0.000000 0.500000
O O5 0.601851 0.845340 0.250000
O O6 0.648912 0.796114 0.479945
O O7 0.554690 0.848519 0.513323
O O8 0.796595 0.262744 0.250000
O O9 0.838075 0.194113 0.055350
O O10 0.750000 0.250000 0.000000
O O11 0.500000 0.280846 0.750000
O O12 0.554644 0.332266 0.535612
O O13 0.500000 0.243491 0.484086
O O14 0.118133 0.872055 0.750000
O O15 0.134490 0.900521 0.476004
O O16 0.657792 0.500000 0.500000
O O17 0.671089 0.452915 0.250000
O O18 0.500000 0.816431 0.750000
#
# Coordination Sequence:
#
# PCOD8258646 Si02
#       7
#    16  16  16   8  16  16   8
#     4   9  19  35  58  83 110 146 184 224 275 330
#     4  10  20  38  58  77 108 152 188 218 275 343
#     4  10  20  33  53  80 111 143 180 225 276 333
#     4  10  20  40  61  76 107 152 191 225 273 339
#     4  10  20  35  57  81 106 144 187 227 273 328
#     4  10  20  36  58  84 115 146 181 227 275 330
#     4  12  24  36  55  84 111 142 187 239 279 317
#
# _framework density 18.028105
#
# number of rings (size 3 to 8) (size 9 to 14) (size 15 to 20)
#    0.000    2.000    1.667    2.250    0.000    4.667 
#    0.000    0.833    0.000    0.000    0.000    0.000 
#    0.000    0.000    0.000    0.000    0.000    0.000 
#
# Total GULP energy -595360.665856 kJ/mol
# GULP energy per Si atom -12403.347205 kJ/mol
# Density = 1.798707 g / cm^3
# Si number density = 18.028105 Si / 1000 Ang^3
#
#
#
# Elastic Constant Matrix: (Units=GPa)
#
#
# Indices 1 2 3 4 5 6 
#
# 1 92.9697 18.4178 37.9160 0.0000 0.0000 0.0000
# 2 18.4178 76.4080 38.3008 0.0000 0.0000 0.0000
# 3 37.9160 38.3008 63.5627 0.0000 0.0000 0.0000
# 4 0.0000 0.0000 0.0000 33.7984 0.0000 0.0000
# 5 0.0000 0.0000 0.0000 0.0000 28.8077 0.0000
# 6 0.0000 0.0000 0.0000 0.0000 0.0000 60.6050
#
#
#
# Elastic Compliance Matrix: (Units=1/GPa)
#
#
# Indices 1 2 3 4 5 6 
#
# 1 0.014289 0.001187 -0.009239 0.000000 0.000000 0.000000
# 2 0.001187 0.018850 -0.012066 0.000000 0.000000 0.000000
# 3 -0.009239 -0.012066 0.028514 0.000000 0.000000 0.000000
# 4 0.000000 0.000000 0.000000 0.029587 0.000000 0.000000
# 5 0.000000 0.000000 0.000000 0.000000 0.034713 0.000000
# 6 0.000000 0.000000 0.000000 0.000000 0.000000 0.016500
#
#
# Mechanical properties :
#
#
# Convention : Reuss Voigt Hill
#
# Bulk Modulus (GPa) = 46.69237 46.91216 46.80227
# Shear Modulus (GPa) = 26.33951 33.86260 30.10105
#
# Velocity S-wave (km/s) = 3.82648 4.33866 4.09060
# Velocity P-wave (km/s) = 6.74378 7.15380 6.95181
#
# Compressibility (1/GPa) = 0.02141678
#
# Stress axis : x y z
#
# Youngs Moduli (GPa) = 69.98445 53.05030 35.07020
#
# Poissons Ratio (x) = -0.06296 0.32400
# Poissons Ratio (y) = -0.08305 0.42317
# Poissons Ratio (z) = 0.64656 0.64012
#
# Static dielectric constant tensor:
#      x y z
#    x 3.375890 0.000000 0.000000 
#    y 0.000000 3.341390 0.000000 
#    z 0.000000 0.000000 3.243830 
# 
# 
# High freq. dielectric constant tensor:
#      x y z
#    x 1.701440 0.000000 0.000000 
#    y 0.000000 1.700340 0.000000 
#    z 0.000000 0.000000 1.691690 
# 
# From -- ./inp_files/10542.got.cif
#   From: 2010.03.12/outbox.cif.g09.slc.cpg/sg63_6_cif.got.tgz:10542.got - 2010.04.10 19:34:48.
