data_PCOD8258404
_publ_section_title
;
Structure prediction by ZEFSAII (Michael W. Deem and Ramdas Pophale) SiO2 
 PCOD8258404
Probable space group: C M C M
;
_chemical_formula_sum "Si O2"
_cell_formula_units_Z 72
_cell_length_a 16.550705
_cell_length_b 24.565910
_cell_length_c 9.667273
_cell_angle_alpha 90.000000
_cell_angle_beta 90.000000
_cell_angle_gamma 90.000000
_cell_volume 3930.550110
_symmetry_space_group_name_H-M "C M C M"
_symmetry_group_IT_number 63
_symmetry_cell_setting 'orthorhombic'
loop_
_space_group_symop_operation_xyz
x,y,z
-x,-y,1/2+z
x,-y,-z
-x,y,1/2-z
-x,-y,-z
x,y,1/2-z
-x,y,z
x,-y,1/2+z
1/2+x,1/2+y,z
1/2-x,1/2-y,1/2+z
1/2+x,1/2-y,-z
1/2-x,1/2+y,1/2-z
1/2-x,1/2-y,-z
1/2+x,1/2+y,1/2-z
1/2-x,1/2+y,z
1/2+x,1/2-y,1/2+z
loop_
_atom_site_type_symbol
_atom_site_label
_atom_site_fract_x
_atom_site_fract_y
_atom_site_fract_z
Si Si1 0.911357 0.741988 0.913627
Si Si2 0.358757 0.361601 0.588081
Si Si3 0.000000 0.054982 0.088417
Si Si4 0.908214 0.546841 0.594140
Si Si5 0.703497 0.148806 0.590863
O O1 0.912951 0.735201 0.750000
O O2 0.896381 0.804074 0.956931
O O3 0.839017 0.703578 0.969874
O O4 0.000000 0.725120 0.972325
O O5 0.337486 0.362008 0.750000
O O6 0.421029 0.409634 0.551205
O O7 0.278211 0.370084 0.500897
O O8 0.000000 0.039529 0.250000
O O9 0.000000 0.000000 0.000000
O O10 0.868315 0.500000 0.500000
O O11 0.902925 0.525353 0.750000
O O12 0.863094 0.602951 0.575919
O O13 0.000000 0.557760 0.547783
O O14 0.731580 0.156354 0.750000
#
# Coordination Sequence:
#
# PCOD8258404 Si02
#       5
#    16  16   8  16  16
#     4   9  16  31  56  80 105 139 176 213 257 315
#     4  10  20  36  56  77 104 137 175 217 264 318
#     4  10  22  40  60  80 102 140 187 226 268 318
#     4   9  18  33  51  72 101 137 174 210 251 304
#     4  10  20  32  52  82 109 134 171 217 265 313
#
# _framework density 18.318045999999999
#
# number of rings (size 3 to 8) (size 9 to 14) (size 15 to 20)
#    0.000    2.444    1.111    1.333    0.000    5.333 
#    0.000    4.444    0.000    3.333    0.000    0.000 
#    0.000    0.000    0.000    0.000    0.000    0.000 
#
# Total GULP energy -446313.721365 kJ/mol
# GULP energy per Si atom -12397.603371 kJ/mol
# Density = 1.827635 g / cm^3
# Si number density = 18.318046 Si / 1000 Ang^3
#
#
#
# Elastic Constant Matrix: (Units=GPa)
#
#
# Indices 1 2 3 4 5 6 
#
# 1 110.9761 52.5494 51.3439 0.0000 0.0000 0.0000
# 2 52.5494 125.9648 52.6755 0.0000 0.0000 0.0000
# 3 51.3439 52.6755 57.6960 0.0000 0.0000 0.0000
# 4 0.0000 0.0000 0.0000 28.5910 0.0000 0.0000
# 5 0.0000 0.0000 0.0000 0.0000 22.2401 0.0000
# 6 0.0000 0.0000 0.0000 0.0000 0.0000 10.8287
#
#
#
# Elastic Compliance Matrix: (Units=1/GPa)
#
#
# Indices 1 2 3 4 5 6 
#
# 1 0.015415 -0.001123 -0.012693 0.000000 0.000000 0.000000
# 2 -0.001123 0.012923 -0.010799 0.000000 0.000000 0.000000
# 3 -0.012693 -0.010799 0.038487 0.000000 0.000000 0.000000
# 4 0.000000 0.000000 0.000000 0.034976 0.000000 0.000000
# 5 0.000000 0.000000 0.000000 0.000000 0.044964 0.000000
# 6 0.000000 0.000000 0.000000 0.000000 0.000000 0.092348
#
#
# Mechanical properties :
#
#
# Convention : Reuss Voigt Hill
#
# Bulk Modulus (GPa) = 56.83303 67.53052 62.18178
# Shear Modulus (GPa) = 16.99479 21.53650 19.26564
#
# Velocity S-wave (km/s) = 3.04922 3.43257 3.24656
# Velocity P-wave (km/s) = 6.59470 7.25642 6.93346
#
# Compressibility (1/GPa) = 0.01759540
#
# Stress axis : x y z
#
# Youngs Moduli (GPa) = 64.87164 77.37995 25.98276
#
# Poissons Ratio (x) = 0.08690 0.32979
# Poissons Ratio (y) = 0.07285 0.28060
# Poissons Ratio (z) = 0.82339 0.83565
#
# Static dielectric constant tensor:
#      x y z
#    x 3.440240 0.000000 0.000000 
#    y 0.000000 3.473920 0.000000 
#    z 0.000000 0.000000 3.223740 
# 
# 
# High freq. dielectric constant tensor:
#      x y z
#    x 1.715590 0.000000 0.000000 
#    y 0.000000 1.718660 0.000000 
#    z 0.000000 0.000000 1.679980 
# 
# From -- ./inp_files/4620.got.cif
#   From: 2010.03.12/outbox.cif.g09.slc.cpg/sg63_3_cif.got.tgz:4620.got - 2010.04.10 19:34:48.
