data_PCOD8258172
_publ_section_title
;
Structure prediction by ZEFSAII (Michael W. Deem and Ramdas Pophale) SiO2 
 PCOD8258172
Probable space group: C M C M
;
_chemical_formula_sum "Si O2"
_cell_formula_units_Z 80
_cell_length_a 27.481116
_cell_length_b 9.226116
_cell_length_c 16.630992
_cell_angle_alpha 90.000000
_cell_angle_beta 90.000000
_cell_angle_gamma 90.000000
_cell_volume 4216.687637
_symmetry_space_group_name_H-M "C M C M"
_symmetry_group_IT_number 63
_symmetry_cell_setting 'orthorhombic'
loop_
_space_group_symop_operation_xyz
x,y,z
-x,-y,1/2+z
x,-y,-z
-x,y,1/2-z
-x,-y,-z
x,y,1/2-z
-x,y,z
x,-y,1/2+z
1/2+x,1/2+y,z
1/2-x,1/2-y,1/2+z
1/2+x,1/2-y,-z
1/2-x,1/2+y,1/2-z
1/2-x,1/2-y,-z
1/2+x,1/2+y,1/2-z
1/2-x,1/2+y,z
1/2+x,1/2-y,1/2+z
loop_
_atom_site_type_symbol
_atom_site_label
_atom_site_fract_x
_atom_site_fract_y
_atom_site_fract_z
Si Si1 0.785211 0.704504 0.429133
Si Si2 0.893403 0.658142 0.022271
Si Si3 0.057219 0.838524 0.157241
Si Si4 0.882082 0.917702 0.581117
Si Si5 0.213982 0.996631 0.656348
O O1 0.750000 0.750000 0.500000
O O2 0.835972 0.650785 0.463926
O O3 0.794353 0.838114 0.369475
O O4 0.762206 0.568507 0.383250
O O5 0.920106 0.711828 0.102963
O O6 0.913779 0.500000 0.000000
O O7 0.904062 0.762714 0.945609
O O8 0.071136 0.808837 0.250000
O O9 0.000000 0.841451 0.144029
O O10 0.077375 0.995245 0.130717
O O11 0.865961 0.000000 0.500000
O O12 0.833231 0.900457 0.633477
O O13 0.222051 0.991156 0.750000
#
# Coordination Sequence:
#
# PCOD8258172 Si02
#       5
#    16  16  16  16  16
#     4  12  22  39  58  82 121 165 205 247 298 364
#     4  11  23  39  62  91 124 164 206 248 305 369
#     4  10  22  42  68  93 121 158 203 261 316 360
#     4  10  19  38  62  86 115 158 204 249 297 361
#     4  12  23  36  56  87 120 158 206 255 301 356
#
# _framework density 18.972237
#
# number of rings (size 3 to 8) (size 9 to 14) (size 15 to 20)
#    0.000    1.000    6.000    3.000    0.000    4.800 
#    0.000    2.000    0.000    2.400    0.000    0.000 
#    0.000    0.000    0.000    0.000    0.000    0.000 
#
# Total GULP energy -496146.848171 kJ/mol
# GULP energy per Si atom -12403.671204 kJ/mol
# Density = 1.892906 g / cm^3
# Si number density = 18.972237 Si / 1000 Ang^3
#
#
#
# Elastic Constant Matrix: (Units=GPa)
#
#
# Indices 1 2 3 4 5 6 
#
# 1 94.4069 26.7889 48.5411 0.0000 0.0000 0.0000
# 2 26.7889 128.4725 39.7551 0.0000 0.0000 0.0000
# 3 48.5411 39.7551 105.3420 0.0000 0.0000 0.0000
# 4 0.0000 0.0000 0.0000 27.5472 0.0000 0.0000
# 5 0.0000 0.0000 0.0000 0.0000 27.9659 0.0000
# 6 0.0000 0.0000 0.0000 0.0000 0.0000 22.0415
#
#
#
# Elastic Compliance Matrix: (Units=1/GPa)
#
#
# Indices 1 2 3 4 5 6 
#
# 1 0.014004 -0.001045 -0.006059 0.000000 0.000000 0.000000
# 2 -0.001045 0.008891 -0.002874 0.000000 0.000000 0.000000
# 3 -0.006059 -0.002874 0.013369 0.000000 0.000000 0.000000
# 4 0.000000 0.000000 0.000000 0.036301 0.000000 0.000000
# 5 0.000000 0.000000 0.000000 0.000000 0.035758 0.000000
# 6 0.000000 0.000000 0.000000 0.000000 0.000000 0.045369
#
#
# Mechanical properties :
#
#
# Convention : Reuss Voigt Hill
#
# Bulk Modulus (GPa) = 61.31530 62.04350 61.67940
# Shear Modulus (GPa) = 27.91988 29.72002 28.81995
#
# Velocity S-wave (km/s) = 3.84033 3.96220 3.90174
# Velocity P-wave (km/s) = 7.21476 7.32839 7.27180
#
# Compressibility (1/GPa) = 0.01630914
#
# Stress axis : x y z
#
# Youngs Moduli (GPa) = 71.40715 112.47344 74.79910
#
# Poissons Ratio (x) = 0.11757 0.45317
# Poissons Ratio (y) = 0.07465 0.21495
# Poissons Ratio (z) = 0.43262 0.32321
#
# Static dielectric constant tensor:
#      x y z
#    x 3.441310 0.000000 0.000000 
#    y 0.000000 4.341540 0.000000 
#    z 0.000000 0.000000 3.568780 
# 
# 
# High freq. dielectric constant tensor:
#      x y z
#    x 1.734180 0.000000 0.000000 
#    y 0.000000 1.731140 0.000000 
#    z 0.000000 0.000000 1.741320 
# 
# From -- ./inp_files/48777.got.cif
#   From: 2010.03.12/outbox.cif.g09.slc.cpg/sg63_25_cif.got.tgz:48777.got - 2010.04.10 19:34:48.
