data_PCOD8258252
_publ_section_title
;
Structure prediction by ZEFSAII (Michael W. Deem and Ramdas Pophale) SiO2 
 PCOD8258252
Probable space group: C M C M
;
_chemical_formula_sum "Si O2"
_cell_formula_units_Z 88
_cell_length_a 27.704617
_cell_length_b 25.197752
_cell_length_c 9.306396
_cell_angle_alpha 90.000000
_cell_angle_beta 90.000000
_cell_angle_gamma 90.000000
_cell_volume 6496.739846
_symmetry_space_group_name_H-M "C M C M"
_symmetry_group_IT_number 63
_symmetry_cell_setting 'orthorhombic'
loop_
_space_group_symop_operation_xyz
x,y,z
-x,-y,1/2+z
x,-y,-z
-x,y,1/2-z
-x,-y,-z
x,y,1/2-z
-x,y,z
x,-y,1/2+z
1/2+x,1/2+y,z
1/2-x,1/2-y,1/2+z
1/2+x,1/2-y,-z
1/2-x,1/2+y,1/2-z
1/2-x,1/2-y,-z
1/2+x,1/2+y,1/2-z
1/2-x,1/2+y,z
1/2+x,1/2-y,1/2+z
loop_
_atom_site_type_symbol
_atom_site_label
_atom_site_fract_x
_atom_site_fract_y
_atom_site_fract_z
Si Si1 0.000000 0.555352 0.579314
Si Si2 0.330070 0.840019 0.909190
Si Si3 0.416756 0.133273 0.917422
Si Si4 0.445229 0.251370 0.916346
Si Si5 0.231109 0.801467 0.580360
Si Si6 0.857981 0.782750 0.413956
O O1 0.000000 0.500000 0.500000
O O2 0.047286 0.587563 0.528535
O O3 0.000000 0.547289 0.750000
O O4 0.341751 0.860398 0.750000
O O5 0.272583 0.846697 0.941503
O O6 0.342221 0.778082 0.923315
O O7 0.363720 0.874462 0.013729
O O8 0.408941 0.128796 0.750000
O O9 0.439726 0.189750 0.959989
O O10 0.431271 0.259105 0.750000
O O11 0.500000 0.269155 0.946254
O O12 0.410570 0.288346 0.012810
O O13 0.223386 0.789738 0.750000
O O14 0.250000 0.750000 0.500000
O O15 0.180623 0.818142 0.504808
O O16 0.860093 0.803210 0.250000
#
# Coordination Sequence:
#
# PCOD8258252 Si02
#       6
#     8  16  16  16  16  16
#     4  10  20  32  42  54  68  84 106 134 170 212
#     4   8  15  24  34  49  65  79  99 125 156 191
#     4   9  16  27  40  51  64  79 102 131 161 203
#     4   9  15  24  37  49  62  84 110 137 168 199
#     4   9  15  23  33  46  65  84 102 125 152 189
#     4   9  16  23  31  46  66  85 106 130 156 190
#
# _framework density 13.545254999999999
#
# number of rings (size 3 to 8) (size 9 to 14) (size 15 to 20)
#    0.000    3.091    0.909    2.182    0.000    6.182 
#    0.000    0.000    0.000    0.000    0.000    0.000 
#    0.000    0.000    0.000    0.000    0.000    0.000 
#
# Total GULP energy -545196.984861 kJ/mol
# GULP energy per Si atom -12390.840565 kJ/mol
# Density = 1.351443 g / cm^3
# Si number density = 13.545255 Si / 1000 Ang^3
#
#
#
# Elastic Constant Matrix: (Units=GPa)
#
#
# Indices 1 2 3 4 5 6 
#
# 1 125.2803 27.2787 61.2809 0.0000 0.0000 0.0000
# 2 27.2787 17.7070 16.7800 0.0000 0.0000 0.0000
# 3 61.2809 16.7800 74.2417 0.0000 0.0000 0.0000
# 4 0.0000 0.0000 0.0000 11.0079 0.0000 0.0000
# 5 0.0000 0.0000 0.0000 0.0000 28.4779 0.0000
# 6 0.0000 0.0000 0.0000 0.0000 0.0000 9.5899
#
#
#
# Elastic Compliance Matrix: (Units=1/GPa)
#
#
# Indices 1 2 3 4 5 6 
#
# 1 0.016197 -0.015631 -0.009837 0.000000 0.000000 0.000000
# 2 -0.015631 0.086953 -0.006751 0.000000 0.000000 0.000000
# 3 -0.009837 -0.006751 0.023115 0.000000 0.000000 0.000000
# 4 0.000000 0.000000 0.000000 0.090844 0.000000 0.000000
# 5 0.000000 0.000000 0.000000 0.000000 0.035115 0.000000
# 6 0.000000 0.000000 0.000000 0.000000 0.000000 0.104276
#
#
# Mechanical properties :
#
#
# Convention : Reuss Voigt Hill
#
# Bulk Modulus (GPa) = 16.17388 47.54537 31.85962
# Shear Modulus (GPa) = 11.32383 17.27443 14.29913
#
# Velocity S-wave (km/s) = 2.89450 3.57503 3.25261
# Velocity P-wave (km/s) = 4.81014 7.22623 6.13823
#
# Compressibility (1/GPa) = 0.06182809
#
# Stress axis : x y z
#
# Youngs Moduli (GPa) = 61.73869 11.50045 43.26251
#
# Poissons Ratio (x) = 0.17977 0.42556
# Poissons Ratio (y) = 0.96505 0.29205
# Poissons Ratio (z) = 0.60730 0.07763
#
# Static dielectric constant tensor:
#      x y z
#    x 3.226570 0.000000 0.000000 
#    y 0.000000 2.096630 0.000000 
#    z 0.000000 0.000000 2.798190 
# 
# 
# High freq. dielectric constant tensor:
#      x y z
#    x 1.532760 0.000000 0.000000 
#    y 0.000000 1.420370 0.000000 
#    z 0.000000 0.000000 1.527150 
# 
# From -- ./inp_files/13221.got.cif
#   From: 2010.03.12/outbox.cif.g09.slc.cpg/sg63_7_cif.got.tgz:13221.got - 2010.04.10 19:34:48.
