data_PCOD8258100
_publ_section_title
;
Structure prediction by ZEFSAII (Michael W. Deem and Ramdas Pophale) SiO2 
 PCOD8258100
Probable space group: C M C M
;
_chemical_formula_sum "Si O2"
_cell_formula_units_Z 112
_cell_length_a 14.053806
_cell_length_b 17.165206
_cell_length_c 23.158265
_cell_angle_alpha 90.000000
_cell_angle_beta 90.000000
_cell_angle_gamma 90.000000
_cell_volume 5586.618217
_symmetry_space_group_name_H-M "C M C M"
_symmetry_group_IT_number 63
_symmetry_cell_setting 'orthorhombic'
loop_
_space_group_symop_operation_xyz
x,y,z
-x,-y,1/2+z
x,-y,-z
-x,y,1/2-z
-x,-y,-z
x,y,1/2-z
-x,y,z
x,-y,1/2+z
1/2+x,1/2+y,z
1/2-x,1/2-y,1/2+z
1/2+x,1/2-y,-z
1/2-x,1/2+y,1/2-z
1/2-x,1/2-y,-z
1/2+x,1/2+y,1/2-z
1/2-x,1/2+y,z
1/2+x,1/2-y,1/2+z
loop_
_atom_site_type_symbol
_atom_site_label
_atom_site_fract_x
_atom_site_fract_y
_atom_site_fract_z
Si Si1 0.607085 0.890991 0.818156
Si Si2 0.602741 0.463697 0.137214
Si Si3 0.103863 0.178357 0.557087
Si Si4 0.304083 0.953534 0.184569
Si Si5 0.173802 0.930858 0.539513
Si Si6 0.761505 0.700988 0.391785
Si Si7 0.113062 0.290973 0.181565
O O1 0.619202 0.891704 0.750000
O O2 0.500000 0.880178 0.838411
O O3 0.663832 0.816505 0.841161
O O4 0.644919 0.972669 0.845061
O O5 0.500000 0.476178 0.168660
O O6 0.606758 0.377482 0.111946
O O7 0.690700 0.467912 0.181053
O O8 0.607449 0.527924 0.086769
O O9 0.112558 0.128214 0.498866
O O10 0.192064 0.237336 0.563920
O O11 0.000000 0.220358 0.554394
O O12 0.336783 0.950612 0.250000
O O13 0.342592 0.872600 0.158292
O O14 0.251095 0.878780 0.572370
O O15 0.221033 0.000000 0.500000
O O16 0.663716 0.727514 0.360028
O O17 0.134553 0.276203 0.250000
O O18 0.000000 0.288618 0.170358
#
# Coordination Sequence:
#
# PCOD8258100 Si02
#       7
#    16  16  16  16  16  16  16
#     4  10  21  37  59  87 117 155 195 231 283 349
#     4  10  19  36  59  82 111 151 194 238 286 340
#     4  10  21  37  58  85 113 148 194 242 294 344
#     4  10  19  37  59  83 116 152 194 236 277 343
#     4  10  22  39  59  81 114 152 197 241 288 342
#     4  12  21  37  62  86 119 152 187 244 291 345
#     4  10  22  39  60  88 120 153 189 232 287 348
#
# _framework density 20.047906999999999
#
# number of rings (size 3 to 8) (size 9 to 14) (size 15 to 20)
#    0.000    1.714    2.857    2.143    0.000    4.857 
#    0.000    0.000    0.000    1.714    0.000    0.000 
#    0.000    0.000    0.000    0.000    0.000    0.000 
#
# Total GULP energy -693942.462367 kJ/mol
# GULP energy per Si atom -12391.829685 kJ/mol
# Density = 2.000228 g / cm^3
# Si number density = 20.047907 Si / 1000 Ang^3
#
#
#
# Elastic Constant Matrix: (Units=GPa)
#
#
# Indices 1 2 3 4 5 6 
#
# 1 140.2745 51.4434 29.6466 0.0000 0.0000 0.0000
# 2 51.4434 101.0024 31.3298 0.0000 0.0000 0.0000
# 3 29.6466 31.3298 41.9713 0.0000 0.0000 0.0000
# 4 0.0000 0.0000 0.0000 28.5049 0.0000 0.0000
# 5 0.0000 0.0000 0.0000 0.0000 21.6985 0.0000
# 6 0.0000 0.0000 0.0000 0.0000 0.0000 28.6198
#
#
#
# Elastic Compliance Matrix: (Units=1/GPa)
#
#
# Indices 1 2 3 4 5 6 
#
# 1 0.009237 -0.003488 -0.003920 0.000000 0.000000 0.000000
# 2 -0.003488 0.014201 -0.008137 0.000000 0.000000 0.000000
# 3 -0.003920 -0.008137 0.032669 0.000000 0.000000 0.000000
# 4 0.000000 0.000000 0.000000 0.035082 0.000000 0.000000
# 5 0.000000 0.000000 0.000000 0.000000 0.046086 0.000000
# 6 0.000000 0.000000 0.000000 0.000000 0.000000 0.034941
#
#
# Mechanical properties :
#
#
# Convention : Reuss Voigt Hill
#
# Bulk Modulus (GPa) = 39.97480 56.45420 48.21450
# Shear Modulus (GPa) = 23.62440 27.15319 25.38880
#
# Velocity S-wave (km/s) = 3.43650 3.68423 3.56252
# Velocity P-wave (km/s) = 5.97737 6.80580 6.40499
#
# Compressibility (1/GPa) = 0.02501576
#
# Stress axis : x y z
#
# Youngs Moduli (GPa) = 108.26253 70.41532 30.61030
#
# Poissons Ratio (x) = 0.24564 0.12001
# Poissons Ratio (y) = 0.37767 0.24907
# Poissons Ratio (z) = 0.42444 0.57295
#
# Static dielectric constant tensor:
#      x y z
#    x 3.643400 0.000000 0.000000 
#    y 0.000000 3.813670 0.000000 
#    z 0.000000 0.000000 3.447670 
# 
# 
# High freq. dielectric constant tensor:
#      x y z
#    x 1.781360 0.000000 0.000000 
#    y 0.000000 1.788530 0.000000 
#    z 0.000000 0.000000 1.760700 
# 
# From -- ./inp_files/62966.got.cif
#   From: 2010.03.12/outbox.cif.g09.slc.cpg/sg63_32_cif.got.tgz:62966.got - 2010.04.10 19:34:48.
