data_PCOD8258029
_publ_section_title
;
Structure prediction by ZEFSAII (Michael W. Deem and Ramdas Pophale) SiO2 
 PCOD8258029
Probable space group: C M C M
;
_chemical_formula_sum "Si O2"
_cell_formula_units_Z 72
_cell_length_a 16.275132
_cell_length_b 24.903010
_cell_length_c 9.028669
_cell_angle_alpha 90.000000
_cell_angle_beta 90.000000
_cell_angle_gamma 90.000000
_cell_volume 3659.317514
_symmetry_space_group_name_H-M "C M C M"
_symmetry_group_IT_number 63
_symmetry_cell_setting 'orthorhombic'
loop_
_space_group_symop_operation_xyz
x,y,z
-x,-y,1/2+z
x,-y,-z
-x,y,1/2-z
-x,-y,-z
x,y,1/2-z
-x,y,z
x,-y,1/2+z
1/2+x,1/2+y,z
1/2-x,1/2-y,1/2+z
1/2+x,1/2-y,-z
1/2-x,1/2+y,1/2-z
1/2-x,1/2-y,-z
1/2+x,1/2+y,1/2-z
1/2-x,1/2+y,z
1/2+x,1/2-y,1/2+z
loop_
_atom_site_type_symbol
_atom_site_label
_atom_site_fract_x
_atom_site_fract_y
_atom_site_fract_z
Si Si1 0.903162 0.051201 0.584932
Si Si2 0.593658 0.742762 0.577622
Si Si3 0.000000 0.557909 0.073556
Si Si4 0.677683 0.352926 0.925212
Si Si5 0.863644 0.360382 0.575271
O O1 0.865095 0.053800 0.750000
O O2 0.884001 0.104807 0.496065
O O3 0.000000 0.044977 0.595561
O O4 0.864712 0.000000 0.500000
O O5 0.618418 0.738851 0.750000
O O6 0.500000 0.723851 0.553796
O O7 0.655168 0.705795 0.484614
O O8 0.603722 0.803191 0.515957
O O9 0.919824 0.590740 0.016374
O O10 0.000000 0.551035 0.250000
O O11 0.000000 0.500000 0.000000
O O12 0.667404 0.353416 0.750000
O O13 0.769758 0.368765 0.974517
O O14 0.872163 0.358928 0.750000
#
# Coordination Sequence:
#
# PCOD8258029 Si02
#       5
#    16  16   8  16  16
#     4  10  21  38  58  79 107 146 188 228 273 331
#     4  10  19  35  59  82 108 150 195 231 276 337
#     4  10  20  40  64  84 108 146 193 238 283 340
#     4  11  22  34  53  85 118 147 182 230 285 339
#     4   9  19  37  59  80 108 148 190 231 280 338
#
# _framework density 19.675799999999999
#
# number of rings (size 3 to 8) (size 9 to 14) (size 15 to 20)
#    0.000    2.000    1.111    2.667    0.000    5.333 
#    0.000    6.667    0.000    0.000    0.000    0.000 
#    0.000    0.000    0.000    0.000    0.000    0.000 
#
# Total GULP energy -446435.018017 kJ/mol
# GULP energy per Si atom -12400.972723 kJ/mol
# Density = 1.963102 g / cm^3
# Si number density = 19.675800 Si / 1000 Ang^3
#
#
#
# Elastic Constant Matrix: (Units=GPa)
#
#
# Indices 1 2 3 4 5 6 
#
# 1 69.1569 47.2885 40.7604 0.0000 0.0000 0.0000
# 2 47.2885 157.3282 48.5953 0.0000 0.0000 0.0000
# 3 40.7604 48.5953 86.3702 0.0000 0.0000 0.0000
# 4 0.0000 0.0000 0.0000 33.9793 0.0000 0.0000
# 5 0.0000 0.0000 0.0000 0.0000 17.4330 0.0000
# 6 0.0000 0.0000 0.0000 0.0000 0.0000 22.0504
#
#
#
# Elastic Compliance Matrix: (Units=1/GPa)
#
#
# Indices 1 2 3 4 5 6 
#
# 1 0.022047 -0.004131 -0.008080 0.000000 0.000000 0.000000
# 2 -0.004131 0.008467 -0.002814 0.000000 0.000000 0.000000
# 3 -0.008080 -0.002814 0.016975 0.000000 0.000000 0.000000
# 4 0.000000 0.000000 0.000000 0.029430 0.000000 0.000000
# 5 0.000000 0.000000 0.000000 0.000000 0.057362 0.000000
# 6 0.000000 0.000000 0.000000 0.000000 0.000000 0.045351
#
#
# Mechanical properties :
#
#
# Convention : Reuss Voigt Hill
#
# Bulk Modulus (GPa) = 57.34723 65.12709 61.23716
# Shear Modulus (GPa) = 23.20231 26.43995 24.82113
#
# Velocity S-wave (km/s) = 3.43772 3.66974 3.55562
# Velocity P-wave (km/s) = 6.70571 7.15038 6.93161
#
# Compressibility (1/GPa) = 0.01743763
#
# Stress axis : x y z
#
# Youngs Moduli (GPa) = 45.35762 118.10433 58.91035
#
# Poissons Ratio (x) = 0.48787 0.47602
# Poissons Ratio (y) = 0.18737 0.16580
# Poissons Ratio (z) = 0.36651 0.33240
#
# Static dielectric constant tensor:
#      x y z
#    x 3.667420 0.000000 0.000000 
#    y 0.000000 3.648410 0.000000 
#    z 0.000000 0.000000 3.509690 
# 
# 
# High freq. dielectric constant tensor:
#      x y z
#    x 1.765360 0.000000 0.000000 
#    y 0.000000 1.776980 0.000000 
#    z 0.000000 0.000000 1.745810 
# 
# From -- ./inp_files/6108.got.cif
#   From: 2010.03.12/outbox.cif.g09.slc.cpg/sg63_4_cif.got.tgz:6108.got - 2010.04.10 19:34:48.
