data_PCOD8258799
_publ_section_title
;
Structure prediction by ZEFSAII (Michael W. Deem and Ramdas Pophale) SiO2 
 PCOD8258799
Probable space group: C M C M
;
_chemical_formula_sum "Si O2"
_cell_formula_units_Z 128
_cell_length_a 17.491510
_cell_length_b 22.867276
_cell_length_c 17.763607
_cell_angle_alpha 90.000000
_cell_angle_beta 90.000000
_cell_angle_gamma 90.000000
_cell_volume 7105.144137
_symmetry_space_group_name_H-M "C M C M"
_symmetry_group_IT_number 63
_symmetry_cell_setting 'orthorhombic'
loop_
_space_group_symop_operation_xyz
x,y,z
-x,-y,1/2+z
x,-y,-z
-x,y,1/2-z
-x,-y,-z
x,y,1/2-z
-x,y,z
x,-y,1/2+z
1/2+x,1/2+y,z
1/2-x,1/2-y,1/2+z
1/2+x,1/2-y,-z
1/2-x,1/2+y,1/2-z
1/2-x,1/2-y,-z
1/2+x,1/2+y,1/2-z
1/2-x,1/2+y,z
1/2+x,1/2-y,1/2+z
loop_
_atom_site_type_symbol
_atom_site_label
_atom_site_fract_x
_atom_site_fract_y
_atom_site_fract_z
Si Si1 0.658651 0.368427 0.953741
Si Si2 0.337550 0.132838 0.471246
Si Si3 0.583578 0.042888 0.568764
Si Si4 0.590827 0.255940 0.022150
Si Si5 0.910066 0.946238 0.663076
Si Si6 0.909356 0.562882 0.336121
Si Si7 0.409818 0.682793 0.669015
Si Si8 0.410211 0.433122 0.410490
O O1 0.748282 0.360037 0.961029
O O2 0.636002 0.391528 0.871151
O O3 0.617871 0.306009 0.964640
O O4 0.631000 0.418421 0.011437
O O5 0.355419 0.091468 0.543211
O O6 0.372530 0.194273 0.496792
O O7 0.372314 0.110259 0.392262
O O8 0.500000 0.071101 0.587793
O O9 0.570991 0.000000 0.500000
O O10 0.613647 0.003513 0.639026
O O11 0.500000 0.251580 0.018142
O O12 0.621253 0.273711 0.105298
O O13 0.887971 0.951212 0.750000
O O14 0.000000 0.936527 0.651938
O O15 0.882332 0.005250 0.621745
O O16 0.881748 0.573295 0.250000
O O17 0.000000 0.570739 0.342788
O O18 0.373266 0.699206 0.750000
O O19 0.500000 0.689256 0.672969
O O20 0.388299 0.616046 0.650431
O O21 0.500000 0.433235 0.427518
#
# Coordination Sequence:
#
# PCOD8258799 Si02
#       8
#    16  16  16  16  16  16  16  16
#     4  11  22  34  49  73 105 135 166 212 262 301
#     4  11  21  33  51  75 103 135 170 207 253 309
#     4   8  15  30  51  73  98 130 166 201 239 291
#     4  10  20  35  54  72  94 131 176 215 250 296
#     4  10  20  34  53  75 100 135 176 210 243 293
#     4   9  18  33  54  80 107 132 162 205 254 302
#     4   8  14  26  46  73 100 122 152 202 256 294
#     4   9  17  31  52  75  99 131 171 209 245 294
#
# _framework density 18.015115999999999
#
# number of rings (size 3 to 8) (size 9 to 14) (size 15 to 20)
#    0.000    2.500    0.000    4.875    0.000    6.500 
#    0.000    1.250    0.000    3.750    0.000    1.750 
#    0.000    0.000    0.000    0.000    0.000    0.000 
#
# Total GULP energy -793303.373423 kJ/mol
# GULP energy per Si atom -12395.365210 kJ/mol
# Density = 1.797411 g / cm^3
# Si number density = 18.015116 Si / 1000 Ang^3
#
#
#
# Elastic Constant Matrix: (Units=GPa)
#
#
# Indices 1 2 3 4 5 6 
#
# 1 75.2319 42.2980 24.5734 0.0000 0.0000 0.0000
# 2 42.2980 116.2743 43.9032 0.0000 0.0000 0.0000
# 3 24.5734 43.9032 73.3670 0.0000 0.0000 0.0000
# 4 0.0000 0.0000 0.0000 16.5158 0.0000 0.0000
# 5 0.0000 0.0000 0.0000 0.0000 12.1034 0.0000
# 6 0.0000 0.0000 0.0000 0.0000 0.0000 21.3131
#
#
#
# Elastic Compliance Matrix: (Units=1/GPa)
#
#
# Indices 1 2 3 4 5 6 
#
# 1 0.017082 -0.005237 -0.002588 0.000000 0.000000 0.000000
# 2 -0.005237 0.012716 -0.005855 0.000000 0.000000 0.000000
# 3 -0.002588 -0.005855 0.018001 0.000000 0.000000 0.000000
# 4 0.000000 0.000000 0.000000 0.060548 0.000000 0.000000
# 5 0.000000 0.000000 0.000000 0.000000 0.082621 0.000000
# 6 0.000000 0.000000 0.000000 0.000000 0.000000 0.046920
#
#
# Mechanical properties :
#
#
# Convention : Reuss Voigt Hill
#
# Bulk Modulus (GPa) = 48.92617 54.04691 51.48654
# Shear Modulus (GPa) = 18.37824 20.25970 19.31897
#
# Velocity S-wave (km/s) = 3.19745 3.35714 3.27827
# Velocity P-wave (km/s) = 6.39132 6.71514 6.55523
#
# Compressibility (1/GPa) = 0.02043896
#
# Stress axis : x y z
#
# Youngs Moduli (GPa) = 58.54175 78.63876 55.55339
#
# Poissons Ratio (x) = 0.41183 0.14375
# Poissons Ratio (y) = 0.30658 0.32529
# Poissons Ratio (z) = 0.15148 0.46047
#
# Static dielectric constant tensor:
#      x y z
#    x 3.105480 0.000000 0.000000 
#    y 0.000000 3.381440 0.000000 
#    z 0.000000 0.000000 3.585110 
# 
# 
# High freq. dielectric constant tensor:
#      x y z
#    x 1.674270 0.000000 0.000000 
#    y 0.000000 1.693180 0.000000 
#    z 0.000000 0.000000 1.689260 
# 
# From -- ./inp_files/46345.got.cif
#   From: 2010.03.12/outbox.cif.g09.slc.cpg/sg63_24_cif.got.tgz:46345.got - 2010.04.10 19:34:48.
