data_PCOD8258999
_publ_section_title
;
Structure prediction by ZEFSAII (Michael W. Deem and Ramdas Pophale) SiO2 
 PCOD8258999
Probable space group: C M C M
;
_chemical_formula_sum "Si O2"
_cell_formula_units_Z 96
_cell_length_a 16.480561
_cell_length_b 16.896845
_cell_length_c 18.267653
_cell_angle_alpha 90.000000
_cell_angle_beta 90.000000
_cell_angle_gamma 90.000000
_cell_volume 5086.983918
_symmetry_space_group_name_H-M "C M C M"
_symmetry_group_IT_number 63
_symmetry_cell_setting 'orthorhombic'
loop_
_space_group_symop_operation_xyz
x,y,z
-x,-y,1/2+z
x,-y,-z
-x,y,1/2-z
-x,-y,-z
x,y,1/2-z
-x,y,z
x,-y,1/2+z
1/2+x,1/2+y,z
1/2-x,1/2-y,1/2+z
1/2+x,1/2-y,-z
1/2-x,1/2+y,1/2-z
1/2-x,1/2-y,-z
1/2+x,1/2+y,1/2-z
1/2-x,1/2+y,z
1/2+x,1/2-y,1/2+z
loop_
_atom_site_type_symbol
_atom_site_label
_atom_site_fract_x
_atom_site_fract_y
_atom_site_fract_z
Si Si1 0.404762 0.326492 0.609679
Si Si2 0.322362 0.480475 0.832817
Si Si3 0.691144 0.317285 0.030769
Si Si4 0.904138 0.340793 0.331893
Si Si5 0.405102 0.644797 0.834105
Si Si6 0.692690 0.954647 0.431996
O O1 0.500000 0.330891 0.619745
O O2 0.367181 0.398284 0.654374
O O3 0.383262 0.330980 0.524330
O O4 0.370115 0.244140 0.642366
O O5 0.292436 0.484498 0.750000
O O6 0.383840 0.552945 0.849268
O O7 0.241047 0.483948 0.881071
O O8 0.650243 0.301195 0.111017
O O9 0.742556 0.396378 0.032512
O O10 0.750000 0.250000 0.000000
O O11 0.871744 0.357402 0.250000
O O12 0.874490 0.409341 0.385469
O O13 0.000000 0.340896 0.334399
O O14 0.384505 0.668320 0.750000
O O15 0.500000 0.658317 0.850346
O O16 0.649958 0.000000 0.500000
#
# Coordination Sequence:
#
# PCOD8258999 Si02
#       6
#    16  16  16  16  16  16
#     4  11  21  35  58  88 118 149 182 227 284 340
#     4  10  20  34  55  85 119 151 183 227 279 339
#     4  11  21  37  54  81 116 150 187 230 278 336
#     4  10  22  39  59  83 112 147 188 234 283 336
#     4   9  19  35  56  81 110 150 192 230 278 335
#     4  11  21  37  59  81 111 148 194 234 278 330
#
# _framework density 18.871693
#
# number of rings (size 3 to 8) (size 9 to 14) (size 15 to 20)
#    0.000    1.667    3.333    2.000    0.000    2.667 
#    0.000    2.500    0.000    0.000    0.000    2.333 
#    0.000    0.000    0.000    0.000    0.000    0.000 
#
# Total GULP energy -595107.571562 kJ/mol
# GULP energy per Si atom -12398.074408 kJ/mol
# Density = 1.882874 g / cm^3
# Si number density = 18.871693 Si / 1000 Ang^3
#
#
#
# Elastic Constant Matrix: (Units=GPa)
#
#
# Indices 1 2 3 4 5 6 
#
# 1 45.3878 28.4364 42.7942 0.0000 0.0000 0.0000
# 2 28.4364 69.9791 57.6308 0.0000 0.0000 0.0000
# 3 42.7942 57.6308 149.4225 0.0000 0.0000 0.0000
# 4 0.0000 0.0000 0.0000 34.6713 0.0000 0.0000
# 5 0.0000 0.0000 0.0000 0.0000 37.7938 0.0000
# 6 0.0000 0.0000 0.0000 0.0000 0.0000 29.5938
#
#
#
# Elastic Compliance Matrix: (Units=1/GPa)
#
#
# Indices 1 2 3 4 5 6 
#
# 1 0.033167 -0.008287 -0.006303 0.000000 0.000000 0.000000
# 2 -0.008287 0.023012 -0.006502 0.000000 0.000000 0.000000
# 3 -0.006303 -0.006502 0.011005 0.000000 0.000000 0.000000
# 4 0.000000 0.000000 0.000000 0.028842 0.000000 0.000000
# 5 0.000000 0.000000 0.000000 0.000000 0.026459 0.000000
# 6 0.000000 0.000000 0.000000 0.000000 0.000000 0.033791
#
#
# Mechanical properties :
#
#
# Convention : Reuss Voigt Hill
#
# Bulk Modulus (GPa) = 39.99891 58.05692 49.02792
# Shear Modulus (GPa) = 24.17858 29.47365 26.82611
#
# Velocity S-wave (km/s) = 3.58328 3.95624 3.77437
# Velocity P-wave (km/s) = 6.19363 7.19026 6.71048
#
# Compressibility (1/GPa) = 0.02500068
#
# Stress axis : x y z
#
# Youngs Moduli (GPa) = 30.15054 43.45497 90.86479
#
# Poissons Ratio (x) = 0.36011 0.57269
# Poissons Ratio (y) = 0.24986 0.59083
# Poissons Ratio (z) = 0.19003 0.28256
#
# Static dielectric constant tensor:
#      x y z
#    x 3.339850 0.000000 0.000000 
#    y 0.000000 3.424250 0.000000 
#    z 0.000000 0.000000 4.015930 
# 
# 
# High freq. dielectric constant tensor:
#      x y z
#    x 1.722230 0.000000 0.000000 
#    y 0.000000 1.716360 0.000000 
#    z 0.000000 0.000000 1.754250 
# 
# From -- ./inp_files/45766.got.cif
#   From: 2010.03.12/outbox.cif.g09.slc.cpg/sg63_23_cif.got.tgz:45766.got - 2010.04.10 19:34:48.
