data_PCOD8258711
_publ_section_title
;
Structure prediction by ZEFSAII (Michael W. Deem and Ramdas Pophale) SiO2 
 PCOD8258711
Probable space group: C M C M
;
_chemical_formula_sum "Si O2"
_cell_formula_units_Z 96
_cell_length_a 23.743858
_cell_length_b 23.865598
_cell_length_c 9.135551
_cell_angle_alpha 90.000000
_cell_angle_beta 90.000000
_cell_angle_gamma 90.000000
_cell_volume 5176.763845
_symmetry_space_group_name_H-M "C M C M"
_symmetry_group_IT_number 63
_symmetry_cell_setting 'orthorhombic'
loop_
_space_group_symop_operation_xyz
x,y,z
-x,-y,1/2+z
x,-y,-z
-x,y,1/2-z
-x,-y,-z
x,y,1/2-z
-x,y,z
x,-y,1/2+z
1/2+x,1/2+y,z
1/2-x,1/2-y,1/2+z
1/2+x,1/2-y,-z
1/2-x,1/2+y,1/2-z
1/2-x,1/2-y,-z
1/2+x,1/2+y,1/2-z
1/2-x,1/2+y,z
1/2+x,1/2-y,1/2+z
loop_
_atom_site_type_symbol
_atom_site_label
_atom_site_fract_x
_atom_site_fract_y
_atom_site_fract_z
Si Si1 0.859275 0.149435 0.421209
Si Si2 0.349514 0.944985 0.580377
Si Si3 0.564283 0.124798 0.578700
Si Si4 0.643487 0.224435 0.919238
Si Si5 0.731651 0.842477 0.918768
Si Si6 0.934644 0.942318 0.078058
O O1 0.865827 0.134155 0.250000
O O2 0.878334 0.213150 0.454244
O O3 0.794614 0.145295 0.474494
O O4 0.897633 0.108183 0.515282
O O5 0.358960 0.957391 0.750000
O O6 0.408737 0.926331 0.510384
O O7 0.302737 0.898604 0.550843
O O8 0.327116 0.000000 0.500000
O O9 0.571433 0.112531 0.750000
O O10 0.500000 0.129913 0.531300
O O11 0.593711 0.182894 0.532306
O O12 0.658116 0.218311 0.750000
O O13 0.701855 0.209568 0.000400
O O14 0.733489 0.825472 0.750000
O O15 0.923068 0.948683 0.250000
O O16 0.000000 0.928911 0.045696
O O17 0.916549 0.000000 0.000000
#
# Coordination Sequence:
#
# PCOD8258711 Si02
#       6
#    16  16  16  16  16  16
#     4  10  20  34  55  83 110 138 174 211 252 308
#     4  10  20  34  51  71  98 132 170 212 257 303
#     4   9  18  33  51  72 100 133 170 211 253 299
#     4   9  18  32  52  78 107 140 175 212 256 303
#     4   9  19  34  51  75 108 141 173 213 258 304
#     4  10  22  40  59  79 105 137 173 215 263 312
#
# _framework density 18.544402999999999
#
# number of rings (size 3 to 8) (size 9 to 14) (size 15 to 20)
#    0.000    2.500    0.000    1.500    0.000    5.000 
#    0.000    3.333    0.000    0.000    0.000    0.000 
#    0.000    0.000    0.000    0.000    0.000    0.000 
#
# Total GULP energy -595252.521274 kJ/mol
# GULP energy per Si atom -12401.094193 kJ/mol
# Density = 1.850220 g / cm^3
# Si number density = 18.544403 Si / 1000 Ang^3
#
#
#
# Elastic Constant Matrix: (Units=GPa)
#
#
# Indices 1 2 3 4 5 6 
#
# 1 64.2189 17.5313 23.2639 0.0000 0.0000 0.0000
# 2 17.5313 80.1032 34.4805 0.0000 0.0000 0.0000
# 3 23.2639 34.4805 63.5110 0.0000 0.0000 0.0000
# 4 0.0000 0.0000 0.0000 30.8965 0.0000 0.0000
# 5 0.0000 0.0000 0.0000 0.0000 29.7723 0.0000
# 6 0.0000 0.0000 0.0000 0.0000 0.0000 25.3448
#
#
#
# Elastic Compliance Matrix: (Units=1/GPa)
#
#
# Indices 1 2 3 4 5 6 
#
# 1 0.018081 -0.001444 -0.005839 0.000000 0.000000 0.000000
# 2 -0.001444 0.016406 -0.008378 0.000000 0.000000 0.000000
# 3 -0.005839 -0.008378 0.022433 0.000000 0.000000 0.000000
# 4 0.000000 0.000000 0.000000 0.032366 0.000000 0.000000
# 5 0.000000 0.000000 0.000000 0.000000 0.033588 0.000000
# 6 0.000000 0.000000 0.000000 0.000000 0.000000 0.039456
#
#
# Mechanical properties :
#
#
# Convention : Reuss Voigt Hill
#
# Bulk Modulus (GPa) = 39.06580 39.82047 39.44313
# Shear Modulus (GPa) = 24.72976 26.03988 25.38482
#
# Velocity S-wave (km/s) = 3.65573 3.75132 3.70383
# Velocity P-wave (km/s) = 6.23947 6.34688 6.29340
#
# Compressibility (1/GPa) = 0.02559784
#
# Stress axis : x y z
#
# Youngs Moduli (GPa) = 55.30606 60.95222 44.57758
#
# Poissons Ratio (x) = 0.08800 0.26030
# Poissons Ratio (y) = 0.07985 0.37348
# Poissons Ratio (z) = 0.32295 0.51067
#
# Static dielectric constant tensor:
#      x y z
#    x 3.456260 0.000000 0.000000 
#    y 0.000000 3.533710 0.000000 
#    z 0.000000 0.000000 3.398670 
# 
# 
# High freq. dielectric constant tensor:
#      x y z
#    x 1.717660 0.000000 0.000000 
#    y 0.000000 1.726310 0.000000 
#    z 0.000000 0.000000 1.717140 
# 
# From -- ./inp_files/10454.got.cif
#   From: 2010.03.12/outbox.cif.g09.slc.cpg/sg63_6_cif.got.tgz:10454.got - 2010.04.10 19:34:48.
