data_PCOD8258256
_publ_section_title
;
Structure prediction by ZEFSAII (Michael W. Deem and Ramdas Pophale) SiO2 
 PCOD8258256
Probable space group: C M C M
;
_chemical_formula_sum "Si O2"
_cell_formula_units_Z 72
_cell_length_a 22.461776
_cell_length_b 23.657169
_cell_length_c 9.279578
_cell_angle_alpha 90.000000
_cell_angle_beta 90.000000
_cell_angle_gamma 90.000000
_cell_volume 4931.001003
_symmetry_space_group_name_H-M "C M C M"
_symmetry_group_IT_number 63
_symmetry_cell_setting 'orthorhombic'
loop_
_space_group_symop_operation_xyz
x,y,z
-x,-y,1/2+z
x,-y,-z
-x,y,1/2-z
-x,-y,-z
x,y,1/2-z
-x,y,z
x,-y,1/2+z
1/2+x,1/2+y,z
1/2-x,1/2-y,1/2+z
1/2+x,1/2-y,-z
1/2-x,1/2+y,1/2-z
1/2-x,1/2-y,-z
1/2+x,1/2+y,1/2-z
1/2-x,1/2+y,z
1/2+x,1/2-y,1/2+z
loop_
_atom_site_type_symbol
_atom_site_label
_atom_site_fract_x
_atom_site_fract_y
_atom_site_fract_z
Si Si1 0.104574 0.858684 0.917177
Si Si2 0.215297 0.170311 0.586914
Si Si3 0.067349 0.732457 0.915719
Si Si4 0.323998 0.799781 0.587144
Si Si5 0.000000 0.058650 0.080709
O O1 0.121951 0.863683 0.750000
O O2 0.073906 0.798731 0.949187
O O3 0.058586 0.906822 0.965214
O O4 0.164359 0.866735 0.010135
O O5 0.223706 0.148726 0.750000
O O6 0.277097 0.162145 0.501208
O O7 0.196819 0.235373 0.583965
O O8 0.083601 0.720444 0.750000
O O9 0.000000 0.714068 0.951082
O O10 0.111225 0.695198 0.013914
O O11 0.327793 0.822659 0.750000
O O12 0.000000 0.047777 0.250000
O O13 0.000000 0.000000 0.000000
#
# Coordination Sequence:
#
# PCOD8258256 Si02
#       5
#    16  16  16  16   8
#     4   9  16  28  42  54  69  93 123 155 195 236
#     4   9  16  25  37  53  70  90 118 152 187 223
#     4   9  15  24  38  53  71  97 127 156 187 224
#     4   9  16  24  34  51  73  95 118 149 185 220
#     4  10  20  32  44  58  76  98 126 162 204 244
#
# _framework density 14.601497999999999
#
# number of rings (size 3 to 8) (size 9 to 14) (size 15 to 20)
#    0.000    2.889    1.111    1.333    0.000    6.667 
#    0.000    0.000    0.000    0.000    0.000    0.000 
#    0.000    0.000    0.000    0.000    0.000    1.111 
#
# Total GULP energy -446343.467513 kJ/mol
# GULP energy per Si atom -12398.429653 kJ/mol
# Density = 1.456826 g / cm^3
# Si number density = 14.601498 Si / 1000 Ang^3
#
#
#
# Elastic Constant Matrix: (Units=GPa)
#
#
# Indices 1 2 3 4 5 6 
#
# 1 136.5822 34.9373 80.0916 0.0000 0.0000 0.0000
# 2 34.9373 29.3518 26.1319 0.0000 0.0000 0.0000
# 3 80.0916 26.1319 107.4338 0.0000 0.0000 0.0000
# 4 0.0000 0.0000 0.0000 14.3096 0.0000 0.0000
# 5 0.0000 0.0000 0.0000 0.0000 31.5523 0.0000
# 6 0.0000 0.0000 0.0000 0.0000 0.0000 11.7868
#
#
#
# Elastic Compliance Matrix: (Units=1/GPa)
#
#
# Indices 1 2 3 4 5 6 
#
# 1 0.015041 -0.010109 -0.008754 0.000000 0.000000 0.000000
# 2 -0.010109 0.050282 -0.004694 0.000000 0.000000 0.000000
# 3 -0.008754 -0.004694 0.016976 0.000000 0.000000 0.000000
# 4 0.000000 0.000000 0.000000 0.069883 0.000000 0.000000
# 5 0.000000 0.000000 0.000000 0.000000 0.031693 0.000000
# 6 0.000000 0.000000 0.000000 0.000000 0.000000 0.084841
#
#
# Mechanical properties :
#
#
# Convention : Reuss Voigt Hill
#
# Bulk Modulus (GPa) = 28.42210 61.74325 45.08267
# Shear Modulus (GPa) = 15.26448 20.34353 17.80400
#
# Velocity S-wave (km/s) = 3.23678 3.73667 3.49567
# Velocity P-wave (km/s) = 5.78588 7.80989 6.87280
#
# Compressibility (1/GPa) = 0.03518389
#
# Stress axis : x y z
#
# Youngs Moduli (GPa) = 66.48563 19.88803 58.90738
#
# Poissons Ratio (x) = 0.20106 0.51567
# Poissons Ratio (y) = 0.67213 0.27650
# Poissons Ratio (z) = 0.58201 0.09335
#
# Static dielectric constant tensor:
#      x y z
#    x 3.005890 0.000000 0.000000 
#    y 0.000000 2.227900 0.000000 
#    z 0.000000 0.000000 2.960640 
# 
# 
# High freq. dielectric constant tensor:
#      x y z
#    x 1.569630 0.000000 0.000000 
#    y 0.000000 1.473650 0.000000 
#    z 0.000000 0.000000 1.568960 
# 
# From -- ./inp_files/8001.got.cif
#   From: 2010.03.12/outbox.cif.g09.slc.cpg/sg63_5_cif.got.tgz:8001.got - 2010.04.10 19:34:48.
