data_PCOD8258358
_publ_section_title
;
Structure prediction by ZEFSAII (Michael W. Deem and Ramdas Pophale) SiO2 
 PCOD8258358
Probable space group: C M C M
;
_chemical_formula_sum "Si O2"
_cell_formula_units_Z 96
_cell_length_a 9.490882
_cell_length_b 24.859461
_cell_length_c 21.550566
_cell_angle_alpha 90.000000
_cell_angle_beta 90.000000
_cell_angle_gamma 90.000000
_cell_volume 5084.601987
_symmetry_space_group_name_H-M "C M C M"
_symmetry_group_IT_number 63
_symmetry_cell_setting 'orthorhombic'
loop_
_space_group_symop_operation_xyz
x,y,z
-x,-y,1/2+z
x,-y,-z
-x,y,1/2-z
-x,-y,-z
x,y,1/2-z
-x,y,z
x,-y,1/2+z
1/2+x,1/2+y,z
1/2-x,1/2-y,1/2+z
1/2+x,1/2-y,-z
1/2-x,1/2+y,1/2-z
1/2-x,1/2-y,-z
1/2+x,1/2+y,1/2-z
1/2-x,1/2+y,z
1/2+x,1/2-y,1/2+z
loop_
_atom_site_type_symbol
_atom_site_label
_atom_site_fract_x
_atom_site_fract_y
_atom_site_fract_z
Si Si1 0.831323 0.880416 0.750000
Si Si2 0.841558 0.301664 0.009785
Si Si3 0.165671 0.955038 0.639673
Si Si4 0.833527 0.241463 0.250000
Si Si5 0.336005 0.573388 0.626420
Si Si6 0.837284 0.899572 0.514419
Si Si7 0.157414 0.327666 0.152957
O O1 0.772644 0.912315 0.810621
O O2 0.769176 0.819204 0.750000
O O3 0.000000 0.878612 0.750000
O O4 0.845092 0.313061 0.081886
O O5 0.000000 0.294466 0.983551
O O6 0.750000 0.250000 0.000000
O O7 0.763768 0.349180 0.973637
O O8 0.204000 0.940617 0.568864
O O9 0.000000 0.955662 0.648213
O O10 0.220236 0.015873 0.651680
O O11 0.783090 0.275835 0.309878
O O12 0.000000 0.234390 0.250000
O O13 0.500000 0.581919 0.640554
O O14 0.308356 0.574055 0.552371
O O15 0.254132 0.620022 0.663362
O O16 0.000000 0.880944 0.520035
O O17 0.000000 0.341494 0.176779
#
# Coordination Sequence:
#
# PCOD8258358 Si02
#       7
#     8  16  16   8  16  16  16
#     4   9  18  29  46  73  99 129 172 215 248 290
#     4  10  20  32  49  74 102 130 166 208 250 296
#     4   9  17  29  48  74 104 134 168 208 250 297
#     4   9  18  33  51  71  99 131 170 211 248 294
#     4   9  17  31  51  78 106 129 162 206 255 304
#     4   9  17  30  50  74 102 134 164 201 252 301
#     4   9  19  34  52  74  98 129 169 208 245 293
#
# _framework density 18.880534999999998
#
# number of rings (size 3 to 8) (size 9 to 14) (size 15 to 20)
#    0.000    2.833    0.000    1.000    2.333    3.333 
#    0.000    2.083    0.000    4.000    0.000    1.750 
#    0.000    0.000    0.000    0.000    0.000    0.000 
#
# Total GULP energy -594909.701848 kJ/mol
# GULP energy per Si atom -12393.952122 kJ/mol
# Density = 1.883756 g / cm^3
# Si number density = 18.880535 Si / 1000 Ang^3
#
#
#
# Elastic Constant Matrix: (Units=GPa)
#
#
# Indices 1 2 3 4 5 6 
#
# 1 64.3068 55.6465 14.5410 0.0000 0.0000 0.0000
# 2 55.6465 189.7839 46.0047 0.0000 0.0000 0.0000
# 3 14.5410 46.0047 53.7158 0.0000 0.0000 0.0000
# 4 0.0000 0.0000 0.0000 26.4672 0.0000 0.0000
# 5 0.0000 0.0000 0.0000 0.0000 10.6484 0.0000
# 6 0.0000 0.0000 0.0000 0.0000 0.0000 30.4941
#
#
#
# Elastic Compliance Matrix: (Units=1/GPa)
#
#
# Indices 1 2 3 4 5 6 
#
# 1 0.020849 -0.005988 -0.000515 0.000000 0.000000 0.000000
# 2 -0.005988 0.008370 -0.005547 0.000000 0.000000 0.000000
# 3 -0.000515 -0.005547 0.023507 0.000000 0.000000 0.000000
# 4 0.000000 0.000000 0.000000 0.037783 0.000000 0.000000
# 5 0.000000 0.000000 0.000000 0.000000 0.093911 0.000000
# 6 0.000000 0.000000 0.000000 0.000000 0.000000 0.032793
#
#
# Mechanical properties :
#
#
# Convention : Reuss Voigt Hill
#
# Bulk Modulus (GPa) = 34.93570 60.02120 47.47845
# Shear Modulus (GPa) = 19.93192 26.29623 23.11408
#
# Velocity S-wave (km/s) = 3.25266 3.73603 3.50269
# Velocity P-wave (km/s) = 5.71403 7.10419 6.44669
#
# Compressibility (1/GPa) = 0.02862401
#
# Stress axis : x y z
#
# Youngs Moduli (GPa) = 47.96474 119.48052 42.54094
#
# Poissons Ratio (x) = 0.71546 0.02192
# Poissons Ratio (y) = 0.28722 0.23598
# Poissons Ratio (z) = 0.02472 0.66277
#
# Static dielectric constant tensor:
#      x y z
#    x 3.298510 0.000000 0.000000 
#    y 0.000000 3.841970 0.000000 
#    z 0.000000 0.000000 3.384450 
# 
# 
# High freq. dielectric constant tensor:
#      x y z
#    x 1.688630 0.000000 0.000000 
#    y 0.000000 1.745800 0.000000 
#    z 0.000000 0.000000 1.728880 
# 
# From -- ./inp_files/52909.got.cif
#   From: 2010.03.12/outbox.cif.g09.slc.cpg/sg63_27_cif.got.tgz:52909.got - 2010.04.10 19:34:48.
