data_PCOD8258528
_publ_section_title
;
Structure prediction by ZEFSAII (Michael W. Deem and Ramdas Pophale) SiO2 
 PCOD8258528
Probable space group: C M C M
;
_chemical_formula_sum "Si O2"
_cell_formula_units_Z 120
_cell_length_a 14.654291
_cell_length_b 30.097978
_cell_length_c 14.049774
_cell_angle_alpha 90.000000
_cell_angle_beta 90.000000
_cell_angle_gamma 90.000000
_cell_volume 6196.856940
_symmetry_space_group_name_H-M "C M C M"
_symmetry_group_IT_number 63
_symmetry_cell_setting 'orthorhombic'
loop_
_space_group_symop_operation_xyz
x,y,z
-x,-y,1/2+z
x,-y,-z
-x,y,1/2-z
-x,-y,-z
x,y,1/2-z
-x,y,z
x,-y,1/2+z
1/2+x,1/2+y,z
1/2-x,1/2-y,1/2+z
1/2+x,1/2-y,-z
1/2-x,1/2+y,1/2-z
1/2-x,1/2-y,-z
1/2+x,1/2+y,1/2-z
1/2-x,1/2+y,z
1/2+x,1/2-y,1/2+z
loop_
_atom_site_type_symbol
_atom_site_label
_atom_site_fract_x
_atom_site_fract_y
_atom_site_fract_z
Si Si1 0.102471 0.927026 0.858690
Si Si2 0.786313 0.839765 0.639351
Si Si3 0.734159 0.431855 0.141302
Si Si4 0.103081 0.630684 0.644787
Si Si5 0.900027 0.316488 0.961530
Si Si6 0.843208 0.224130 0.990594
Si Si7 0.603259 0.647302 0.638285
Si Si8 0.832746 0.000000 0.500000
O O1 0.120116 0.943842 0.750000
O O2 0.176918 0.889125 0.884577
O O3 0.000000 0.907176 0.865764
O O4 0.107392 0.967479 0.933714
O O5 0.792597 0.829387 0.750000
O O6 0.680291 0.833991 0.607365
O O7 0.853766 0.804635 0.587278
O O8 0.717090 0.446825 0.250000
O O9 0.833837 0.411642 0.127704
O O10 0.655930 0.397247 0.108804
O O11 0.731917 0.473617 0.072110
O O12 0.122334 0.651002 0.750000
O O13 0.125187 0.668245 0.568045
O O14 0.000000 0.613273 0.635896
O O15 0.914994 0.263123 0.969128
O O16 0.000000 0.335141 0.928344
O O17 0.844683 0.189684 0.903731
O O18 0.750000 0.250000 0.000000
O O19 0.604621 0.653919 0.750000
O O20 0.500000 0.644035 0.598636
#
# Coordination Sequence:
#
# PCOD8258528 Si02
#       8
#    16  16  16  16  16  16  16   8
#     4  10  22  38  55  78 107 140 179 218 261 321
#     4  10  22  39  55  74 108 152 189 220 262 320
#     4  10  21  36  55  80 108 138 176 220 266 323
#     4   9  18  35  58  81 108 143 180 221 272 324
#     4  10  20  34  55  84 112 139 181 233 275 314
#     4  10  20  33  50  77 109 141 180 223 262 308
#     4  10  21  37  57  80 109 145 181 221 273 328
#     4  12  21  34  57  82 108 138 169 218 277 320
#
# _framework density 19.364656
#
# number of rings (size 3 to 8) (size 9 to 14) (size 15 to 20)
#    0.000    2.000    0.000    4.200    0.000    6.133 
#    0.000    1.667    0.000    0.800    0.000    1.867 
#    0.000    0.000    0.000    0.000    0.000    0.000 
#
# Total GULP energy -743592.354113 kJ/mol
# GULP energy per Si atom -12393.205902 kJ/mol
# Density = 1.932058 g / cm^3
# Si number density = 19.364656 Si / 1000 Ang^3
#
#
#
# Elastic Constant Matrix: (Units=GPa)
#
#
# Indices 1 2 3 4 5 6 
#
# 1 81.2424 37.5818 30.2955 0.0000 0.0000 0.0000
# 2 37.5818 113.5827 64.3936 0.0000 0.0000 0.0000
# 3 30.2955 64.3936 94.5484 0.0000 0.0000 0.0000
# 4 0.0000 0.0000 0.0000 36.4749 0.0000 0.0000
# 5 0.0000 0.0000 0.0000 0.0000 25.7418 0.0000
# 6 0.0000 0.0000 0.0000 0.0000 0.0000 18.6219
#
#
#
# Elastic Compliance Matrix: (Units=1/GPa)
#
#
# Indices 1 2 3 4 5 6 
#
# 1 0.014833 -0.003606 -0.002297 0.000000 0.000000 0.000000
# 2 -0.003606 0.015218 -0.009209 0.000000 0.000000 0.000000
# 3 -0.002297 -0.009209 0.017585 0.000000 0.000000 0.000000
# 4 0.000000 0.000000 0.000000 0.027416 0.000000 0.000000
# 5 0.000000 0.000000 0.000000 0.000000 0.038847 0.000000
# 6 0.000000 0.000000 0.000000 0.000000 0.000000 0.053700
#
#
# Mechanical properties :
#
#
# Convention : Reuss Voigt Hill
#
# Bulk Modulus (GPa) = 57.43146 61.54616 59.48881
# Shear Modulus (GPa) = 24.55455 26.64124 25.59789
#
# Velocity S-wave (km/s) = 3.56477 3.71316 3.63972
# Velocity P-wave (km/s) = 6.83123 7.08767 6.96063
#
# Compressibility (1/GPa) = 0.01741206
#
# Stress axis : x y z
#
# Youngs Moduli (GPa) = 67.41527 65.71090 56.86729
#
# Poissons Ratio (x) = 0.23693 0.13064
# Poissons Ratio (y) = 0.24307 0.52370
# Poissons Ratio (z) = 0.15487 0.60515
#
# Static dielectric constant tensor:
#      x y z
#    x 4.652410 0.000000 0.000000 
#    y 0.000000 3.683510 0.000000 
#    z 0.000000 0.000000 3.678000 
# 
# 
# High freq. dielectric constant tensor:
#      x y z
#    x 1.756050 0.000000 0.000000 
#    y 0.000000 1.740300 0.000000 
#    z 0.000000 0.000000 1.764600 
# 
# From -- ./inp_files/32848.got.cif
#   From: 2010.03.12/outbox.cif.g09.slc.cpg/sg63_17_cif.got.tgz:32848.got - 2010.04.10 19:34:48.
