data_PCOD8258726
_publ_section_title
;
Structure prediction by ZEFSAII (Michael W. Deem and Ramdas Pophale) SiO2 
 PCOD8258726
Probable space group: C M C M
;
_chemical_formula_sum "Si O2"
_cell_formula_units_Z 112
_cell_length_a 14.311819
_cell_length_b 14.361873
_cell_length_c 29.383604
_cell_angle_alpha 90.000000
_cell_angle_beta 90.000000
_cell_angle_gamma 90.000000
_cell_volume 6039.638982
_symmetry_space_group_name_H-M "C M C M"
_symmetry_group_IT_number 63
_symmetry_cell_setting 'orthorhombic'
loop_
_space_group_symop_operation_xyz
x,y,z
-x,-y,1/2+z
x,-y,-z
-x,y,1/2-z
-x,-y,-z
x,y,1/2-z
-x,y,z
x,-y,1/2+z
1/2+x,1/2+y,z
1/2-x,1/2-y,1/2+z
1/2+x,1/2-y,-z
1/2-x,1/2+y,1/2-z
1/2-x,1/2-y,-z
1/2+x,1/2+y,1/2-z
1/2-x,1/2+y,z
1/2+x,1/2-y,1/2+z
loop_
_atom_site_type_symbol
_atom_site_label
_atom_site_fract_x
_atom_site_fract_y
_atom_site_fract_z
Si Si1 0.898537 0.228618 0.881685
Si Si2 0.605181 0.825477 0.974059
Si Si3 0.196530 0.947774 0.137838
Si Si4 0.889881 0.778765 0.936907
Si Si5 0.391860 0.390975 0.697604
Si Si6 0.207444 0.270761 0.152910
Si Si7 0.269453 0.454496 0.547026
O O1 0.890381 0.246689 0.935382
O O2 0.893228 0.117073 0.873522
O O3 0.809791 0.277908 0.856757
O O4 0.000000 0.264296 0.863285
O O5 0.500000 0.862112 0.981126
O O6 0.666803 0.913170 0.960490
O O7 0.645457 0.780465 0.020078
O O8 0.272283 0.880416 0.164626
O O9 0.166078 0.034769 0.168345
O O10 0.240905 0.976001 0.089519
O O11 0.856075 0.727343 0.891838
O O12 0.846666 0.880603 0.938286
O O13 0.000000 0.790176 0.936772
O O14 0.384675 0.419882 0.750000
O O15 0.500000 0.387645 0.681810
O O16 0.345550 0.288419 0.691571
O O17 0.304177 0.500000 0.500000
#
# Coordination Sequence:
#
# PCOD8258726 Si02
#       7
#    16  16  16  16  16  16  16
#     4   9  18  34  57  83 115 151 191 236 290 345
#     4  10  20  34  51  75 115 164 205 242 286 346
#     4  10  21  36  60  91 121 155 192 248 302 345
#     4  11  21  34  54  80 115 158 201 244 294 345
#     4  11  23  41  66  93 121 154 195 247 301 357
#     4  10  21  38  60  85 120 154 190 244 303 353
#     4  12  21  33  54  81 121 156 200 249 291 347
#
# _framework density 18.544155
#
# number of rings (size 3 to 8) (size 9 to 14) (size 15 to 20)
#    0.857    0.714    2.857    3.000    0.000    1.714 
#    0.000    1.429    0.000    2.143    0.000    0.000 
#    0.000    0.000    0.000    0.000    0.000    0.000 
#
# Total GULP energy -693868.954800 kJ/mol
# GULP energy per Si atom -12390.517050 kJ/mol
# Density = 1.850195 g / cm^3
# Si number density = 18.544155 Si / 1000 Ang^3
#
#
#
# Elastic Constant Matrix: (Units=GPa)
#
#
# Indices 1 2 3 4 5 6 
#
# 1 74.4945 31.0611 18.0717 0.0000 0.0000 0.0000
# 2 31.0611 79.8529 30.1120 0.0000 0.0000 0.0000
# 3 18.0717 30.1120 70.4934 0.0000 0.0000 0.0000
# 4 0.0000 0.0000 0.0000 22.4872 0.0000 0.0000
# 5 0.0000 0.0000 0.0000 0.0000 19.2479 0.0000
# 6 0.0000 0.0000 0.0000 0.0000 0.0000 18.3554
#
#
#
# Elastic Compliance Matrix: (Units=1/GPa)
#
#
# Indices 1 2 3 4 5 6 
#
# 1 0.016200 -0.005645 -0.001742 0.000000 0.000000 0.000000
# 2 -0.005645 0.016894 -0.005770 0.000000 0.000000 0.000000
# 3 -0.001742 -0.005770 0.017097 0.000000 0.000000 0.000000
# 4 0.000000 0.000000 0.000000 0.044470 0.000000 0.000000
# 5 0.000000 0.000000 0.000000 0.000000 0.051954 0.000000
# 6 0.000000 0.000000 0.000000 0.000000 0.000000 0.054480
#
#
# Mechanical properties :
#
#
# Convention : Reuss Voigt Hill
#
# Bulk Modulus (GPa) = 41.87775 42.59229 42.23502
# Shear Modulus (GPa) = 21.24349 21.72448 21.48398
#
# Velocity S-wave (km/s) = 3.38829 3.42643 3.40741
# Velocity P-wave (km/s) = 6.15947 6.21867 6.18914
#
# Compressibility (1/GPa) = 0.02387903
#
# Stress axis : x y z
#
# Youngs Moduli (GPa) = 61.72868 59.19156 58.49054
#
# Poissons Ratio (x) = 0.33411 0.10188
# Poissons Ratio (y) = 0.34843 0.33746
# Poissons Ratio (z) = 0.10752 0.34151
#
# Static dielectric constant tensor:
#      x y z
#    x 3.514130 0.000000 0.000000 
#    y 0.000000 3.299830 0.000000 
#    z 0.000000 0.000000 3.246620 
# 
# 
# High freq. dielectric constant tensor:
#      x y z
#    x 1.726430 0.000000 0.000000 
#    y 0.000000 1.708080 0.000000 
#    z 0.000000 0.000000 1.699030 
# 
# From -- ./inp_files/73543.got.cif
#   From: 2010.03.12/outbox.cif.g09.slc.cpg/sg63_37_cif.got.tgz:73543.got - 2010.04.10 19:34:48.
