data_PCOD8258399
_publ_section_title
;
Structure prediction by ZEFSAII (Michael W. Deem and Ramdas Pophale) SiO2 
 PCOD8258399
Probable space group: C M C M
;
_chemical_formula_sum "Si O2"
_cell_formula_units_Z 96
_cell_length_a 9.393880
_cell_length_b 22.682483
_cell_length_c 22.966440
_cell_angle_alpha 90.000000
_cell_angle_beta 90.000000
_cell_angle_gamma 90.000000
_cell_volume 4893.609190
_symmetry_space_group_name_H-M "C M C M"
_symmetry_group_IT_number 63
_symmetry_cell_setting 'orthorhombic'
loop_
_space_group_symop_operation_xyz
x,y,z
-x,-y,1/2+z
x,-y,-z
-x,y,1/2-z
-x,-y,-z
x,y,1/2-z
-x,y,z
x,-y,1/2+z
1/2+x,1/2+y,z
1/2-x,1/2-y,1/2+z
1/2+x,1/2-y,-z
1/2-x,1/2+y,1/2-z
1/2-x,1/2-y,-z
1/2+x,1/2+y,1/2-z
1/2-x,1/2+y,z
1/2+x,1/2-y,1/2+z
loop_
_atom_site_type_symbol
_atom_site_label
_atom_site_fract_x
_atom_site_fract_y
_atom_site_fract_z
Si Si1 0.666062 0.425957 0.317734
Si Si2 0.160606 0.657385 0.316711
Si Si3 0.662154 0.384322 0.981825
Si Si4 0.161530 0.774708 0.596285
Si Si5 0.335080 0.139425 0.589769
Si Si6 0.164480 0.053419 0.135416
O O1 0.708652 0.428512 0.250000
O O2 0.500000 0.411249 0.325173
O O3 0.758803 0.375930 0.349324
O O4 0.706339 0.487143 0.348960
O O5 0.162346 0.676024 0.250000
O O6 0.234243 0.710803 0.350711
O O7 0.242293 0.596039 0.324736
O O8 0.000000 0.649521 0.339844
O O9 0.500000 0.389755 0.003781
O O10 0.692825 0.319068 0.956786
O O11 0.694541 0.433513 0.932690
O O12 0.763902 0.396453 0.036631
O O13 0.187687 0.708240 0.576137
O O14 0.000000 0.783931 0.618210
O O15 0.500000 0.122111 0.593988
O O16 0.000000 0.066113 0.150262
#
# Coordination Sequence:
#
# PCOD8258399 Si02
#       6
#    16  16  16  16  16  16
#     4  10  22  40  60  80 106 146 190 226 265 317
#     4  10  20  32  51  82 113 140 176 227 282 328
#     4   9  18  35  59  84 108 136 177 227 274 323
#     4   9  20  37  55  77 107 147 188 223 267 323
#     4  11  23  37  55  81 113 147 182 222 270 323
#     4   9  19  37  60  83 107 140 183 227 271 323
#
# _framework density 19.617421
#
# number of rings (size 3 to 8) (size 9 to 14) (size 15 to 20)
#    0.000    2.333    0.000    3.000    0.000    8.333 
#    0.000    6.667    0.000    0.000    0.000    0.000 
#    0.000    0.000    0.000    0.000    0.000    0.000 
#
# Total GULP energy -595310.014024 kJ/mol
# GULP energy per Si atom -12402.291959 kJ/mol
# Density = 1.957277 g / cm^3
# Si number density = 19.617421 Si / 1000 Ang^3
#
#
#
# Elastic Constant Matrix: (Units=GPa)
#
#
# Indices 1 2 3 4 5 6 
#
# 1 102.0528 27.4052 61.6313 0.0000 0.0000 0.0000
# 2 27.4052 53.9592 34.7326 0.0000 0.0000 0.0000
# 3 61.6313 34.7326 112.7862 0.0000 0.0000 0.0000
# 4 0.0000 0.0000 0.0000 20.3788 0.0000 0.0000
# 5 0.0000 0.0000 0.0000 0.0000 34.6579 0.0000
# 6 0.0000 0.0000 0.0000 0.0000 0.0000 24.3200
#
#
#
# Elastic Compliance Matrix: (Units=1/GPa)
#
#
# Indices 1 2 3 4 5 6 
#
# 1 0.014985 -0.002918 -0.007290 0.000000 0.000000 0.000000
# 2 -0.002918 0.023683 -0.005698 0.000000 0.000000 0.000000
# 3 -0.007290 -0.005698 0.014605 0.000000 0.000000 0.000000
# 4 0.000000 0.000000 0.000000 0.049071 0.000000 0.000000
# 5 0.000000 0.000000 0.000000 0.000000 0.028853 0.000000
# 6 0.000000 0.000000 0.000000 0.000000 0.000000 0.041118
#
#
# Mechanical properties :
#
#
# Convention : Reuss Voigt Hill
#
# Bulk Modulus (GPa) = 46.59993 57.37068 51.98530
# Shear Modulus (GPa) = 23.66521 25.53994 24.60257
#
# Velocity S-wave (km/s) = 3.47700 3.61210 3.54520
# Velocity P-wave (km/s) = 6.31865 6.83408 6.58141
#
# Compressibility (1/GPa) = 0.02145926
#
# Stress axis : x y z
#
# Youngs Moduli (GPa) = 66.73374 42.22495 68.47179
#
# Poissons Ratio (x) = 0.12323 0.49914
# Poissons Ratio (y) = 0.19476 0.39018
# Poissons Ratio (z) = 0.48647 0.24061
#
# Static dielectric constant tensor:
#      x y z
#    x 3.604560 0.000000 0.000000 
#    y 0.000000 3.520590 0.000000 
#    z 0.000000 0.000000 3.440510 
# 
# 
# High freq. dielectric constant tensor:
#      x y z
#    x 1.764790 0.000000 0.000000 
#    y 0.000000 1.755530 0.000000 
#    z 0.000000 0.000000 1.763360 
# 
# From -- ./inp_files/59864.got.cif
#   From: 2010.03.12/outbox.cif.g09.slc.cpg/sg63_30_cif.got.tgz:59864.got - 2010.04.10 19:34:48.
