data_PCOD8258442
_publ_section_title
;
Structure prediction by ZEFSAII (Michael W. Deem and Ramdas Pophale) SiO2 
 PCOD8258442
Probable space group: C M C M
;
_chemical_formula_sum "Si O2"
_cell_formula_units_Z 80
_cell_length_a 13.519101
_cell_length_b 34.079217
_cell_length_c 9.024151
_cell_angle_alpha 90.000000
_cell_angle_beta 90.000000
_cell_angle_gamma 90.000000
_cell_volume 4157.610247
_symmetry_space_group_name_H-M "C M C M"
_symmetry_group_IT_number 63
_symmetry_cell_setting 'orthorhombic'
loop_
_space_group_symop_operation_xyz
x,y,z
-x,-y,1/2+z
x,-y,-z
-x,y,1/2-z
-x,-y,-z
x,y,1/2-z
-x,y,z
x,-y,1/2+z
1/2+x,1/2+y,z
1/2-x,1/2-y,1/2+z
1/2+x,1/2-y,-z
1/2-x,1/2+y,1/2-z
1/2-x,1/2-y,-z
1/2+x,1/2+y,1/2-z
1/2-x,1/2+y,z
1/2+x,1/2-y,1/2+z
loop_
_atom_site_type_symbol
_atom_site_label
_atom_site_fract_x
_atom_site_fract_y
_atom_site_fract_z
Si Si1 0.889172 0.339333 0.080741
Si Si2 0.202648 0.113525 0.920933
Si Si3 0.383326 0.686562 0.415522
Si Si4 0.614139 0.540327 0.076648
Si Si5 0.881853 0.262361 0.582521
O O1 0.888639 0.324615 0.250000
O O2 0.819095 0.377025 0.060238
O O3 0.000000 0.351376 0.031243
O O4 0.845160 0.303973 0.982239
O O5 0.173399 0.107112 0.750000
O O6 0.138913 0.149334 0.982974
O O7 0.181955 0.074430 0.012012
O O8 0.339597 0.680894 0.250000
O O9 0.500000 0.691306 0.407302
O O10 0.337287 0.726262 0.486916
O O11 0.633875 0.536376 0.250000
O O12 0.500000 0.550309 0.042372
O O13 0.646008 0.500000 0.000000
O O14 0.843868 0.257987 0.750000
O O15 0.000000 0.261527 0.574385
#
# Coordination Sequence:
#
# PCOD8258442 Si02
#       5
#    16  16  16  16  16
#     4   9  19  36  54  72  99 137 179 220 262 307
#     4  11  22  34  53  80 106 135 172 215 260 305
#     4  10  20  33  49  71 103 141 176 213 260 313
#     4  10  21  38  60  85 113 142 168 198 243 302
#     4   9  17  30  49  72  98 132 176 223 266 307
#
# _framework density 19.241823
#
# number of rings (size 3 to 8) (size 9 to 14) (size 15 to 20)
#    0.000    2.200    0.000    3.000    0.000    9.600 
#    0.000    0.000    0.000    0.600    0.000    0.000 
#    0.000    0.000    0.000    0.000    0.000    0.000 
#
# Total GULP energy -496143.526554 kJ/mol
# GULP energy per Si atom -12403.588164 kJ/mol
# Density = 1.919803 g / cm^3
# Si number density = 19.241823 Si / 1000 Ang^3
#
#
#
# Elastic Constant Matrix: (Units=GPa)
#
#
# Indices 1 2 3 4 5 6 
#
# 1 47.4265 44.0544 34.8114 0.0000 0.0000 0.0000
# 2 44.0544 145.8993 67.1810 0.0000 0.0000 0.0000
# 3 34.8114 67.1810 120.0509 0.0000 0.0000 0.0000
# 4 0.0000 0.0000 0.0000 41.1263 0.0000 0.0000
# 5 0.0000 0.0000 0.0000 0.0000 21.2816 0.0000
# 6 0.0000 0.0000 0.0000 0.0000 0.0000 28.6407
#
#
#
# Elastic Compliance Matrix: (Units=1/GPa)
#
#
# Indices 1 2 3 4 5 6 
#
# 1 0.031490 -0.007145 -0.005133 0.000000 0.000000 0.000000
# 2 -0.007145 0.010854 -0.004002 0.000000 0.000000 0.000000
# 3 -0.005133 -0.004002 0.012058 0.000000 0.000000 0.000000
# 4 0.000000 0.000000 0.000000 0.024315 0.000000 0.000000
# 5 0.000000 0.000000 0.000000 0.000000 0.046989 0.000000
# 6 0.000000 0.000000 0.000000 0.000000 0.000000 0.034915
#
#
# Mechanical properties :
#
#
# Convention : Reuss Voigt Hill
#
# Bulk Modulus (GPa) = 45.78363 67.27449 56.52906
# Shear Modulus (GPa) = 24.94237 29.36506 27.15371
#
# Velocity S-wave (km/s) = 3.60426 3.91078 3.76065
# Velocity P-wave (km/s) = 6.41611 7.44519 6.94972
#
# Compressibility (1/GPa) = 0.02184187
#
# Stress axis : x y z
#
# Youngs Moduli (GPa) = 31.75650 92.12889 82.93321
#
# Poissons Ratio (x) = 0.65825 0.42568
# Poissons Ratio (y) = 0.22690 0.33193
# Poissons Ratio (z) = 0.16300 0.36873
#
# Static dielectric constant tensor:
#      x y z
#    x 3.479700 0.000000 0.000000 
#    y 0.000000 3.371940 0.000000 
#    z 0.000000 0.000000 3.739920 
# 
# 
# High freq. dielectric constant tensor:
#      x y z
#    x 1.746020 0.000000 0.000000 
#    y 0.000000 1.728830 0.000000 
#    z 0.000000 0.000000 1.764100 
# 
# From -- ./inp_files/6639.got.cif
#   From: 2010.03.12/outbox.cif.g09.slc.cpg/sg63_4_cif.got.tgz:6639.got - 2010.04.10 19:34:48.
