data_PCOD8258903
_publ_section_title
;
Structure prediction by ZEFSAII (Michael W. Deem and Ramdas Pophale) SiO2 
 PCOD8258903
Probable space group: C M C M
;
_chemical_formula_sum "Si O2"
_cell_formula_units_Z 80
_cell_length_a 18.302594
_cell_length_b 25.933864
_cell_length_c 8.973880
_cell_angle_alpha 90.000000
_cell_angle_beta 90.000000
_cell_angle_gamma 90.000000
_cell_volume 4259.514812
_symmetry_space_group_name_H-M "C M C M"
_symmetry_group_IT_number 63
_symmetry_cell_setting 'orthorhombic'
loop_
_space_group_symop_operation_xyz
x,y,z
-x,-y,1/2+z
x,-y,-z
-x,y,1/2-z
-x,-y,-z
x,y,1/2-z
-x,y,z
x,-y,1/2+z
1/2+x,1/2+y,z
1/2-x,1/2-y,1/2+z
1/2+x,1/2-y,-z
1/2-x,1/2+y,1/2-z
1/2-x,1/2-y,-z
1/2+x,1/2+y,1/2-z
1/2-x,1/2+y,z
1/2+x,1/2-y,1/2+z
loop_
_atom_site_type_symbol
_atom_site_label
_atom_site_fract_x
_atom_site_fract_y
_atom_site_fract_z
Si Si1 0.414038 0.845111 0.923246
Si Si2 0.087079 0.949741 0.417827
Si Si3 0.916638 0.847713 0.924229
Si Si4 0.086847 0.449327 0.418248
Si Si5 0.328376 0.247020 0.926632
O O1 0.392876 0.843146 0.750000
O O2 0.500000 0.837231 0.947801
O O3 0.387409 0.899574 0.989283
O O4 0.372594 0.801125 0.011884
O O5 0.116079 0.950685 0.250000
O O6 0.116574 0.897887 0.495122
O O7 0.000000 0.950543 0.425831
O O8 0.119241 0.000000 0.500000
O O9 0.911207 0.858290 0.750000
O O10 0.870697 0.798507 0.974253
O O11 0.000000 0.837671 0.973414
O O12 0.118537 0.500000 0.500000
O O13 0.117908 0.446585 0.250000
O O14 0.000000 0.452113 0.414318
O O15 0.321426 0.241899 0.750000
O O16 0.250000 0.250000 0.000000
#
# Coordination Sequence:
#
# PCOD8258903 Si02
#       5
#    16  16  16  16  16
#     4  10  20  34  54  80 108 138 175 218 261 309
#     4   9  16  26  44  72 104 134 164 202 248 297
#     4   9  18  33  53  76 102 133 170 211 254 302
#     4   9  16  27  46  74 107 139 171 210 257 307
#     4  11  23  38  55  75 103 139 177 218 266 316
#
# _framework density 18.781483000000001
#
# number of rings (size 3 to 8) (size 9 to 14) (size 15 to 20)
#    0.000    2.400    0.000    3.000    0.000    8.400 
#    0.000    2.000    0.000    1.200    0.000    2.800 
#    0.000    0.000    0.000    0.000    0.000    0.000 
#
# Total GULP energy -496049.754907 kJ/mol
# GULP energy per Si atom -12401.243873 kJ/mol
# Density = 1.873874 g / cm^3
# Si number density = 18.781483 Si / 1000 Ang^3
#
#
#
# Elastic Constant Matrix: (Units=GPa)
#
#
# Indices 1 2 3 4 5 6 
#
# 1 49.2664 56.0141 39.8737 0.0000 0.0000 0.0000
# 2 56.0141 205.4238 89.3005 0.0000 0.0000 0.0000
# 3 39.8737 89.3005 114.1182 0.0000 0.0000 0.0000
# 4 0.0000 0.0000 0.0000 43.4406 0.0000 0.0000
# 5 0.0000 0.0000 0.0000 0.0000 21.5297 0.0000
# 6 0.0000 0.0000 0.0000 0.0000 0.0000 -4.5657
#
#
#
# Elastic Compliance Matrix: (Units=1/GPa)
#
#
# Indices 1 2 3 4 5 6 
#
# 1 0.032476 -0.005945 -0.006695 0.000000 0.000000 0.000000
# 2 -0.005945 0.008466 -0.004548 0.000000 0.000000 0.000000
# 3 -0.006695 -0.004548 0.014661 0.000000 0.000000 0.000000
# 4 0.000000 0.000000 0.000000 0.023020 0.000000 0.000000
# 5 0.000000 0.000000 0.000000 0.000000 0.046447 0.000000
# 6 0.000000 0.000000 0.000000 0.000000 0.000000 -0.219025
#
#
# Mechanical properties :
#
#
# Convention : Reuss Voigt Hill
#
# Bulk Modulus (GPa) = 47.10976 82.13167 64.62072
# Shear Modulus (GPa) = -95.23049 24.32226 -35.45412
#
# Velocity S-wave (km/s) = -7.12843 3.60253 -4.34950
# Velocity P-wave (km/s) = 6.52803 7.81853 3.04255
#
# Compressibility (1/GPa) = 0.02122702
#
# Stress axis : x y z
#
# Youngs Moduli (GPa) = 30.79229 118.12072 68.20876
#
# Poissons Ratio (x) = 0.70220 0.45668
# Poissons Ratio (y) = 0.18305 0.31019
# Poissons Ratio (z) = 0.20616 0.53717
#
# Static dielectric constant tensor:
#      x y z
#    x 3.093990 0.000000 0.000000 
#    y 0.000000 3.694680 0.000000 
#    z 0.000000 0.000000 3.643000 
# 
# 
# High freq. dielectric constant tensor:
#      x y z
#    x 1.675970 0.000000 0.000000 
#    y 0.000000 1.750150 0.000000 
#    z 0.000000 0.000000 1.743990 
# 
# From -- ./inp_files/6408.got.cif
#   From: 2010.03.12/outbox.cif.g09.slc.cpg/sg63_4_cif.got.tgz:6408.got - 2010.04.10 19:34:48.
