data_PCOD8258969
_publ_section_title
;
Structure prediction by ZEFSAII (Michael W. Deem and Ramdas Pophale) SiO2 
 PCOD8258969
Probable space group: C M C M
;
_chemical_formula_sum "Si O2"
_cell_formula_units_Z 80
_cell_length_a 8.850989
_cell_length_b 26.709367
_cell_length_c 18.299031
_cell_angle_alpha 90.000000
_cell_angle_beta 90.000000
_cell_angle_gamma 90.000000
_cell_volume 4325.969862
_symmetry_space_group_name_H-M "C M C M"
_symmetry_group_IT_number 63
_symmetry_cell_setting 'orthorhombic'
loop_
_space_group_symop_operation_xyz
x,y,z
-x,-y,1/2+z
x,-y,-z
-x,y,1/2-z
-x,-y,-z
x,y,1/2-z
-x,y,z
x,-y,1/2+z
1/2+x,1/2+y,z
1/2-x,1/2-y,1/2+z
1/2+x,1/2-y,-z
1/2-x,1/2+y,1/2-z
1/2-x,1/2-y,-z
1/2+x,1/2+y,1/2-z
1/2-x,1/2+y,z
1/2+x,1/2-y,1/2+z
loop_
_atom_site_type_symbol
_atom_site_label
_atom_site_fract_x
_atom_site_fract_y
_atom_site_fract_z
Si Si1 0.324832 0.180489 0.457548
Si Si2 0.678203 0.677727 0.750000
Si Si3 0.324063 0.069882 0.750000
Si Si4 0.826589 0.922232 0.964510
Si Si5 0.675868 0.227985 0.611296
Si Si6 0.826234 0.023954 0.886451
O O1 0.500000 0.188785 0.440190
O O2 0.280343 0.123409 0.442363
O O3 0.287108 0.193647 0.541371
O O4 0.229185 0.215463 0.403505
O O5 0.500000 0.677266 0.750000
O O6 0.734120 0.621226 0.750000
O O7 0.733670 0.706118 0.821352
O O8 0.500000 0.082417 0.750000
O O9 0.283767 0.037504 0.679229
O O10 0.000000 0.904452 0.963426
O O11 0.799878 0.966008 0.905976
O O12 0.783350 0.941564 0.044858
O O13 0.500000 0.228163 0.630517
O O14 0.000000 0.032896 0.863747
#
# Coordination Sequence:
#
# PCOD8258969 Si02
#       6
#    16   8   8  16  16  16
#     4  10  20  34  55  82 110 142 179 220 266 316
#     4  12  24  38  57  80 109 142 176 219 269 319
#     4  12  24  36  53  80 111 142 176 215 263 317
#     4   9  18  34  57  81 105 138 180 223 267 316
#     4  10  21  37  56  80 110 142 179 221 265 317
#     4   9  19  36  56  79 107 140 179 221 266 316
#
# _framework density 18.492963
#
# number of rings (size 3 to 8) (size 9 to 14) (size 15 to 20)
#    0.000    2.000    0.000    5.400    0.000    7.200 
#    0.000    3.000    0.000    3.600    0.000    0.000 
#    0.000    0.000    0.000    0.000    0.000    0.000 
#
# Total GULP energy -496184.343867 kJ/mol
# GULP energy per Si atom -12404.608597 kJ/mol
# Density = 1.845087 g / cm^3
# Si number density = 18.492963 Si / 1000 Ang^3
#
#
#
# Elastic Constant Matrix: (Units=GPa)
#
#
# Indices 1 2 3 4 5 6 
#
# 1 111.4839 49.0697 57.6619 0.0000 0.0000 0.0000
# 2 49.0697 118.6901 44.6359 0.0000 0.0000 0.0000
# 3 57.6619 44.6359 102.1282 0.0000 0.0000 0.0000
# 4 0.0000 0.0000 0.0000 17.3765 0.0000 0.0000
# 5 0.0000 0.0000 0.0000 0.0000 2.7122 0.0000
# 6 0.0000 0.0000 0.0000 0.0000 0.0000 36.5153
#
#
#
# Elastic Compliance Matrix: (Units=1/GPa)
#
#
# Indices 1 2 3 4 5 6 
#
# 1 0.013664 -0.003288 -0.006278 0.000000 0.000000 0.000000
# 2 -0.003288 0.010874 -0.002896 0.000000 0.000000 0.000000
# 3 -0.006278 -0.002896 0.014602 0.000000 0.000000 0.000000
# 4 0.000000 0.000000 0.000000 0.057549 0.000000 0.000000
# 5 0.000000 0.000000 0.000000 0.000000 0.368700 0.000000
# 6 0.000000 0.000000 0.000000 0.000000 0.000000 0.027386
#
#
# Mechanical properties :
#
#
# Convention : Reuss Voigt Hill
#
# Bulk Modulus (GPa) = 70.34345 70.55968 70.45156
# Shear Modulus (GPa) = 9.57053 23.38311 16.47682
#
# Velocity S-wave (km/s) = 2.27738 3.55974 2.98816
# Velocity P-wave (km/s) = 6.71087 7.42519 7.07705
#
# Compressibility (1/GPa) = 0.01421597
#
# Stress axis : x y z
#
# Youngs Moduli (GPa) = 73.18395 91.96389 68.48522
#
# Poissons Ratio (x) = 0.30240 0.42993
# Poissons Ratio (y) = 0.24065 0.19833
# Poissons Ratio (z) = 0.45943 0.26632
#
# Static dielectric constant tensor:
#      x y z
#    x 3.379070 0.000000 0.000000 
#    y 0.000000 3.403530 0.000000 
#    z 0.000000 0.000000 3.341390 
# 
# 
# High freq. dielectric constant tensor:
#      x y z
#    x 1.722880 0.000000 0.000000 
#    y 0.000000 1.724320 0.000000 
#    z 0.000000 0.000000 1.707360 
# 
# From -- ./inp_files/40603.got.cif
#   From: 2010.03.12/outbox.cif.g09.slc.cpg/sg63_21_cif.got.tgz:40603.got - 2010.04.10 19:34:48.
