data_PCOD8258122
_publ_section_title
;
Structure prediction by ZEFSAII (Michael W. Deem and Ramdas Pophale) SiO2 
 PCOD8258122
Probable space group: C M C M
;
_chemical_formula_sum "Si O2"
_cell_formula_units_Z 128
_cell_length_a 24.699380
_cell_length_b 10.350836
_cell_length_c 24.042646
_cell_angle_alpha 90.000000
_cell_angle_beta 90.000000
_cell_angle_gamma 90.000000
_cell_volume 6146.724404
_symmetry_space_group_name_H-M "C M C M"
_symmetry_group_IT_number 63
_symmetry_cell_setting 'orthorhombic'
loop_
_space_group_symop_operation_xyz
x,y,z
-x,-y,1/2+z
x,-y,-z
-x,y,1/2-z
-x,-y,-z
x,y,1/2-z
-x,y,z
x,-y,1/2+z
1/2+x,1/2+y,z
1/2-x,1/2-y,1/2+z
1/2+x,1/2-y,-z
1/2-x,1/2+y,1/2-z
1/2-x,1/2-y,-z
1/2+x,1/2+y,1/2-z
1/2-x,1/2+y,z
1/2+x,1/2-y,1/2+z
loop_
_atom_site_type_symbol
_atom_site_label
_atom_site_fract_x
_atom_site_fract_y
_atom_site_fract_z
Si Si1 0.389828 0.707526 0.508902
Si Si2 0.166690 0.582894 0.950853
Si Si3 0.127762 0.019997 0.083226
Si Si4 0.289312 0.247163 0.186774
Si Si5 0.060042 0.430230 0.923956
Si Si6 0.914847 0.297349 0.812030
Si Si7 0.939783 0.007130 0.811825
Si Si8 0.759274 0.003246 0.126705
O O1 0.338741 0.774884 0.477674
O O2 0.375111 0.630287 0.565022
O O3 0.406935 0.605277 0.461038
O O4 0.432291 0.814050 0.530889
O O5 0.106204 0.537031 0.933206
O O6 0.208445 0.570455 0.900890
O O7 0.192177 0.500000 0.000000
O O8 0.101688 0.049147 0.143156
O O9 0.192173 0.045261 0.085362
O O10 0.270986 0.233235 0.250000
O O11 0.351740 0.219428 0.177307
O O12 0.279632 0.396005 0.170052
O O13 0.257008 0.139143 0.153094
O O14 0.061195 0.388336 0.859592
O O15 0.000000 0.487696 0.935207
O O16 0.925204 0.356548 0.750000
O O17 0.944287 0.160696 0.816351
O O18 0.919294 0.966983 0.750000
O O19 0.000000 0.951176 0.822643
#
# Coordination Sequence:
#
# PCOD8258122 Si02
#       8
#    16  16  16  16  16  16  16  16
#     4  10  23  40  56  88 122 157 202 248 305 363
#     4  10  24  40  59  86 116 157 207 250 300 362
#     4  11  23  38  60  89 122 161 201 247 306 366
#     4  11  23  39  63  93 125 162 202 249 306 369
#     4  11  21  40  64  88 121 159 202 253 308 364
#     4  10  19  36  60  88 119 151 199 252 301 359
#     4  10  20  36  60  88 118 154 198 250 302 354
#     4  12  23  40  63  88 125 163 204 253 307 360
#
# _framework density 20.824099
#
# number of rings (size 3 to 8) (size 9 to 14) (size 15 to 20)
#    0.000    1.375    3.750    1.500    3.500    4.500 
#    0.000    1.250    0.000    0.750    0.000    0.000 
#    0.000    0.000    0.000    0.000    0.000    0.000 
#
# Total GULP energy -792897.736379 kJ/mol
# GULP energy per Si atom -12389.027131 kJ/mol
# Density = 2.077670 g / cm^3
# Si number density = 20.824099 Si / 1000 Ang^3
#
#
#
# Elastic Constant Matrix: (Units=GPa)
#
#
# Indices 1 2 3 4 5 6 
#
# 1 102.3282 0.5791 39.6733 0.0000 0.0000 0.0000
# 2 0.5791 45.1923 16.7712 0.0000 0.0000 0.0000
# 3 39.6733 16.7712 117.9610 0.0000 0.0000 0.0000
# 4 0.0000 0.0000 0.0000 27.6431 0.0000 0.0000
# 5 0.0000 0.0000 0.0000 0.0000 7.0408 0.0000
# 6 0.0000 0.0000 0.0000 0.0000 0.0000 -8.8678
#
#
#
# Elastic Compliance Matrix: (Units=1/GPa)
#
#
# Indices 1 2 3 4 5 6 
#
# 1 0.011314 0.001338 -0.003995 0.000000 0.000000 0.000000
# 2 0.001338 0.023518 -0.003794 0.000000 0.000000 0.000000
# 3 -0.003995 -0.003794 0.010360 0.000000 0.000000 0.000000
# 4 0.000000 0.000000 0.000000 0.036175 0.000000 0.000000
# 5 0.000000 0.000000 0.000000 0.000000 0.142030 0.000000
# 6 0.000000 0.000000 0.000000 0.000000 0.000000 -0.112768
#
#
# Mechanical properties :
#
#
# Convention : Reuss Voigt Hill
#
# Bulk Modulus (GPa) = 30.96913 42.16985 36.56949
# Shear Modulus (GPa) = 37.23109 19.06043 28.14576
#
# Velocity S-wave (km/s) = 4.23293 3.02868 3.68039
# Velocity P-wave (km/s) = 6.22850 5.70307 5.97157
#
# Compressibility (1/GPa) = 0.03229022
#
# Stress axis : x y z
#
# Youngs Moduli (GPa) = 88.38664 42.51996 96.52064
#
# Poissons Ratio (x) = -0.05688 0.38563
# Poissons Ratio (y) = -0.11824 0.36617
# Poissons Ratio (z) = 0.35314 0.16131
#
# Static dielectric constant tensor:
#      x y z
#    x 3.657840 0.000000 0.000000 
#    y 0.000000 3.732270 0.000000 
#    z 0.000000 0.000000 4.050360 
# 
# 
# High freq. dielectric constant tensor:
#      x y z
#    x 1.808240 0.000000 0.000000 
#    y 0.000000 1.792380 0.000000 
#    z 0.000000 0.000000 1.833070 
# 
# From -- ./inp_files/65184.got.cif
#   From: 2010.03.12/outbox.cif.g09.slc.cpg/sg63_33_cif.got.tgz:65184.got - 2010.04.10 19:34:48.
