data_PCOD8258713
_publ_section_title
;
Structure prediction by ZEFSAII (Michael W. Deem and Ramdas Pophale) SiO2 
 PCOD8258713
Probable space group: C M C M
;
_chemical_formula_sum "Si O2"
_cell_formula_units_Z 96
_cell_length_a 28.568429
_cell_length_b 19.860190
_cell_length_c 9.783377
_cell_angle_alpha 90.000000
_cell_angle_beta 90.000000
_cell_angle_gamma 90.000000
_cell_volume 5550.837929
_symmetry_space_group_name_H-M "C M C M"
_symmetry_group_IT_number 63
_symmetry_cell_setting 'orthorhombic'
loop_
_space_group_symop_operation_xyz
x,y,z
-x,-y,1/2+z
x,-y,-z
-x,y,1/2-z
-x,-y,-z
x,y,1/2-z
-x,y,z
x,-y,1/2+z
1/2+x,1/2+y,z
1/2-x,1/2-y,1/2+z
1/2+x,1/2-y,-z
1/2-x,1/2+y,1/2-z
1/2-x,1/2-y,-z
1/2+x,1/2+y,1/2-z
1/2-x,1/2+y,z
1/2+x,1/2-y,1/2+z
loop_
_atom_site_type_symbol
_atom_site_label
_atom_site_fract_x
_atom_site_fract_y
_atom_site_fract_z
Si Si1 0.866579 0.433210 0.411127
Si Si2 0.447427 0.167464 0.912193
Si Si3 0.094326 0.194282 0.087846
Si Si4 0.198348 0.188471 0.404553
Si Si5 0.222838 0.655617 0.903157
Si Si6 0.945323 0.055669 0.400928
O O1 0.864602 0.500000 0.500000
O O2 0.867822 0.450384 0.250000
O O3 0.913119 0.392783 0.456521
O O4 0.821350 0.388796 0.448794
O O5 0.448283 0.173494 0.750000
O O6 0.500000 0.153506 0.967993
O O7 0.428346 0.237960 0.974995
O O8 0.096475 0.203248 0.250000
O O9 0.146545 0.180491 0.032895
O O10 0.063247 0.130697 0.042165
O O11 0.201918 0.160947 0.250000
O O12 0.208978 0.267017 0.409410
O O13 0.233779 0.143643 0.494849
O O14 0.238439 0.635773 0.750000
O O15 0.922585 0.048103 0.250000
O O16 0.000000 0.042627 0.391132
O O17 0.922071 0.000000 0.500000
#
# Coordination Sequence:
#
# PCOD8258713 Si02
#       6
#    16  16  16  16  16  16
#     4  10  20  34  51  72 100 133 167 205 249 295
#     4   9  16  28  49  75  99 125 164 210 249 287
#     4   9  15  27  48  74  98 123 158 202 242 281
#     4   9  16  28  50  74  95 118 153 198 240 281
#     4   9  17  31  48  69  96 124 155 194 238 285
#     4   9  17  29  46  68  94 125 158 190 230 283
#
# _framework density 17.294685999999999
#
# number of rings (size 3 to 8) (size 9 to 14) (size 15 to 20)
#    0.000    2.833    1.667    0.500    0.000    3.000 
#    0.000    1.667    0.000    5.000    0.000    0.000 
#    0.000    0.000    0.000    0.000    0.000    0.000 
#
# Total GULP energy -594964.939029 kJ/mol
# GULP energy per Si atom -12395.102896 kJ/mol
# Density = 1.725532 g / cm^3
# Si number density = 17.294686 Si / 1000 Ang^3
#
#
#
# Elastic Constant Matrix: (Units=GPa)
#
#
# Indices 1 2 3 4 5 6 
#
# 1 120.3846 52.2833 42.4244 0.0000 0.0000 0.0000
# 2 52.2833 76.1655 37.9642 0.0000 0.0000 0.0000
# 3 42.4244 37.9642 49.6315 0.0000 0.0000 0.0000
# 4 0.0000 0.0000 0.0000 23.1897 0.0000 0.0000
# 5 0.0000 0.0000 0.0000 0.0000 16.7302 0.0000
# 6 0.0000 0.0000 0.0000 0.0000 0.0000 26.0167
#
#
#
# Elastic Compliance Matrix: (Units=1/GPa)
#
#
# Indices 1 2 3 4 5 6 
#
# 1 0.013197 -0.005554 -0.007033 0.000000 0.000000 0.000000
# 2 -0.005554 0.023557 -0.013272 0.000000 0.000000 0.000000
# 3 -0.007033 -0.013272 0.036312 0.000000 0.000000 0.000000
# 4 0.000000 0.000000 0.000000 0.043123 0.000000 0.000000
# 5 0.000000 0.000000 0.000000 0.000000 0.059772 0.000000
# 6 0.000000 0.000000 0.000000 0.000000 0.000000 0.038437
#
#
# Mechanical properties :
#
#
# Convention : Reuss Voigt Hill
#
# Bulk Modulus (GPa) = 46.83973 56.83617 51.83795
# Shear Modulus (GPa) = 18.29959 20.75462 19.52710
#
# Velocity S-wave (km/s) = 3.25638 3.46794 3.36383
# Velocity P-wave (km/s) = 6.42501 6.99787 6.71755
#
# Compressibility (1/GPa) = 0.02134940
#
# Stress axis : x y z
#
# Youngs Moduli (GPa) = 75.77480 42.45034 27.53926
#
# Poissons Ratio (x) = 0.23576 0.19367
# Poissons Ratio (y) = 0.42083 0.36550
# Poissons Ratio (z) = 0.53289 0.56340
#
# Static dielectric constant tensor:
#      x y z
#    x 3.420080 0.000000 0.000000 
#    y 0.000000 3.114840 0.000000 
#    z 0.000000 0.000000 3.110600 
# 
# 
# High freq. dielectric constant tensor:
#      x y z
#    x 1.672660 0.000000 0.000000 
#    y 0.000000 1.658060 0.000000 
#    z 0.000000 0.000000 1.627150 
# 
# From -- ./inp_files/23925.got.cif
#   From: 2010.03.12/outbox.cif.g09.slc.cpg/sg63_12_cif.got.tgz:23925.got - 2010.04.10 19:34:48.
