data_PCOD8258821
_publ_section_title
;
Structure prediction by ZEFSAII (Michael W. Deem and Ramdas Pophale) SiO2 
 PCOD8258821
Probable space group: C M C M
;
_chemical_formula_sum "Si O2"
_cell_formula_units_Z 80
_cell_length_a 9.165038
_cell_length_b 25.968966
_cell_length_c 17.672404
_cell_angle_alpha 90.000000
_cell_angle_beta 90.000000
_cell_angle_gamma 90.000000
_cell_volume 4206.148087
_symmetry_space_group_name_H-M "C M C M"
_symmetry_group_IT_number 63
_symmetry_cell_setting 'orthorhombic'
loop_
_space_group_symop_operation_xyz
x,y,z
-x,-y,1/2+z
x,-y,-z
-x,y,1/2-z
-x,-y,-z
x,y,1/2-z
-x,y,z
x,-y,1/2+z
1/2+x,1/2+y,z
1/2-x,1/2-y,1/2+z
1/2+x,1/2-y,-z
1/2-x,1/2+y,1/2-z
1/2-x,1/2-y,-z
1/2+x,1/2+y,1/2-z
1/2-x,1/2+y,z
1/2+x,1/2-y,1/2+z
loop_
_atom_site_type_symbol
_atom_site_label
_atom_site_fract_x
_atom_site_fract_y
_atom_site_fract_z
Si Si1 0.166803 0.687293 0.423359
Si Si2 0.832161 0.089036 0.076853
Si Si3 0.333613 0.701930 0.925725
Si Si4 0.336073 0.408197 0.397555
Si Si5 0.831881 0.500619 0.337070
O O1 0.262926 0.641364 0.387638
O O2 0.212801 0.697884 0.509408
O O3 0.186875 0.743246 0.381504
O O4 0.000000 0.668747 0.420180
O O5 0.000000 0.087877 0.099924
O O6 0.757027 0.039167 0.110844
O O7 0.807464 0.087762 0.987235
O O8 0.500000 0.699849 0.959888
O O9 0.313917 0.651697 0.872095
O O10 0.500000 0.426901 0.378785
O O11 0.223489 0.442740 0.351424
O O12 0.808245 0.515391 0.250000
O O13 0.000000 0.503477 0.360236
#
# Coordination Sequence:
#
# PCOD8258821 Si02
#       5
#    16  16  16  16  16
#     4   9  15  25  45  73 104 134 162 198 245 290
#     4  10  20  34  53  77 103 131 166 206 247 297
#     4   8  15  27  44  71 105 134 162 198 241 292
#     4   9  18  33  53  77 103 131 165 203 242 291
#     4  11  24  38  51  71  99 130 167 211 255 298
#
# _framework density 19.019777999999999
#
# number of rings (size 3 to 8) (size 9 to 14) (size 15 to 20)
#    0.000    2.600    0.000    3.600    0.000    8.800 
#    0.000    0.000    0.000    1.200    0.000    2.800 
#    0.000    0.000    0.000    0.000    0.000    0.000 
#
# Total GULP energy -495671.453857 kJ/mol
# GULP energy per Si atom -12391.786346 kJ/mol
# Density = 1.897649 g / cm^3
# Si number density = 19.019778 Si / 1000 Ang^3
#
#
#
# Elastic Constant Matrix: (Units=GPa)
#
#
# Indices 1 2 3 4 5 6 
#
# 1 114.1435 53.1749 19.6047 0.0000 0.0000 0.0000
# 2 53.1749 126.9223 7.7852 0.0000 0.0000 0.0000
# 3 19.6047 7.7852 16.1221 0.0000 0.0000 0.0000
# 4 0.0000 0.0000 0.0000 2.2113 0.0000 0.0000
# 5 0.0000 0.0000 0.0000 0.0000 17.5115 0.0000
# 6 0.0000 0.0000 0.0000 0.0000 0.0000 37.7682
#
#
#
# Elastic Compliance Matrix: (Units=1/GPa)
#
#
# Indices 1 2 3 4 5 6 
#
# 1 0.013370 -0.004745 -0.013967 0.000000 0.000000 0.000000
# 2 -0.004745 0.009803 0.001036 0.000000 0.000000 0.000000
# 3 -0.013967 0.001036 0.078511 0.000000 0.000000 0.000000
# 4 0.000000 0.000000 0.000000 0.452213 0.000000 0.000000
# 5 0.000000 0.000000 0.000000 0.000000 0.057105 0.000000
# 6 0.000000 0.000000 0.000000 0.000000 0.000000 0.026477
#
#
# Mechanical properties :
#
#
# Convention : Reuss Voigt Hill
#
# Bulk Modulus (GPa) = 15.07564 46.47975 30.77770
# Shear Modulus (GPa) = 7.19483 23.27308 15.23395
#
# Velocity S-wave (km/s) = 1.94706 3.50183 2.83318
# Velocity P-wave (km/s) = 3.60530 6.39070 5.18841
#
# Compressibility (1/GPa) = 0.06633215
#
# Stress axis : x y z
#
# Youngs Moduli (GPa) = 74.79268 102.00779 12.73706
#
# Poissons Ratio (x) = 0.48401 0.17790
# Poissons Ratio (y) = 0.35488 -0.01319
# Poissons Ratio (z) = 1.04465 -0.10567
#
# Static dielectric constant tensor:
#      x y z
#    x 3.601670 0.000000 0.000000 
#    y 0.000000 4.113070 0.000000 
#    z 0.000000 0.000000 2.838270 
# 
# 
# High freq. dielectric constant tensor:
#      x y z
#    x 1.750640 0.000000 0.000000 
#    y 0.000000 1.771640 0.000000 
#    z 0.000000 0.000000 1.662120 
# 
# From -- ./inp_files/40536.got.cif
#   From: 2010.03.12/outbox.cif.g09.slc.cpg/sg63_21_cif.got.tgz:40536.got - 2010.04.10 19:34:48.
