data_PCOD8258924
_publ_section_title
;
Structure prediction by ZEFSAII (Michael W. Deem and Ramdas Pophale) SiO2 
 PCOD8258924
Probable space group: C M C M
;
_chemical_formula_sum "Si O2"
_cell_formula_units_Z 120
_cell_length_a 26.537063
_cell_length_b 27.892758
_cell_length_c 9.065908
_cell_angle_alpha 90.000000
_cell_angle_beta 90.000000
_cell_angle_gamma 90.000000
_cell_volume 6710.511453
_symmetry_space_group_name_H-M "C M C M"
_symmetry_group_IT_number 63
_symmetry_cell_setting 'orthorhombic'
loop_
_space_group_symop_operation_xyz
x,y,z
-x,-y,1/2+z
x,-y,-z
-x,y,1/2-z
-x,-y,-z
x,y,1/2-z
-x,y,z
x,-y,1/2+z
1/2+x,1/2+y,z
1/2-x,1/2-y,1/2+z
1/2+x,1/2-y,-z
1/2-x,1/2+y,1/2-z
1/2-x,1/2-y,-z
1/2+x,1/2+y,1/2-z
1/2-x,1/2+y,z
1/2+x,1/2-y,1/2+z
loop_
_atom_site_type_symbol
_atom_site_label
_atom_site_fract_x
_atom_site_fract_y
_atom_site_fract_z
Si Si1 0.106226 0.549228 0.921190
Si Si2 0.206450 0.603447 0.580962
Si Si3 0.942149 0.636126 0.081216
Si Si4 0.294785 0.723530 0.080814
Si Si5 0.193897 0.115172 0.424739
Si Si6 0.109865 0.948090 0.075709
Si Si7 0.137494 0.309328 0.418368
Si Si8 0.000000 0.048921 0.581862
O O1 0.093843 0.544017 0.750000
O O2 0.164410 0.563084 0.947826
O O3 0.093565 0.500000 0.000000
O O4 0.069544 0.589262 0.986419
O O5 0.224946 0.602768 0.750000
O O6 0.253354 0.591621 0.475167
O O7 0.183666 0.655411 0.539149
O O8 0.927767 0.625667 0.250000
O O9 0.000000 0.650449 0.063289
O O10 0.910058 0.681296 0.023025
O O11 0.278426 0.720410 0.250000
O O12 0.306099 0.670428 0.020557
O O13 0.345594 0.754568 0.060234
O O14 0.250000 0.750000 0.000000
O O15 0.187591 0.110034 0.250000
O O16 0.148287 0.088918 0.504445
O O17 0.120665 0.953475 0.250000
O O18 0.053529 0.925203 0.045798
O O19 0.115868 0.000000 0.000000
O O20 0.121554 0.320498 0.250000
O O21 0.000000 0.034027 0.750000
O O22 0.000000 0.000000 0.500000
#
# Coordination Sequence:
#
# PCOD8258924 Si02
#       8
#    16  16  16  16  16  16  16   8
#     4  10  21  36  54  76 104 139 179 222 270 323
#     4   9  18  33  51  72 102 139 176 213 260 315
#     4  10  21  36  55  79 105 135 177 226 274 325
#     4  10  20  34  54  81 110 141 178 218 261 311
#     4  11  22  33  51  82 114 143 177 216 261 313
#     4  10  20  36  57  80 108 140 176 218 262 311
#     4   9  18  34  55  77 103 136 176 219 264 318
#     4   8  16  32  56  80  98 128 172 212 256 306
#
# _framework density 17.882393
#
# number of rings (size 3 to 8) (size 9 to 14) (size 15 to 20)
#    0.000    2.267    1.333    2.400    0.000    6.133 
#    0.000    1.333    1.467    0.000    0.000    0.000 
#    0.000    0.000    0.000    0.000    0.000    0.000 
#
# Total GULP energy -743855.983177 kJ/mol
# GULP energy per Si atom -12397.599720 kJ/mol
# Density = 1.784169 g / cm^3
# Si number density = 17.882393 Si / 1000 Ang^3
#
#
#
# Elastic Constant Matrix: (Units=GPa)
#
#
# Indices 1 2 3 4 5 6 
#
# 1 119.1179 39.8439 62.6123 0.0000 0.0000 0.0000
# 2 39.8439 75.9930 38.6974 0.0000 0.0000 0.0000
# 3 62.6123 38.6974 98.4257 0.0000 0.0000 0.0000
# 4 0.0000 0.0000 0.0000 27.3163 0.0000 0.0000
# 5 0.0000 0.0000 0.0000 0.0000 30.5165 0.0000
# 6 0.0000 0.0000 0.0000 0.0000 0.0000 16.6388
#
#
#
# Elastic Compliance Matrix: (Units=1/GPa)
#
#
# Indices 1 2 3 4 5 6 
#
# 1 0.013250 -0.003320 -0.007124 0.000000 0.000000 0.000000
# 2 -0.003320 0.017285 -0.004684 0.000000 0.000000 0.000000
# 3 -0.007124 -0.004684 0.016533 0.000000 0.000000 0.000000
# 4 0.000000 0.000000 0.000000 0.036608 0.000000 0.000000
# 5 0.000000 0.000000 0.000000 0.000000 0.032769 0.000000
# 6 0.000000 0.000000 0.000000 0.000000 0.000000 0.060100
#
#
# Mechanical properties :
#
#
# Convention : Reuss Voigt Hill
#
# Bulk Modulus (GPa) = 59.47643 63.98263 61.72953
# Shear Modulus (GPa) = 23.54002 25.05319 24.29661
#
# Velocity S-wave (km/s) = 3.63213 3.74705 3.69004
# Velocity P-wave (km/s) = 7.13595 7.38768 7.26291
#
# Compressibility (1/GPa) = 0.01681338
#
# Stress axis : x y z
#
# Youngs Moduli (GPa) = 75.47298 57.85426 60.48461
#
# Poissons Ratio (x) = 0.19205 0.43087
# Poissons Ratio (y) = 0.25053 0.28332
# Poissons Ratio (z) = 0.53764 0.27099
#
# Static dielectric constant tensor:
#      x y z
#    x 3.479730 0.000000 0.000000 
#    y 0.000000 3.251090 0.000000 
#    z 0.000000 0.000000 3.403860 
# 
# 
# High freq. dielectric constant tensor:
#      x y z
#    x 1.690630 0.000000 0.000000 
#    y 0.000000 1.673160 0.000000 
#    z 0.000000 0.000000 1.702530 
# 
# From -- ./inp_files/13157.got.cif
#   From: 2010.03.12/outbox.cif.g09.slc.cpg/sg63_7_cif.got.tgz:13157.got - 2010.04.10 19:34:48.
