data_PCOD8258456
_publ_section_title
;
Structure prediction by ZEFSAII (Michael W. Deem and Ramdas Pophale) SiO2 
 PCOD8258456
Probable space group: C M C M
;
_chemical_formula_sum "Si O2"
_cell_formula_units_Z 112
_cell_length_a 20.908162
_cell_length_b 19.103034
_cell_length_c 15.775778
_cell_angle_alpha 90.000000
_cell_angle_beta 90.000000
_cell_angle_gamma 90.000000
_cell_volume 6300.992914
_symmetry_space_group_name_H-M "C M C M"
_symmetry_group_IT_number 63
_symmetry_cell_setting 'orthorhombic'
loop_
_space_group_symop_operation_xyz
x,y,z
-x,-y,1/2+z
x,-y,-z
-x,y,1/2-z
-x,-y,-z
x,y,1/2-z
-x,y,z
x,-y,1/2+z
1/2+x,1/2+y,z
1/2-x,1/2-y,1/2+z
1/2+x,1/2-y,-z
1/2-x,1/2+y,1/2-z
1/2-x,1/2-y,-z
1/2+x,1/2+y,1/2-z
1/2-x,1/2+y,z
1/2+x,1/2-y,1/2+z
loop_
_atom_site_type_symbol
_atom_site_label
_atom_site_fract_x
_atom_site_fract_y
_atom_site_fract_z
Si Si1 0.424929 0.170376 0.152567
Si Si2 0.768998 0.665019 0.921305
Si Si3 0.781420 0.056502 0.347123
Si Si4 0.657581 0.929842 0.959604
Si Si5 0.324666 0.694041 0.424304
Si Si6 0.159383 0.913388 0.154788
Si Si7 0.075286 0.189228 0.554203
O O1 0.401682 0.170354 0.250000
O O2 0.500000 0.158232 0.145755
O O3 0.392027 0.106884 0.103180
O O4 0.405095 0.244551 0.112247
O O5 0.801075 0.734219 0.879689
O O6 0.729355 0.623291 0.850407
O O7 0.826292 0.620299 0.961682
O O8 0.718303 0.683781 0.993186
O O9 0.758742 0.049926 0.250000
O O10 0.721034 0.049787 0.408223
O O11 0.817756 0.130204 0.359254
O O12 0.830996 0.994695 0.370564
O O13 0.626955 0.000000 0.000000
O O14 0.397410 0.700189 0.458992
O O15 0.133797 0.906141 0.250000
O O16 0.105761 0.880671 0.094209
O O17 0.000000 0.179273 0.548132
#
# Coordination Sequence:
#
# PCOD8258456 Si02
#       7
#    16  16  16  16  16  16  16
#     4  10  21  36  54  80 111 142 179 224 273 324
#     4   9  17  31  48  76 100 136 171 217 257 315
#     4  10  21  34  51  77 109 142 176 224 279 322
#     4  11  19  33  55  77 108 143 176 215 268 323
#     4   9  18  32  52  72 103 133 180 217 261 318
#     4  10  20  33  49  76 111 141 175 221 271 321
#     4  10  20  35  56  79 105 140 179 221 269 323
#
# _framework density 17.774977
#
# number of rings (size 3 to 8) (size 9 to 14) (size 15 to 20)
#    0.000    2.143    2.857    0.857    2.000    1.714 
#    0.000    1.429    0.000    1.286    0.000    0.000 
#    0.000    0.000    0.000    0.000    0.000    0.000 
#
# Total GULP energy -694308.366650 kJ/mol
# GULP energy per Si atom -12398.363690 kJ/mol
# Density = 1.773452 g / cm^3
# Si number density = 17.774977 Si / 1000 Ang^3
#
#
#
# Elastic Constant Matrix: (Units=GPa)
#
#
# Indices 1 2 3 4 5 6 
#
# 1 53.4910 37.1614 16.9310 0.0000 0.0000 0.0000
# 2 37.1614 130.3301 29.4662 0.0000 0.0000 0.0000
# 3 16.9310 29.4662 34.7644 0.0000 0.0000 0.0000
# 4 0.0000 0.0000 0.0000 27.8109 0.0000 0.0000
# 5 0.0000 0.0000 0.0000 0.0000 23.1593 0.0000
# 6 0.0000 0.0000 0.0000 0.0000 0.0000 22.9983
#
#
#
# Elastic Compliance Matrix: (Units=1/GPa)
#
#
# Indices 1 2 3 4 5 6 
#
# 1 0.024810 -0.005372 -0.007530 0.000000 0.000000 0.000000
# 2 -0.005372 0.010655 -0.006415 0.000000 0.000000 0.000000
# 3 -0.007530 -0.006415 0.037869 0.000000 0.000000 0.000000
# 4 0.000000 0.000000 0.000000 0.035957 0.000000 0.000000
# 5 0.000000 0.000000 0.000000 0.000000 0.043179 0.000000
# 6 0.000000 0.000000 0.000000 0.000000 0.000000 0.043481
#
#
# Mechanical properties :
#
#
# Convention : Reuss Voigt Hill
#
# Bulk Modulus (GPa) = 28.81738 42.85587 35.83663
# Shear Modulus (GPa) = 20.31265 23.79549 22.05407
#
# Velocity S-wave (km/s) = 3.38415 3.66280 3.52623
# Velocity P-wave (km/s) = 5.61404 6.48465 6.06499
#
# Compressibility (1/GPa) = 0.03470128
#
# Stress axis : x y z
#
# Youngs Moduli (GPa) = 40.30645 93.85445 26.40650
#
# Poissons Ratio (x) = 0.50416 0.19884
# Poissons Ratio (y) = 0.21651 0.16939
# Poissons Ratio (z) = 0.30350 0.60206
#
# Static dielectric constant tensor:
#      x y z
#    x 3.115090 0.000000 0.000000 
#    y 0.000000 3.555440 0.000000 
#    z 0.000000 0.000000 3.154390 
# 
# 
# High freq. dielectric constant tensor:
#      x y z
#    x 1.660600 0.000000 0.000000 
#    y 0.000000 1.702920 0.000000 
#    z 0.000000 0.000000 1.670380 
# 
# From -- ./inp_files/47330.got.cif
#   From: 2010.03.12/outbox.cif.g09.slc.cpg/sg63_24_cif.got.tgz:47330.got - 2010.04.10 19:34:48.
