data_PCOD8258787
_publ_section_title
;
Structure prediction by ZEFSAII (Michael W. Deem and Ramdas Pophale) SiO2 
 PCOD8258787
Probable space group: C M C M
;
_chemical_formula_sum "Si O2"
_cell_formula_units_Z 96
_cell_length_a 12.640913
_cell_length_b 16.784485
_cell_length_c 24.032174
_cell_angle_alpha 90.000000
_cell_angle_beta 90.000000
_cell_angle_gamma 90.000000
_cell_volume 5098.935548
_symmetry_space_group_name_H-M "C M C M"
_symmetry_group_IT_number 63
_symmetry_cell_setting 'orthorhombic'
loop_
_space_group_symop_operation_xyz
x,y,z
-x,-y,1/2+z
x,-y,-z
-x,y,1/2-z
-x,-y,-z
x,y,1/2-z
-x,y,z
x,-y,1/2+z
1/2+x,1/2+y,z
1/2-x,1/2-y,1/2+z
1/2+x,1/2-y,-z
1/2-x,1/2+y,1/2-z
1/2-x,1/2-y,-z
1/2+x,1/2+y,1/2-z
1/2-x,1/2+y,z
1/2+x,1/2-y,1/2+z
loop_
_atom_site_type_symbol
_atom_site_label
_atom_site_fract_x
_atom_site_fract_y
_atom_site_fract_z
Si Si1 0.379938 0.691341 0.886833
Si Si2 0.803620 0.083931 0.982422
Si Si3 0.729064 0.143377 0.405857
Si Si4 0.622179 0.022374 0.907241
Si Si5 0.122981 0.083793 0.186422
Si Si6 0.740762 0.578784 0.813396
O O1 0.500000 0.704000 0.868561
O O2 0.375232 0.628441 0.937456
O O3 0.332673 0.774636 0.905750
O O4 0.315965 0.659187 0.833700
O O5 0.688326 0.063721 0.956543
O O6 0.793191 0.139559 0.036369
O O7 0.858346 0.000000 0.000000
O O8 0.810748 0.140719 0.354324
O O9 0.645404 0.071508 0.402986
O O10 0.500000 0.037731 0.919829
O O11 0.653156 0.062766 0.848565
O O12 0.144815 0.110380 0.250000
O O13 0.000000 0.091038 0.171293
O O14 0.157497 0.992606 0.177411
O O15 0.775820 0.589008 0.750000
#
# Coordination Sequence:
#
# PCOD8258787 Si02
#       6
#    16  16  16  16  16  16
#     4  11  22  34  51  77 108 138 169 212 265 312
#     4   9  20  36  53  75 103 137 178 216 249 299
#     4  10  20  34  52  79 110 136 167 211 262 314
#     4   9  18  34  56  78 101 135 176 215 255 301
#     4   9  18  35  58  78  99 134 176 214 252 299
#     4   9  19  35  53  75 103 134 174 216 252 304
#
# _framework density 18.827459000000001
#
# number of rings (size 3 to 8) (size 9 to 14) (size 15 to 20)
#    0.000    2.500    0.000    2.500    0.000    6.667 
#    0.000    3.333    0.000    3.000    0.000    0.000 
#    0.000    0.000    0.000    0.000    0.000    0.000 
#
# Total GULP energy -595251.912396 kJ/mol
# GULP energy per Si atom -12401.081508 kJ/mol
# Density = 1.878461 g / cm^3
# Si number density = 18.827459 Si / 1000 Ang^3
#
#
#
# Elastic Constant Matrix: (Units=GPa)
#
#
# Indices 1 2 3 4 5 6 
#
# 1 64.1258 12.5690 9.9794 0.0000 0.0000 0.0000
# 2 12.5690 76.3801 20.4319 0.0000 0.0000 0.0000
# 3 9.9794 20.4319 99.9739 0.0000 0.0000 0.0000
# 4 0.0000 0.0000 0.0000 26.0130 0.0000 0.0000
# 5 0.0000 0.0000 0.0000 0.0000 17.8576 0.0000
# 6 0.0000 0.0000 0.0000 0.0000 0.0000 11.1323
#
#
#
# Elastic Compliance Matrix: (Units=1/GPa)
#
#
# Indices 1 2 3 4 5 6 
#
# 1 0.016235 -0.002368 -0.001137 0.000000 0.000000 0.000000
# 2 -0.002368 0.014195 -0.002665 0.000000 0.000000 0.000000
# 3 -0.001137 -0.002665 0.010661 0.000000 0.000000 0.000000
# 4 0.000000 0.000000 0.000000 0.038442 0.000000 0.000000
# 5 0.000000 0.000000 0.000000 0.000000 0.055999 0.000000
# 6 0.000000 0.000000 0.000000 0.000000 0.000000 0.089829
#
#
# Mechanical properties :
#
#
# Convention : Reuss Voigt Hill
#
# Bulk Modulus (GPa) = 34.77925 36.27115 35.52520
# Shear Modulus (GPa) = 20.21977 24.16721 22.19349
#
# Velocity S-wave (km/s) = 3.28067 3.58664 3.43707
# Velocity P-wave (km/s) = 5.73264 6.03812 5.88736
#
# Compressibility (1/GPa) = 0.02875278
#
# Stress axis : x y z
#
# Youngs Moduli (GPa) = 61.59411 70.44819 93.80274
#
# Poissons Ratio (x) = 0.16679 0.10663
# Poissons Ratio (y) = 0.14583 0.24996
# Poissons Ratio (z) = 0.07002 0.18772
#
# Static dielectric constant tensor:
#      x y z
#    x 3.165210 0.000000 0.000000 
#    y 0.000000 3.360630 0.000000 
#    z 0.000000 0.000000 3.642120 
# 
# 
# High freq. dielectric constant tensor:
#      x y z
#    x 1.712510 0.000000 0.000000 
#    y 0.000000 1.719870 0.000000 
#    z 0.000000 0.000000 1.745360 
# 
# From -- ./inp_files/61465.got.cif
#   From: 2010.03.12/outbox.cif.g09.slc.cpg/sg63_31_cif.got.tgz:61465.got - 2010.04.10 19:34:48.
