data_PCOD8258835
_publ_section_title
;
Structure prediction by ZEFSAII (Michael W. Deem and Ramdas Pophale) SiO2 
 PCOD8258835
Probable space group: C M C M
;
_chemical_formula_sum "Si O2"
_cell_formula_units_Z 96
_cell_length_a 17.620363
_cell_length_b 16.129952
_cell_length_c 18.542493
_cell_angle_alpha 90.000000
_cell_angle_beta 90.000000
_cell_angle_gamma 90.000000
_cell_volume 5270.065948
_symmetry_space_group_name_H-M "C M C M"
_symmetry_group_IT_number 63
_symmetry_cell_setting 'orthorhombic'
loop_
_space_group_symop_operation_xyz
x,y,z
-x,-y,1/2+z
x,-y,-z
-x,y,1/2-z
-x,-y,-z
x,y,1/2-z
-x,y,z
x,-y,1/2+z
1/2+x,1/2+y,z
1/2-x,1/2-y,1/2+z
1/2+x,1/2-y,-z
1/2-x,1/2+y,1/2-z
1/2-x,1/2-y,-z
1/2+x,1/2+y,1/2-z
1/2-x,1/2+y,z
1/2+x,1/2-y,1/2+z
loop_
_atom_site_type_symbol
_atom_site_label
_atom_site_fract_x
_atom_site_fract_y
_atom_site_fract_z
Si Si1 0.308590 0.786243 0.170177
Si Si2 0.090040 0.206237 0.057787
Si Si3 0.795123 0.626118 0.330985
Si Si4 0.664298 0.386085 0.333003
Si Si5 0.087635 0.736210 0.399613
Si Si6 0.320251 0.463299 0.576621
O O1 0.341540 0.806158 0.250000
O O2 0.377624 0.773606 0.114594
O O3 0.261429 0.702420 0.174124
O O4 0.250239 0.858181 0.144998
O O5 0.124322 0.115060 0.069797
O O6 0.000000 0.200450 0.066771
O O7 0.115155 0.238663 0.979539
O O8 0.813496 0.593351 0.250000
O O9 0.871228 0.653182 0.372353
O O10 0.756165 0.555135 0.378650
O O11 0.660975 0.411425 0.250000
O O12 0.605472 0.311694 0.345945
O O13 0.636565 0.464390 0.379626
O O14 0.000000 0.714937 0.398649
O O15 0.296058 0.500000 0.500000
#
# Coordination Sequence:
#
# PCOD8258835 Si02
#       6
#    16  16  16  16  16  16
#     4   8  17  33  53  74  99 134 179 222 255 295
#     4  10  21  34  51  77 110 141 174 212 253 311
#     4   9  19  34  53  76 102 133 176 220 255 303
#     4  10  20  34  53  78 105 134 173 217 257 307
#     4  10  20  34  54  79 104 134 172 217 262 305
#     4  11  21  33  53  78 107 143 172 208 258 313
#
# _framework density 18.216090000000001
#
# number of rings (size 3 to 8) (size 9 to 14) (size 15 to 20)
#    0.000    2.333    1.667    2.000    2.333    5.333 
#    0.000    0.000    0.000    1.500    0.000    2.333 
#    0.000    0.000    0.000    0.000    0.000    0.000 
#
# Total GULP energy -595099.011913 kJ/mol
# GULP energy per Si atom -12397.896082 kJ/mol
# Density = 1.817463 g / cm^3
# Si number density = 18.216090 Si / 1000 Ang^3
#
#
#
# Elastic Constant Matrix: (Units=GPa)
#
#
# Indices 1 2 3 4 5 6 
#
# 1 66.4953 10.5632 42.0351 0.0000 0.0000 0.0000
# 2 10.5632 13.4052 17.5342 0.0000 0.0000 0.0000
# 3 42.0351 17.5342 123.0956 0.0000 0.0000 0.0000
# 4 0.0000 0.0000 0.0000 26.1948 0.0000 0.0000
# 5 0.0000 0.0000 0.0000 0.0000 27.0325 0.0000
# 6 0.0000 0.0000 0.0000 0.0000 0.0000 18.4635
#
#
#
# Elastic Compliance Matrix: (Units=1/GPa)
#
#
# Indices 1 2 3 4 5 6 
#
# 1 0.019912 -0.008353 -0.005610 0.000000 0.000000 0.000000
# 2 -0.008353 0.095183 -0.010706 0.000000 0.000000 0.000000
# 3 -0.005610 -0.010706 0.011564 0.000000 0.000000 0.000000
# 4 0.000000 0.000000 0.000000 0.038175 0.000000 0.000000
# 5 0.000000 0.000000 0.000000 0.000000 0.036993 0.000000
# 6 0.000000 0.000000 0.000000 0.000000 0.000000 0.054161
#
#
# Mechanical properties :
#
#
# Convention : Reuss Voigt Hill
#
# Bulk Modulus (GPa) = 12.93284 38.14013 25.53649
# Shear Modulus (GPa) = 15.10121 23.19573 19.14847
#
# Velocity S-wave (km/s) = 2.88237 3.57230 3.24572
# Velocity P-wave (km/s) = 4.26526 6.16426 5.30050
#
# Compressibility (1/GPa) = 0.07732254
#
# Stress axis : x y z
#
# Youngs Moduli (GPa) = 50.22161 10.50605 86.47230
#
# Poissons Ratio (x) = 0.08775 0.48509
# Poissons Ratio (y) = 0.41949 0.92577
# Poissons Ratio (z) = 0.28173 0.11248
#
# Static dielectric constant tensor:
#      x y z
#    x 3.158740 0.000000 0.000000 
#    y 0.000000 3.279150 0.000000 
#    z 0.000000 0.000000 3.735230 
# 
# 
# High freq. dielectric constant tensor:
#      x y z
#    x 1.679590 0.000000 0.000000 
#    y 0.000000 1.687910 0.000000 
#    z 0.000000 0.000000 1.726320 
# 
# From -- ./inp_files/45754.got.cif
#   From: 2010.03.12/outbox.cif.g09.slc.cpg/sg63_23_cif.got.tgz:45754.got - 2010.04.10 19:34:48.
