data_PCOD8258378
_publ_section_title
;
Structure prediction by ZEFSAII (Michael W. Deem and Ramdas Pophale) SiO2 
 PCOD8258378
Probable space group: C M C M
;
_chemical_formula_sum "Si O2"
_cell_formula_units_Z 96
_cell_length_a 25.332279
_cell_length_b 23.011969
_cell_length_c 8.974482
_cell_angle_alpha 90.000000
_cell_angle_beta 90.000000
_cell_angle_gamma 90.000000
_cell_volume 5231.634965
_symmetry_space_group_name_H-M "C M C M"
_symmetry_group_IT_number 63
_symmetry_cell_setting 'orthorhombic'
loop_
_space_group_symop_operation_xyz
x,y,z
-x,-y,1/2+z
x,-y,-z
-x,y,1/2-z
-x,-y,-z
x,y,1/2-z
-x,y,z
x,-y,1/2+z
1/2+x,1/2+y,z
1/2-x,1/2-y,1/2+z
1/2+x,1/2-y,-z
1/2-x,1/2+y,1/2-z
1/2-x,1/2-y,-z
1/2+x,1/2+y,1/2-z
1/2-x,1/2+y,z
1/2+x,1/2-y,1/2+z
loop_
_atom_site_type_symbol
_atom_site_label
_atom_site_fract_x
_atom_site_fract_y
_atom_site_fract_z
Si Si1 0.560305 0.172774 0.422766
Si Si2 0.645987 0.641263 0.586660
Si Si3 0.242401 0.937878 0.427495
Si Si4 0.560304 0.703726 0.078798
Si Si5 0.345989 0.130385 0.925776
Si Si6 0.801868 0.263520 0.586262
O O1 0.575878 0.177336 0.250000
O O2 0.500000 0.153165 0.445875
O O3 0.570181 0.236516 0.490852
O O4 0.596224 0.121400 0.498669
O O5 0.629059 0.616713 0.750000
O O6 0.692672 0.601006 0.517723
O O7 0.595183 0.648840 0.480032
O O8 0.667471 0.704936 0.610096
O O9 0.242477 0.941876 0.250000
O O10 0.298735 0.911530 0.482401
O O11 0.235310 0.000000 0.500000
O O12 0.574890 0.715644 0.250000
O O13 0.500000 0.683620 0.060070
O O14 0.351503 0.126257 0.750000
O O15 0.334514 0.195268 0.978761
O O16 0.790837 0.291429 0.750000
O O17 0.750000 0.250000 0.500000
#
# Coordination Sequence:
#
# PCOD8258378 Si02
#       6
#    16  16  16  16  16  16
#     4  10  20  33  50  77 113 148 181 216 259 316
#     4  10  20  35  53  76 110 143 177 218 265 320
#     4  10  23  41  57  78 105 137 178 226 272 318
#     4  10  20  32  49  78 113 146 181 217 258 314
#     4  11  21  35  54  78 111 142 176 221 266 319
#     4  11  20  31  49  77 111 143 175 212 264 325
#
# _framework density 18.349905
#
# number of rings (size 3 to 8) (size 9 to 14) (size 15 to 20)
#    0.000    1.667    3.333    2.000    0.000    4.667 
#    0.000    0.000    0.000    1.000    0.000    0.000 
#    0.000    0.000    0.000    0.000    0.000    0.000 
#
# Total GULP energy -594756.049332 kJ/mol
# GULP energy per Si atom -12390.751028 kJ/mol
# Density = 1.830814 g / cm^3
# Si number density = 18.349905 Si / 1000 Ang^3
#
#
#
# Elastic Constant Matrix: (Units=GPa)
#
#
# Indices 1 2 3 4 5 6 
#
# 1 118.9433 27.4526 49.6013 0.0000 0.0000 0.0000
# 2 27.4526 58.4210 18.1384 0.0000 0.0000 0.0000
# 3 49.6013 18.1384 78.3617 0.0000 0.0000 0.0000
# 4 0.0000 0.0000 0.0000 21.6697 0.0000 0.0000
# 5 0.0000 0.0000 0.0000 0.0000 31.8448 0.0000
# 6 0.0000 0.0000 0.0000 0.0000 0.0000 11.8990
#
#
#
# Elastic Compliance Matrix: (Units=1/GPa)
#
#
# Indices 1 2 3 4 5 6 
#
# 1 0.012071 -0.003556 -0.006818 0.000000 0.000000 0.000000
# 2 -0.003556 0.019490 -0.002261 0.000000 0.000000 0.000000
# 3 -0.006818 -0.002261 0.017600 0.000000 0.000000 0.000000
# 4 0.000000 0.000000 0.000000 0.046147 0.000000 0.000000
# 5 0.000000 0.000000 0.000000 0.000000 0.031402 0.000000
# 6 0.000000 0.000000 0.000000 0.000000 0.000000 0.084041
#
#
# Mechanical properties :
#
#
# Convention : Reuss Voigt Hill
#
# Bulk Modulus (GPa) = 41.85328 49.56783 45.71056
# Shear Modulus (GPa) = 20.49316 23.78494 22.13905
#
# Velocity S-wave (km/s) = 3.34548 3.60417 3.47723
# Velocity P-wave (km/s) = 6.14662 6.66268 6.40984
#
# Compressibility (1/GPa) = 0.02389299
#
# Stress axis : x y z
#
# Youngs Moduli (GPa) = 82.84227 51.30883 56.81778
#
# Poissons Ratio (x) = 0.18243 0.38737
# Poissons Ratio (y) = 0.29455 0.12845
# Poissons Ratio (z) = 0.56480 0.11599
#
# Static dielectric constant tensor:
#      x y z
#    x 3.685480 0.000000 0.000000 
#    y 0.000000 3.028850 0.000000 
#    z 0.000000 0.000000 3.612350 
# 
# 
# High freq. dielectric constant tensor:
#      x y z
#    x 1.731590 0.000000 0.000000 
#    y 0.000000 1.655960 0.000000 
#    z 0.000000 0.000000 1.721410 
# 
# From -- ./inp_files/12347.got.cif
#   From: 2010.03.12/outbox.cif.g09.slc.cpg/sg63_7_cif.got.tgz:12347.got - 2010.04.10 19:34:48.
