data_PCOD8258102
_publ_section_title
;
Structure prediction by ZEFSAII (Michael W. Deem and Ramdas Pophale) SiO2 
 PCOD8258102
Probable space group: C M C M
;
_chemical_formula_sum "Si O2"
_cell_formula_units_Z 96
_cell_length_a 27.615715
_cell_length_b 13.727685
_cell_length_c 14.272957
_cell_angle_alpha 90.000000
_cell_angle_beta 90.000000
_cell_angle_gamma 90.000000
_cell_volume 5410.875666
_symmetry_space_group_name_H-M "C M C M"
_symmetry_group_IT_number 63
_symmetry_cell_setting 'orthorhombic'
loop_
_space_group_symop_operation_xyz
x,y,z
-x,-y,1/2+z
x,-y,-z
-x,y,1/2-z
-x,-y,-z
x,y,1/2-z
-x,y,z
x,-y,1/2+z
1/2+x,1/2+y,z
1/2-x,1/2-y,1/2+z
1/2+x,1/2-y,-z
1/2-x,1/2+y,1/2-z
1/2-x,1/2-y,-z
1/2+x,1/2+y,1/2-z
1/2-x,1/2+y,z
1/2+x,1/2-y,1/2+z
loop_
_atom_site_type_symbol
_atom_site_label
_atom_site_fract_x
_atom_site_fract_y
_atom_site_fract_z
Si Si1 0.280080 0.187556 0.750000
Si Si2 0.106668 0.671162 0.250000
Si Si3 0.883433 0.602693 0.950382
Si Si4 0.135772 0.546404 0.750000
Si Si5 0.443554 0.764286 0.932453
Si Si6 0.331180 0.361539 0.250000
Si Si7 0.867973 0.099301 0.948986
Si Si8 0.698723 0.252906 0.950346
O O1 0.309389 0.085806 0.750000
O O2 0.225775 0.150854 0.750000
O O3 0.293080 0.255014 0.661196
O O4 0.135927 0.570236 0.250000
O O5 0.072164 0.678894 0.339280
O O6 0.147281 0.753412 0.250000
O O7 0.891562 0.588811 0.840174
O O8 0.833951 0.659484 0.977761
O O9 0.879871 0.500000 0.000000
O O10 0.929903 0.664710 0.982065
O O11 0.500000 0.742541 0.931889
O O12 0.417008 0.661132 0.941828
O O13 0.347678 0.418773 0.156316
O O14 0.828009 0.150480 0.014352
O O15 0.881992 0.000000 0.000000
O O16 0.750000 0.250000 0.000000
#
# Coordination Sequence:
#
# PCOD8258102 Si02
#       8
#     8   8  16   8  16   8  16  16
#     4  10  20  35  54  81 118 155 193 221 271 335
#     4  10  19  36  59  82 115 140 180 238 285 326
#     4  10  20  35  55  79 115 147 179 228 278 334
#     4  10  20  35  51  83 117 152 180 222 282 332
#     4  10  21  38  60  84 109 144 186 234 291 342
#     4  10  20  38  54  82 112 145 193 235 273 327
#     4  10  22  39  58  81 115 148 188 242 284 328
#     4  10  20  35  54  81 114 152 190 229 272 328
#
# _framework density 17.742045999999998
#
# number of rings (size 3 to 8) (size 9 to 14) (size 15 to 20)
#    0.000    2.000    3.333    0.250    0.000    2.000 
#    3.000    1.250    0.000    0.000    0.000    0.000 
#    0.000    0.000    0.000    0.000    0.000    0.000 
#
# Total GULP energy -595203.007067 kJ/mol
# GULP energy per Si atom -12400.062647 kJ/mol
# Density = 1.770166 g / cm^3
# Si number density = 17.742046 Si / 1000 Ang^3
#
#
#
# Elastic Constant Matrix: (Units=GPa)
#
#
# Indices 1 2 3 4 5 6 
#
# 1 122.0224 39.3446 54.5091 0.0000 0.0000 0.0000
# 2 39.3446 92.4612 57.4241 0.0000 0.0000 0.0000
# 3 54.5091 57.4241 148.4725 0.0000 0.0000 0.0000
# 4 0.0000 0.0000 0.0000 31.0185 0.0000 0.0000
# 5 0.0000 0.0000 0.0000 0.0000 13.6911 0.0000
# 6 0.0000 0.0000 0.0000 0.0000 0.0000 12.4695
#
#
#
# Elastic Compliance Matrix: (Units=1/GPa)
#
#
# Indices 1 2 3 4 5 6 
#
# 1 0.010281 -0.002673 -0.002741 0.000000 0.000000 0.000000
# 2 -0.002673 0.014929 -0.004793 0.000000 0.000000 0.000000
# 3 -0.002741 -0.004793 0.009595 0.000000 0.000000 0.000000
# 4 0.000000 0.000000 0.000000 0.032239 0.000000 0.000000
# 5 0.000000 0.000000 0.000000 0.000000 0.073040 0.000000
# 6 0.000000 0.000000 0.000000 0.000000 0.000000 0.080195
#
#
# Mechanical properties :
#
#
# Convention : Reuss Voigt Hill
#
# Bulk Modulus (GPa) = 69.47867 73.94575 71.71221
# Shear Modulus (GPa) = 20.36733 25.54771 22.95752
#
# Velocity S-wave (km/s) = 3.39185 3.79879 3.60107
# Velocity P-wave (km/s) = 7.38816 7.81088 7.60246
#
# Compressibility (1/GPa) = 0.01439291
#
# Stress axis : x y z
#
# Youngs Moduli (GPa) = 97.26287 66.98210 104.21797
#
# Poissons Ratio (x) = 0.17902 0.28565
# Poissons Ratio (y) = 0.25996 0.49951
# Poissons Ratio (z) = 0.26659 0.32104
#
# Static dielectric constant tensor:
#      x y z
#    x 3.135200 0.000000 0.000000 
#    y 0.000000 3.195030 0.000000 
#    z 0.000000 0.000000 3.830700 
# 
# 
# High freq. dielectric constant tensor:
#      x y z
#    x 1.676300 0.000000 0.000000 
#    y 0.000000 1.675950 0.000000 
#    z 0.000000 0.000000 1.706310 
# 
# From -- ./inp_files/37899.got.cif
#   From: 2010.03.12/outbox.cif.g09.slc.cpg/sg63_19_cif.got.tgz:37899.got - 2010.04.10 19:34:48.
