data_PCOD8258911
_publ_section_title
;
Structure prediction by ZEFSAII (Michael W. Deem and Ramdas Pophale) SiO2 
 PCOD8258911
Probable space group: C M C M
;
_chemical_formula_sum "Si O2"
_cell_formula_units_Z 96
_cell_length_a 8.849516
_cell_length_b 26.986507
_cell_length_c 22.365748
_cell_angle_alpha 90.000000
_cell_angle_beta 90.000000
_cell_angle_gamma 90.000000
_cell_volume 5341.332593
_symmetry_space_group_name_H-M "C M C M"
_symmetry_group_IT_number 63
_symmetry_cell_setting 'orthorhombic'
loop_
_space_group_symop_operation_xyz
x,y,z
-x,-y,1/2+z
x,-y,-z
-x,y,1/2-z
-x,-y,-z
x,y,1/2-z
-x,y,z
x,-y,1/2+z
1/2+x,1/2+y,z
1/2-x,1/2-y,1/2+z
1/2+x,1/2-y,-z
1/2-x,1/2+y,1/2-z
1/2-x,1/2-y,-z
1/2+x,1/2+y,1/2-z
1/2-x,1/2+y,z
1/2+x,1/2-y,1/2+z
loop_
_atom_site_type_symbol
_atom_site_label
_atom_site_fract_x
_atom_site_fract_y
_atom_site_fract_z
Si Si1 0.676628 0.444762 0.518110
Si Si2 0.830332 0.702051 0.435233
Si Si3 0.825190 0.360342 0.453010
Si Si4 0.176815 0.736257 0.250000
Si Si5 0.326479 0.219367 0.637589
Si Si6 0.829000 0.397969 0.868173
Si Si7 0.821417 0.127960 0.250000
O O1 0.721468 0.500000 0.500000
O O2 0.500000 0.438377 0.528664
O O3 0.727523 0.409705 0.462878
O O4 0.759438 0.431523 0.579636
O O5 0.774891 0.680387 0.498215
O O6 0.711195 0.743773 0.416816
O O7 0.826349 0.659575 0.385223
O O8 0.000000 0.724097 0.439385
O O9 0.799986 0.336704 0.387176
O O10 0.000000 0.374068 0.464257
O O11 0.218250 0.769776 0.306999
O O12 0.261332 0.684114 0.250000
O O13 0.000000 0.725128 0.250000
O O14 0.500000 0.226743 0.656911
O O15 0.734185 0.403058 0.807371
O O16 0.000000 0.416027 0.856968
O O17 0.000000 0.130486 0.250000
#
# Coordination Sequence:
#
# PCOD8258911 Si02
#       7
#    16  16  16   8  16  16   8
#     4  10  21  37  58  84 110 138 178 227 278 328
#     4   9  17  30  48  73 106 140 172 211 258 314
#     4   9  20  35  52  76 105 137 175 219 269 323
#     4  12  24  36  50  71 106 153 190 220 261 313
#     4  11  21  33  50  74 104 141 183 222 260 309
#     4  10  20  34  54  80 111 145 181 220 268 325
#     4  12  22  34  54  79 110 147 184 222 265 313
#
# _framework density 17.973042
#
# number of rings (size 3 to 8) (size 9 to 14) (size 15 to 20)
#    0.000    1.833    1.667    4.500    0.000    5.333 
#    0.000    0.000    0.000    1.000    0.000    4.667 
#    0.000    0.000    0.000    0.000    0.000    0.000 
#
# Total GULP energy -595221.075362 kJ/mol
# GULP energy per Si atom -12400.439070 kJ/mol
# Density = 1.793213 g / cm^3
# Si number density = 17.973042 Si / 1000 Ang^3
#
#
#
# Elastic Constant Matrix: (Units=GPa)
#
#
# Indices 1 2 3 4 5 6 
#
# 1 114.0306 50.3191 47.4127 0.0000 0.0000 0.0000
# 2 50.3191 87.4061 48.3550 0.0000 0.0000 0.0000
# 3 47.4127 48.3550 76.4794 0.0000 0.0000 0.0000
# 4 0.0000 0.0000 0.0000 14.9729 0.0000 0.0000
# 5 0.0000 0.0000 0.0000 0.0000 31.7180 0.0000
# 6 0.0000 0.0000 0.0000 0.0000 0.0000 24.6865
#
#
#
# Elastic Compliance Matrix: (Units=1/GPa)
#
#
# Indices 1 2 3 4 5 6 
#
# 1 0.012927 -0.004627 -0.005089 0.000000 0.000000 0.000000
# 2 -0.004627 0.019251 -0.009304 0.000000 0.000000 0.000000
# 3 -0.005089 -0.009304 0.022112 0.000000 0.000000 0.000000
# 4 0.000000 0.000000 0.000000 0.066787 0.000000 0.000000
# 5 0.000000 0.000000 0.000000 0.000000 0.031528 0.000000
# 6 0.000000 0.000000 0.000000 0.000000 0.000000 0.040508
#
#
# Mechanical properties :
#
#
# Convention : Reuss Voigt Hill
#
# Bulk Modulus (GPa) = 61.52807 63.34329 62.43568
# Shear Modulus (GPa) = 21.13540 23.06410 22.09975
#
# Velocity S-wave (km/s) = 3.43293 3.58615 3.51038
# Velocity P-wave (km/s) = 7.07257 7.24343 7.15851
#
# Compressibility (1/GPa) = 0.01625274
#
# Stress axis : x y z
#
# Youngs Moduli (GPa) = 77.35680 51.94414 45.22356
#
# Poissons Ratio (x) = 0.24034 0.23013
# Poissons Ratio (y) = 0.35792 0.42074
# Poissons Ratio (z) = 0.39364 0.48327
#
# Static dielectric constant tensor:
#      x y z
#    x 3.361440 0.000000 0.000000 
#    y 0.000000 3.082570 0.000000 
#    z 0.000000 0.000000 3.381220 
# 
# 
# High freq. dielectric constant tensor:
#      x y z
#    x 1.706640 0.000000 0.000000 
#    y 0.000000 1.660530 0.000000 
#    z 0.000000 0.000000 1.694850 
# 
# From -- ./inp_files/59998.got.cif
#   From: 2010.03.12/outbox.cif.g09.slc.cpg/sg63_30_cif.got.tgz:59998.got - 2010.04.10 19:34:48.
