data_PCOD8258986
_publ_section_title
;
Structure prediction by ZEFSAII (Michael W. Deem and Ramdas Pophale) SiO2 
 PCOD8258986
Probable space group: C M C M
;
_chemical_formula_sum "Si O2"
_cell_formula_units_Z 96
_cell_length_a 8.973243
_cell_length_b 29.559360
_cell_length_c 18.538809
_cell_angle_alpha 90.000000
_cell_angle_beta 90.000000
_cell_angle_gamma 90.000000
_cell_volume 4917.295252
_symmetry_space_group_name_H-M "C M C M"
_symmetry_group_IT_number 63
_symmetry_cell_setting 'orthorhombic'
loop_
_space_group_symop_operation_xyz
x,y,z
-x,-y,1/2+z
x,-y,-z
-x,y,1/2-z
-x,-y,-z
x,y,1/2-z
-x,y,z
x,-y,1/2+z
1/2+x,1/2+y,z
1/2-x,1/2-y,1/2+z
1/2+x,1/2-y,-z
1/2-x,1/2+y,1/2-z
1/2-x,1/2-y,-z
1/2+x,1/2+y,1/2-z
1/2-x,1/2+y,z
1/2+x,1/2-y,1/2+z
loop_
_atom_site_type_symbol
_atom_site_label
_atom_site_fract_x
_atom_site_fract_y
_atom_site_fract_z
Si Si1 0.826378 0.812635 0.943529
Si Si2 0.174230 0.591810 0.423827
Si Si3 0.672642 0.726314 0.600121
Si Si4 0.826446 0.561380 0.582471
Si Si5 0.675111 0.518610 0.166853
Si Si6 0.831306 0.648345 0.831405
O O1 0.745073 0.858973 0.926274
O O2 0.761314 0.773294 0.892440
O O3 0.000000 0.818383 0.927877
O O4 0.792142 0.798715 0.025270
O O5 0.204490 0.563859 0.497248
O O6 0.245991 0.564774 0.357668
O O7 0.000000 0.597595 0.410222
O O8 0.500000 0.737128 0.610147
O O9 0.728400 0.692457 0.661906
O O10 0.729646 0.522041 0.616858
O O11 0.773134 0.608522 0.617143
O O12 0.000000 0.552021 0.599147
O O13 0.717002 0.508990 0.250000
O O14 0.500000 0.524435 0.156547
O O15 0.822074 0.630343 0.750000
O O16 0.000000 0.661623 0.852900
#
# Coordination Sequence:
#
# PCOD8258986 Si02
#       6
#    16  16  16  16  16  16
#     4  10  20  35  58  85 115 150 189 235 287 340
#     4  11  22  38  63  91 117 149 194 245 292 345
#     4  10  20  34  55  83 116 152 191 236 284 338
#     4  10  21  38  61  88 117 151 195 242 291 348
#     4  11  25  42  59  83 118 157 195 239 293 350
#     4  10  20  35  56  83 119 159 195 238 292 348
#
# _framework density 19.522928
#
# number of rings (size 3 to 8) (size 9 to 14) (size 15 to 20)
#    0.000    1.667    1.667    3.000    0.000    7.667 
#    0.000    0.833    0.000    5.000    0.000    0.000 
#    0.000    0.000    0.000    0.000    0.000    0.000 
#
# Total GULP energy -595434.371665 kJ/mol
# GULP energy per Si atom -12404.882743 kJ/mol
# Density = 1.947849 g / cm^3
# Si number density = 19.522928 Si / 1000 Ang^3
#
#
#
# Elastic Constant Matrix: (Units=GPa)
#
#
# Indices 1 2 3 4 5 6 
#
# 1 95.4883 69.3982 34.5577 0.0000 0.0000 0.0000
# 2 69.3982 129.3543 31.9069 0.0000 0.0000 0.0000
# 3 34.5577 31.9069 50.3122 0.0000 0.0000 0.0000
# 4 0.0000 0.0000 0.0000 21.1360 0.0000 0.0000
# 5 0.0000 0.0000 0.0000 0.0000 27.4018 0.0000
# 6 0.0000 0.0000 0.0000 0.0000 0.0000 44.2968
#
#
#
# Elastic Compliance Matrix: (Units=1/GPa)
#
#
# Indices 1 2 3 4 5 6 
#
# 1 0.019573 -0.008517 -0.008043 0.000000 0.000000 0.000000
# 2 -0.008517 0.012870 -0.002312 0.000000 0.000000 0.000000
# 3 -0.008043 -0.002312 0.026866 0.000000 0.000000 0.000000
# 4 0.000000 0.000000 0.000000 0.047313 0.000000 0.000000
# 5 0.000000 0.000000 0.000000 0.000000 0.036494 0.000000
# 6 0.000000 0.000000 0.000000 0.000000 0.000000 0.022575
#
#
# Mechanical properties :
#
#
# Convention : Reuss Voigt Hill
#
# Bulk Modulus (GPa) = 46.36884 60.76451 53.56667
# Shear Modulus (GPa) = 23.73896 27.85305 25.79600
#
# Velocity S-wave (km/s) = 3.49083 3.78124 3.63894
# Velocity P-wave (km/s) = 6.32854 7.08915 6.71961
#
# Compressibility (1/GPa) = 0.02156621
#
# Stress axis : x y z
#
# Youngs Moduli (GPa) = 51.09026 77.69770 37.22112
#
# Poissons Ratio (x) = 0.66176 0.29936
# Poissons Ratio (y) = 0.43514 0.08606
# Poissons Ratio (z) = 0.41091 0.17964
#
# Static dielectric constant tensor:
#      x y z
#    x 3.567400 0.000000 0.000000 
#    y 0.000000 3.603310 0.000000 
#    z 0.000000 0.000000 3.474500 
# 
# 
# High freq. dielectric constant tensor:
#      x y z
#    x 1.766270 0.000000 0.000000 
#    y 0.000000 1.769990 0.000000 
#    z 0.000000 0.000000 1.744770 
# 
# From -- ./inp_files/51366.got.cif
#   From: 2010.03.12/outbox.cif.g09.slc.cpg/sg63_26_cif.got.tgz:51366.got - 2010.04.10 19:34:48.
