data_PCOD8258032
_publ_section_title
;
Structure prediction by ZEFSAII (Michael W. Deem and Ramdas Pophale) SiO2 
 PCOD8258032
Probable space group: C M C M
;
_chemical_formula_sum "Si O2"
_cell_formula_units_Z 80
_cell_length_a 17.809306
_cell_length_b 15.235755
_cell_length_c 16.163560
_cell_angle_alpha 90.000000
_cell_angle_beta 90.000000
_cell_angle_gamma 90.000000
_cell_volume 4385.791647
_symmetry_space_group_name_H-M "C M C M"
_symmetry_group_IT_number 63
_symmetry_cell_setting 'orthorhombic'
loop_
_space_group_symop_operation_xyz
x,y,z
-x,-y,1/2+z
x,-y,-z
-x,y,1/2-z
-x,-y,-z
x,y,1/2-z
-x,y,z
x,-y,1/2+z
1/2+x,1/2+y,z
1/2-x,1/2-y,1/2+z
1/2+x,1/2-y,-z
1/2-x,1/2+y,1/2-z
1/2-x,1/2-y,-z
1/2+x,1/2+y,1/2-z
1/2-x,1/2+y,z
1/2+x,1/2-y,1/2+z
loop_
_atom_site_type_symbol
_atom_site_label
_atom_site_fract_x
_atom_site_fract_y
_atom_site_fract_z
Si Si1 0.584212 0.386252 0.344963
Si Si2 0.272946 0.468646 0.406034
Si Si3 0.086113 0.715858 0.043240
Si Si4 0.297440 0.137757 0.341515
Si Si5 0.294361 0.219777 0.579812
O O1 0.599559 0.357546 0.250000
O O2 0.500000 0.423782 0.354414
O O3 0.641544 0.460637 0.374382
O O4 0.596627 0.304356 0.405059
O O5 0.272408 0.500000 0.500000
O O6 0.235233 0.540635 0.348470
O O7 0.228110 0.377935 0.392672
O O8 0.135167 0.643823 0.092047
O O9 0.000000 0.685672 0.037956
O O10 0.117942 0.724882 0.948785
O O11 0.331135 0.149600 0.250000
O O12 0.229815 0.209474 0.351211
O O13 0.250000 0.250000 0.500000
#
# Coordination Sequence:
#
# PCOD8258032 Si02
#       5
#    16  16  16  16  16
#     4  10  20  33  52  81 113 141 175 229 289 333
#     4  12  20  35  56  79 112 150 191 227 268 338
#     4  10  19  35  59  84 110 144 188 236 281 327
#     4  11  22  35  57  87 113 148 191 234 285 334
#     4  10  19  37  55  79 112 147 187 228 272 337
#
# _framework density 18.24072
#
# number of rings (size 3 to 8) (size 9 to 14) (size 15 to 20)
#    0.000    1.400    8.000    1.200    0.000    2.400 
#    0.000    3.000    0.000    1.800    0.000    0.000 
#    0.000    0.000    0.000    0.000    0.000    0.000 
#
# Total GULP energy -495808.429857 kJ/mol
# GULP energy per Si atom -12395.210746 kJ/mol
# Density = 1.819920 g / cm^3
# Si number density = 18.240720 Si / 1000 Ang^3
#
#
#
# Elastic Constant Matrix: (Units=GPa)
#
#
# Indices 1 2 3 4 5 6 
#
# 1 127.7684 43.3274 26.1933 0.0000 0.0000 0.0000
# 2 43.3274 111.6766 13.7664 0.0000 0.0000 0.0000
# 3 26.1933 13.7664 52.5029 0.0000 0.0000 0.0000
# 4 0.0000 0.0000 0.0000 10.1849 0.0000 0.0000
# 5 0.0000 0.0000 0.0000 0.0000 21.3489 0.0000
# 6 0.0000 0.0000 0.0000 0.0000 0.0000 27.4252
#
#
#
# Elastic Compliance Matrix: (Units=1/GPa)
#
#
# Indices 1 2 3 4 5 6 
#
# 1 0.009766 -0.003295 -0.004008 0.000000 0.000000 0.000000
# 2 -0.003295 0.010365 -0.001074 0.000000 0.000000 0.000000
# 3 -0.004008 -0.001074 0.021328 0.000000 0.000000 0.000000
# 4 0.000000 0.000000 0.000000 0.098185 0.000000 0.000000
# 5 0.000000 0.000000 0.000000 0.000000 0.046841 0.000000
# 6 0.000000 0.000000 0.000000 0.000000 0.000000 0.036463
#
#
# Mechanical properties :
#
#
# Convention : Reuss Voigt Hill
#
# Bulk Modulus (GPa) = 40.47799 50.94689 45.71244
# Shear Modulus (GPa) = 20.16654 25.70253 22.93453
#
# Velocity S-wave (km/s) = 3.32863 3.75784 3.54973
# Velocity P-wave (km/s) = 6.08377 6.84247 6.47424
#
# Compressibility (1/GPa) = 0.02470478
#
# Stress axis : x y z
#
# Youngs Moduli (GPa) = 102.40014 96.47780 46.88713
#
# Poissons Ratio (x) = 0.31787 0.18793
# Poissons Ratio (y) = 0.33738 0.05036
# Poissons Ratio (z) = 0.41043 0.10362
#
# Static dielectric constant tensor:
#      x y z
#    x 3.842240 0.000000 0.000000 
#    y 0.000000 3.508110 0.000000 
#    z 0.000000 0.000000 3.671040 
# 
# 
# High freq. dielectric constant tensor:
#      x y z
#    x 1.698520 0.000000 0.000000 
#    y 0.000000 1.698060 0.000000 
#    z 0.000000 0.000000 1.700460 
# 
# From -- ./inp_files/35121.got.cif
#   From: 2010.03.12/outbox.cif.g09.slc.cpg/sg63_18_cif.got.tgz:35121.got - 2010.04.10 19:34:48.
