data_PCOD8258113
_publ_section_title
;
Structure prediction by ZEFSAII (Michael W. Deem and Ramdas Pophale) SiO2 
 PCOD8258113
Probable space group: C M C M
;
_chemical_formula_sum "Si O2"
_cell_formula_units_Z 80
_cell_length_a 14.650486
_cell_length_b 12.616108
_cell_length_c 18.403208
_cell_angle_alpha 90.000000
_cell_angle_beta 90.000000
_cell_angle_gamma 90.000000
_cell_volume 3401.503832
_symmetry_space_group_name_H-M "C M C M"
_symmetry_group_IT_number 63
_symmetry_cell_setting 'orthorhombic'
loop_
_space_group_symop_operation_xyz
x,y,z
-x,-y,1/2+z
x,-y,-z
-x,y,1/2-z
-x,-y,-z
x,y,1/2-z
-x,y,z
x,-y,1/2+z
1/2+x,1/2+y,z
1/2-x,1/2-y,1/2+z
1/2+x,1/2-y,-z
1/2-x,1/2+y,1/2-z
1/2-x,1/2-y,-z
1/2+x,1/2+y,1/2-z
1/2-x,1/2+y,z
1/2+x,1/2-y,1/2+z
loop_
_atom_site_type_symbol
_atom_site_label
_atom_site_fract_x
_atom_site_fract_y
_atom_site_fract_z
Si Si1 0.399185 0.112907 0.034821
Si Si2 0.850979 0.499275 0.670553
Si Si3 0.601365 0.558835 0.572644
Si Si4 0.781721 0.312622 0.084054
Si Si5 0.333731 0.391746 0.671049
O O1 0.500000 0.155111 0.013961
O O2 0.320749 0.190919 0.000432
O O3 0.394912 0.095437 0.121944
O O4 0.377315 0.000000 0.000000
O O5 0.900464 0.507339 0.750000
O O6 0.852332 0.611173 0.627962
O O7 0.746713 0.473812 0.684572
O O8 0.633939 0.500000 0.500000
O O9 0.500000 0.611200 0.565243
O O10 0.675998 0.649640 0.590270
O O11 0.590941 0.464906 0.632244
O O12 0.794456 0.199220 0.119636
O O13 0.368534 0.349137 0.750000
#
# Coordination Sequence:
#
# PCOD8258113 Si02
#       5
#    16  16  16  16  16
#     4   9  18  32  51  77 108 144 189 239 292 352
#     4   9  18  33  53  78 111 151 195 245 301 358
#     4  10  22  40  62  91 126 165 211 260 310 368
#     4  10  19  36  60  84 117 163 205 248 306 368
#     4  10  21  37  59  87 118 155 201 251 303 362
#
# _framework density 23.519006999999998
#
# number of rings (size 3 to 8) (size 9 to 14) (size 15 to 20)
#    0.000    2.400    0.000    3.600    0.000    5.600 
#    0.000    3.000    0.000    6.000    0.000    0.000 
#    0.000    0.000    0.000    0.000    0.000    0.000 
#
# Total GULP energy -495569.464336 kJ/mol
# GULP energy per Si atom -12389.236608 kJ/mol
# Density = 2.346548 g / cm^3
# Si number density = 23.519007 Si / 1000 Ang^3
#
#
#
# Elastic Constant Matrix: (Units=GPa)
#
#
# Indices 1 2 3 4 5 6 
#
# 1 102.8734 12.3433 7.5738 0.0000 0.0000 0.0000
# 2 12.3433 71.9896 23.9109 0.0000 0.0000 0.0000
# 3 7.5738 23.9109 149.2974 0.0000 0.0000 0.0000
# 4 0.0000 0.0000 0.0000 32.1935 0.0000 0.0000
# 5 0.0000 0.0000 0.0000 0.0000 5.7763 0.0000
# 6 0.0000 0.0000 0.0000 0.0000 0.0000 8.1052
#
#
#
# Elastic Compliance Matrix: (Units=1/GPa)
#
#
# Indices 1 2 3 4 5 6 
#
# 1 0.009933 -0.001622 -0.000244 0.000000 0.000000 0.000000
# 2 -0.001622 0.014936 -0.002310 0.000000 0.000000 0.000000
# 3 -0.000244 -0.002310 0.007080 0.000000 0.000000 0.000000
# 4 0.000000 0.000000 0.000000 0.031062 0.000000 0.000000
# 5 0.000000 0.000000 0.000000 0.000000 0.173120 0.000000
# 6 0.000000 0.000000 0.000000 0.000000 0.000000 0.123377
#
#
# Mechanical properties :
#
#
# Convention : Reuss Voigt Hill
#
# Bulk Modulus (GPa) = 42.37687 45.75739 44.06713
# Shear Modulus (GPa) = 13.30751 27.90384 20.60567
#
# Velocity S-wave (km/s) = 2.38128 3.44821 2.96316
# Velocity P-wave (km/s) = 5.06141 5.94569 5.52128
#
# Compressibility (1/GPa) = 0.02359778
#
# Stress axis : x y z
#
# Youngs Moduli (GPa) = 100.67162 66.95134 141.23577
#
# Poissons Ratio (x) = 0.10860 0.03448
# Poissons Ratio (y) = 0.16330 0.32623
# Poissons Ratio (z) = 0.02458 0.15465
#
# Static dielectric constant tensor:
#      x y z
#    x 3.850750 0.000000 0.000000 
#    y 0.000000 3.994910 0.000000 
#    z 0.000000 0.000000 5.156930 
# 
# 
# High freq. dielectric constant tensor:
#      x y z
#    x 1.912740 0.000000 0.000000 
#    y 0.000000 1.916310 0.000000 
#    z 0.000000 0.000000 1.943320 
# 
# From -- ./inp_files/62558.got.cif
#   From: 2010.03.12/outbox.cif.g09.slc.cpg/sg63_32_cif.got.tgz:62558.got - 2010.04.10 19:34:48.
