data_PCOD8258059
_publ_section_title
;
Structure prediction by ZEFSAII (Michael W. Deem and Ramdas Pophale) SiO2 
 PCOD8258059
Probable space group: C M C M
;
_chemical_formula_sum "Si O2"
_cell_formula_units_Z 112
_cell_length_a 14.013684
_cell_length_b 22.954829
_cell_length_c 16.908765
_cell_angle_alpha 90.000000
_cell_angle_beta 90.000000
_cell_angle_gamma 90.000000
_cell_volume 5439.240606
_symmetry_space_group_name_H-M "C M C M"
_symmetry_group_IT_number 63
_symmetry_cell_setting 'orthorhombic'
loop_
_space_group_symop_operation_xyz
x,y,z
-x,-y,1/2+z
x,-y,-z
-x,y,1/2-z
-x,-y,-z
x,y,1/2-z
-x,y,z
x,-y,1/2+z
1/2+x,1/2+y,z
1/2-x,1/2-y,1/2+z
1/2+x,1/2-y,-z
1/2-x,1/2+y,1/2-z
1/2-x,1/2-y,-z
1/2+x,1/2+y,1/2-z
1/2-x,1/2+y,z
1/2+x,1/2-y,1/2+z
loop_
_atom_site_type_symbol
_atom_site_label
_atom_site_fract_x
_atom_site_fract_y
_atom_site_fract_z
Si Si1 0.612218 0.852728 0.841512
Si Si2 0.391973 0.477751 0.338269
Si Si3 0.112169 0.088117 0.070524
Si Si4 0.894413 0.801123 0.841076
Si Si5 0.610778 0.068812 0.490118
Si Si6 0.284057 0.386448 0.084131
Si Si7 0.228391 0.755803 0.091934
O O1 0.646618 0.865125 0.750000
O O2 0.500000 0.842483 0.841191
O O3 0.636543 0.906983 0.901394
O O4 0.656453 0.792785 0.875134
O O5 0.394268 0.502292 0.250000
O O6 0.500000 0.459451 0.363916
O O7 0.348834 0.528639 0.392911
O O8 0.315588 0.424898 0.340988
O O9 0.156119 0.144058 0.115545
O O10 0.000000 0.090730 0.082892
O O11 0.141552 0.090023 0.980466
O O12 0.898933 0.816182 0.750000
O O13 0.827927 0.746398 0.859948
O O14 0.000000 0.787669 0.874351
O O15 0.500000 0.081721 0.509850
O O16 0.675454 0.103705 0.554056
O O17 0.632189 0.000000 0.500000
O O18 0.309861 0.320492 0.106884
O O19 0.250000 0.750000 0.000000
#
# Coordination Sequence:
#
# PCOD8258059 Si02
#       7
#    16  16  16  16  16  16  16
#     4  10  22  41  66  93 121 157 203 256 310 362
#     4  10  22  39  59  87 124 159 190 235 298 365
#     4  10  19  35  61  90 117 148 190 241 296 361
#     4  10  21  37  59  85 113 149 196 248 297 347
#     4  10  21  39  63  90 119 154 203 261 313 364
#     4  12  23  37  58  86 119 158 204 243 299 357
#     4  12  23  38  57  87 120 164 202 248 296 356
#
# _framework density 20.591108999999999
#
# number of rings (size 3 to 8) (size 9 to 14) (size 15 to 20)
#    0.000    1.429    2.857    2.571    0.000    6.286 
#    0.000    5.714    0.000    1.286    0.000    0.000 
#    0.000    0.000    0.000    0.000    0.000    0.000 
#
# Total GULP energy -694140.835156 kJ/mol
# GULP energy per Si atom -12395.372056 kJ/mol
# Density = 2.054424 g / cm^3
# Si number density = 20.591109 Si / 1000 Ang^3
#
#
#
# Elastic Constant Matrix: (Units=GPa)
#
#
# Indices 1 2 3 4 5 6 
#
# 1 58.7026 38.6722 29.6870 0.0000 0.0000 0.0000
# 2 38.6722 141.5159 42.3795 0.0000 0.0000 0.0000
# 3 29.6870 42.3795 77.0949 0.0000 0.0000 0.0000
# 4 0.0000 0.0000 0.0000 27.6249 0.0000 0.0000
# 5 0.0000 0.0000 0.0000 0.0000 32.6748 0.0000
# 6 0.0000 0.0000 0.0000 0.0000 0.0000 29.4545
#
#
#
# Elastic Compliance Matrix: (Units=1/GPa)
#
#
# Indices 1 2 3 4 5 6 
#
# 1 0.023232 -0.004393 -0.006531 0.000000 0.000000 0.000000
# 2 -0.004393 0.009289 -0.003415 0.000000 0.000000 0.000000
# 3 -0.006531 -0.003415 0.017363 0.000000 0.000000 0.000000
# 4 0.000000 0.000000 0.000000 0.036199 0.000000 0.000000
# 5 0.000000 0.000000 0.000000 0.000000 0.030605 0.000000
# 6 0.000000 0.000000 0.000000 0.000000 0.000000 0.033951
#
#
# Mechanical properties :
#
#
# Convention : Reuss Voigt Hill
#
# Bulk Modulus (GPa) = 47.15478 55.42120 51.28799
# Shear Modulus (GPa) = 26.82610 29.05581 27.94095
#
# Velocity S-wave (km/s) = 3.61335 3.76052 3.68767
# Velocity P-wave (km/s) = 6.35285 6.76970 6.56458
#
# Compressibility (1/GPa) = 0.02120676
#
# Stress axis : x y z
#
# Youngs Moduli (GPa) = 43.04439 107.64950 57.59299
#
# Poissons Ratio (x) = 0.47287 0.37615
# Poissons Ratio (y) = 0.18908 0.19668
# Poissons Ratio (z) = 0.28113 0.36762
#
# Static dielectric constant tensor:
#      x y z
#    x 3.613610 0.000000 0.000000 
#    y 0.000000 3.906800 0.000000 
#    z 0.000000 0.000000 3.855740 
# 
# 
# High freq. dielectric constant tensor:
#      x y z
#    x 1.812430 0.000000 0.000000 
#    y 0.000000 1.803480 0.000000 
#    z 0.000000 0.000000 1.800360 
# 
# From -- ./inp_files/32294.got.cif
#   From: 2010.03.12/outbox.cif.g09.slc.cpg/sg63_17_cif.got.tgz:32294.got - 2010.04.10 19:34:48.
