data_PCOD8258267
_publ_section_title
;
Structure prediction by ZEFSAII (Michael W. Deem and Ramdas Pophale) SiO2 
 PCOD8258267
Probable space group: C M C M
;
_chemical_formula_sum "Si O2"
_cell_formula_units_Z 80
_cell_length_a 19.563617
_cell_length_b 32.589161
_cell_length_c 8.957601
_cell_angle_alpha 90.000000
_cell_angle_beta 90.000000
_cell_angle_gamma 90.000000
_cell_volume 5711.024792
_symmetry_space_group_name_H-M "C M C M"
_symmetry_group_IT_number 63
_symmetry_cell_setting 'orthorhombic'
loop_
_space_group_symop_operation_xyz
x,y,z
-x,-y,1/2+z
x,-y,-z
-x,y,1/2-z
-x,-y,-z
x,y,1/2-z
-x,y,z
x,-y,1/2+z
1/2+x,1/2+y,z
1/2-x,1/2-y,1/2+z
1/2+x,1/2-y,-z
1/2-x,1/2+y,1/2-z
1/2-x,1/2-y,-z
1/2+x,1/2+y,1/2-z
1/2-x,1/2+y,z
1/2+x,1/2-y,1/2+z
loop_
_atom_site_type_symbol
_atom_site_label
_atom_site_fract_x
_atom_site_fract_y
_atom_site_fract_z
Si Si1 0.079190 0.957428 0.923994
Si Si2 0.718382 0.692487 0.578062
Si Si3 0.646700 0.766713 0.426184
Si Si4 0.500000 0.762290 0.082814
Si Si5 0.876505 0.878687 0.076320
Si Si6 0.500000 0.664955 0.080553
O O1 0.094352 0.961264 0.750000
O O2 0.000000 0.946176 0.955800
O O3 0.127030 0.922397 0.994266
O O4 0.099266 0.000000 0.000000
O O5 0.708880 0.705193 0.750000
O O6 0.671321 0.722780 0.483952
O O7 0.798277 0.697948 0.531533
O O8 0.695378 0.645381 0.552216
O O9 0.638201 0.761446 0.250000
O O10 0.571182 0.777584 0.494724
O O11 0.500000 0.779713 0.250000
O O12 0.500000 0.713429 0.081300
O O13 0.892201 0.886005 0.250000
O O14 0.934094 0.850432 0.005882
O O15 0.500000 0.647260 0.250000
#
# Coordination Sequence:
#
# PCOD8258267 Si02
#       6
#    16  16  16   8  16   8
#     4  10  20  32  45  60  79 103 131 164 200 236
#     4   9  18  28  39  56  78 103 131 165 203 237
#     4   9  16  28  41  55  76 102 134 168 202 237
#     4   9  16  25  41  58  74 101 136 174 205 232
#     4  11  20  29  41  58  80 106 133 167 204 238
#     4  11  19  27  38  58  77 101 139 174 203 234
#
# _framework density 14.007993000000001
#
# number of rings (size 3 to 8) (size 9 to 14) (size 15 to 20)
#    0.000    2.200    3.000    1.500    0.000    1.600 
#    0.000    0.500    0.000    0.000    0.000    0.000 
#    0.000    0.000    0.000    0.900    0.000    6.400 
#
# Total GULP energy -495731.235004 kJ/mol
# GULP energy per Si atom -12393.280875 kJ/mol
# Density = 1.397611 g / cm^3
# Si number density = 14.007993 Si / 1000 Ang^3
#
#
#
# Elastic Constant Matrix: (Units=GPa)
#
#
# Indices 1 2 3 4 5 6 
#
# 1 116.2897 45.0428 27.6817 0.0000 0.0000 0.0000
# 2 45.0428 76.4333 33.0525 0.0000 0.0000 0.0000
# 3 27.6817 33.0525 58.2199 0.0000 0.0000 0.0000
# 4 0.0000 0.0000 0.0000 19.3580 0.0000 0.0000
# 5 0.0000 0.0000 0.0000 0.0000 12.8791 0.0000
# 6 0.0000 0.0000 0.0000 0.0000 0.0000 20.9570
#
#
#
# Elastic Compliance Matrix: (Units=1/GPa)
#
#
# Indices 1 2 3 4 5 6 
#
# 1 0.011336 -0.005765 -0.002117 0.000000 0.000000 0.000000
# 2 -0.005765 0.020272 -0.008768 0.000000 0.000000 0.000000
# 3 -0.002117 -0.008768 0.023161 0.000000 0.000000 0.000000
# 4 0.000000 0.000000 0.000000 0.051658 0.000000 0.000000
# 5 0.000000 0.000000 0.000000 0.000000 0.077645 0.000000
# 6 0.000000 0.000000 0.000000 0.000000 0.000000 0.047717
#
#
# Mechanical properties :
#
#
# Convention : Reuss Voigt Hill
#
# Bulk Modulus (GPa) = 46.57868 51.38855 48.98361
# Shear Modulus (GPa) = 18.36578 20.31653 19.34116
#
# Velocity S-wave (km/s) = 3.62483 3.81248 3.71984
# Velocity P-wave (km/s) = 7.13042 7.49298 7.31395
#
# Compressibility (1/GPa) = 0.02146905
#
# Stress axis : x y z
#
# Youngs Moduli (GPa) = 88.21351 49.32870 43.17693
#
# Poissons Ratio (x) = 0.28438 0.09141
# Poissons Ratio (y) = 0.50855 0.37857
# Poissons Ratio (z) = 0.18676 0.43251
#
# Static dielectric constant tensor:
#      x y z
#    x 3.041800 0.000000 0.000000 
#    y 0.000000 2.626510 0.000000 
#    z 0.000000 0.000000 2.836740 
# 
# 
# High freq. dielectric constant tensor:
#      x y z
#    x 1.517470 0.000000 0.000000 
#    y 0.000000 1.506240 0.000000 
#    z 0.000000 0.000000 1.539590 
# 
# From -- ./inp_files/8899.got.cif
#   From: 2010.03.12/outbox.cif.g09.slc.cpg/sg63_5_cif.got.tgz:8899.got - 2010.04.10 19:34:48.
