data_PCOD8258596
_publ_section_title
;
Structure prediction by ZEFSAII (Michael W. Deem and Ramdas Pophale) SiO2 
 PCOD8258596
Probable space group: C M C M
;
_chemical_formula_sum "Si O2"
_cell_formula_units_Z 72
_cell_length_a 29.043983
_cell_length_b 13.932583
_cell_length_c 9.192373
_cell_angle_alpha 90.000000
_cell_angle_beta 90.000000
_cell_angle_gamma 90.000000
_cell_volume 3719.764551
_symmetry_space_group_name_H-M "C M C M"
_symmetry_group_IT_number 63
_symmetry_cell_setting 'orthorhombic'
loop_
_space_group_symop_operation_xyz
x,y,z
-x,-y,1/2+z
x,-y,-z
-x,y,1/2-z
-x,-y,-z
x,y,1/2-z
-x,y,z
x,-y,1/2+z
1/2+x,1/2+y,z
1/2-x,1/2-y,1/2+z
1/2+x,1/2-y,-z
1/2-x,1/2+y,1/2-z
1/2-x,1/2-y,-z
1/2+x,1/2+y,1/2-z
1/2-x,1/2+y,z
1/2+x,1/2-y,1/2+z
loop_
_atom_site_type_symbol
_atom_site_label
_atom_site_fract_x
_atom_site_fract_y
_atom_site_fract_z
Si Si1 0.811228 0.794984 0.584459
Si Si2 0.053240 0.594742 0.419064
Si Si3 0.084932 0.228445 0.083384
Si Si4 0.000000 0.098995 0.080216
Si Si5 0.765085 0.402205 0.420420
O O1 0.795124 0.814297 0.750000
O O2 0.865024 0.818868 0.565365
O O3 0.801555 0.682917 0.545986
O O4 0.784501 0.867438 0.479134
O O5 0.070063 0.500000 0.500000
O O6 0.062596 0.580971 0.250000
O O7 0.083865 0.680313 0.479366
O O8 0.000000 0.616508 0.453790
O O9 0.076028 0.260566 0.250000
O O10 0.045831 0.154952 0.031669
O O11 0.000000 0.078693 0.250000
O O12 0.000000 0.000000 0.000000
O O13 0.781014 0.500000 0.500000
O O14 0.760947 0.423919 0.250000
#
# Coordination Sequence:
#
# PCOD8258596 Si02
#       5
#    16  16  16   8  16
#     4   9  20  37  57  83 112 143 184 229 277 331
#     4  10  20  33  52  78 108 144 184 226 271 325
#     4  10  20  37  58  81 111 146 185 231 279 325
#     4  10  22  38  57  78 107 146 185 228 272 318
#     4  10  20  36  58  82 111 145 180 225 278 334
#
# _framework density 19.356064
#
# number of rings (size 3 to 8) (size 9 to 14) (size 15 to 20)
#    0.000    2.222    1.111    1.333    0.000    5.333 
#    0.000    4.444    0.000    0.000    0.000    0.000 
#    0.000    0.000    0.000    0.000    0.000    0.000 
#
# Total GULP energy -446501.402853 kJ/mol
# GULP energy per Si atom -12402.816746 kJ/mol
# Density = 1.931201 g / cm^3
# Si number density = 19.356064 Si / 1000 Ang^3
#
#
#
# Elastic Constant Matrix: (Units=GPa)
#
#
# Indices 1 2 3 4 5 6 
#
# 1 99.0039 28.9120 25.6127 0.0000 0.0000 0.0000
# 2 28.9120 91.8675 39.0715 0.0000 0.0000 0.0000
# 3 25.6127 39.0715 77.3920 0.0000 0.0000 0.0000
# 4 0.0000 0.0000 0.0000 42.6539 0.0000 0.0000
# 5 0.0000 0.0000 0.0000 0.0000 25.7630 0.0000
# 6 0.0000 0.0000 0.0000 0.0000 0.0000 12.1723
#
#
#
# Elastic Compliance Matrix: (Units=1/GPa)
#
#
# Indices 1 2 3 4 5 6 
#
# 1 0.011496 -0.002547 -0.002519 0.000000 0.000000 0.000000
# 2 -0.002547 0.014426 -0.006440 0.000000 0.000000 0.000000
# 3 -0.002519 -0.006440 0.017006 0.000000 0.000000 0.000000
# 4 0.000000 0.000000 0.000000 0.023444 0.000000 0.000000
# 5 0.000000 0.000000 0.000000 0.000000 0.038815 0.000000
# 6 0.000000 0.000000 0.000000 0.000000 0.000000 0.082154
#
#
# Mechanical properties :
#
#
# Convention : Reuss Voigt Hill
#
# Bulk Modulus (GPa) = 50.20928 50.60618 50.40773
# Shear Modulus (GPa) = 23.04238 27.76232 25.40235
#
# Velocity S-wave (km/s) = 3.45403 3.79132 3.62660
# Velocity P-wave (km/s) = 6.47327 6.73551 6.60569
#
# Compressibility (1/GPa) = 0.01991664
#
# Stress axis : x y z
#
# Youngs Moduli (GPa) = 86.98710 69.32089 58.80245
#
# Poissons Ratio (x) = 0.17654 0.14812
# Poissons Ratio (y) = 0.22153 0.37869
# Poissons Ratio (z) = 0.21911 0.44643
#
# Static dielectric constant tensor:
#      x y z
#    x 3.468110 0.000000 0.000000 
#    y 0.000000 3.480960 0.000000 
#    z 0.000000 0.000000 3.506800 
# 
# 
# High freq. dielectric constant tensor:
#      x y z
#    x 1.746680 0.000000 0.000000 
#    y 0.000000 1.748020 0.000000 
#    z 0.000000 0.000000 1.756430 
# 
# From -- ./inp_files/11704.got.cif
#   From: 2010.03.12/outbox.cif.g09.slc.cpg/sg63_6_cif.got.tgz:11704.got - 2010.04.10 19:34:48.
