data_PCOD8258998
_publ_section_title
;
Structure prediction by ZEFSAII (Michael W. Deem and Ramdas Pophale) SiO2 
 PCOD8258998
Probable space group: C M C M
;
_chemical_formula_sum "Si O2"
_cell_formula_units_Z 88
_cell_length_a 14.358269
_cell_length_b 17.574738
_cell_length_c 18.715003
_cell_angle_alpha 90.000000
_cell_angle_beta 90.000000
_cell_angle_gamma 90.000000
_cell_volume 4722.596555
_symmetry_space_group_name_H-M "C M C M"
_symmetry_group_IT_number 63
_symmetry_cell_setting 'orthorhombic'
loop_
_space_group_symop_operation_xyz
x,y,z
-x,-y,1/2+z
x,-y,-z
-x,y,1/2-z
-x,-y,-z
x,y,1/2-z
-x,y,z
x,-y,1/2+z
1/2+x,1/2+y,z
1/2-x,1/2-y,1/2+z
1/2+x,1/2-y,-z
1/2-x,1/2+y,1/2-z
1/2-x,1/2-y,-z
1/2+x,1/2+y,1/2-z
1/2-x,1/2+y,z
1/2+x,1/2-y,1/2+z
loop_
_atom_site_type_symbol
_atom_site_label
_atom_site_fract_x
_atom_site_fract_y
_atom_site_fract_z
Si Si1 0.604384 0.354134 0.567788
Si Si2 0.608932 0.225269 0.046832
Si Si3 0.602481 0.854663 0.327997
Si Si4 0.166471 0.000000 0.000000
Si Si5 0.844806 0.427684 0.037711
Si Si6 0.242092 0.781502 0.833492
O O1 0.500000 0.333362 0.593462
O O2 0.634582 0.296996 0.503620
O O3 0.602520 0.442816 0.545120
O O4 0.678768 0.348389 0.632412
O O5 0.500000 0.225011 0.065107
O O6 0.662750 0.230033 0.122473
O O7 0.638431 0.148604 0.006872
O O8 0.615525 0.891124 0.250000
O O9 0.500000 0.816360 0.335164
O O10 0.610878 0.922532 0.384157
O O11 0.681026 0.793528 0.343634
O O12 0.234295 0.055053 0.953170
O O13 0.894314 0.500000 0.000000
O O14 0.263683 0.798698 0.750000
#
# Coordination Sequence:
#
# PCOD8258998 Si02
#       6
#    16  16  16   8  16  16
#     4  11  21  37  62  89 118 153 200 246 288 346
#     4  11  22  38  62  85 114 156 200 246 289 345
#     4  10  20  34  55  85 118 152 190 237 295 350
#     4  10  21  36  57  86 116 154 195 240 293 336
#     4  10  20  36  57  84 117 151 196 240 285 340
#     4  11  21  36  58  87 122 153 190 242 296 352
#
# _framework density 18.633815999999999
#
# number of rings (size 3 to 8) (size 9 to 14) (size 15 to 20)
#    0.545    0.909    3.636    3.000    0.000    2.909 
#    0.000    3.636    0.000    1.091    0.000    2.545 
#    0.000    0.000    0.000    0.000    0.000    0.000 
#
# Total GULP energy -545246.092834 kJ/mol
# GULP energy per Si atom -12391.956655 kJ/mol
# Density = 1.859140 g / cm^3
# Si number density = 18.633816 Si / 1000 Ang^3
#
#
#
# Elastic Constant Matrix: (Units=GPa)
#
#
# Indices 1 2 3 4 5 6 
#
# 1 99.7254 27.7476 55.9419 0.0000 0.0000 0.0000
# 2 27.7476 103.6166 52.4811 0.0000 0.0000 0.0000
# 3 55.9419 52.4811 143.2554 0.0000 0.0000 0.0000
# 4 0.0000 0.0000 0.0000 22.1625 0.0000 0.0000
# 5 0.0000 0.0000 0.0000 0.0000 -9.3235 0.0000
# 6 0.0000 0.0000 0.0000 0.0000 0.0000 16.5526
#
#
#
# Elastic Compliance Matrix: (Units=1/GPa)
#
#
# Indices 1 2 3 4 5 6 
#
# 1 0.012944 -0.001113 -0.004647 0.000000 0.000000 0.000000
# 2 -0.001113 0.011945 -0.003942 0.000000 0.000000 0.000000
# 3 -0.004647 -0.003942 0.010239 0.000000 0.000000 0.000000
# 4 0.000000 0.000000 0.000000 0.045121 0.000000 0.000000
# 5 0.000000 0.000000 0.000000 0.000000 -0.107256 0.000000
# 6 0.000000 0.000000 0.000000 0.000000 0.000000 0.060413
#
#
# Mechanical properties :
#
#
# Convention : Reuss Voigt Hill
#
# Bulk Modulus (GPa) = 63.58937 68.77094 66.18015
# Shear Modulus (GPa) = 86.12963 19.90678 53.01821
#
# Velocity S-wave (km/s) = 6.80607 3.27205 5.33989
# Velocity P-wave (km/s) = 9.79609 7.15973 8.57977
#
# Compressibility (1/GPa) = 0.01572590
#
# Stress axis : x y z
#
# Youngs Moduli (GPa) = 77.25642 83.71484 97.66326
#
# Poissons Ratio (x) = 0.09314 0.45385
# Poissons Ratio (y) = 0.08595 0.38496
# Poissons Ratio (z) = 0.35902 0.32998
#
# Static dielectric constant tensor:
#      x y z
#    x 3.503950 0.000000 0.000000 
#    y 0.000000 3.324270 0.000000 
#    z 0.000000 0.000000 3.514420 
# 
# 
# High freq. dielectric constant tensor:
#      x y z
#    x 1.734070 0.000000 0.000000 
#    y 0.000000 1.711910 0.000000 
#    z 0.000000 0.000000 1.707130 
# 
# From -- ./inp_files/44122.got.cif
#   From: 2010.03.12/outbox.cif.g09.slc.cpg/sg63_23_cif.got.tgz:44122.got - 2010.04.10 19:34:48.
