data_PCOD8258386
_publ_section_title
;
Structure prediction by ZEFSAII (Michael W. Deem and Ramdas Pophale) SiO2 
 PCOD8258386
Probable space group: C M C M
;
_chemical_formula_sum "Si O2"
_cell_formula_units_Z 104
_cell_length_a 9.319792
_cell_length_b 25.029861
_cell_length_c 25.032103
_cell_angle_alpha 90.000000
_cell_angle_beta 90.000000
_cell_angle_gamma 90.000000
_cell_volume 5839.316224
_symmetry_space_group_name_H-M "C M C M"
_symmetry_group_IT_number 63
_symmetry_cell_setting 'orthorhombic'
loop_
_space_group_symop_operation_xyz
x,y,z
-x,-y,1/2+z
x,-y,-z
-x,y,1/2-z
-x,-y,-z
x,y,1/2-z
-x,y,z
x,-y,1/2+z
1/2+x,1/2+y,z
1/2-x,1/2-y,1/2+z
1/2+x,1/2-y,-z
1/2-x,1/2+y,1/2-z
1/2-x,1/2-y,-z
1/2+x,1/2+y,1/2-z
1/2-x,1/2+y,z
1/2+x,1/2-y,1/2+z
loop_
_atom_site_type_symbol
_atom_site_label
_atom_site_fract_x
_atom_site_fract_y
_atom_site_fract_z
Si Si1 0.330201 0.609248 0.385298
Si Si2 0.836725 0.311756 0.811837
Si Si3 0.836865 0.811959 0.188145
Si Si4 0.330218 0.885335 0.109190
Si Si5 0.841626 0.494268 0.886611
Si Si6 0.658371 0.613403 0.994306
Si Si7 0.750023 0.500000 0.000000
O O1 0.500000 0.603919 0.380533
O O2 0.274122 0.654666 0.346316
O O3 0.265482 0.551987 0.366462
O O4 0.285853 0.626846 0.445697
O O5 0.808057 0.324211 0.750000
O O6 0.808476 0.249902 0.824194
O O7 0.000000 0.327047 0.826951
O O8 0.808896 0.824281 0.250000
O O9 0.725657 0.846332 0.154621
O O10 0.000000 0.827180 0.172731
O O11 0.500000 0.880595 0.103813
O O12 0.265519 0.866461 0.051943
O O13 0.285856 0.945728 0.126819
O O14 0.000000 0.484587 0.861884
O O15 0.855213 0.490169 0.950459
O O16 0.500000 0.638098 0.984606
O O17 0.644844 0.549547 0.990188
#
# Coordination Sequence:
#
# PCOD8258386 Si02
#       7
#    16  16  16  16  16  16   8
#     4  10  20  32  50  78 106 134 170 208 248 294
#     4   9  19  37  59  78  96 125 166 209 255 306
#     4   9  19  37  59  78  96 125 166 209 255 306
#     4  10  20  32  50  78 106 134 170 208 248 294
#     4   9  17  29  46  70 103 139 169 201 244 294
#     4   9  17  29  46  70 103 138 168 202 246 295
#     4   8  14  24  44  70  94 128 176 214 238 280
#
# _framework density 17.810305
#
# number of rings (size 3 to 8) (size 9 to 14) (size 15 to 20)
#    0.000    2.769    0.000    2.308    0.000    9.846 
#    0.000    3.077    0.000    0.923    0.000    0.000 
#    0.000    0.000    0.000    0.000    0.000    0.000 
#
# Total GULP energy -644466.194167 kJ/mol
# GULP energy per Si atom -12393.580657 kJ/mol
# Density = 1.776977 g / cm^3
# Si number density = 17.810305 Si / 1000 Ang^3
#
#
#
# Elastic Constant Matrix: (Units=GPa)
#
#
# Indices 1 2 3 4 5 6 
#
# 1 91.8615 48.3984 48.4081 0.0000 0.0000 0.0000
# 2 48.3984 78.8044 54.4126 0.0000 0.0000 0.0000
# 3 48.4081 54.4126 79.0203 0.0000 0.0000 0.0000
# 4 0.0000 0.0000 0.0000 32.7250 0.0000 0.0000
# 5 0.0000 0.0000 0.0000 0.0000 27.6484 0.0000
# 6 0.0000 0.0000 0.0000 0.0000 0.0000 27.7617
#
#
#
# Elastic Compliance Matrix: (Units=1/GPa)
#
#
# Indices 1 2 3 4 5 6 
#
# 1 0.017632 -0.006426 -0.006376 0.000000 0.000000 0.000000
# 2 -0.006426 0.026534 -0.014334 0.000000 0.000000 0.000000
# 3 -0.006376 -0.014334 0.026432 0.000000 0.000000 0.000000
# 4 0.000000 0.000000 0.000000 0.030558 0.000000 0.000000
# 5 0.000000 0.000000 0.000000 0.000000 0.036169 0.000000
# 6 0.000000 0.000000 0.000000 0.000000 0.000000 0.036021
#
#
# Mechanical properties :
#
#
# Convention : Reuss Voigt Hill
#
# Bulk Modulus (GPa) = 61.26033 61.34716 61.30374
# Shear Modulus (GPa) = 21.45384 24.19148 22.82266
#
# Velocity S-wave (km/s) = 3.47446 3.68949 3.58359
# Velocity P-wave (km/s) = 7.11101 7.25736 7.18456
#
# Compressibility (1/GPa) = 0.01632378
#
# Stress axis : x y z
#
# Youngs Moduli (GPa) = 56.71610 37.68801 37.83343
#
# Poissons Ratio (x) = 0.24218 0.24124
# Poissons Ratio (y) = 0.36445 0.54232
# Poissons Ratio (z) = 0.36165 0.54023
#
# Static dielectric constant tensor:
#      x y z
#    x 3.178890 0.000000 0.000000 
#    y 0.000000 3.187180 0.000000 
#    z 0.000000 0.000000 3.188620 
# 
# 
# High freq. dielectric constant tensor:
#      x y z
#    x 1.690030 0.000000 0.000000 
#    y 0.000000 1.674280 0.000000 
#    z 0.000000 0.000000 1.674560 
# 
# From -- ./inp_files/67392.got.cif
#   From: 2010.03.12/outbox.cif.g09.slc.cpg/sg63_34_cif.got.tgz:67392.got - 2010.04.10 19:34:48.
