data_PCOD8258005
_publ_section_title
;
Structure prediction by ZEFSAII (Michael W. Deem and Ramdas Pophale) SiO2 
 PCOD8258005
Probable space group: C M C M
;
_chemical_formula_sum "Si O2"
_cell_formula_units_Z 88
_cell_length_a 18.144125
_cell_length_b 28.714131
_cell_length_c 8.892581
_cell_angle_alpha 90.000000
_cell_angle_beta 90.000000
_cell_angle_gamma 90.000000
_cell_volume 4632.970516
_symmetry_space_group_name_H-M "C M C M"
_symmetry_group_IT_number 63
_symmetry_cell_setting 'orthorhombic'
loop_
_space_group_symop_operation_xyz
x,y,z
-x,-y,1/2+z
x,-y,-z
-x,y,1/2-z
-x,-y,-z
x,y,1/2-z
-x,y,z
x,-y,1/2+z
1/2+x,1/2+y,z
1/2-x,1/2-y,1/2+z
1/2+x,1/2-y,-z
1/2-x,1/2+y,1/2-z
1/2-x,1/2-y,-z
1/2+x,1/2+y,1/2-z
1/2-x,1/2+y,z
1/2+x,1/2-y,1/2+z
loop_
_atom_site_type_symbol
_atom_site_label
_atom_site_fract_x
_atom_site_fract_y
_atom_site_fract_z
Si Si1 0.415361 0.950807 0.425158
Si Si2 0.794759 0.386812 0.571177
Si Si3 0.857230 0.890240 0.071939
Si Si4 0.000000 0.949482 0.072497
Si Si5 0.809612 0.281911 0.925464
Si Si6 0.580262 0.706088 0.573069
O O1 0.395947 0.954072 0.250000
O O2 0.500000 0.935616 0.450861
O O3 0.363685 0.913915 0.505342
O O4 0.399194 0.000000 0.500000
O O5 0.795253 0.390685 0.750000
O O6 0.717571 0.407413 0.508999
O O7 0.806958 0.334127 0.511871
O O8 0.845372 0.893303 0.250000
O O9 0.926587 0.921803 0.020934
O O10 0.870971 0.837272 0.014249
O O11 0.000000 0.955110 0.250000
O O12 0.000000 0.000000 0.000000
O O13 0.793946 0.282369 0.750000
O O14 0.886841 0.256810 0.964862
O O15 0.750000 0.250000 0.000000
O O16 0.572551 0.698879 0.750000
O O17 0.500000 0.703902 0.496674
#
# Coordination Sequence:
#
# PCOD8258005 Si02
#       6
#    16  16  16   8  16  16
#     4  10  22  42  67  91 116 151 191 237 294 352
#     4  11  23  36  56  90 125 157 194 238 290 351
#     4  10  19  35  58  80 106 149 200 245 292 347
#     4  10  22  38  58  84 110 146 194 246 301 350
#     4  10  20  33  53  81 113 151 192 236 282 331
#     4   9  16  30  54  79 103 141 194 241 281 334
#
# _framework density 18.994292000000002
#
# number of rings (size 3 to 8) (size 9 to 14) (size 15 to 20)
#    0.000    2.000    2.727    1.091    0.000    4.000 
#    0.000    3.636    0.000    1.636    0.000    0.000 
#    0.000    0.000    0.000    0.000    0.000    0.000 
#
# Total GULP energy -545504.282670 kJ/mol
# GULP energy per Si atom -12397.824606 kJ/mol
# Density = 1.895106 g / cm^3
# Si number density = 18.994292 Si / 1000 Ang^3
#
#
#
# Elastic Constant Matrix: (Units=GPa)
#
#
# Indices 1 2 3 4 5 6 
#
# 1 134.7734 77.0245 49.6769 0.0000 0.0000 0.0000
# 2 77.0245 132.0413 46.7215 0.0000 0.0000 0.0000
# 3 49.6769 46.7215 57.3371 0.0000 0.0000 0.0000
# 4 0.0000 0.0000 0.0000 27.4815 0.0000 0.0000
# 5 0.0000 0.0000 0.0000 0.0000 27.4717 0.0000
# 6 0.0000 0.0000 0.0000 0.0000 0.0000 33.8567
#
#
#
# Elastic Compliance Matrix: (Units=1/GPa)
#
#
# Indices 1 2 3 4 5 6 
#
# 1 0.012900 -0.005017 -0.007088 0.000000 0.000000 0.000000
# 2 -0.005017 0.012593 -0.005915 0.000000 0.000000 0.000000
# 3 -0.007088 -0.005915 0.028402 0.000000 0.000000 0.000000
# 4 0.000000 0.000000 0.000000 0.036388 0.000000 0.000000
# 5 0.000000 0.000000 0.000000 0.000000 0.036401 0.000000
# 6 0.000000 0.000000 0.000000 0.000000 0.000000 0.029536
#
#
# Mechanical properties :
#
#
# Convention : Reuss Voigt Hill
#
# Bulk Modulus (GPa) = 56.00849 74.55531 65.28190
# Shear Modulus (GPa) = 25.22566 27.81060 26.51813
#
# Velocity S-wave (km/s) = 3.64822 3.83058 3.74051
# Velocity P-wave (km/s) = 6.87728 7.67471 7.28691
#
# Compressibility (1/GPa) = 0.01785444
#
# Stress axis : x y z
#
# Youngs Moduli (GPa) = 77.52102 79.41110 35.20899
#
# Poissons Ratio (x) = 0.39838 0.24958
# Poissons Ratio (y) = 0.38890 0.20825
# Poissons Ratio (z) = 0.54950 0.46970
#
# Static dielectric constant tensor:
#      x y z
#    x 3.835780 0.000000 0.000000 
#    y 0.000000 3.752290 0.000000 
#    z 0.000000 0.000000 3.265800 
# 
# 
# High freq. dielectric constant tensor:
#      x y z
#    x 1.750900 0.000000 0.000000 
#    y 0.000000 1.740100 0.000000 
#    z 0.000000 0.000000 1.718450 
# 
# From -- ./inp_files/6902.got.cif
#   From: 2010.03.12/outbox.cif.g09.slc.cpg/sg63_4_cif.got.tgz:6902.got - 2010.04.10 19:34:48.
