data_PCOD8258439
_publ_section_title
;
Structure prediction by ZEFSAII (Michael W. Deem and Ramdas Pophale) SiO2 
 PCOD8258439
Probable space group: C M C M
;
_chemical_formula_sum "Si O2"
_cell_formula_units_Z 80
_cell_length_a 9.070480
_cell_length_b 19.250847
_cell_length_c 25.875779
_cell_angle_alpha 90.000000
_cell_angle_beta 90.000000
_cell_angle_gamma 90.000000
_cell_volume 4518.284212
_symmetry_space_group_name_H-M "C M C M"
_symmetry_group_IT_number 63
_symmetry_cell_setting 'orthorhombic'
loop_
_space_group_symop_operation_xyz
x,y,z
-x,-y,1/2+z
x,-y,-z
-x,y,1/2-z
-x,-y,-z
x,y,1/2-z
-x,y,z
x,-y,1/2+z
1/2+x,1/2+y,z
1/2-x,1/2-y,1/2+z
1/2+x,1/2-y,-z
1/2-x,1/2+y,1/2-z
1/2-x,1/2-y,-z
1/2+x,1/2+y,1/2-z
1/2-x,1/2+y,z
1/2+x,1/2-y,1/2+z
loop_
_atom_site_type_symbol
_atom_site_label
_atom_site_fract_x
_atom_site_fract_y
_atom_site_fract_z
Si Si1 0.663070 0.797950 0.250000
Si Si2 0.332277 0.036072 0.750000
Si Si3 0.175809 0.802577 0.461132
Si Si4 0.829666 0.552842 0.546780
Si Si5 0.337866 0.297340 0.152963
Si Si6 0.166340 0.037660 0.851062
O O1 0.500000 0.768706 0.250000
O O2 0.670074 0.880786 0.250000
O O3 0.736038 0.767159 0.198172
O O4 0.500000 0.008714 0.750000
O O5 0.249199 0.006858 0.800781
O O6 0.250000 0.750000 0.500000
O O7 0.243762 0.878216 0.470112
O O8 0.216211 0.774247 0.403802
O O9 0.000000 0.806839 0.468801
O O10 0.815679 0.500000 0.500000
O O11 0.756562 0.517686 0.597382
O O12 0.000000 0.570687 0.559093
O O13 0.500000 0.267770 0.163926
O O14 0.340136 0.380077 0.154024
O O15 0.000000 0.007336 0.854091
#
# Coordination Sequence:
#
# PCOD8258439 Si02
#       6
#     8   8  16  16  16  16
#     4   9  15  21  35  59  84 113 146 183 226 269
#     4   9  15  23  37  59  88 119 150 187 234 283
#     4  10  20  33  50  71  96 127 161 198 239 284
#     4  10  20  33  49  70  97 128 162 200 240 284
#     4   8  15  26  39  58  86 118 148 182 227 275
#     4   9  16  26  41  62  89 120 154 192 235 282
#
# _framework density 17.705835
#
# number of rings (size 3 to 8) (size 9 to 14) (size 15 to 20)
#    0.000    2.800    0.000    3.600    0.000    9.600 
#    0.000    0.000    0.000    0.000    0.000    1.400 
#    0.000    3.200    0.000    0.000    0.000    0.000 
#
# Total GULP energy -495819.339775 kJ/mol
# GULP energy per Si atom -12395.483494 kJ/mol
# Density = 1.766554 g / cm^3
# Si number density = 17.705835 Si / 1000 Ang^3
#
#
#
# Elastic Constant Matrix: (Units=GPa)
#
#
# Indices 1 2 3 4 5 6 
#
# 1 158.4762 31.3146 96.4063 0.0000 0.0000 0.0000
# 2 31.3146 26.0445 33.4372 0.0000 0.0000 0.0000
# 3 96.4063 33.4372 165.6800 0.0000 0.0000 0.0000
# 4 0.0000 0.0000 0.0000 17.7380 0.0000 0.0000
# 5 0.0000 0.0000 0.0000 0.0000 39.2943 0.0000
# 6 0.0000 0.0000 0.0000 0.0000 0.0000 15.7335
#
#
#
# Elastic Compliance Matrix: (Units=1/GPa)
#
#
# Indices 1 2 3 4 5 6 
#
# 1 0.010516 -0.006462 -0.004815 0.000000 0.000000 0.000000
# 2 -0.006462 0.055795 -0.007500 0.000000 0.000000 0.000000
# 3 -0.004815 -0.007500 0.010351 0.000000 0.000000 0.000000
# 4 0.000000 0.000000 0.000000 0.056376 0.000000 0.000000
# 5 0.000000 0.000000 0.000000 0.000000 0.025449 0.000000
# 6 0.000000 0.000000 0.000000 0.000000 0.000000 0.063559
#
#
# Mechanical properties :
#
#
# Convention : Reuss Voigt Hill
#
# Bulk Modulus (GPa) = 25.57073 74.72409 50.14741
# Shear Modulus (GPa) = 18.33948 27.15601 22.74774
#
# Velocity S-wave (km/s) = 3.22186 3.92054 3.58824
# Velocity P-wave (km/s) = 5.32107 7.92394 6.74917
#
# Compressibility (1/GPa) = 0.03910721
#
# Stress axis : x y z
#
# Youngs Moduli (GPa) = 95.09200 17.92286 96.60826
#
# Poissons Ratio (x) = 0.11582 0.46516
# Poissons Ratio (y) = 0.61452 0.72456
# Poissons Ratio (z) = 0.45786 0.13442
#
# Static dielectric constant tensor:
#      x y z
#    x 3.599480 0.000000 0.000000 
#    y 0.000000 2.571470 0.000000 
#    z 0.000000 0.000000 3.651220 
# 
# 
# High freq. dielectric constant tensor:
#      x y z
#    x 1.704520 0.000000 0.000000 
#    y 0.000000 1.601600 0.000000 
#    z 0.000000 0.000000 1.705890 
# 
# From -- ./inp_files/59567.got.cif
#   From: 2010.03.12/outbox.cif.g09.slc.cpg/sg63_30_cif.got.tgz:59567.got - 2010.04.10 19:34:48.
