data_PCOD8258760
_publ_section_title
;
Structure prediction by ZEFSAII (Michael W. Deem and Ramdas Pophale) SiO2 
 PCOD8258760
Probable space group: C M C M
;
_chemical_formula_sum "Si O2"
_cell_formula_units_Z 96
_cell_length_a 22.783679
_cell_length_b 12.687106
_cell_length_c 18.338832
_cell_angle_alpha 90.000000
_cell_angle_beta 90.000000
_cell_angle_gamma 90.000000
_cell_volume 5301.003532
_symmetry_space_group_name_H-M "C M C M"
_symmetry_group_IT_number 63
_symmetry_cell_setting 'orthorhombic'
loop_
_space_group_symop_operation_xyz
x,y,z
-x,-y,1/2+z
x,-y,-z
-x,y,1/2-z
-x,-y,-z
x,y,1/2-z
-x,y,z
x,-y,1/2+z
1/2+x,1/2+y,z
1/2-x,1/2-y,1/2+z
1/2+x,1/2-y,-z
1/2-x,1/2+y,1/2-z
1/2-x,1/2-y,-z
1/2+x,1/2+y,1/2-z
1/2-x,1/2+y,z
1/2+x,1/2-y,1/2+z
loop_
_atom_site_type_symbol
_atom_site_label
_atom_site_fract_x
_atom_site_fract_y
_atom_site_fract_z
Si Si1 0.248074 0.704601 0.580390
Si Si2 0.934505 0.584502 0.336797
Si Si3 0.650673 0.534998 0.580664
Si Si4 0.832204 0.566566 0.667593
Si Si5 0.069046 0.819161 0.168063
Si Si6 0.730416 0.601441 0.330405
O O1 0.250000 0.750000 0.500000
O O2 0.296436 0.616047 0.583124
O O3 0.185125 0.657086 0.608623
O O4 0.263575 0.799007 0.634810
O O5 0.934218 0.588636 0.250000
O O6 0.888822 0.495873 0.364219
O O7 0.916291 0.702138 0.363721
O O8 0.000000 0.555258 0.365146
O O9 0.632576 0.500000 0.500000
O O10 0.594969 0.589136 0.617741
O O11 0.672650 0.431345 0.623722
O O12 0.844751 0.611146 0.750000
O O13 0.777350 0.490236 0.673564
O O14 0.094751 0.831215 0.250000
O O15 0.000000 0.835537 0.169392
O O16 0.708494 0.631804 0.250000
#
# Coordination Sequence:
#
# PCOD8258760 Si02
#       6
#    16  16  16  16  16  16
#     4  11  21  34  50  72 107 142 175 213 262 317
#     4   8  14  28  51  79 106 130 166 217 265 308
#     4  11  21  34  52  76 107 139 177 219 271 322
#     4   9  18  30  50  78 103 134 173 213 262 313
#     4   9  18  33  55  81 105 134 177 224 267 315
#     4  10  20  34  52  75 103 135 174 219 264 319
#
# _framework density 18.109779
#
# number of rings (size 3 to 8) (size 9 to 14) (size 15 to 20)
#    0.000    2.333    1.667    3.000    0.000    3.667 
#    0.000    0.000    0.000    2.000    0.000    5.833 
#    0.000    0.000    0.000    0.000    0.000    0.000 
#
# Total GULP energy -594870.932170 kJ/mol
# GULP energy per Si atom -12393.144420 kJ/mol
# Density = 1.806856 g / cm^3
# Si number density = 18.109779 Si / 1000 Ang^3
#
#
#
# Elastic Constant Matrix: (Units=GPa)
#
#
# Indices 1 2 3 4 5 6 
#
# 1 62.0627 25.4544 34.2036 0.0000 0.0000 0.0000
# 2 25.4544 71.2928 49.5899 0.0000 0.0000 0.0000
# 3 34.2036 49.5899 120.5138 0.0000 0.0000 0.0000
# 4 0.0000 0.0000 0.0000 34.9789 0.0000 0.0000
# 5 0.0000 0.0000 0.0000 0.0000 18.2870 0.0000
# 6 0.0000 0.0000 0.0000 0.0000 0.0000 27.6549
#
#
#
# Elastic Compliance Matrix: (Units=1/GPa)
#
#
# Indices 1 2 3 4 5 6 
#
# 1 0.020076 -0.004490 -0.003850 0.000000 0.000000 0.000000
# 2 -0.004490 0.020655 -0.007225 0.000000 0.000000 0.000000
# 3 -0.003850 -0.007225 0.012364 0.000000 0.000000 0.000000
# 4 0.000000 0.000000 0.000000 0.028589 0.000000 0.000000
# 5 0.000000 0.000000 0.000000 0.000000 0.054684 0.000000
# 6 0.000000 0.000000 0.000000 0.000000 0.000000 0.036160
#
#
# Mechanical properties :
#
#
# Convention : Reuss Voigt Hill
#
# Bulk Modulus (GPa) = 45.52788 52.48500 49.00644
# Shear Modulus (GPa) = 23.69895 25.82559 24.76227
#
# Velocity S-wave (km/s) = 3.62142 3.78041 3.70177
# Velocity P-wave (km/s) = 6.53305 6.93541 6.73723
#
# Compressibility (1/GPa) = 0.02196456
#
# Stress axis : x y z
#
# Youngs Moduli (GPa) = 49.81025 48.41359 80.88198
#
# Poissons Ratio (x) = 0.21736 0.31143
# Poissons Ratio (y) = 0.22363 0.58439
# Poissons Ratio (z) = 0.19179 0.34980
#
# Static dielectric constant tensor:
#      x y z
#    x 3.300660 0.000000 0.000000 
#    y 0.000000 3.449100 0.000000 
#    z 0.000000 0.000000 3.529280 
# 
# 
# High freq. dielectric constant tensor:
#      x y z
#    x 1.681250 0.000000 0.000000 
#    y 0.000000 1.700940 0.000000 
#    z 0.000000 0.000000 1.688200 
# 
# From -- ./inp_files/47981.got.cif
#   From: 2010.03.12/outbox.cif.g09.slc.cpg/sg63_24_cif.got.tgz:47981.got - 2010.04.10 19:34:48.
