data_PCOD8258273
_publ_section_title
;
Structure prediction by ZEFSAII (Michael W. Deem and Ramdas Pophale) SiO2 
 PCOD8258273
Probable space group: C M C M
;
_chemical_formula_sum "Si O2"
_cell_formula_units_Z 96
_cell_length_a 22.805119
_cell_length_b 24.706017
_cell_length_c 8.951707
_cell_angle_alpha 90.000000
_cell_angle_beta 90.000000
_cell_angle_gamma 90.000000
_cell_volume 5043.603501
_symmetry_space_group_name_H-M "C M C M"
_symmetry_group_IT_number 63
_symmetry_cell_setting 'orthorhombic'
loop_
_space_group_symop_operation_xyz
x,y,z
-x,-y,1/2+z
x,-y,-z
-x,y,1/2-z
-x,-y,-z
x,y,1/2-z
-x,y,z
x,-y,1/2+z
1/2+x,1/2+y,z
1/2-x,1/2-y,1/2+z
1/2+x,1/2-y,-z
1/2-x,1/2+y,1/2-z
1/2-x,1/2-y,-z
1/2+x,1/2+y,1/2-z
1/2-x,1/2+y,z
1/2+x,1/2-y,1/2+z
loop_
_atom_site_type_symbol
_atom_site_label
_atom_site_fract_x
_atom_site_fract_y
_atom_site_fract_z
Si Si1 0.931895 0.851184 0.077736
Si Si2 0.375969 0.860813 0.926056
Si Si3 0.566986 0.049571 0.913369
Si Si4 0.932528 0.737859 0.926217
Si Si5 0.222906 0.555973 0.076184
Si Si6 0.642906 0.443608 0.574144
O O1 0.912728 0.847323 0.250000
O O2 0.000000 0.865472 0.062300
O O3 0.916996 0.795121 0.997767
O O4 0.896450 0.897367 0.995153
O O5 0.379143 0.851730 0.750000
O O6 0.316774 0.892800 0.976530
O O7 0.429470 0.897372 0.984306
O O8 0.384536 0.803347 0.006366
O O9 0.596700 0.058018 0.750000
O O10 0.500000 0.034743 0.887530
O O11 0.598604 0.000000 0.000000
O O12 0.923385 0.741220 0.750000
O O13 0.000000 0.721360 0.964817
O O14 0.213748 0.546636 0.250000
O O15 0.289727 0.570420 0.036172
O O16 0.203485 0.500000 0.000000
O O17 0.624315 0.500000 0.500000
O O18 0.631733 0.447540 0.750000
#
# Coordination Sequence:
#
# PCOD8258273 Si02
#       6
#    16  16  16  16  16  16
#     4  10  21  38  60  86 114 142 174 215 265 320
#     4  11  21  33  51  75 103 138 182 226 269 319
#     4  10  20  32  45  65  95 130 171 222 277 327
#     4  10  21  37  56  79 108 143 183 226 272 321
#     4   9  20  36  54  78 108 143 182 226 272 318
#     4  10  20  37  60  85 114 145 178 216 262 317
#
# _framework density 19.034009999999999
#
# number of rings (size 3 to 8) (size 9 to 14) (size 15 to 20)
#    0.000    2.000    0.000    3.500    0.000    8.667 
#    0.000    0.833    0.000    0.000    0.000    0.000 
#    0.000    0.000    0.000    0.000    0.000    0.000 
#
# Total GULP energy -595093.307020 kJ/mol
# GULP energy per Si atom -12397.777230 kJ/mol
# Density = 1.899069 g / cm^3
# Si number density = 19.034010 Si / 1000 Ang^3
#
#
#
# Elastic Constant Matrix: (Units=GPa)
#
#
# Indices 1 2 3 4 5 6 
#
# 1 75.5128 73.0165 51.7156 0.0000 0.0000 0.0000
# 2 73.0165 164.1299 79.9989 0.0000 0.0000 0.0000
# 3 51.7156 79.9989 119.2801 0.0000 0.0000 0.0000
# 4 0.0000 0.0000 0.0000 42.3374 0.0000 0.0000
# 5 0.0000 0.0000 0.0000 0.0000 25.2994 0.0000
# 6 0.0000 0.0000 0.0000 0.0000 0.0000 37.4630
#
#
#
# Elastic Compliance Matrix: (Units=1/GPa)
#
#
# Indices 1 2 3 4 5 6 
#
# 1 0.025131 -0.008720 -0.005048 0.000000 0.000000 0.000000
# 2 -0.008720 0.012077 -0.004319 0.000000 0.000000 0.000000
# 3 -0.005048 -0.004319 0.013469 0.000000 0.000000 0.000000
# 4 0.000000 0.000000 0.000000 0.023620 0.000000 0.000000
# 5 0.000000 0.000000 0.000000 0.000000 0.039527 0.000000
# 6 0.000000 0.000000 0.000000 0.000000 0.000000 0.026693
#
#
# Mechanical properties :
#
#
# Convention : Reuss Voigt Hill
#
# Bulk Modulus (GPa) = 68.94812 85.37609 77.16210
# Shear Modulus (GPa) = 27.54427 31.29940 29.42184
#
# Velocity S-wave (km/s) = 3.80821 4.05951 3.93587
# Velocity P-wave (km/s) = 7.45915 8.18075 7.82827
#
# Compressibility (1/GPa) = 0.01450366
#
# Stress axis : x y z
#
# Youngs Moduli (GPa) = 39.79084 82.80036 74.24389
#
# Poissons Ratio (x) = 0.72201 0.37477
# Poissons Ratio (y) = 0.34697 0.32069
# Poissons Ratio (z) = 0.20086 0.35765
#
# Static dielectric constant tensor:
#      x y z
#    x 3.439530 0.000000 0.000000 
#    y 0.000000 3.413220 0.000000 
#    z 0.000000 0.000000 3.665290 
# 
# 
# High freq. dielectric constant tensor:
#      x y z
#    x 1.725290 0.000000 0.000000 
#    y 0.000000 1.737540 0.000000 
#    z 0.000000 0.000000 1.757780 
# 
# From -- ./inp_files/10471.got.cif
#   From: 2010.03.12/outbox.cif.g09.slc.cpg/sg63_6_cif.got.tgz:10471.got - 2010.04.10 19:34:48.
