data_PCOD8258767
_publ_section_title
;
Structure prediction by ZEFSAII (Michael W. Deem and Ramdas Pophale) SiO2 
 PCOD8258767
Probable space group: C M C M
;
_chemical_formula_sum "Si O2"
_cell_formula_units_Z 80
_cell_length_a 15.714337
_cell_length_b 29.169233
_cell_length_c 9.383449
_cell_angle_alpha 90.000000
_cell_angle_beta 90.000000
_cell_angle_gamma 90.000000
_cell_volume 4301.139912
_symmetry_space_group_name_H-M "C M C M"
_symmetry_group_IT_number 63
_symmetry_cell_setting 'orthorhombic'
loop_
_space_group_symop_operation_xyz
x,y,z
-x,-y,1/2+z
x,-y,-z
-x,y,1/2-z
-x,-y,-z
x,y,1/2-z
-x,y,z
x,-y,1/2+z
1/2+x,1/2+y,z
1/2-x,1/2-y,1/2+z
1/2+x,1/2-y,-z
1/2-x,1/2+y,1/2-z
1/2-x,1/2-y,-z
1/2+x,1/2+y,1/2-z
1/2-x,1/2+y,z
1/2+x,1/2-y,1/2+z
loop_
_atom_site_type_symbol
_atom_site_label
_atom_site_fract_x
_atom_site_fract_y
_atom_site_fract_z
Si Si1 0.600886 0.696367 0.086962
Si Si2 0.345038 0.389618 0.416636
Si Si3 0.343018 0.891681 0.417173
Si Si4 0.500000 0.952197 0.079398
Si Si5 0.594854 0.203397 0.580479
Si Si6 0.000000 0.047314 0.918571
O O1 0.628069 0.688122 0.250000
O O2 0.500000 0.691886 0.070244
O O3 0.630669 0.746870 0.031468
O O4 0.647043 0.659104 0.991252
O O5 0.355618 0.380408 0.250000
O O6 0.251589 0.410352 0.453389
O O7 0.416470 0.425098 0.469227
O O8 0.358063 0.888661 0.250000
O O9 0.416059 0.925238 0.476505
O O10 0.350613 0.839621 0.478491
O O11 0.500000 0.959239 0.250000
O O12 0.500000 0.000000 0.000000
O O13 0.591883 0.204408 0.750000
O O14 0.500000 0.196346 0.520415
O O15 0.000000 0.038391 0.750000
O O16 0.000000 0.000000 0.000000
#
# Coordination Sequence:
#
# PCOD8258767 Si02
#       6
#    16  16  16   8  16   8
#     4   9  17  29  49  76 104 135 171 207 241 283
#     4  10  20  34  52  76 104 133 166 205 251 302
#     4   9  17  31  53  77 101 133 171 206 245 298
#     4  10  20  36  57  78 100 128 167 214 261 304
#     4   8  13  25  47  75 102 131 171 208 234 279
#     4  10  22  38  53  70  96 128 165 208 253 300
#
# _framework density 18.599722
#
# number of rings (size 3 to 8) (size 9 to 14) (size 15 to 20)
#    0.000    2.800    2.000    1.200    0.000    2.400 
#    0.000    1.000    0.000    1.200    0.000    0.000 
#    0.000    0.000    0.000    0.000    0.000    0.000 
#
# Total GULP energy -495696.326228 kJ/mol
# GULP energy per Si atom -12392.408156 kJ/mol
# Density = 1.855739 g / cm^3
# Si number density = 18.599722 Si / 1000 Ang^3
#
#
#
# Elastic Constant Matrix: (Units=GPa)
#
#
# Indices 1 2 3 4 5 6 
#
# 1 136.7007 81.8061 26.6420 0.0000 0.0000 0.0000
# 2 81.8061 157.4812 33.7042 0.0000 0.0000 0.0000
# 3 26.6420 33.7042 24.1824 0.0000 0.0000 0.0000
# 4 0.0000 0.0000 0.0000 29.4974 0.0000 0.0000
# 5 0.0000 0.0000 0.0000 0.0000 10.9084 0.0000
# 6 0.0000 0.0000 0.0000 0.0000 0.0000 14.2164
#
#
#
# Elastic Compliance Matrix: (Units=1/GPa)
#
#
# Indices 1 2 3 4 5 6 
#
# 1 0.011200 -0.004528 -0.006028 0.000000 0.000000 0.000000
# 2 -0.004528 0.010880 -0.010175 0.000000 0.000000 0.000000
# 3 -0.006028 -0.010175 0.062176 0.000000 0.000000 0.000000
# 4 0.000000 0.000000 0.000000 0.033901 0.000000 0.000000
# 5 0.000000 0.000000 0.000000 0.000000 0.091673 0.000000
# 6 0.000000 0.000000 0.000000 0.000000 0.000000 0.070341
#
#
# Mechanical properties :
#
#
# Convention : Reuss Voigt Hill
#
# Bulk Modulus (GPa) = 23.36863 66.96320 45.16591
# Shear Modulus (GPa) = 14.88550 22.67189 18.77870
#
# Velocity S-wave (km/s) = 2.83204 3.49512 3.18090
# Velocity P-wave (km/s) = 4.82547 7.23659 6.15034
#
# Compressibility (1/GPa) = 0.04279242
#
# Stress axis : x y z
#
# Youngs Moduli (GPa) = 89.28875 91.91473 16.08342
#
# Poissons Ratio (x) = 0.41616 0.09696
# Poissons Ratio (y) = 0.40427 0.16365
# Poissons Ratio (z) = 0.53826 0.93527
#
# Static dielectric constant tensor:
#      x y z
#    x 3.603420 0.000000 0.000000 
#    y 0.000000 3.544080 0.000000 
#    z 0.000000 0.000000 2.939530 
# 
# 
# High freq. dielectric constant tensor:
#      x y z
#    x 1.725710 0.000000 0.000000 
#    y 0.000000 1.726310 0.000000 
#    z 0.000000 0.000000 1.669360 
# 
# From -- ./inp_files/19436.got.cif
#   From: 2010.03.12/outbox.cif.g09.slc.cpg/sg63_10_cif.got.tgz:19436.got - 2010.04.10 19:34:48.
