data_PCOD8258591
_publ_section_title
;
Structure prediction by ZEFSAII (Michael W. Deem and Ramdas Pophale) SiO2 
 PCOD8258591
Probable space group: C M C M
;
_chemical_formula_sum "Si O2"
_cell_formula_units_Z 80
_cell_length_a 8.986776
_cell_length_b 19.122609
_cell_length_c 25.509714
_cell_angle_alpha 90.000000
_cell_angle_beta 90.000000
_cell_angle_gamma 90.000000
_cell_volume 4383.859749
_symmetry_space_group_name_H-M "C M C M"
_symmetry_group_IT_number 63
_symmetry_cell_setting 'orthorhombic'
loop_
_space_group_symop_operation_xyz
x,y,z
-x,-y,1/2+z
x,-y,-z
-x,y,1/2-z
-x,-y,-z
x,y,1/2-z
-x,y,z
x,-y,1/2+z
1/2+x,1/2+y,z
1/2-x,1/2-y,1/2+z
1/2+x,1/2-y,-z
1/2-x,1/2+y,1/2-z
1/2-x,1/2-y,-z
1/2+x,1/2+y,1/2-z
1/2-x,1/2+y,z
1/2+x,1/2-y,1/2+z
loop_
_atom_site_type_symbol
_atom_site_label
_atom_site_fract_x
_atom_site_fract_y
_atom_site_fract_z
Si Si1 0.673097 0.617463 0.033671
Si Si2 0.171677 0.372989 0.810100
Si Si3 0.173584 0.768178 0.881599
Si Si4 0.326524 0.987964 0.894045
Si Si5 0.324532 0.629056 0.913676
O O1 0.500000 0.597783 0.038083
O O2 0.711447 0.686565 0.066809
O O3 0.765304 0.551539 0.054656
O O4 0.722741 0.632096 0.974493
O O5 0.211114 0.388176 0.750000
O O6 0.272492 0.309315 0.830171
O O7 0.208455 0.443101 0.842219
O O8 0.000000 0.351724 0.817831
O O9 0.260709 0.695920 0.884111
O O10 0.000000 0.752473 0.876686
O O11 0.500000 0.001651 0.902036
O O12 0.243583 0.061024 0.886339
O O13 0.500000 0.627780 0.906786
#
# Coordination Sequence:
#
# PCOD8258591 Si02
#       5
#    16  16  16  16  16
#     4   9  19  34  51  73 104 142 177 208 249 304
#     4   9  19  38  60  77  97 129 168 210 258 311
#     4  10  20  34  53  78 105 133 171 215 255 300
#     4  10  20  33  52  78 104 133 172 215 257 304
#     4  11  21  33  50  74 108 144 173 207 253 303
#
# _framework density 18.248760000000001
#
# number of rings (size 3 to 8) (size 9 to 14) (size 15 to 20)
#    0.000    2.200    0.000    3.000    0.000    6.000 
#    0.000    1.000    0.000    3.600    0.000    0.000 
#    0.000    0.000    0.000    0.000    0.000    0.000 
#
# Total GULP energy -496217.901036 kJ/mol
# GULP energy per Si atom -12405.447526 kJ/mol
# Density = 1.820722 g / cm^3
# Si number density = 18.248760 Si / 1000 Ang^3
#
#
#
# Elastic Constant Matrix: (Units=GPa)
#
#
# Indices 1 2 3 4 5 6 
#
# 1 82.7317 63.8865 38.4100 0.0000 0.0000 0.0000
# 2 63.8865 142.2624 45.3697 0.0000 0.0000 0.0000
# 3 38.4100 45.3697 94.3728 0.0000 0.0000 0.0000
# 4 0.0000 0.0000 0.0000 12.6046 0.0000 0.0000
# 5 0.0000 0.0000 0.0000 0.0000 25.3767 0.0000
# 6 0.0000 0.0000 0.0000 0.0000 0.0000 39.1248
#
#
#
# Elastic Compliance Matrix: (Units=1/GPa)
#
#
# Indices 1 2 3 4 5 6 
#
# 1 0.020012 -0.007546 -0.004517 0.000000 0.000000 0.000000
# 2 -0.007546 0.011148 -0.002288 0.000000 0.000000 0.000000
# 3 -0.004517 -0.002288 0.013535 0.000000 0.000000 0.000000
# 4 0.000000 0.000000 0.000000 0.079336 0.000000 0.000000
# 5 0.000000 0.000000 0.000000 0.000000 0.039406 0.000000
# 6 0.000000 0.000000 0.000000 0.000000 0.000000 0.025559
#
#
# Mechanical properties :
#
#
# Convention : Reuss Voigt Hill
#
# Bulk Modulus (GPa) = 62.53212 68.29994 65.41603
# Shear Modulus (GPa) = 22.41870 26.86795 24.64333
#
# Velocity S-wave (km/s) = 3.50881 3.84124 3.67878
# Velocity P-wave (km/s) = 7.12436 7.56187 7.34638
#
# Compressibility (1/GPa) = 0.01599178
#
# Stress axis : x y z
#
# Youngs Moduli (GPa) = 49.97091 89.70429 73.88466
#
# Poissons Ratio (x) = 0.67693 0.33373
# Poissons Ratio (y) = 0.37709 0.16904
# Poissons Ratio (z) = 0.22572 0.20524
#
# Static dielectric constant tensor:
#      x y z
#    x 3.399740 0.000000 0.000000 
#    y 0.000000 3.363540 0.000000 
#    z 0.000000 0.000000 3.262840 
# 
# 
# High freq. dielectric constant tensor:
#      x y z
#    x 1.716020 0.000000 0.000000 
#    y 0.000000 1.711090 0.000000 
#    z 0.000000 0.000000 1.690490 
# 
# From -- ./inp_files/66538.got.cif
#   From: 2010.03.12/outbox.cif.g09.slc.cpg/sg63_34_cif.got.tgz:66538.got - 2010.04.10 19:34:48.
