data_PCOD8258793
_publ_section_title
;
Structure prediction by ZEFSAII (Michael W. Deem and Ramdas Pophale) SiO2 
 PCOD8258793
Probable space group: C M C M
;
_chemical_formula_sum "Si O2"
_cell_formula_units_Z 96
_cell_length_a 10.843760
_cell_length_b 25.144720
_cell_length_c 17.923503
_cell_angle_alpha 90.000000
_cell_angle_beta 90.000000
_cell_angle_gamma 90.000000
_cell_volume 4887.081636
_symmetry_space_group_name_H-M "C M C M"
_symmetry_group_IT_number 63
_symmetry_cell_setting 'orthorhombic'
loop_
_space_group_symop_operation_xyz
x,y,z
-x,-y,1/2+z
x,-y,-z
-x,y,1/2-z
-x,-y,-z
x,y,1/2-z
-x,y,z
x,-y,1/2+z
1/2+x,1/2+y,z
1/2-x,1/2-y,1/2+z
1/2+x,1/2-y,-z
1/2-x,1/2+y,1/2-z
1/2-x,1/2-y,-z
1/2+x,1/2+y,1/2-z
1/2-x,1/2+y,z
1/2+x,1/2-y,1/2+z
loop_
_atom_site_type_symbol
_atom_site_label
_atom_site_fract_x
_atom_site_fract_y
_atom_site_fract_z
Si Si1 0.861598 0.611885 0.576774
Si Si2 0.761354 0.484208 0.333261
Si Si3 0.139344 0.826898 0.664928
Si Si4 0.246891 0.414886 0.926515
Si Si5 0.142878 0.731706 0.943512
Si Si6 0.000000 0.937278 0.494082
Si Si7 0.500000 0.549751 0.829900
O O1 0.782945 0.573303 0.629685
O O2 0.853168 0.597362 0.489447
O O3 0.821611 0.673133 0.586344
O O4 0.000000 0.603127 0.603617
O O5 0.820762 0.487647 0.250000
O O6 0.804790 0.532190 0.386096
O O7 0.614684 0.490490 0.328440
O O8 0.174463 0.817866 0.750000
O O9 0.240765 0.867660 0.632879
O O10 0.150550 0.769953 0.626756
O O11 0.000000 0.849490 0.655823
O O12 0.378345 0.416310 0.967145
O O13 0.000000 0.732212 0.976183
O O14 0.250000 0.750000 0.000000
O O15 0.000000 0.916665 0.407220
O O16 0.000000 0.000000 0.500000
O O17 0.500000 0.583068 0.750000
#
# Coordination Sequence:
#
# PCOD8258793 Si02
#       7
#    16  16  16  16  16   8   8
#     4  11  24  40  61  84 116 158 209 255 295 347
#     4  11  23  37  55  84 123 163 199 244 303 363
#     4  10  21  36  60  94 124 152 194 250 312 368
#     4  12  20  35  59  87 122 155 197 246 301 362
#     4  10  21  41  65  92 119 158 205 256 307 363
#     4  12  18  32  54  86 114 156 196 232 294 357
#     4  10  20  34  52  82 124 154 190 244 301 356
#
# _framework density 19.643626000000001
#
# number of rings (size 3 to 8) (size 9 to 14) (size 15 to 20)
#    0.000    1.167    5.833    1.000    0.000    2.333 
#    1.500    1.667    0.000    3.000    0.000    0.000 
#    0.000    0.000    0.000    0.000    0.000    0.000 
#
# Total GULP energy -594868.705860 kJ/mol
# GULP energy per Si atom -12393.098039 kJ/mol
# Density = 1.959892 g / cm^3
# Si number density = 19.643626 Si / 1000 Ang^3
#
#
#
# Elastic Constant Matrix: (Units=GPa)
#
#
# Indices 1 2 3 4 5 6 
#
# 1 44.9023 24.7368 15.6965 0.0000 0.0000 0.0000
# 2 24.7368 129.4095 48.2925 0.0000 0.0000 0.0000
# 3 15.6965 48.2925 138.2856 0.0000 0.0000 0.0000
# 4 0.0000 0.0000 0.0000 31.3969 0.0000 0.0000
# 5 0.0000 0.0000 0.0000 0.0000 17.4232 0.0000
# 6 0.0000 0.0000 0.0000 0.0000 0.0000 22.3057
#
#
#
# Elastic Compliance Matrix: (Units=1/GPa)
#
#
# Indices 1 2 3 4 5 6 
#
# 1 0.025109 -0.004296 -0.001350 0.000000 0.000000 0.000000
# 2 -0.004296 0.009620 -0.002872 0.000000 0.000000 0.000000
# 3 -0.001350 -0.002872 0.008388 0.000000 0.000000 0.000000
# 4 0.000000 0.000000 0.000000 0.031850 0.000000 0.000000
# 5 0.000000 0.000000 0.000000 0.000000 0.057395 0.000000
# 6 0.000000 0.000000 0.000000 0.000000 0.000000 0.044832
#
#
# Mechanical properties :
#
#
# Convention : Reuss Voigt Hill
#
# Bulk Modulus (GPa) = 38.34144 54.44991 46.39568
# Shear Modulus (GPa) = 24.63990 29.14993 26.89492
#
# Velocity S-wave (km/s) = 3.54552 3.85637 3.70421
# Velocity P-wave (km/s) = 6.02676 6.89984 6.47803
#
# Compressibility (1/GPa) = 0.02608144
#
# Stress axis : x y z
#
# Youngs Moduli (GPa) = 39.82628 103.94631 119.22348
#
# Poissons Ratio (x) = 0.44654 0.16093
# Poissons Ratio (y) = 0.17109 0.34241
# Poissons Ratio (z) = 0.05376 0.29854
#
# Static dielectric constant tensor:
#      x y z
#    x 3.572540 0.000000 0.000000 
#    y 0.000000 3.527240 0.000000 
#    z 0.000000 0.000000 3.900240 
# 
# 
# High freq. dielectric constant tensor:
#      x y z
#    x 1.752280 0.000000 0.000000 
#    y 0.000000 1.756280 0.000000 
#    z 0.000000 0.000000 1.773240 
# 
# From -- ./inp_files/42527.got.cif
#   From: 2010.03.12/outbox.cif.g09.slc.cpg/sg63_22_cif.got.tgz:42527.got - 2010.04.10 19:34:48.
