data_PCOD8258804
_publ_section_title
;
Structure prediction by ZEFSAII (Michael W. Deem and Ramdas Pophale) SiO2 
 PCOD8258804
Probable space group: C M C M
;
_chemical_formula_sum "Si O2"
_cell_formula_units_Z 112
_cell_length_a 14.835110
_cell_length_b 16.640376
_cell_length_c 23.834870
_cell_angle_alpha 90.000000
_cell_angle_beta 90.000000
_cell_angle_gamma 90.000000
_cell_volume 5883.919111
_symmetry_space_group_name_H-M "C M C M"
_symmetry_group_IT_number 63
_symmetry_cell_setting 'orthorhombic'
loop_
_space_group_symop_operation_xyz
x,y,z
-x,-y,1/2+z
x,-y,-z
-x,y,1/2-z
-x,-y,-z
x,y,1/2-z
-x,y,z
x,-y,1/2+z
1/2+x,1/2+y,z
1/2-x,1/2-y,1/2+z
1/2+x,1/2-y,-z
1/2-x,1/2+y,1/2-z
1/2-x,1/2-y,-z
1/2+x,1/2+y,1/2-z
1/2-x,1/2+y,z
1/2+x,1/2-y,1/2+z
loop_
_atom_site_type_symbol
_atom_site_label
_atom_site_fract_x
_atom_site_fract_y
_atom_site_fract_z
Si Si1 0.599829 0.887363 0.311579
Si Si2 0.396989 0.409904 0.314640
Si Si3 0.399102 0.697539 0.186974
Si Si4 0.740907 0.024480 0.616802
Si Si5 0.900540 0.781600 0.403427
Si Si6 0.246468 0.149517 0.095407
Si Si7 0.160192 0.085906 0.984332
O O1 0.631079 0.917042 0.250000
O O2 0.500000 0.919993 0.324290
O O3 0.600776 0.792587 0.313651
O O4 0.664954 0.920249 0.358158
O O5 0.368116 0.401906 0.250000
O O6 0.500000 0.440081 0.320687
O O7 0.332893 0.473433 0.346261
O O8 0.384395 0.321943 0.342571
O O9 0.374840 0.666697 0.250000
O O10 0.500000 0.666612 0.170828
O O11 0.325659 0.669359 0.142879
O O12 0.755848 0.059805 0.554704
O O13 0.705626 0.933259 0.613800
O O14 0.822435 0.716917 0.413632
O O15 0.902397 0.852977 0.449698
O O16 0.000000 0.740908 0.405506
O O17 0.193671 0.135763 0.037704
O O18 0.111189 0.000000 0.000000
#
# Coordination Sequence:
#
# PCOD8258804 Si02
#       7
#    16  16  16  16  16  16  16
#     4   9  18  34  55  77 103 139 182 221 258 308
#     4   9  18  34  55  77 103 138 177 214 258 314
#     4   9  19  35  55  80 106 133 171 220 272 320
#     4  10  20  34  53  75 104 140 177 218 261 309
#     4  10  21  36  55  80 110 142 176 216 263 320
#     4  11  22  35  54  79 110 142 172 215 273 323
#     4   9  20  38  56  76 102 137 182 225 264 314
#
# _framework density 19.034931
#
# number of rings (size 3 to 8) (size 9 to 14) (size 15 to 20)
#    0.000    2.429    0.000    3.429    0.000    4.857 
#    0.000    6.429    0.000    4.286    0.000    0.000 
#    0.000    0.000    0.000    0.000    0.000    0.000 
#
# Total GULP energy -694024.318181 kJ/mol
# GULP energy per Si atom -12393.291396 kJ/mol
# Density = 1.899161 g / cm^3
# Si number density = 19.034931 Si / 1000 Ang^3
#
#
#
# Elastic Constant Matrix: (Units=GPa)
#
#
# Indices 1 2 3 4 5 6 
#
# 1 77.3876 35.2146 41.5767 0.0000 0.0000 0.0000
# 2 35.2146 66.7069 30.2879 0.0000 0.0000 0.0000
# 3 41.5767 30.2879 118.7163 0.0000 0.0000 0.0000
# 4 0.0000 0.0000 0.0000 22.3056 0.0000 0.0000
# 5 0.0000 0.0000 0.0000 0.0000 13.3349 0.0000
# 6 0.0000 0.0000 0.0000 0.0000 0.0000 6.4401
#
#
#
# Elastic Compliance Matrix: (Units=1/GPa)
#
#
# Indices 1 2 3 4 5 6 
#
# 1 0.019026 -0.007938 -0.004638 0.000000 0.000000 0.000000
# 2 -0.007938 0.020267 -0.002391 0.000000 0.000000 0.000000
# 3 -0.004638 -0.002391 0.010658 0.000000 0.000000 0.000000
# 4 0.000000 0.000000 0.000000 0.044832 0.000000 0.000000
# 5 0.000000 0.000000 0.000000 0.000000 0.074991 0.000000
# 6 0.000000 0.000000 0.000000 0.000000 0.000000 0.155277
#
#
# Mechanical properties :
#
#
# Convention : Reuss Voigt Hill
#
# Bulk Modulus (GPa) = 49.95692 52.99657 51.47675
# Shear Modulus (GPa) = 13.82528 18.79821 16.31174
#
# Velocity S-wave (km/s) = 2.69794 3.14596 2.93053
# Velocity P-wave (km/s) = 6.00058 6.41079 6.20908
#
# Compressibility (1/GPa) = 0.02001725
#
# Stress axis : x y z
#
# Youngs Moduli (GPa) = 52.56009 49.34171 93.82888
#
# Poissons Ratio (x) = 0.39167 0.43518
# Poissons Ratio (y) = 0.41722 0.22431
# Poissons Ratio (z) = 0.24378 0.11796
#
# Static dielectric constant tensor:
#      x y z
#    x 3.555970 0.000000 0.000000 
#    y 0.000000 3.402770 0.000000 
#    z 0.000000 0.000000 3.731750 
# 
# 
# High freq. dielectric constant tensor:
#      x y z
#    x 1.727950 0.000000 0.000000 
#    y 0.000000 1.730050 0.000000 
#    z 0.000000 0.000000 1.752760 
# 
# From -- ./inp_files/63002.got.cif
#   From: 2010.03.12/outbox.cif.g09.slc.cpg/sg63_32_cif.got.tgz:63002.got - 2010.04.10 19:34:48.
