data_PCOD8258177
_publ_section_title
;
Structure prediction by ZEFSAII (Michael W. Deem and Ramdas Pophale) SiO2 
 PCOD8258177
Probable space group: C M C M
;
_chemical_formula_sum "Si O2"
_cell_formula_units_Z 52
_cell_length_a 7.704816
_cell_length_b 20.168854
_cell_length_c 16.808559
_cell_angle_alpha 90.000000
_cell_angle_beta 90.000000
_cell_angle_gamma 90.000000
_cell_volume 2612.004837
_symmetry_space_group_name_H-M "C M C M"
_symmetry_group_IT_number 63
_symmetry_cell_setting 'orthorhombic'
loop_
_space_group_symop_operation_xyz
x,y,z
-x,-y,1/2+z
x,-y,-z
-x,y,1/2-z
-x,-y,-z
x,y,1/2-z
-x,y,z
x,-y,1/2+z
1/2+x,1/2+y,z
1/2-x,1/2-y,1/2+z
1/2+x,1/2-y,-z
1/2-x,1/2+y,1/2-z
1/2-x,1/2-y,-z
1/2+x,1/2+y,1/2-z
1/2-x,1/2+y,z
1/2+x,1/2-y,1/2+z
loop_
_atom_site_type_symbol
_atom_site_label
_atom_site_fract_x
_atom_site_fract_y
_atom_site_fract_z
Si Si1 0.192734 0.122505 0.250000
Si Si2 0.500000 0.978858 0.750000
Si Si3 0.193255 0.150716 0.939257
Si Si4 0.000000 0.548557 0.577685
Si Si5 0.797399 0.706767 0.103007
O O1 0.325880 0.062916 0.250000
O O2 0.216896 0.169545 0.176014
O O3 0.000000 0.091654 0.250000
O O4 0.500000 0.017260 0.665820
O O5 0.327554 0.092145 0.925993
O O6 0.234270 0.214498 0.883714
O O7 0.000000 0.122918 0.921317
O O8 0.194854 0.178911 0.028002
O O9 0.000000 0.500000 0.500000
O O10 0.000000 0.690285 0.092728
#
# Coordination Sequence:
#
# PCOD8258177 Si02
#       5
#     8   4  16   8  16
#     4  12  24  39  65  93 123 170 210 269 328 378
#     4  12  28  46  62  94 134 176 228 260 308 412
#     4  10  22  39  65  96 124 168 212 265 322 385
#     4  12  26  44  66  90 138 184 214 262 318 388
#     4  10  19  38  65  96 131 153 208 275 331 379
#
# _framework density 19.908079000000001
#
# number of rings (size 3 to 8) (size 9 to 14) (size 15 to 20)
#    0.000    1.231    3.077    2.769    4.308    3.077 
#    0.000    1.538    0.000    0.000    0.000    0.000 
#    0.000    0.000    0.000    0.000    0.000    0.000 
#
# Total GULP energy -322291.631850 kJ/mol
# GULP energy per Si atom -12395.831994 kJ/mol
# Density = 1.986277 g / cm^3
# Si number density = 19.908079 Si / 1000 Ang^3
#
#
#
# Elastic Constant Matrix: (Units=GPa)
#
#
# Indices 1 2 3 4 5 6 
#
# 1 167.1886 98.7320 44.8447 0.0000 0.0000 0.0000
# 2 98.7320 129.4525 58.7926 0.0000 0.0000 0.0000
# 3 44.8447 58.7926 93.4309 0.0000 0.0000 0.0000
# 4 0.0000 0.0000 0.0000 101.2546 0.0000 0.0000
# 5 0.0000 0.0000 0.0000 0.0000 46.2077 0.0000
# 6 0.0000 0.0000 0.0000 0.0000 0.0000 39.5521
#
#
#
# Elastic Compliance Matrix: (Units=1/GPa)
#
#
# Indices 1 2 3 4 5 6 
#
# 1 0.010883 -0.008300 -0.000001 0.000000 0.000000 0.000000
# 2 -0.008300 0.017146 -0.006806 0.000000 0.000000 0.000000
# 3 -0.000001 -0.006806 0.014986 0.000000 0.000000 0.000000
# 4 0.000000 0.000000 0.000000 0.009876 0.000000 0.000000
# 5 0.000000 0.000000 0.000000 0.000000 0.021641 0.000000
# 6 0.000000 0.000000 0.000000 0.000000 0.000000 0.025283
#
#
# Mechanical properties :
#
#
# Convention : Reuss Voigt Hill
#
# Bulk Modulus (GPa) = 78.11030 88.31231 83.21130
# Shear Modulus (GPa) = 37.23140 49.91642 43.57391
#
# Velocity S-wave (km/s) = 4.32923 5.01277 4.68349
# Velocity P-wave (km/s) = 8.01937 8.82951 8.43417
#
# Compressibility (1/GPa) = 0.01280241
#
# Stress axis : x y z
#
# Youngs Moduli (GPa) = 91.88682 58.32274 66.72941
#
# Poissons Ratio (x) = 0.48408 0.00005
# Poissons Ratio (y) = 0.76266 0.45413
# Poissons Ratio (z) = 0.00006 0.39692
#
# Static dielectric constant tensor:
#      x y z
#    x 3.585840 0.000000 0.000000 
#    y 0.000000 3.704090 0.000000 
#    z 0.000000 0.000000 3.764710 
# 
# 
# High freq. dielectric constant tensor:
#      x y z
#    x 1.797840 0.000000 0.000000 
#    y 0.000000 1.772380 0.000000 
#    z 0.000000 0.000000 1.775760 
# 
# From -- ./inp_files/27156.got.cif
#   From: 2010.03.12/outbox.cif.g09.slc.cpg/sg63_14_cif.got.tgz:27156.got - 2010.04.10 19:34:48.
