data_PCOD8258230
_publ_section_title
;
Structure prediction by ZEFSAII (Michael W. Deem and Ramdas Pophale) SiO2 
 PCOD8258230
Probable space group: C M C M
;
_chemical_formula_sum "Si O2"
_cell_formula_units_Z 96
_cell_length_a 14.139879
_cell_length_b 12.829303
_cell_length_c 28.787568
_cell_angle_alpha 90.000000
_cell_angle_beta 90.000000
_cell_angle_gamma 90.000000
_cell_volume 5222.202787
_symmetry_space_group_name_H-M "C M C M"
_symmetry_group_IT_number 63
_symmetry_cell_setting 'orthorhombic'
loop_
_space_group_symop_operation_xyz
x,y,z
-x,-y,1/2+z
x,-y,-z
-x,y,1/2-z
-x,-y,-z
x,y,1/2-z
-x,y,z
x,-y,1/2+z
1/2+x,1/2+y,z
1/2-x,1/2-y,1/2+z
1/2+x,1/2-y,-z
1/2-x,1/2+y,1/2-z
1/2-x,1/2-y,-z
1/2+x,1/2+y,1/2-z
1/2-x,1/2+y,z
1/2+x,1/2-y,1/2+z
loop_
_atom_site_type_symbol
_atom_site_label
_atom_site_fract_x
_atom_site_fract_y
_atom_site_fract_z
Si Si1 0.896052 0.100678 0.967738
Si Si2 0.611785 0.794869 0.300111
Si Si3 0.793058 0.018150 0.393400
Si Si4 0.889011 0.059323 0.197703
Si Si5 0.891016 0.414289 0.109865
Si Si6 0.890245 0.206595 0.056560
O O1 0.828690 0.080125 0.924158
O O2 0.000000 0.126034 0.947900
O O3 0.861600 0.194471 0.002001
O O4 0.898833 0.000000 0.000000
O O5 0.645015 0.840245 0.250000
O O6 0.500000 0.787781 0.302158
O O7 0.649040 0.677567 0.305884
O O8 0.646238 0.868027 0.341377
O O9 0.678421 0.012636 0.398117
O O10 0.829496 0.996542 0.340955
O O11 0.828293 0.130191 0.411173
O O12 0.869642 0.016240 0.250000
O O13 0.000000 0.050897 0.186007
O O14 0.876381 0.326446 0.070495
O O15 0.000000 0.452658 0.111070
O O16 0.000000 0.173134 0.063753
#
# Coordination Sequence:
#
# PCOD8258230 Si02
#       6
#    16  16  16  16  16  16
#     4   8  15  27  47  72  94 120 152 192 236 279
#     4   8  14  27  46  65  88 119 152 187 228 272
#     4  11  18  27  49  73  97 121 157 194 234 277
#     4   9  16  27  47  74  98 118 147 194 242 277
#     4  10  20  31  46  69  96 126 158 195 233 270
#     4   9  17  33  52  70  95 122 154 197 238 275
#
# _framework density 18.383047999999999
#
# number of rings (size 3 to 8) (size 9 to 14) (size 15 to 20)
#    0.000    2.833    1.667    3.500    0.000    1.333 
#    0.000    0.000    0.000    7.500    0.000    0.000 
#    0.000    0.000    0.000    0.000    0.000    0.000 
#
# Total GULP energy -594681.811438 kJ/mol
# GULP energy per Si atom -12389.204405 kJ/mol
# Density = 1.834121 g / cm^3
# Si number density = 18.383048 Si / 1000 Ang^3
#
#
#
# Elastic Constant Matrix: (Units=GPa)
#
#
# Indices 1 2 3 4 5 6 
#
# 1 90.5611 26.4153 26.3802 0.0000 0.0000 0.0000
# 2 26.4153 26.9284 5.7768 0.0000 0.0000 0.0000
# 3 26.3802 5.7768 71.0364 0.0000 0.0000 0.0000
# 4 0.0000 0.0000 0.0000 9.0839 0.0000 0.0000
# 5 0.0000 0.0000 0.0000 0.0000 9.6967 0.0000
# 6 0.0000 0.0000 0.0000 0.0000 0.0000 25.0264
#
#
#
# Elastic Compliance Matrix: (Units=1/GPa)
#
#
# Indices 1 2 3 4 5 6 
#
# 1 0.017093 -0.015679 -0.005073 0.000000 0.000000 0.000000
# 2 -0.015679 0.052177 0.001580 0.000000 0.000000 0.000000
# 3 -0.005073 0.001580 0.015833 0.000000 0.000000 0.000000
# 4 0.000000 0.000000 0.000000 0.110085 0.000000 0.000000
# 5 0.000000 0.000000 0.000000 0.000000 0.103128 0.000000
# 6 0.000000 0.000000 0.000000 0.000000 0.000000 0.039958
#
#
# Mechanical properties :
#
#
# Convention : Reuss Voigt Hill
#
# Bulk Modulus (GPa) = 21.38662 33.96338 27.67500
# Shear Modulus (GPa) = 12.74842 17.42498 15.08670
#
# Velocity S-wave (km/s) = 2.63627 3.08211 2.86787
# Velocity P-wave (km/s) = 4.57446 5.58403 5.10427
#
# Compressibility (1/GPa) = 0.04675820
#
# Stress axis : x y z
#
# Youngs Moduli (GPa) = 58.50213 19.16542 63.16055
#
# Poissons Ratio (x) = 0.30050 0.32040
# Poissons Ratio (y) = 0.91728 -0.09977
# Poissons Ratio (z) = 0.29677 -0.03027
#
# Static dielectric constant tensor:
#      x y z
#    x 3.146850 0.000000 0.000000 
#    y 0.000000 2.932130 0.000000 
#    z 0.000000 0.000000 4.362230 
# 
# 
# High freq. dielectric constant tensor:
#      x y z
#    x 1.690410 0.000000 0.000000 
#    y 0.000000 1.659750 0.000000 
#    z 0.000000 0.000000 1.727050 
# 
# From -- ./inp_files/73481.got.cif
#   From: 2010.03.12/outbox.cif.g09.slc.cpg/sg63_37_cif.got.tgz:73481.got - 2010.04.10 19:34:48.
