data_PCOD8258916
_publ_section_title
;
Structure prediction by ZEFSAII (Michael W. Deem and Ramdas Pophale) SiO2 
 PCOD8258916
Probable space group: C M C M
;
_chemical_formula_sum "Si O2"
_cell_formula_units_Z 112
_cell_length_a 14.118612
_cell_length_b 14.444151
_cell_length_c 29.215630
_cell_angle_alpha 90.000000
_cell_angle_beta 90.000000
_cell_angle_gamma 90.000000
_cell_volume 5957.983265
_symmetry_space_group_name_H-M "C M C M"
_symmetry_group_IT_number 63
_symmetry_cell_setting 'orthorhombic'
loop_
_space_group_symop_operation_xyz
x,y,z
-x,-y,1/2+z
x,-y,-z
-x,y,1/2-z
-x,-y,-z
x,y,1/2-z
-x,y,z
x,-y,1/2+z
1/2+x,1/2+y,z
1/2-x,1/2-y,1/2+z
1/2+x,1/2-y,-z
1/2-x,1/2+y,1/2-z
1/2-x,1/2-y,-z
1/2+x,1/2+y,1/2-z
1/2-x,1/2+y,z
1/2+x,1/2-y,1/2+z
loop_
_atom_site_type_symbol
_atom_site_label
_atom_site_fract_x
_atom_site_fract_y
_atom_site_fract_z
Si Si1 0.106812 0.286818 0.380238
Si Si2 0.262225 0.047776 0.044087
Si Si3 0.111373 0.953039 0.301918
Si Si4 0.887812 0.838454 0.799766
Si Si5 0.211524 0.113041 0.890360
Si Si6 0.603320 0.682764 0.025948
Si Si7 0.609584 0.787628 0.937233
O O1 0.151986 0.229526 0.338144
O O2 0.175249 0.373398 0.387086
O O3 0.110135 0.219613 0.423020
O O4 0.000000 0.322864 0.370932
O O5 0.181312 0.105740 0.018215
O O6 0.335677 0.114943 0.071229
O O7 0.206328 0.979330 0.078843
O O8 0.313781 0.000000 0.000000
O O9 0.132061 0.917092 0.250000
O O10 0.167579 0.895733 0.339882
O O11 0.000000 0.945751 0.312404
O O12 0.149277 0.057704 0.306759
O O13 0.855637 0.801153 0.750000
O O14 0.000000 0.841487 0.803455
O O15 0.159385 0.201787 0.911891
O O16 0.500000 0.638186 0.017027
O O17 0.618106 0.768351 0.991374
O O18 0.500000 0.796829 0.921238
#
# Coordination Sequence:
#
# PCOD8258916 Si02
#       7
#    16  16  16  16  16  16  16
#     4  10  20  34  54  80 112 148 190 234 284 342
#     4  12  23  37  59  85 121 155 198 243 294 348
#     4   9  19  36  58  87 116 142 184 239 292 348
#     4   8  15  31  55  80 106 135 174 232 291 336
#     4  12  23  36  61  84 116 155 198 241 290 346
#     4  10  20  37  58  80 112 149 190 239 292 341
#     4  11  24  41  58  83 119 158 199 244 291 351
#
# _framework density 18.798307000000001
#
# number of rings (size 3 to 8) (size 9 to 14) (size 15 to 20)
#    0.000    1.714    2.857    3.429    0.000    4.000 
#    0.000    0.000    0.000    0.000    0.000    0.000 
#    0.000    0.000    0.000    0.000    0.000    0.000 
#
# Total GULP energy -694082.448266 kJ/mol
# GULP energy per Si atom -12394.329433 kJ/mol
# Density = 1.875552 g / cm^3
# Si number density = 18.798307 Si / 1000 Ang^3
#
#
#
# Elastic Constant Matrix: (Units=GPa)
#
#
# Indices 1 2 3 4 5 6 
#
# 1 97.3097 37.8662 21.8530 0.0000 0.0000 0.0000
# 2 37.8662 69.7653 20.9369 0.0000 0.0000 0.0000
# 3 21.8530 20.9369 93.8870 0.0000 0.0000 0.0000
# 4 0.0000 0.0000 0.0000 21.3338 0.0000 0.0000
# 5 0.0000 0.0000 0.0000 0.0000 21.3337 0.0000
# 6 0.0000 0.0000 0.0000 0.0000 0.0000 15.1279
#
#
#
# Elastic Compliance Matrix: (Units=1/GPa)
#
#
# Indices 1 2 3 4 5 6 
#
# 1 0.013245 -0.006713 -0.001586 0.000000 0.000000 0.000000
# 2 -0.006713 0.018764 -0.002622 0.000000 0.000000 0.000000
# 3 -0.001586 -0.002622 0.011605 0.000000 0.000000 0.000000
# 4 0.000000 0.000000 0.000000 0.046874 0.000000 0.000000
# 5 0.000000 0.000000 0.000000 0.000000 0.046874 0.000000
# 6 0.000000 0.000000 0.000000 0.000000 0.000000 0.066103
#
#
# Mechanical properties :
#
#
# Convention : Reuss Voigt Hill
#
# Bulk Modulus (GPa) = 45.92952 46.91935 46.42444
# Shear Modulus (GPa) = 21.49946 23.57947 22.53947
#
# Velocity S-wave (km/s) = 3.38552 3.54551 3.46644
# Velocity P-wave (km/s) = 6.30620 6.46331 6.38524
#
# Compressibility (1/GPa) = 0.02177249
#
# Stress axis : x y z
#
# Youngs Moduli (GPa) = 75.50138 53.29310 86.17030
#
# Poissons Ratio (x) = 0.35775 0.13665
# Poissons Ratio (y) = 0.50683 0.22593
# Poissons Ratio (z) = 0.11973 0.13973
#
# Static dielectric constant tensor:
#      x y z
#    x 3.494420 0.000000 0.000000 
#    y 0.000000 3.333490 0.000000 
#    z 0.000000 0.000000 3.650080 
# 
# 
# High freq. dielectric constant tensor:
#      x y z
#    x 1.718110 0.000000 0.000000 
#    y 0.000000 1.713520 0.000000 
#    z 0.000000 0.000000 1.734680 
# 
# From -- ./inp_files/69382.got.cif
#   From: 2010.03.12/outbox.cif.g09.slc.cpg/sg63_35_cif.got.tgz:69382.got - 2010.04.10 19:34:48.
