data_PCOD8258758
_publ_section_title
;
Structure prediction by ZEFSAII (Michael W. Deem and Ramdas Pophale) SiO2 
 PCOD8258758
Probable space group: C M C M
;
_chemical_formula_sum "Si O2"
_cell_formula_units_Z 96
_cell_length_a 9.382794
_cell_length_b 22.649789
_cell_length_c 23.400132
_cell_angle_alpha 90.000000
_cell_angle_beta 90.000000
_cell_angle_gamma 90.000000
_cell_volume 4972.956374
_symmetry_space_group_name_H-M "C M C M"
_symmetry_group_IT_number 63
_symmetry_cell_setting 'orthorhombic'
loop_
_space_group_symop_operation_xyz
x,y,z
-x,-y,1/2+z
x,-y,-z
-x,y,1/2-z
-x,-y,-z
x,y,1/2-z
-x,y,z
x,-y,1/2+z
1/2+x,1/2+y,z
1/2-x,1/2-y,1/2+z
1/2+x,1/2-y,-z
1/2-x,1/2+y,1/2-z
1/2-x,1/2-y,-z
1/2+x,1/2+y,1/2-z
1/2-x,1/2+y,z
1/2+x,1/2-y,1/2+z
loop_
_atom_site_type_symbol
_atom_site_label
_atom_site_fract_x
_atom_site_fract_y
_atom_site_fract_z
Si Si1 0.832970 0.931622 0.686013
Si Si2 0.336213 0.222932 0.594089
Si Si3 0.665642 0.453918 0.119092
Si Si4 0.663782 0.664537 0.686216
Si Si5 0.832184 0.392282 0.023591
Si Si6 0.165507 0.143977 0.418805
O O1 0.764609 0.925137 0.750000
O O2 0.798765 0.874438 0.646756
O O3 0.000000 0.940208 0.693920
O O4 0.774555 0.988799 0.652101
O O5 0.500000 0.219319 0.611687
O O6 0.247707 0.213707 0.651381
O O7 0.297695 0.173077 0.547808
O O8 0.297400 0.287517 0.570542
O O9 0.500000 0.460792 0.101120
O O10 0.688856 0.400422 0.162223
O O11 0.759912 0.442642 0.062559
O O12 0.723883 0.665147 0.750000
O O13 0.500000 0.682639 0.683689
O O14 0.000000 0.404779 0.019527
O O15 0.761575 0.395291 0.961101
O O16 0.000000 0.130891 0.432440
#
# Coordination Sequence:
#
# PCOD8258758 Si02
#       6
#    16  16  16  16  16  16
#     4   9  18  33  54  78 101 128 165 207 247 290
#     4   9  19  33  49  72 101 134 169 206 250 298
#     4   9  17  32  54  76  99 128 164 206 250 295
#     4   9  17  29  48  74 100 128 165 208 251 295
#     4  10  20  34  52  75 103 132 165 206 252 298
#     4  10  20  34  53  76 101 131 168 206 246 295
#
# _framework density 19.304413
#
# number of rings (size 3 to 8) (size 9 to 14) (size 15 to 20)
#    0.000    2.667    0.000    1.500    0.000    5.000 
#    0.000    5.833    0.000    3.000    0.000    0.000 
#    0.000    0.000    0.000    0.000    0.000    0.000 
#
# Total GULP energy -595128.459757 kJ/mol
# GULP energy per Si atom -12398.509578 kJ/mol
# Density = 1.926048 g / cm^3
# Si number density = 19.304413 Si / 1000 Ang^3
#
#
#
# Elastic Constant Matrix: (Units=GPa)
#
#
# Indices 1 2 3 4 5 6 
#
# 1 47.6664 17.0775 35.5961 0.0000 0.0000 0.0000
# 2 17.0775 58.8864 27.4347 0.0000 0.0000 0.0000
# 3 35.5961 27.4347 111.9438 0.0000 0.0000 0.0000
# 4 0.0000 0.0000 0.0000 20.4277 0.0000 0.0000
# 5 0.0000 0.0000 0.0000 0.0000 27.4331 0.0000
# 6 0.0000 0.0000 0.0000 0.0000 0.0000 18.9157
#
#
#
# Elastic Compliance Matrix: (Units=1/GPa)
#
#
# Indices 1 2 3 4 5 6 
#
# 1 0.028564 -0.004574 -0.007962 0.000000 0.000000 0.000000
# 2 -0.004574 0.019903 -0.003423 0.000000 0.000000 0.000000
# 3 -0.007962 -0.003423 0.012304 0.000000 0.000000 0.000000
# 4 0.000000 0.000000 0.000000 0.048953 0.000000 0.000000
# 5 0.000000 0.000000 0.000000 0.000000 0.036452 0.000000
# 6 0.000000 0.000000 0.000000 0.000000 0.000000 0.052866
#
#
# Mechanical properties :
#
#
# Convention : Reuss Voigt Hill
#
# Bulk Modulus (GPa) = 34.65961 42.07924 38.36943
# Shear Modulus (GPa) = 20.78330 22.58119 21.68224
#
# Velocity S-wave (km/s) = 3.28473 3.42386 3.35502
# Velocity P-wave (km/s) = 5.69027 6.12172 5.90993
#
# Compressibility (1/GPa) = 0.02885202
#
# Stress axis : x y z
#
# Youngs Moduli (GPa) = 35.00968 50.24287 81.27661
#
# Poissons Ratio (x) = 0.22983 0.64709
# Poissons Ratio (y) = 0.16015 0.27823
# Poissons Ratio (z) = 0.27873 0.17199
#
# Static dielectric constant tensor:
#      x y z
#    x 3.301540 0.000000 0.000000 
#    y 0.000000 3.506950 0.000000 
#    z 0.000000 0.000000 3.639940 
# 
# 
# High freq. dielectric constant tensor:
#      x y z
#    x 1.723480 0.000000 0.000000 
#    y 0.000000 1.747690 0.000000 
#    z 0.000000 0.000000 1.756200 
# 
# From -- ./inp_files/59831.got.cif
#   From: 2010.03.12/outbox.cif.g09.slc.cpg/sg63_30_cif.got.tgz:59831.got - 2010.04.10 19:34:48.
