data_PCOD8258668
_publ_section_title
;
Structure prediction by ZEFSAII (Michael W. Deem and Ramdas Pophale) SiO2 
 PCOD8258668
Probable space group: C M C M
;
_chemical_formula_sum "Si O2"
_cell_formula_units_Z 112
_cell_length_a 22.613208
_cell_length_b 14.758912
_cell_length_c 15.413048
_cell_angle_alpha 90.000000
_cell_angle_beta 90.000000
_cell_angle_gamma 90.000000
_cell_volume 5144.048465
_symmetry_space_group_name_H-M "C M C M"
_symmetry_group_IT_number 63
_symmetry_cell_setting 'orthorhombic'
loop_
_space_group_symop_operation_xyz
x,y,z
-x,-y,1/2+z
x,-y,-z
-x,y,1/2-z
-x,-y,-z
x,y,1/2-z
-x,y,z
x,-y,1/2+z
1/2+x,1/2+y,z
1/2-x,1/2-y,1/2+z
1/2+x,1/2-y,-z
1/2-x,1/2+y,1/2-z
1/2-x,1/2-y,-z
1/2+x,1/2+y,1/2-z
1/2-x,1/2+y,z
1/2+x,1/2-y,1/2+z
loop_
_atom_site_type_symbol
_atom_site_label
_atom_site_fract_x
_atom_site_fract_y
_atom_site_fract_z
Si Si1 0.634081 0.119199 0.105616
Si Si2 0.257852 0.008739 0.346261
Si Si3 0.337060 0.347061 0.852955
Si Si4 0.067845 0.210423 0.844424
Si Si5 0.566236 0.954032 0.149772
Si Si6 0.931182 0.896366 0.987951
Si Si7 0.327494 0.153560 0.914949
O O1 0.687091 0.076718 0.160484
O O2 0.605961 0.199143 0.160538
O O3 0.585347 0.040070 0.090864
O O4 0.657689 0.158658 0.015621
O O5 0.243035 0.973375 0.250000
O O6 0.203274 0.067756 0.383255
O O7 0.274627 0.920538 0.403583
O O8 0.348584 0.349861 0.750000
O O9 0.398318 0.353974 0.905197
O O10 0.306313 0.251399 0.879405
O O11 0.074660 0.161575 0.750000
O O12 0.000000 0.237132 0.861332
O O13 0.090791 0.147352 0.921803
O O14 0.568018 0.983799 0.250000
O O15 0.500000 0.922784 0.123118
O O16 0.612555 0.872462 0.136276
O O17 0.000000 0.879567 0.970627
O O18 0.915555 0.000000 0.000000
#
# Coordination Sequence:
#
# PCOD8258668 Si02
#       7
#    16  16  16  16  16  16  16
#     4  11  20  35  59  88 124 167 208 265 316 377
#     4  10  22  40  61  88 127 170 216 266 321 386
#     4  11  24  44  68  95 129 170 216 269 327 390
#     4  10  20  37  63  94 129 169 215 266 320 380
#     4  10  20  33  54  87 127 170 211 253 311 385
#     4  10  23  44  67  94 130 168 215 272 323 381
#     4  11  22  39  62  91 128 169 211 267 323 383
#
# _framework density 21.772735000000001
#
# number of rings (size 3 to 8) (size 9 to 14) (size 15 to 20)
#    0.000    1.571    1.429    5.571    0.000    6.000 
#    2.571    1.429    0.000    0.000    0.000    0.000 
#    0.000    0.000    0.000    0.000    0.000    0.000 
#
# Total GULP energy -694308.282634 kJ/mol
# GULP energy per Si atom -12398.362190 kJ/mol
# Density = 2.172318 g / cm^3
# Si number density = 21.772735 Si / 1000 Ang^3
#
#
#
# Elastic Constant Matrix: (Units=GPa)
#
#
# Indices 1 2 3 4 5 6 
#
# 1 67.5530 39.9285 31.3920 0.0000 0.0000 0.0000
# 2 39.9285 106.2821 40.0389 0.0000 0.0000 0.0000
# 3 31.3920 40.0389 115.2077 0.0000 0.0000 0.0000
# 4 0.0000 0.0000 0.0000 31.7637 0.0000 0.0000
# 5 0.0000 0.0000 0.0000 0.0000 28.9284 0.0000
# 6 0.0000 0.0000 0.0000 0.0000 0.0000 29.8592
#
#
#
# Elastic Compliance Matrix: (Units=1/GPa)
#
#
# Indices 1 2 3 4 5 6 
#
# 1 0.020047 -0.006298 -0.003274 0.000000 0.000000 0.000000
# 2 -0.006298 0.012805 -0.002734 0.000000 0.000000 0.000000
# 3 -0.003274 -0.002734 0.010522 0.000000 0.000000 0.000000
# 4 0.000000 0.000000 0.000000 0.031482 0.000000 0.000000
# 5 0.000000 0.000000 0.000000 0.000000 0.034568 0.000000
# 6 0.000000 0.000000 0.000000 0.000000 0.000000 0.033491
#
#
# Mechanical properties :
#
#
# Convention : Reuss Voigt Hill
#
# Bulk Modulus (GPa) = 53.29757 56.86241 55.07999
# Shear Modulus (GPa) = 28.77181 29.95582 29.36382
#
# Velocity S-wave (km/s) = 3.63913 3.71326 3.67638
# Velocity P-wave (km/s) = 6.49538 6.67513 6.58587
#
# Compressibility (1/GPa) = 0.01876258
#
# Stress axis : x y z
#
# Youngs Moduli (GPa) = 49.88260 78.09437 95.03733
#
# Poissons Ratio (x) = 0.49185 0.31112
# Poissons Ratio (y) = 0.31417 0.25984
# Poissons Ratio (z) = 0.16330 0.21352
#
# Static dielectric constant tensor:
#      x y z
#    x 3.891560 0.000000 0.000000 
#    y 0.000000 3.866660 0.000000 
#    z 0.000000 0.000000 3.881580 
# 
# 
# High freq. dielectric constant tensor:
#      x y z
#    x 1.844030 0.000000 0.000000 
#    y 0.000000 1.847520 0.000000 
#    z 0.000000 0.000000 1.864280 
# 
# From -- ./inp_files/36861.got.cif
#   From: 2010.03.12/outbox.cif.g09.slc.cpg/sg63_19_cif.got.tgz:36861.got - 2010.04.10 19:34:48.
