data_PCOD8258058
_publ_section_title
;
Structure prediction by ZEFSAII (Michael W. Deem and Ramdas Pophale) SiO2 
 PCOD8258058
Probable space group: C M C M
;
_chemical_formula_sum "Si O2"
_cell_formula_units_Z 112
_cell_length_a 15.796140
_cell_length_b 14.040383
_cell_length_c 24.482502
_cell_angle_alpha 90.000000
_cell_angle_beta 90.000000
_cell_angle_gamma 90.000000
_cell_volume 5429.823686
_symmetry_space_group_name_H-M "C M C M"
_symmetry_group_IT_number 63
_symmetry_cell_setting 'orthorhombic'
loop_
_space_group_symop_operation_xyz
x,y,z
-x,-y,1/2+z
x,-y,-z
-x,y,1/2-z
-x,-y,-z
x,y,1/2-z
-x,y,z
x,-y,1/2+z
1/2+x,1/2+y,z
1/2-x,1/2-y,1/2+z
1/2+x,1/2-y,-z
1/2-x,1/2+y,1/2-z
1/2-x,1/2-y,-z
1/2+x,1/2+y,1/2-z
1/2-x,1/2+y,z
1/2+x,1/2-y,1/2+z
loop_
_atom_site_type_symbol
_atom_site_label
_atom_site_fract_x
_atom_site_fract_y
_atom_site_fract_z
Si Si1 0.591619 0.085823 0.087775
Si Si2 0.335838 0.887900 0.409669
Si Si3 0.748494 0.141480 0.015086
Si Si4 0.904734 0.178929 0.081511
Si Si5 0.345232 0.182653 0.188741
Si Si6 0.712199 0.387831 0.188146
Si Si7 0.839982 0.097569 0.188201
O O1 0.500000 0.109426 0.060918
O O2 0.668373 0.128564 0.054077
O O3 0.590755 0.132137 0.147827
O O4 0.596679 0.972061 0.092632
O O5 0.267192 0.915197 0.458043
O O6 0.383703 0.790518 0.423370
O O7 0.291698 0.880734 0.351490
O O8 0.837319 0.116842 0.045474
O O9 0.750000 0.250000 0.000000
O O10 0.902243 0.145777 0.144650
O O11 0.000000 0.161544 0.059535
O O12 0.375172 0.159279 0.250000
O O13 0.347311 0.296391 0.178223
O O14 0.252296 0.140759 0.177934
O O15 0.748329 0.386460 0.250000
O O16 0.659627 0.483975 0.177786
O O17 0.870966 0.120057 0.250000
#
# Coordination Sequence:
#
# PCOD8258058 Si02
#       7
#    16  16  16  16  16  16  16
#     4  12  24  39  62  93 125 160 203 252 316 376
#     4  11  21  37  61  92 124 158 197 253 314 370
#     4  10  22  40  60  84 121 161 202 247 302 364
#     4  11  22  39  62  91 125 161 205 256 306 359
#     4  10  19  36  60  88 123 163 205 246 297 361
#     4  10  19  35  64  91 118 161 208 249 303 365
#     4  10  19  35  61  89 121 164 206 250 303 359
#
# _framework density 20.626821
#
# number of rings (size 3 to 8) (size 9 to 14) (size 15 to 20)
#    0.000    1.429    4.286    1.714    0.000    4.000 
#    0.000    0.714    0.000   12.000    0.000    0.000 
#    0.000    0.000    0.000    0.000    0.000    0.000 
#
# Total GULP energy -694228.756011 kJ/mol
# GULP energy per Si atom -12396.942072 kJ/mol
# Density = 2.057987 g / cm^3
# Si number density = 20.626821 Si / 1000 Ang^3
#
#
#
# Elastic Constant Matrix: (Units=GPa)
#
#
# Indices 1 2 3 4 5 6 
#
# 1 136.7159 31.4149 58.8914 0.0000 0.0000 0.0000
# 2 31.4149 104.9689 34.3031 0.0000 0.0000 0.0000
# 3 58.8914 34.3031 113.0748 0.0000 0.0000 0.0000
# 4 0.0000 0.0000 0.0000 32.4559 0.0000 0.0000
# 5 0.0000 0.0000 0.0000 0.0000 10.4372 0.0000
# 6 0.0000 0.0000 0.0000 0.0000 0.0000 -0.0401
#
#
#
# Elastic Compliance Matrix: (Units=1/GPa)
#
#
# Indices 1 2 3 4 5 6 
#
# 1 0.009606 -0.001376 -0.004585 0.000000 0.000000 0.000000
# 2 -0.001376 0.010772 -0.002551 0.000000 0.000000 0.000000
# 3 -0.004585 -0.002551 0.012006 0.000000 0.000000 0.000000
# 4 0.000000 0.000000 0.000000 0.030811 0.000000 0.000000
# 5 0.000000 0.000000 0.000000 0.000000 0.095811 0.000000
# 6 0.000000 0.000000 0.000000 0.000000 0.000000-24.934717
#
#
# Mechanical properties :
#
#
# Convention : Reuss Voigt Hill
#
# Bulk Modulus (GPa) = 65.11179 67.10873 66.11026
# Shear Modulus (GPa) = -0.20199 23.91393 11.85597
#
# Velocity S-wave (km/s) = -0.31327 3.40863 2.40007
# Velocity P-wave (km/s) = 5.61286 6.93520 6.30877
#
# Compressibility (1/GPa) = 0.01535820
#
# Stress axis : x y z
#
# Youngs Moduli (GPa) = 104.10276 92.83132 83.29325
#
# Poissons Ratio (x) = 0.12777 0.38193
# Poissons Ratio (y) = 0.14328 0.21249
# Poissons Ratio (z) = 0.47735 0.23682
#
# Static dielectric constant tensor:
#      x y z
#    x 3.473720 0.000000 0.000000 
#    y 0.000000 3.978090 0.000000 
#    z 0.000000 0.000000 3.466080 
# 
# 
# High freq. dielectric constant tensor:
#      x y z
#    x 1.768950 0.000000 0.000000 
#    y 0.000000 1.816860 0.000000 
#    z 0.000000 0.000000 1.821160 
# 
# From -- ./inp_files/63007.got.cif
#   From: 2010.03.12/outbox.cif.g09.slc.cpg/sg63_32_cif.got.tgz:63007.got - 2010.04.10 19:34:48.
