data_PCOD8258097
_publ_section_title
;
Structure prediction by ZEFSAII (Michael W. Deem and Ramdas Pophale) SiO2 
 PCOD8258097
Probable space group: C M C M
;
_chemical_formula_sum "Si O2"
_cell_formula_units_Z 64
_cell_length_a 10.190676
_cell_length_b 34.686817
_cell_length_c 10.193917
_cell_angle_alpha 90.000000
_cell_angle_beta 90.000000
_cell_angle_gamma 90.000000
_cell_volume 3603.367326
_symmetry_space_group_name_H-M "C M C M"
_symmetry_group_IT_number 63
_symmetry_cell_setting 'orthorhombic'
loop_
_space_group_symop_operation_xyz
x,y,z
-x,-y,1/2+z
x,-y,-z
-x,y,1/2-z
-x,-y,-z
x,y,1/2-z
-x,y,z
x,-y,1/2+z
1/2+x,1/2+y,z
1/2-x,1/2-y,1/2+z
1/2+x,1/2-y,-z
1/2-x,1/2+y,1/2-z
1/2-x,1/2-y,-z
1/2+x,1/2+y,1/2-z
1/2-x,1/2+y,z
1/2+x,1/2-y,1/2+z
loop_
_atom_site_type_symbol
_atom_site_label
_atom_site_fract_x
_atom_site_fract_y
_atom_site_fract_z
Si Si1 0.500000 0.535032 0.901516
Si Si2 0.650748 0.664008 0.511140
Si Si3 0.653367 0.718632 0.750000
Si Si4 0.500000 0.036590 0.904600
Si Si5 0.248615 0.913628 0.401324
Si Si6 0.349791 0.710501 0.250000
O O1 0.500000 0.520846 0.750000
O O2 0.373824 0.559916 0.934898
O O3 0.500000 0.500000 0.000000
O O4 0.500000 0.651218 0.530491
O O5 0.690361 0.694136 0.622778
O O6 0.741057 0.625993 0.517222
O O7 0.676843 0.683798 0.373694
O O8 0.500000 0.731094 0.750000
O O9 0.745793 0.755518 0.750000
O O10 0.500000 0.024271 0.750000
O O11 0.623839 0.062589 0.941039
O O12 0.500000 0.000000 0.000000
O O13 0.249668 0.901608 0.250000
O O14 0.500000 0.726408 0.250000
#
# Coordination Sequence:
#
# PCOD8258097 Si02
#       6
#     8  16   8   8  16   8
#     4  10  20  34  56  84 109 135 180 226 261 321
#     4  10  19  36  59  81 112 146 183 226 275 316
#     4  10  20  36  62  80 107 150 186 218 273 332
#     4  10  22  40  58  80 113 147 180 224 277 327
#     4  10  19  36  59  80 108 145 187 219 264 328
#     4  10  22  38  52  84 119 142 176 232 277 318
#
# _framework density 17.761164999999998
#
# number of rings (size 3 to 8) (size 9 to 14) (size 15 to 20)
#    0.000    2.000    2.500    1.500    0.000    0.000 
#    9.000    0.000    0.000    0.000    0.000    0.000 
#    0.000    0.000    0.000    0.000    0.000    0.000 
#
# Total GULP energy -396848.737466 kJ/mol
# GULP energy per Si atom -12401.523046 kJ/mol
# Density = 1.772074 g / cm^3
# Si number density = 17.761165 Si / 1000 Ang^3
#
#
#
# Elastic Constant Matrix: (Units=GPa)
#
#
# Indices 1 2 3 4 5 6 
#
# 1 131.6355 87.2917 46.5317 0.0000 0.0000 0.0000
# 2 87.2917 158.6465 79.1619 0.0000 0.0000 0.0000
# 3 46.5317 79.1619 118.3660 0.0000 0.0000 0.0000
# 4 0.0000 0.0000 0.0000 22.7238 0.0000 0.0000
# 5 0.0000 0.0000 0.0000 0.0000 39.1579 0.0000
# 6 0.0000 0.0000 0.0000 0.0000 0.0000 12.0780
#
#
#
# Elastic Compliance Matrix: (Units=1/GPa)
#
#
# Indices 1 2 3 4 5 6 
#
# 1 0.011977 -0.006365 -0.000452 0.000000 0.000000 0.000000
# 2 -0.006365 0.012843 -0.006087 0.000000 0.000000 0.000000
# 3 -0.000452 -0.006087 0.012697 0.000000 0.000000 0.000000
# 4 0.000000 0.000000 0.000000 0.044007 0.000000 0.000000
# 5 0.000000 0.000000 0.000000 0.000000 0.025538 0.000000
# 6 0.000000 0.000000 0.000000 0.000000 0.000000 0.082795
#
#
# Mechanical properties :
#
#
# Convention : Reuss Voigt Hill
#
# Bulk Modulus (GPa) = 85.39883 92.73540 89.06711
# Shear Modulus (GPa) = 22.77218 27.83611 25.30414
#
# Velocity S-wave (km/s) = 3.58457 3.96314 3.77860
# Velocity P-wave (km/s) = 8.08198 8.55966 8.32425
#
# Compressibility (1/GPa) = 0.01170976
#
# Stress axis : x y z
#
# Youngs Moduli (GPa) = 83.49306 77.86569 78.75970
#
# Poissons Ratio (x) = 0.49559 0.03558
# Poissons Ratio (y) = 0.53141 0.47941
# Poissons Ratio (z) = 0.03772 0.47396
#
# Static dielectric constant tensor:
#      x y z
#    x 3.870660 0.000000 0.000000 
#    y 0.000000 3.220980 0.000000 
#    z 0.000000 0.000000 3.310310 
# 
# 
# High freq. dielectric constant tensor:
#      x y z
#    x 1.686370 0.000000 0.000000 
#    y 0.000000 1.692070 0.000000 
#    z 0.000000 0.000000 1.686540 
# 
# From -- ./inp_files/3213.got.cif
#   From: 2010.03.12/outbox.cif.g09.slc.cpg/sg63_2_cif.got.tgz:3213.got - 2010.04.10 19:34:48.
