data_PCOD8258626
_publ_section_title
;
Structure prediction by ZEFSAII (Michael W. Deem and Ramdas Pophale) SiO2 
 PCOD8258626
Probable space group: C M C M
;
_chemical_formula_sum "Si O2"
_cell_formula_units_Z 96
_cell_length_a 9.102756
_cell_length_b 22.848177
_cell_length_c 23.303742
_cell_angle_alpha 90.000000
_cell_angle_beta 90.000000
_cell_angle_gamma 90.000000
_cell_volume 4846.744427
_symmetry_space_group_name_H-M "C M C M"
_symmetry_group_IT_number 63
_symmetry_cell_setting 'orthorhombic'
loop_
_space_group_symop_operation_xyz
x,y,z
-x,-y,1/2+z
x,-y,-z
-x,y,1/2-z
-x,-y,-z
x,y,1/2-z
-x,y,z
x,-y,1/2+z
1/2+x,1/2+y,z
1/2-x,1/2-y,1/2+z
1/2+x,1/2-y,-z
1/2-x,1/2+y,1/2-z
1/2-x,1/2-y,-z
1/2+x,1/2+y,1/2-z
1/2-x,1/2+y,z
1/2+x,1/2-y,1/2+z
loop_
_atom_site_type_symbol
_atom_site_label
_atom_site_fract_x
_atom_site_fract_y
_atom_site_fract_z
Si Si1 0.172955 0.196337 0.138047
Si Si2 0.326099 0.820216 0.185490
Si Si3 0.830185 0.980934 0.905571
Si Si4 0.664921 0.088493 0.184367
Si Si5 0.167379 0.135398 0.476798
Si Si6 0.326339 0.899896 0.082515
O O1 0.229608 0.260156 0.156413
O O2 0.257252 0.150889 0.178126
O O3 0.209672 0.183779 0.071147
O O4 0.000000 0.187481 0.148735
O O5 0.260437 0.828224 0.250000
O O6 0.500000 0.817670 0.189311
O O7 0.277502 0.873386 0.144168
O O8 0.754823 0.962720 0.846283
O O9 0.809648 0.929348 0.951212
O O10 0.000000 0.994614 0.894383
O O11 0.752451 0.038806 0.928764
O O12 0.659995 0.070142 0.250000
O O13 0.500000 0.091990 0.158841
O O14 0.273702 0.143467 0.531493
O O15 0.000000 0.143821 0.496983
O O16 0.500000 0.907545 0.079146
#
# Coordination Sequence:
#
# PCOD8258626 Si02
#       6
#    16  16  16  16  16  16
#     4   9  18  35  59  81 103 139 184 222 261 316
#     4   9  19  36  56  78 107 144 183 220 260 312
#     4  10  21  37  56  77 105 144 186 225 268 321
#     4  10  20  33  52  81 113 140 172 223 280 324
#     4   9  19  35  55  80 107 135 174 225 275 320
#     4  11  22  34  53  81 110 143 181 220 269 325
#
# _framework density 19.807110000000002
#
# number of rings (size 3 to 8) (size 9 to 14) (size 15 to 20)
#    0.000    2.333    0.000    3.500    0.000    8.667 
#    0.000    3.333    0.000    3.500    0.000    0.000 
#    0.000    0.000    0.000    0.000    0.000    0.000 
#
# Total GULP energy -595187.372665 kJ/mol
# GULP energy per Si atom -12399.736931 kJ/mol
# Density = 1.976203 g / cm^3
# Si number density = 19.807110 Si / 1000 Ang^3
#
#
#
# Elastic Constant Matrix: (Units=GPa)
#
#
# Indices 1 2 3 4 5 6 
#
# 1 85.6237 17.8664 42.3756 0.0000 0.0000 0.0000
# 2 17.8664 48.6232 26.8725 0.0000 0.0000 0.0000
# 3 42.3756 26.8725 115.4537 0.0000 0.0000 0.0000
# 4 0.0000 0.0000 0.0000 20.8400 0.0000 0.0000
# 5 0.0000 0.0000 0.0000 0.0000 32.5573 0.0000
# 6 0.0000 0.0000 0.0000 0.0000 0.0000 17.1875
#
#
#
# Elastic Compliance Matrix: (Units=1/GPa)
#
#
# Indices 1 2 3 4 5 6 
#
# 1 0.014586 -0.002755 -0.004712 0.000000 0.000000 0.000000
# 2 -0.002755 0.024123 -0.004603 0.000000 0.000000 0.000000
# 3 -0.004712 -0.004603 0.011463 0.000000 0.000000 0.000000
# 4 0.000000 0.000000 0.000000 0.047985 0.000000 0.000000
# 5 0.000000 0.000000 0.000000 0.000000 0.030715 0.000000
# 6 0.000000 0.000000 0.000000 0.000000 0.000000 0.058182
#
#
# Mechanical properties :
#
#
# Convention : Reuss Voigt Hill
#
# Bulk Modulus (GPa) = 38.41798 47.10329 42.76063
# Shear Modulus (GPa) = 22.74052 24.95602 23.84827
#
# Velocity S-wave (km/s) = 3.39204 3.55343 3.47367
# Velocity P-wave (km/s) = 5.89740 6.37718 6.14198
#
# Compressibility (1/GPa) = 0.02602948
#
# Stress axis : x y z
#
# Youngs Moduli (GPa) = 68.55857 41.45435 87.24071
#
# Poissons Ratio (x) = 0.11422 0.41110
# Poissons Ratio (y) = 0.18890 0.40161
# Poissons Ratio (z) = 0.32307 0.19083
#
# Static dielectric constant tensor:
#      x y z
#    x 3.515670 0.000000 0.000000 
#    y 0.000000 3.544940 0.000000 
#    z 0.000000 0.000000 3.734970 
# 
# 
# High freq. dielectric constant tensor:
#      x y z
#    x 1.758570 0.000000 0.000000 
#    y 0.000000 1.762240 0.000000 
#    z 0.000000 0.000000 1.779220 
# 
# From -- ./inp_files/59918.got.cif
#   From: 2010.03.12/outbox.cif.g09.slc.cpg/sg63_30_cif.got.tgz:59918.got - 2010.04.10 19:34:48.
