data_PCOD8258948
_publ_section_title
;
Structure prediction by ZEFSAII (Michael W. Deem and Ramdas Pophale) SiO2 
 PCOD8258948
Probable space group: C M C M
;
_chemical_formula_sum "Si O2"
_cell_formula_units_Z 96
_cell_length_a 8.643464
_cell_length_b 20.780553
_cell_length_c 28.224544
_cell_angle_alpha 90.000000
_cell_angle_beta 90.000000
_cell_angle_gamma 90.000000
_cell_volume 5069.578616
_symmetry_space_group_name_H-M "C M C M"
_symmetry_group_IT_number 63
_symmetry_cell_setting 'orthorhombic'
loop_
_space_group_symop_operation_xyz
x,y,z
-x,-y,1/2+z
x,-y,-z
-x,y,1/2-z
-x,-y,-z
x,y,1/2-z
-x,y,z
x,-y,1/2+z
1/2+x,1/2+y,z
1/2-x,1/2-y,1/2+z
1/2+x,1/2-y,-z
1/2-x,1/2+y,1/2-z
1/2-x,1/2-y,-z
1/2+x,1/2+y,1/2-z
1/2-x,1/2+y,z
1/2+x,1/2-y,1/2+z
loop_
_atom_site_type_symbol
_atom_site_label
_atom_site_fract_x
_atom_site_fract_y
_atom_site_fract_z
Si Si1 0.820485 0.436601 0.697130
Si Si2 0.182013 0.375141 0.105700
Si Si3 0.819061 0.073924 0.696261
Si Si4 0.815860 0.502916 0.052946
Si Si5 0.817675 0.371398 0.895498
Si Si6 0.183329 0.245981 0.552459
O O1 0.785693 0.410698 0.750000
O O2 0.723665 0.500138 0.685558
O O3 0.775144 0.380094 0.660222
O O4 0.000000 0.455876 0.690903
O O5 0.229374 0.377872 0.161000
O O6 0.241267 0.440917 0.081743
O O7 0.267000 0.318136 0.078877
O O8 0.000000 0.364990 0.100548
O O9 0.770581 0.091806 0.750000
O O10 0.000000 0.083258 0.688348
O O11 0.748133 0.567336 0.076720
O O12 0.000000 0.504547 0.052833
O O13 0.749212 0.500000 0.000000
O O14 0.748456 0.305696 0.916762
O O15 0.000000 0.369683 0.902650
O O16 0.250000 0.250000 0.500000
O O17 0.000000 0.248857 0.548969
#
# Coordination Sequence:
#
# PCOD8258948 Si02
#       6
#    16  16  16  16  16  16
#     4   9  16  30  55  83 107 136 180 227 271 325
#     4  11  21  36  59  83 111 147 188 234 281 334
#     4  10  20  34  54  83 118 150 180 223 281 335
#     4   9  16  28  51  79 103 133 180 230 272 320
#     4   9  17  32  53  79 107 142 185 227 271 326
#     4  11  23  39  58  79 112 152 191 233 282 340
#
# _framework density 18.936485000000001
#
# number of rings (size 3 to 8) (size 9 to 14) (size 15 to 20)
#    0.000    2.167    1.667    2.500    0.000    3.667 
#    0.000    2.500    0.000    5.000    0.000    0.000 
#    0.000    0.000    0.000    0.000    0.000    0.000 
#
# Total GULP energy -595125.140937 kJ/mol
# GULP energy per Si atom -12398.440436 kJ/mol
# Density = 1.889338 g / cm^3
# Si number density = 18.936485 Si / 1000 Ang^3
#
#
#
# Elastic Constant Matrix: (Units=GPa)
#
#
# Indices 1 2 3 4 5 6 
#
# 1 39.6607 25.8803 29.7491 0.0000 0.0000 0.0000
# 2 25.8803 121.0125 72.7918 0.0000 0.0000 0.0000
# 3 29.7491 72.7918 166.2557 0.0000 0.0000 0.0000
# 4 0.0000 0.0000 0.0000 36.7137 0.0000 0.0000
# 5 0.0000 0.0000 0.0000 0.0000 25.6268 0.0000
# 6 0.0000 0.0000 0.0000 0.0000 0.0000 23.6264
#
#
#
# Elastic Compliance Matrix: (Units=1/GPa)
#
#
# Indices 1 2 3 4 5 6 
#
# 1 0.030785 -0.004439 -0.003565 0.000000 0.000000 0.000000
# 2 -0.004439 0.011858 -0.004398 0.000000 0.000000 0.000000
# 3 -0.003565 -0.004398 0.008578 0.000000 0.000000 0.000000
# 4 0.000000 0.000000 0.000000 0.027238 0.000000 0.000000
# 5 0.000000 0.000000 0.000000 0.000000 0.039022 0.000000
# 6 0.000000 0.000000 0.000000 0.000000 0.000000 0.042325
#
#
# Mechanical properties :
#
#
# Convention : Reuss Voigt Hill
#
# Bulk Modulus (GPa) = 37.85368 64.86348 51.35858
# Shear Modulus (GPa) = 25.85112 30.42724 28.13918
#
# Velocity S-wave (km/s) = 3.69880 4.01285 3.85902
# Velocity P-wave (km/s) = 6.18666 7.46981 6.85831
#
# Compressibility (1/GPa) = 0.02641751
#
# Stress axis : x y z
#
# Youngs Moduli (GPa) = 32.48371 84.32929 116.57630
#
# Poissons Ratio (x) = 0.37438 0.41557
# Poissons Ratio (y) = 0.14421 0.51265
# Poissons Ratio (z) = 0.11580 0.37084
#
# Static dielectric constant tensor:
#      x y z
#    x 3.190430 0.000000 0.000000 
#    y 0.000000 3.519680 0.000000 
#    z 0.000000 0.000000 3.264730 
# 
# 
# High freq. dielectric constant tensor:
#      x y z
#    x 1.706790 0.000000 0.000000 
#    y 0.000000 1.719720 0.000000 
#    z 0.000000 0.000000 1.757380 
# 
# From -- ./inp_files/66982.got.cif
#   From: 2010.03.12/outbox.cif.g09.slc.cpg/sg63_34_cif.got.tgz:66982.got - 2010.04.10 19:34:48.
