data_PCOD8258700
_publ_section_title
;
Structure prediction by ZEFSAII (Michael W. Deem and Ramdas Pophale) SiO2 
 PCOD8258700
Probable space group: C M C M
;
_chemical_formula_sum "Si O2"
_cell_formula_units_Z 104
_cell_length_a 21.164479
_cell_length_b 27.962986
_cell_length_c 9.068235
_cell_angle_alpha 90.000000
_cell_angle_beta 90.000000
_cell_angle_gamma 90.000000
_cell_volume 5366.781246
_symmetry_space_group_name_H-M "C M C M"
_symmetry_group_IT_number 63
_symmetry_cell_setting 'orthorhombic'
loop_
_space_group_symop_operation_xyz
x,y,z
-x,-y,1/2+z
x,-y,-z
-x,y,1/2-z
-x,-y,-z
x,y,1/2-z
-x,y,z
x,-y,1/2+z
1/2+x,1/2+y,z
1/2-x,1/2-y,1/2+z
1/2+x,1/2-y,-z
1/2-x,1/2+y,1/2-z
1/2-x,1/2-y,-z
1/2+x,1/2+y,1/2-z
1/2-x,1/2+y,z
1/2+x,1/2-y,1/2+z
loop_
_atom_site_type_symbol
_atom_site_label
_atom_site_fract_x
_atom_site_fract_y
_atom_site_fract_z
Si Si1 0.000000 0.447478 0.071902
Si Si2 0.741907 0.134538 0.079671
Si Si3 0.332247 0.453213 0.920271
Si Si4 0.839283 0.806423 0.420560
Si Si5 0.400326 0.120591 0.424594
Si Si6 0.568615 0.227592 0.424343
Si Si7 0.571520 0.604622 0.580616
O O1 0.000000 0.450902 0.250000
O O2 0.000000 0.500000 0.000000
O O3 0.062454 0.419641 0.016100
O O4 0.738824 0.148350 0.250000
O O5 0.782597 0.088075 0.045787
O O6 0.672252 0.121730 0.022358
O O7 0.773438 0.180687 0.001187
O O8 0.339683 0.464380 0.750000
O O9 0.305850 0.500000 0.000000
O O10 0.400282 0.438495 0.984361
O O11 0.822314 0.800496 0.250000
O O12 0.872272 0.758400 0.487752
O O13 0.890868 0.847053 0.449496
O O14 0.407299 0.109764 0.250000
O O15 0.427490 0.172220 0.466972
O O16 0.571574 0.234367 0.250000
O O17 0.500000 0.246249 0.481702
O O18 0.576250 0.589023 0.750000
O O19 0.500000 0.613457 0.530775
#
# Coordination Sequence:
#
# PCOD8258700 Si02
#       7
#     8  16  16  16  16  16  16
#     4  12  26  44  66  92 120 148 186 236 291 350
#     4   9  20  36  54  78 111 147 184 227 279 337
#     4  10  20  34  50  70  97 131 173 222 273 328
#     4   9  17  30  51  80 111 147 191 230 268 319
#     4  10  20  39  63  86 114 150 187 227 279 338
#     4   9  16  29  55  85 112 149 193 232 274 330
#     4   9  17  30  48  71 101 136 177 224 265 311
#
# _framework density 19.378468999999999
#
# number of rings (size 3 to 8) (size 9 to 14) (size 15 to 20)
#    0.000    2.462    0.769    1.615    0.000    4.923 
#    0.000    2.308    0.000    0.923    0.000    0.000 
#    0.000    0.000    0.000    0.000    0.000    0.000 
#
# Total GULP energy -644609.821061 kJ/mol
# GULP energy per Si atom -12396.342713 kJ/mol
# Density = 1.933436 g / cm^3
# Si number density = 19.378469 Si / 1000 Ang^3
#
#
#
# Elastic Constant Matrix: (Units=GPa)
#
#
# Indices 1 2 3 4 5 6 
#
# 1 149.5360 50.4696 47.6544 0.0000 0.0000 0.0000
# 2 50.4696 101.8482 51.8740 0.0000 0.0000 0.0000
# 3 47.6544 51.8740 62.6699 0.0000 0.0000 0.0000
# 4 0.0000 0.0000 0.0000 23.3619 0.0000 0.0000
# 5 0.0000 0.0000 0.0000 0.0000 27.8394 0.0000
# 6 0.0000 0.0000 0.0000 0.0000 0.0000 10.5387
#
#
#
# Elastic Compliance Matrix: (Units=1/GPa)
#
#
# Indices 1 2 3 4 5 6 
#
# 1 0.008990 -0.001682 -0.005443 0.000000 0.000000 0.000000
# 2 -0.001682 0.017290 -0.013032 0.000000 0.000000 0.000000
# 3 -0.005443 -0.013032 0.030883 0.000000 0.000000 0.000000
# 4 0.000000 0.000000 0.000000 0.042805 0.000000 0.000000
# 5 0.000000 0.000000 0.000000 0.000000 0.035920 0.000000
# 6 0.000000 0.000000 0.000000 0.000000 0.000000 0.094888
#
#
# Mechanical properties :
#
#
# Convention : Reuss Voigt Hill
#
# Bulk Modulus (GPa) = 59.35804 68.22778 63.79291
# Shear Modulus (GPa) = 18.06963 23.28507 20.67735
#
# Velocity S-wave (km/s) = 3.05693 3.47016 3.27008
# Velocity P-wave (km/s) = 6.56941 7.16523 6.87378
#
# Compressibility (1/GPa) = 0.01684692
#
# Stress axis : x y z
#
# Youngs Moduli (GPa) = 111.23638 57.83764 32.38038
#
# Poissons Ratio (x) = 0.09730 0.17626
# Poissons Ratio (y) = 0.18714 0.42198
# Poissons Ratio (z) = 0.60550 0.75374
#
# Static dielectric constant tensor:
#      x y z
#    x 3.778120 0.000000 0.000000 
#    y 0.000000 3.631010 0.000000 
#    z 0.000000 0.000000 3.349780 
# 
# 
# High freq. dielectric constant tensor:
#      x y z
#    x 1.764440 0.000000 0.000000 
#    y 0.000000 1.755930 0.000000 
#    z 0.000000 0.000000 1.724860 
# 
# From -- ./inp_files/8819.got.cif
#   From: 2010.03.12/outbox.cif.g09.slc.cpg/sg63_5_cif.got.tgz:8819.got - 2010.04.10 19:34:48.
