data_PCOD8258943
_publ_section_title
;
Structure prediction by ZEFSAII (Michael W. Deem and Ramdas Pophale) SiO2 
 PCOD8258943
Probable space group: C M C M
;
_chemical_formula_sum "Si O2"
_cell_formula_units_Z 112
_cell_length_a 14.812645
_cell_length_b 21.930440
_cell_length_c 15.512556
_cell_angle_alpha 90.000000
_cell_angle_beta 90.000000
_cell_angle_gamma 90.000000
_cell_volume 5039.220037
_symmetry_space_group_name_H-M "C M C M"
_symmetry_group_IT_number 63
_symmetry_cell_setting 'orthorhombic'
loop_
_space_group_symop_operation_xyz
x,y,z
-x,-y,1/2+z
x,-y,-z
-x,y,1/2-z
-x,-y,-z
x,y,1/2-z
-x,y,z
x,-y,1/2+z
1/2+x,1/2+y,z
1/2-x,1/2-y,1/2+z
1/2+x,1/2-y,-z
1/2-x,1/2+y,1/2-z
1/2-x,1/2-y,-z
1/2+x,1/2+y,1/2-z
1/2-x,1/2+y,z
1/2+x,1/2-y,1/2+z
loop_
_atom_site_type_symbol
_atom_site_label
_atom_site_fract_x
_atom_site_fract_y
_atom_site_fract_z
Si Si1 0.399067 0.492531 0.345117
Si Si2 0.643271 0.176128 0.846457
Si Si3 0.161942 0.864530 0.381830
Si Si4 0.900205 0.811804 0.650578
Si Si5 0.398776 0.130814 0.028393
Si Si6 0.101632 0.265073 0.655413
Si Si7 0.787886 0.911477 0.934598
O O1 0.388813 0.521936 0.250000
O O2 0.500000 0.505418 0.380571
O O3 0.383908 0.420493 0.332710
O O4 0.325784 0.521630 0.410307
O O5 0.598753 0.166670 0.750000
O O6 0.744403 0.152789 0.837690
O O7 0.640758 0.246394 0.876908
O O8 0.595812 0.139502 0.924620
O O9 0.101272 0.804450 0.376673
O O10 0.170266 0.885334 0.479175
O O11 0.918946 0.810092 0.750000
O O12 0.825867 0.863806 0.634872
O O13 0.000000 0.822558 0.606274
O O14 0.500000 0.109921 0.057182
O O15 0.362195 0.191132 0.079049
O O16 0.321474 0.082131 0.056534
O O17 0.151193 0.272816 0.750000
O O18 0.000000 0.285235 0.670135
#
# Coordination Sequence:
#
# PCOD8258943 Si02
#       7
#    16  16  16  16  16  16  16
#     4  11  24  41  61  85 115 153 195 239 290 350
#     4  10  20  35  58  85 116 155 194 239 296 350
#     4  11  22  36  56  84 117 151 192 240 289 348
#     4  10  20  34  55  86 123 160 197 239 289 346
#     4  10  22  39  59  87 119 152 197 247 295 352
#     4  10  20  34  54  82 118 157 192 232 286 345
#     4  11  23  37  57  84 115 154 195 240 295 349
#
# _framework density 22.225662
#
# number of rings (size 3 to 8) (size 9 to 14) (size 15 to 20)
#    0.000    1.571    0.000    5.143    0.000   11.714 
#    0.000    0.000    0.000    7.714    0.000    0.000 
#    0.000    0.000    0.000    0.000    0.000    0.000 
#
# Total GULP energy -693765.007275 kJ/mol
# GULP energy per Si atom -12388.660844 kJ/mol
# Density = 2.217508 g / cm^3
# Si number density = 22.225662 Si / 1000 Ang^3
#
#
#
# Elastic Constant Matrix: (Units=GPa)
#
#
# Indices 1 2 3 4 5 6 
#
# 1 118.3825 30.6412 29.8127 0.0000 0.0000 0.0000
# 2 30.6412 58.8447 14.8800 0.0000 0.0000 0.0000
# 3 29.8127 14.8800 82.8972 0.0000 0.0000 0.0000
# 4 0.0000 0.0000 0.0000 24.4673 0.0000 0.0000
# 5 0.0000 0.0000 0.0000 0.0000 29.2497 0.0000
# 6 0.0000 0.0000 0.0000 0.0000 0.0000 21.6308
#
#
#
# Elastic Compliance Matrix: (Units=1/GPa)
#
#
# Indices 1 2 3 4 5 6 
#
# 1 0.010387 -0.004676 -0.002896 0.000000 0.000000 0.000000
# 2 -0.004676 0.019907 -0.001892 0.000000 0.000000 0.000000
# 3 -0.002896 -0.001892 0.013444 0.000000 0.000000 0.000000
# 4 0.000000 0.000000 0.000000 0.040871 0.000000 0.000000
# 5 0.000000 0.000000 0.000000 0.000000 0.034188 0.000000
# 6 0.000000 0.000000 0.000000 0.000000 0.000000 0.046230
#
#
# Mechanical properties :
#
#
# Convention : Reuss Voigt Hill
#
# Bulk Modulus (GPa) = 40.30568 45.64358 42.97463
# Shear Modulus (GPa) = 26.01106 27.38893 26.70000
#
# Velocity S-wave (km/s) = 3.42470 3.51424 3.46976
# Velocity P-wave (km/s) = 5.81483 6.08667 5.95230
#
# Compressibility (1/GPa) = 0.02481040
#
# Stress axis : x y z
#
# Youngs Moduli (GPa) = 96.27515 50.23311 74.38151
#
# Poissons Ratio (x) = 0.23490 0.21542
# Poissons Ratio (y) = 0.45021 0.14070
# Poissons Ratio (z) = 0.27882 0.09502
#
# Static dielectric constant tensor:
#      x y z
#    x 3.993900 0.000000 0.000000 
#    y 0.000000 3.857700 0.000000 
#    z 0.000000 0.000000 4.229050 
# 
# 
# High freq. dielectric constant tensor:
#      x y z
#    x 1.871580 0.000000 0.000000 
#    y 0.000000 1.844070 0.000000 
#    z 0.000000 0.000000 1.888600 
# 
# From -- ./inp_files/32274.got.cif
#   From: 2010.03.12/outbox.cif.g09.slc.cpg/sg63_17_cif.got.tgz:32274.got - 2010.04.10 19:34:48.
