data_PCOD8258587
_publ_section_title
;
Structure prediction by ZEFSAII (Michael W. Deem and Ramdas Pophale) SiO2 
 PCOD8258587
Probable space group: C M C M
;
_chemical_formula_sum "Si O2"
_cell_formula_units_Z 112
_cell_length_a 12.109427
_cell_length_b 17.876027
_cell_length_c 29.146551
_cell_angle_alpha 90.000000
_cell_angle_beta 90.000000
_cell_angle_gamma 90.000000
_cell_volume 6309.308543
_symmetry_space_group_name_H-M "C M C M"
_symmetry_group_IT_number 63
_symmetry_cell_setting 'orthorhombic'
loop_
_space_group_symop_operation_xyz
x,y,z
-x,-y,1/2+z
x,-y,-z
-x,y,1/2-z
-x,-y,-z
x,y,1/2-z
-x,y,z
x,-y,1/2+z
1/2+x,1/2+y,z
1/2-x,1/2-y,1/2+z
1/2+x,1/2-y,-z
1/2-x,1/2+y,1/2-z
1/2-x,1/2-y,-z
1/2+x,1/2+y,1/2-z
1/2-x,1/2+y,z
1/2+x,1/2-y,1/2+z
loop_
_atom_site_type_symbol
_atom_site_label
_atom_site_fract_x
_atom_site_fract_y
_atom_site_fract_z
Si Si1 0.369374 0.362383 0.800028
Si Si2 0.750236 0.108606 0.614958
Si Si3 0.128836 0.968038 0.196799
Si Si4 0.624018 0.321211 0.463596
Si Si5 0.370296 0.257880 0.620753
Si Si6 0.628273 0.987095 0.946294
Si Si7 0.225345 0.331768 0.955041
O O1 0.318123 0.344650 0.750000
O O2 0.500000 0.355257 0.797225
O O3 0.338856 0.446537 0.814766
O O4 0.320994 0.302296 0.835540
O O5 0.796969 0.082606 0.663823
O O6 0.850041 0.146400 0.586742
O O7 0.657180 0.170560 0.625009
O O8 0.697929 0.041946 0.585641
O O9 0.155680 0.949498 0.250000
O O10 0.000000 0.953646 0.186792
O O11 0.500000 0.344178 0.477157
O O12 0.712459 0.357079 0.498484
O O13 0.632813 0.230879 0.465056
O O14 0.500000 0.268238 0.616484
O O15 0.318727 0.295362 0.576283
O O16 0.500000 0.997873 0.934559
O O17 0.665902 0.903250 0.933145
O O18 0.650652 0.000000 0.000000
#
# Coordination Sequence:
#
# PCOD8258587 Si02
#       7
#    16  16  16  16  16  16  16
#     4   8  15  30  51  73  97 129 169 210 258 312
#     4  11  21  34  52  79 109 140 179 218 268 323
#     4   9  18  34  57  82 109 142 176 215 265 320
#     4  10  20  34  51  73 101 133 173 224 267 305
#     4  10  20  33  52  77 106 139 176 225 271 312
#     4  11  22  37  54  74 105 143 182 221 266 329
#     4  10  20  35  52  73  97 138 183 217 259 320
#
# _framework density 17.751549000000001
#
# number of rings (size 3 to 8) (size 9 to 14) (size 15 to 20)
#    0.000    2.143    1.429    3.429    0.000    0.571 
#    0.000    2.857    0.000    1.286    0.000    0.000 
#    0.000    0.000    0.000    0.000    0.000    0.000 
#
# Total GULP energy -694330.366630 kJ/mol
# GULP energy per Si atom -12398.756547 kJ/mol
# Density = 1.771115 g / cm^3
# Si number density = 17.751549 Si / 1000 Ang^3
#
#
#
# Elastic Constant Matrix: (Units=GPa)
#
#
# Indices 1 2 3 4 5 6 
#
# 1 64.4033 22.8762 26.2910 0.0000 0.0000 0.0000
# 2 22.8762 84.0399 34.5661 0.0000 0.0000 0.0000
# 3 26.2910 34.5661 91.4602 0.0000 0.0000 0.0000
# 4 0.0000 0.0000 0.0000 32.1416 0.0000 0.0000
# 5 0.0000 0.0000 0.0000 0.0000 22.5265 0.0000
# 6 0.0000 0.0000 0.0000 0.0000 0.0000 20.7286
#
#
#
# Elastic Compliance Matrix: (Units=1/GPa)
#
#
# Indices 1 2 3 4 5 6 
#
# 1 0.018353 -0.003346 -0.004011 0.000000 0.000000 0.000000
# 2 -0.003346 0.014699 -0.004594 0.000000 0.000000 0.000000
# 3 -0.004011 -0.004594 0.013823 0.000000 0.000000 0.000000
# 4 0.000000 0.000000 0.000000 0.031112 0.000000 0.000000
# 5 0.000000 0.000000 0.000000 0.000000 0.044392 0.000000
# 6 0.000000 0.000000 0.000000 0.000000 0.000000 0.048243
#
#
# Mechanical properties :
#
#
# Convention : Reuss Voigt Hill
#
# Bulk Modulus (GPa) = 43.52795 45.26333 44.39564
# Shear Modulus (GPa) = 24.73023 25.49067 25.11045
#
# Velocity S-wave (km/s) = 3.73652 3.79353 3.76513
# Velocity P-wave (km/s) = 6.57186 6.68890 6.63064
#
# Compressibility (1/GPa) = 0.02297375
#
# Stress axis : x y z
#
# Youngs Moduli (GPa) = 54.48660 68.03058 72.34403
#
# Poissons Ratio (x) = 0.22763 0.29019
# Poissons Ratio (y) = 0.18231 0.33232
# Poissons Ratio (z) = 0.21856 0.31250
#
# Static dielectric constant tensor:
#      x y z
#    x 2.999240 0.000000 0.000000 
#    y 0.000000 3.358220 0.000000 
#    z 0.000000 0.000000 3.516550 
# 
# 
# High freq. dielectric constant tensor:
#      x y z
#    x 1.666900 0.000000 0.000000 
#    y 0.000000 1.691290 0.000000 
#    z 0.000000 0.000000 1.687460 
# 
# From -- ./inp_files/72855.got.cif
#   From: 2010.03.12/outbox.cif.g09.slc.cpg/sg63_37_cif.got.tgz:72855.got - 2010.04.10 19:34:48.
