data_PCOD8258722
_publ_section_title
;
Structure prediction by ZEFSAII (Michael W. Deem and Ramdas Pophale) SiO2 
 PCOD8258722
Probable space group: C M C M
;
_chemical_formula_sum "Si O2"
_cell_formula_units_Z 72
_cell_length_a 32.400424
_cell_length_b 13.443893
_cell_length_c 8.929320
_cell_angle_alpha 90.000000
_cell_angle_beta 90.000000
_cell_angle_gamma 90.000000
_cell_volume 3889.503153
_symmetry_space_group_name_H-M "C M C M"
_symmetry_group_IT_number 63
_symmetry_cell_setting 'orthorhombic'
loop_
_space_group_symop_operation_xyz
x,y,z
-x,-y,1/2+z
x,-y,-z
-x,y,1/2-z
-x,-y,-z
x,y,1/2-z
-x,y,z
x,-y,1/2+z
1/2+x,1/2+y,z
1/2-x,1/2-y,1/2+z
1/2+x,1/2-y,-z
1/2-x,1/2+y,1/2-z
1/2-x,1/2-y,-z
1/2+x,1/2+y,1/2-z
1/2-x,1/2+y,z
1/2+x,1/2-y,1/2+z
loop_
_atom_site_type_symbol
_atom_site_label
_atom_site_fract_x
_atom_site_fract_y
_atom_site_fract_z
Si Si1 0.849995 0.593473 0.915730
Si Si2 0.583431 0.217571 0.426445
Si Si3 0.368940 0.392664 0.570111
Si Si4 0.291110 0.273870 0.913010
Si Si5 0.500000 0.108908 0.074575
O O1 0.867474 0.567414 0.750000
O O2 0.813574 0.670086 0.897382
O O3 0.830263 0.500000 0.000000
O O4 0.886142 0.631045 0.022555
O O5 0.587342 0.237215 0.250000
O O6 0.594757 0.319845 0.512541
O O7 0.538540 0.177608 0.472841
O O8 0.376789 0.500000 0.500000
O O9 0.370669 0.395284 0.750000
O O10 0.323747 0.352575 0.514823
O O11 0.278078 0.314337 0.750000
O O12 0.250000 0.250000 0.000000
O O13 0.500000 0.087572 0.250000
O O14 0.500000 0.000000 0.000000
#
# Coordination Sequence:
#
# PCOD8258722 Si02
#       5
#    16  16  16  16   8
#     4  10  20  34  51  75 104 137 174 213 258 313
#     4  10  20  36  56  80 109 141 176 219 265 317
#     4  10  21  38  58  81 107 142 184 226 270 320
#     4   9  20  35  51  74 105 136 174 220 265 313
#     4  10  22  36  55  84 115 144 177 216 266 322
#
# _framework density 18.511361000000001
#
# number of rings (size 3 to 8) (size 9 to 14) (size 15 to 20)
#    0.000    2.222    0.000    4.000    0.000    9.778 
#    0.000    5.000    0.000    0.000    0.000    0.000 
#    0.000    0.000    0.000    0.000    0.000    0.000 
#
# Total GULP energy -446151.084104 kJ/mol
# GULP energy per Si atom -12393.085670 kJ/mol
# Density = 1.846923 g / cm^3
# Si number density = 18.511361 Si / 1000 Ang^3
#
#
#
# Elastic Constant Matrix: (Units=GPa)
#
#
# Indices 1 2 3 4 5 6 
#
# 1 126.5283 45.1257 52.2074 0.0000 0.0000 0.0000
# 2 45.1257 117.3842 53.5564 0.0000 0.0000 0.0000
# 3 52.2074 53.5564 89.2611 0.0000 0.0000 0.0000
# 4 0.0000 0.0000 0.0000 35.5174 0.0000 0.0000
# 5 0.0000 0.0000 0.0000 0.0000 25.5980 0.0000
# 6 0.0000 0.0000 0.0000 0.0000 0.0000 7.2313
#
#
#
# Elastic Compliance Matrix: (Units=1/GPa)
#
#
# Indices 1 2 3 4 5 6 
#
# 1 0.010666 -0.001727 -0.005202 0.000000 0.000000 0.000000
# 2 -0.001727 0.012010 -0.006196 0.000000 0.000000 0.000000
# 3 -0.005202 -0.006196 0.017963 0.000000 0.000000 0.000000
# 4 0.000000 0.000000 0.000000 0.028155 0.000000 0.000000
# 5 0.000000 0.000000 0.000000 0.000000 0.039066 0.000000
# 6 0.000000 0.000000 0.000000 0.000000 0.000000 0.138287
#
#
# Mechanical properties :
#
#
# Convention : Reuss Voigt Hill
#
# Bulk Modulus (GPa) = 69.49678 70.55031 70.02354
# Shear Modulus (GPa) = 18.03800 25.82162 21.92981
#
# Velocity S-wave (km/s) = 3.12497 3.73890 3.44563
# Velocity P-wave (km/s) = 7.11652 7.53882 7.33071
#
# Compressibility (1/GPa) = 0.01438916
#
# Stress axis : x y z
#
# Youngs Moduli (GPa) = 93.75874 83.26619 55.66923
#
# Poissons Ratio (x) = 0.14378 0.28960
# Poissons Ratio (y) = 0.16189 0.34492
# Poissons Ratio (z) = 0.48775 0.51591
#
# Static dielectric constant tensor:
#      x y z
#    x 3.839730 0.000000 0.000000 
#    y 0.000000 3.896020 0.000000 
#    z 0.000000 0.000000 7.370600 
# 
# 
# High freq. dielectric constant tensor:
#      x y z
#    x 1.708690 0.000000 0.000000 
#    y 0.000000 1.720950 0.000000 
#    z 0.000000 0.000000 1.729010 
# 
# From -- ./inp_files/13915.got.cif
#   From: 2010.03.12/outbox.cif.g09.slc.cpg/sg63_7_cif.got.tgz:13915.got - 2010.04.10 19:34:48.
