data_PCOD8258720
_publ_section_title
;
Structure prediction by ZEFSAII (Michael W. Deem and Ramdas Pophale) SiO2 
 PCOD8258720
Probable space group: C M C M
;
_chemical_formula_sum "Si O2"
_cell_formula_units_Z 104
_cell_length_a 25.577563
_cell_length_b 23.116976
_cell_length_c 9.402906
_cell_angle_alpha 90.000000
_cell_angle_beta 90.000000
_cell_angle_gamma 90.000000
_cell_volume 5559.711802
_symmetry_space_group_name_H-M "C M C M"
_symmetry_group_IT_number 63
_symmetry_cell_setting 'orthorhombic'
loop_
_space_group_symop_operation_xyz
x,y,z
-x,-y,1/2+z
x,-y,-z
-x,y,1/2-z
-x,-y,-z
x,y,1/2-z
-x,y,z
x,-y,1/2+z
1/2+x,1/2+y,z
1/2-x,1/2-y,1/2+z
1/2+x,1/2-y,-z
1/2-x,1/2+y,1/2-z
1/2-x,1/2-y,-z
1/2+x,1/2+y,1/2-z
1/2-x,1/2+y,z
1/2+x,1/2-y,1/2+z
loop_
_atom_site_type_symbol
_atom_site_label
_atom_site_fract_x
_atom_site_fract_y
_atom_site_fract_z
Si Si1 0.641904 0.155938 0.911727
Si Si2 0.648278 0.285372 0.587244
Si Si3 0.500000 0.443194 0.090784
Si Si4 0.692161 0.449956 0.591129
Si Si5 0.244552 0.333502 0.906256
Si Si6 0.439786 0.058494 0.917471
Si Si7 0.108285 0.111909 0.915203
O O1 0.653959 0.139185 0.750000
O O2 0.622248 0.222048 0.924160
O O3 0.598027 0.111056 0.970339
O O4 0.696607 0.155626 0.991160
O O5 0.644507 0.308937 0.750000
O O6 0.710627 0.287063 0.543415
O O7 0.616237 0.324491 0.479470
O O8 0.500000 0.466653 0.250000
O O9 0.548384 0.402019 0.060149
O O10 0.500000 0.500000 0.000000
O O11 0.721270 0.500000 0.500000
O O12 0.677710 0.471778 0.750000
O O13 0.728423 0.395151 0.601382
O O14 0.640106 0.435781 0.502569
O O15 0.223575 0.315392 0.750000
O O16 0.433024 0.047165 0.750000
O O17 0.500000 0.075331 0.952704
O O18 0.423674 0.000000 0.000000
O O19 0.125052 0.111692 0.750000
#
# Coordination Sequence:
#
# PCOD8258720 Si02
#       7
#    16  16   8  16  16  16  16
#     4  10  20  34  55  81 106 135 176 219 259 314
#     4   9  19  36  53  76 108 139 175 217 262 314
#     4  10  22  36  52  76 104 134 175 220 261 306
#     4  10  20  34  51  74 104 138 177 219 263 315
#     4   9  19  33  50  74 108 141 172 215 261 312
#     4   9  19  37  58  79 106 138 172 217 269 320
#     4  10  20  35  53  74 102 138 176 219 265 310
#
# _framework density 18.706005999999999
#
# number of rings (size 3 to 8) (size 9 to 14) (size 15 to 20)
#    0.000    2.462    0.000    2.769    0.000    7.385 
#    1.385    3.077    0.000    0.000    0.000    0.000 
#    0.000    0.000    0.000    0.000    0.000    0.000 
#
# Total GULP energy -644469.785784 kJ/mol
# GULP energy per Si atom -12393.649727 kJ/mol
# Density = 1.866343 g / cm^3
# Si number density = 18.706006 Si / 1000 Ang^3
#
#
#
# Elastic Constant Matrix: (Units=GPa)
#
#
# Indices 1 2 3 4 5 6 
#
# 1 96.6795 47.0465 48.8655 0.0000 0.0000 0.0000
# 2 47.0465 98.3056 40.5667 0.0000 0.0000 0.0000
# 3 48.8655 40.5667 96.2440 0.0000 0.0000 0.0000
# 4 0.0000 0.0000 0.0000 31.3019 0.0000 0.0000
# 5 0.0000 0.0000 0.0000 0.0000 -0.0361 0.0000
# 6 0.0000 0.0000 0.0000 0.0000 0.0000 13.0246
#
#
#
# Elastic Compliance Matrix: (Units=1/GPa)
#
#
# Indices 1 2 3 4 5 6 
#
# 1 0.015809 -0.005149 -0.005856 0.000000 0.000000 0.000000
# 2 -0.005149 0.013991 -0.003283 0.000000 0.000000 0.000000
# 3 -0.005856 -0.003283 0.014747 0.000000 0.000000 0.000000
# 4 0.000000 0.000000 0.000000 0.031947 0.000000 0.000000
# 5 0.000000 0.000000 0.000000 0.000000-27.688298 0.000000
# 6 0.000000 0.000000 0.000000 0.000000 0.000000 0.076778
#
#
# Mechanical properties :
#
#
# Convention : Reuss Voigt Hill
#
# Bulk Modulus (GPa) = 62.61354 62.68740 62.65047
# Shear Modulus (GPa) = -0.18181 19.17477 9.49648
#
# Velocity S-wave (km/s) = -0.31210 3.20513 2.25560
# Velocity P-wave (km/s) = 5.78059 6.87618 6.35205
#
# Compressibility (1/GPa) = 0.01597099
#
# Stress axis : x y z
#
# Youngs Moduli (GPa) = 63.25428 71.47260 67.80837
#
# Poissons Ratio (x) = 0.36803 0.39711
# Poissons Ratio (y) = 0.32571 0.22261
# Poissons Ratio (z) = 0.37044 0.23464
#
# Static dielectric constant tensor:
#      x y z
#    x 3.328860 0.000000 0.000000 
#    y 0.000000 3.675270 0.000000 
#    z 0.000000 0.000000 3.651180 
# 
# 
# High freq. dielectric constant tensor:
#      x y z
#    x 1.708000 0.000000 0.000000 
#    y 0.000000 1.733320 0.000000 
#    z 0.000000 0.000000 1.732720 
# 
# From -- ./inp_files/12854.got.cif
#   From: 2010.03.12/outbox.cif.g09.slc.cpg/sg63_7_cif.got.tgz:12854.got - 2010.04.10 19:34:48.
