data_PCOD8258313
_publ_section_title
;
Structure prediction by ZEFSAII (Michael W. Deem and Ramdas Pophale) SiO2 
 PCOD8258313
Probable space group: C M C M
;
_chemical_formula_sum "Si O2"
_cell_formula_units_Z 112
_cell_length_a 14.037960
_cell_length_b 27.842916
_cell_length_c 14.385347
_cell_angle_alpha 90.000000
_cell_angle_beta 90.000000
_cell_angle_gamma 90.000000
_cell_volume 5622.624233
_symmetry_space_group_name_H-M "C M C M"
_symmetry_group_IT_number 63
_symmetry_cell_setting 'orthorhombic'
loop_
_space_group_symop_operation_xyz
x,y,z
-x,-y,1/2+z
x,-y,-z
-x,y,1/2-z
-x,-y,-z
x,y,1/2-z
-x,y,z
x,-y,1/2+z
1/2+x,1/2+y,z
1/2-x,1/2-y,1/2+z
1/2+x,1/2-y,-z
1/2-x,1/2+y,1/2-z
1/2-x,1/2-y,-z
1/2+x,1/2+y,1/2-z
1/2-x,1/2+y,z
1/2+x,1/2-y,1/2+z
loop_
_atom_site_type_symbol
_atom_site_label
_atom_site_fract_x
_atom_site_fract_y
_atom_site_fract_z
Si Si1 0.892242 0.612227 0.471086
Si Si2 0.389066 0.063146 0.648919
Si Si3 0.290237 0.734258 0.139704
Si Si4 0.608330 0.776711 0.529151
Si Si5 0.804523 0.532917 0.147857
Si Si6 0.893499 0.136987 0.356039
Si Si7 0.895684 0.966905 0.909389
O O1 0.859859 0.605222 0.578262
O O2 0.886871 0.667446 0.447286
O O3 0.820850 0.582038 0.407313
O O4 0.000000 0.592668 0.456664
O O5 0.339208 0.071286 0.750000
O O6 0.500000 0.062187 0.664463
O O7 0.357391 0.012616 0.602641
O O8 0.299605 0.746322 0.250000
O O9 0.361917 0.766727 0.078002
O O10 0.318001 0.678702 0.118821
O O11 0.183077 0.746140 0.102938
O O12 0.500000 0.757759 0.545846
O O13 0.846406 0.541276 0.250000
O O14 0.692658 0.519092 0.155107
O O15 0.874674 0.119013 0.250000
O O16 0.884699 0.091166 0.425693
O O17 0.000000 0.159102 0.363944
O O18 0.000000 0.975852 0.862798
O O19 0.887949 0.000000 0.000000
#
# Coordination Sequence:
#
# PCOD8258313 Si02
#       7
#    16  16  16  16  16  16  16
#     4  10  20  34  53  78 110 142 171 212 265 317
#     4   9  18  32  50  74 104 140 180 215 252 307
#     4  10  21  38  59  82 110 144 180 221 271 326
#     4  10  22  37  55  84 114 140 178 225 272 325
#     4  11  21  32  49  72 102 142 183 221 262 312
#     4   9  17  31  53  78 102 132 173 219 266 319
#     4  10  20  32  47  70  99 130 168 215 264 309
#
# _framework density 19.919526000000001
#
# number of rings (size 3 to 8) (size 9 to 14) (size 15 to 20)
#    0.000    2.143    0.000    3.429    0.000    6.286 
#    0.000    2.857    0.000    0.000    0.000    1.000 
#    0.000   11.429    0.000    0.000    0.000    0.000 
#
# Total GULP energy -693740.108414 kJ/mol
# GULP energy per Si atom -12388.216222 kJ/mol
# Density = 1.987419 g / cm^3
# Si number density = 19.919526 Si / 1000 Ang^3
#
#
#
# Elastic Constant Matrix: (Units=GPa)
#
#
# Indices 1 2 3 4 5 6 
#
# 1 77.5158 16.6454 45.7326 0.0000 0.0000 0.0000
# 2 16.6454 33.5577 8.6835 0.0000 0.0000 0.0000
# 3 45.7326 8.6835 59.4240 0.0000 0.0000 0.0000
# 4 0.0000 0.0000 0.0000 19.3862 0.0000 0.0000
# 5 0.0000 0.0000 0.0000 0.0000 21.7124 0.0000
# 6 0.0000 0.0000 0.0000 0.0000 0.0000 21.6735
#
#
#
# Elastic Compliance Matrix: (Units=1/GPa)
#
#
# Indices 1 2 3 4 5 6 
#
# 1 0.025480 -0.007862 -0.018461 0.000000 0.000000 0.000000
# 2 -0.007862 0.033396 0.001170 0.000000 0.000000 0.000000
# 3 -0.018461 0.001170 0.030865 0.000000 0.000000 0.000000
# 4 0.000000 0.000000 0.000000 0.051583 0.000000 0.000000
# 5 0.000000 0.000000 0.000000 0.000000 0.046057 0.000000
# 6 0.000000 0.000000 0.000000 0.000000 0.000000 0.046139
#
#
# Mechanical properties :
#
#
# Convention : Reuss Voigt Hill
#
# Bulk Modulus (GPa) = 25.35717 34.73561 30.04639
# Shear Modulus (GPa) = 16.83672 19.18348 18.01010
#
# Velocity S-wave (km/s) = 2.91045 3.10667 3.01016
# Velocity P-wave (km/s) = 4.90426 5.50857 5.21517
#
# Compressibility (1/GPa) = 0.03943659
#
# Stress axis : x y z
#
# Youngs Moduli (GPa) = 39.24616 29.94348 32.39967
#
# Poissons Ratio (x) = 0.23541 0.59812
# Poissons Ratio (y) = 0.30855 -0.03792
# Poissons Ratio (z) = 0.72451 -0.03504
#
# Static dielectric constant tensor:
#      x y z
#    x 3.921610 0.000000 0.000000 
#    y 0.000000 3.443040 0.000000 
#    z 0.000000 0.000000 9.505730 
# 
# 
# High freq. dielectric constant tensor:
#      x y z
#    x 1.788980 0.000000 0.000000 
#    y 0.000000 1.757220 0.000000 
#    z 0.000000 0.000000 1.759910 
# 
# From -- ./inp_files/32523.got.cif
#   From: 2010.03.12/outbox.cif.g09.slc.cpg/sg63_17_cif.got.tgz:32523.got - 2010.04.10 19:34:48.
