data_PCOD8258325
_publ_section_title
;
Structure prediction by ZEFSAII (Michael W. Deem and Ramdas Pophale) SiO2 
 PCOD8258325
Probable space group: C M C M
;
_chemical_formula_sum "Si O2"
_cell_formula_units_Z 96
_cell_length_a 9.065943
_cell_length_b 28.178691
_cell_length_c 20.058645
_cell_angle_alpha 90.000000
_cell_angle_beta 90.000000
_cell_angle_gamma 90.000000
_cell_volume 5124.309956
_symmetry_space_group_name_H-M "C M C M"
_symmetry_group_IT_number 63
_symmetry_cell_setting 'orthorhombic'
loop_
_space_group_symop_operation_xyz
x,y,z
-x,-y,1/2+z
x,-y,-z
-x,y,1/2-z
-x,-y,-z
x,y,1/2-z
-x,y,z
x,-y,1/2+z
1/2+x,1/2+y,z
1/2-x,1/2-y,1/2+z
1/2+x,1/2-y,-z
1/2-x,1/2+y,1/2-z
1/2-x,1/2-y,-z
1/2+x,1/2+y,1/2-z
1/2-x,1/2+y,z
1/2+x,1/2-y,1/2+z
loop_
_atom_site_type_symbol
_atom_site_label
_atom_site_fract_x
_atom_site_fract_y
_atom_site_fract_z
Si Si1 0.162115 0.821572 0.118163
Si Si2 0.827486 0.006503 0.671992
Si Si3 0.328037 0.226061 0.437991
Si Si4 0.325591 0.959313 0.553049
Si Si5 0.159976 0.598151 0.826994
Si Si6 0.667528 0.638031 0.470070
O O1 0.189713 0.764632 0.121736
O O2 0.281896 0.848789 0.161794
O O3 0.000000 0.832785 0.147293
O O4 0.171806 0.839961 0.043018
O O5 0.792160 0.996754 0.750000
O O6 0.774313 0.058570 0.647507
O O7 0.000000 0.002810 0.657671
O O8 0.741530 0.968951 0.626386
O O9 0.500000 0.216937 0.453964
O O10 0.250000 0.250000 0.500000
O O11 0.248428 0.176023 0.420827
O O12 0.500000 0.954135 0.560186
O O13 0.256922 0.910596 0.527166
O O14 0.282390 0.000000 0.500000
O O15 0.136022 0.590286 0.750000
O O16 0.000000 0.591666 0.862784
O O17 0.500000 0.629610 0.445343
#
# Coordination Sequence:
#
# PCOD8258325 Si02
#       6
#    16  16  16  16  16  16
#     4   9  18  31  49  73 100 131 164 201 248 298
#     4  10  21  37  56  76 101 137 177 214 257 310
#     4   9  17  30  48  71  98 128 163 200 244 301
#     4  11  23  36  53  79 108 138 173 215 262 308
#     4  10  20  32  48  72 100 130 165 205 249 298
#     4  10  20  33  50  74 103 133 166 206 252 301
#
# _framework density 18.734228999999999
#
# number of rings (size 3 to 8) (size 9 to 14) (size 15 to 20)
#    0.000    2.167    0.000    4.500    0.000   10.000 
#    0.000    0.000    0.000    1.000    0.000    4.667 
#    0.000    0.000    0.000    0.000    0.000    0.000 
#
# Total GULP energy -594943.656230 kJ/mol
# GULP energy per Si atom -12394.659505 kJ/mol
# Density = 1.869159 g / cm^3
# Si number density = 18.734229 Si / 1000 Ang^3
#
#
#
# Elastic Constant Matrix: (Units=GPa)
#
#
# Indices 1 2 3 4 5 6 
#
# 1 132.5722 56.3070 27.4126 0.0000 0.0000 0.0000
# 2 56.3070 118.5824 16.5154 0.0000 0.0000 0.0000
# 3 27.4126 16.5154 30.9227 0.0000 0.0000 0.0000
# 4 0.0000 0.0000 0.0000 22.5608 0.0000 0.0000
# 5 0.0000 0.0000 0.0000 0.0000 24.4331 0.0000
# 6 0.0000 0.0000 0.0000 0.0000 0.0000 38.0002
#
#
#
# Elastic Compliance Matrix: (Units=1/GPa)
#
#
# Indices 1 2 3 4 5 6 
#
# 1 0.010816 -0.004106 -0.007395 0.000000 0.000000 0.000000
# 2 -0.004106 0.010669 -0.002059 0.000000 0.000000 0.000000
# 3 -0.007395 -0.002059 0.039994 0.000000 0.000000 0.000000
# 4 0.000000 0.000000 0.000000 0.044325 0.000000 0.000000
# 5 0.000000 0.000000 0.000000 0.000000 0.040928 0.000000
# 6 0.000000 0.000000 0.000000 0.000000 0.000000 0.026316
#
#
# Mechanical properties :
#
#
# Convention : Reuss Voigt Hill
#
# Bulk Modulus (GPa) = 29.10376 53.61638 41.36007
# Shear Modulus (GPa) = 23.62715 29.12164 26.37440
#
# Velocity S-wave (km/s) = 3.55516 3.94694 3.75616
# Velocity P-wave (km/s) = 5.69394 7.03227 6.39819
#
# Compressibility (1/GPa) = 0.03435982
#
# Stress axis : x y z
#
# Youngs Moduli (GPa) = 92.45450 93.72719 25.00366
#
# Poissons Ratio (x) = 0.38483 0.18491
# Poissons Ratio (y) = 0.37961 0.05147
# Poissons Ratio (z) = 0.68374 0.19294
#
# Static dielectric constant tensor:
#      x y z
#    x 3.794180 0.000000 0.000000 
#    y 0.000000 4.155750 0.000000 
#    z 0.000000 0.000000 3.138530 
# 
# 
# High freq. dielectric constant tensor:
#      x y z
#    x 1.747640 0.000000 0.000000 
#    y 0.000000 1.731440 0.000000 
#    z 0.000000 0.000000 1.682520 
# 
# From -- ./inp_files/51326.got.cif
#   From: 2010.03.12/outbox.cif.g09.slc.cpg/sg63_26_cif.got.tgz:51326.got - 2010.04.10 19:34:48.
