data_PCOD8258249
_publ_section_title
;
Structure prediction by ZEFSAII (Michael W. Deem and Ramdas Pophale) SiO2 
 PCOD8258249
Probable space group: C M C M
;
_chemical_formula_sum "Si O2"
_cell_formula_units_Z 112
_cell_length_a 26.145511
_cell_length_b 13.936974
_cell_length_c 15.158971
_cell_angle_alpha 90.000000
_cell_angle_beta 90.000000
_cell_angle_gamma 90.000000
_cell_volume 5523.766938
_symmetry_space_group_name_H-M "C M C M"
_symmetry_group_IT_number 63
_symmetry_cell_setting 'orthorhombic'
loop_
_space_group_symop_operation_xyz
x,y,z
-x,-y,1/2+z
x,-y,-z
-x,y,1/2-z
-x,-y,-z
x,y,1/2-z
-x,y,z
x,-y,1/2+z
1/2+x,1/2+y,z
1/2-x,1/2-y,1/2+z
1/2+x,1/2-y,-z
1/2-x,1/2+y,1/2-z
1/2-x,1/2-y,-z
1/2+x,1/2+y,1/2-z
1/2-x,1/2+y,z
1/2+x,1/2-y,1/2+z
loop_
_atom_site_type_symbol
_atom_site_label
_atom_site_fract_x
_atom_site_fract_y
_atom_site_fract_z
Si Si1 0.797095 0.291943 0.150774
Si Si2 0.599868 0.557598 0.913926
Si Si3 0.646396 0.886382 0.990928
Si Si4 0.765580 0.616241 0.352590
Si Si5 0.208213 0.929048 0.150818
Si Si6 0.440284 0.259707 0.013082
Si Si7 0.941435 0.877215 0.653993
O O1 0.819275 0.306519 0.250000
O O2 0.835012 0.342854 0.083637
O O3 0.785472 0.180414 0.129643
O O4 0.739205 0.331076 0.144616
O O5 0.660134 0.579503 0.913458
O O6 0.585110 0.482169 0.837842
O O7 0.582850 0.500000 0.000000
O O8 0.569750 0.659215 0.911516
O O9 0.592372 0.835957 0.967060
O O10 0.686365 0.859013 0.914313
O O11 0.637292 0.000000 0.000000
O O12 0.782746 0.623136 0.250000
O O13 0.747874 0.510381 0.379873
O O14 0.188677 0.949413 0.250000
O O15 0.500000 0.231181 0.010930
O O16 0.419632 0.304557 0.919988
O O17 0.934156 0.827935 0.750000
O O18 0.000000 0.896113 0.630465
#
# Coordination Sequence:
#
# PCOD8258249 Si02
#       7
#    16  16  16  16  16  16  16
#     4  10  22  38  58  86 120 158 199 242 297 359
#     4  10  20  31  55  85 117 154 185 231 290 364
#     4  12  24  39  64  86 114 163 210 254 303 350
#     4  10  22  39  60  87 123 158 196 246 294 357
#     4  10  20  34  53  85 121 151 184 232 286 351
#     4  10  23  41  58  85 118 154 205 258 304 350
#     4   9  18  35  59  86 118 153 193 246 306 365
#
# _framework density 20.276018000000001
#
# number of rings (size 3 to 8) (size 9 to 14) (size 15 to 20)
#    0.000    1.857    1.429    2.143    6.000    2.571 
#    0.000    0.714    0.000    2.143    0.000    2.000 
#    0.000    0.000    0.000    0.000    0.000    0.000 
#
# Total GULP energy -694189.516047 kJ/mol
# GULP energy per Si atom -12396.241358 kJ/mol
# Density = 2.022987 g / cm^3
# Si number density = 20.276018 Si / 1000 Ang^3
#
#
#
# Elastic Constant Matrix: (Units=GPa)
#
#
# Indices 1 2 3 4 5 6 
#
# 1 80.7480 26.4083 24.6800 0.0000 0.0000 0.0000
# 2 26.4083 82.4197 19.8240 0.0000 0.0000 0.0000
# 3 24.6800 19.8240 64.5742 0.0000 0.0000 0.0000
# 4 0.0000 0.0000 0.0000 21.2660 0.0000 0.0000
# 5 0.0000 0.0000 0.0000 0.0000 20.4748 0.0000
# 6 0.0000 0.0000 0.0000 0.0000 0.0000 32.7225
#
#
#
# Elastic Compliance Matrix: (Units=1/GPa)
#
#
# Indices 1 2 3 4 5 6 
#
# 1 0.014999 -0.003700 -0.004597 0.000000 0.000000 0.000000
# 2 -0.003700 0.014013 -0.002888 0.000000 0.000000 0.000000
# 3 -0.004597 -0.002888 0.018129 0.000000 0.000000 0.000000
# 4 0.000000 0.000000 0.000000 0.047023 0.000000 0.000000
# 5 0.000000 0.000000 0.000000 0.000000 0.048841 0.000000
# 6 0.000000 0.000000 0.000000 0.000000 0.000000 0.030560
#
#
# Mechanical properties :
#
#
# Convention : Reuss Voigt Hill
#
# Bulk Modulus (GPa) = 40.36748 41.06294 40.71521
# Shear Modulus (GPa) = 24.48663 25.34797 24.91730
#
# Velocity S-wave (km/s) = 3.47892 3.53958 3.50938
# Velocity P-wave (km/s) = 6.00744 6.08282 6.04525
#
# Compressibility (1/GPa) = 0.02477242
#
# Stress axis : x y z
#
# Youngs Moduli (GPa) = 66.66955 71.36110 55.15899
#
# Poissons Ratio (x) = 0.26406 0.25355
# Poissons Ratio (y) = 0.24670 0.15928
# Poissons Ratio (z) = 0.30646 0.20607
#
# Static dielectric constant tensor:
#      x y z
#    x 3.408090 0.000000 0.000000 
#    y 0.000000 3.737800 0.000000 
#    z 0.000000 0.000000 3.694720 
# 
# 
# High freq. dielectric constant tensor:
#      x y z
#    x 1.777220 0.000000 0.000000 
#    y 0.000000 1.790510 0.000000 
#    z 0.000000 0.000000 1.787300 
# 
# From -- ./inp_files/36865.got.cif
#   From: 2010.03.12/outbox.cif.g09.slc.cpg/sg63_19_cif.got.tgz:36865.got - 2010.04.10 19:34:48.
