data_PCOD8258768
_publ_section_title
;
Structure prediction by ZEFSAII (Michael W. Deem and Ramdas Pophale) SiO2 
 PCOD8258768
Probable space group: C M C M
;
_chemical_formula_sum "Si O2"
_cell_formula_units_Z 104
_cell_length_a 26.393698
_cell_length_b 23.779974
_cell_length_c 9.136555
_cell_angle_alpha 90.000000
_cell_angle_beta 90.000000
_cell_angle_gamma 90.000000
_cell_volume 5734.480648
_symmetry_space_group_name_H-M "C M C M"
_symmetry_group_IT_number 63
_symmetry_cell_setting 'orthorhombic'
loop_
_space_group_symop_operation_xyz
x,y,z
-x,-y,1/2+z
x,-y,-z
-x,y,1/2-z
-x,-y,-z
x,y,1/2-z
-x,y,z
x,-y,1/2+z
1/2+x,1/2+y,z
1/2-x,1/2-y,1/2+z
1/2+x,1/2-y,-z
1/2-x,1/2+y,1/2-z
1/2-x,1/2-y,-z
1/2+x,1/2+y,1/2-z
1/2-x,1/2+y,z
1/2+x,1/2-y,1/2+z
loop_
_atom_site_type_symbol
_atom_site_label
_atom_site_fract_x
_atom_site_fract_y
_atom_site_fract_z
Si Si1 0.290189 0.135971 0.582290
Si Si2 0.869356 0.265659 0.081922
Si Si3 0.000000 0.057414 0.582127
Si Si4 0.636023 0.941332 0.577817
Si Si5 0.558286 0.843966 0.579720
Si Si6 0.108903 0.058794 0.579421
Si Si7 0.177020 0.840071 0.422829
O O1 0.288077 0.114954 0.750000
O O2 0.324349 0.190394 0.564086
O O3 0.311974 0.085278 0.484265
O O4 0.235003 0.154436 0.525719
O O5 0.881466 0.252318 0.250000
O O6 0.920013 0.290750 0.008734
O O7 0.851904 0.209607 0.002792
O O8 0.053440 0.087690 0.543872
O O9 0.000000 0.041067 0.750000
O O10 0.000000 0.000000 0.500000
O O11 0.642342 0.950990 0.750000
O O12 0.588906 0.900597 0.540377
O O13 0.624387 0.000000 0.500000
O O14 0.564032 0.829637 0.750000
O O15 0.500000 0.853575 0.534910
O O16 0.114654 0.046381 0.750000
O O17 0.150884 0.102296 0.526370
O O18 0.117433 0.000000 0.500000
O O19 0.172657 0.829446 0.250000
#
# Coordination Sequence:
#
# PCOD8258768 Si02
#       7
#    16  16   8  16  16  16  16
#     4   9  19  35  53  73 102 139 176 217 262 308
#     4  10  20  34  53  77 104 135 173 217 264 312
#     4   8  14  28  48  66  86 116 152 186 229 280
#     4  10  20  34  54  80 109 141 179 219 264 321
#     4   9  19  37  58  78 104 141 180 219 266 319
#     4   9  18  32  50  71  96 126 161 203 248 297
#     4  10  20  34  52  76 104 135 174 215 259 314
#
# _framework density 18.135905999999999
#
# number of rings (size 3 to 8) (size 9 to 14) (size 15 to 20)
#    0.000    2.615    0.000    1.385    0.000    3.692 
#    1.385    1.538    0.000    0.000    0.000    0.000 
#    0.000    0.000    0.000    0.000    0.000    0.000 
#
# Total GULP energy -644627.329601 kJ/mol
# GULP energy per Si atom -12396.679415 kJ/mol
# Density = 1.809463 g / cm^3
# Si number density = 18.135906 Si / 1000 Ang^3
#
#
#
# Elastic Constant Matrix: (Units=GPa)
#
#
# Indices 1 2 3 4 5 6 
#
# 1 94.4978 70.1567 51.3127 0.0000 0.0000 0.0000
# 2 70.1567 105.7080 58.1739 0.0000 0.0000 0.0000
# 3 51.3127 58.1739 75.1136 0.0000 0.0000 0.0000
# 4 0.0000 0.0000 0.0000 31.0265 0.0000 0.0000
# 5 0.0000 0.0000 0.0000 0.0000 25.0522 0.0000
# 6 0.0000 0.0000 0.0000 0.0000 0.0000 17.6068
#
#
#
# Elastic Compliance Matrix: (Units=1/GPa)
#
#
# Indices 1 2 3 4 5 6 
#
# 1 0.022629 -0.011348 -0.006670 0.000000 0.000000 0.000000
# 2 -0.011348 0.022178 -0.009424 0.000000 0.000000 0.000000
# 3 -0.006670 -0.009424 0.025168 0.000000 0.000000 0.000000
# 4 0.000000 0.000000 0.000000 0.032231 0.000000 0.000000
# 5 0.000000 0.000000 0.000000 0.000000 0.039917 0.000000
# 6 0.000000 0.000000 0.000000 0.000000 0.000000 0.056796
#
#
# Mechanical properties :
#
#
# Convention : Reuss Voigt Hill
#
# Bulk Modulus (GPa) = 66.26325 70.51177 68.38751
# Shear Modulus (GPa) = 19.31752 21.11550 20.21651
#
# Velocity S-wave (km/s) = 3.26721 3.41587 3.34237
# Velocity P-wave (km/s) = 7.13087 7.38388 7.25847
#
# Compressibility (1/GPa) = 0.01509132
#
# Stress axis : x y z
#
# Youngs Moduli (GPa) = 44.19151 45.09049 39.73231
#
# Poissons Ratio (x) = 0.51167 0.26501
# Poissons Ratio (y) = 0.50147 0.37444
# Poissons Ratio (z) = 0.29476 0.42494
#
# Static dielectric constant tensor:
#      x y z
#    x 3.979620 0.000000 0.000000 
#    y 0.000000 3.202970 0.000000 
#    z 0.000000 0.000000 3.369510 
# 
# 
# High freq. dielectric constant tensor:
#      x y z
#    x 1.712670 0.000000 0.000000 
#    y 0.000000 1.690340 0.000000 
#    z 0.000000 0.000000 1.702570 
# 
# From -- ./inp_files/12545.got.cif
#   From: 2010.03.12/outbox.cif.g09.slc.cpg/sg63_7_cif.got.tgz:12545.got - 2010.04.10 19:34:48.
