data_PCOD8258812
_publ_section_title
;
Structure prediction by ZEFSAII (Michael W. Deem and Ramdas Pophale) SiO2 
 PCOD8258812
Probable space group: C M C M
;
_chemical_formula_sum "Si O2"
_cell_formula_units_Z 88
_cell_length_a 18.066927
_cell_length_b 30.309802
_cell_length_c 8.802931
_cell_angle_alpha 90.000000
_cell_angle_beta 90.000000
_cell_angle_gamma 90.000000
_cell_volume 4820.528855
_symmetry_space_group_name_H-M "C M C M"
_symmetry_group_IT_number 63
_symmetry_cell_setting 'orthorhombic'
loop_
_space_group_symop_operation_xyz
x,y,z
-x,-y,1/2+z
x,-y,-z
-x,y,1/2-z
-x,-y,-z
x,y,1/2-z
-x,y,z
x,-y,1/2+z
1/2+x,1/2+y,z
1/2-x,1/2-y,1/2+z
1/2+x,1/2-y,-z
1/2-x,1/2+y,1/2-z
1/2-x,1/2-y,-z
1/2+x,1/2+y,1/2-z
1/2-x,1/2+y,z
1/2+x,1/2-y,1/2+z
loop_
_atom_site_type_symbol
_atom_site_label
_atom_site_fract_x
_atom_site_fract_y
_atom_site_fract_z
Si Si1 0.208477 0.208544 0.071544
Si Si2 0.338966 0.451775 0.570657
Si Si3 0.414707 0.753200 0.578434
Si Si4 0.917339 0.345055 0.075430
Si Si5 0.500000 0.452991 0.573272
Si Si6 0.264575 0.119139 0.926618
O O1 0.221556 0.205280 0.250000
O O2 0.250000 0.250000 0.000000
O O3 0.122764 0.217206 0.031489
O O4 0.233192 0.163898 0.993952
O O5 0.330942 0.500000 0.500000
O O6 0.329175 0.455558 0.750000
O O7 0.420781 0.430284 0.528881
O O8 0.272953 0.422050 0.507896
O O9 0.384380 0.748744 0.750000
O O10 0.500000 0.742079 0.568875
O O11 0.397885 0.803035 0.526850
O O12 0.914241 0.329299 0.250000
O O13 0.854069 0.382015 0.046081
O O14 0.000000 0.363595 0.036467
O O15 0.500000 0.500000 0.500000
O O16 0.500000 0.461315 0.750000
O O17 0.245126 0.116904 0.750000
#
# Coordination Sequence:
#
# PCOD8258812 Si02
#       6
#    16  16  16  16   8  16
#     4  12  23  36  54  77 109 148 185 228 276 327
#     4  10  20  37  60  85 112 143 180 225 272 326
#     4  10  20  34  53  76 104 140 184 230 274 324
#     4   9  18  33  54  78 105 141 184 227 272 326
#     4   8  16  32  56  82 108 140 178 218 264 318
#     4  11  22  36  56  83 112 144 182 227 277 331
#
# _framework density 18.255258000000001
#
# number of rings (size 3 to 8) (size 9 to 14) (size 15 to 20)
#    0.000    1.818    1.818    3.273    0.000    2.545 
#    1.636    0.000    0.000    0.545    0.000    0.000 
#    0.000    0.000    0.000    0.000    0.000    0.000 
#
# Total GULP energy -545257.872228 kJ/mol
# GULP energy per Si atom -12392.224369 kJ/mol
# Density = 1.821371 g / cm^3
# Si number density = 18.255258 Si / 1000 Ang^3
#
#
#
# Elastic Constant Matrix: (Units=GPa)
#
#
# Indices 1 2 3 4 5 6 
#
# 1 135.5517 61.3384 46.7217 0.0000 0.0000 0.0000
# 2 61.3384 85.6848 37.5543 0.0000 0.0000 0.0000
# 3 46.7217 37.5543 75.4100 0.0000 0.0000 0.0000
# 4 0.0000 0.0000 0.0000 31.4218 0.0000 0.0000
# 5 0.0000 0.0000 0.0000 0.0000 26.6831 0.0000
# 6 0.0000 0.0000 0.0000 0.0000 0.0000 30.9002
#
#
#
# Elastic Compliance Matrix: (Units=1/GPa)
#
#
# Indices 1 2 3 4 5 6 
#
# 1 0.011769 -0.006689 -0.003961 0.000000 0.000000 0.000000
# 2 -0.006689 0.018731 -0.005184 0.000000 0.000000 0.000000
# 3 -0.003961 -0.005184 0.018296 0.000000 0.000000 0.000000
# 4 0.000000 0.000000 0.000000 0.031825 0.000000 0.000000
# 5 0.000000 0.000000 0.000000 0.000000 0.037477 0.000000
# 6 0.000000 0.000000 0.000000 0.000000 0.000000 0.032362
#
#
# Mechanical properties :
#
#
# Convention : Reuss Voigt Hill
#
# Bulk Modulus (GPa) = 58.37879 65.31946 61.84913
# Shear Modulus (GPa) = 26.61866 27.86984 27.24425
#
# Velocity S-wave (km/s) = 3.82270 3.91151 3.86736
# Velocity P-wave (km/s) = 7.17862 7.50058 7.34137
#
# Compressibility (1/GPa) = 0.01712951
#
# Stress axis : x y z
#
# Youngs Moduli (GPa) = 84.96611 53.38672 54.65617
#
# Poissons Ratio (x) = 0.35712 0.21647
# Poissons Ratio (y) = 0.56837 0.28332
# Poissons Ratio (z) = 0.33652 0.27674
#
# Static dielectric constant tensor:
#      x y z
#    x 4.087260 0.000000 0.000000 
#    y 0.000000 3.074000 0.000000 
#    z 0.000000 0.000000 3.630580 
# 
# 
# High freq. dielectric constant tensor:
#      x y z
#    x 1.731470 0.000000 0.000000 
#    y 0.000000 1.660310 0.000000 
#    z 0.000000 0.000000 1.722720 
# 
# From -- ./inp_files/6825.got.cif
#   From: 2010.03.12/outbox.cif.g09.slc.cpg/sg63_4_cif.got.tgz:6825.got - 2010.04.10 19:34:48.
