data_PCOD8258006
_publ_section_title
;
Structure prediction by ZEFSAII (Michael W. Deem and Ramdas Pophale) SiO2 
 PCOD8258006
Probable space group: C M C M
;
_chemical_formula_sum "Si O2"
_cell_formula_units_Z 72
_cell_length_a 7.547441
_cell_length_b 31.364564
_cell_length_c 17.358965
_cell_angle_alpha 90.000000
_cell_angle_beta 90.000000
_cell_angle_gamma 90.000000
_cell_volume 4109.252320
_symmetry_space_group_name_H-M "C M C M"
_symmetry_group_IT_number 63
_symmetry_cell_setting 'orthorhombic'
loop_
_space_group_symop_operation_xyz
x,y,z
-x,-y,1/2+z
x,-y,-z
-x,y,1/2-z
-x,-y,-z
x,y,1/2-z
-x,y,z
x,-y,1/2+z
1/2+x,1/2+y,z
1/2-x,1/2-y,1/2+z
1/2+x,1/2-y,-z
1/2-x,1/2+y,1/2-z
1/2-x,1/2-y,-z
1/2+x,1/2+y,1/2-z
1/2-x,1/2+y,z
1/2+x,1/2-y,1/2+z
loop_
_atom_site_type_symbol
_atom_site_label
_atom_site_fract_x
_atom_site_fract_y
_atom_site_fract_z
Si Si1 0.701751 0.435937 0.162616
Si Si2 0.500000 0.181255 0.159440
Si Si3 0.796626 0.791961 0.953483
Si Si4 0.000000 0.408613 0.914212
Si Si5 0.799827 0.119194 0.978557
Si Si6 0.500000 0.000109 0.659886
O O1 0.750113 0.422574 0.250000
O O2 0.500000 0.452204 0.156487
O O3 0.733701 0.394235 0.109994
O O4 0.825417 0.474307 0.132824
O O5 0.500000 0.191177 0.250000
O O6 0.674028 0.202714 0.121692
O O7 0.500000 0.130335 0.146448
O O8 0.000000 0.791233 0.925432
O O9 0.750000 0.750000 0.000000
O O10 0.759597 0.830653 0.012886
O O11 0.000000 0.453200 0.872526
O O12 0.174660 0.407751 0.966087
O O13 0.000000 0.108590 0.003884
O O14 0.500000 0.994975 0.750000
#
# Coordination Sequence:
#
# PCOD8258006 Si02
#       6
#    16   8  16   8  16   8
#     4   9  18  33  50  70 100 136 170 211 258 306
#     4  10  21  37  57  81 110 141 179 224 268 314
#     4  10  19  35  58  81 106 143 177 216 268 326
#     4  10  20  34  52  75 102 137 174 217 260 309
#     4   9  19  33  51  75 101 134 175 210 256 314
#     4  10  20  33  50  72 100 134 173 213 261 309
#
# _framework density 17.521435
#
# number of rings (size 3 to 8) (size 9 to 14) (size 15 to 20)
#    0.000    2.444    1.111    1.000    0.000    3.111 
#    0.000    3.333    0.000    4.000    0.000    0.000 
#    0.000    0.000    0.000    0.000    0.000    0.000 
#
# Total GULP energy -446347.571783 kJ/mol
# GULP energy per Si atom -12398.543661 kJ/mol
# Density = 1.748156 g / cm^3
# Si number density = 17.521435 Si / 1000 Ang^3
#
#
#
# Elastic Constant Matrix: (Units=GPa)
#
#
# Indices 1 2 3 4 5 6 
#
# 1 126.6845 60.5026 60.7026 0.0000 0.0000 0.0000
# 2 60.5026 113.1922 64.5515 0.0000 0.0000 0.0000
# 3 60.7026 64.5515 100.0456 0.0000 0.0000 0.0000
# 4 0.0000 0.0000 0.0000 25.0329 0.0000 0.0000
# 5 0.0000 0.0000 0.0000 0.0000 24.5219 0.0000
# 6 0.0000 0.0000 0.0000 0.0000 0.0000 24.5740
#
#
#
# Elastic Compliance Matrix: (Units=1/GPa)
#
#
# Indices 1 2 3 4 5 6 
#
# 1 0.011977 -0.003572 -0.004963 0.000000 0.000000 0.000000
# 2 -0.003572 0.015043 -0.007539 0.000000 0.000000 0.000000
# 3 -0.004963 -0.007539 0.017871 0.000000 0.000000 0.000000
# 4 0.000000 0.000000 0.000000 0.039947 0.000000 0.000000
# 5 0.000000 0.000000 0.000000 0.000000 0.040780 0.000000
# 6 0.000000 0.000000 0.000000 0.000000 0.000000 0.040693
#
#
# Mechanical properties :
#
#
# Convention : Reuss Voigt Hill
#
# Bulk Modulus (GPa) = 78.46565 79.04842 78.75703
# Shear Modulus (GPa) = 24.66617 25.10345 24.88481
#
# Velocity S-wave (km/s) = 3.75610 3.78925 3.77271
# Velocity P-wave (km/s) = 7.98066 8.02233 8.00152
#
# Compressibility (1/GPa) = 0.01274443
#
# Stress axis : x y z
#
# Youngs Moduli (GPa) = 83.49015 66.47586 55.95773
#
# Poissons Ratio (x) = 0.23745 0.27769
# Poissons Ratio (y) = 0.29823 0.42185
# Poissons Ratio (z) = 0.41432 0.50115
#
# Static dielectric constant tensor:
#      x y z
#    x 4.070050 0.000000 0.000000 
#    y 0.000000 3.232840 0.000000 
#    z 0.000000 0.000000 3.157780 
# 
# 
# High freq. dielectric constant tensor:
#      x y z
#    x 1.699000 0.000000 0.000000 
#    y 0.000000 1.669740 0.000000 
#    z 0.000000 0.000000 1.663310 
# 
# From -- ./inp_files/28147.got.cif
#   From: 2010.03.12/outbox.cif.g09.slc.cpg/sg63_15_cif.got.tgz:28147.got - 2010.04.10 19:34:48.
