data_PCOD8258776
_publ_section_title
;
Structure prediction by ZEFSAII (Michael W. Deem and Ramdas Pophale) SiO2 
 PCOD8258776
Probable space group: C M C M
;
_chemical_formula_sum "Si O2"
_cell_formula_units_Z 96
_cell_length_a 22.987786
_cell_length_b 15.169933
_cell_length_c 14.596248
_cell_angle_alpha 90.000000
_cell_angle_beta 90.000000
_cell_angle_gamma 90.000000
_cell_volume 5090.049923
_symmetry_space_group_name_H-M "C M C M"
_symmetry_group_IT_number 63
_symmetry_cell_setting 'orthorhombic'
loop_
_space_group_symop_operation_xyz
x,y,z
-x,-y,1/2+z
x,-y,-z
-x,y,1/2-z
-x,-y,-z
x,y,1/2-z
-x,y,z
x,-y,1/2+z
1/2+x,1/2+y,z
1/2-x,1/2-y,1/2+z
1/2+x,1/2-y,-z
1/2-x,1/2+y,1/2-z
1/2-x,1/2-y,-z
1/2+x,1/2+y,1/2-z
1/2-x,1/2+y,z
1/2+x,1/2-y,1/2+z
loop_
_atom_site_type_symbol
_atom_site_label
_atom_site_fract_x
_atom_site_fract_y
_atom_site_fract_z
Si Si1 0.846052 0.899843 0.017719
Si Si2 0.742491 0.125451 0.854025
Si Si3 0.566480 0.327070 0.148425
Si Si4 0.315467 0.053674 0.358556
Si Si5 0.936039 0.375346 0.641846
Si Si6 0.790834 0.177202 0.353652
O O1 0.798996 0.858879 0.085909
O O2 0.907003 0.887945 0.068884
O O3 0.843632 0.851571 0.919407
O O4 0.832053 0.000000 0.000000
O O5 0.761121 0.103454 0.750000
O O6 0.708842 0.217420 0.858416
O O7 0.704097 0.043646 0.892871
O O8 0.594448 0.342315 0.250000
O O9 0.500000 0.354358 0.153790
O O10 0.574641 0.226408 0.117991
O O11 0.320554 0.056198 0.250000
O O12 0.380309 0.072169 0.399779
O O13 0.268948 0.129401 0.388903
O O14 0.938567 0.388007 0.750000
O O15 0.000000 0.405527 0.602172
O O16 0.804031 0.145751 0.250000
#
# Coordination Sequence:
#
# PCOD8258776 Si02
#       6
#    16  16  16  16  16  16
#     4  12  22  33  54  80 108 141 180 228 279 327
#     4  10  20  34  52  76 110 148 182 219 272 330
#     4   9  19  36  57  81 107 137 177 225 277 330
#     4   9  16  29  49  75 106 137 174 218 263 316
#     4   8  14  27  50  78 105 135 173 220 268 312
#     4  10  21  36  52  75 109 146 182 222 269 324
#
# _framework density 18.860325
#
# number of rings (size 3 to 8) (size 9 to 14) (size 15 to 20)
#    0.000    2.333    1.667    3.000    0.000    3.667 
#    0.000    0.000    0.000    1.500    0.000    7.000 
#    0.000    0.000    0.000    0.000    0.000    0.000 
#
# Total GULP energy -594865.552006 kJ/mol
# GULP energy per Si atom -12393.032333 kJ/mol
# Density = 1.881740 g / cm^3
# Si number density = 18.860325 Si / 1000 Ang^3
#
#
#
# Elastic Constant Matrix: (Units=GPa)
#
#
# Indices 1 2 3 4 5 6 
#
# 1 65.9346 18.7279 38.0040 0.0000 0.0000 0.0000
# 2 18.7279 76.7572 34.0998 0.0000 0.0000 0.0000
# 3 38.0040 34.0998 69.3394 0.0000 0.0000 0.0000
# 4 0.0000 0.0000 0.0000 20.0202 0.0000 0.0000
# 5 0.0000 0.0000 0.0000 0.0000 24.2184 0.0000
# 6 0.0000 0.0000 0.0000 0.0000 0.0000 18.4917
#
#
#
# Elastic Compliance Matrix: (Units=1/GPa)
#
#
# Indices 1 2 3 4 5 6 
#
# 1 0.022170 -0.000014 -0.012144 0.000000 0.000000 0.000000
# 2 -0.000014 0.016670 -0.008190 0.000000 0.000000 0.000000
# 3 -0.012144 -0.008190 0.025106 0.000000 0.000000 0.000000
# 4 0.000000 0.000000 0.000000 0.049950 0.000000 0.000000
# 5 0.000000 0.000000 0.000000 0.000000 0.041291 0.000000
# 6 0.000000 0.000000 0.000000 0.000000 0.000000 0.054078
#
#
# Mechanical properties :
#
#
# Convention : Reuss Voigt Hill
#
# Bulk Modulus (GPa) = 43.01302 43.74383 43.37842
# Shear Modulus (GPa) = 19.40146 20.62601 20.01373
#
# Velocity S-wave (km/s) = 3.21080 3.31058 3.26107
# Velocity P-wave (km/s) = 6.04990 6.15282 6.10157
#
# Compressibility (1/GPa) = 0.02324878
#
# Stress axis : x y z
#
# Youngs Moduli (GPa) = 45.10507 59.98751 39.83137
#
# Poissons Ratio (x) = 0.00085 0.48373
# Poissons Ratio (y) = 0.00064 0.32623
# Poissons Ratio (z) = 0.54777 0.49132
#
# Static dielectric constant tensor:
#      x y z
#    x 3.524540 0.000000 0.000000 
#    y 0.000000 3.398380 0.000000 
#    z 0.000000 0.000000 3.474190 
# 
# 
# High freq. dielectric constant tensor:
#      x y z
#    x 1.710860 0.000000 0.000000 
#    y 0.000000 1.727700 0.000000 
#    z 0.000000 0.000000 1.718630 
# 
# From -- ./inp_files/35287.got.cif
#   From: 2010.03.12/outbox.cif.g09.slc.cpg/sg63_18_cif.got.tgz:35287.got - 2010.04.10 19:34:48.
