data_PCOD8258940
_publ_section_title
;
Structure prediction by ZEFSAII (Michael W. Deem and Ramdas Pophale) SiO2 
 PCOD8258940
Probable space group: C M C M
;
_chemical_formula_sum "Si O2"
_cell_formula_units_Z 88
_cell_length_a 22.489226
_cell_length_b 23.109735
_cell_length_c 8.616598
_cell_angle_alpha 90.000000
_cell_angle_beta 90.000000
_cell_angle_gamma 90.000000
_cell_volume 4478.218771
_symmetry_space_group_name_H-M "C M C M"
_symmetry_group_IT_number 63
_symmetry_cell_setting 'orthorhombic'
loop_
_space_group_symop_operation_xyz
x,y,z
-x,-y,1/2+z
x,-y,-z
-x,y,1/2-z
-x,-y,-z
x,y,1/2-z
-x,y,z
x,-y,1/2+z
1/2+x,1/2+y,z
1/2-x,1/2-y,1/2+z
1/2+x,1/2-y,-z
1/2-x,1/2+y,1/2-z
1/2-x,1/2-y,-z
1/2+x,1/2+y,1/2-z
1/2-x,1/2+y,z
1/2+x,1/2-y,1/2+z
loop_
_atom_site_type_symbol
_atom_site_label
_atom_site_fract_x
_atom_site_fract_y
_atom_site_fract_z
Si Si1 0.264589 0.438998 0.568121
Si Si2 0.662869 0.141990 0.068834
Si Si3 0.186134 0.232310 0.568705
Si Si4 0.065822 0.558890 0.065810
Si Si5 0.618438 0.377880 0.567483
Si Si6 0.000000 0.065727 0.933852
O O1 0.244040 0.500000 0.500000
O O2 0.256391 0.443026 0.750000
O O3 0.224022 0.386135 0.499471
O O4 0.333149 0.426790 0.525598
O O5 0.667076 0.130040 0.250000
O O6 0.650201 0.208892 0.036697
O O7 0.606211 0.109784 0.997407
O O8 0.192976 0.217278 0.750000
O O9 0.250000 0.250000 0.500000
O O10 0.147368 0.182873 0.486333
O O11 0.065521 0.557065 0.250000
O O12 0.000000 0.568657 0.998587
O O13 0.093299 0.500000 0.000000
O O14 0.605957 0.373586 0.750000
O O15 0.557521 0.396809 0.484373
O O16 0.000000 0.060025 0.750000
O O17 0.000000 0.000000 0.000000
#
# Coordination Sequence:
#
# PCOD8258940 Si02
#       6
#    16  16  16  16  16   8
#     4  10  20  34  54  82 115 150 190 243 303 362
#     4   9  18  34  53  78 113 151 192 240 293 354
#     4  11  21  38  61  86 119 158 202 250 306 373
#     4   9  17  31  52  76 106 144 183 226 279 336
#     4  11  23  42  64  89 124 163 205 258 316 373
#     4  12  26  46  70  98 128 168 213 260 321 386
#
# _framework density 19.650670000000002
#
# number of rings (size 3 to 8) (size 9 to 14) (size 15 to 20)
#    0.000    1.818    1.818    3.000    0.000    2.909 
#    1.636    1.818    0.000    0.000    0.000    0.000 
#    0.000    0.000    0.000    0.000    0.000    0.000 
#
# Total GULP energy -545174.433185 kJ/mol
# GULP energy per Si atom -12390.328027 kJ/mol
# Density = 1.960594 g / cm^3
# Si number density = 19.650670 Si / 1000 Ang^3
#
#
#
# Elastic Constant Matrix: (Units=GPa)
#
#
# Indices 1 2 3 4 5 6 
#
# 1 120.0933 65.9524 39.6600 0.0000 0.0000 0.0000
# 2 65.9524 115.3083 32.1158 0.0000 0.0000 0.0000
# 3 39.6600 32.1158 63.8189 0.0000 0.0000 0.0000
# 4 0.0000 0.0000 0.0000 33.7250 0.0000 0.0000
# 5 0.0000 0.0000 0.0000 0.0000 22.1603 0.0000
# 6 0.0000 0.0000 0.0000 0.0000 0.0000 31.4258
#
#
#
# Elastic Compliance Matrix: (Units=1/GPa)
#
#
# Indices 1 2 3 4 5 6 
#
# 1 0.013493 -0.006260 -0.005235 0.000000 0.000000 0.000000
# 2 -0.006260 0.012990 -0.002647 0.000000 0.000000 0.000000
# 3 -0.005235 -0.002647 0.020255 0.000000 0.000000 0.000000
# 4 0.000000 0.000000 0.000000 0.029652 0.000000 0.000000
# 5 0.000000 0.000000 0.000000 0.000000 0.045126 0.000000
# 6 0.000000 0.000000 0.000000 0.000000 0.000000 0.031821
#
#
# Mechanical properties :
#
#
# Convention : Reuss Voigt Hill
#
# Bulk Modulus (GPa) = 54.18784 63.85299 59.02041
# Shear Modulus (GPa) = 26.62805 28.22838 27.42822
#
# Velocity S-wave (km/s) = 3.68512 3.79424 3.74008
# Velocity P-wave (km/s) = 6.76330 7.19442 6.98219
#
# Compressibility (1/GPa) = 0.01845433
#
# Stress axis : x y z
#
# Youngs Moduli (GPa) = 74.11002 76.98270 49.37085
#
# Poissons Ratio (x) = 0.48188 0.25848
# Poissons Ratio (y) = 0.46390 0.13068
# Poissons Ratio (z) = 0.38800 0.20377
#
# Static dielectric constant tensor:
#      x y z
#    x 4.011110 0.000000 0.000000 
#    y 0.000000 2.571940 0.000000 
#    z 0.000000 0.000000 3.417750 
# 
# 
# High freq. dielectric constant tensor:
#      x y z
#    x 1.771740 0.000000 0.000000 
#    y 0.000000 1.776790 0.000000 
#    z 0.000000 0.000000 1.749240 
# 
# From -- ./inp_files/8148.got.cif
#   From: 2010.03.12/outbox.cif.g09.slc.cpg/sg63_5_cif.got.tgz:8148.got - 2010.04.10 19:34:48.
