data_PCOD8258133
_publ_section_title
;
Structure prediction by ZEFSAII (Michael W. Deem and Ramdas Pophale) SiO2 
 PCOD8258133
Probable space group: C M C M
;
_chemical_formula_sum "Si O2"
_cell_formula_units_Z 80
_cell_length_a 11.730153
_cell_length_b 14.058581
_cell_length_c 23.617638
_cell_angle_alpha 90.000000
_cell_angle_beta 90.000000
_cell_angle_gamma 90.000000
_cell_volume 3894.768294
_symmetry_space_group_name_H-M "C M C M"
_symmetry_group_IT_number 63
_symmetry_cell_setting 'orthorhombic'
loop_
_space_group_symop_operation_xyz
x,y,z
-x,-y,1/2+z
x,-y,-z
-x,y,1/2-z
-x,-y,-z
x,y,1/2-z
-x,y,z
x,-y,1/2+z
1/2+x,1/2+y,z
1/2-x,1/2-y,1/2+z
1/2+x,1/2-y,-z
1/2-x,1/2+y,1/2-z
1/2-x,1/2-y,-z
1/2+x,1/2+y,1/2-z
1/2-x,1/2+y,z
1/2+x,1/2-y,1/2+z
loop_
_atom_site_type_symbol
_atom_site_label
_atom_site_fract_x
_atom_site_fract_y
_atom_site_fract_z
Si Si1 0.626511 0.886961 0.006328
Si Si2 0.000000 0.123279 0.040472
Si Si3 0.729927 0.359698 0.597159
Si Si4 0.866700 0.276568 0.316112
Si Si5 0.000000 0.907524 0.082664
Si Si6 0.756764 0.080862 0.616141
O O1 0.500000 0.847026 0.019019
O O2 0.670977 0.837130 0.948463
O O3 0.709389 0.867678 0.059309
O O4 0.623642 0.000000 0.000000
O O5 0.113203 0.167436 0.066105
O O6 0.000000 0.012673 0.056331
O O7 0.000000 0.153613 0.974637
O O8 0.723174 0.294736 0.653082
O O9 0.747827 0.467636 0.616667
O O10 0.852977 0.259048 0.250000
O O11 0.820798 0.382069 0.331875
O O12 0.000000 0.263455 0.333453
O O13 0.110795 0.887912 0.121290
#
# Coordination Sequence:
#
# PCOD8258133 Si02
#       6
#    16   8  16  16   8  16
#     4   9  17  31  55  90 125 154 184 228 293 362
#     4   9  14  30  57  89 118 149 183 230 292 358
#     4  10  19  36  62  87 119 154 191 239 292 352
#     4  11  25  43  61  83 113 155 209 254 287 338
#     4   9  16  30  57  89 122 149 179 228 300 356
#     4  10  20  36  61  89 121 154 189 238 294 353
#
# _framework density 20.540375999999998
#
# number of rings (size 3 to 8) (size 9 to 14) (size 15 to 20)
#    0.000    2.200    3.000    0.600    0.000    2.400 
#    1.800    0.500    0.000    0.000    0.000    0.000 
#    0.000    0.000    0.000    0.000    0.000    0.000 
#
# Total GULP energy -495658.946069 kJ/mol
# GULP energy per Si atom -12391.473652 kJ/mol
# Density = 2.049362 g / cm^3
# Si number density = 20.540376 Si / 1000 Ang^3
#
#
#
# Elastic Constant Matrix: (Units=GPa)
#
#
# Indices 1 2 3 4 5 6 
#
# 1 132.8150 21.2845 39.6488 0.0000 0.0000 0.0000
# 2 21.2845 21.9069 4.4778 0.0000 0.0000 0.0000
# 3 39.6488 4.4778 70.4012 0.0000 0.0000 0.0000
# 4 0.0000 0.0000 0.0000 26.6885 0.0000 0.0000
# 5 0.0000 0.0000 0.0000 0.0000 32.4801 0.0000
# 6 0.0000 0.0000 0.0000 0.0000 0.0000 28.4258
#
#
#
# Elastic Compliance Matrix: (Units=1/GPa)
#
#
# Indices 1 2 3 4 5 6 
#
# 1 0.010615 -0.009211 -0.005392 0.000000 0.000000 0.000000
# 2 -0.009211 0.054242 0.001738 0.000000 0.000000 0.000000
# 3 -0.005392 0.001738 0.017131 0.000000 0.000000 0.000000
# 4 0.000000 0.000000 0.000000 0.037469 0.000000 0.000000
# 5 0.000000 0.000000 0.000000 0.000000 0.030788 0.000000
# 6 0.000000 0.000000 0.000000 0.000000 0.000000 0.035179
#
#
# Mechanical properties :
#
#
# Convention : Reuss Voigt Hill
#
# Bulk Modulus (GPa) = 17.77591 39.54947 28.66269
# Shear Modulus (GPa) = 21.74770 28.16634 24.95702
#
# Velocity S-wave (km/s) = 3.25742 3.70708 3.48950
# Velocity P-wave (km/s) = 4.77709 6.13348 5.49728
#
# Compressibility (1/GPa) = 0.05625590
#
# Stress axis : x y z
#
# Youngs Moduli (GPa) = 94.20403 18.43581 58.37462
#
# Poissons Ratio (x) = 0.16982 0.31478
# Poissons Ratio (y) = 0.86775 -0.10144
# Poissons Ratio (z) = 0.50799 -0.03204
#
# Static dielectric constant tensor:
#      x y z
#    x 4.022140 0.000000 0.000000 
#    y 0.000000 3.647900 0.000000 
#    z 0.000000 0.000000 3.434570 
# 
# 
# High freq. dielectric constant tensor:
#      x y z
#    x 1.810310 0.000000 0.000000 
#    y 0.000000 1.801530 0.000000 
#    z 0.000000 0.000000 1.767140 
# 
# From -- ./inp_files/61169.got.cif
#   From: 2010.03.12/outbox.cif.g09.slc.cpg/sg63_31_cif.got.tgz:61169.got - 2010.04.10 19:34:48.
