data_PCOD8258264
_publ_section_title
;
Structure prediction by ZEFSAII (Michael W. Deem and Ramdas Pophale) SiO2 
 PCOD8258264
Probable space group: C M C M
;
_chemical_formula_sum "Si O2"
_cell_formula_units_Z 80
_cell_length_a 18.897117
_cell_length_b 32.919965
_cell_length_c 8.941121
_cell_angle_alpha 90.000000
_cell_angle_beta 90.000000
_cell_angle_gamma 90.000000
_cell_volume 5562.203692
_symmetry_space_group_name_H-M "C M C M"
_symmetry_group_IT_number 63
_symmetry_cell_setting 'orthorhombic'
loop_
_space_group_symop_operation_xyz
x,y,z
-x,-y,1/2+z
x,-y,-z
-x,y,1/2-z
-x,-y,-z
x,y,1/2-z
-x,y,z
x,-y,1/2+z
1/2+x,1/2+y,z
1/2-x,1/2-y,1/2+z
1/2+x,1/2-y,-z
1/2-x,1/2+y,1/2-z
1/2-x,1/2-y,-z
1/2+x,1/2+y,1/2-z
1/2-x,1/2+y,z
1/2+x,1/2-y,1/2+z
loop_
_atom_site_type_symbol
_atom_site_label
_atom_site_fract_x
_atom_site_fract_y
_atom_site_fract_z
Si Si1 0.781188 0.189570 0.076785
Si Si2 0.641950 0.236312 0.423605
Si Si3 0.000000 0.165832 0.079034
Si Si4 0.633858 0.373629 0.426928
Si Si5 0.000000 0.737941 0.920257
Si Si6 0.419468 0.540544 0.574782
O O1 0.802236 0.186966 0.250000
O O2 0.699109 0.200481 0.054206
O O3 0.831631 0.223136 0.003878
O O4 0.795343 0.146095 0.997780
O O5 0.630398 0.246481 0.250000
O O6 0.569366 0.220600 0.496754
O O7 0.000000 0.213922 0.070514
O O8 0.000000 0.150431 0.250000
O O9 0.068027 0.150148 0.993585
O O10 0.634006 0.368190 0.250000
O O11 0.628863 0.421114 0.471468
O O12 0.000000 0.722330 0.750000
O O13 0.387906 0.500000 0.500000
O O14 0.418324 0.533716 0.750000
O O15 0.500000 0.548592 0.519539
#
# Coordination Sequence:
#
# PCOD8258264 Si02
#       6
#    16  16   8  16   8  16
#     4  10  20  32  44  63  85 108 142 178 214 256
#     4  10  20  32  46  61  83 112 141 176 217 255
#     4  11  21  29  40  62  84 108 145 184 215 250
#     4  11  20  31  46  62  83 111 143 180 218 257
#     4  11  21  31  45  64  85 108 145 184 214 255
#     4   9  18  31  43  60  83 108 141 176 213 254
#
# _framework density 14.382788
#
# number of rings (size 3 to 8) (size 9 to 14) (size 15 to 20)
#    0.000    1.800    3.000    2.400    0.000    4.800 
#    0.000    0.000    0.000    0.000    0.000    0.000 
#    0.000    0.000    0.000    0.900    0.000   11.800 
#
# Total GULP energy -496022.970825 kJ/mol
# GULP energy per Si atom -12400.574271 kJ/mol
# Density = 1.435005 g / cm^3
# Si number density = 14.382788 Si / 1000 Ang^3
#
#
#
# Elastic Constant Matrix: (Units=GPa)
#
#
# Indices 1 2 3 4 5 6 
#
# 1 83.8982 38.3448 47.2524 0.0000 0.0000 0.0000
# 2 38.3448 90.4624 47.2648 0.0000 0.0000 0.0000
# 3 47.2524 47.2648 96.7289 0.0000 0.0000 0.0000
# 4 0.0000 0.0000 0.0000 23.6004 0.0000 0.0000
# 5 0.0000 0.0000 0.0000 0.0000 20.1588 0.0000
# 6 0.0000 0.0000 0.0000 0.0000 0.0000 3.3358
#
#
#
# Elastic Compliance Matrix: (Units=1/GPa)
#
#
# Indices 1 2 3 4 5 6 
#
# 1 0.017434 -0.003948 -0.006587 0.000000 0.000000 0.000000
# 2 -0.003948 0.015738 -0.005761 0.000000 0.000000 0.000000
# 3 -0.006587 -0.005761 0.016371 0.000000 0.000000 0.000000
# 4 0.000000 0.000000 0.000000 0.042372 0.000000 0.000000
# 5 0.000000 0.000000 0.000000 0.000000 0.049606 0.000000
# 6 0.000000 0.000000 0.000000 0.000000 0.000000 0.299780
#
#
# Mechanical properties :
#
#
# Convention : Reuss Voigt Hill
#
# Bulk Modulus (GPa) = 58.99885 59.64594 59.32240
# Shear Modulus (GPa) = 10.42655 18.63417 14.53036
#
# Velocity S-wave (km/s) = 2.69538 3.60333 3.18191
# Velocity P-wave (km/s) = 7.12715 7.67283 7.40502
#
# Compressibility (1/GPa) = 0.01694948
#
# Stress axis : x y z
#
# Youngs Moduli (GPa) = 57.36043 63.54034 61.08245
#
# Poissons Ratio (x) = 0.25086 0.40237
# Poissons Ratio (y) = 0.22646 0.35193
# Poissons Ratio (z) = 0.37785 0.36609
#
# Static dielectric constant tensor:
#      x y z
#    x 2.771550 0.000000 0.000000 
#    y 0.000000 2.770870 0.000000 
#    z 0.000000 0.000000 2.988300 
# 
# 
# High freq. dielectric constant tensor:
#      x y z
#    x 1.525280 0.000000 0.000000 
#    y 0.000000 1.521770 0.000000 
#    z 0.000000 0.000000 1.569980 
# 
# From -- ./inp_files/8927.got.cif
#   From: 2010.03.12/outbox.cif.g09.slc.cpg/sg63_5_cif.got.tgz:8927.got - 2010.04.10 19:34:48.
