data_PCOD8258783
_publ_section_title
;
Structure prediction by ZEFSAII (Michael W. Deem and Ramdas Pophale) SiO2 
 PCOD8258783
Probable space group: C M C M
;
_chemical_formula_sum "Si O2"
_cell_formula_units_Z 104
_cell_length_a 21.259500
_cell_length_b 26.767433
_cell_length_c 8.933633
_cell_angle_alpha 90.000000
_cell_angle_beta 90.000000
_cell_angle_gamma 90.000000
_cell_volume 5083.793223
_symmetry_space_group_name_H-M "C M C M"
_symmetry_group_IT_number 63
_symmetry_cell_setting 'orthorhombic'
loop_
_space_group_symop_operation_xyz
x,y,z
-x,-y,1/2+z
x,-y,-z
-x,y,1/2-z
-x,-y,-z
x,y,1/2-z
-x,y,z
x,-y,1/2+z
1/2+x,1/2+y,z
1/2-x,1/2-y,1/2+z
1/2+x,1/2-y,-z
1/2-x,1/2+y,1/2-z
1/2-x,1/2-y,-z
1/2+x,1/2+y,1/2-z
1/2-x,1/2+y,z
1/2+x,1/2-y,1/2+z
loop_
_atom_site_type_symbol
_atom_site_label
_atom_site_fract_x
_atom_site_fract_y
_atom_site_fract_z
Si Si1 0.000000 0.447453 0.925420
Si Si2 0.926872 0.270285 0.572746
Si Si3 0.570525 0.450130 0.425622
Si Si4 0.322576 0.619395 0.580266
Si Si5 0.308143 0.720053 0.072467
Si Si6 0.114121 0.380693 0.925837
Si Si7 0.790711 0.552277 0.581259
O O1 0.060389 0.417892 0.979989
O O2 0.000000 0.454038 0.750000
O O3 0.000000 0.500000 0.000000
O O4 0.920494 0.262601 0.750000
O O5 0.877321 0.234410 0.489973
O O6 0.906362 0.325667 0.524228
O O7 0.000000 0.260375 0.524634
O O8 0.598831 0.500000 0.500000
O O9 0.573450 0.458887 0.250000
O O10 0.500000 0.440667 0.483922
O O11 0.608865 0.400205 0.469410
O O12 0.322427 0.641037 0.750000
O O13 0.298605 0.661918 0.467395
O O14 0.281521 0.568669 0.573061
O O15 0.305712 0.727993 0.250000
O O16 0.250000 0.750000 0.000000
O O17 0.126157 0.382410 0.750000
O O18 0.175688 0.399566 0.009352
O O19 0.803541 0.500000 0.500000
O O20 0.814504 0.544754 0.750000
#
# Coordination Sequence:
#
# PCOD8258783 Si02
#       7
#     8  16  16  16  16  16  16
#     4  10  20  34  52  78 110 144 186 232 277 332
#     4  10  21  41  68  94 123 163 206 254 314 373
#     4   9  18  34  58  87 119 156 195 236 288 352
#     4  10  22  40  60  85 118 154 197 248 302 363
#     4  12  26  43  64  91 123 160 206 260 316 373
#     4  10  20  37  59  83 114 151 195 240 289 349
#     4  11  23  37  56  84 118 156 198 245 298 355
#
# _framework density 20.457163999999999
#
# number of rings (size 3 to 8) (size 9 to 14) (size 15 to 20)
#    0.000    1.692    0.769    3.692    0.000    7.692 
#    0.000    1.538    0.000    0.000    0.000    0.000 
#    0.000    0.000    0.000    0.000    0.000    0.000 
#
# Total GULP energy -644717.726284 kJ/mol
# GULP energy per Si atom -12398.417813 kJ/mol
# Density = 2.041060 g / cm^3
# Si number density = 20.457164 Si / 1000 Ang^3
#
#
#
# Elastic Constant Matrix: (Units=GPa)
#
#
# Indices 1 2 3 4 5 6 
#
# 1 102.9191 34.6941 39.7860 0.0000 0.0000 0.0000
# 2 34.6941 90.7517 38.0493 0.0000 0.0000 0.0000
# 3 39.7860 38.0493 71.1273 0.0000 0.0000 0.0000
# 4 0.0000 0.0000 0.0000 35.2343 0.0000 0.0000
# 5 0.0000 0.0000 0.0000 0.0000 27.6732 0.0000
# 6 0.0000 0.0000 0.0000 0.0000 0.0000 36.8482
#
#
#
# Elastic Compliance Matrix: (Units=1/GPa)
#
#
# Indices 1 2 3 4 5 6 
#
# 1 0.012803 -0.002439 -0.005857 0.000000 0.000000 0.000000
# 2 -0.002439 0.014670 -0.006483 0.000000 0.000000 0.000000
# 3 -0.005857 -0.006483 0.020804 0.000000 0.000000 0.000000
# 4 0.000000 0.000000 0.000000 0.028381 0.000000 0.000000
# 5 0.000000 0.000000 0.000000 0.000000 0.036136 0.000000
# 6 0.000000 0.000000 0.000000 0.000000 0.000000 0.027138
#
#
# Mechanical properties :
#
#
# Convention : Reuss Voigt Hill
#
# Bulk Modulus (GPa) = 53.42400 54.42855 53.92627
# Shear Modulus (GPa) = 28.45298 30.10239 29.27768
#
# Velocity S-wave (km/s) = 3.73346 3.84015 3.78719
# Velocity P-wave (km/s) = 6.69005 6.80634 6.74844
#
# Compressibility (1/GPa) = 0.01871818
#
# Stress axis : x y z
#
# Youngs Moduli (GPa) = 78.10950 68.16771 48.06880
#
# Poissons Ratio (x) = 0.16625 0.28152
# Poissons Ratio (y) = 0.19050 0.31164
# Poissons Ratio (z) = 0.45746 0.44195
#
# Static dielectric constant tensor:
#      x y z
#    x 4.025870 0.000000 0.000000 
#    y 0.000000 3.680990 0.000000 
#    z 0.000000 0.000000 3.709470 
# 
# 
# High freq. dielectric constant tensor:
#      x y z
#    x 1.814720 0.000000 0.000000 
#    y 0.000000 1.802710 0.000000 
#    z 0.000000 0.000000 1.786670 
# 
# From -- ./inp_files/8755.got.cif
#   From: 2010.03.12/outbox.cif.g09.slc.cpg/sg63_5_cif.got.tgz:8755.got - 2010.04.10 19:34:48.
