data_PCOD8258817
_publ_section_title
;
Structure prediction by ZEFSAII (Michael W. Deem and Ramdas Pophale) SiO2 
 PCOD8258817
Probable space group: C M C M
;
_chemical_formula_sum "Si O2"
_cell_formula_units_Z 88
_cell_length_a 21.995155
_cell_length_b 22.337009
_cell_length_c 9.672983
_cell_angle_alpha 90.000000
_cell_angle_beta 90.000000
_cell_angle_gamma 90.000000
_cell_volume 4752.394346
_symmetry_space_group_name_H-M "C M C M"
_symmetry_group_IT_number 63
_symmetry_cell_setting 'orthorhombic'
loop_
_space_group_symop_operation_xyz
x,y,z
-x,-y,1/2+z
x,-y,-z
-x,y,1/2-z
-x,-y,-z
x,y,1/2-z
-x,y,z
x,-y,1/2+z
1/2+x,1/2+y,z
1/2-x,1/2-y,1/2+z
1/2+x,1/2-y,-z
1/2-x,1/2+y,1/2-z
1/2-x,1/2-y,-z
1/2+x,1/2+y,1/2-z
1/2-x,1/2+y,z
1/2+x,1/2-y,1/2+z
loop_
_atom_site_type_symbol
_atom_site_label
_atom_site_fract_x
_atom_site_fract_y
_atom_site_fract_z
Si Si1 0.173070 0.211406 0.594119
Si Si2 0.430715 0.316289 0.590613
Si Si3 0.500000 0.056698 0.093615
Si Si4 0.633067 0.939536 0.588624
Si Si5 0.768943 0.341175 0.905415
Si Si6 0.929176 0.951614 0.899937
O O1 0.162031 0.187848 0.750000
O O2 0.110155 0.222284 0.512576
O O3 0.203120 0.275667 0.598008
O O4 0.212691 0.161330 0.512033
O O5 0.411125 0.307008 0.750000
O O6 0.500000 0.295983 0.570701
O O7 0.421162 0.384831 0.543495
O O8 0.500000 0.033705 0.250000
O O9 0.435084 0.089822 0.064850
O O10 0.500000 0.000000 0.000000
O O11 0.641895 0.955626 0.750000
O O12 0.682055 0.889884 0.541651
O O13 0.642357 0.000000 0.500000
O O14 0.746363 0.357578 0.750000
O O15 0.897914 0.957787 0.750000
O O16 0.000000 0.966506 0.884867
O O17 0.897318 0.000000 0.000000
#
# Coordination Sequence:
#
# PCOD8258817 Si02
#       6
#    16  16   8  16  16  16
#     4  10  20  34  53  76  98 129 174 216 253 295
#     4   9  18  33  51  71 100 134 163 200 255 308
#     4   8  14  26  46  72 102 134 162 194 241 300
#     4   9  17  31  52  78 106 136 169 206 254 307
#     4   9  19  36  54  73  99 135 171 206 254 306
#     4   8  14  25  42  64  89 120 155 189 232 286
#
# _framework density 18.516981999999999
#
# number of rings (size 3 to 8) (size 9 to 14) (size 15 to 20)
#    0.000    3.091    0.000    1.636    0.000    2.545 
#    1.636    2.727    0.000    0.000    0.000    0.000 
#    0.000    0.000    0.000    0.000    0.000    0.000 
#
# Total GULP energy -545088.368124 kJ/mol
# GULP energy per Si atom -12388.372003 kJ/mol
# Density = 1.847484 g / cm^3
# Si number density = 18.516982 Si / 1000 Ang^3
#
#
#
# Elastic Constant Matrix: (Units=GPa)
#
#
# Indices 1 2 3 4 5 6 
#
# 1 94.6234 21.4810 53.7499 0.0000 0.0000 0.0000
# 2 21.4810 26.6048 16.9499 0.0000 0.0000 0.0000
# 3 53.7499 16.9499 95.2561 0.0000 0.0000 0.0000
# 4 0.0000 0.0000 0.0000 26.3875 0.0000 0.0000
# 5 0.0000 0.0000 0.0000 0.0000 24.7090 0.0000
# 6 0.0000 0.0000 0.0000 0.0000 0.0000 17.1744
#
#
#
# Elastic Compliance Matrix: (Units=1/GPa)
#
#
# Indices 1 2 3 4 5 6 
#
# 1 0.017160 -0.008669 -0.008140 0.000000 0.000000 0.000000
# 2 -0.008669 0.046773 -0.003431 0.000000 0.000000 0.000000
# 3 -0.008140 -0.003431 0.015702 0.000000 0.000000 0.000000
# 4 0.000000 0.000000 0.000000 0.037897 0.000000 0.000000
# 5 0.000000 0.000000 0.000000 0.000000 0.040471 0.000000
# 6 0.000000 0.000000 0.000000 0.000000 0.000000 0.058226
#
#
# Mechanical properties :
#
#
# Convention : Reuss Voigt Hill
#
# Bulk Modulus (GPa) = 25.54037 44.53845 35.03941
# Shear Modulus (GPa) = 18.53490 21.94109 20.23800
#
# Velocity S-wave (km/s) = 3.16724 3.44600 3.30955
# Velocity P-wave (km/s) = 5.21518 6.31967 5.79380
#
# Compressibility (1/GPa) = 0.03915370
#
# Stress axis : x y z
#
# Youngs Moduli (GPa) = 58.27382 21.37998 63.68650
#
# Poissons Ratio (x) = 0.18535 0.51844
# Poissons Ratio (y) = 0.50519 0.21851
# Poissons Ratio (z) = 0.47437 0.07335
#
# Static dielectric constant tensor:
#      x y z
#    x 3.569970 0.000000 0.000000 
#    y 0.000000 3.351680 0.000000 
#    z 0.000000 0.000000 3.956410 
# 
# 
# High freq. dielectric constant tensor:
#      x y z
#    x 1.712230 0.000000 0.000000 
#    y 0.000000 1.685210 0.000000 
#    z 0.000000 0.000000 1.723340 
# 
# From -- ./inp_files/8235.got.cif
#   From: 2010.03.12/outbox.cif.g09.slc.cpg/sg63_5_cif.got.tgz:8235.got - 2010.04.10 19:34:48.
