data_PCOD8258044
_publ_section_title
;
Structure prediction by ZEFSAII (Michael W. Deem and Ramdas Pophale) SiO2 
 PCOD8258044
Probable space group: C M C M
;
_chemical_formula_sum "Si O2"
_cell_formula_units_Z 80
_cell_length_a 27.968029
_cell_length_b 7.603101
_cell_length_c 18.232816
_cell_angle_alpha 90.000000
_cell_angle_beta 90.000000
_cell_angle_gamma 90.000000
_cell_volume 3877.094354
_symmetry_space_group_name_H-M "C M C M"
_symmetry_group_IT_number 63
_symmetry_cell_setting 'orthorhombic'
loop_
_space_group_symop_operation_xyz
x,y,z
-x,-y,1/2+z
x,-y,-z
-x,y,1/2-z
-x,-y,-z
x,y,1/2-z
-x,y,z
x,-y,1/2+z
1/2+x,1/2+y,z
1/2-x,1/2-y,1/2+z
1/2+x,1/2-y,-z
1/2-x,1/2+y,1/2-z
1/2-x,1/2-y,-z
1/2+x,1/2+y,1/2-z
1/2-x,1/2+y,z
1/2+x,1/2-y,1/2+z
loop_
_atom_site_type_symbol
_atom_site_label
_atom_site_fract_x
_atom_site_fract_y
_atom_site_fract_z
Si Si1 0.555337 0.415482 0.424192
Si Si2 0.389654 0.054248 0.416404
Si Si3 0.299682 0.824381 0.664656
Si Si4 0.803403 0.918458 0.665574
Si Si5 0.096890 0.780765 0.836897
O O1 0.574107 0.500000 0.500000
O O2 0.500000 0.364624 0.430013
O O3 0.583652 0.238218 0.405937
O O4 0.562787 0.558680 0.360271
O O5 0.337279 0.060589 0.380205
O O6 0.384581 0.000000 0.500000
O O7 0.419655 0.902097 0.374156
O O8 0.302103 0.882482 0.750000
O O9 0.246965 0.859187 0.630268
O O10 0.312984 0.622867 0.653891
O O11 0.799767 0.866985 0.750000
O O12 0.849243 0.818522 0.632728
O O13 0.094112 0.763890 0.750000
#
# Coordination Sequence:
#
# PCOD8258044 Si02
#       5
#    16  16  16  16  16
#     4  11  25  47  71  93 125 172 219 268 334 402
#     4  12  24  40  65  98 131 173 218 268 327 394
#     4  10  19  35  59  90 128 172 220 265 315 384
#     4   9  18  34  60  90 128 174 216 261 321 385
#     4  11  23  42  68  99 133 169 218 277 324 381
#
# _framework density 20.63401
#
# number of rings (size 3 to 8) (size 9 to 14) (size 15 to 20)
#    0.000    1.400    4.000    1.800    0.000    5.600 
#    0.000    5.000    0.000    0.000    0.000    0.000 
#    0.000    0.000    0.000    0.000    0.000    0.000 
#
# Total GULP energy -496046.378329 kJ/mol
# GULP energy per Si atom -12401.159458 kJ/mol
# Density = 2.058705 g / cm^3
# Si number density = 20.634010 Si / 1000 Ang^3
#
#
#
# Elastic Constant Matrix: (Units=GPa)
#
#
# Indices 1 2 3 4 5 6 
#
# 1 62.4680 23.4923 19.1675 0.0000 0.0000 0.0000
# 2 23.4923 112.0320 40.9632 0.0000 0.0000 0.0000
# 3 19.1675 40.9632 98.1116 0.0000 0.0000 0.0000
# 4 0.0000 0.0000 0.0000 30.8235 0.0000 0.0000
# 5 0.0000 0.0000 0.0000 0.0000 24.9329 0.0000
# 6 0.0000 0.0000 0.0000 0.0000 0.0000 23.8911
#
#
#
# Elastic Compliance Matrix: (Units=1/GPa)
#
#
# Indices 1 2 3 4 5 6 
#
# 1 0.017795 -0.002904 -0.002264 0.000000 0.000000 0.000000
# 2 -0.002904 0.011008 -0.004029 0.000000 0.000000 0.000000
# 3 -0.002264 -0.004029 0.012317 0.000000 0.000000 0.000000
# 4 0.000000 0.000000 0.000000 0.032443 0.000000 0.000000
# 5 0.000000 0.000000 0.000000 0.000000 0.040108 0.000000
# 6 0.000000 0.000000 0.000000 0.000000 0.000000 0.041857
#
#
# Mechanical properties :
#
#
# Convention : Reuss Voigt Hill
#
# Bulk Modulus (GPa) = 44.00116 48.87308 46.43712
# Shear Modulus (GPa) = 27.54892 28.52874 28.03883
#
# Velocity S-wave (km/s) = 3.65790 3.72238 3.69028
# Velocity P-wave (km/s) = 6.26188 6.49707 6.38056
#
# Compressibility (1/GPa) = 0.02272667
#
# Stress axis : x y z
#
# Youngs Moduli (GPa) = 56.19592 90.84342 81.18932
#
# Poissons Ratio (x) = 0.26377 0.18383
# Poissons Ratio (y) = 0.16317 0.32709
# Poissons Ratio (z) = 0.12724 0.36599
#
# Static dielectric constant tensor:
#      x y z
#    x 3.766300 0.000000 0.000000 
#    y 0.000000 3.879140 0.000000 
#    z 0.000000 0.000000 3.509700 
# 
# 
# High freq. dielectric constant tensor:
#      x y z
#    x 1.802460 0.000000 0.000000 
#    y 0.000000 1.827550 0.000000 
#    z 0.000000 0.000000 1.782470 
# 
# From -- ./inp_files/48734.got.cif
#   From: 2010.03.12/outbox.cif.g09.slc.cpg/sg63_25_cif.got.tgz:48734.got - 2010.04.10 19:34:48.
