data_PCOD8258356
_publ_section_title
;
Structure prediction by ZEFSAII (Michael W. Deem and Ramdas Pophale) SiO2 
 PCOD8258356
Probable space group: C M C M
;
_chemical_formula_sum "Si O2"
_cell_formula_units_Z 96
_cell_length_a 8.663394
_cell_length_b 27.194886
_cell_length_c 23.470301
_cell_angle_alpha 90.000000
_cell_angle_beta 90.000000
_cell_angle_gamma 90.000000
_cell_volume 5529.603202
_symmetry_space_group_name_H-M "C M C M"
_symmetry_group_IT_number 63
_symmetry_cell_setting 'orthorhombic'
loop_
_space_group_symop_operation_xyz
x,y,z
-x,-y,1/2+z
x,-y,-z
-x,y,1/2-z
-x,-y,-z
x,y,1/2-z
-x,y,z
x,-y,1/2+z
1/2+x,1/2+y,z
1/2-x,1/2-y,1/2+z
1/2+x,1/2-y,-z
1/2-x,1/2+y,1/2-z
1/2-x,1/2-y,-z
1/2+x,1/2+y,1/2-z
1/2-x,1/2+y,z
1/2+x,1/2-y,1/2+z
loop_
_atom_site_type_symbol
_atom_site_label
_atom_site_fract_x
_atom_site_fract_y
_atom_site_fract_z
Si Si1 0.679191 0.325014 0.973978
Si Si2 0.319453 0.071659 0.019010
Si Si3 0.680040 0.484394 0.082548
Si Si4 0.678911 0.735940 0.916075
Si Si5 0.178175 0.432547 0.315098
Si Si6 0.821707 0.680190 0.684813
O O1 0.500000 0.338058 0.969064
O O2 0.777918 0.373528 0.962135
O O3 0.722836 0.285195 0.926053
O O4 0.722920 0.304353 0.036305
O O5 0.500000 0.066887 0.007380
O O6 0.271058 0.034539 0.069220
O O7 0.230013 0.058434 0.960971
O O8 0.500000 0.494736 0.075892
O O9 0.717043 0.467590 0.146435
O O10 0.500000 0.749814 0.919989
O O11 0.717146 0.714704 0.854209
O O12 0.205398 0.448403 0.250000
O O13 0.228760 0.376172 0.324009
O O14 0.000000 0.439074 0.332181
O O15 0.794138 0.696046 0.750000
O O16 0.000000 0.686829 0.667903
#
# Coordination Sequence:
#
# PCOD8258356 Si02
#       6
#    16  16  16  16  16  16
#     4  10  20  34  51  73 101 130 162 202 246 292
#     4  11  21  34  52  73  99 131 167 204 246 294
#     4  11  21  33  50  74 103 132 165 203 246 294
#     4  10  20  32  49  74 101 131 164 199 242 291
#     4   9  18  33  52  74 101 133 168 204 244 291
#     4   9  18  32  50  72  99 132 166 201 243 288
#
# _framework density 17.361101000000001
#
# number of rings (size 3 to 8) (size 9 to 14) (size 15 to 20)
#    0.000    2.000    0.000    7.000    0.000    6.000 
#    0.000    1.667    0.000    1.000    0.000    0.000 
#    0.000    0.000    0.000    0.000    0.000    0.000 
#
# Total GULP energy -595414.573264 kJ/mol
# GULP energy per Si atom -12404.470276 kJ/mol
# Density = 1.732159 g / cm^3
# Si number density = 17.361101 Si / 1000 Ang^3
#
#
#
# Elastic Constant Matrix: (Units=GPa)
#
#
# Indices 1 2 3 4 5 6 
#
# 1 69.0303 27.1535 23.0728 0.0000 0.0000 0.0000
# 2 27.1535 90.9906 38.4366 0.0000 0.0000 0.0000
# 3 23.0728 38.4366 86.1427 0.0000 0.0000 0.0000
# 4 0.0000 0.0000 0.0000 25.5552 0.0000 0.0000
# 5 0.0000 0.0000 0.0000 0.0000 28.7642 0.0000
# 6 0.0000 0.0000 0.0000 0.0000 0.0000 30.2477
#
#
#
# Elastic Compliance Matrix: (Units=1/GPa)
#
#
# Indices 1 2 3 4 5 6 
#
# 1 0.016949 -0.003870 -0.002813 0.000000 0.000000 0.000000
# 2 -0.003870 0.014426 -0.005400 0.000000 0.000000 0.000000
# 3 -0.002813 -0.005400 0.014772 0.000000 0.000000 0.000000
# 4 0.000000 0.000000 0.000000 0.039131 0.000000 0.000000
# 5 0.000000 0.000000 0.000000 0.000000 0.034765 0.000000
# 6 0.000000 0.000000 0.000000 0.000000 0.000000 0.033060
#
#
# Mechanical properties :
#
#
# Convention : Reuss Voigt Hill
#
# Bulk Modulus (GPa) = 45.49478 47.05440 46.27459
# Shear Modulus (GPa) = 27.08611 27.41347 27.24979
#
# Velocity S-wave (km/s) = 3.95417 3.97800 3.96610
# Velocity P-wave (km/s) = 6.86361 6.94705 6.90546
#
# Compressibility (1/GPa) = 0.02198054
#
# Stress axis : x y z
#
# Youngs Moduli (GPa) = 59.00142 69.31832 67.69666
#
# Poissons Ratio (x) = 0.26823 0.19043
# Poissons Ratio (y) = 0.22831 0.36559
# Poissons Ratio (z) = 0.16597 0.37435
#
# Static dielectric constant tensor:
#      x y z
#    x 3.224170 0.000000 0.000000 
#    y 0.000000 3.110940 0.000000 
#    z 0.000000 0.000000 3.096090 
# 
# 
# High freq. dielectric constant tensor:
#      x y z
#    x 1.680040 0.000000 0.000000 
#    y 0.000000 1.660540 0.000000 
#    z 0.000000 0.000000 1.657060 
# 
# From -- ./inp_files/51428.got.cif
#   From: 2010.03.12/outbox.cif.g09.slc.cpg/sg63_26_cif.got.tgz:51428.got - 2010.04.10 19:34:48.
