data_PCOD8258392
_publ_section_title
;
Structure prediction by ZEFSAII (Michael W. Deem and Ramdas Pophale) SiO2 
 PCOD8258392
Probable space group: C M C M
;
_chemical_formula_sum "Si O2"
_cell_formula_units_Z 112
_cell_length_a 13.825232
_cell_length_b 29.524186
_cell_length_c 14.473559
_cell_angle_alpha 90.000000
_cell_angle_beta 90.000000
_cell_angle_gamma 90.000000
_cell_volume 5907.798802
_symmetry_space_group_name_H-M "C M C M"
_symmetry_group_IT_number 63
_symmetry_cell_setting 'orthorhombic'
loop_
_space_group_symop_operation_xyz
x,y,z
-x,-y,1/2+z
x,-y,-z
-x,y,1/2-z
-x,-y,-z
x,y,1/2-z
-x,y,z
x,-y,1/2+z
1/2+x,1/2+y,z
1/2-x,1/2-y,1/2+z
1/2+x,1/2-y,-z
1/2-x,1/2+y,1/2-z
1/2-x,1/2-y,-z
1/2+x,1/2+y,1/2-z
1/2-x,1/2+y,z
1/2+x,1/2-y,1/2+z
loop_
_atom_site_type_symbol
_atom_site_label
_atom_site_fract_x
_atom_site_fract_y
_atom_site_fract_z
Si Si1 0.393222 0.242800 0.143482
Si Si2 0.696875 0.782102 0.143083
Si Si3 0.390008 0.468757 0.856495
Si Si4 0.610839 0.840843 0.510959
Si Si5 0.792645 0.893426 0.968894
Si Si6 0.886030 0.813987 0.645254
Si Si7 0.112434 0.073928 0.645643
O O1 0.385544 0.228292 0.250000
O O2 0.500000 0.262690 0.119945
O O3 0.312531 0.280942 0.121891
O O4 0.373031 0.197184 0.087852
O O5 0.673987 0.790953 0.250000
O O6 0.654814 0.733888 0.110248
O O7 0.645198 0.821783 0.087589
O O8 0.377636 0.454996 0.750000
O O9 0.500000 0.458059 0.888346
O O10 0.315366 0.440247 0.917340
O O11 0.366290 0.521133 0.871879
O O12 0.500000 0.857059 0.505608
O O13 0.677574 0.883990 0.535842
O O14 0.849827 0.852795 0.921817
O O15 0.824617 0.896327 0.075777
O O16 0.850998 0.823827 0.750000
O O17 0.000000 0.811649 0.639907
O O18 0.142285 0.087371 0.750000
O O19 0.000000 0.084067 0.629481
#
# Coordination Sequence:
#
# PCOD8258392 Si02
#       7
#    16  16  16  16  16  16  16
#     4   9  18  34  55  76 100 132 173 222 273 323
#     4  10  20  38  58  74  99 142 188 228 271 315
#     4   9  18  34  58  87 115 140 169 207 257 323
#     4  11  24  38  53  74 104 143 187 227 267 316
#     4  12  21  31  54  80 110 140 177 217 271 317
#     4  10  20  32  50  80 111 136 173 227 274 310
#     4   9  19  36  56  81 114 147 174 203 252 325
#
# _framework density 18.957991
#
# number of rings (size 3 to 8) (size 9 to 14) (size 15 to 20)
#    0.000    2.000    1.429    3.857    0.000    4.286 
#    0.000    1.429    0.000    3.429    0.000    2.000 
#    0.000    0.000    0.000    0.000    0.000    0.000 
#
# Total GULP energy -694465.459740 kJ/mol
# GULP energy per Si atom -12401.168924 kJ/mol
# Density = 1.891484 g / cm^3
# Si number density = 18.957991 Si / 1000 Ang^3
#
#
#
# Elastic Constant Matrix: (Units=GPa)
#
#
# Indices 1 2 3 4 5 6 
#
# 1 104.8026 25.8355 37.0313 0.0000 0.0000 0.0000
# 2 25.8355 33.0704 25.7632 0.0000 0.0000 0.0000
# 3 37.0313 25.7632 78.5203 0.0000 0.0000 0.0000
# 4 0.0000 0.0000 0.0000 30.8167 0.0000 0.0000
# 5 0.0000 0.0000 0.0000 0.0000 23.5540 0.0000
# 6 0.0000 0.0000 0.0000 0.0000 0.0000 29.4204
#
#
#
# Elastic Compliance Matrix: (Units=1/GPa)
#
#
# Indices 1 2 3 4 5 6 
#
# 1 0.012542 -0.006972 -0.003627 0.000000 0.000000 0.000000
# 2 -0.006972 0.044498 -0.011312 0.000000 0.000000 0.000000
# 3 -0.003627 -0.011312 0.018158 0.000000 0.000000 0.000000
# 4 0.000000 0.000000 0.000000 0.032450 0.000000 0.000000
# 5 0.000000 0.000000 0.000000 0.000000 0.042456 0.000000
# 6 0.000000 0.000000 0.000000 0.000000 0.000000 0.033990
#
#
# Mechanical properties :
#
#
# Convention : Reuss Voigt Hill
#
# Bulk Modulus (GPa) = 31.87288 43.73926 37.80607
# Shear Modulus (GPa) = 20.97530 25.27577 23.12554
#
# Velocity S-wave (km/s) = 3.32988 3.65533 3.49640
# Velocity P-wave (km/s) = 5.62432 6.39821 6.02371
#
# Compressibility (1/GPa) = 0.03137463
#
# Stress axis : x y z
#
# Youngs Moduli (GPa) = 79.73024 22.47288 55.07267
#
# Poissons Ratio (x) = 0.15669 0.19977
# Poissons Ratio (y) = 0.55592 0.62298
# Poissons Ratio (z) = 0.28921 0.25421
#
# Static dielectric constant tensor:
#      x y z
#    x 3.625960 0.000000 0.000000 
#    y 0.000000 3.247920 0.000000 
#    z 0.000000 0.000000 3.770300 
# 
# 
# High freq. dielectric constant tensor:
#      x y z
#    x 1.725710 0.000000 0.000000 
#    y 0.000000 1.707060 0.000000 
#    z 0.000000 0.000000 1.756510 
# 
# From -- ./inp_files/32754.got.cif
#   From: 2010.03.12/outbox.cif.g09.slc.cpg/sg63_17_cif.got.tgz:32754.got - 2010.04.10 19:34:48.
