data_PCOD8258231
_publ_section_title
;
Structure prediction by ZEFSAII (Michael W. Deem and Ramdas Pophale) SiO2 
 PCOD8258231
Probable space group: C M C M
;
_chemical_formula_sum "Si O2"
_cell_formula_units_Z 96
_cell_length_a 9.274885
_cell_length_b 24.817735
_cell_length_c 24.767734
_cell_angle_alpha 90.000000
_cell_angle_beta 90.000000
_cell_angle_gamma 90.000000
_cell_volume 5701.077584
_symmetry_space_group_name_H-M "C M C M"
_symmetry_group_IT_number 63
_symmetry_cell_setting 'orthorhombic'
loop_
_space_group_symop_operation_xyz
x,y,z
-x,-y,1/2+z
x,-y,-z
-x,y,1/2-z
-x,-y,-z
x,y,1/2-z
-x,y,z
x,-y,1/2+z
1/2+x,1/2+y,z
1/2-x,1/2-y,1/2+z
1/2+x,1/2-y,-z
1/2-x,1/2+y,1/2-z
1/2-x,1/2-y,-z
1/2+x,1/2+y,1/2-z
1/2-x,1/2+y,z
1/2+x,1/2-y,1/2+z
loop_
_atom_site_type_symbol
_atom_site_label
_atom_site_fract_x
_atom_site_fract_y
_atom_site_fract_z
Si Si1 0.332279 0.112761 0.187186
Si Si2 0.662567 0.692151 0.114948
Si Si3 0.667226 0.305505 0.004386
Si Si4 0.168485 0.681590 0.605425
Si Si5 0.840576 0.010890 0.185900
Si Si6 0.832590 0.109175 0.686884
O O1 0.295282 0.120584 0.250000
O O2 0.500000 0.109918 0.176225
O O3 0.270351 0.163659 0.155722
O O4 0.266408 0.056942 0.164365
O O5 0.500000 0.682921 0.135696
O O6 0.698792 0.755411 0.114700
O O7 0.679795 0.666796 0.054631
O O8 0.500000 0.295776 0.019344
O O9 0.745700 0.339257 0.051895
O O10 0.750000 0.250000 0.000000
O O11 0.228448 0.650283 0.656822
O O12 0.000000 0.669637 0.597575
O O13 0.843914 0.010403 0.250000
O O14 0.000000 0.024153 0.163464
O O15 0.792532 0.951328 0.166870
O O16 0.801313 0.116035 0.750000
O O17 0.000000 0.121445 0.674241
#
# Coordination Sequence:
#
# PCOD8258231 Si02
#       6
#    16  16  16  16  16  16
#     4  10  20  31  46  71  98 124 156 194 236 278
#     4   9  19  33  48  68  94 126 160 191 230 281
#     4   9  17  31  50  70  92 121 160 200 236 279
#     4  10  20  32  48  72  99 128 160 194 237 284
#     4   8  15  30  50  68  89 122 161 195 230 278
#     4   9  18  32  50  72  97 127 161 195 235 282
#
# _framework density 16.838922
#
# number of rings (size 3 to 8) (size 9 to 14) (size 15 to 20)
#    0.000    2.833    0.000    3.500    0.000    6.667 
#    0.000    5.000    0.000    1.000    0.000    7.000 
#    0.000    0.000    0.000    0.000    0.000    0.000 
#
# Total GULP energy -594954.572960 kJ/mol
# GULP energy per Si atom -12394.886937 kJ/mol
# Density = 1.680060 g / cm^3
# Si number density = 16.838922 Si / 1000 Ang^3
#
#
#
# Elastic Constant Matrix: (Units=GPa)
#
#
# Indices 1 2 3 4 5 6 
#
# 1 120.1509 56.8292 63.2932 0.0000 0.0000 0.0000
# 2 56.8292 76.1130 45.9590 0.0000 0.0000 0.0000
# 3 63.2932 45.9590 70.4502 0.0000 0.0000 0.0000
# 4 0.0000 0.0000 0.0000 1.4114 0.0000 0.0000
# 5 0.0000 0.0000 0.0000 0.0000 31.3118 0.0000
# 6 0.0000 0.0000 0.0000 0.0000 0.0000 29.4669
#
#
#
# Elastic Compliance Matrix: (Units=1/GPa)
#
#
# Indices 1 2 3 4 5 6 
#
# 1 0.017226 -0.005802 -0.011690 0.000000 0.000000 0.000000
# 2 -0.005802 0.023632 -0.010204 0.000000 0.000000 0.000000
# 3 -0.011690 -0.010204 0.031354 0.000000 0.000000 0.000000
# 4 0.000000 0.000000 0.000000 0.708493 0.000000 0.000000
# 5 0.000000 0.000000 0.000000 0.000000 0.031937 0.000000
# 6 0.000000 0.000000 0.000000 0.000000 0.000000 0.033936
#
#
# Mechanical properties :
#
#
# Convention : Reuss Voigt Hill
#
# Bulk Modulus (GPa) = 59.45897 66.54189 63.00043
# Shear Modulus (GPa) = 5.50918 19.14689 12.32803
#
# Velocity S-wave (km/s) = 1.81074 3.37569 2.70870
# Velocity P-wave (km/s) = 6.30546 7.40245 6.87587
#
# Compressibility (1/GPa) = 0.01681832
#
# Stress axis : x y z
#
# Youngs Moduli (GPa) = 58.05340 42.31576 31.89428
#
# Poissons Ratio (x) = 0.24553 0.37285
# Poissons Ratio (y) = 0.33685 0.32544
# Poissons Ratio (z) = 0.67866 0.43177
#
# Static dielectric constant tensor:
#      x y z
#    x 3.292180 0.000000 0.000000 
#    y 0.000000 3.092610 0.000000 
#    z 0.000000 0.000000 3.327670 
# 
# 
# High freq. dielectric constant tensor:
#      x y z
#    x 1.659730 0.000000 0.000000 
#    y 0.000000 1.628120 0.000000 
#    z 0.000000 0.000000 1.634130 
# 
# From -- ./inp_files/59883.got.cif
#   From: 2010.03.12/outbox.cif.g09.slc.cpg/sg63_30_cif.got.tgz:59883.got - 2010.04.10 19:34:48.
