data_PCOD8258346
_publ_section_title
;
Structure prediction by ZEFSAII (Michael W. Deem and Ramdas Pophale) SiO2 
 PCOD8258346
Probable space group: C M C M
;
_chemical_formula_sum "Si O2"
_cell_formula_units_Z 80
_cell_length_a 17.954409
_cell_length_b 27.519156
_cell_length_c 9.087181
_cell_angle_alpha 90.000000
_cell_angle_beta 90.000000
_cell_angle_gamma 90.000000
_cell_volume 4489.886916
_symmetry_space_group_name_H-M "C M C M"
_symmetry_group_IT_number 63
_symmetry_cell_setting 'orthorhombic'
loop_
_space_group_symop_operation_xyz
x,y,z
-x,-y,1/2+z
x,-y,-z
-x,y,1/2-z
-x,-y,-z
x,y,1/2-z
-x,y,z
x,-y,1/2+z
1/2+x,1/2+y,z
1/2-x,1/2-y,1/2+z
1/2+x,1/2-y,-z
1/2-x,1/2+y,1/2-z
1/2-x,1/2-y,-z
1/2+x,1/2+y,1/2-z
1/2-x,1/2+y,z
1/2+x,1/2-y,1/2+z
loop_
_atom_site_type_symbol
_atom_site_label
_atom_site_fract_x
_atom_site_fract_y
_atom_site_fract_z
Si Si1 0.415142 0.599615 0.419238
Si Si2 0.785088 0.951551 0.422988
Si Si3 0.296490 0.853723 0.418594
Si Si4 0.858989 0.190905 0.577609
Si Si5 0.415849 0.204692 0.423710
O O1 0.388699 0.600844 0.250000
O O2 0.500000 0.581965 0.432288
O O3 0.365155 0.561700 0.509281
O O4 0.408794 0.653397 0.486580
O O5 0.795525 0.959813 0.250000
O O6 0.726226 0.908900 0.456096
O O7 0.753980 0.000000 0.500000
O O8 0.319646 0.848505 0.250000
O O9 0.227918 0.817995 0.456167
O O10 0.367834 0.839754 0.514281
O O11 0.876131 0.182895 0.750000
O O12 0.880588 0.244472 0.523241
O O13 0.414243 0.201313 0.250000
O O14 0.500000 0.200458 0.483478
#
# Coordination Sequence:
#
# PCOD8258346 Si02
#       5
#    16  16  16  16  16
#     4  10  20  32  48  74 106 138 172 207 244 289
#     4  10  21  37  56  76  97 126 166 209 256 305
#     4   9  19  34  52  75 100 129 166 206 249 297
#     4   9  18  33  51  72 102 139 175 207 243 290
#     4  10  20  32  49  75 105 137 170 204 247 297
#
# _framework density 17.817820000000001
#
# number of rings (size 3 to 8) (size 9 to 14) (size 15 to 20)
#    0.000    2.400    0.000    3.600    0.000    8.000 
#    0.000    0.000    0.000    0.600    0.000    0.000 
#    0.000    0.000    0.000    0.000    0.000    0.000 
#
# Total GULP energy -496098.298072 kJ/mol
# GULP energy per Si atom -12402.457452 kJ/mol
# Density = 1.777727 g / cm^3
# Si number density = 17.817820 Si / 1000 Ang^3
#
#
#
# Elastic Constant Matrix: (Units=GPa)
#
#
# Indices 1 2 3 4 5 6 
#
# 1 105.1560 64.1693 44.0136 0.0000 0.0000 0.0000
# 2 64.1693 114.1823 50.5880 0.0000 0.0000 0.0000
# 3 44.0136 50.5880 73.7383 0.0000 0.0000 0.0000
# 4 0.0000 0.0000 0.0000 32.6294 0.0000 0.0000
# 5 0.0000 0.0000 0.0000 0.0000 30.8062 0.0000
# 6 0.0000 0.0000 0.0000 0.0000 0.0000 13.9253
#
#
#
# Elastic Compliance Matrix: (Units=1/GPa)
#
#
# Indices 1 2 3 4 5 6 
#
# 1 0.015537 -0.006642 -0.004717 0.000000 0.000000 0.000000
# 2 -0.006642 0.015421 -0.006615 0.000000 0.000000 0.000000
# 3 -0.004717 -0.006615 0.020916 0.000000 0.000000 0.000000
# 4 0.000000 0.000000 0.000000 0.030647 0.000000 0.000000
# 5 0.000000 0.000000 0.000000 0.000000 0.032461 0.000000
# 6 0.000000 0.000000 0.000000 0.000000 0.000000 0.071812
#
#
# Mechanical properties :
#
#
# Convention : Reuss Voigt Hill
#
# Bulk Modulus (GPa) = 62.79375 67.84649 65.32012
# Shear Modulus (GPa) = 21.92481 24.42589 23.17535
#
# Velocity S-wave (km/s) = 3.51165 3.70654 3.61041
# Velocity P-wave (km/s) = 7.19450 7.51522 7.35661
#
# Compressibility (1/GPa) = 0.01592515
#
# Stress axis : x y z
#
# Youngs Moduli (GPa) = 64.36194 64.84481 47.81074
#
# Poissons Ratio (x) = 0.43068 0.22555
# Poissons Ratio (y) = 0.42747 0.31629
# Poissons Ratio (z) = 0.30362 0.42898
#
# Static dielectric constant tensor:
#      x y z
#    x 3.160520 0.000000 0.000000 
#    y 0.000000 3.289750 0.000000 
#    z 0.000000 0.000000 3.281300 
# 
# 
# High freq. dielectric constant tensor:
#      x y z
#    x 1.674370 0.000000 0.000000 
#    y 0.000000 1.682370 0.000000 
#    z 0.000000 0.000000 1.692890 
# 
# From -- ./inp_files/6376.got.cif
#   From: 2010.03.12/outbox.cif.g09.slc.cpg/sg63_4_cif.got.tgz:6376.got - 2010.04.10 19:34:48.
