data_PCOD8258067
_publ_section_title
;
Structure prediction by ZEFSAII (Michael W. Deem and Ramdas Pophale) SiO2 
 PCOD8258067
Probable space group: C M C M
;
_chemical_formula_sum "Si O2"
_cell_formula_units_Z 96
_cell_length_a 14.376953
_cell_length_b 14.397855
_cell_length_c 21.922920
_cell_angle_alpha 90.000000
_cell_angle_beta 90.000000
_cell_angle_gamma 90.000000
_cell_volume 4537.984911
_symmetry_space_group_name_H-M "C M C M"
_symmetry_group_IT_number 63
_symmetry_cell_setting 'orthorhombic'
loop_
_space_group_symop_operation_xyz
x,y,z
-x,-y,1/2+z
x,-y,-z
-x,y,1/2-z
-x,-y,-z
x,y,1/2-z
-x,y,z
x,-y,1/2+z
1/2+x,1/2+y,z
1/2-x,1/2-y,1/2+z
1/2+x,1/2-y,-z
1/2-x,1/2+y,1/2-z
1/2-x,1/2-y,-z
1/2+x,1/2+y,1/2-z
1/2-x,1/2+y,z
1/2+x,1/2-y,1/2+z
loop_
_atom_site_type_symbol
_atom_site_label
_atom_site_fract_x
_atom_site_fract_y
_atom_site_fract_z
Si Si1 0.761852 0.624034 0.556896
Si Si2 0.609341 0.263881 0.880618
Si Si3 0.895886 0.846565 0.356611
Si Si4 0.104121 0.356886 0.682391
Si Si5 0.247508 0.407719 0.920941
Si Si6 0.611112 0.523535 0.750000
Si Si7 0.608052 0.316995 0.750000
O O1 0.850996 0.670492 0.589079
O O2 0.668717 0.671352 0.584001
O O3 0.777902 0.641214 0.485249
O O4 0.745370 0.516702 0.570757
O O5 0.500000 0.269635 0.893451
O O6 0.654521 0.360564 0.903238
O O7 0.635100 0.256736 0.808917
O O8 0.897012 0.753989 0.316790
O O9 0.854104 0.926591 0.312227
O O10 0.000000 0.871387 0.379663
O O11 0.137938 0.389022 0.750000
O O12 0.169525 0.393582 0.629495
O O13 0.000000 0.395229 0.669964
O O14 0.500000 0.529477 0.750000
O O15 0.654358 0.419757 0.750000
O O16 0.500000 0.339331 0.750000
#
# Coordination Sequence:
#
# PCOD8258067 Si02
#       7
#    16  16  16  16  16   8   8
#     4  11  25  43  63  95 131 172 220 268 329 389
#     4  11  24  43  65  94 132 176 218 265 325 393
#     4  10  19  35  62  94 127 163 213 273 329 381
#     4  10  21  40  66  96 125 159 210 272 325 377
#     4  11  25  44  65  93 131 171 221 272 322 390
#     4   9  16  31  58  95 128 162 207 264 328 385
#     4   9  20  37  58  87 130 168 205 254 318 389
#
# _framework density 21.154762999999999
#
# number of rings (size 3 to 8) (size 9 to 14) (size 15 to 20)
#    0.000    1.667    2.500    1.500    1.167    4.667 
#    3.000    3.333    0.000    0.000    0.000    0.000 
#    0.000    0.000    0.000    0.000    0.000    0.000 
#
# Total GULP energy -594991.866175 kJ/mol
# GULP energy per Si atom -12395.663879 kJ/mol
# Density = 2.110661 g / cm^3
# Si number density = 21.154763 Si / 1000 Ang^3
#
#
#
# Elastic Constant Matrix: (Units=GPa)
#
#
# Indices 1 2 3 4 5 6 
#
# 1 117.2756 28.5289 75.6649 0.0000 0.0000 0.0000
# 2 28.5289 39.1067 24.1774 0.0000 0.0000 0.0000
# 3 75.6649 24.1774 169.9648 0.0000 0.0000 0.0000
# 4 0.0000 0.0000 0.0000 28.2280 0.0000 0.0000
# 5 0.0000 0.0000 0.0000 0.0000 24.1048 0.0000
# 6 0.0000 0.0000 0.0000 0.0000 0.0000 23.9457
#
#
#
# Elastic Compliance Matrix: (Units=1/GPa)
#
#
# Indices 1 2 3 4 5 6 
#
# 1 0.013379 -0.006664 -0.005008 0.000000 0.000000 0.000000
# 2 -0.006664 0.031356 -0.001494 0.000000 0.000000 0.000000
# 3 -0.005008 -0.001494 0.008326 0.000000 0.000000 0.000000
# 4 0.000000 0.000000 0.000000 0.035426 0.000000 0.000000
# 5 0.000000 0.000000 0.000000 0.000000 0.041485 0.000000
# 6 0.000000 0.000000 0.000000 0.000000 0.000000 0.041761
#
#
# Mechanical properties :
#
#
# Convention : Reuss Voigt Hill
#
# Bulk Modulus (GPa) = 37.41258 64.78771 51.10015
# Shear Modulus (GPa) = 24.15749 28.45408 26.30579
#
# Velocity S-wave (km/s) = 3.38293 3.67146 3.53014
# Velocity P-wave (km/s) = 5.74304 6.97603 6.38934
#
# Compressibility (1/GPa) = 0.02672897
#
# Stress axis : x y z
#
# Youngs Moduli (GPa) = 74.74229 31.89181 120.11133
#
# Poissons Ratio (x) = 0.21253 0.60155
# Poissons Ratio (y) = 0.49809 0.17941
# Poissons Ratio (z) = 0.37433 0.04764
#
# Static dielectric constant tensor:
#      x y z
#    x 3.717640 0.000000 0.000000 
#    y 0.000000 3.823800 0.000000 
#    z 0.000000 0.000000 4.161120 
# 
# 
# High freq. dielectric constant tensor:
#      x y z
#    x 1.818080 0.000000 0.000000 
#    y 0.000000 1.823050 0.000000 
#    z 0.000000 0.000000 1.842810 
# 
# From -- ./inp_files/54260.got.cif
#   From: 2010.03.12/outbox.cif.g09.slc.cpg/sg63_28_cif.got.tgz:54260.got - 2010.04.10 19:34:48.
