data_PCOD8258505
_publ_section_title
;
Structure prediction by ZEFSAII (Michael W. Deem and Ramdas Pophale) SiO2 
 PCOD8258505
Probable space group: C M C M
;
_chemical_formula_sum "Si O2"
_cell_formula_units_Z 80
_cell_length_a 17.670061
_cell_length_b 27.741389
_cell_length_c 9.022063
_cell_angle_alpha 90.000000
_cell_angle_beta 90.000000
_cell_angle_gamma 90.000000
_cell_volume 4422.543430
_symmetry_space_group_name_H-M "C M C M"
_symmetry_group_IT_number 63
_symmetry_cell_setting 'orthorhombic'
loop_
_space_group_symop_operation_xyz
x,y,z
-x,-y,1/2+z
x,-y,-z
-x,y,1/2-z
-x,-y,-z
x,y,1/2-z
-x,y,z
x,-y,1/2+z
1/2+x,1/2+y,z
1/2-x,1/2-y,1/2+z
1/2+x,1/2-y,-z
1/2-x,1/2+y,1/2-z
1/2-x,1/2-y,-z
1/2+x,1/2+y,1/2-z
1/2-x,1/2+y,z
1/2+x,1/2-y,1/2+z
loop_
_atom_site_type_symbol
_atom_site_label
_atom_site_fract_x
_atom_site_fract_y
_atom_site_fract_z
Si Si1 0.088740 0.291662 0.922423
Si Si2 0.853869 0.810842 0.077700
Si Si3 0.765891 0.050039 0.074238
Si Si4 0.916516 0.100297 0.078386
Si Si5 0.198210 0.359907 0.076349
O O1 0.107251 0.300272 0.750000
O O2 0.127358 0.242470 0.981089
O O3 0.000000 0.288920 0.952188
O O4 0.121740 0.335709 0.017320
O O5 0.871859 0.813883 0.250000
O O6 0.767095 0.823510 0.040960
O O7 0.909677 0.848720 0.002109
O O8 0.756519 0.046287 0.250000
O O9 0.852195 0.062837 0.025462
O O10 0.709508 0.090324 0.011198
O O11 0.743092 0.000000 0.000000
O O12 0.904799 0.111257 0.250000
O O13 0.000000 0.078502 0.045115
O O14 0.191604 0.371173 0.250000
#
# Coordination Sequence:
#
# PCOD8258505 Si02
#       5
#    16  16  16  16  16
#     4  10  20  33  50  74 105 138 169 204 249 297
#     4   9  18  32  50  73 102 138 175 206 241 289
#     4  10  20  35  54  74  98 129 167 210 255 302
#     4   9  18  31  47  71 104 138 170 206 247 290
#     4  10  20  34  53  76 101 131 170 211 249 294
#
# _framework density 18.089138999999999
#
# number of rings (size 3 to 8) (size 9 to 14) (size 15 to 20)
#    0.000    2.400    0.000    2.400    0.000    4.400 
#    0.000    0.000    0.000    0.600    0.000    0.000 
#    0.000    0.000    0.000    0.000    0.000    0.000 
#
# Total GULP energy -496071.627079 kJ/mol
# GULP energy per Si atom -12401.790677 kJ/mol
# Density = 1.804797 g / cm^3
# Si number density = 18.089139 Si / 1000 Ang^3
#
#
#
# Elastic Constant Matrix: (Units=GPa)
#
#
# Indices 1 2 3 4 5 6 
#
# 1 55.7388 44.8758 29.0552 0.0000 0.0000 0.0000
# 2 44.8758 134.1866 50.3420 0.0000 0.0000 0.0000
# 3 29.0552 50.3420 64.4832 0.0000 0.0000 0.0000
# 4 0.0000 0.0000 0.0000 33.1138 0.0000 0.0000
# 5 0.0000 0.0000 0.0000 0.0000 25.9432 0.0000
# 6 0.0000 0.0000 0.0000 0.0000 0.0000 15.7643
#
#
#
# Elastic Compliance Matrix: (Units=1/GPa)
#
#
# Indices 1 2 3 4 5 6 
#
# 1 0.026698 -0.006244 -0.007155 0.000000 0.000000 0.000000
# 2 -0.006244 0.012000 -0.006554 0.000000 0.000000 0.000000
# 3 -0.007155 -0.006554 0.023849 0.000000 0.000000 0.000000
# 4 0.000000 0.000000 0.000000 0.030199 0.000000 0.000000
# 5 0.000000 0.000000 0.000000 0.000000 0.038546 0.000000
# 6 0.000000 0.000000 0.000000 0.000000 0.000000 0.063435
#
#
# Mechanical properties :
#
#
# Convention : Reuss Voigt Hill
#
# Bulk Modulus (GPa) = 44.17124 55.88384 50.02754
# Shear Modulus (GPa) = 20.64591 23.63996 22.14293
#
# Velocity S-wave (km/s) = 3.38204 3.61897 3.50251
# Velocity P-wave (km/s) = 6.30259 6.95868 6.63875
#
# Compressibility (1/GPa) = 0.02263917
#
# Stress axis : x y z
#
# Youngs Moduli (GPa) = 37.45638 83.33621 41.93078
#
# Poissons Ratio (x) = 0.52037 0.30000
# Poissons Ratio (y) = 0.23389 0.27484
# Poissons Ratio (z) = 0.26799 0.54623
#
# Static dielectric constant tensor:
#      x y z
#    x 3.253930 0.000000 0.000000 
#    y 0.000000 3.255620 0.000000 
#    z 0.000000 0.000000 3.300690 
# 
# 
# High freq. dielectric constant tensor:
#      x y z
#    x 1.687240 0.000000 0.000000 
#    y 0.000000 1.691620 0.000000 
#    z 0.000000 0.000000 1.702800 
# 
# From -- ./inp_files/6377.got.cif
#   From: 2010.03.12/outbox.cif.g09.slc.cpg/sg63_4_cif.got.tgz:6377.got - 2010.04.10 19:34:48.
