data_PCOD8258750
_publ_section_title
;
Structure prediction by ZEFSAII (Michael W. Deem and Ramdas Pophale) SiO2 
 PCOD8258750
Probable space group: C M C M
;
_chemical_formula_sum "Si O2"
_cell_formula_units_Z 88
_cell_length_a 22.037572
_cell_length_b 23.112002
_cell_length_c 9.237719
_cell_angle_alpha 90.000000
_cell_angle_beta 90.000000
_cell_angle_gamma 90.000000
_cell_volume 4705.069664
_symmetry_space_group_name_H-M "C M C M"
_symmetry_group_IT_number 63
_symmetry_cell_setting 'orthorhombic'
loop_
_space_group_symop_operation_xyz
x,y,z
-x,-y,1/2+z
x,-y,-z
-x,y,1/2-z
-x,-y,-z
x,y,1/2-z
-x,y,z
x,-y,1/2+z
1/2+x,1/2+y,z
1/2-x,1/2-y,1/2+z
1/2+x,1/2-y,-z
1/2-x,1/2+y,1/2-z
1/2-x,1/2-y,-z
1/2+x,1/2+y,1/2-z
1/2-x,1/2+y,z
1/2+x,1/2-y,1/2+z
loop_
_atom_site_type_symbol
_atom_site_label
_atom_site_fract_x
_atom_site_fract_y
_atom_site_fract_z
Si Si1 0.930258 0.667466 0.082323
Si Si2 0.829822 0.714767 0.913722
Si Si3 0.071845 0.553510 0.911749
Si Si4 0.500000 0.441510 0.916476
Si Si5 0.226827 0.159623 0.414440
Si Si6 0.632973 0.438616 0.920414
O O1 0.914963 0.659875 0.250000
O O2 0.000000 0.683144 0.057275
O O3 0.890888 0.717852 0.009679
O O4 0.909965 0.609920 0.999747
O O5 0.843734 0.695379 0.750000
O O6 0.806780 0.779517 0.919062
O O7 0.784735 0.666403 0.981481
O O8 0.099567 0.555493 0.750000
O O9 0.000000 0.546767 0.901892
O O10 0.100186 0.500000 0.000000
O O11 0.500000 0.457819 0.750000
O O12 0.565092 0.411187 0.954106
O O13 0.500000 0.500000 0.000000
O O14 0.247948 0.146394 0.250000
O O15 0.182622 0.108597 0.472409
O O16 0.640077 0.449905 0.750000
O O17 0.643562 0.500000 0.000000
#
# Coordination Sequence:
#
# PCOD8258750 Si02
#       6
#    16  16  16   8  16  16
#     4  10  20  34  52  74 103 136 169 213 266 313
#     4  10  20  35  55  77 100 134 178 220 264 313
#     4   9  16  27  45  69  97 129 165 202 245 301
#     4   8  14  26  46  72 104 138 168 200 245 304
#     4   9  19  36  55  76 102 137 176 215 261 315
#     4   9  17  31  52  79 109 140 174 212 259 312
#
# _framework density 18.703229
#
# number of rings (size 3 to 8) (size 9 to 14) (size 15 to 20)
#    0.000    2.727    0.000    1.636    0.000    4.727 
#    1.636    0.909    0.000    2.182    0.000    0.000 
#    0.000    0.000    0.000    0.000    0.000    0.000 
#
# Total GULP energy -545189.142885 kJ/mol
# GULP energy per Si atom -12390.662338 kJ/mol
# Density = 1.866066 g / cm^3
# Si number density = 18.703229 Si / 1000 Ang^3
#
#
#
# Elastic Constant Matrix: (Units=GPa)
#
#
# Indices 1 2 3 4 5 6 
#
# 1 87.3911 40.1314 53.7868 0.0000 0.0000 0.0000
# 2 40.1314 47.8915 28.0819 0.0000 0.0000 0.0000
# 3 53.7868 28.0819 117.4221 0.0000 0.0000 0.0000
# 4 0.0000 0.0000 0.0000 27.4740 0.0000 0.0000
# 5 0.0000 0.0000 0.0000 0.0000 28.6936 0.0000
# 6 0.0000 0.0000 0.0000 0.0000 0.0000 20.6289
#
#
#
# Elastic Compliance Matrix: (Units=1/GPa)
#
#
# Indices 1 2 3 4 5 6 
#
# 1 0.022374 -0.014817 -0.006705 0.000000 0.000000 0.000000
# 2 -0.014817 0.034098 -0.001368 0.000000 0.000000 0.000000
# 3 -0.006705 -0.001368 0.011915 0.000000 0.000000 0.000000
# 4 0.000000 0.000000 0.000000 0.036398 0.000000 0.000000
# 5 0.000000 0.000000 0.000000 0.000000 0.034851 0.000000
# 6 0.000000 0.000000 0.000000 0.000000 0.000000 0.048476
#
#
# Mechanical properties :
#
#
# Convention : Reuss Voigt Hill
#
# Bulk Modulus (GPa) = 44.23272 55.18943 49.71108
# Shear Modulus (GPa) = 20.71022 24.07294 22.39158
#
# Velocity S-wave (km/s) = 3.33123 3.59151 3.46382
# Velocity P-wave (km/s) = 6.20462 6.83891 6.52947
#
# Compressibility (1/GPa) = 0.02260770
#
# Stress axis : x y z
#
# Youngs Moduli (GPa) = 44.69536 29.32688 83.92955
#
# Poissons Ratio (x) = 0.43453 0.56276
# Poissons Ratio (y) = 0.66224 0.11479
# Poissons Ratio (z) = 0.29969 0.04011
#
# Static dielectric constant tensor:
#      x y z
#    x 3.655280 0.000000 0.000000 
#    y 0.000000 3.217370 0.000000 
#    z 0.000000 0.000000 3.638160 
# 
# 
# High freq. dielectric constant tensor:
#      x y z
#    x 1.719420 0.000000 0.000000 
#    y 0.000000 1.702930 0.000000 
#    z 0.000000 0.000000 1.736330 
# 
# From -- ./inp_files/8178.got.cif
#   From: 2010.03.12/outbox.cif.g09.slc.cpg/sg63_5_cif.got.tgz:8178.got - 2010.04.10 19:34:48.
