data_PCOD8258680
_publ_section_title
;
Structure prediction by ZEFSAII (Michael W. Deem and Ramdas Pophale) SiO2 
 PCOD8258680
Probable space group: C M C M
;
_chemical_formula_sum "Si O2"
_cell_formula_units_Z 112
_cell_length_a 13.659784
_cell_length_b 28.269141
_cell_length_c 14.356593
_cell_angle_alpha 90.000000
_cell_angle_beta 90.000000
_cell_angle_gamma 90.000000
_cell_volume 5543.803554
_symmetry_space_group_name_H-M "C M C M"
_symmetry_group_IT_number 63
_symmetry_cell_setting 'orthorhombic'
loop_
_space_group_symop_operation_xyz
x,y,z
-x,-y,1/2+z
x,-y,-z
-x,y,1/2-z
-x,-y,-z
x,y,1/2-z
-x,y,z
x,-y,1/2+z
1/2+x,1/2+y,z
1/2-x,1/2-y,1/2+z
1/2+x,1/2-y,-z
1/2-x,1/2+y,1/2-z
1/2-x,1/2-y,-z
1/2+x,1/2+y,1/2-z
1/2-x,1/2+y,z
1/2+x,1/2-y,1/2+z
loop_
_atom_site_type_symbol
_atom_site_label
_atom_site_fract_x
_atom_site_fract_y
_atom_site_fract_z
Si Si1 0.887970 0.346368 0.483145
Si Si2 0.885677 0.197253 0.853142
Si Si3 0.893502 0.085655 0.147223
Si Si4 0.111907 0.240703 0.454524
Si Si5 0.609404 0.515719 0.605088
Si Si6 0.259796 0.394279 0.144031
Si Si7 0.743455 0.665806 0.140140
O O1 0.878197 0.296019 0.429868
O O2 0.832960 0.386573 0.423506
O O3 0.846197 0.338541 0.587030
O O4 0.000000 0.362198 0.493483
O O5 0.855073 0.217460 0.750000
O O6 0.835991 0.147423 0.873765
O O7 0.000000 0.187436 0.854559
O O8 0.855948 0.232936 0.936674
O O9 0.906536 0.106995 0.250000
O O10 0.817496 0.120886 0.098109
O O11 0.000000 0.086315 0.095320
O O12 0.855318 0.031853 0.157500
O O13 0.182764 0.212836 0.384973
O O14 0.000000 0.223526 0.439601
O O15 0.607184 0.500000 0.500000
O O16 0.500000 0.531223 0.638702
O O17 0.687132 0.556569 0.622127
O O18 0.221807 0.394921 0.250000
O O19 0.764871 0.663907 0.250000
#
# Coordination Sequence:
#
# PCOD8258680 Si02
#       7
#    16  16  16  16  16  16  16
#     4  11  25  43  58  80 114 156 208 260 304 343
#     4   9  18  32  55  87 120 153 190 238 296 360
#     4   9  18  33  54  84 120 149 175 216 276 350
#     4  10  21  38  60  85 119 154 192 244 302 366
#     4  10  20  33  56  91 127 157 183 222 286 363
#     4  11  22  37  60  85 117 161 206 249 294 349
#     4  11  22  37  61  88 117 155 197 240 296 362
#
# _framework density 20.202735000000001
#
# number of rings (size 3 to 8) (size 9 to 14) (size 15 to 20)
#    0.000    1.857    1.429    2.571    0.000    4.000 
#    0.000    2.857    0.000    3.857    0.000    4.000 
#    0.000    0.000    0.000    0.000    0.000    0.000 
#
# Total GULP energy -694129.580926 kJ/mol
# GULP energy per Si atom -12395.171088 kJ/mol
# Density = 2.015675 g / cm^3
# Si number density = 20.202735 Si / 1000 Ang^3
#
#
#
# Elastic Constant Matrix: (Units=GPa)
#
#
# Indices 1 2 3 4 5 6 
#
# 1 99.3505 56.4319 40.3040 0.0000 0.0000 0.0000
# 2 56.4319 86.7912 18.0069 0.0000 0.0000 0.0000
# 3 40.3040 18.0069 92.0421 0.0000 0.0000 0.0000
# 4 0.0000 0.0000 0.0000 23.2040 0.0000 0.0000
# 5 0.0000 0.0000 0.0000 0.0000 18.8142 0.0000
# 6 0.0000 0.0000 0.0000 0.0000 0.0000 28.8763
#
#
#
# Elastic Compliance Matrix: (Units=1/GPa)
#
#
# Indices 1 2 3 4 5 6 
#
# 1 0.018727 -0.010918 -0.006064 0.000000 0.000000 0.000000
# 2 -0.010918 0.018375 0.001186 0.000000 0.000000 0.000000
# 3 -0.006064 0.001186 0.013288 0.000000 0.000000 0.000000
# 4 0.000000 0.000000 0.000000 0.043096 0.000000 0.000000
# 5 0.000000 0.000000 0.000000 0.000000 0.053151 0.000000
# 6 0.000000 0.000000 0.000000 0.000000 0.000000 0.034630
#
#
# Mechanical properties :
#
#
# Convention : Reuss Voigt Hill
#
# Bulk Modulus (GPa) = 53.19955 56.40773 54.80364
# Shear Modulus (GPa) = 22.81784 25.07497 23.94641
#
# Velocity S-wave (km/s) = 3.36437 3.52684 3.44656
# Velocity P-wave (km/s) = 6.44065 6.67580 6.55928
#
# Compressibility (1/GPa) = 0.01879715
#
# Stress axis : x y z
#
# Youngs Moduli (GPa) = 53.39819 54.42194 75.25563
#
# Poissons Ratio (x) = 0.59420 0.45638
# Poissons Ratio (y) = 0.58302 -0.08926
# Poissons Ratio (z) = 0.32383 -0.06455
#
# Static dielectric constant tensor:
#      x y z
#    x 3.651370 0.000000 0.000000 
#    y 0.000000 2.484570 0.000000 
#    z 0.000000 0.000000 3.787650 
# 
# 
# High freq. dielectric constant tensor:
#      x y z
#    x 1.771870 0.000000 0.000000 
#    y 0.000000 1.780200 0.000000 
#    z 0.000000 0.000000 1.794030 
# 
# From -- ./inp_files/32573.got.cif
#   From: 2010.03.12/outbox.cif.g09.slc.cpg/sg63_17_cif.got.tgz:32573.got - 2010.04.10 19:34:48.
