data_PCOD8258769
_publ_section_title
;
Structure prediction by ZEFSAII (Michael W. Deem and Ramdas Pophale) SiO2 
 PCOD8258769
Probable space group: C M C M
;
_chemical_formula_sum "Si O2"
_cell_formula_units_Z 96
_cell_length_a 24.132745
_cell_length_b 23.466659
_cell_length_c 9.161722
_cell_angle_alpha 90.000000
_cell_angle_beta 90.000000
_cell_angle_gamma 90.000000
_cell_volume 5188.419657
_symmetry_space_group_name_H-M "C M C M"
_symmetry_group_IT_number 63
_symmetry_cell_setting 'orthorhombic'
loop_
_space_group_symop_operation_xyz
x,y,z
-x,-y,1/2+z
x,-y,-z
-x,y,1/2-z
-x,-y,-z
x,y,1/2-z
-x,y,z
x,-y,1/2+z
1/2+x,1/2+y,z
1/2-x,1/2-y,1/2+z
1/2+x,1/2-y,-z
1/2-x,1/2+y,1/2-z
1/2-x,1/2-y,-z
1/2+x,1/2+y,1/2-z
1/2-x,1/2+y,z
1/2+x,1/2-y,1/2+z
loop_
_atom_site_type_symbol
_atom_site_label
_atom_site_fract_x
_atom_site_fract_y
_atom_site_fract_z
Si Si1 0.338153 0.141099 0.421784
Si Si2 0.937008 0.558106 0.079379
Si Si3 0.938017 0.162943 0.417264
Si Si4 0.152160 0.771125 0.420238
Si Si5 0.227509 0.874856 0.077144
Si Si6 0.635825 0.443921 0.580797
O O1 0.326073 0.135287 0.250000
O O2 0.395308 0.109203 0.464972
O O3 0.338814 0.206743 0.471578
O O4 0.288301 0.114148 0.513286
O O5 0.933031 0.545706 0.250000
O O6 0.000000 0.575788 0.035376
O O7 0.919022 0.500000 0.000000
O O8 0.936018 0.181904 0.250000
O O9 0.904121 0.209171 0.505965
O O10 0.913885 0.100173 0.437548
O O11 0.000000 0.162500 0.479145
O O12 0.141784 0.774649 0.250000
O O13 0.203904 0.811793 0.464847
O O14 0.227940 0.884201 0.250000
O O15 0.190276 0.922455 0.001711
O O16 0.614539 0.500000 0.500000
O O17 0.650024 0.455261 0.750000
#
# Coordination Sequence:
#
# PCOD8258769 Si02
#       6
#    16  16  16  16  16  16
#     4  10  20  34  54  79 104 133 171 211 254 304
#     4   9  19  36  55  74  99 130 163 203 250 298
#     4   9  19  35  53  75 105 139 173 213 262 310
#     4   9  19  34  52  76 105 137 172 211 255 305
#     4  10  20  34  52  76 106 137 171 210 255 307
#     4  10  20  35  54  75 103 138 175 216 261 307
#
# _framework density 18.502742000000001
#
# number of rings (size 3 to 8) (size 9 to 14) (size 15 to 20)
#    0.000    2.500    0.000    1.500    0.000    4.667 
#    0.000    3.333    0.000    2.000    0.000    0.000 
#    0.000    0.000    0.000    0.000    0.000    0.000 
#
# Total GULP energy -595212.116534 kJ/mol
# GULP energy per Si atom -12400.252428 kJ/mol
# Density = 1.846063 g / cm^3
# Si number density = 18.502742 Si / 1000 Ang^3
#
#
#
# Elastic Constant Matrix: (Units=GPa)
#
#
# Indices 1 2 3 4 5 6 
#
# 1 118.1049 18.6948 33.3149 0.0000 0.0000 0.0000
# 2 18.6948 43.9288 20.7016 0.0000 0.0000 0.0000
# 3 33.3149 20.7016 42.6172 0.0000 0.0000 0.0000
# 4 0.0000 0.0000 0.0000 31.0568 0.0000 0.0000
# 5 0.0000 0.0000 0.0000 0.0000 31.0189 0.0000
# 6 0.0000 0.0000 0.0000 0.0000 0.0000 17.2603
#
#
#
# Elastic Compliance Matrix: (Units=1/GPa)
#
#
# Indices 1 2 3 4 5 6 
#
# 1 0.010884 -0.000807 -0.008116 0.000000 0.000000 0.000000
# 2 -0.000807 0.029582 -0.013739 0.000000 0.000000 0.000000
# 3 -0.008116 -0.013739 0.036483 0.000000 0.000000 0.000000
# 4 0.000000 0.000000 0.000000 0.032199 0.000000 0.000000
# 5 0.000000 0.000000 0.000000 0.000000 0.032238 0.000000
# 6 0.000000 0.000000 0.000000 0.000000 0.000000 0.057936
#
#
# Mechanical properties :
#
#
# Convention : Reuss Voigt Hill
#
# Bulk Modulus (GPa) = 31.62063 38.89705 35.25884
# Shear Modulus (GPa) = 19.59329 24.66320 22.12824
#
# Velocity S-wave (km/s) = 3.25767 3.65492 3.46199
# Velocity P-wave (km/s) = 5.59255 6.23532 5.92266
#
# Compressibility (1/GPa) = 0.03162493
#
# Stress axis : x y z
#
# Youngs Moduli (GPa) = 91.87564 33.80432 27.40993
#
# Poissons Ratio (x) = 0.02728 0.22247
# Poissons Ratio (y) = 0.07416 0.37658
# Poissons Ratio (z) = 0.74570 0.46443
#
# Static dielectric constant tensor:
#      x y z
#    x 3.455230 0.000000 0.000000 
#    y 0.000000 3.496770 0.000000 
#    z 0.000000 0.000000 3.388930 
# 
# 
# High freq. dielectric constant tensor:
#      x y z
#    x 1.719800 0.000000 0.000000 
#    y 0.000000 1.714420 0.000000 
#    z 0.000000 0.000000 1.718480 
# 
# From -- ./inp_files/10405.got.cif
#   From: 2010.03.12/outbox.cif.g09.slc.cpg/sg63_6_cif.got.tgz:10405.got - 2010.04.10 19:34:48.
