data_PCOD8258636
_publ_section_title
;
Structure prediction by ZEFSAII (Michael W. Deem and Ramdas Pophale) SiO2 
 PCOD8258636
Probable space group: C M C M
;
_chemical_formula_sum "Si O2"
_cell_formula_units_Z 80
_cell_length_a 25.447850
_cell_length_b 19.475478
_cell_length_c 8.914576
_cell_angle_alpha 90.000000
_cell_angle_beta 90.000000
_cell_angle_gamma 90.000000
_cell_volume 4418.144479
_symmetry_space_group_name_H-M "C M C M"
_symmetry_group_IT_number 63
_symmetry_cell_setting 'orthorhombic'
loop_
_space_group_symop_operation_xyz
x,y,z
-x,-y,1/2+z
x,-y,-z
-x,y,1/2-z
-x,-y,-z
x,y,1/2-z
-x,y,z
x,-y,1/2+z
1/2+x,1/2+y,z
1/2-x,1/2-y,1/2+z
1/2+x,1/2-y,-z
1/2-x,1/2+y,1/2-z
1/2-x,1/2-y,-z
1/2+x,1/2+y,1/2-z
1/2-x,1/2+y,z
1/2+x,1/2-y,1/2+z
loop_
_atom_site_type_symbol
_atom_site_label
_atom_site_fract_x
_atom_site_fract_y
_atom_site_fract_z
Si Si1 0.643342 0.925424 0.426966
Si Si2 0.245061 0.573768 0.425683
Si Si3 0.439206 0.832282 0.578350
Si Si4 0.360865 0.573199 0.424043
Si Si5 0.560249 0.325843 0.077305
O O1 0.648300 0.933344 0.250000
O O2 0.696218 0.887887 0.492996
O O3 0.593721 0.878709 0.465605
O O4 0.635407 0.000000 0.500000
O O5 0.246355 0.500000 0.500000
O O6 0.232905 0.568641 0.250000
O O7 0.302765 0.605843 0.456502
O O8 0.422846 0.847250 0.750000
O O9 0.500000 0.850465 0.554180
O O10 0.428642 0.753156 0.538255
O O11 0.369742 0.500000 0.500000
O O12 0.368042 0.559190 0.250000
O O13 0.403452 0.627581 0.475313
O O14 0.573292 0.340677 0.250000
O O15 0.500000 0.344356 0.042234
#
# Coordination Sequence:
#
# PCOD8258636 Si02
#       5
#    16  16  16  16  16
#     4  11  21  33  53  79 105 134 169 209 253 300
#     4   9  17  31  50  73 102 134 168 206 252 301
#     4   9  19  37  57  75 100 135 171 209 256 305
#     4  10  20  33  53  79 105 135 171 212 254 299
#     4   9  19  36  56  76 101 135 171 209 257 307
#
# _framework density 18.107150000000001
#
# number of rings (size 3 to 8) (size 9 to 14) (size 15 to 20)
#    0.000    2.400    0.000    5.400    0.000    4.800 
#    0.000    3.000    0.000    0.000    0.000    0.000 
#    0.000    0.000    0.000    0.000    0.000    0.000 
#
# Total GULP energy -495801.260904 kJ/mol
# GULP energy per Si atom -12395.031523 kJ/mol
# Density = 1.806594 g / cm^3
# Si number density = 18.107150 Si / 1000 Ang^3
#
#
#
# Elastic Constant Matrix: (Units=GPa)
#
#
# Indices 1 2 3 4 5 6 
#
# 1 121.3416 58.7198 65.5040 0.0000 0.0000 0.0000
# 2 58.7198 62.9653 45.2664 0.0000 0.0000 0.0000
# 3 65.5040 45.2664 118.8853 0.0000 0.0000 0.0000
# 4 0.0000 0.0000 0.0000 29.2045 0.0000 0.0000
# 5 0.0000 0.0000 0.0000 0.0000 31.7552 0.0000
# 6 0.0000 0.0000 0.0000 0.0000 0.0000 -27.8505
#
#
#
# Elastic Compliance Matrix: (Units=1/GPa)
#
#
# Indices 1 2 3 4 5 6 
#
# 1 0.016584 -0.012250 -0.004473 0.000000 0.000000 0.000000
# 2 -0.012250 0.030916 -0.005022 0.000000 0.000000 0.000000
# 3 -0.004473 -0.005022 0.012788 0.000000 0.000000 0.000000
# 4 0.000000 0.000000 0.000000 0.034241 0.000000 0.000000
# 5 0.000000 0.000000 0.000000 0.000000 0.031491 0.000000
# 6 0.000000 0.000000 0.000000 0.000000 0.000000 -0.035906
#
#
# Mechanical properties :
#
#
# Convention : Reuss Voigt Hill
#
# Bulk Modulus (GPa) = 59.53079 71.35248 65.44164
# Shear Modulus (GPa) = 35.91842 15.53532 25.72687
#
# Velocity S-wave (km/s) = 4.45866 2.93228 3.77346
# Velocity P-wave (km/s) = 7.71068 7.13832 7.43001
#
# Compressibility (1/GPa) = 0.01679803
#
# Stress axis : x y z
#
# Youngs Moduli (GPa) = 60.29901 32.34562 78.19622
#
# Poissons Ratio (x) = 0.39623 0.34979
# Poissons Ratio (y) = 0.73866 0.39270
# Poissons Ratio (z) = 0.26974 0.16244
#
# Static dielectric constant tensor:
#      x y z
#    x 3.987750 0.000000 0.000000 
#    y 0.000000 3.011940 0.000000 
#    z 0.000000 0.000000 3.367060 
# 
# 
# High freq. dielectric constant tensor:
#      x y z
#    x 1.719540 0.000000 0.000000 
#    y 0.000000 1.668800 0.000000 
#    z 0.000000 0.000000 1.710030 
# 
# From -- ./inp_files/12010.got.cif
#   From: 2010.03.12/outbox.cif.g09.slc.cpg/sg63_7_cif.got.tgz:12010.got - 2010.04.10 19:34:48.
