data_PCOD8258064
_publ_section_title
;
Structure prediction by ZEFSAII (Michael W. Deem and Ramdas Pophale) SiO2 
 PCOD8258064
Probable space group: C M C M
;
_chemical_formula_sum "Si O2"
_cell_formula_units_Z 72
_cell_length_a 22.577735
_cell_length_b 19.079488
_cell_length_c 8.982626
_cell_angle_alpha 90.000000
_cell_angle_beta 90.000000
_cell_angle_gamma 90.000000
_cell_volume 3869.460390
_symmetry_space_group_name_H-M "C M C M"
_symmetry_group_IT_number 63
_symmetry_cell_setting 'orthorhombic'
loop_
_space_group_symop_operation_xyz
x,y,z
-x,-y,1/2+z
x,-y,-z
-x,y,1/2-z
-x,-y,-z
x,y,1/2-z
-x,y,z
x,-y,1/2+z
1/2+x,1/2+y,z
1/2-x,1/2-y,1/2+z
1/2+x,1/2-y,-z
1/2-x,1/2+y,1/2-z
1/2-x,1/2-y,-z
1/2+x,1/2+y,1/2-z
1/2-x,1/2+y,z
1/2+x,1/2-y,1/2+z
loop_
_atom_site_type_symbol
_atom_site_label
_atom_site_fract_x
_atom_site_fract_y
_atom_site_fract_z
Si Si1 0.838724 0.074883 0.073857
Si Si2 0.102590 0.324667 0.574678
Si Si3 0.500000 0.075262 0.072676
Si Si4 0.235133 0.322543 0.924523
Si Si5 0.569264 0.671569 0.922441
O O1 0.842364 0.066420 0.250000
O O2 0.781004 0.118512 0.022951
O O3 0.897712 0.112649 0.017039
O O4 0.832876 0.000000 0.000000
O O5 0.093608 0.320494 0.750000
O O6 0.169056 0.346616 0.528748
O O7 0.086976 0.247638 0.511493
O O8 0.057611 0.382984 0.512667
O O9 0.500000 0.067409 0.250000
O O10 0.500000 0.000000 0.000000
O O11 0.239119 0.309669 0.750000
O O12 0.250000 0.250000 0.000000
O O13 0.588072 0.664948 0.750000
O O14 0.500000 0.658893 0.943248
#
# Coordination Sequence:
#
# PCOD8258064 Si02
#       5
#    16  16   8  16  16
#     4  11  24  39  56  83 117 152 186 231 285 335
#     4   9  17  33  58  83 110 145 185 226 275 336
#     4  10  20  36  56  82 115 150 185 226 277 330
#     4  10  20  35  58  85 111 145 188 232 279 330
#     4  10  19  35  62  88 108 144 190 232 282 338
#
# _framework density 18.607244999999999
#
# number of rings (size 3 to 8) (size 9 to 14) (size 15 to 20)
#    0.000    2.000    3.333    0.667    0.000    2.667 
#    0.000    2.222    0.000    0.000    0.000    0.000 
#    0.000    0.000    0.000    0.000    0.000    0.000 
#
# Total GULP energy -446449.442151 kJ/mol
# GULP energy per Si atom -12401.373393 kJ/mol
# Density = 1.856489 g / cm^3
# Si number density = 18.607245 Si / 1000 Ang^3
#
#
#
# Elastic Constant Matrix: (Units=GPa)
#
#
# Indices 1 2 3 4 5 6 
#
# 1 145.5134 80.5172 40.7352 0.0000 0.0000 0.0000
# 2 80.5172 172.7625 49.7005 0.0000 0.0000 0.0000
# 3 40.7352 49.7005 46.1141 0.0000 0.0000 0.0000
# 4 0.0000 0.0000 0.0000 31.2136 0.0000 0.0000
# 5 0.0000 0.0000 0.0000 0.0000 23.4826 0.0000
# 6 0.0000 0.0000 0.0000 0.0000 0.0000 35.9087
#
#
#
# Elastic Compliance Matrix: (Units=1/GPa)
#
#
# Indices 1 2 3 4 5 6 
#
# 1 0.010175 -0.003125 -0.005619 0.000000 0.000000 0.000000
# 2 -0.003125 0.009350 -0.007316 0.000000 0.000000 0.000000
# 3 -0.005619 -0.007316 0.034534 0.000000 0.000000 0.000000
# 4 0.000000 0.000000 0.000000 0.032037 0.000000 0.000000
# 5 0.000000 0.000000 0.000000 0.000000 0.042585 0.000000
# 6 0.000000 0.000000 0.000000 0.000000 0.000000 0.027848
#
#
# Mechanical properties :
#
#
# Convention : Reuss Voigt Hill
#
# Bulk Modulus (GPa) = 45.58498 78.47732 62.03115
# Shear Modulus (GPa) = 25.51507 31.01678 28.26593
#
# Velocity S-wave (km/s) = 3.70705 4.08722 3.90177
# Velocity P-wave (km/s) = 6.54787 8.03375 7.32856
#
# Compressibility (1/GPa) = 0.02193705
#
# Stress axis : x y z
#
# Youngs Moduli (GPa) = 98.28289 106.95725 28.95682
#
# Poissons Ratio (x) = 0.33428 0.16272
# Poissons Ratio (y) = 0.30717 0.21184
# Poissons Ratio (z) = 0.55230 0.78248
#
# Static dielectric constant tensor:
#      x y z
#    x 4.292460 0.000000 0.000000 
#    y 0.000000 3.362020 0.000000 
#    z 0.000000 0.000000 3.180420 
# 
# 
# High freq. dielectric constant tensor:
#      x y z
#    x 1.740970 0.000000 0.000000 
#    y 0.000000 1.723670 0.000000 
#    z 0.000000 0.000000 1.695600 
# 
# From -- ./inp_files/7825.got.cif
#   From: 2010.03.12/outbox.cif.g09.slc.cpg/sg63_4_cif.got.tgz:7825.got - 2010.04.10 19:34:48.
