data_PCOD8258867
_publ_section_title
;
Structure prediction by ZEFSAII (Michael W. Deem and Ramdas Pophale) SiO2 
 PCOD8258867
Probable space group: C M C M
;
_chemical_formula_sum "Si O2"
_cell_formula_units_Z 64
_cell_length_a 18.726517
_cell_length_b 16.654776
_cell_length_c 8.418841
_cell_angle_alpha 90.000000
_cell_angle_beta 90.000000
_cell_angle_gamma 90.000000
_cell_volume 2625.718189
_symmetry_space_group_name_H-M "C M C M"
_symmetry_group_IT_number 63
_symmetry_cell_setting 'orthorhombic'
loop_
_space_group_symop_operation_xyz
x,y,z
-x,-y,1/2+z
x,-y,-z
-x,y,1/2-z
-x,-y,-z
x,y,1/2-z
-x,y,z
x,-y,1/2+z
1/2+x,1/2+y,z
1/2-x,1/2-y,1/2+z
1/2+x,1/2-y,-z
1/2-x,1/2+y,1/2-z
1/2-x,1/2-y,-z
1/2+x,1/2+y,1/2-z
1/2-x,1/2+y,z
1/2+x,1/2-y,1/2+z
loop_
_atom_site_type_symbol
_atom_site_label
_atom_site_fract_x
_atom_site_fract_y
_atom_site_fract_z
Si Si1 0.418618 0.835591 0.434970
Si Si2 0.923516 0.084807 0.430459
Si Si3 0.677118 0.698691 0.931453
Si Si4 0.709027 0.085516 0.066080
O O1 0.419540 0.855252 0.250000
O O2 0.500000 0.831743 0.501405
O O3 0.375130 0.754018 0.464037
O O4 0.374790 0.906912 0.523106
O O5 0.892714 0.083548 0.250000
O O6 0.864863 0.115509 0.554839
O O7 0.000000 0.132508 0.431001
O O8 0.941940 0.000000 0.500000
O O9 0.684303 0.728922 0.750000
O O10 0.755470 0.671461 0.001140
O O11 0.722980 0.083493 0.250000
O O12 0.738633 0.000000 0.000000
#
# Coordination Sequence:
#
# PCOD8258867 Si02
#       4
#    16  16  16  16
#     4  11  25  46  71 100 135 175 221 273 330 393
#     4  10  20  34  53  81 120 166 215 266 322 386
#     4  12  24  40  64  95 132 171 216 269 328 391
#     4  12  26  46  71  99 134 175 223 275 331 394
#
# _framework density 24.374283999999999
#
# number of rings (size 3 to 8) (size 9 to 14) (size 15 to 20)
#    0.000    0.750    0.000    8.250    0.000    7.000 
#    0.000    0.000    0.000    0.000    0.000    0.000 
#    0.000    0.000    0.000    0.000    0.000    0.000 
#
# Total GULP energy -396433.440166 kJ/mol
# GULP energy per Si atom -12388.545005 kJ/mol
# Density = 2.431881 g / cm^3
# Si number density = 24.374284 Si / 1000 Ang^3
#
#
#
# Elastic Constant Matrix: (Units=GPa)
#
#
# Indices 1 2 3 4 5 6 
#
# 1 140.9038 -4.4826 22.5427 0.0000 0.0000 0.0000
# 2 -4.4826 35.3163 -0.5199 0.0000 0.0000 0.0000
# 3 22.5427 -0.5199 119.8854 0.0000 0.0000 0.0000
# 4 0.0000 0.0000 0.0000 38.6209 0.0000 0.0000
# 5 0.0000 0.0000 0.0000 0.0000 36.2864 0.0000
# 6 0.0000 0.0000 0.0000 0.0000 0.0000 -14.2859
#
#
#
# Elastic Compliance Matrix: (Units=1/GPa)
#
#
# Indices 1 2 3 4 5 6 
#
# 1 0.007346 0.000912 -0.001377 0.000000 0.000000 0.000000
# 2 0.000912 0.028431 -0.000048 0.000000 0.000000 0.000000
# 3 -0.001377 -0.000048 0.008600 0.000000 0.000000 0.000000
# 4 0.000000 0.000000 0.000000 0.025893 0.000000 0.000000
# 5 0.000000 0.000000 0.000000 0.000000 0.027559 0.000000
# 6 0.000000 0.000000 0.000000 0.000000 0.000000 -0.069999
#
#
# Mechanical properties :
#
#
# Convention : Reuss Voigt Hill
#
# Bulk Modulus (GPa) = 23.06796 36.79844 29.93320
# Shear Modulus (GPa) = 115.45696 30.69530 73.07613
#
# Velocity S-wave (km/s) = 6.88993 3.55256 5.48142
# Velocity P-wave (km/s) = 8.53109 5.65310 7.23661
#
# Compressibility (1/GPa) = 0.04335016
#
# Stress axis : x y z
#
# Youngs Moduli (GPa) = 136.12050 35.17337 116.27780
#
# Poissons Ratio (x) = -0.03208 0.16016
# Poissons Ratio (y) = -0.12417 0.00561
# Poissons Ratio (z) = 0.18750 0.00170
#
# Static dielectric constant tensor:
#      x y z
#    x 4.957610 0.000000 0.000000 
#    y 0.000000 4.739970 0.000000 
#    z 0.000000 0.000000 4.089560 
# 
# 
# High freq. dielectric constant tensor:
#      x y z
#    x 1.995860 0.000000 0.000000 
#    y 0.000000 1.972900 0.000000 
#    z 0.000000 0.000000 1.956300 
# 
# From -- ./inp_files/7472.got.cif
#   From: 2010.03.12/outbox.cif.g09.slc.cpg/sg63_4_cif.got.tgz:7472.got - 2010.04.10 19:34:48.
