data_PCOD8258616
_publ_section_title
;
Structure prediction by ZEFSAII (Michael W. Deem and Ramdas Pophale) SiO2 
 PCOD8258616
Probable space group: C M C M
;
_chemical_formula_sum "Si O2"
_cell_formula_units_Z 96
_cell_length_a 23.693748
_cell_length_b 23.702879
_cell_length_c 9.138765
_cell_angle_alpha 90.000000
_cell_angle_beta 90.000000
_cell_angle_gamma 90.000000
_cell_volume 5132.422195
_symmetry_space_group_name_H-M "C M C M"
_symmetry_group_IT_number 63
_symmetry_cell_setting 'orthorhombic'
loop_
_space_group_symop_operation_xyz
x,y,z
-x,-y,1/2+z
x,-y,-z
-x,y,1/2-z
-x,-y,-z
x,y,1/2-z
-x,y,z
x,-y,1/2+z
1/2+x,1/2+y,z
1/2-x,1/2-y,1/2+z
1/2+x,1/2-y,-z
1/2-x,1/2+y,1/2-z
1/2-x,1/2-y,-z
1/2+x,1/2+y,1/2-z
1/2-x,1/2+y,z
1/2+x,1/2-y,1/2+z
loop_
_atom_site_type_symbol
_atom_site_label
_atom_site_fract_x
_atom_site_fract_y
_atom_site_fract_z
Si Si1 0.232933 0.836216 0.581693
Si Si2 0.864498 0.220994 0.918064
Si Si3 0.339788 0.554224 0.414732
Si Si4 0.935994 0.131976 0.078069
Si Si5 0.434528 0.058347 0.922225
Si Si6 0.860065 0.651265 0.081590
O O1 0.234050 0.815603 0.750000
O O2 0.197030 0.790256 0.490515
O O3 0.205442 0.897117 0.564740
O O4 0.296053 0.844478 0.521882
O O5 0.859519 0.202479 0.750000
O O6 0.884226 0.285635 0.932564
O O7 0.914168 0.186964 0.995691
O O8 0.318882 0.500000 0.500000
O O9 0.345229 0.534094 0.250000
O O10 0.400324 0.577252 0.471219
O O11 0.927267 0.143301 0.250000
O O12 0.000000 0.120219 0.034570
O O13 0.423440 0.051992 0.750000
O O14 0.500000 0.072267 0.955293
O O15 0.396610 0.109034 0.983804
O O16 0.416870 0.000000 0.000000
O O17 0.861587 0.630319 0.250000
#
# Coordination Sequence:
#
# PCOD8258616 Si02
#       6
#    16  16  16  16  16  16
#     4   9  19  36  54  74 106 144 177 212 258 312
#     4  10  20  33  52  80 110 138 172 218 268 311
#     4   9  18  32  50  72  99 132 170 212 256 302
#     4   9  19  36  54  71  98 139 180 215 258 315
#     4  10  22  40  60  81 107 140 177 218 265 316
#     4  10  21  36  56  82 109 139 176 216 259 312
#
# _framework density 18.704618
#
# number of rings (size 3 to 8) (size 9 to 14) (size 15 to 20)
#    0.000    2.500    0.000    2.500    0.000    7.667 
#    0.000    5.000    0.000    0.000    0.000    0.000 
#    0.000    0.000    0.000    0.000    0.000    0.000 
#
# Total GULP energy -595155.094999 kJ/mol
# GULP energy per Si atom -12399.064479 kJ/mol
# Density = 1.866205 g / cm^3
# Si number density = 18.704618 Si / 1000 Ang^3
#
#
#
# Elastic Constant Matrix: (Units=GPa)
#
#
# Indices 1 2 3 4 5 6 
#
# 1 56.2780 17.5655 21.9668 0.0000 0.0000 0.0000
# 2 17.5655 80.8082 36.8287 0.0000 0.0000 0.0000
# 3 21.9668 36.8287 69.4083 0.0000 0.0000 0.0000
# 4 0.0000 0.0000 0.0000 36.3024 0.0000 0.0000
# 5 0.0000 0.0000 0.0000 0.0000 28.9235 0.0000
# 6 0.0000 0.0000 0.0000 0.0000 0.0000 17.6529
#
#
#
# Elastic Compliance Matrix: (Units=1/GPa)
#
#
# Indices 1 2 3 4 5 6 
#
# 1 0.020510 -0.001978 -0.005442 0.000000 0.000000 0.000000
# 2 -0.001978 0.016513 -0.008136 0.000000 0.000000 0.000000
# 3 -0.005442 -0.008136 0.020447 0.000000 0.000000 0.000000
# 4 0.000000 0.000000 0.000000 0.027546 0.000000 0.000000
# 5 0.000000 0.000000 0.000000 0.000000 0.034574 0.000000
# 6 0.000000 0.000000 0.000000 0.000000 0.000000 0.056648
#
#
# Mechanical properties :
#
#
# Convention : Reuss Voigt Hill
#
# Bulk Modulus (GPa) = 37.93838 39.91295 38.92566
# Shear Modulus (GPa) = 23.13361 25.25133 24.19247
#
# Velocity S-wave (km/s) = 3.52061 3.67823 3.60028
# Velocity P-wave (km/s) = 6.07068 6.27886 6.17565
#
# Compressibility (1/GPa) = 0.02635853
#
# Stress axis : x y z
#
# Youngs Moduli (GPa) = 48.75575 60.55854 48.90787
#
# Poissons Ratio (x) = 0.11981 0.26613
# Poissons Ratio (y) = 0.09646 0.39790
# Poissons Ratio (z) = 0.26531 0.49269
#
# Static dielectric constant tensor:
#      x y z
#    x 3.495020 0.000000 0.000000 
#    y 0.000000 3.317070 0.000000 
#    z 0.000000 0.000000 3.441970 
# 
# 
# High freq. dielectric constant tensor:
#      x y z
#    x 1.726810 0.000000 0.000000 
#    y 0.000000 1.726610 0.000000 
#    z 0.000000 0.000000 1.724480 
# 
# From -- ./inp_files/10483.got.cif
#   From: 2010.03.12/outbox.cif.g09.slc.cpg/sg63_6_cif.got.tgz:10483.got - 2010.04.10 19:34:48.
