data_PCOD8258218
_publ_section_title
;
Structure prediction by ZEFSAII (Michael W. Deem and Ramdas Pophale) SiO2 
 PCOD8258218
Probable space group: C M C M
;
_chemical_formula_sum "Si O2"
_cell_formula_units_Z 96
_cell_length_a 9.129795
_cell_length_b 30.814801
_cell_length_c 19.033000
_cell_angle_alpha 90.000000
_cell_angle_beta 90.000000
_cell_angle_gamma 90.000000
_cell_volume 5354.607489
_symmetry_space_group_name_H-M "C M C M"
_symmetry_group_IT_number 63
_symmetry_cell_setting 'orthorhombic'
loop_
_space_group_symop_operation_xyz
x,y,z
-x,-y,1/2+z
x,-y,-z
-x,y,1/2-z
-x,-y,-z
x,y,1/2-z
-x,y,z
x,-y,1/2+z
1/2+x,1/2+y,z
1/2-x,1/2-y,1/2+z
1/2+x,1/2-y,-z
1/2-x,1/2+y,1/2-z
1/2-x,1/2-y,-z
1/2+x,1/2+y,1/2-z
1/2-x,1/2+y,z
1/2+x,1/2-y,1/2+z
loop_
_atom_site_type_symbol
_atom_site_label
_atom_site_fract_x
_atom_site_fract_y
_atom_site_fract_z
Si Si1 0.825409 0.919589 0.076151
Si Si2 0.827443 0.826235 0.589004
Si Si3 0.673412 0.576108 0.080182
Si Si4 0.826270 0.176459 0.929756
Si Si5 0.175093 0.002952 0.671067
Si Si6 0.172854 0.747725 0.169486
O O1 0.769071 0.871026 0.094804
O O2 0.764050 0.954082 0.132185
O O3 0.000000 0.920078 0.076224
O O4 0.767772 0.932539 0.998623
O O5 0.781737 0.875841 0.605758
O O6 0.776992 0.813927 0.509803
O O7 0.744514 0.796956 0.645071
O O8 0.000000 0.819414 0.597859
O O9 0.500000 0.572447 0.078927
O O10 0.738383 0.539815 0.132366
O O11 0.762312 0.212894 0.877543
O O12 0.000000 0.176391 0.926216
O O13 0.236469 0.003261 0.750000
O O14 0.000000 0.002634 0.670559
O O15 0.215382 0.756852 0.250000
O O16 0.000000 0.743545 0.159788
#
# Coordination Sequence:
#
# PCOD8258218 Si02
#       6
#    16  16  16  16  16  16
#     4   8  13  22  36  52  73 104 138 168 201 245
#     4   9  17  30  48  65  82 111 149 182 209 244
#     4   8  14  24  37  54  77 105 136 170 206 240
#     4   8  15  28  44  61  81 108 144 181 214 249
#     4   9  15  20  29  50  80 110 135 161 200 250
#     4  10  20  31  43  62  89 116 139 172 220 263
#
# _framework density 17.928484999999998
#
# number of rings (size 3 to 8) (size 9 to 14) (size 15 to 20)
#    0.000    3.333    0.000    3.000    0.000    3.667 
#    0.000    5.000    0.000    0.000    0.000    0.000 
#    0.000   12.000    0.000    2.667    0.000    1.333 
#
# Total GULP energy -594906.765732 kJ/mol
# GULP energy per Si atom -12393.890953 kJ/mol
# Density = 1.788768 g / cm^3
# Si number density = 17.928485 Si / 1000 Ang^3
#
#
#
# Elastic Constant Matrix: (Units=GPa)
#
#
# Indices 1 2 3 4 5 6 
#
# 1 7.8552 16.2941 17.5879 0.0000 0.0000 0.0000
# 2 16.2941 134.6386 76.5041 0.0000 0.0000 0.0000
# 3 17.5879 76.5041 115.5409 0.0000 0.0000 0.0000
# 4 0.0000 0.0000 0.0000 24.7174 0.0000 0.0000
# 5 0.0000 0.0000 0.0000 0.0000 12.9418 0.0000
# 6 0.0000 0.0000 0.0000 0.0000 0.0000 15.0692
#
#
#
# Elastic Compliance Matrix: (Units=1/GPa)
#
#
# Indices 1 2 3 4 5 6 
#
# 1 0.203225 -0.011249 -0.023487 0.000000 0.000000 0.000000
# 2 -0.011249 0.012530 -0.006584 0.000000 0.000000 0.000000
# 3 -0.023487 -0.006584 0.016590 0.000000 0.000000 0.000000
# 4 0.000000 0.000000 0.000000 0.040457 0.000000 0.000000
# 5 0.000000 0.000000 0.000000 0.000000 0.077269 0.000000
# 6 0.000000 0.000000 0.000000 0.000000 0.000000 0.066360
#
#
# Mechanical properties :
#
#
# Convention : Reuss Voigt Hill
#
# Bulk Modulus (GPa) = 6.67981 53.20075 29.94028
# Shear Modulus (GPa) = 9.10792 20.38893 14.74842
#
# Velocity S-wave (km/s) = 2.25636 3.37595 2.87126
# Velocity P-wave (km/s) = 3.24378 6.70331 5.26576
#
# Compressibility (1/GPa) = 0.14970477
#
# Stress axis : x y z
#
# Youngs Moduli (GPa) = 4.92065 79.80914 60.27769
#
# Poissons Ratio (x) = 0.89774 1.41575
# Poissons Ratio (y) = 0.05535 0.39688
# Poissons Ratio (z) = 0.11557 0.52548
#
# Static dielectric constant tensor:
#      x y z
#    x 2.554160 0.000000 0.000000 
#    y 0.000000 3.703490 0.000000 
#    z 0.000000 0.000000 3.514730 
# 
# 
# High freq. dielectric constant tensor:
#      x y z
#    x 1.610680 0.000000 0.000000 
#    y 0.000000 1.711380 0.000000 
#    z 0.000000 0.000000 1.695620 
# 
# From -- ./inp_files/42666.got.cif
#   From: 2010.03.12/outbox.cif.g09.slc.cpg/sg63_22_cif.got.tgz:42666.got - 2010.04.10 19:34:48.
