data_PCOD8258197
_publ_section_title
;
Structure prediction by ZEFSAII (Michael W. Deem and Ramdas Pophale) SiO2 
 PCOD8258197
Probable space group: C M C M
;
_chemical_formula_sum "Si O2"
_cell_formula_units_Z 64
_cell_length_a 16.502676
_cell_length_b 16.969077
_cell_length_c 14.274040
_cell_angle_alpha 90.000000
_cell_angle_beta 90.000000
_cell_angle_gamma 90.000000
_cell_volume 3997.233357
_symmetry_space_group_name_H-M "C M C M"
_symmetry_group_IT_number 63
_symmetry_cell_setting 'orthorhombic'
loop_
_space_group_symop_operation_xyz
x,y,z
-x,-y,1/2+z
x,-y,-z
-x,y,1/2-z
-x,-y,-z
x,y,1/2-z
-x,y,z
x,-y,1/2+z
1/2+x,1/2+y,z
1/2-x,1/2-y,1/2+z
1/2+x,1/2-y,-z
1/2-x,1/2+y,1/2-z
1/2-x,1/2-y,-z
1/2+x,1/2+y,1/2-z
1/2-x,1/2+y,z
1/2+x,1/2-y,1/2+z
loop_
_atom_site_type_symbol
_atom_site_label
_atom_site_fract_x
_atom_site_fract_y
_atom_site_fract_z
Si Si1 0.092665 0.745574 0.250000
Si Si2 0.229689 0.464403 0.750000
Si Si3 0.186539 0.111418 0.750000
Si Si4 0.210707 0.669701 0.107293
Si Si5 0.807343 0.679334 0.894617
Si Si6 0.093278 0.401708 0.250000
O O1 0.101250 0.841793 0.250000
O O2 0.134351 0.709985 0.157945
O O3 0.000000 0.721048 0.250000
O O4 0.313299 0.516230 0.750000
O O5 0.231917 0.412100 0.843114
O O6 0.150006 0.520428 0.750000
O O7 0.233116 0.136372 0.844128
O O8 0.289912 0.726579 0.111010
O O9 0.185714 0.650998 0.001308
O O10 0.889282 0.653332 0.841028
O O11 0.000000 0.428588 0.250000
#
# Coordination Sequence:
#
# PCOD8258197 Si02
#       6
#     8   8   8  16  16   8
#     4   9  17  28  42  64  91 113 138 174 216 261
#     4   9  17  28  44  66  87 109 144 180 212 255
#     4   8  16  28  42  62  88 116 142 172 212 256
#     4   9  16  29  50  68  81 107 151 191 214 241
#     4   8  16  31  47  64  84 113 150 182 214 248
#     4  10  20  30  40  62  98 126 140 166 216 274
#
# _framework density 16.011075000000002
#
# number of rings (size 3 to 8) (size 9 to 14) (size 15 to 20)
#    0.000    3.500    0.000    2.250    0.000    7.000 
#    0.000    1.250    0.000    3.000    0.000   15.750 
#    0.000    0.000    0.000    0.000    0.000    0.000 
#
# Total GULP energy -396418.772531 kJ/mol
# GULP energy per Si atom -12388.086642 kJ/mol
# Density = 1.597463 g / cm^3
# Si number density = 16.011075 Si / 1000 Ang^3
#
#
#
# Elastic Constant Matrix: (Units=GPa)
#
#
# Indices 1 2 3 4 5 6 
#
# 1 23.3506 15.9098 17.1221 0.0000 0.0000 0.0000
# 2 15.9098 105.4155 45.2995 0.0000 0.0000 0.0000
# 3 17.1221 45.2995 150.1051 0.0000 0.0000 0.0000
# 4 0.0000 0.0000 0.0000 13.4093 0.0000 0.0000
# 5 0.0000 0.0000 0.0000 0.0000 5.9375 0.0000
# 6 0.0000 0.0000 0.0000 0.0000 0.0000 16.6336
#
#
#
# Elastic Compliance Matrix: (Units=1/GPa)
#
#
# Indices 1 2 3 4 5 6 
#
# 1 0.049653 -0.005814 -0.003909 0.000000 0.000000 0.000000
# 2 -0.005814 0.011581 -0.002832 0.000000 0.000000 0.000000
# 3 -0.003909 -0.002832 0.007962 0.000000 0.000000 0.000000
# 4 0.000000 0.000000 0.000000 0.074575 0.000000 0.000000
# 5 0.000000 0.000000 0.000000 0.000000 0.168422 0.000000
# 6 0.000000 0.000000 0.000000 0.000000 0.000000 0.060119
#
#
# Mechanical properties :
#
#
# Convention : Reuss Voigt Hill
#
# Bulk Modulus (GPa) = 22.68265 48.39266 35.53765
# Shear Modulus (GPa) = 12.13246 20.56541 16.34894
#
# Velocity S-wave (km/s) = 2.75572 3.58781 3.19893
# Velocity P-wave (km/s) = 4.93183 6.88863 5.99067
#
# Compressibility (1/GPa) = 0.04408656
#
# Stress axis : x y z
#
# Youngs Moduli (GPa) = 20.13962 86.35146 125.58919
#
# Poissons Ratio (x) = 0.50205 0.49096
# Poissons Ratio (y) = 0.11709 0.35562
# Poissons Ratio (z) = 0.07873 0.24452
#
# Static dielectric constant tensor:
#      x y z
#    x 2.684330 0.000000 0.000000 
#    y 0.000000 3.248860 0.000000 
#    z 0.000000 0.000000 3.154260 
# 
# 
# High freq. dielectric constant tensor:
#      x y z
#    x 1.566500 0.000000 0.000000 
#    y 0.000000 1.618760 0.000000 
#    z 0.000000 0.000000 1.627820 
# 
# From -- ./inp_files/33615.got.cif
#   From: 2010.03.12/outbox.cif.g09.slc.cpg/sg63_17_cif.got.tgz:33615.got - 2010.04.10 19:34:48.
