data_PCOD8258612
_publ_section_title
;
Structure prediction by ZEFSAII (Michael W. Deem and Ramdas Pophale) SiO2 
 PCOD8258612
Probable space group: C M C M
;
_chemical_formula_sum "Si O2"
_cell_formula_units_Z 96
_cell_length_a 23.505423
_cell_length_b 25.555151
_cell_length_c 8.455529
_cell_angle_alpha 90.000000
_cell_angle_beta 90.000000
_cell_angle_gamma 90.000000
_cell_volume 5079.106343
_symmetry_space_group_name_H-M "C M C M"
_symmetry_group_IT_number 63
_symmetry_cell_setting 'orthorhombic'
loop_
_space_group_symop_operation_xyz
x,y,z
-x,-y,1/2+z
x,-y,-z
-x,y,1/2-z
-x,-y,-z
x,y,1/2-z
-x,y,z
x,-y,1/2+z
1/2+x,1/2+y,z
1/2-x,1/2-y,1/2+z
1/2+x,1/2-y,-z
1/2-x,1/2+y,1/2-z
1/2-x,1/2-y,-z
1/2+x,1/2+y,1/2-z
1/2-x,1/2+y,z
1/2+x,1/2-y,1/2+z
loop_
_atom_site_type_symbol
_atom_site_label
_atom_site_fract_x
_atom_site_fract_y
_atom_site_fract_z
Si Si1 0.678210 0.943305 0.564684
Si Si2 0.148036 0.155508 0.564793
Si Si3 0.063308 0.753569 0.063638
Si Si4 0.129237 0.655117 0.930978
Si Si5 0.190423 0.942614 0.563466
Si Si6 0.240454 0.694094 0.432249
O O1 0.672197 0.944018 0.750000
O O2 0.629061 0.903845 0.500094
O O3 0.743531 0.927171 0.520239
O O4 0.662858 0.000000 0.500000
O O5 0.160540 0.165456 0.750000
O O6 0.098209 0.194826 0.506395
O O7 0.142334 0.093660 0.526489
O O8 0.200715 0.164538 0.447758
O O9 0.060186 0.754973 0.250000
O O10 0.000000 0.757728 0.990393
O O11 0.089981 0.697882 0.016785
O O12 0.110492 0.654206 0.750000
O O13 0.194327 0.670372 0.951875
O O14 0.180432 0.940536 0.750000
O O15 0.177808 0.000000 0.500000
O O16 0.219269 0.693584 0.250000
O O17 0.250000 0.750000 0.500000
#
# Coordination Sequence:
#
# PCOD8258612 Si02
#       6
#    16  16  16  16  16  16
#     4  10  20  34  53  80 117 154 188 225 272 332
#     4  11  21  34  56  82 113 148 185 229 281 339
#     4  10  23  42  61  81 109 148 192 238 287 336
#     4  12  23  35  56  83 115 151 187 230 279 336
#     4  10  20  33  52  79 116 153 187 225 273 331
#     4  12  22  33  50  79 114 148 183 224 278 339
#
# _framework density 18.900962
#
# number of rings (size 3 to 8) (size 9 to 14) (size 15 to 20)
#    0.000    1.167    3.333    4.500    0.000    2.333 
#    0.000    0.000    0.000    1.000    0.000    0.000 
#    0.000    0.000    0.000    0.000    0.000    0.000 
#
# Total GULP energy -594677.039622 kJ/mol
# GULP energy per Si atom -12389.104992 kJ/mol
# Density = 1.885794 g / cm^3
# Si number density = 18.900962 Si / 1000 Ang^3
#
#
#
# Elastic Constant Matrix: (Units=GPa)
#
#
# Indices 1 2 3 4 5 6 
#
# 1 89.7948 54.7833 9.2597 0.0000 0.0000 0.0000
# 2 54.7833 135.8179 25.9017 0.0000 0.0000 0.0000
# 3 9.2597 25.9017 46.4996 0.0000 0.0000 0.0000
# 4 0.0000 0.0000 0.0000 33.0701 0.0000 0.0000
# 5 0.0000 0.0000 0.0000 0.0000 15.8843 0.0000
# 6 0.0000 0.0000 0.0000 0.0000 0.0000 13.2983
#
#
#
# Elastic Compliance Matrix: (Units=1/GPa)
#
#
# Indices 1 2 3 4 5 6 
#
# 1 0.014779 -0.006042 0.000422 0.000000 0.000000 0.000000
# 2 -0.006042 0.010708 -0.004761 0.000000 0.000000 0.000000
# 3 0.000422 -0.004761 0.024074 0.000000 0.000000 0.000000
# 4 0.000000 0.000000 0.000000 0.030239 0.000000 0.000000
# 5 0.000000 0.000000 0.000000 0.000000 0.062955 0.000000
# 6 0.000000 0.000000 0.000000 0.000000 0.000000 0.075198
#
#
# Mechanical properties :
#
#
# Convention : Reuss Voigt Hill
#
# Bulk Modulus (GPa) = 34.72349 50.22241 42.47295
# Shear Modulus (GPa) = 20.13584 24.59506 22.36545
#
# Velocity S-wave (km/s) = 3.26749 3.61121 3.44364
# Velocity P-wave (km/s) = 5.71371 6.63452 6.19126
#
# Compressibility (1/GPa) = 0.02879895
#
# Stress axis : x y z
#
# Youngs Moduli (GPa) = 67.66357 93.38930 41.53906
#
# Poissons Ratio (x) = 0.56424 -0.01755
# Poissons Ratio (y) = 0.40881 0.19779
# Poissons Ratio (z) = -0.02858 0.44467
#
# Static dielectric constant tensor:
#      x y z
#    x 3.377890 0.000000 0.000000 
#    y 0.000000 3.826380 0.000000 
#    z 0.000000 0.000000 3.389740 
# 
# 
# High freq. dielectric constant tensor:
#      x y z
#    x 1.680810 0.000000 0.000000 
#    y 0.000000 1.761960 0.000000 
#    z 0.000000 0.000000 1.740120 
# 
# From -- ./inp_files/8554.got.cif
#   From: 2010.03.12/outbox.cif.g09.slc.cpg/sg63_5_cif.got.tgz:8554.got - 2010.04.10 19:34:48.
