data_PCOD8258985
_publ_section_title
;
Structure prediction by ZEFSAII (Michael W. Deem and Ramdas Pophale) SiO2 
 PCOD8258985
Probable space group: C M C M
;
_chemical_formula_sum "Si O2"
_cell_formula_units_Z 72
_cell_length_a 16.248179
_cell_length_b 24.539372
_cell_length_c 9.450553
_cell_angle_alpha 90.000000
_cell_angle_beta 90.000000
_cell_angle_gamma 90.000000
_cell_volume 3768.125520
_symmetry_space_group_name_H-M "C M C M"
_symmetry_group_IT_number 63
_symmetry_cell_setting 'orthorhombic'
loop_
_space_group_symop_operation_xyz
x,y,z
-x,-y,1/2+z
x,-y,-z
-x,y,1/2-z
-x,-y,-z
x,y,1/2-z
-x,y,z
x,-y,1/2+z
1/2+x,1/2+y,z
1/2-x,1/2-y,1/2+z
1/2+x,1/2-y,-z
1/2-x,1/2+y,1/2-z
1/2-x,1/2-y,-z
1/2+x,1/2+y,1/2-z
1/2-x,1/2+y,z
1/2+x,1/2-y,1/2+z
loop_
_atom_site_type_symbol
_atom_site_label
_atom_site_fract_x
_atom_site_fract_y
_atom_site_fract_z
Si Si1 0.597246 0.450033 0.590900
Si Si2 0.406873 0.246916 0.090004
Si Si3 0.364408 0.141921 0.586147
Si Si4 0.175457 0.142250 0.585907
Si Si5 0.500000 0.055953 0.915887
O O1 0.634564 0.500000 0.500000
O O2 0.634240 0.451742 0.750000
O O3 0.500000 0.454822 0.598656
O O4 0.619823 0.394215 0.514585
O O5 0.389524 0.228112 0.250000
O O6 0.500000 0.268749 0.073023
O O7 0.344513 0.295187 0.047501
O O8 0.393629 0.195448 0.992400
O O9 0.377866 0.154612 0.750000
O O10 0.269967 0.129000 0.551496
O O11 0.419057 0.090213 0.539930
O O12 0.153810 0.130436 0.750000
O O13 0.500000 0.042489 0.750000
O O14 0.500000 0.000000 0.000000
#
# Coordination Sequence:
#
# PCOD8258985 Si02
#       5
#    16  16  16  16   8
#     4  10  21  37  57  81 111 149 189 230 280 337
#     4  10  20  34  55  83 115 150 187 229 285 345
#     4  10  21  38  58  81 112 148 188 237 289 340
#     4  10  21  36  56  84 116 149 188 235 287 343
#     4  10  22  40  60  82 108 146 193 240 289 340
#
# _framework density 19.107644000000001
#
# number of rings (size 3 to 8) (size 9 to 14) (size 15 to 20)
#    0.000    2.000    1.111    2.000    0.000    5.778 
#    0.000    2.222    0.000    0.000    0.000    0.000 
#    0.000    0.000    0.000    0.000    0.000    0.000 
#
# Total GULP energy -446502.786090 kJ/mol
# GULP energy per Si atom -12402.855169 kJ/mol
# Density = 1.906415 g / cm^3
# Si number density = 19.107644 Si / 1000 Ang^3
#
#
#
# Elastic Constant Matrix: (Units=GPa)
#
#
# Indices 1 2 3 4 5 6 
#
# 1 58.3337 37.9426 31.3305 0.0000 0.0000 0.0000
# 2 37.9426 135.7265 70.5142 0.0000 0.0000 0.0000
# 3 31.3305 70.5142 90.2757 0.0000 0.0000 0.0000
# 4 0.0000 0.0000 0.0000 38.2423 0.0000 0.0000
# 5 0.0000 0.0000 0.0000 0.0000 21.5895 0.0000
# 6 0.0000 0.0000 0.0000 0.0000 0.0000 2.1241
#
#
#
# Elastic Compliance Matrix: (Units=1/GPa)
#
#
# Indices 1 2 3 4 5 6 
#
# 1 0.022119 -0.003694 -0.004791 0.000000 0.000000 0.000000
# 2 -0.003694 0.013017 -0.008885 0.000000 0.000000 0.000000
# 3 -0.004791 -0.008885 0.019680 0.000000 0.000000 0.000000
# 4 0.000000 0.000000 0.000000 0.026149 0.000000 0.000000
# 5 0.000000 0.000000 0.000000 0.000000 0.046319 0.000000
# 6 0.000000 0.000000 0.000000 0.000000 0.000000 0.470788
#
#
# Mechanical properties :
#
#
# Convention : Reuss Voigt Hill
#
# Bulk Modulus (GPa) = 49.81344 62.65672 56.23508
# Shear Modulus (GPa) = 7.81856 22.02775 14.92315
#
# Velocity S-wave (km/s) = 2.02503 3.39901 2.79768
# Velocity P-wave (km/s) = 5.62087 6.94744 6.31906
#
# Compressibility (1/GPa) = 0.02007490
#
# Stress axis : x y z
#
# Youngs Moduli (GPa) = 45.21045 76.82484 50.81319
#
# Poissons Ratio (x) = 0.28382 0.24343
# Poissons Ratio (y) = 0.16703 0.45148
# Poissons Ratio (z) = 0.21659 0.68260
#
# Static dielectric constant tensor:
#      x y z
#    x 3.651960 0.000000 0.000000 
#    y 0.000000 3.353280 0.000000 
#    z 0.000000 0.000000 3.581840 
# 
# 
# High freq. dielectric constant tensor:
#      x y z
#    x 1.744170 0.000000 0.000000 
#    y 0.000000 1.742440 0.000000 
#    z 0.000000 0.000000 1.744670 
# 
# From -- ./inp_files/4600.got.cif
#   From: 2010.03.12/outbox.cif.g09.slc.cpg/sg63_3_cif.got.tgz:4600.got - 2010.04.10 19:34:48.
