data_PCOD8258870
_publ_section_title
;
Structure prediction by ZEFSAII (Michael W. Deem and Ramdas Pophale) SiO2 
 PCOD8258870
Probable space group: C M C M
;
_chemical_formula_sum "Si O2"
_cell_formula_units_Z 56
_cell_length_a 32.490086
_cell_length_b 8.945989
_cell_length_c 10.610784
_cell_angle_alpha 90.000000
_cell_angle_beta 90.000000
_cell_angle_gamma 90.000000
_cell_volume 3084.087525
_symmetry_space_group_name_H-M "C M C M"
_symmetry_group_IT_number 63
_symmetry_cell_setting 'orthorhombic'
loop_
_space_group_symop_operation_xyz
x,y,z
-x,-y,1/2+z
x,-y,-z
-x,y,1/2-z
-x,-y,-z
x,y,1/2-z
-x,y,z
x,-y,1/2+z
1/2+x,1/2+y,z
1/2-x,1/2-y,1/2+z
1/2+x,1/2-y,-z
1/2-x,1/2+y,1/2-z
1/2-x,1/2-y,-z
1/2+x,1/2+y,1/2-z
1/2-x,1/2+y,z
1/2+x,1/2-y,1/2+z
loop_
_atom_site_type_symbol
_atom_site_label
_atom_site_fract_x
_atom_site_fract_y
_atom_site_fract_z
Si Si1 0.547337 0.890259 0.609657
Si Si2 0.303535 0.279358 0.108969
Si Si3 0.756618 0.500000 0.500000
Si Si4 0.891740 0.118006 0.895275
O O1 0.552553 0.962712 0.750000
O O2 0.500000 0.846785 0.585174
O O3 0.573655 0.742137 0.601724
O O4 0.563211 0.000000 0.500000
O O5 0.310292 0.230455 0.250000
O O6 0.285493 0.132324 0.045536
O O7 0.348185 0.318659 0.053055
O O8 0.273510 0.423713 0.102574
O O9 0.887582 0.055209 0.750000
O O10 0.906296 0.000000 0.000000
#
# Coordination Sequence:
#
# PCOD8258870 Si02
#       4
#    16  16   8  16
#     4   9  19  36  58  82 109 139 174 217 263 314
#     4  10  20  35  52  75 104 137 174 220 264 309
#     4  10  20  34  54  74 100 136 178 218 258 320
#     4  10  21  37  54  78 111 141 177 219 264 313
#
# _framework density 18.157720000000001
#
# number of rings (size 3 to 8) (size 9 to 14) (size 15 to 20)
#    0.000    2.286    1.429    0.857    2.000    1.714 
#    0.000    1.429    0.000    0.000    0.000    0.000 
#    0.000    0.000    0.000    0.000    0.000    0.000 
#
# Total GULP energy -346942.158245 kJ/mol
# GULP energy per Si atom -12390.791366 kJ/mol
# Density = 1.811639 g / cm^3
# Si number density = 18.157720 Si / 1000 Ang^3
#
#
#
# Elastic Constant Matrix: (Units=GPa)
#
#
# Indices 1 2 3 4 5 6 
#
# 1 64.8156 32.7191 32.6236 0.0000 0.0000 0.0000
# 2 32.7191 80.3525 57.1425 0.0000 0.0000 0.0000
# 3 32.6236 57.1425 104.0595 0.0000 0.0000 0.0000
# 4 0.0000 0.0000 0.0000 27.7554 0.0000 0.0000
# 5 0.0000 0.0000 0.0000 0.0000 26.8355 0.0000
# 6 0.0000 0.0000 0.0000 0.0000 0.0000 21.4733
#
#
#
# Elastic Compliance Matrix: (Units=1/GPa)
#
#
# Indices 1 2 3 4 5 6 
#
# 1 0.019955 -0.006032 -0.002944 0.000000 0.000000 0.000000
# 2 -0.006032 0.022243 -0.010323 0.000000 0.000000 0.000000
# 3 -0.002944 -0.010323 0.016201 0.000000 0.000000 0.000000
# 4 0.000000 0.000000 0.000000 0.036029 0.000000 0.000000
# 5 0.000000 0.000000 0.000000 0.000000 0.037264 0.000000
# 6 0.000000 0.000000 0.000000 0.000000 0.000000 0.046569
#
#
# Mechanical properties :
#
#
# Convention : Reuss Voigt Hill
#
# Bulk Modulus (GPa) = 50.50137 54.91091 52.70614
# Shear Modulus (GPa) = 22.37536 23.66232 23.01884
#
# Velocity S-wave (km/s) = 3.51419 3.61384 3.56436
# Velocity P-wave (km/s) = 6.65876 6.90796 6.78450
#
# Compressibility (1/GPa) = 0.01980144
#
# Stress axis : x y z
#
# Youngs Moduli (GPa) = 50.11249 44.95860 61.72291
#
# Poissons Ratio (x) = 0.27120 0.18169
# Poissons Ratio (y) = 0.30229 0.63717
# Poissons Ratio (z) = 0.14751 0.46411
#
# Static dielectric constant tensor:
#      x y z
#    x 3.554370 0.000000 0.000000 
#    y 0.000000 3.241070 0.000000 
#    z 0.000000 0.000000 3.710300 
# 
# 
# High freq. dielectric constant tensor:
#      x y z
#    x 1.718000 0.000000 0.000000 
#    y 0.000000 1.688890 0.000000 
#    z 0.000000 0.000000 1.705620 
# 
# From -- ./inp_files/24572.got.cif
#   From: 2010.03.12/outbox.cif.g09.slc.cpg/sg63_13_cif.got.tgz:24572.got - 2010.04.10 19:34:48.
