data_PCOD8258681
_publ_section_title
;
Structure prediction by ZEFSAII (Michael W. Deem and Ramdas Pophale) SiO2 
 PCOD8258681
Probable space group: C M C M
;
_chemical_formula_sum "Si O2"
_cell_formula_units_Z 96
_cell_length_a 14.353277
_cell_length_b 14.801787
_cell_length_c 22.274861
_cell_angle_alpha 90.000000
_cell_angle_beta 90.000000
_cell_angle_gamma 90.000000
_cell_volume 4732.386636
_symmetry_space_group_name_H-M "C M C M"
_symmetry_group_IT_number 63
_symmetry_cell_setting 'orthorhombic'
loop_
_space_group_symop_operation_xyz
x,y,z
-x,-y,1/2+z
x,-y,-z
-x,y,1/2-z
-x,-y,-z
x,y,1/2-z
-x,y,z
x,-y,1/2+z
1/2+x,1/2+y,z
1/2-x,1/2-y,1/2+z
1/2+x,1/2-y,-z
1/2-x,1/2+y,1/2-z
1/2-x,1/2-y,-z
1/2+x,1/2+y,1/2-z
1/2-x,1/2+y,z
1/2+x,1/2-y,1/2+z
loop_
_atom_site_type_symbol
_atom_site_label
_atom_site_fract_x
_atom_site_fract_y
_atom_site_fract_z
Si Si1 0.388750 0.360456 0.880006
Si Si2 0.399289 0.784870 0.605941
Si Si3 0.101772 0.516421 0.433512
Si Si4 0.891121 0.871927 0.018618
Si Si5 0.756055 0.724769 0.820062
Si Si6 0.785607 0.962576 0.380875
O O1 0.500000 0.363223 0.869404
O O2 0.348628 0.267022 0.851416
O O3 0.339541 0.450756 0.851310
O O4 0.359987 0.359471 0.950002
O O5 0.500000 0.753291 0.631082
O O6 0.364333 0.719085 0.553399
O O7 0.328156 0.791419 0.661566
O O8 0.408477 0.878143 0.572977
O O9 0.138835 0.500000 0.500000
O O10 0.175682 0.479169 0.386620
O O11 0.000000 0.470159 0.422777
O O12 0.835549 0.950255 0.054087
O O13 0.000000 0.896454 0.022316
O O14 0.775286 0.724402 0.750000
O O15 0.716066 0.626431 0.839558
#
# Coordination Sequence:
#
# PCOD8258681 Si02
#       6
#    16  16  16  16  16  16
#     4  11  23  41  66  95 127 165 203 252 314 378
#     4   9  19  38  62  89 119 154 196 247 304 366
#     4  10  20  33  56  92 128 156 190 239 304 382
#     4   9  19  35  61  95 128 155 192 246 311 379
#     4  11  26  43  60  85 119 161 213 264 305 354
#     4  11  22  38  63  91 126 162 204 252 312 372
#
# _framework density 20.285747000000001
#
# number of rings (size 3 to 8) (size 9 to 14) (size 15 to 20)
#    0.000    1.833    1.667    2.000    2.333    5.333 
#    0.000    0.000    0.000    0.000    0.000    0.000 
#    0.000    0.000    0.000    0.000    0.000    0.000 
#
# Total GULP energy -594773.695842 kJ/mol
# GULP energy per Si atom -12391.118663 kJ/mol
# Density = 2.023958 g / cm^3
# Si number density = 20.285747 Si / 1000 Ang^3
#
#
#
# Elastic Constant Matrix: (Units=GPa)
#
#
# Indices 1 2 3 4 5 6 
#
# 1 108.5365 28.2261 35.8695 0.0000 0.0000 0.0000
# 2 28.2261 63.7187 31.7484 0.0000 0.0000 0.0000
# 3 35.8695 31.7484 87.0187 0.0000 0.0000 0.0000
# 4 0.0000 0.0000 0.0000 16.1765 0.0000 0.0000
# 5 0.0000 0.0000 0.0000 0.0000 10.0453 0.0000
# 6 0.0000 0.0000 0.0000 0.0000 0.0000 23.2256
#
#
#
# Elastic Compliance Matrix: (Units=1/GPa)
#
#
# Indices 1 2 3 4 5 6 
#
# 1 0.011191 -0.003250 -0.003427 0.000000 0.000000 0.000000
# 2 -0.003250 0.020124 -0.006003 0.000000 0.000000 0.000000
# 3 -0.003427 -0.006003 0.015095 0.000000 0.000000 0.000000
# 4 0.000000 0.000000 0.000000 0.061818 0.000000 0.000000
# 5 0.000000 0.000000 0.000000 0.000000 0.099549 0.000000
# 6 0.000000 0.000000 0.000000 0.000000 0.000000 0.043056
#
#
# Mechanical properties :
#
#
# Convention : Reuss Voigt Hill
#
# Bulk Modulus (GPa) = 47.50478 50.10690 48.80584
# Shear Modulus (GPa) = 17.65475 20.78482 19.21979
#
# Velocity S-wave (km/s) = 2.95329 3.20441 3.08141
# Velocity P-wave (km/s) = 5.92435 6.20042 6.06395
#
# Compressibility (1/GPa) = 0.02105051
#
# Stress axis : x y z
#
# Youngs Moduli (GPa) = 89.35477 49.69068 66.24851
#
# Poissons Ratio (x) = 0.16148 0.22706
# Poissons Ratio (y) = 0.29038 0.39767
# Poissons Ratio (z) = 0.30626 0.29828
#
# Static dielectric constant tensor:
#      x y z
#    x 4.109660 0.000000 0.000000 
#    y 0.000000 3.797440 0.000000 
#    z 0.000000 0.000000 3.350430 
# 
# 
# High freq. dielectric constant tensor:
#      x y z
#    x 1.809030 0.000000 0.000000 
#    y 0.000000 1.801440 0.000000 
#    z 0.000000 0.000000 1.747300 
# 
# From -- ./inp_files/54182.got.cif
#   From: 2010.03.12/outbox.cif.g09.slc.cpg/sg63_28_cif.got.tgz:54182.got - 2010.04.10 19:34:48.
