data_PCOD8258427
_publ_section_title
;
Structure prediction by ZEFSAII (Michael W. Deem and Ramdas Pophale) SiO2 
 PCOD8258427
Probable space group: C M C M
;
_chemical_formula_sum "Si O2"
_cell_formula_units_Z 96
_cell_length_a 24.000139
_cell_length_b 24.123722
_cell_length_c 9.235222
_cell_angle_alpha 90.000000
_cell_angle_beta 90.000000
_cell_angle_gamma 90.000000
_cell_volume 5346.941243
_symmetry_space_group_name_H-M "C M C M"
_symmetry_group_IT_number 63
_symmetry_cell_setting 'orthorhombic'
loop_
_space_group_symop_operation_xyz
x,y,z
-x,-y,1/2+z
x,-y,-z
-x,y,1/2-z
-x,-y,-z
x,y,1/2-z
-x,y,z
x,-y,1/2+z
1/2+x,1/2+y,z
1/2-x,1/2-y,1/2+z
1/2+x,1/2-y,-z
1/2-x,1/2+y,1/2-z
1/2-x,1/2-y,-z
1/2+x,1/2+y,1/2-z
1/2-x,1/2+y,z
1/2+x,1/2-y,1/2+z
loop_
_atom_site_type_symbol
_atom_site_label
_atom_site_fract_x
_atom_site_fract_y
_atom_site_fract_z
Si Si1 0.854466 0.151792 0.078956
Si Si2 0.354823 0.945108 0.582099
Si Si3 0.563950 0.127603 0.917831
Si Si4 0.645430 0.224586 0.919121
Si Si5 0.729140 0.846863 0.917458
Si Si6 0.935905 0.943552 0.920272
O O1 0.857946 0.147103 0.250000
O O2 0.871554 0.213778 0.028604
O O3 0.791369 0.141039 0.024985
O O4 0.897146 0.105969 0.015765
O O5 0.365141 0.957555 0.750000
O O6 0.411943 0.922139 0.513863
O O7 0.305256 0.902386 0.555163
O O8 0.336151 0.000000 0.500000
O O9 0.572856 0.112429 0.750000
O O10 0.500000 0.135360 0.958156
O O11 0.593827 0.185136 0.958276
O O12 0.659313 0.224322 0.750000
O O13 0.701545 0.204304 0.997797
O O14 0.730137 0.829656 0.750000
O O15 0.926518 0.952528 0.750000
O O16 0.000000 0.927964 0.953984
O O17 0.918495 0.000000 0.000000
#
# Coordination Sequence:
#
# PCOD8258427 Si02
#       6
#    16  16  16  16  16  16
#     4   9  17  30  50  74  97 124 158 192 229 278
#     4  10  20  33  49  68  92 124 160 197 237 279
#     4   9  18  32  49  70  96 124 155 193 235 278
#     4   9  17  30  49  72  97 124 155 192 232 275
#     4   9  18  32  48  68  97 128 155 189 235 281
#     4   9  18  33  51  70  95 126 158 194 235 276
#
# _framework density 17.954190000000001
#
# number of rings (size 3 to 8) (size 9 to 14) (size 15 to 20)
#    0.000    2.833    0.000    1.000    0.000    2.667 
#    0.000    5.000    0.000    0.000    0.000    2.333 
#    0.000    0.000    0.000    0.000    0.000    0.000 
#
# Total GULP energy -595161.076238 kJ/mol
# GULP energy per Si atom -12399.189088 kJ/mol
# Density = 1.791333 g / cm^3
# Si number density = 17.954190 Si / 1000 Ang^3
#
#
#
# Elastic Constant Matrix: (Units=GPa)
#
#
# Indices 1 2 3 4 5 6 
#
# 1 82.6909 42.6254 21.7261 0.0000 0.0000 0.0000
# 2 42.6254 123.0411 36.8946 0.0000 0.0000 0.0000
# 3 21.7261 36.8946 45.0409 0.0000 0.0000 0.0000
# 4 0.0000 0.0000 0.0000 23.3730 0.0000 0.0000
# 5 0.0000 0.0000 0.0000 0.0000 20.0767 0.0000
# 6 0.0000 0.0000 0.0000 0.0000 0.0000 27.3452
#
#
#
# Elastic Compliance Matrix: (Units=1/GPa)
#
#
# Indices 1 2 3 4 5 6 
#
# 1 0.015251 -0.004080 -0.004015 0.000000 0.000000 0.000000
# 2 -0.004080 0.011865 -0.007751 0.000000 0.000000 0.000000
# 3 -0.004015 -0.007751 0.030488 0.000000 0.000000 0.000000
# 4 0.000000 0.000000 0.000000 0.042784 0.000000 0.000000
# 5 0.000000 0.000000 0.000000 0.000000 0.049809 0.000000
# 6 0.000000 0.000000 0.000000 0.000000 0.000000 0.036570
#
#
# Mechanical properties :
#
#
# Convention : Reuss Voigt Hill
#
# Bulk Modulus (GPa) = 38.59104 50.36278 44.47691
# Shear Modulus (GPa) = 22.01721 24.12742 23.07231
#
# Velocity S-wave (km/s) = 3.50565 3.66981 3.58867
# Velocity P-wave (km/s) = 6.15849 6.78736 6.48056
#
# Compressibility (1/GPa) = 0.02591275
#
# Stress axis : x y z
#
# Youngs Moduli (GPa) = 65.56943 84.28238 32.80003
#
# Poissons Ratio (x) = 0.34384 0.13168
# Poissons Ratio (y) = 0.26750 0.25424
# Poissons Ratio (z) = 0.26325 0.65328
#
# Static dielectric constant tensor:
#      x y z
#    x 3.419340 0.000000 0.000000 
#    y 0.000000 3.495990 0.000000 
#    z 0.000000 0.000000 3.173390 
# 
# 
# High freq. dielectric constant tensor:
#      x y z
#    x 1.695790 0.000000 0.000000 
#    y 0.000000 1.701660 0.000000 
#    z 0.000000 0.000000 1.673880 
# 
# From -- ./inp_files/10464.got.cif
#   From: 2010.03.12/outbox.cif.g09.slc.cpg/sg63_6_cif.got.tgz:10464.got - 2010.04.10 19:34:48.
