data_PCOD8258890
_publ_section_title
;
Structure prediction by ZEFSAII (Michael W. Deem and Ramdas Pophale) SiO2 
 PCOD8258890
Probable space group: C M C M
;
_chemical_formula_sum "Si O2"
_cell_formula_units_Z 88
_cell_length_a 17.395032
_cell_length_b 28.269801
_cell_length_c 9.079433
_cell_angle_alpha 90.000000
_cell_angle_beta 90.000000
_cell_angle_gamma 90.000000
_cell_volume 4464.848340
_symmetry_space_group_name_H-M "C M C M"
_symmetry_group_IT_number 63
_symmetry_cell_setting 'orthorhombic'
loop_
_space_group_symop_operation_xyz
x,y,z
-x,-y,1/2+z
x,-y,-z
-x,y,1/2-z
-x,-y,-z
x,y,1/2-z
-x,y,z
x,-y,1/2+z
1/2+x,1/2+y,z
1/2-x,1/2-y,1/2+z
1/2+x,1/2-y,-z
1/2-x,1/2+y,1/2-z
1/2-x,1/2-y,-z
1/2+x,1/2+y,1/2-z
1/2-x,1/2+y,z
1/2+x,1/2-y,1/2+z
loop_
_atom_site_type_symbol
_atom_site_label
_atom_site_fract_x
_atom_site_fract_y
_atom_site_fract_z
Si Si1 0.349423 0.107628 0.423064
Si Si2 0.091390 0.202256 0.412783
Si Si3 0.000000 0.549786 0.078156
Si Si4 0.413340 0.207235 0.422479
Si Si5 0.089014 0.902841 0.576757
Si Si6 0.722984 0.548542 0.925225
O O1 0.331144 0.101517 0.250000
O O2 0.425397 0.079161 0.468861
O O3 0.361370 0.162482 0.465357
O O4 0.278995 0.089954 0.520732
O O5 0.125402 0.209836 0.250000
O O6 0.123978 0.244776 0.512463
O O7 0.115248 0.150245 0.470588
O O8 0.000000 0.203664 0.408577
O O9 0.000000 0.540078 0.250000
O O10 0.000000 0.500000 0.000000
O O11 0.416567 0.213727 0.250000
O O12 0.500000 0.199201 0.483082
O O13 0.104783 0.910617 0.750000
O O14 0.137047 0.939799 0.479963
O O15 0.000000 0.911651 0.540008
O O16 0.725236 0.543482 0.750000
O O17 0.751085 0.500000 0.000000
#
# Coordination Sequence:
#
# PCOD8258890 Si02
#       6
#    16  16   8  16  16  16
#     4  10  20  37  57  80 114 152 192 236 282 331
#     4   8  15  29  52  83 116 147 180 223 275 330
#     4  10  20  34  54  78 106 144 192 240 283 330
#     4   9  16  29  52  82 115 152 190 229 276 327
#     4   9  19  39  65  89 114 146 184 228 282 340
#     4  12  26  42  60  83 112 147 187 233 288 341
#
# _framework density 19.709517000000002
#
# number of rings (size 3 to 8) (size 9 to 14) (size 15 to 20)
#    0.000    2.364    0.909    3.273    0.000    4.364 
#    0.000    2.727    0.000    0.000    0.000    0.000 
#    0.000    0.000    0.000    0.000    0.000    0.000 
#
# Total GULP energy -545544.669817 kJ/mol
# GULP energy per Si atom -12398.742496 kJ/mol
# Density = 1.966466 g / cm^3
# Si number density = 19.709517 Si / 1000 Ang^3
#
#
#
# Elastic Constant Matrix: (Units=GPa)
#
#
# Indices 1 2 3 4 5 6 
#
# 1 66.2529 14.8785 30.7940 0.0000 0.0000 0.0000
# 2 14.8785 72.5490 31.1098 0.0000 0.0000 0.0000
# 3 30.7940 31.1098 70.4115 0.0000 0.0000 0.0000
# 4 0.0000 0.0000 0.0000 39.4196 0.0000 0.0000
# 5 0.0000 0.0000 0.0000 0.0000 25.6968 0.0000
# 6 0.0000 0.0000 0.0000 0.0000 0.0000 26.8102
#
#
#
# Elastic Compliance Matrix: (Units=1/GPa)
#
#
# Indices 1 2 3 4 5 6 
#
# 1 0.018955 -0.000410 -0.008108 0.000000 0.000000 0.000000
# 2 -0.000410 0.017015 -0.007338 0.000000 0.000000 0.000000
# 3 -0.008108 -0.007338 0.020991 0.000000 0.000000 0.000000
# 4 0.000000 0.000000 0.000000 0.025368 0.000000 0.000000
# 5 0.000000 0.000000 0.000000 0.000000 0.038915 0.000000
# 6 0.000000 0.000000 0.000000 0.000000 0.000000 0.037299
#
#
# Mechanical properties :
#
#
# Convention : Reuss Voigt Hill
#
# Bulk Modulus (GPa) = 39.60995 40.30868 39.95932
# Shear Modulus (GPa) = 25.16719 27.21406 26.19062
#
# Velocity S-wave (km/s) = 3.57726 3.71989 3.64927
# Velocity P-wave (km/s) = 6.09941 6.24066 6.17044
#
# Compressibility (1/GPa) = 0.02524618
#
# Stress axis : x y z
#
# Youngs Moduli (GPa) = 52.75772 58.77310 47.64037
#
# Poissons Ratio (x) = 0.02411 0.38629
# Poissons Ratio (y) = 0.02164 0.34959
# Poissons Ratio (z) = 0.42778 0.43128
#
# Static dielectric constant tensor:
#      x y z
#    x 3.401170 0.000000 0.000000 
#    y 0.000000 3.811810 0.000000 
#    z 0.000000 0.000000 3.512440 
# 
# 
# High freq. dielectric constant tensor:
#      x y z
#    x 1.749030 0.000000 0.000000 
#    y 0.000000 1.782010 0.000000 
#    z 0.000000 0.000000 1.750850 
# 
# From -- ./inp_files/6892.got.cif
#   From: 2010.03.12/outbox.cif.g09.slc.cpg/sg63_4_cif.got.tgz:6892.got - 2010.04.10 19:34:48.
