data_PCOD8258824
_publ_section_title
;
Structure prediction by ZEFSAII (Michael W. Deem and Ramdas Pophale) SiO2 
 PCOD8258824
Probable space group: C M C M
;
_chemical_formula_sum "Si O2"
_cell_formula_units_Z 64
_cell_length_a 9.214964
_cell_length_b 41.384243
_cell_length_c 8.947880
_cell_angle_alpha 90.000000
_cell_angle_beta 90.000000
_cell_angle_gamma 90.000000
_cell_volume 3412.312598
_symmetry_space_group_name_H-M "C M C M"
_symmetry_group_IT_number 63
_symmetry_cell_setting 'orthorhombic'
loop_
_space_group_symop_operation_xyz
x,y,z
-x,-y,1/2+z
x,-y,-z
-x,y,1/2-z
-x,-y,-z
x,y,1/2-z
-x,y,z
x,-y,1/2+z
1/2+x,1/2+y,z
1/2-x,1/2-y,1/2+z
1/2+x,1/2-y,-z
1/2-x,1/2+y,1/2-z
1/2-x,1/2-y,-z
1/2+x,1/2+y,1/2-z
1/2-x,1/2+y,z
1/2+x,1/2-y,1/2+z
loop_
_atom_site_type_symbol
_atom_site_label
_atom_site_fract_x
_atom_site_fract_y
_atom_site_fract_z
Si Si1 0.827455 0.155661 0.081401
Si Si2 0.327740 0.591355 0.920638
Si Si3 0.329316 0.279502 0.076709
Si Si4 0.832628 0.533225 0.424967
O O1 0.766031 0.155300 0.250000
O O2 0.000000 0.155315 0.081876
O O3 0.768544 0.124372 0.994067
O O4 0.770922 0.187602 0.998001
O O5 0.274355 0.590203 0.750000
O O6 0.500000 0.589521 0.931243
O O7 0.263750 0.561665 0.010700
O O8 0.288413 0.280560 0.250000
O O9 0.500000 0.275441 0.051470
O O10 0.250000 0.250000 0.000000
O O11 0.781343 0.500000 0.500000
O O12 0.804616 0.530295 0.250000
O O13 0.000000 0.540370 0.462653
#
# Coordination Sequence:
#
# PCOD8258824 Si02
#       4
#    16  16  16  16
#     4   9  17  31  52  76 103 136 171 209 256 307
#     4  10  20  34  54  80 107 135 170 212 256 303
#     4  10  20  34  53  77 105 137 173 213 257 306
#     4  10  21  37  56  77 103 137 174 211 255 307
#
# _framework density 18.755609
#
# number of rings (size 3 to 8) (size 9 to 14) (size 15 to 20)
#    0.000    2.250    0.000    3.000    0.000    8.000 
#    0.000    1.250    0.000    7.500    0.000    0.000 
#    0.000    0.000    0.000    0.000    0.000    0.000 
#
# Total GULP energy -396895.585135 kJ/mol
# GULP energy per Si atom -12402.987035 kJ/mol
# Density = 1.871292 g / cm^3
# Si number density = 18.755609 Si / 1000 Ang^3
#
#
#
# Elastic Constant Matrix: (Units=GPa)
#
#
# Indices 1 2 3 4 5 6 
#
# 1 19.6557 31.7405 29.0774 0.0000 0.0000 0.0000
# 2 31.7405 177.6031 80.6329 0.0000 0.0000 0.0000
# 3 29.0774 80.6329 141.0637 0.0000 0.0000 0.0000
# 4 0.0000 0.0000 0.0000 46.7365 0.0000 0.0000
# 5 0.0000 0.0000 0.0000 0.0000 25.0785 0.0000
# 6 0.0000 0.0000 0.0000 0.0000 0.0000 26.1824
#
#
#
# Elastic Compliance Matrix: (Units=1/GPa)
#
#
# Indices 1 2 3 4 5 6 
#
# 1 0.083867 -0.009642 -0.011776 0.000000 0.000000 0.000000
# 2 -0.009642 0.008712 -0.002993 0.000000 0.000000 0.000000
# 3 -0.011776 -0.002993 0.011227 0.000000 0.000000 0.000000
# 4 0.000000 0.000000 0.000000 0.021397 0.000000 0.000000
# 5 0.000000 0.000000 0.000000 0.000000 0.039875 0.000000
# 6 0.000000 0.000000 0.000000 0.000000 0.000000 0.038194
#
#
# Mechanical properties :
#
#
# Convention : Reuss Voigt Hill
#
# Bulk Modulus (GPa) = 18.18676 69.02491 43.60584
# Shear Modulus (GPa) = 18.48972 32.72424 25.60698
#
# Velocity S-wave (km/s) = 3.14319 4.18158 3.69900
# Velocity P-wave (km/s) = 4.78441 7.75863 6.44542
#
# Compressibility (1/GPa) = 0.05498505
#
# Stress axis : x y z
#
# Youngs Moduli (GPa) = 11.92366 114.77978 89.07151
#
# Poissons Ratio (x) = 1.10670 1.04891
# Poissons Ratio (y) = 0.11497 0.26655
# Poissons Ratio (z) = 0.14041 0.34348
#
# Static dielectric constant tensor:
#      x y z
#    x 3.082650 0.000000 0.000000 
#    y 0.000000 3.685360 0.000000 
#    z 0.000000 0.000000 3.683840 
# 
# 
# High freq. dielectric constant tensor:
#      x y z
#    x 1.689220 0.000000 0.000000 
#    y 0.000000 1.746820 0.000000 
#    z 0.000000 0.000000 1.750950 
# 
# From -- ./inp_files/3105.got.cif
#   From: 2010.03.12/outbox.cif.g09.slc.cpg/sg63_2_cif.got.tgz:3105.got - 2010.04.10 19:34:48.
