data_PCOD8258132
_publ_section_title
;
Structure prediction by ZEFSAII (Michael W. Deem and Ramdas Pophale) SiO2 
 PCOD8258132
Probable space group: C M C M
;
_chemical_formula_sum "Si O2"
_cell_formula_units_Z 96
_cell_length_a 8.952477
_cell_length_b 24.548597
_cell_length_c 21.618243
_cell_angle_alpha 90.000000
_cell_angle_beta 90.000000
_cell_angle_gamma 90.000000
_cell_volume 4751.057478
_symmetry_space_group_name_H-M "C M C M"
_symmetry_group_IT_number 63
_symmetry_cell_setting 'orthorhombic'
loop_
_space_group_symop_operation_xyz
x,y,z
-x,-y,1/2+z
x,-y,-z
-x,y,1/2-z
-x,-y,-z
x,y,1/2-z
-x,y,z
x,-y,1/2+z
1/2+x,1/2+y,z
1/2-x,1/2-y,1/2+z
1/2+x,1/2-y,-z
1/2-x,1/2+y,1/2-z
1/2-x,1/2-y,-z
1/2+x,1/2+y,1/2-z
1/2-x,1/2+y,z
1/2+x,1/2-y,1/2+z
loop_
_atom_site_type_symbol
_atom_site_label
_atom_site_fract_x
_atom_site_fract_y
_atom_site_fract_z
Si Si1 0.825279 0.688889 0.318855
Si Si2 0.677364 0.246445 0.931120
Si Si3 0.174212 0.431965 0.845864
Si Si4 0.825053 0.374773 0.404879
Si Si5 0.177044 0.558430 0.482270
Si Si6 0.163999 0.958468 0.180947
O O1 0.782655 0.713356 0.250000
O O2 0.737144 0.712183 0.378433
O O3 0.790492 0.624558 0.311929
O O4 0.000000 0.698447 0.332492
O O5 0.500000 0.254152 0.939351
O O6 0.718206 0.188293 0.900987
O O7 0.750000 0.250000 0.000000
O O8 0.233434 0.424284 0.915410
O O9 0.257221 0.482968 0.816431
O O10 0.000000 0.446227 0.843238
O O11 0.764733 0.395989 0.470783
O O12 0.752753 0.410762 0.352170
O O13 0.000000 0.383772 0.398629
O O14 0.246614 0.500000 0.500000
O O15 0.000000 0.554805 0.484206
O O16 0.149657 0.936901 0.250000
O O17 0.000000 0.965001 0.150709
#
# Coordination Sequence:
#
# PCOD8258132 Si02
#       6
#    16  16  16  16  16  16
#     4  10  22  40  63  91 123 165 216 265 314 372
#     4  11  24  42  66  93 124 162 206 260 318 374
#     4  10  19  36  62  87 116 156 201 244 293 361
#     4  10  21  39  61  85 112 149 197 240 286 357
#     4   9  15  28  55  86 111 138 178 234 288 335
#     4  11  24  38  53  81 121 158 191 238 300 355
#
# _framework density 20.206028
#
# number of rings (size 3 to 8) (size 9 to 14) (size 15 to 20)
#    0.000    1.833    1.667    2.500    0.000    7.667 
#    0.000    5.000    0.000    0.000    0.000    0.000 
#    0.000    0.000    0.000    0.000    0.000    0.000 
#
# Total GULP energy -594792.680892 kJ/mol
# GULP energy per Si atom -12391.514185 kJ/mol
# Density = 2.016004 g / cm^3
# Si number density = 20.206028 Si / 1000 Ang^3
#
#
#
# Elastic Constant Matrix: (Units=GPa)
#
#
# Indices 1 2 3 4 5 6 
#
# 1 71.3602 49.6900 40.9692 0.0000 0.0000 0.0000
# 2 49.6900 108.9162 45.0144 0.0000 0.0000 0.0000
# 3 40.9692 45.0144 134.4098 0.0000 0.0000 0.0000
# 4 0.0000 0.0000 0.0000 22.7819 0.0000 0.0000
# 5 0.0000 0.0000 0.0000 0.0000 30.2391 0.0000
# 6 0.0000 0.0000 0.0000 0.0000 0.0000 26.5083
#
#
#
# Elastic Compliance Matrix: (Units=1/GPa)
#
#
# Indices 1 2 3 4 5 6 
#
# 1 0.022180 -0.008502 -0.003913 0.000000 0.000000 0.000000
# 2 -0.008502 0.013915 -0.002069 0.000000 0.000000 0.000000
# 3 -0.003913 -0.002069 0.009326 0.000000 0.000000 0.000000
# 4 0.000000 0.000000 0.000000 0.043895 0.000000 0.000000
# 5 0.000000 0.000000 0.000000 0.000000 0.033070 0.000000
# 6 0.000000 0.000000 0.000000 0.000000 0.000000 0.037724
#
#
# Mechanical properties :
#
#
# Convention : Reuss Voigt Hill
#
# Bulk Modulus (GPa) = 60.77941 65.11483 62.94712
# Shear Modulus (GPa) = 25.69884 27.84003 26.76943
#
# Velocity S-wave (km/s) = 3.57016 3.71591 3.64376
# Velocity P-wave (km/s) = 6.86584 7.12082 6.99449
#
# Compressibility (1/GPa) = 0.01645294
#
# Stress axis : x y z
#
# Youngs Moduli (GPa) = 45.08543 71.86457 107.23119
#
# Poissons Ratio (x) = 0.61097 0.41964
# Poissons Ratio (y) = 0.38330 0.22184
# Poissons Ratio (z) = 0.17644 0.14868
#
# Static dielectric constant tensor:
#      x y z
#    x 3.507930 0.000000 0.000000 
#    y 0.000000 3.693990 0.000000 
#    z 0.000000 0.000000 3.836690 
# 
# 
# High freq. dielectric constant tensor:
#      x y z
#    x 1.764450 0.000000 0.000000 
#    y 0.000000 1.790760 0.000000 
#    z 0.000000 0.000000 1.806600 
# 
# From -- ./inp_files/51337.got.cif
#   From: 2010.03.12/outbox.cif.g09.slc.cpg/sg63_26_cif.got.tgz:51337.got - 2010.04.10 19:34:48.
