data_PCOD8258345
_publ_section_title
;
Structure prediction by ZEFSAII (Michael W. Deem and Ramdas Pophale) SiO2 
 PCOD8258345
Probable space group: C M C M
;
_chemical_formula_sum "Si O2"
_cell_formula_units_Z 96
_cell_length_a 8.997091
_cell_length_b 27.678610
_cell_length_c 22.399886
_cell_angle_alpha 90.000000
_cell_angle_beta 90.000000
_cell_angle_gamma 90.000000
_cell_volume 5578.175804
_symmetry_space_group_name_H-M "C M C M"
_symmetry_group_IT_number 63
_symmetry_cell_setting 'orthorhombic'
loop_
_space_group_symop_operation_xyz
x,y,z
-x,-y,1/2+z
x,-y,-z
-x,y,1/2-z
-x,-y,-z
x,y,1/2-z
-x,y,z
x,-y,1/2+z
1/2+x,1/2+y,z
1/2-x,1/2-y,1/2+z
1/2+x,1/2-y,-z
1/2-x,1/2+y,1/2-z
1/2-x,1/2-y,-z
1/2+x,1/2+y,1/2-z
1/2-x,1/2+y,z
1/2+x,1/2-y,1/2+z
loop_
_atom_site_type_symbol
_atom_site_label
_atom_site_fract_x
_atom_site_fract_y
_atom_site_fract_z
Si Si1 0.675743 0.626865 0.750000
Si Si2 0.826345 0.355087 0.368489
Si Si3 0.332564 0.437846 0.430187
Si Si4 0.325093 0.199524 0.987128
Si Si5 0.669937 0.615253 0.448897
Si Si6 0.326068 0.467102 0.630584
Si Si7 0.677579 0.515067 0.750000
O O1 0.500000 0.630724 0.750000
O O2 0.738409 0.655555 0.692484
O O3 0.731349 0.570916 0.750000
O O4 0.783703 0.408197 0.390720
O O5 0.779636 0.317188 0.420385
O O6 0.000000 0.352438 0.355244
O O7 0.500000 0.427332 0.405636
O O8 0.321269 0.424340 0.498949
O O9 0.292795 0.493936 0.421395
O O10 0.500000 0.204528 0.993750
O O11 0.250000 0.250000 0.000000
O O12 0.270275 0.161444 0.036935
O O13 0.500000 0.632860 0.439955
O O14 0.732981 0.585790 0.390992
O O15 0.500000 0.460631 0.639583
O O16 0.256882 0.486254 0.692774
O O17 0.500000 0.515287 0.750000
#
# Coordination Sequence:
#
# PCOD8258345 Si02
#       7
#     8  16  16  16  16  16   8
#     4  11  19  31  51  74 103 140 175 204 235 288
#     4  10  20  32  48  74 105 133 162 206 259 303
#     4   9  15  26  44  68  97 131 169 203 237 288
#     4  10  21  37  56  76  99 126 163 213 268 317
#     4   9  17  28  47  72  97 127 164 206 252 298
#     4   9  15  25  42  68 100 133 171 208 238 277
#     4   9  16  25  43  70  99 134 175 210 233 270
#
# _framework density 17.209928000000001
#
# number of rings (size 3 to 8) (size 9 to 14) (size 15 to 20)
#    0.000    2.500    1.667    1.750    0.000    4.000 
#    0.000    0.833    0.000    5.000    0.000    5.833 
#    0.000    0.000    0.000    0.000    0.000    0.000 
#
# Total GULP energy -594867.606912 kJ/mol
# GULP energy per Si atom -12393.075144 kJ/mol
# Density = 1.717076 g / cm^3
# Si number density = 17.209928 Si / 1000 Ang^3
#
#
#
# Elastic Constant Matrix: (Units=GPa)
#
#
# Indices 1 2 3 4 5 6 
#
# 1 54.6495 39.5248 34.5689 0.0000 0.0000 0.0000
# 2 39.5248 116.6269 56.0700 0.0000 0.0000 0.0000
# 3 34.5689 56.0700 81.9979 0.0000 0.0000 0.0000
# 4 0.0000 0.0000 0.0000 18.1094 0.0000 0.0000
# 5 0.0000 0.0000 0.0000 0.0000 21.7270 0.0000
# 6 0.0000 0.0000 0.0000 0.0000 0.0000 21.0641
#
#
#
# Elastic Compliance Matrix: (Units=1/GPa)
#
#
# Indices 1 2 3 4 5 6 
#
# 1 0.027136 -0.005507 -0.007675 0.000000 0.000000 0.000000
# 2 -0.005507 0.013891 -0.007177 0.000000 0.000000 0.000000
# 3 -0.007675 -0.007177 0.020339 0.000000 0.000000 0.000000
# 4 0.000000 0.000000 0.000000 0.055220 0.000000 0.000000
# 5 0.000000 0.000000 0.000000 0.000000 0.046026 0.000000
# 6 0.000000 0.000000 0.000000 0.000000 0.000000 0.047474
#
#
# Mechanical properties :
#
#
# Convention : Reuss Voigt Hill
#
# Bulk Modulus (GPa) = 48.42925 57.06686 52.74805
# Shear Modulus (GPa) = 19.40357 20.38748 19.89553
#
# Velocity S-wave (km/s) = 3.36142 3.44559 3.40376
# Velocity P-wave (km/s) = 6.57776 7.00433 6.79439
#
# Compressibility (1/GPa) = 0.02064868
#
# Stress axis : x y z
#
# Youngs Moduli (GPa) = 36.85198 71.98870 49.16748
#
# Poissons Ratio (x) = 0.39641 0.37734
# Poissons Ratio (y) = 0.20293 0.35288
# Poissons Ratio (z) = 0.28282 0.51668
#
# Static dielectric constant tensor:
#      x y z
#    x 3.016500 0.000000 0.000000 
#    y 0.000000 3.066350 0.000000 
#    z 0.000000 0.000000 3.505550 
# 
# 
# High freq. dielectric constant tensor:
#      x y z
#    x 1.639520 0.000000 0.000000 
#    y 0.000000 1.640940 0.000000 
#    z 0.000000 0.000000 1.662560 
# 
# From -- ./inp_files/60067.got.cif
#   From: 2010.03.12/outbox.cif.g09.slc.cpg/sg63_31_cif.got.tgz:60067.got - 2010.04.10 19:34:48.
