data_PCOD8258761
_publ_section_title
;
Structure prediction by ZEFSAII (Michael W. Deem and Ramdas Pophale) SiO2 
 PCOD8258761
Probable space group: C M C M
;
_chemical_formula_sum "Si O2"
_cell_formula_units_Z 96
_cell_length_a 8.503978
_cell_length_b 23.612812
_cell_length_c 26.162870
_cell_angle_alpha 90.000000
_cell_angle_beta 90.000000
_cell_angle_gamma 90.000000
_cell_volume 5253.578435
_symmetry_space_group_name_H-M "C M C M"
_symmetry_group_IT_number 63
_symmetry_cell_setting 'orthorhombic'
loop_
_space_group_symop_operation_xyz
x,y,z
-x,-y,1/2+z
x,-y,-z
-x,y,1/2-z
-x,-y,-z
x,y,1/2-z
-x,y,z
x,-y,1/2+z
1/2+x,1/2+y,z
1/2-x,1/2-y,1/2+z
1/2+x,1/2-y,-z
1/2-x,1/2+y,1/2-z
1/2-x,1/2-y,-z
1/2+x,1/2+y,1/2-z
1/2-x,1/2+y,z
1/2+x,1/2-y,1/2+z
loop_
_atom_site_type_symbol
_atom_site_label
_atom_site_fract_x
_atom_site_fract_y
_atom_site_fract_z
Si Si1 0.184114 0.332773 0.106076
Si Si2 0.185948 0.730869 0.445147
Si Si3 0.679122 0.999958 0.625243
Si Si4 0.183234 0.908510 0.308033
Si Si5 0.818767 0.926460 0.040838
Si Si6 0.316988 0.897931 0.562644
O O1 0.237658 0.267641 0.100799
O O2 0.225879 0.359611 0.161009
O O3 0.279170 0.363693 0.060863
O O4 0.000000 0.338790 0.096291
O O5 0.250000 0.750000 0.500000
O O6 0.237148 0.666788 0.431569
O O7 0.000000 0.737718 0.444858
O O8 0.500000 0.009594 0.642092
O O9 0.785955 0.028663 0.668929
O O10 0.707994 0.030342 0.571102
O O11 0.713996 0.933006 0.615536
O O12 0.243712 0.907043 0.250000
O O13 0.000000 0.895368 0.311641
O O14 0.000000 0.941361 0.051347
O O15 0.784272 0.929181 0.980895
O O16 0.500000 0.901245 0.547382
#
# Coordination Sequence:
#
# PCOD8258761 Si02
#       6
#    16  16  16  16  16  16
#     4  11  21  34  53  78 108 140 178 222 265 313
#     4  11  21  34  52  75 107 147 187 221 260 310
#     4  10  20  34  52  75 104 137 173 214 261 315
#     4  10  21  38  60  83 105 131 168 220 276 323
#     4  11  20  30  48  73 104 141 178 217 257 306
#     4  10  21  34  49  71 105 145 180 213 255 309
#
# _framework density 18.273260000000001
#
# number of rings (size 3 to 8) (size 9 to 14) (size 15 to 20)
#    0.000    1.500    1.667    7.000    0.000    5.333 
#    0.000    0.000    0.000    1.000    0.000    2.333 
#    0.000    0.000    0.000    0.000    0.000    0.000 
#
# Total GULP energy -595127.005362 kJ/mol
# GULP energy per Si atom -12398.479278 kJ/mol
# Density = 1.823167 g / cm^3
# Si number density = 18.273260 Si / 1000 Ang^3
#
#
#
# Elastic Constant Matrix: (Units=GPa)
#
#
# Indices 1 2 3 4 5 6 
#
# 1 53.8010 7.0214 17.0782 0.0000 0.0000 0.0000
# 2 7.0214 95.2773 40.5403 0.0000 0.0000 0.0000
# 3 17.0782 40.5403 95.6757 0.0000 0.0000 0.0000
# 4 0.0000 0.0000 0.0000 15.3819 0.0000 0.0000
# 5 0.0000 0.0000 0.0000 0.0000 24.8104 0.0000
# 6 0.0000 0.0000 0.0000 0.0000 0.0000 26.0978
#
#
#
# Elastic Compliance Matrix: (Units=1/GPa)
#
#
# Indices 1 2 3 4 5 6 
#
# 1 0.019704 0.000054 -0.003540 0.000000 0.000000 0.000000
# 2 0.000054 0.012804 -0.005435 0.000000 0.000000 0.000000
# 3 -0.003540 -0.005435 0.013387 0.000000 0.000000 0.000000
# 4 0.000000 0.000000 0.000000 0.065011 0.000000 0.000000
# 5 0.000000 0.000000 0.000000 0.000000 0.040306 0.000000
# 6 0.000000 0.000000 0.000000 0.000000 0.000000 0.038317
#
#
# Mechanical properties :
#
#
# Convention : Reuss Voigt Hill
#
# Bulk Modulus (GPa) = 35.64705 41.55933 38.60319
# Shear Modulus (GPa) = 23.07098 25.26564 24.16831
#
# Velocity S-wave (km/s) = 3.55710 3.72244 3.64071
# Velocity P-wave (km/s) = 6.03496 6.42402 6.23253
#
# Compressibility (1/GPa) = 0.02805281
#
# Stress axis : x y z
#
# Youngs Moduli (GPa) = 50.75191 78.09842 74.69967
#
# Poissons Ratio (x) = -0.00424 0.26445
# Poissons Ratio (y) = -0.00275 0.40601
# Poissons Ratio (z) = 0.17967 0.42448
#
# Static dielectric constant tensor:
#      x y z
#    x 3.417680 0.000000 0.000000 
#    y 0.000000 3.663450 0.000000 
#    z 0.000000 0.000000 3.173670 
# 
# 
# High freq. dielectric constant tensor:
#      x y z
#    x 1.719560 0.000000 0.000000 
#    y 0.000000 1.712040 0.000000 
#    z 0.000000 0.000000 1.668790 
# 
# From -- ./inp_files/67247.got.cif
#   From: 2010.03.12/outbox.cif.g09.slc.cpg/sg63_34_cif.got.tgz:67247.got - 2010.04.10 19:34:48.
