data_PCOD8258589
_publ_section_title
;
Structure prediction by ZEFSAII (Michael W. Deem and Ramdas Pophale) SiO2 
 PCOD8258589
Probable space group: C M C M
;
_chemical_formula_sum "Si O2"
_cell_formula_units_Z 80
_cell_length_a 8.918171
_cell_length_b 27.259516
_cell_length_c 18.437156
_cell_angle_alpha 90.000000
_cell_angle_beta 90.000000
_cell_angle_gamma 90.000000
_cell_volume 4482.165272
_symmetry_space_group_name_H-M "C M C M"
_symmetry_group_IT_number 63
_symmetry_cell_setting 'orthorhombic'
loop_
_space_group_symop_operation_xyz
x,y,z
-x,-y,1/2+z
x,-y,-z
-x,y,1/2-z
-x,-y,-z
x,y,1/2-z
-x,y,z
x,-y,1/2+z
1/2+x,1/2+y,z
1/2-x,1/2-y,1/2+z
1/2+x,1/2-y,-z
1/2-x,1/2+y,1/2-z
1/2-x,1/2-y,-z
1/2+x,1/2+y,1/2-z
1/2-x,1/2+y,z
1/2+x,1/2-y,1/2+z
loop_
_atom_site_type_symbol
_atom_site_label
_atom_site_fract_x
_atom_site_fract_y
_atom_site_fract_z
Si Si1 0.176422 0.073013 0.034253
Si Si2 0.823015 0.023407 0.888723
Si Si3 0.824830 0.181918 0.041724
Si Si4 0.323093 0.069065 0.750000
Si Si5 0.174226 0.770954 0.111591
Si Si6 0.322161 0.819290 0.250000
O O1 0.237688 0.126840 0.054487
O O2 0.000000 0.076367 0.024613
O O3 0.216693 0.033863 0.096746
O O4 0.238237 0.055096 0.956516
O O5 0.734906 0.040312 0.819132
O O6 0.000000 0.030408 0.876671
O O7 0.732003 0.216165 0.095863
O O8 0.000000 0.187400 0.060424
O O9 0.794036 0.195306 0.958122
O O10 0.500000 0.068392 0.750000
O O11 0.262980 0.124795 0.750000
O O12 0.262998 0.792727 0.178754
O O13 0.000000 0.768853 0.131297
O O14 0.500000 0.816749 0.250000
#
# Coordination Sequence:
#
# PCOD8258589 Si02
#       6
#    16  16  16   8  16   8
#     4   8  15  30  54  79  99 127 170 210 241 285
#     4   9  17  32  54  77 100 129 169 209 242 285
#     4   9  17  32  53  76 104 135 165 202 250 298
#     4  11  23  35  48  73 106 133 160 199 252 305
#     4  10  20  33  52  78 103 129 167 210 249 295
#     4  11  23  37  52  71 100 135 166 203 252 303
#
# _framework density 17.848517000000001
#
# number of rings (size 3 to 8) (size 9 to 14) (size 15 to 20)
#    0.000    2.600    0.000    3.600    0.000    4.000 
#    0.000    5.000    0.000    2.400    0.000    0.000 
#    0.000    0.000    0.000    0.000    0.000    0.000 
#
# Total GULP energy -495952.864033 kJ/mol
# GULP energy per Si atom -12398.821601 kJ/mol
# Density = 1.780789 g / cm^3
# Si number density = 17.848517 Si / 1000 Ang^3
#
#
#
# Elastic Constant Matrix: (Units=GPa)
#
#
# Indices 1 2 3 4 5 6 
#
# 1 53.7102 41.7605 41.0901 0.0000 0.0000 0.0000
# 2 41.7605 170.7642 69.0322 0.0000 0.0000 0.0000
# 3 41.0901 69.0322 112.1774 0.0000 0.0000 0.0000
# 4 0.0000 0.0000 0.0000 19.6104 0.0000 0.0000
# 5 0.0000 0.0000 0.0000 0.0000 14.9843 0.0000
# 6 0.0000 0.0000 0.0000 0.0000 0.0000 23.8003
#
#
#
# Elastic Compliance Matrix: (Units=1/GPa)
#
#
# Indices 1 2 3 4 5 6 
#
# 1 0.027365 -0.003514 -0.007861 0.000000 0.000000 0.000000
# 2 -0.003514 0.008247 -0.003788 0.000000 0.000000 0.000000
# 3 -0.007861 -0.003788 0.014125 0.000000 0.000000 0.000000
# 4 0.000000 0.000000 0.000000 0.050993 0.000000 0.000000
# 5 0.000000 0.000000 0.000000 0.000000 0.066737 0.000000
# 6 0.000000 0.000000 0.000000 0.000000 0.000000 0.042016
#
#
# Mechanical properties :
#
#
# Convention : Reuss Voigt Hill
#
# Bulk Modulus (GPa) = 51.51867 71.15749 61.33808
# Shear Modulus (GPa) = 20.30229 23.99695 22.14962
#
# Velocity S-wave (km/s) = 3.37631 3.67069 3.52657
# Velocity P-wave (km/s) = 6.64277 7.61047 7.14303
#
# Compressibility (1/GPa) = 0.01941044
#
# Stress axis : x y z
#
# Youngs Moduli (GPa) = 36.54346 121.26253 70.79799
#
# Poissons Ratio (x) = 0.42614 0.55654
# Poissons Ratio (y) = 0.12842 0.26815
# Poissons Ratio (z) = 0.28727 0.45929
#
# Static dielectric constant tensor:
#      x y z
#    x 3.113890 0.000000 0.000000 
#    y 0.000000 3.812040 0.000000 
#    z 0.000000 0.000000 3.168730 
# 
# 
# High freq. dielectric constant tensor:
#      x y z
#    x 1.672300 0.000000 0.000000 
#    y 0.000000 1.704210 0.000000 
#    z 0.000000 0.000000 1.680770 
# 
# From -- ./inp_files/40595.got.cif
#   From: 2010.03.12/outbox.cif.g09.slc.cpg/sg63_21_cif.got.tgz:40595.got - 2010.04.10 19:34:48.
