data_PCOD8258951
_publ_section_title
;
Structure prediction by ZEFSAII (Michael W. Deem and Ramdas Pophale) SiO2 
 PCOD8258951
Probable space group: C M C M
;
_chemical_formula_sum "Si O2"
_cell_formula_units_Z 88
_cell_length_a 21.950721
_cell_length_b 8.696691
_cell_length_c 24.674948
_cell_angle_alpha 90.000000
_cell_angle_beta 90.000000
_cell_angle_gamma 90.000000
_cell_volume 4710.413960
_symmetry_space_group_name_H-M "C M C M"
_symmetry_group_IT_number 63
_symmetry_cell_setting 'orthorhombic'
loop_
_space_group_symop_operation_xyz
x,y,z
-x,-y,1/2+z
x,-y,-z
-x,y,1/2-z
-x,-y,-z
x,y,1/2-z
-x,y,z
x,-y,1/2+z
1/2+x,1/2+y,z
1/2-x,1/2-y,1/2+z
1/2+x,1/2-y,-z
1/2-x,1/2+y,1/2-z
1/2-x,1/2-y,-z
1/2+x,1/2+y,1/2-z
1/2-x,1/2+y,z
1/2+x,1/2-y,1/2+z
loop_
_atom_site_type_symbol
_atom_site_label
_atom_site_fract_x
_atom_site_fract_y
_atom_site_fract_z
Si Si1 0.105723 0.000307 0.750000
Si Si2 0.709362 0.089982 0.945673
Si Si3 0.333394 0.437356 0.944988
Si Si4 0.855074 0.422331 0.337449
Si Si5 0.353229 0.837465 0.750000
Si Si6 0.432039 0.641160 0.358035
Si Si7 0.711549 0.730849 0.250000
O O1 0.110209 0.181854 0.750000
O O2 0.067830 0.952049 0.802410
O O3 0.173001 0.926308 0.750000
O O4 0.698061 0.271327 0.953596
O O5 0.670163 0.025978 0.895562
O O6 0.779870 0.058311 0.930810
O O7 0.689509 0.000000 0.000000
O O8 0.384330 0.436422 0.899041
O O9 0.364759 0.500000 0.000000
O O10 0.874003 0.571873 0.303766
O O11 0.914573 0.317564 0.346013
O O12 0.803898 0.326922 0.304105
O O13 0.281092 0.815598 0.750000
O O14 0.500000 0.637144 0.382908
#
# Coordination Sequence:
#
# PCOD8258951 Si02
#       7
#     8  16  16  16   8  16   8
#     4  10  21  33  55  85 108 143 185 228 277 321
#     4  10  20  34  54  85 117 141 174 221 282 338
#     4  10  21  35  58  84 109 143 179 224 280 325
#     4   9  21  35  55  81 110 154 177 218 280 331
#     4  11  21  31  55  86 115 140 174 233 280 327
#     4  10  22  41  58  74 108 153 194 223 263 329
#     4   9  19  34  50  83 117 147 174 213 285 338
#
# _framework density 18.682008
#
# number of rings (size 3 to 8) (size 9 to 14) (size 15 to 20)
#    0.000    2.182    0.000    4.091   10.182    1.818 
#    0.000    1.818    0.000    8.727    0.000    0.000 
#    0.000    0.727    0.000    0.000    0.000    0.000 
#
# Total GULP energy -545585.244067 kJ/mol
# GULP energy per Si atom -12399.664638 kJ/mol
# Density = 1.863949 g / cm^3
# Si number density = 18.682008 Si / 1000 Ang^3
#
#
#
# Elastic Constant Matrix: (Units=GPa)
#
#
# Indices 1 2 3 4 5 6 
#
# 1 99.6002 36.9017 59.1528 0.0000 0.0000 0.0000
# 2 36.9017 86.3991 55.9696 0.0000 0.0000 0.0000
# 3 59.1528 55.9696 142.9774 0.0000 0.0000 0.0000
# 4 0.0000 0.0000 0.0000 29.1966 0.0000 0.0000
# 5 0.0000 0.0000 0.0000 0.0000 17.4943 0.0000
# 6 0.0000 0.0000 0.0000 0.0000 0.0000 9.1828
#
#
#
# Elastic Compliance Matrix: (Units=1/GPa)
#
#
# Indices 1 2 3 4 5 6 
#
# 1 0.013851 -0.002952 -0.004575 0.000000 0.000000 0.000000
# 2 -0.002952 0.016136 -0.005095 0.000000 0.000000 0.000000
# 3 -0.004575 -0.005095 0.010881 0.000000 0.000000 0.000000
# 4 0.000000 0.000000 0.000000 0.034251 0.000000 0.000000
# 5 0.000000 0.000000 0.000000 0.000000 0.057161 0.000000
# 6 0.000000 0.000000 0.000000 0.000000 0.000000 0.108899
#
#
# Mechanical properties :
#
#
# Convention : Reuss Voigt Hill
#
# Bulk Modulus (GPa) = 64.00496 70.33613 67.17054
# Shear Modulus (GPa) = 18.40734 22.97159 20.68946
#
# Velocity S-wave (km/s) = 3.14235 3.51038 3.33145
# Velocity P-wave (km/s) = 6.89205 7.35943 7.12957
#
# Compressibility (1/GPa) = 0.01562379
#
# Stress axis : x y z
#
# Youngs Moduli (GPa) = 72.19749 61.97428 91.90119
#
# Poissons Ratio (x) = 0.18297 0.42042
# Poissons Ratio (y) = 0.21315 0.46824
# Poissons Ratio (z) = 0.33028 0.31576
#
# Static dielectric constant tensor:
#      x y z
#    x 3.089510 0.000000 0.000000 
#    y 0.000000 3.471550 0.000000 
#    z 0.000000 0.000000 3.662040 
# 
# 
# High freq. dielectric constant tensor:
#      x y z
#    x 1.693350 0.000000 0.000000 
#    y 0.000000 1.727800 0.000000 
#    z 0.000000 0.000000 1.738080 
# 
# From -- ./inp_files/64463.got.cif
#   From: 2010.03.12/outbox.cif.g09.slc.cpg/sg63_33_cif.got.tgz:64463.got - 2010.04.10 19:34:48.
