data_PCOD8258544
_publ_section_title
;
Structure prediction by ZEFSAII (Michael W. Deem and Ramdas Pophale) SiO2 
 PCOD8258544
Probable space group: C M C M
;
_chemical_formula_sum "Si O2"
_cell_formula_units_Z 96
_cell_length_a 9.224894
_cell_length_b 18.776399
_cell_length_c 30.415703
_cell_angle_alpha 90.000000
_cell_angle_beta 90.000000
_cell_angle_gamma 90.000000
_cell_volume 5268.312752
_symmetry_space_group_name_H-M "C M C M"
_symmetry_group_IT_number 63
_symmetry_cell_setting 'orthorhombic'
loop_
_space_group_symop_operation_xyz
x,y,z
-x,-y,1/2+z
x,-y,-z
-x,y,1/2-z
-x,-y,-z
x,y,1/2-z
-x,y,z
x,-y,1/2+z
1/2+x,1/2+y,z
1/2-x,1/2-y,1/2+z
1/2+x,1/2-y,-z
1/2-x,1/2+y,1/2-z
1/2-x,1/2-y,-z
1/2+x,1/2+y,1/2-z
1/2-x,1/2+y,z
1/2+x,1/2-y,1/2+z
loop_
_atom_site_type_symbol
_atom_site_label
_atom_site_fract_x
_atom_site_fract_y
_atom_site_fract_z
Si Si1 0.830262 0.081066 0.628126
Si Si2 0.666141 0.166400 0.699095
Si Si3 0.331850 0.671008 0.955471
Si Si4 0.327747 0.325876 0.701580
Si Si5 0.828749 0.917405 0.619996
Si Si6 0.331178 0.164273 0.456404
O O1 0.756520 0.109675 0.671876
O O2 0.777739 0.125614 0.585980
O O3 0.000000 0.089488 0.634932
O O4 0.785223 0.999581 0.621652
O O5 0.683877 0.146600 0.750000
O O6 0.500000 0.161221 0.684179
O O7 0.726489 0.246151 0.690128
O O8 0.500000 0.656639 0.966515
O O9 0.304046 0.753466 0.944437
O O10 0.236695 0.645721 0.996480
O O11 0.268909 0.348785 0.750000
O O12 0.500000 0.324748 0.703280
O O13 0.271661 0.380711 0.664895
O O14 0.747369 0.883459 0.579264
O O15 0.000000 0.906074 0.613849
O O16 0.500000 0.145275 0.457568
#
# Coordination Sequence:
#
# PCOD8258544 Si02
#       6
#    16  16  16  16  16  16
#     4  10  21  34  50  75 104 134 165 201 250 301
#     4   9  18  33  53  75  99 130 167 206 246 287
#     4   9  19  36  54  73 100 131 166 209 253 297
#     4   8  15  30  52  75  97 126 167 206 238 283
#     4  10  20  33  51  75 103 134 164 200 249 299
#     4  10  20  34  54  76  97 128 170 211 249 294
#
# _framework density 18.222152999999999
#
# number of rings (size 3 to 8) (size 9 to 14) (size 15 to 20)
#    0.000    2.667    0.000    2.500    0.000    3.667 
#    0.000    5.000    0.000    1.500    0.000    0.000 
#    0.000    0.000    0.000    0.000    0.000    0.000 
#
# Total GULP energy -595250.063777 kJ/mol
# GULP energy per Si atom -12401.042995 kJ/mol
# Density = 1.818068 g / cm^3
# Si number density = 18.222153 Si / 1000 Ang^3
#
#
#
# Elastic Constant Matrix: (Units=GPa)
#
#
# Indices 1 2 3 4 5 6 
#
# 1 44.3009 46.8281 48.1907 0.0000 0.0000 0.0000
# 2 46.8281 116.2649 86.4609 0.0000 0.0000 0.0000
# 3 48.1907 86.4609 127.4476 0.0000 0.0000 0.0000
# 4 0.0000 0.0000 0.0000 10.9891 0.0000 0.0000
# 5 0.0000 0.0000 0.0000 0.0000 26.9963 0.0000
# 6 0.0000 0.0000 0.0000 0.0000 0.0000 20.1115
#
#
#
# Elastic Compliance Matrix: (Units=1/GPa)
#
#
# Indices 1 2 3 4 5 6 
#
# 1 0.044227 -0.010852 -0.009361 0.000000 0.000000 0.000000
# 2 -0.010852 0.020021 -0.009479 0.000000 0.000000 0.000000
# 3 -0.009361 -0.009479 0.017817 0.000000 0.000000 0.000000
# 4 0.000000 0.000000 0.000000 0.090999 0.000000 0.000000
# 5 0.000000 0.000000 0.000000 0.000000 0.037042 0.000000
# 6 0.000000 0.000000 0.000000 0.000000 0.000000 0.049723
#
#
# Mechanical properties :
#
#
# Convention : Reuss Voigt Hill
#
# Bulk Modulus (GPa) = 44.09078 72.33032 58.21055
# Shear Modulus (GPa) = 15.30115 18.72162 17.01138
#
# Velocity S-wave (km/s) = 2.90090 3.20880 3.05873
# Velocity P-wave (km/s) = 5.95559 7.31494 6.66999
#
# Compressibility (1/GPa) = 0.02268048
#
# Stress axis : x y z
#
# Youngs Moduli (GPa) = 22.61060 49.94787 56.12721
#
# Poissons Ratio (x) = 0.54202 0.52543
# Poissons Ratio (y) = 0.24536 0.53203
# Poissons Ratio (z) = 0.21167 0.47345
#
# Static dielectric constant tensor:
#      x y z
#    x 3.136570 0.000000 0.000000 
#    y 0.000000 3.401160 0.000000 
#    z 0.000000 0.000000 3.544080 
# 
# 
# High freq. dielectric constant tensor:
#      x y z
#    x 1.684470 0.000000 0.000000 
#    y 0.000000 1.704870 0.000000 
#    z 0.000000 0.000000 1.717520 
# 
# From -- ./inp_files/66879.got.cif
#   From: 2010.03.12/outbox.cif.g09.slc.cpg/sg63_34_cif.got.tgz:66879.got - 2010.04.10 19:34:48.
