data_PCOD8258784
_publ_section_title
;
Structure prediction by ZEFSAII (Michael W. Deem and Ramdas Pophale) SiO2 
 PCOD8258784
Probable space group: C M C M
;
_chemical_formula_sum "Si O2"
_cell_formula_units_Z 112
_cell_length_a 13.942346
_cell_length_b 28.662220
_cell_length_c 13.678025
_cell_angle_alpha 90.000000
_cell_angle_beta 90.000000
_cell_angle_gamma 90.000000
_cell_volume 5465.993042
_symmetry_space_group_name_H-M "C M C M"
_symmetry_group_IT_number 63
_symmetry_cell_setting 'orthorhombic'
loop_
_space_group_symop_operation_xyz
x,y,z
-x,-y,1/2+z
x,-y,-z
-x,y,1/2-z
-x,-y,-z
x,y,1/2-z
-x,y,z
x,-y,1/2+z
1/2+x,1/2+y,z
1/2-x,1/2-y,1/2+z
1/2+x,1/2-y,-z
1/2-x,1/2+y,1/2-z
1/2-x,1/2-y,-z
1/2+x,1/2+y,1/2-z
1/2-x,1/2+y,z
1/2+x,1/2-y,1/2+z
loop_
_atom_site_type_symbol
_atom_site_label
_atom_site_fract_x
_atom_site_fract_y
_atom_site_fract_z
Si Si1 0.801358 0.887036 0.451825
Si Si2 0.604337 0.978253 0.635373
Si Si3 0.798131 0.981195 0.135694
Si Si4 0.890644 0.716938 0.019558
Si Si5 0.387624 0.421635 0.861540
Si Si6 0.604651 0.112973 0.475851
Si Si7 0.724700 0.290519 0.365802
O O1 0.846405 0.933713 0.404330
O O2 0.835984 0.884922 0.565323
O O3 0.686337 0.893289 0.442635
O O4 0.826797 0.839585 0.395333
O O5 0.607385 0.981591 0.750000
O O6 0.500000 0.995744 0.595658
O O7 0.621336 0.923989 0.610523
O O8 0.690133 0.010147 0.592172
O O9 0.793779 0.975658 0.250000
O O10 0.862327 0.025536 0.105571
O O11 0.825779 0.717893 0.921104
O O12 0.000000 0.730918 0.991598
O O13 0.887333 0.665362 0.067201
O O14 0.850379 0.751092 0.102479
O O15 0.352666 0.412456 0.750000
O O16 0.500000 0.413982 0.870479
O O17 0.500000 0.105933 0.525561
O O18 0.742931 0.288835 0.250000
#
# Coordination Sequence:
#
# PCOD8258784 Si02
#       7
#    16  16  16  16  16  16  16
#     4  11  21  35  57  83 114 153 191 236 294 349
#     4   9  17  29  47  76 113 148 185 230 277 332
#     4  10  20  34  52  78 112 152 195 237 285 344
#     4   9  20  40  62  86 119 158 197 240 297 357
#     4  10  22  39  56  75 104 146 198 251 297 343
#     4   9  18  32  53  81 110 143 183 225 277 342
#     4  10  22  40  62  91 123 155 195 244 295 354
#
# _framework density 20.490328999999999
#
# number of rings (size 3 to 8) (size 9 to 14) (size 15 to 20)
#    0.000    2.286    1.429    0.857    0.000    3.429 
#    0.000    8.571    0.000    5.143    0.000    0.000 
#    0.000    0.000    0.000    0.000    0.000    0.000 
#
# Total GULP energy -693918.125924 kJ/mol
# GULP energy per Si atom -12391.395106 kJ/mol
# Density = 2.044369 g / cm^3
# Si number density = 20.490329 Si / 1000 Ang^3
#
#
#
# Elastic Constant Matrix: (Units=GPa)
#
#
# Indices 1 2 3 4 5 6 
#
# 1 69.7633 18.0838 21.1966 0.0000 0.0000 0.0000
# 2 18.0838 100.6087 44.6763 0.0000 0.0000 0.0000
# 3 21.1966 44.6763 85.4488 0.0000 0.0000 0.0000
# 4 0.0000 0.0000 0.0000 30.1059 0.0000 0.0000
# 5 0.0000 0.0000 0.0000 0.0000 8.0277 0.0000
# 6 0.0000 0.0000 0.0000 0.0000 0.0000 52.8002
#
#
#
# Elastic Compliance Matrix: (Units=1/GPa)
#
#
# Indices 1 2 3 4 5 6 
#
# 1 0.015657 -0.001419 -0.003142 0.000000 0.000000 0.000000
# 2 -0.001419 0.013074 -0.006483 0.000000 0.000000 0.000000
# 3 -0.003142 -0.006483 0.015872 0.000000 0.000000 0.000000
# 4 0.000000 0.000000 0.000000 0.033216 0.000000 0.000000
# 5 0.000000 0.000000 0.000000 0.000000 0.124569 0.000000
# 6 0.000000 0.000000 0.000000 0.000000 0.000000 0.018939
#
#
# Mechanical properties :
#
#
# Convention : Reuss Voigt Hill
#
# Bulk Modulus (GPa) = 44.41742 47.08156 45.74949
# Shear Modulus (GPa) = 19.92666 29.64437 24.78552
#
# Velocity S-wave (km/s) = 3.12186 3.80774 3.48173
# Velocity P-wave (km/s) = 5.89228 6.50840 6.20799
#
# Compressibility (1/GPa) = 0.02251369
#
# Stress axis : x y z
#
# Youngs Moduli (GPa) = 63.87068 76.49002 63.00350
#
# Poissons Ratio (x) = 0.10854 0.19795
# Poissons Ratio (y) = 0.09063 0.40848
# Poissons Ratio (z) = 0.20068 0.49592
#
# Static dielectric constant tensor:
#      x y z
#    x 4.047940 0.000000 0.000000 
#    y 0.000000 3.820080 0.000000 
#    z 0.000000 0.000000 3.471940 
# 
# 
# High freq. dielectric constant tensor:
#      x y z
#    x 1.802380 0.000000 0.000000 
#    y 0.000000 1.799290 0.000000 
#    z 0.000000 0.000000 1.784170 
# 
# From -- ./inp_files/32596.got.cif
#   From: 2010.03.12/outbox.cif.g09.slc.cpg/sg63_17_cif.got.tgz:32596.got - 2010.04.10 19:34:48.
