data_PCOD8258898
_publ_section_title
;
Structure prediction by ZEFSAII (Michael W. Deem and Ramdas Pophale) SiO2 
 PCOD8258898
Probable space group: C M C M
;
_chemical_formula_sum "Si O2"
_cell_formula_units_Z 72
_cell_length_a 14.213876
_cell_length_b 14.016825
_cell_length_c 20.925004
_cell_angle_alpha 90.000000
_cell_angle_beta 90.000000
_cell_angle_gamma 90.000000
_cell_volume 4168.959953
_symmetry_space_group_name_H-M "C M C M"
_symmetry_group_IT_number 63
_symmetry_cell_setting 'orthorhombic'
loop_
_space_group_symop_operation_xyz
x,y,z
-x,-y,1/2+z
x,-y,-z
-x,y,1/2-z
-x,-y,-z
x,y,1/2-z
-x,y,z
x,-y,1/2+z
1/2+x,1/2+y,z
1/2-x,1/2-y,1/2+z
1/2+x,1/2-y,-z
1/2-x,1/2+y,1/2-z
1/2-x,1/2-y,-z
1/2+x,1/2+y,1/2-z
1/2-x,1/2+y,z
1/2+x,1/2-y,1/2+z
loop_
_atom_site_type_symbol
_atom_site_label
_atom_site_fract_x
_atom_site_fract_y
_atom_site_fract_z
Si Si1 0.320721 0.500000 0.000000
Si Si2 0.245710 0.589516 0.382735
Si Si3 0.755258 0.793490 0.175611
Si Si4 0.392875 0.441493 0.372917
Si Si5 0.606683 0.953233 0.324785
O O1 0.255600 0.426415 0.959409
O O2 0.384858 0.561251 0.950630
O O3 0.254544 0.699627 0.366645
O O4 0.330482 0.530959 0.347186
O O5 0.145874 0.547182 0.360041
O O6 0.754412 0.766339 0.250000
O O7 0.853217 0.844478 0.157794
O O8 0.667950 0.860885 0.156446
O O9 0.500000 0.454239 0.350941
O O10 0.612736 0.973449 0.250000
O O11 0.500000 0.934927 0.347131
#
# Coordination Sequence:
#
# PCOD8258898 Si02
#       5
#     8  16  16  16  16
#     4   8  19  36  57  74 106 144 179 208 257 314
#     4   9  19  34  55  75 107 138 177 212 260 310
#     4  10  20  34  54  80 105 134 173 220 267 310
#     4   9  19  36  56  79 109 140 174 217 261 309
#     4   9  18  34  52  73 104 138 172 216 266 313
#
# _framework density 17.270493999999999
#
# number of rings (size 3 to 8) (size 9 to 14) (size 15 to 20)
#    1.333    1.556    0.000    1.000    0.000    4.000 
#    0.000    0.556    0.000    0.000    0.000    0.000 
#    0.000    0.000    0.000    0.000    0.000    0.000 
#
# Total GULP energy -446134.177950 kJ/mol
# GULP energy per Si atom -12392.616054 kJ/mol
# Density = 1.723119 g / cm^3
# Si number density = 17.270494 Si / 1000 Ang^3
#
#
#
# Elastic Constant Matrix: (Units=GPa)
#
#
# Indices 1 2 3 4 5 6 
#
# 1 111.3826 35.0917 14.6050 0.0000 0.0000 0.0000
# 2 35.0917 80.7617 7.0168 0.0000 0.0000 0.0000
# 3 14.6050 7.0168 29.5872 0.0000 0.0000 0.0000
# 4 0.0000 0.0000 0.0000 25.8798 0.0000 0.0000
# 5 0.0000 0.0000 0.0000 0.0000 19.8932 0.0000
# 6 0.0000 0.0000 0.0000 0.0000 0.0000 12.9397
#
#
#
# Elastic Compliance Matrix: (Units=1/GPa)
#
#
# Indices 1 2 3 4 5 6 
#
# 1 0.010926 -0.004369 -0.004357 0.000000 0.000000 0.000000
# 2 -0.004369 0.014390 -0.001256 0.000000 0.000000 0.000000
# 3 -0.004357 -0.001256 0.036247 0.000000 0.000000 0.000000
# 4 0.000000 0.000000 0.000000 0.038640 0.000000 0.000000
# 5 0.000000 0.000000 0.000000 0.000000 0.050268 0.000000
# 6 0.000000 0.000000 0.000000 0.000000 0.000000 0.077281
#
#
# Mechanical properties :
#
#
# Convention : Reuss Voigt Hill
#
# Bulk Modulus (GPa) = 24.03936 37.23983 30.63959
# Shear Modulus (GPa) = 19.11441 22.74373 20.92907
#
# Velocity S-wave (km/s) = 3.33042 3.63287 3.48493
# Velocity P-wave (km/s) = 5.36083 6.26151 5.82859
#
# Compressibility (1/GPa) = 0.04159845
#
# Stress axis : x y z
#
# Youngs Moduli (GPa) = 91.52632 69.49501 27.58840
#
# Poissons Ratio (x) = 0.30361 0.12021
# Poissons Ratio (y) = 0.39986 0.03465
# Poissons Ratio (z) = 0.39880 0.08729
#
# Static dielectric constant tensor:
#      x y z
#    x 3.161080 0.000000 0.000000 
#    y 0.000000 3.006880 0.000000 
#    z 0.000000 0.000000 3.119160 
# 
# 
# High freq. dielectric constant tensor:
#      x y z
#    x 1.659980 0.000000 0.000000 
#    y 0.000000 1.652980 0.000000 
#    z 0.000000 0.000000 1.657120 
# 
# From -- ./inp_files/62469.got.cif
#   From: 2010.03.12/outbox.cif.g09.slc.cpg/sg63_32_cif.got.tgz:62469.got - 2010.04.10 19:34:48.
