data_PCOD8258321
_publ_section_title
;
Structure prediction by ZEFSAII (Michael W. Deem and Ramdas Pophale) SiO2 
 PCOD8258321
Probable space group: C M C M
;
_chemical_formula_sum "Si O2"
_cell_formula_units_Z 96
_cell_length_a 9.198112
_cell_length_b 20.045057
_cell_length_c 29.048402
_cell_angle_alpha 90.000000
_cell_angle_beta 90.000000
_cell_angle_gamma 90.000000
_cell_volume 5355.847901
_symmetry_space_group_name_H-M "C M C M"
_symmetry_group_IT_number 63
_symmetry_cell_setting 'orthorhombic'
loop_
_space_group_symop_operation_xyz
x,y,z
-x,-y,1/2+z
x,-y,-z
-x,y,1/2-z
-x,-y,-z
x,y,1/2-z
-x,y,z
x,-y,1/2+z
1/2+x,1/2+y,z
1/2-x,1/2-y,1/2+z
1/2+x,1/2-y,-z
1/2-x,1/2+y,1/2-z
1/2-x,1/2-y,-z
1/2+x,1/2+y,1/2-z
1/2-x,1/2+y,z
1/2+x,1/2-y,1/2+z
loop_
_atom_site_type_symbol
_atom_site_label
_atom_site_fract_x
_atom_site_fract_y
_atom_site_fract_z
Si Si1 0.172654 0.942453 0.968065
Si Si2 0.327310 0.643558 0.877732
Si Si3 0.172421 0.186926 0.521026
Si Si4 0.168632 0.883090 0.697003
Si Si5 0.828637 0.249388 0.802748
Si Si6 0.172774 0.993743 0.628128
O O1 0.000000 0.945971 0.969113
O O2 0.231504 0.954971 0.916772
O O3 0.225377 0.872260 0.987781
O O4 0.238817 0.000000 0.000000
O O5 0.500000 0.640155 0.877797
O O6 0.273991 0.672382 0.926829
O O7 0.271852 0.690509 0.836094
O O8 0.263363 0.568991 0.869515
O O9 0.250000 0.250000 0.500000
O O10 0.000000 0.196935 0.519888
O O11 0.198240 0.897808 0.750000
O O12 0.255131 0.817879 0.680569
O O13 0.000000 0.869678 0.686271
O O14 0.225424 0.949257 0.671081
O O15 0.784586 0.232091 0.750000
O O16 0.000000 0.258896 0.807359
O O17 0.000000 0.999022 0.626828
#
# Coordination Sequence:
#
# PCOD8258321 Si02
#       6
#    16  16  16  16  16  16
#     4   9  15  27  46  68  92 120 154 188 225 270
#     4   9  17  30  47  70  96 121 156 199 234 268
#     4  10  20  32  48  71  97 124 156 194 233 277
#     4   9  18  31  48  72  97 119 149 193 239 277
#     4   9  18  32  49  68  93 126 157 186 229 283
#     4   9  16  27  46  70  93 118 152 194 232 268
#
# _framework density 17.924332
#
# number of rings (size 3 to 8) (size 9 to 14) (size 15 to 20)
#    0.000    2.833    1.667    0.000    2.333    0.667 
#    0.000    3.333    0.000    2.500    0.000    4.667 
#    0.000    0.000    0.000    0.000    0.000    0.000 
#
# Total GULP energy -595003.263331 kJ/mol
# GULP energy per Si atom -12395.901319 kJ/mol
# Density = 1.788354 g / cm^3
# Si number density = 17.924332 Si / 1000 Ang^3
#
#
#
# Elastic Constant Matrix: (Units=GPa)
#
#
# Indices 1 2 3 4 5 6 
#
# 1 15.0156 29.1074 20.6753 0.0000 0.0000 0.0000
# 2 29.1074 193.2547 105.2889 0.0000 0.0000 0.0000
# 3 20.6753 105.2889 131.5683 0.0000 0.0000 0.0000
# 4 0.0000 0.0000 0.0000 42.6663 0.0000 0.0000
# 5 0.0000 0.0000 0.0000 0.0000 13.4083 0.0000
# 6 0.0000 0.0000 0.0000 0.0000 0.0000 24.1664
#
#
#
# Elastic Compliance Matrix: (Units=1/GPa)
#
#
# Indices 1 2 3 4 5 6 
#
# 1 0.096910 -0.011169 -0.006291 0.000000 0.000000 0.000000
# 2 -0.011169 0.010462 -0.006617 0.000000 0.000000 0.000000
# 3 -0.006291 -0.006617 0.013885 0.000000 0.000000 0.000000
# 4 0.000000 0.000000 0.000000 0.023438 0.000000 0.000000
# 5 0.000000 0.000000 0.000000 0.000000 0.074581 0.000000
# 6 0.000000 0.000000 0.000000 0.000000 0.000000 0.041380
#
#
# Mechanical properties :
#
#
# Convention : Reuss Voigt Hill
#
# Bulk Modulus (GPa) = 13.67939 72.22020 42.94980
# Shear Modulus (GPa) = 15.00709 28.36599 21.68654
#
# Velocity S-wave (km/s) = 2.89666 3.98243 3.48213
# Velocity P-wave (km/s) = 4.34003 7.84382 6.33882
#
# Compressibility (1/GPa) = 0.07310265
#
# Stress axis : x y z
#
# Youngs Moduli (GPa) = 10.31886 95.58547 72.02236
#
# Poissons Ratio (x) = 1.06758 0.45309
# Poissons Ratio (y) = 0.11525 0.47658
# Poissons Ratio (z) = 0.06492 0.63249
#
# Static dielectric constant tensor:
#      x y z
#    x 2.757810 0.000000 0.000000 
#    y 0.000000 3.612170 0.000000 
#    z 0.000000 0.000000 3.604250 
# 
# 
# High freq. dielectric constant tensor:
#      x y z
#    x 1.630280 0.000000 0.000000 
#    y 0.000000 1.706350 0.000000 
#    z 0.000000 0.000000 1.706430 
# 
# From -- ./inp_files/68291.got.cif
#   From: 2010.03.12/outbox.cif.g09.slc.cpg/sg63_35_cif.got.tgz:68291.got - 2010.04.10 19:34:48.
