data_PCOD8258543
_publ_section_title
;
Structure prediction by ZEFSAII (Michael W. Deem and Ramdas Pophale) SiO2 
 PCOD8258543
Probable space group: C M C M
;
_chemical_formula_sum "Si O2"
_cell_formula_units_Z 96
_cell_length_a 21.535188
_cell_length_b 25.417705
_cell_length_c 9.589086
_cell_angle_alpha 90.000000
_cell_angle_beta 90.000000
_cell_angle_gamma 90.000000
_cell_volume 5248.826483
_symmetry_space_group_name_H-M "C M C M"
_symmetry_group_IT_number 63
_symmetry_cell_setting 'orthorhombic'
loop_
_space_group_symop_operation_xyz
x,y,z
-x,-y,1/2+z
x,-y,-z
-x,y,1/2-z
-x,-y,-z
x,y,1/2-z
-x,y,z
x,-y,1/2+z
1/2+x,1/2+y,z
1/2-x,1/2-y,1/2+z
1/2+x,1/2-y,-z
1/2-x,1/2+y,1/2-z
1/2-x,1/2-y,-z
1/2+x,1/2+y,1/2-z
1/2-x,1/2+y,z
1/2+x,1/2-y,1/2+z
loop_
_atom_site_type_symbol
_atom_site_label
_atom_site_fract_x
_atom_site_fract_y
_atom_site_fract_z
Si Si1 0.868706 0.454309 0.908667
Si Si2 0.500000 0.199474 0.416824
Si Si3 0.666185 0.357502 0.085669
Si Si4 0.571480 0.550688 0.911726
Si Si5 0.786154 0.646945 0.089645
Si Si6 0.500000 0.917793 0.915433
Si Si7 0.870541 0.258359 0.915274
O O1 0.866787 0.473499 0.750000
O O2 0.836363 0.398576 0.925511
O O3 0.938841 0.448132 0.965889
O O4 0.836105 0.500000 0.000000
O O5 0.500000 0.200312 0.250000
O O6 0.500000 0.140805 0.477865
O O7 0.561501 0.228108 0.475750
O O8 0.679573 0.358354 0.250000
O O9 0.613435 0.399648 0.044972
O O10 0.644920 0.300132 0.033985
O O11 0.728713 0.370842 0.004282
O O12 0.580696 0.536507 0.750000
O O13 0.500000 0.565598 0.943744
O O14 0.592530 0.500000 0.000000
O O15 0.764574 0.653430 0.250000
O O16 0.817864 0.700639 0.031975
O O17 0.500000 0.912430 0.750000
O O18 0.872788 0.262617 0.750000
#
# Coordination Sequence:
#
# PCOD8258543 Si02
#       7
#    16   8  16  16  16   8  16
#     4  10  20  33  51  75 101 133 175 216 253 296
#     4   9  14  25  51  80 103 129 165 212 255 294
#     4  10  21  34  53  81 106 130 166 210 254 299
#     4   9  19  36  56  78 104 131 163 208 258 305
#     4  10  20  35  52  73 104 141 174 203 246 305
#     4   9  15  29  50  74 102 131 169 214 255 296
#     4   9  17  30  51  79 106 132 166 209 256 300
#
# _framework density 18.289802000000002
#
# number of rings (size 3 to 8) (size 9 to 14) (size 15 to 20)
#    0.000    2.500    1.667    0.750    1.167    2.000 
#    0.000    3.333    0.000    0.000    0.000    1.750 
#    0.000    0.000    0.000    0.000    0.000    0.000 
#
# Total GULP energy -595131.817593 kJ/mol
# GULP energy per Si atom -12398.579533 kJ/mol
# Density = 1.824817 g / cm^3
# Si number density = 18.289802 Si / 1000 Ang^3
#
#
#
# Elastic Constant Matrix: (Units=GPa)
#
#
# Indices 1 2 3 4 5 6 
#
# 1 105.3046 50.5046 40.4713 0.0000 0.0000 0.0000
# 2 50.5046 132.7504 47.2780 0.0000 0.0000 0.0000
# 3 40.4713 47.2780 42.9055 0.0000 0.0000 0.0000
# 4 0.0000 0.0000 0.0000 25.2065 0.0000 0.0000
# 5 0.0000 0.0000 0.0000 0.0000 23.7784 0.0000
# 6 0.0000 0.0000 0.0000 0.0000 0.0000 19.0678
#
#
#
# Elastic Compliance Matrix: (Units=1/GPa)
#
#
# Indices 1 2 3 4 5 6 
#
# 1 0.014993 -0.001098 -0.012932 0.000000 0.000000 0.000000
# 2 -0.001098 0.012479 -0.012715 0.000000 0.000000 0.000000
# 3 -0.012932 -0.012715 0.049516 0.000000 0.000000 0.000000
# 4 0.000000 0.000000 0.000000 0.039672 0.000000 0.000000
# 5 0.000000 0.000000 0.000000 0.000000 0.042055 0.000000
# 6 0.000000 0.000000 0.000000 0.000000 0.000000 0.052445
#
#
# Mechanical properties :
#
#
# Convention : Reuss Voigt Hill
#
# Bulk Modulus (GPa) = 42.55756 61.94091 52.24924
# Shear Modulus (GPa) = 18.34973 23.12431 20.73702
#
# Velocity S-wave (km/s) = 3.17089 3.55960 3.37085
# Velocity P-wave (km/s) = 6.06012 7.12981 6.61662
#
# Compressibility (1/GPa) = 0.02349759
#
# Stress axis : x y z
#
# Youngs Moduli (GPa) = 66.69645 80.13425 20.19547
#
# Poissons Ratio (x) = 0.08802 0.26117
# Poissons Ratio (y) = 0.07326 0.25678
# Poissons Ratio (z) = 0.86254 1.01888
#
# Static dielectric constant tensor:
#      x y z
#    x 3.440430 0.000000 0.000000 
#    y 0.000000 3.455090 0.000000 
#    z 0.000000 0.000000 2.987100 
# 
# 
# High freq. dielectric constant tensor:
#      x y z
#    x 1.713980 0.000000 0.000000 
#    y 0.000000 1.720710 0.000000 
#    z 0.000000 0.000000 1.665950 
# 
# From -- ./inp_files/10565.got.cif
#   From: 2010.03.12/outbox.cif.g09.slc.cpg/sg63_6_cif.got.tgz:10565.got - 2010.04.10 19:34:48.
