data_PCOD8258021
_publ_section_title
;
Structure prediction by ZEFSAII (Michael W. Deem and Ramdas Pophale) SiO2 
 PCOD8258021
Probable space group: C M C M
;
_chemical_formula_sum "Si O2"
_cell_formula_units_Z 96
_cell_length_a 19.735308
_cell_length_b 28.707293
_cell_length_c 8.969765
_cell_angle_alpha 90.000000
_cell_angle_beta 90.000000
_cell_angle_gamma 90.000000
_cell_volume 5081.795866
_symmetry_space_group_name_H-M "C M C M"
_symmetry_group_IT_number 63
_symmetry_cell_setting 'orthorhombic'
loop_
_space_group_symop_operation_xyz
x,y,z
-x,-y,1/2+z
x,-y,-z
-x,y,1/2-z
-x,-y,-z
x,y,1/2-z
-x,y,z
x,-y,1/2+z
1/2+x,1/2+y,z
1/2-x,1/2-y,1/2+z
1/2+x,1/2-y,-z
1/2-x,1/2+y,1/2-z
1/2-x,1/2-y,-z
1/2+x,1/2+y,1/2-z
1/2-x,1/2+y,z
1/2+x,1/2-y,1/2+z
loop_
_atom_site_type_symbol
_atom_site_label
_atom_site_fract_x
_atom_site_fract_y
_atom_site_fract_z
Si Si1 0.075020 0.046009 0.077182
Si Si2 0.306480 0.294730 0.415775
Si Si3 0.682926 0.401907 0.084932
Si Si4 0.152553 0.711091 0.926138
Si Si5 0.675257 0.051106 0.926820
Si Si6 0.579945 0.125096 0.075732
O O1 0.073225 0.037007 0.250000
O O2 0.000000 0.058927 0.017154
O O3 0.128003 0.085321 0.037703
O O4 0.103156 0.000000 0.000000
O O5 0.307070 0.272917 0.250000
O O6 0.328827 0.347415 0.411598
O O7 0.229841 0.296877 0.477971
O O8 0.359047 0.264401 0.517228
O O9 0.667535 0.422443 0.250000
O O10 0.757061 0.419524 0.035656
O O11 0.140998 0.706287 0.750000
O O12 0.104604 0.673911 0.006238
O O13 0.664379 0.045939 0.750000
O O14 0.613573 0.080650 0.995212
O O15 0.678784 0.000000 0.000000
O O16 0.598478 0.124063 0.250000
O O17 0.500000 0.121200 0.049463
#
# Coordination Sequence:
#
# PCOD8258021 Si02
#       6
#    16  16  16  16  16  16
#     4  10  21  36  54  78 109 147 190 231 277 336
#     4   9  18  34  56  85 117 146 182 228 278 337
#     4  10  20  36  58  86 117 149 188 234 285 340
#     4  10  19  35  58  86 114 146 187 231 280 336
#     4  11  23  40  60  87 118 151 195 246 297 351
#     4  11  24  41  61  85 115 155 200 245 297 353
#
# _framework density 18.89096
#
# number of rings (size 3 to 8) (size 9 to 14) (size 15 to 20)
#    0.000    1.833    1.667    2.500    0.000    6.667 
#    0.000    0.833    0.000    1.000    0.000    0.000 
#    0.000    0.000    0.000    0.000    0.000    0.000 
#
# Total GULP energy -594969.663976 kJ/mol
# GULP energy per Si atom -12395.201333 kJ/mol
# Density = 1.884796 g / cm^3
# Si number density = 18.890960 Si / 1000 Ang^3
#
#
#
# Elastic Constant Matrix: (Units=GPa)
#
#
# Indices 1 2 3 4 5 6 
#
# 1 70.0782 42.8651 46.0132 0.0000 0.0000 0.0000
# 2 42.8651 115.6644 55.3305 0.0000 0.0000 0.0000
# 3 46.0132 55.3305 104.2876 0.0000 0.0000 0.0000
# 4 0.0000 0.0000 0.0000 37.1333 0.0000 0.0000
# 5 0.0000 0.0000 0.0000 0.0000 30.4540 0.0000
# 6 0.0000 0.0000 0.0000 0.0000 0.0000 25.9594
#
#
#
# Elastic Compliance Matrix: (Units=1/GPa)
#
#
# Indices 1 2 3 4 5 6 
#
# 1 0.021819 -0.004665 -0.007152 0.000000 0.000000 0.000000
# 2 -0.004665 0.012584 -0.004618 0.000000 0.000000 0.000000
# 3 -0.007152 -0.004618 0.015195 0.000000 0.000000 0.000000
# 4 0.000000 0.000000 0.000000 0.026930 0.000000 0.000000
# 5 0.000000 0.000000 0.000000 0.000000 0.032836 0.000000
# 6 0.000000 0.000000 0.000000 0.000000 0.000000 0.038522
#
#
# Mechanical properties :
#
#
# Convention : Reuss Voigt Hill
#
# Bulk Modulus (GPa) = 59.78183 64.27197 62.02690
# Shear Modulus (GPa) = 26.83394 28.43076 27.63235
#
# Velocity S-wave (km/s) = 3.77299 3.88363 3.82871
# Velocity P-wave (km/s) = 7.12005 7.36251 7.24229
#
# Compressibility (1/GPa) = 0.01672749
#
# Stress axis : x y z
#
# Youngs Moduli (GPa) = 45.83145 79.46803 65.81286
#
# Poissons Ratio (x) = 0.37071 0.47069
# Poissons Ratio (y) = 0.21380 0.30393
# Poissons Ratio (z) = 0.32778 0.36700
#
# Static dielectric constant tensor:
#      x y z
#    x 3.351600 0.000000 0.000000 
#    y 0.000000 3.856430 0.000000 
#    z 0.000000 0.000000 3.868750 
# 
# 
# High freq. dielectric constant tensor:
#      x y z
#    x 1.717090 0.000000 0.000000 
#    y 0.000000 1.741560 0.000000 
#    z 0.000000 0.000000 1.744900 
# 
# From -- ./inp_files/8579.got.cif
#   From: 2010.03.12/outbox.cif.g09.slc.cpg/sg63_5_cif.got.tgz:8579.got - 2010.04.10 19:34:48.
