data_PCOD8258481
_publ_section_title
;
Structure prediction by ZEFSAII (Michael W. Deem and Ramdas Pophale) SiO2 
 PCOD8258481
Probable space group: C M C M
;
_chemical_formula_sum "Si O2"
_cell_formula_units_Z 80
_cell_length_a 28.300724
_cell_length_b 17.525402
_cell_length_c 8.987937
_cell_angle_alpha 90.000000
_cell_angle_beta 90.000000
_cell_angle_gamma 90.000000
_cell_volume 4457.851059
_symmetry_space_group_name_H-M "C M C M"
_symmetry_group_IT_number 63
_symmetry_cell_setting 'orthorhombic'
loop_
_space_group_symop_operation_xyz
x,y,z
-x,-y,1/2+z
x,-y,-z
-x,y,1/2-z
-x,-y,-z
x,y,1/2-z
-x,y,z
x,-y,1/2+z
1/2+x,1/2+y,z
1/2-x,1/2-y,1/2+z
1/2+x,1/2-y,-z
1/2-x,1/2+y,1/2-z
1/2-x,1/2-y,-z
1/2+x,1/2+y,1/2-z
1/2-x,1/2+y,z
1/2+x,1/2-y,1/2+z
loop_
_atom_site_type_symbol
_atom_site_label
_atom_site_fract_x
_atom_site_fract_y
_atom_site_fract_z
Si Si1 0.859264 0.715500 0.073694
Si Si2 0.214187 0.806960 0.575882
Si Si3 0.708931 0.920565 0.921557
Si Si4 0.444368 0.573218 0.916262
Si Si5 0.945957 0.770164 0.924981
O O1 0.861175 0.723305 0.250000
O O2 0.829314 0.641788 0.021706
O O3 0.835988 0.793308 0.004945
O O4 0.912007 0.708679 0.005815
O O5 0.209474 0.788557 0.750000
O O6 0.250000 0.750000 0.500000
O O7 0.237124 0.890996 0.551245
O O8 0.699642 0.934911 0.750000
O O9 0.700081 0.000000 0.000000
O O10 0.422614 0.580654 0.750000
O O11 0.500000 0.561831 0.902692
O O12 0.422012 0.500000 0.000000
O O13 0.432304 0.647218 0.012268
O O14 0.936972 0.769897 0.750000
O O15 0.000000 0.748535 0.963231
#
# Coordination Sequence:
#
# PCOD8258481 Si02
#       5
#    16  16  16  16  16
#     4  10  20  34  52  76 103 134 172 211 255 305
#     4   9  17  31  50  74 101 129 162 200 245 299
#     4   9  19  33  52  78 105 132 164 203 250 305
#     4   9  16  27  44  65  90 121 157 200 248 295
#     4  10  20  33  50  73 100 134 177 220 261 306
#
# _framework density 17.945865999999999
#
# number of rings (size 3 to 8) (size 9 to 14) (size 15 to 20)
#    0.000    2.600    0.000    3.600    0.000    8.400 
#    0.000    1.000    0.000    3.000    0.000    0.000 
#    0.000    0.000    0.000    0.000    0.000    0.000 
#
# Total GULP energy -495734.325868 kJ/mol
# GULP energy per Si atom -12393.358147 kJ/mol
# Density = 1.790502 g / cm^3
# Si number density = 17.945866 Si / 1000 Ang^3
#
#
#
# Elastic Constant Matrix: (Units=GPa)
#
#
# Indices 1 2 3 4 5 6 
#
# 1 96.7875 48.4986 51.9649 0.0000 0.0000 0.0000
# 2 48.4986 91.7216 46.9248 0.0000 0.0000 0.0000
# 3 51.9649 46.9248 105.8800 0.0000 0.0000 0.0000
# 4 0.0000 0.0000 0.0000 31.9162 0.0000 0.0000
# 5 0.0000 0.0000 0.0000 0.0000 30.9739 0.0000
# 6 0.0000 0.0000 0.0000 0.0000 0.0000 18.3522
#
#
#
# Elastic Compliance Matrix: (Units=1/GPa)
#
#
# Indices 1 2 3 4 5 6 
#
# 1 0.016093 -0.005779 -0.005337 0.000000 0.000000 0.000000
# 2 -0.005779 0.016175 -0.004332 0.000000 0.000000 0.000000
# 3 -0.005337 -0.004332 0.013984 0.000000 0.000000 0.000000
# 4 0.000000 0.000000 0.000000 0.031332 0.000000 0.000000
# 5 0.000000 0.000000 0.000000 0.000000 0.032285 0.000000
# 6 0.000000 0.000000 0.000000 0.000000 0.000000 0.054489
#
#
# Mechanical properties :
#
#
# Convention : Reuss Voigt Hill
#
# Bulk Modulus (GPa) = 65.12436 65.46288 65.29362
# Shear Modulus (GPa) = 24.95341 26.04850 25.50095
#
# Velocity S-wave (km/s) = 3.73296 3.81399 3.77370
# Velocity P-wave (km/s) = 7.41270 7.48014 7.44650
#
# Compressibility (1/GPa) = 0.01535524
#
# Stress axis : x y z
#
# Youngs Moduli (GPa) = 62.13821 61.82564 71.50982
#
# Poissons Ratio (x) = 0.35728 0.38167
# Poissons Ratio (y) = 0.35909 0.30979
# Poissons Ratio (z) = 0.33165 0.26784
#
# Static dielectric constant tensor:
#      x y z
#    x 3.416840 0.000000 0.000000 
#    y 0.000000 3.180400 0.000000 
#    z 0.000000 0.000000 3.446080 
# 
# 
# High freq. dielectric constant tensor:
#      x y z
#    x 1.681280 0.000000 0.000000 
#    y 0.000000 1.664440 0.000000 
#    z 0.000000 0.000000 1.711070 
# 
# From -- ./inp_files/14032.got.cif
#   From: 2010.03.12/outbox.cif.g09.slc.cpg/sg63_8_cif.got.tgz:14032.got - 2010.04.10 19:34:48.
