data_PCOD8258028
_publ_section_title
;
Structure prediction by ZEFSAII (Michael W. Deem and Ramdas Pophale) SiO2 
 PCOD8258028
Probable space group: C M C M
;
_chemical_formula_sum "Si O2"
_cell_formula_units_Z 128
_cell_length_a 24.664269
_cell_length_b 28.395381
_cell_length_c 10.295854
_cell_angle_alpha 90.000000
_cell_angle_beta 90.000000
_cell_angle_gamma 90.000000
_cell_volume 7210.714891
_symmetry_space_group_name_H-M "C M C M"
_symmetry_group_IT_number 63
_symmetry_cell_setting 'orthorhombic'
loop_
_space_group_symop_operation_xyz
x,y,z
-x,-y,1/2+z
x,-y,-z
-x,y,1/2-z
-x,-y,-z
x,y,1/2-z
-x,y,z
x,-y,1/2+z
1/2+x,1/2+y,z
1/2-x,1/2-y,1/2+z
1/2+x,1/2-y,-z
1/2-x,1/2+y,1/2-z
1/2-x,1/2-y,-z
1/2+x,1/2+y,1/2-z
1/2-x,1/2+y,z
1/2+x,1/2-y,1/2+z
loop_
_atom_site_type_symbol
_atom_site_label
_atom_site_fract_x
_atom_site_fract_y
_atom_site_fract_z
Si Si1 0.327688 0.295373 0.494437
Si Si2 0.438115 0.541234 0.100407
Si Si3 0.284968 0.794406 0.109663
Si Si4 0.557859 0.156987 0.403294
Si Si5 0.159411 0.896676 0.600717
Si Si6 0.059401 0.237454 0.903153
Si Si7 0.172916 0.367792 0.900980
Si Si8 0.258284 0.959278 0.899553
O O1 0.316724 0.255617 0.603413
O O2 0.280279 0.285608 0.389165
O O3 0.320902 0.349470 0.533472
O O4 0.389897 0.293339 0.448438
O O5 0.427209 0.524634 0.250000
O O6 0.500000 0.557411 0.082530
O O7 0.401301 0.586419 0.065112
O O8 0.423570 0.500000 0.000000
O O9 0.300125 0.816755 0.250000
O O10 0.299809 0.828163 0.990061
O O11 0.553590 0.159491 0.250000
O O12 0.500000 0.136758 0.457713
O O13 0.566932 0.209698 0.457565
O O14 0.609814 0.126111 0.443551
O O15 0.164889 0.884508 0.750000
O O16 0.199045 0.939695 0.564211
O O17 0.059824 0.237777 0.750000
O O18 0.000000 0.217944 0.951058
O O19 0.178649 0.351549 0.750000
O O20 0.198532 0.418298 0.922875
O O21 0.260401 0.977396 0.750000
O O22 0.273407 0.000000 0.000000
#
# Coordination Sequence:
#
# PCOD8258028 Si02
#       8
#    16  16  16  16  16  16  16  16
#     4  11  21  34  51  73 110 148 181 217 266 318
#     4   9  18  34  56  78 100 132 176 225 275 324
#     4  11  23  34  51  80 111 144 179 219 263 313
#     4   8  14  27  51  79 102 131 177 221 248 288
#     4  10  20  35  53  74 101 137 180 221 265 318
#     4   9  17  30  49  73 102 140 185 228 262 297
#     4  10  19  35  59  81 106 141 178 215 262 317
#     4  10  21  37  56  79 104 135 170 216 270 322
#
# _framework density 17.751360999999999
#
# number of rings (size 3 to 8) (size 9 to 14) (size 15 to 20)
#    0.000    2.250    2.500    1.875    0.000    3.000 
#    0.000    1.250    0.000    4.125    0.000    0.000 
#    0.000    0.000    0.000    0.000    0.000    0.000 
#
# Total GULP energy -792848.447591 kJ/mol
# GULP energy per Si atom -12388.256994 kJ/mol
# Density = 1.771096 g / cm^3
# Si number density = 17.751361 Si / 1000 Ang^3
#
#
#
# Elastic Constant Matrix: (Units=GPa)
#
#
# Indices 1 2 3 4 5 6 
#
# 1 125.6645 36.8737 35.0527 0.0000 0.0000 0.0000
# 2 36.8737 84.2260 46.5626 0.0000 0.0000 0.0000
# 3 35.0527 46.5626 77.0758 0.0000 0.0000 0.0000
# 4 0.0000 0.0000 0.0000 20.2223 0.0000 0.0000
# 5 0.0000 0.0000 0.0000 0.0000 11.6710 0.0000
# 6 0.0000 0.0000 0.0000 0.0000 0.0000 10.3719
#
#
#
# Elastic Compliance Matrix: (Units=1/GPa)
#
#
# Indices 1 2 3 4 5 6 
#
# 1 0.009494 -0.002657 -0.002713 0.000000 0.000000 0.000000
# 2 -0.002657 0.018570 -0.010010 0.000000 0.000000 0.000000
# 3 -0.002713 -0.010010 0.020255 0.000000 0.000000 0.000000
# 4 0.000000 0.000000 0.000000 0.049450 0.000000 0.000000
# 5 0.000000 0.000000 0.000000 0.000000 0.085683 0.000000
# 6 0.000000 0.000000 0.000000 0.000000 0.000000 0.096414
#
#
# Mechanical properties :
#
#
# Convention : Reuss Voigt Hill
#
# Bulk Modulus (GPa) = 56.94791 58.21604 57.58197
# Shear Modulus (GPa) = 15.79886 19.68485 17.74186
#
# Velocity S-wave (km/s) = 2.98654 3.33366 3.16486
# Velocity P-wave (km/s) = 6.63649 6.90537 6.77227
#
# Compressibility (1/GPa) = 0.01755991
#
# Stress axis : x y z
#
# Youngs Moduli (GPa) = 105.33036 53.85098 49.37016
#
# Poissons Ratio (x) = 0.14307 0.13393
# Poissons Ratio (y) = 0.27983 0.49420
# Poissons Ratio (z) = 0.28573 0.53905
#
# Static dielectric constant tensor:
#      x y z
#    x 4.001350 0.000000 0.000000 
#    y 0.000000 3.008260 0.000000 
#    z 0.000000 0.000000 3.101320 
# 
# 
# High freq. dielectric constant tensor:
#      x y z
#    x 1.709000 0.000000 0.000000 
#    y 0.000000 1.658130 0.000000 
#    z 0.000000 0.000000 1.659730 
# 
# From -- ./inp_files/24261.got.cif
#   From: 2010.03.12/outbox.cif.g09.slc.cpg/sg63_13_cif.got.tgz:24261.got - 2010.04.10 19:34:48.
