data_PCOD8258237
_publ_section_title
;
Structure prediction by ZEFSAII (Michael W. Deem and Ramdas Pophale) SiO2 
 PCOD8258237
Probable space group: C M C M
;
_chemical_formula_sum "Si O2"
_cell_formula_units_Z 112
_cell_length_a 22.199421
_cell_length_b 12.979235
_cell_length_c 21.633709
_cell_angle_alpha 90.000000
_cell_angle_beta 90.000000
_cell_angle_gamma 90.000000
_cell_volume 6233.353068
_symmetry_space_group_name_H-M "C M C M"
_symmetry_group_IT_number 63
_symmetry_cell_setting 'orthorhombic'
loop_
_space_group_symop_operation_xyz
x,y,z
-x,-y,1/2+z
x,-y,-z
-x,y,1/2-z
-x,-y,-z
x,y,1/2-z
-x,y,z
x,-y,1/2+z
1/2+x,1/2+y,z
1/2-x,1/2-y,1/2+z
1/2+x,1/2-y,-z
1/2-x,1/2+y,1/2-z
1/2-x,1/2-y,-z
1/2+x,1/2+y,1/2-z
1/2-x,1/2+y,z
1/2+x,1/2-y,1/2+z
loop_
_atom_site_type_symbol
_atom_site_label
_atom_site_fract_x
_atom_site_fract_y
_atom_site_fract_z
Si Si1 0.673728 0.162676 0.603216
Si Si2 0.654655 0.396921 0.377938
Si Si3 0.931310 0.737273 0.821233
Si Si4 0.278570 0.770811 0.678689
Si Si5 0.169513 0.848380 0.981870
Si Si6 0.741351 0.961353 0.600119
Si Si7 0.568693 0.437003 0.898787
O O1 0.609678 0.160403 0.638441
O O2 0.721036 0.213640 0.650056
O O3 0.669417 0.230595 0.541090
O O4 0.691348 0.047161 0.583180
O O5 0.662544 0.302692 0.330035
O O6 0.669449 0.347949 0.444795
O O7 0.703260 0.486172 0.362957
O O8 0.588941 0.449899 0.373649
O O9 0.911855 0.733145 0.750000
O O10 0.922640 0.854501 0.844244
O O11 0.000000 0.701152 0.830298
O O12 0.266941 0.792437 0.750000
O O13 0.289931 0.879206 0.645197
O O14 0.230606 0.906610 0.960568
O O15 0.110552 0.908280 0.957050
O O16 0.500000 0.443008 0.921536
#
# Coordination Sequence:
#
# PCOD8258237 Si02
#       7
#    16  16  16  16  16  16  16
#     4   9  18  31  49  69  93 125 155 189 237 282
#     4  10  20  31  47  71  98 126 155 192 236 280
#     4   9  17  29  46  70  96 121 157 201 236 273
#     4  10  21  33  45  67  96 123 156 194 229 276
#     4   9  18  31  46  73 102 120 153 197 233 279
#     4   9  18  30  47  67  92 125 156 189 231 277
#     4   9  17  30  49  72  98 128 157 189 234 284
#
# _framework density 17.967858
#
# number of rings (size 3 to 8) (size 9 to 14) (size 15 to 20)
#    0.000    2.714    0.000    3.000    0.000   10.857 
#    0.000    0.000    0.000    0.857    0.000    0.000 
#    0.000   14.857    0.000    0.000    0.000    0.000 
#
# Total GULP energy -694254.472591 kJ/mol
# GULP energy per Si atom -12397.401296 kJ/mol
# Density = 1.792696 g / cm^3
# Si number density = 17.967858 Si / 1000 Ang^3
#
#
#
# Elastic Constant Matrix: (Units=GPa)
#
#
# Indices 1 2 3 4 5 6 
#
# 1 76.2773 34.9989 20.5602 0.0000 0.0000 0.0000
# 2 34.9989 68.3457 6.0681 0.0000 0.0000 0.0000
# 3 20.5602 6.0681 40.6893 0.0000 0.0000 0.0000
# 4 0.0000 0.0000 0.0000 14.2289 0.0000 0.0000
# 5 0.0000 0.0000 0.0000 0.0000 14.5894 0.0000
# 6 0.0000 0.0000 0.0000 0.0000 0.0000 24.2794
#
#
#
# Elastic Compliance Matrix: (Units=1/GPa)
#
#
# Indices 1 2 3 4 5 6 
#
# 1 0.019697 -0.009327 -0.008562 0.000000 0.000000 0.000000
# 2 -0.009327 0.019244 0.001843 0.000000 0.000000 0.000000
# 3 -0.008562 0.001843 0.028628 0.000000 0.000000 0.000000
# 4 0.000000 0.000000 0.000000 0.070279 0.000000 0.000000
# 5 0.000000 0.000000 0.000000 0.000000 0.068543 0.000000
# 6 0.000000 0.000000 0.000000 0.000000 0.000000 0.041187
#
#
# Mechanical properties :
#
#
# Convention : Reuss Voigt Hill
#
# Bulk Modulus (GPa) = 28.18683 34.28518 31.23600
# Shear Modulus (GPa) = 17.15290 18.86523 18.00907
#
# Velocity S-wave (km/s) = 3.09308 3.24380 3.16934
# Velocity P-wave (km/s) = 5.33644 5.75782 5.55113
#
# Compressibility (1/GPa) = 0.03547756
#
# Stress axis : x y z
#
# Youngs Moduli (GPa) = 50.76840 51.96460 34.93072
#
# Poissons Ratio (x) = 0.48465 0.29908
# Poissons Ratio (y) = 0.47349 -0.06437
# Poissons Ratio (z) = 0.43468 -0.09576
#
# Static dielectric constant tensor:
#      x y z
#    x 3.364390 0.000000 0.000000 
#    y 0.000000 3.446520 0.000000 
#    z 0.000000 0.000000 3.131740 
# 
# 
# High freq. dielectric constant tensor:
#      x y z
#    x 1.673080 0.000000 0.000000 
#    y 0.000000 1.688900 0.000000 
#    z 0.000000 0.000000 1.683520 
# 
# From -- ./inp_files/57642.got.cif
#   From: 2010.03.12/outbox.cif.g09.slc.cpg/sg63_29_cif.got.tgz:57642.got - 2010.04.10 19:34:48.
