data_PCOD8258165
_publ_section_title
;
Structure prediction by ZEFSAII (Michael W. Deem and Ramdas Pophale) SiO2 
 PCOD8258165
Probable space group: C M C M
;
_chemical_formula_sum "Si O2"
_cell_formula_units_Z 104
_cell_length_a 29.798418
_cell_length_b 8.587570
_cell_length_c 21.140103
_cell_angle_alpha 90.000000
_cell_angle_beta 90.000000
_cell_angle_gamma 90.000000
_cell_volume 5409.667807
_symmetry_space_group_name_H-M "C M C M"
_symmetry_group_IT_number 63
_symmetry_cell_setting 'orthorhombic'
loop_
_space_group_symop_operation_xyz
x,y,z
-x,-y,1/2+z
x,-y,-z
-x,y,1/2-z
-x,-y,-z
x,y,1/2-z
-x,y,z
x,-y,1/2+z
1/2+x,1/2+y,z
1/2-x,1/2-y,1/2+z
1/2+x,1/2-y,-z
1/2-x,1/2+y,1/2-z
1/2-x,1/2-y,-z
1/2+x,1/2+y,1/2-z
1/2-x,1/2+y,z
1/2+x,1/2-y,1/2+z
loop_
_atom_site_type_symbol
_atom_site_label
_atom_site_fract_x
_atom_site_fract_y
_atom_site_fract_z
Si Si1 0.869433 0.997047 0.428506
Si Si2 0.411415 0.000000 0.500000
Si Si3 0.709990 0.988777 0.322513
Si Si4 0.449373 0.023641 0.321803
Si Si5 0.550605 0.268120 0.073632
Si Si6 0.873879 0.654436 0.615761
Si Si7 0.195015 0.850727 0.175684
O O1 0.917382 0.914679 0.434527
O O2 0.841058 0.907159 0.375363
O O3 0.847719 0.000000 0.500000
O O4 0.878081 0.168434 0.403757
O O5 0.442911 0.853290 0.516050
O O6 0.378303 0.959677 0.443402
O O7 0.702775 0.949608 0.250000
O O8 0.675263 0.876741 0.357393
O O9 0.760122 0.943653 0.342404
O O10 0.701795 0.168795 0.337166
O O11 0.444039 0.075882 0.250000
O O12 0.500000 0.963934 0.336846
O O13 0.414269 0.885221 0.335778
O O14 0.438334 0.178365 0.361265
O O15 0.500000 0.331619 0.072635
O O16 0.181391 0.880510 0.250000
#
# Coordination Sequence:
#
# PCOD8258165 Si02
#       7
#    16   8  16  16  16  16  16
#     4  12  25  41  56  91 128 161 204 251 304 362
#     4  10  19  38  56  84 114 154 208 242 297 350
#     4  10  21  40  67  95 117 154 205 248 299 366
#     4   9  19  37  61  89 118 154 204 256 306 360
#     4  10  21  38  61  84 117 160 204 249 300 361
#     4  11  22  36  59  85 122 159 197 248 296 358
#     4  10  22  42  66  90 122 159 201 250 304 368
#
# _framework density 19.224841000000001
#
# number of rings (size 3 to 8) (size 9 to 14) (size 15 to 20)
#    0.000    1.692    1.538    3.462    0.000    5.846 
#    1.385    1.538    0.000    1.846    0.000    0.000 
#    0.000    0.000    0.000    0.000    0.000    0.000 
#
# Total GULP energy -644717.517662 kJ/mol
# GULP energy per Si atom -12398.413801 kJ/mol
# Density = 1.918108 g / cm^3
# Si number density = 19.224841 Si / 1000 Ang^3
#
#
#
# Elastic Constant Matrix: (Units=GPa)
#
#
# Indices 1 2 3 4 5 6 
#
# 1 105.6369 49.3475 50.9600 0.0000 0.0000 0.0000
# 2 49.3475 91.8182 30.3635 0.0000 0.0000 0.0000
# 3 50.9600 30.3635 97.4934 0.0000 0.0000 0.0000
# 4 0.0000 0.0000 0.0000 23.2054 0.0000 0.0000
# 5 0.0000 0.0000 0.0000 0.0000 19.7301 0.0000
# 6 0.0000 0.0000 0.0000 0.0000 0.0000 31.7034
#
#
#
# Elastic Compliance Matrix: (Units=1/GPa)
#
#
# Indices 1 2 3 4 5 6 
#
# 1 0.015292 -0.006216 -0.006057 0.000000 0.000000 0.000000
# 2 -0.006216 0.014668 -0.001319 0.000000 0.000000 0.000000
# 3 -0.006057 -0.001319 0.013834 0.000000 0.000000 0.000000
# 4 0.000000 0.000000 0.000000 0.043093 0.000000 0.000000
# 5 0.000000 0.000000 0.000000 0.000000 0.050684 0.000000
# 6 0.000000 0.000000 0.000000 0.000000 0.000000 0.031542
#
#
# Mechanical properties :
#
#
# Convention : Reuss Voigt Hill
#
# Bulk Modulus (GPa) = 60.20604 61.81006 61.00805
# Shear Modulus (GPa) = 24.77271 25.87961 25.32616
#
# Velocity S-wave (km/s) = 3.59357 3.67298 3.63349
# Velocity P-wave (km/s) = 6.97159 7.08581 7.02893
#
# Compressibility (1/GPa) = 0.01660963
#
# Stress axis : x y z
#
# Youngs Moduli (GPa) = 65.39330 68.17601 72.28452
#
# Poissons Ratio (x) = 0.42375 0.43786
# Poissons Ratio (y) = 0.40646 0.09537
# Poissons Ratio (z) = 0.39611 0.08995
#
# Static dielectric constant tensor:
#      x y z
#    x 3.675040 0.000000 0.000000 
#    y 0.000000 3.617340 0.000000 
#    z 0.000000 0.000000 3.750220 
# 
# 
# High freq. dielectric constant tensor:
#      x y z
#    x 1.749080 0.000000 0.000000 
#    y 0.000000 1.747450 0.000000 
#    z 0.000000 0.000000 1.757160 
# 
# From -- ./inp_files/58161.got.cif
#   From: 2010.03.12/outbox.cif.g09.slc.cpg/sg63_30_cif.got.tgz:58161.got - 2010.04.10 19:34:48.
