data_PCOD8258451
_publ_section_title
;
Structure prediction by ZEFSAII (Michael W. Deem and Ramdas Pophale) SiO2 
 PCOD8258451
Probable space group: C M C M
;
_chemical_formula_sum "Si O2"
_cell_formula_units_Z 96
_cell_length_a 9.115932
_cell_length_b 23.798202
_cell_length_c 25.308923
_cell_angle_alpha 90.000000
_cell_angle_beta 90.000000
_cell_angle_gamma 90.000000
_cell_volume 5490.588397
_symmetry_space_group_name_H-M "C M C M"
_symmetry_group_IT_number 63
_symmetry_cell_setting 'orthorhombic'
loop_
_space_group_symop_operation_xyz
x,y,z
-x,-y,1/2+z
x,-y,-z
-x,y,1/2-z
-x,-y,-z
x,y,1/2-z
-x,y,z
x,-y,1/2+z
1/2+x,1/2+y,z
1/2-x,1/2-y,1/2+z
1/2+x,1/2-y,-z
1/2-x,1/2+y,1/2-z
1/2-x,1/2-y,-z
1/2+x,1/2+y,1/2-z
1/2-x,1/2+y,z
1/2+x,1/2-y,1/2+z
loop_
_atom_site_type_symbol
_atom_site_label
_atom_site_fract_x
_atom_site_fract_y
_atom_site_fract_z
Si Si1 0.666373 0.164682 0.880699
Si Si2 0.831422 0.509845 0.379298
Si Si3 0.669436 0.418463 0.187981
Si Si4 0.827587 0.768590 0.553518
Si Si5 0.837004 0.574845 0.970605
Si Si6 0.671736 0.604921 0.070899
O O1 0.500000 0.162858 0.859112
O O2 0.771222 0.140495 0.835229
O O3 0.713436 0.227469 0.897713
O O4 0.681411 0.127934 0.933040
O O5 0.754719 0.471680 0.335351
O O6 0.816132 0.481960 0.437186
O O7 0.754657 0.570892 0.382517
O O8 0.000000 0.516653 0.362553
O O9 0.694911 0.417424 0.250000
O O10 0.500000 0.424357 0.172595
O O11 0.750000 0.750000 0.500000
O O12 0.776775 0.830343 0.571851
O O13 0.000000 0.766803 0.541763
O O14 0.000000 0.575452 0.996594
O O15 0.712594 0.578162 0.014585
O O16 0.500000 0.598670 0.080446
#
# Coordination Sequence:
#
# PCOD8258451 Si02
#       6
#    16  16  16  16  16  16
#     4   9  18  33  52  75 105 139 176 213 251 304
#     4  10  21  35  51  72 101 136 172 210 255 311
#     4  10  21  37  58  82 104 125 159 216 275 316
#     4  10  20  33  49  73 106 145 182 214 250 299
#     4   9  17  30  47  68  99 138 175 209 248 297
#     4  11  21  30  46  73 105 140 177 213 251 298
#
# _framework density 17.484463999999999
#
# number of rings (size 3 to 8) (size 9 to 14) (size 15 to 20)
#    0.000    2.167    1.667    3.000    0.000    8.000 
#    0.000    0.000    0.000    1.000    0.000    2.333 
#    0.000    0.000    0.000    0.000    0.000    0.000 
#
# Total GULP energy -595195.866499 kJ/mol
# GULP energy per Si atom -12399.913885 kJ/mol
# Density = 1.744467 g / cm^3
# Si number density = 17.484464 Si / 1000 Ang^3
#
#
#
# Elastic Constant Matrix: (Units=GPa)
#
#
# Indices 1 2 3 4 5 6 
#
# 1 103.6641 56.0738 55.1477 0.0000 0.0000 0.0000
# 2 56.0738 120.6317 51.2820 0.0000 0.0000 0.0000
# 3 55.1477 51.2820 65.7980 0.0000 0.0000 0.0000
# 4 0.0000 0.0000 0.0000 7.3956 0.0000 0.0000
# 5 0.0000 0.0000 0.0000 0.0000 26.1970 0.0000
# 6 0.0000 0.0000 0.0000 0.0000 0.0000 28.6751
#
#
#
# Elastic Compliance Matrix: (Units=1/GPa)
#
#
# Indices 1 2 3 4 5 6 
#
# 1 0.018077 -0.002934 -0.012864 0.000000 0.000000 0.000000
# 2 -0.002934 0.012873 -0.007574 0.000000 0.000000 0.000000
# 3 -0.012864 -0.007574 0.031883 0.000000 0.000000 0.000000
# 4 0.000000 0.000000 0.000000 0.135216 0.000000 0.000000
# 5 0.000000 0.000000 0.000000 0.000000 0.038172 0.000000
# 6 0.000000 0.000000 0.000000 0.000000 0.000000 0.034873
#
#
# Mechanical properties :
#
#
# Convention : Reuss Voigt Hill
#
# Bulk Modulus (GPa) = 62.15557 68.34452 65.25005
# Shear Modulus (GPa) = 15.47010 20.95957 18.21484
#
# Velocity S-wave (km/s) = 2.97777 3.46606 3.23115
# Velocity P-wave (km/s) = 6.88833 7.42911 7.16382
#
# Compressibility (1/GPa) = 0.01608866
#
# Stress axis : x y z
#
# Youngs Moduli (GPa) = 55.31777 77.67928 31.36432
#
# Poissons Ratio (x) = 0.22792 0.40349
# Poissons Ratio (y) = 0.16231 0.23756
# Poissons Ratio (z) = 0.71163 0.58835
#
# Static dielectric constant tensor:
#      x y z
#    x 3.327520 0.000000 0.000000 
#    y 0.000000 3.586680 0.000000 
#    z 0.000000 0.000000 2.891210 
# 
# 
# High freq. dielectric constant tensor:
#      x y z
#    x 1.682500 0.000000 0.000000 
#    y 0.000000 1.684780 0.000000 
#    z 0.000000 0.000000 1.636670 
# 
# From -- ./inp_files/59837.got.cif
#   From: 2010.03.12/outbox.cif.g09.slc.cpg/sg63_30_cif.got.tgz:59837.got - 2010.04.10 19:34:48.
