data_PCOD8258298
_publ_section_title
;
Structure prediction by ZEFSAII (Michael W. Deem and Ramdas Pophale) SiO2 
 PCOD8258298
Probable space group: C M C M
;
_chemical_formula_sum "Si O2"
_cell_formula_units_Z 96
_cell_length_a 9.248917
_cell_length_b 25.007933
_cell_length_c 24.740482
_cell_angle_alpha 90.000000
_cell_angle_beta 90.000000
_cell_angle_gamma 90.000000
_cell_volume 5722.381864
_symmetry_space_group_name_H-M "C M C M"
_symmetry_group_IT_number 63
_symmetry_cell_setting 'orthorhombic'
loop_
_space_group_symop_operation_xyz
x,y,z
-x,-y,1/2+z
x,-y,-z
-x,y,1/2-z
-x,-y,-z
x,y,1/2-z
-x,y,z
x,-y,1/2+z
1/2+x,1/2+y,z
1/2-x,1/2-y,1/2+z
1/2+x,1/2-y,-z
1/2-x,1/2+y,1/2-z
1/2-x,1/2-y,-z
1/2+x,1/2+y,1/2-z
1/2-x,1/2+y,z
1/2+x,1/2-y,1/2+z
loop_
_atom_site_type_symbol
_atom_site_label
_atom_site_fract_x
_atom_site_fract_y
_atom_site_fract_z
Si Si1 0.332702 0.113951 0.186544
Si Si2 0.664438 0.695273 0.117183
Si Si3 0.666441 0.305022 0.002546
Si Si4 0.167508 0.681307 0.602425
Si Si5 0.836726 0.010404 0.185743
Si Si6 0.667857 0.093005 0.688076
O O1 0.308091 0.121544 0.250000
O O2 0.500000 0.106389 0.172283
O O3 0.272787 0.166549 0.157714
O O4 0.247720 0.062285 0.164048
O O5 0.500000 0.688449 0.137983
O O6 0.707262 0.757764 0.116955
O O7 0.679619 0.669024 0.057173
O O8 0.500000 0.294810 0.017434
O O9 0.741020 0.339489 0.050329
O O10 0.750000 0.250000 0.000000
O O11 0.208470 0.645045 0.653554
O O12 0.000000 0.676336 0.586920
O O13 0.833789 0.010681 0.250000
O O14 0.000000 0.011718 0.163277
O O15 0.758119 0.956956 0.164884
O O16 0.708948 0.105899 0.750000
O O17 0.500000 0.077896 0.682888
#
# Coordination Sequence:
#
# PCOD8258298 Si02
#       6
#    16  16  16  16  16  16
#     4  10  20  32  47  69  95 123 155 191 233 278
#     4   9  18  31  47  69  95 124 157 190 228 275
#     4   9  17  30  48  68  91 121 158 196 231 271
#     4   9  18  31  48  71  97 126 158 190 229 276
#     4   9  17  30  48  68  90 120 158 195 230 272
#     4   9  17  30  48  70  97 127 157 190 228 273
#
# _framework density 16.776232
#
# number of rings (size 3 to 8) (size 9 to 14) (size 15 to 20)
#    0.000    2.833    0.000    2.500    0.000    7.667 
#    0.000    1.667    0.000    3.000    0.000    7.000 
#    0.000    0.000    0.000    0.000    0.000    0.000 
#
# Total GULP energy -595054.029050 kJ/mol
# GULP energy per Si atom -12396.958939 kJ/mol
# Density = 1.673805 g / cm^3
# Si number density = 16.776232 Si / 1000 Ang^3
#
#
#
# Elastic Constant Matrix: (Units=GPa)
#
#
# Indices 1 2 3 4 5 6 
#
# 1 108.4897 55.3660 51.1302 0.0000 0.0000 0.0000
# 2 55.3660 92.0204 44.6680 0.0000 0.0000 0.0000
# 3 51.1302 44.6680 62.2018 0.0000 0.0000 0.0000
# 4 0.0000 0.0000 0.0000 4.3814 0.0000 0.0000
# 5 0.0000 0.0000 0.0000 0.0000 29.4605 0.0000
# 6 0.0000 0.0000 0.0000 0.0000 0.0000 30.0883
#
#
#
# Elastic Compliance Matrix: (Units=1/GPa)
#
#
# Indices 1 2 3 4 5 6 
#
# 1 0.016486 -0.005129 -0.009868 0.000000 0.000000 0.000000
# 2 -0.005129 0.018278 -0.008910 0.000000 0.000000 0.000000
# 3 -0.009868 -0.008910 0.030587 0.000000 0.000000 0.000000
# 4 0.000000 0.000000 0.000000 0.228239 0.000000 0.000000
# 5 0.000000 0.000000 0.000000 0.000000 0.033944 0.000000
# 6 0.000000 0.000000 0.000000 0.000000 0.000000 0.033236
#
#
# Mechanical properties :
#
#
# Convention : Reuss Voigt Hill
#
# Bulk Modulus (GPa) = 57.02327 62.78225 59.90276
# Shear Modulus (GPa) = 12.06484 20.22255 16.14369
#
# Velocity S-wave (km/s) = 2.68463 3.47569 3.10545
# Velocity P-wave (km/s) = 6.60863 7.32201 6.97445
#
# Compressibility (1/GPa) = 0.01753670
#
# Stress axis : x y z
#
# Youngs Moduli (GPa) = 60.65888 54.71090 32.69391
#
# Poissons Ratio (x) = 0.28060 0.32263
# Poissons Ratio (y) = 0.31110 0.29130
# Poissons Ratio (z) = 0.59860 0.48746
#
# Static dielectric constant tensor:
#      x y z
#    x 3.343280 0.000000 0.000000 
#    y 0.000000 3.021460 0.000000 
#    z 0.000000 0.000000 3.368470 
# 
# 
# High freq. dielectric constant tensor:
#      x y z
#    x 1.657260 0.000000 0.000000 
#    y 0.000000 1.625960 0.000000 
#    z 0.000000 0.000000 1.628330 
# 
# From -- ./inp_files/59884.got.cif
#   From: 2010.03.12/outbox.cif.g09.slc.cpg/sg63_30_cif.got.tgz:59884.got - 2010.04.10 19:34:48.
