data_PCOD8258747
_publ_section_title
;
Structure prediction by ZEFSAII (Michael W. Deem and Ramdas Pophale) SiO2 
 PCOD8258747
Probable space group: C M C M
;
_chemical_formula_sum "Si O2"
_cell_formula_units_Z 64
_cell_length_a 8.792169
_cell_length_b 18.519032
_cell_length_c 20.667704
_cell_angle_alpha 90.000000
_cell_angle_beta 90.000000
_cell_angle_gamma 90.000000
_cell_volume 3365.166388
_symmetry_space_group_name_H-M "C M C M"
_symmetry_group_IT_number 63
_symmetry_cell_setting 'orthorhombic'
loop_
_space_group_symop_operation_xyz
x,y,z
-x,-y,1/2+z
x,-y,-z
-x,y,1/2-z
-x,-y,-z
x,y,1/2-z
-x,y,z
x,-y,1/2+z
1/2+x,1/2+y,z
1/2-x,1/2-y,1/2+z
1/2+x,1/2-y,-z
1/2-x,1/2+y,1/2-z
1/2-x,1/2-y,-z
1/2+x,1/2+y,1/2-z
1/2-x,1/2+y,z
1/2+x,1/2-y,1/2+z
loop_
_atom_site_type_symbol
_atom_site_label
_atom_site_fract_x
_atom_site_fract_y
_atom_site_fract_z
Si Si1 0.680450 0.453930 0.322023
Si Si2 0.680811 0.292431 0.178595
Si Si3 0.676847 0.449809 0.561434
Si Si4 0.179856 0.295658 0.557280
O O1 0.731915 0.478701 0.250000
O O2 0.500000 0.452318 0.327058
O O3 0.742371 0.373234 0.336496
O O4 0.743634 0.509597 0.375237
O O5 0.737788 0.267866 0.250000
O O6 0.500000 0.294216 0.177633
O O7 0.742725 0.236884 0.125045
O O8 0.703454 0.500000 0.500000
O O9 0.500000 0.429910 0.569442
O O10 0.771908 0.377969 0.551200
O O11 0.250000 0.250000 0.500000
O O12 0.000000 0.289141 0.553230
#
# Coordination Sequence:
#
# PCOD8258747 Si02
#       4
#    16  16  16  16
#     4   8  14  27  49  74  98 127 165 207 250 299
#     4   8  15  30  52  76 101 132 171 211 252 301
#     4  10  20  34  52  74 101 134 172 212 255 304
#     4  11  22  35  53  77 105 137 173 214 259 306
#
# _framework density 19.018374999999999
#
# number of rings (size 3 to 8) (size 9 to 14) (size 15 to 20)
#    0.000    2.750    0.000    3.750    0.000    5.500 
#    0.000    0.000    0.000    2.250    0.000    7.000 
#    0.000    0.000    0.000    0.000    0.000    0.000 
#
# Total GULP energy -396680.930630 kJ/mol
# GULP energy per Si atom -12396.279082 kJ/mol
# Density = 1.897509 g / cm^3
# Si number density = 19.018375 Si / 1000 Ang^3
#
#
#
# Elastic Constant Matrix: (Units=GPa)
#
#
# Indices 1 2 3 4 5 6 
#
# 1 35.0074 32.9162 35.6495 0.0000 0.0000 0.0000
# 2 32.9162 121.5538 77.9010 0.0000 0.0000 0.0000
# 3 35.6495 77.9010 156.5220 0.0000 0.0000 0.0000
# 4 0.0000 0.0000 0.0000 41.9551 0.0000 0.0000
# 5 0.0000 0.0000 0.0000 0.0000 12.3572 0.0000
# 6 0.0000 0.0000 0.0000 0.0000 0.0000 23.2085
#
#
#
# Elastic Compliance Matrix: (Units=1/GPa)
#
#
# Indices 1 2 3 4 5 6 
#
# 1 0.041482 -0.007603 -0.005664 0.000000 0.000000 0.000000
# 2 -0.007603 0.013474 -0.004974 0.000000 0.000000 0.000000
# 3 -0.005664 -0.004974 0.010154 0.000000 0.000000 0.000000
# 4 0.000000 0.000000 0.000000 0.023835 0.000000 0.000000
# 5 0.000000 0.000000 0.000000 0.000000 0.080924 0.000000
# 6 0.000000 0.000000 0.000000 0.000000 0.000000 0.043088
#
#
# Mechanical properties :
#
#
# Convention : Reuss Voigt Hill
#
# Bulk Modulus (GPa) = 34.93110 67.33519 51.13314
# Shear Modulus (GPa) = 19.30633 26.61192 22.95912
#
# Velocity S-wave (km/s) = 3.18958 3.74475 3.47826
# Velocity P-wave (km/s) = 5.65433 7.36069 6.56320
#
# Compressibility (1/GPa) = 0.02862779
#
# Stress axis : x y z
#
# Youngs Moduli (GPa) = 24.10666 74.21971 98.47916
#
# Poissons Ratio (x) = 0.56432 0.55777
# Poissons Ratio (y) = 0.18329 0.48984
# Poissons Ratio (z) = 0.13654 0.36917
#
# Static dielectric constant tensor:
#      x y z
#    x 2.980430 0.000000 0.000000 
#    y 0.000000 3.630300 0.000000 
#    z 0.000000 0.000000 4.016070 
# 
# 
# High freq. dielectric constant tensor:
#      x y z
#    x 1.685380 0.000000 0.000000 
#    y 0.000000 1.741460 0.000000 
#    z 0.000000 0.000000 1.761020 
# 
# From -- ./inp_files/50310.got.cif
#   From: 2010.03.12/outbox.cif.g09.slc.cpg/sg63_26_cif.got.tgz:50310.got - 2010.04.10 19:34:48.
