data_PCOD8258523
_publ_section_title
;
Structure prediction by ZEFSAII (Michael W. Deem and Ramdas Pophale) SiO2 
 PCOD8258523
Probable space group: C M C M
;
_chemical_formula_sum "Si O2"
_cell_formula_units_Z 64
_cell_length_a 17.137377
_cell_length_b 18.576847
_cell_length_c 9.292751
_cell_angle_alpha 90.000000
_cell_angle_beta 90.000000
_cell_angle_gamma 90.000000
_cell_volume 2958.425623
_symmetry_space_group_name_H-M "C M C M"
_symmetry_group_IT_number 63
_symmetry_cell_setting 'orthorhombic'
loop_
_space_group_symop_operation_xyz
x,y,z
-x,-y,1/2+z
x,-y,-z
-x,y,1/2-z
-x,-y,-z
x,y,1/2-z
-x,y,z
x,-y,1/2+z
1/2+x,1/2+y,z
1/2-x,1/2-y,1/2+z
1/2+x,1/2-y,-z
1/2-x,1/2+y,1/2-z
1/2-x,1/2-y,-z
1/2+x,1/2+y,1/2-z
1/2-x,1/2+y,z
1/2+x,1/2-y,1/2+z
loop_
_atom_site_type_symbol
_atom_site_label
_atom_site_fract_x
_atom_site_fract_y
_atom_site_fract_z
Si Si1 0.087724 0.561964 0.592948
Si Si2 0.589994 0.307404 0.916263
Si Si3 0.652977 0.821751 0.579865
Si Si4 0.793684 0.926206 0.914022
O O1 0.132741 0.500000 0.500000
O O2 0.128497 0.571236 0.750000
O O3 0.084300 0.634871 0.500560
O O4 0.000000 0.536065 0.620060
O O5 0.597366 0.282640 0.750000
O O6 0.500000 0.304739 0.968183
O O7 0.621516 0.388966 0.933881
O O8 0.647149 0.257804 0.013062
O O9 0.640064 0.817508 0.750000
O O10 0.731080 0.865445 0.536350
O O11 0.777364 0.946826 0.750000
O O12 0.789901 0.000000 0.000000
#
# Coordination Sequence:
#
# PCOD8258523 Si02
#       4
#    16  16  16  16
#     4  10  20  33  50  75 110 152 195 239 288 343
#     4  10  22  41  63  87 118 156 197 243 295 349
#     4  11  22  36  57  86 118 151 191 239 290 348
#     4  10  23  41  61  88 120 155 196 243 295 349
#
# _framework density 21.633127999999999
#
# number of rings (size 3 to 8) (size 9 to 14) (size 15 to 20)
#    0.000    1.750    0.000    3.750    0.000   10.500 
#    0.000    0.000    0.000    0.000    0.000    0.000 
#    0.000    0.000    0.000    0.000    0.000    0.000 
#
# Total GULP energy -396586.831465 kJ/mol
# GULP energy per Si atom -12393.338483 kJ/mol
# Density = 2.158389 g / cm^3
# Si number density = 21.633128 Si / 1000 Ang^3
#
#
#
# Elastic Constant Matrix: (Units=GPa)
#
#
# Indices 1 2 3 4 5 6 
#
# 1 88.1615 56.4776 44.1711 0.0000 0.0000 0.0000
# 2 56.4776 125.4743 75.5477 0.0000 0.0000 0.0000
# 3 44.1711 75.5477 133.4101 0.0000 0.0000 0.0000
# 4 0.0000 0.0000 0.0000 36.2345 0.0000 0.0000
# 5 0.0000 0.0000 0.0000 0.0000 16.5896 0.0000
# 6 0.0000 0.0000 0.0000 0.0000 0.0000 26.2944
#
#
#
# Elastic Compliance Matrix: (Units=1/GPa)
#
#
# Indices 1 2 3 4 5 6 
#
# 1 0.016243 -0.006180 -0.001878 0.000000 0.000000 0.000000
# 2 -0.006180 0.014445 -0.006133 0.000000 0.000000 0.000000
# 3 -0.001878 -0.006133 0.011591 0.000000 0.000000 0.000000
# 4 0.000000 0.000000 0.000000 0.027598 0.000000 0.000000
# 5 0.000000 0.000000 0.000000 0.000000 0.060279 0.000000
# 6 0.000000 0.000000 0.000000 0.000000 0.000000 0.038031
#
#
# Mechanical properties :
#
#
# Convention : Reuss Voigt Hill
#
# Bulk Modulus (GPa) = 71.97076 77.71540 74.84308
# Shear Modulus (GPa) = 24.85073 27.21366 26.03219
#
# Velocity S-wave (km/s) = 3.39298 3.55062 3.47269
# Velocity P-wave (km/s) = 6.97787 7.26715 7.12398
#
# Compressibility (1/GPa) = 0.01389453
#
# Stress axis : x y z
#
# Youngs Moduli (GPa) = 61.56472 69.23031 86.27577
#
# Poissons Ratio (x) = 0.42787 0.16203
# Poissons Ratio (y) = 0.38050 0.52916
# Poissons Ratio (z) = 0.11562 0.42462
#
# Static dielectric constant tensor:
#      x y z
#    x 3.847130 0.000000 0.000000 
#    y 0.000000 3.845690 0.000000 
#    z 0.000000 0.000000 4.114030 
# 
# 
# High freq. dielectric constant tensor:
#      x y z
#    x 1.838380 0.000000 0.000000 
#    y 0.000000 1.846820 0.000000 
#    z 0.000000 0.000000 1.852980 
# 
# From -- ./inp_files/5735.got.cif
#   From: 2010.03.12/outbox.cif.g09.slc.cpg/sg63_3_cif.got.tgz:5735.got - 2010.04.10 19:34:48.
