data_PCOD8258580
_publ_section_title
;
Structure prediction by ZEFSAII (Michael W. Deem and Ramdas Pophale) SiO2 
 PCOD8258580
Probable space group: C M C M
;
_chemical_formula_sum "Si O2"
_cell_formula_units_Z 112
_cell_length_a 9.529072
_cell_length_b 18.114430
_cell_length_c 35.366752
_cell_angle_alpha 90.000000
_cell_angle_beta 90.000000
_cell_angle_gamma 90.000000
_cell_volume 6104.786192
_symmetry_space_group_name_H-M "C M C M"
_symmetry_group_IT_number 63
_symmetry_cell_setting 'orthorhombic'
loop_
_space_group_symop_operation_xyz
x,y,z
-x,-y,1/2+z
x,-y,-z
-x,y,1/2-z
-x,-y,-z
x,y,1/2-z
-x,y,z
x,-y,1/2+z
1/2+x,1/2+y,z
1/2-x,1/2-y,1/2+z
1/2+x,1/2-y,-z
1/2-x,1/2+y,1/2-z
1/2-x,1/2-y,-z
1/2+x,1/2+y,1/2-z
1/2-x,1/2+y,z
1/2+x,1/2-y,1/2+z
loop_
_atom_site_type_symbol
_atom_site_label
_atom_site_fract_x
_atom_site_fract_y
_atom_site_fract_z
Si Si1 0.660785 0.343165 0.706244
Si Si2 0.837544 0.422045 0.645742
Si Si3 0.837204 0.338746 0.570144
Si Si4 0.663368 0.584684 0.005519
Si Si5 0.836474 0.167943 0.570787
Si Si6 0.665007 0.090295 0.636095
Si Si7 0.166518 0.677574 0.708537
O O1 0.676765 0.364332 0.750000
O O2 0.500000 0.349599 0.693136
O O3 0.750989 0.400831 0.682609
O O4 0.718626 0.260342 0.698906
O O5 0.799077 0.366917 0.611874
O O6 0.796817 0.504529 0.633360
O O7 0.000000 0.417604 0.656780
O O8 0.748556 0.384624 0.540534
O O9 0.796314 0.253398 0.567352
O O10 0.000000 0.352092 0.560992
O O11 0.500000 0.593556 0.014880
O O12 0.705565 0.500000 0.000000
O O13 0.705657 0.629483 0.968267
O O14 0.746107 0.132566 0.603632
O O15 0.000000 0.156768 0.580265
O O16 0.500000 0.104762 0.630727
O O17 0.718724 0.121019 0.676589
O O18 0.224835 0.653211 0.750000
O O19 0.000000 0.679414 0.710601
#
# Coordination Sequence:
#
# PCOD8258580 Si02
#       7
#    16  16  16  16  16  16  16
#     4   9  18  33  53  75  98 129 170 209 245 291
#     4  10  21  34  49  75 107 134 164 204 252 304
#     4  10  21  36  53  75 104 136 169 206 252 306
#     4  10  21  36  54  77 102 130 169 212 254 302
#     4  10  21  36  53  74 102 134 167 208 256 301
#     4  10  20  33  52  77 101 131 171 207 246 299
#     4   8  15  30  51  73  97 126 164 208 245 282
#
# _framework density 18.346260999999998
#
# number of rings (size 3 to 8) (size 9 to 14) (size 15 to 20)
#    0.000    2.429    0.000    3.000    0.000    3.429 
#    0.000    1.429    0.000    1.286    0.000    0.000 
#    0.000    0.000    0.000    0.000    0.000    0.000 
#
# Total GULP energy -694520.535328 kJ/mol
# GULP energy per Si atom -12402.152417 kJ/mol
# Density = 1.830450 g / cm^3
# Si number density = 18.346261 Si / 1000 Ang^3
#
#
#
# Elastic Constant Matrix: (Units=GPa)
#
#
# Indices 1 2 3 4 5 6 
#
# 1 48.9687 46.0118 49.4073 0.0000 0.0000 0.0000
# 2 46.0118 115.9427 60.7813 0.0000 0.0000 0.0000
# 3 49.4073 60.7813 95.1622 0.0000 0.0000 0.0000
# 4 0.0000 0.0000 0.0000 1.6024 0.0000 0.0000
# 5 0.0000 0.0000 0.0000 0.0000 34.8493 0.0000
# 6 0.0000 0.0000 0.0000 0.0000 0.0000 13.1801
#
#
#
# Elastic Compliance Matrix: (Units=1/GPa)
#
#
# Indices 1 2 3 4 5 6 
#
# 1 0.048526 -0.009095 -0.019385 0.000000 0.000000 0.000000
# 2 -0.009095 0.014671 -0.004649 0.000000 0.000000 0.000000
# 3 -0.019385 -0.004649 0.023542 0.000000 0.000000 0.000000
# 4 0.000000 0.000000 0.000000 0.624060 0.000000 0.000000
# 5 0.000000 0.000000 0.000000 0.000000 0.028695 0.000000
# 6 0.000000 0.000000 0.000000 0.000000 0.000000 0.075872
#
#
# Mechanical properties :
#
#
# Convention : Reuss Voigt Hill
#
# Bulk Modulus (GPa) = 48.82428 63.60827 56.21627
# Shear Modulus (GPa) = 5.62778 16.85124 11.23951
#
# Velocity S-wave (km/s) = 1.75334 3.03398 2.47783
# Velocity P-wave (km/s) = 5.54701 6.85709 6.23655
#
# Compressibility (1/GPa) = 0.02048161
#
# Stress axis : x y z
#
# Youngs Moduli (GPa) = 20.60766 68.16016 42.47728
#
# Poissons Ratio (x) = 0.61992 0.82342
# Poissons Ratio (y) = 0.18743 0.19746
# Poissons Ratio (z) = 0.39948 0.31685
#
# Static dielectric constant tensor:
#      x y z
#    x 3.168460 0.000000 0.000000 
#    y 0.000000 3.555650 0.000000 
#    z 0.000000 0.000000 3.642500 
# 
# 
# High freq. dielectric constant tensor:
#      x y z
#    x 1.690770 0.000000 0.000000 
#    y 0.000000 1.721900 0.000000 
#    z 0.000000 0.000000 1.721490 
# 
# From -- ./inp_files/72851.got.cif
#   From: 2010.03.12/outbox.cif.g09.slc.cpg/sg63_37_cif.got.tgz:72851.got - 2010.04.10 19:34:48.
