data_PCOD8258808
_publ_section_title
;
Structure prediction by ZEFSAII (Michael W. Deem and Ramdas Pophale) SiO2 
 PCOD8258808
Probable space group: C M C M
;
_chemical_formula_sum "Si O2"
_cell_formula_units_Z 96
_cell_length_a 15.749574
_cell_length_b 30.374938
_cell_length_c 9.147032
_cell_angle_alpha 90.000000
_cell_angle_beta 90.000000
_cell_angle_gamma 90.000000
_cell_volume 4375.869986
_symmetry_space_group_name_H-M "C M C M"
_symmetry_group_IT_number 63
_symmetry_cell_setting 'orthorhombic'
loop_
_space_group_symop_operation_xyz
x,y,z
-x,-y,1/2+z
x,-y,-z
-x,y,1/2-z
-x,-y,-z
x,y,1/2-z
-x,y,z
x,-y,1/2+z
1/2+x,1/2+y,z
1/2-x,1/2-y,1/2+z
1/2+x,1/2-y,-z
1/2-x,1/2+y,1/2-z
1/2-x,1/2-y,-z
1/2+x,1/2+y,1/2-z
1/2-x,1/2+y,z
1/2+x,1/2-y,1/2+z
loop_
_atom_site_type_symbol
_atom_site_label
_atom_site_fract_x
_atom_site_fract_y
_atom_site_fract_z
Si Si1 0.898739 0.958138 0.414036
Si Si2 0.098191 0.369161 0.420241
Si Si3 0.594945 0.706577 0.590691
Si Si4 0.898282 0.873889 0.586305
Si Si5 0.101021 0.543116 0.416231
Si Si6 0.328194 0.224132 0.577518
O O1 0.862256 0.957944 0.250000
O O2 0.864291 0.915956 0.499456
O O3 0.000000 0.958865 0.410731
O O4 0.862627 0.000000 0.500000
O O5 0.104495 0.380677 0.250000
O O6 0.132565 0.411584 0.508281
O O7 0.159273 0.327527 0.458707
O O8 0.000000 0.358127 0.461061
O O9 0.641352 0.711666 0.750000
O O10 0.500000 0.691316 0.621417
O O11 0.640801 0.668221 0.497839
O O12 0.592119 0.751258 0.496537
O O13 0.861453 0.874814 0.750000
O O14 0.000000 0.872620 0.591362
O O15 0.137329 0.500000 0.500000
O O16 0.134319 0.542115 0.250000
O O17 0.000000 0.542026 0.422138
O O18 0.327052 0.232343 0.750000
O O19 0.250000 0.250000 0.500000
#
# Coordination Sequence:
#
# PCOD8258808 Si02
#       6
#    16  16  16  16  16  16
#     4   9  15  22  33  52  81 115 149 187 235 291
#     4   9  18  33  53  77 107 144 185 228 275 327
#     4  10  20  34  53  76 101 130 167 212 260 312
#     4   9  16  26  41  62  88 118 153 193 239 291
#     4   9  16  26  44  73 109 145 179 218 265 318
#     4  11  23  38  55  76 105 141 181 225 272 321
#
# _framework density 21.938496000000001
#
# number of rings (size 3 to 8) (size 9 to 14) (size 15 to 20)
#    0.000    2.500    0.000    3.000    0.000    9.000 
#    0.000    1.667    0.000    0.000    0.000    1.167 
#    0.000    5.333    0.000    0.333    0.000    0.167 
#
# Total GULP energy -594835.595367 kJ/mol
# GULP energy per Si atom -12392.408237 kJ/mol
# Density = 2.188856 g / cm^3
# Si number density = 21.938496 Si / 1000 Ang^3
#
#
#
# Elastic Constant Matrix: (Units=GPa)
#
#
# Indices 1 2 3 4 5 6 
#
# 1 27.1512 18.1061 17.7028 0.0000 0.0000 0.0000
# 2 18.1061 212.3532 123.3438 0.0000 0.0000 0.0000
# 3 17.7028 123.3438 210.2376 0.0000 0.0000 0.0000
# 4 0.0000 0.0000 0.0000 48.6852 0.0000 0.0000
# 5 0.0000 0.0000 0.0000 0.0000 14.0042 0.0000
# 6 0.0000 0.0000 0.0000 0.0000 0.0000 11.9950
#
#
#
# Elastic Compliance Matrix: (Units=1/GPa)
#
#
# Indices 1 2 3 4 5 6 
#
# 1 0.039628 -0.002185 -0.002055 0.000000 0.000000 0.000000
# 2 -0.002185 0.007264 -0.004078 0.000000 0.000000 0.000000
# 3 -0.002055 -0.004078 0.007322 0.000000 0.000000 0.000000
# 4 0.000000 0.000000 0.000000 0.020540 0.000000 0.000000
# 5 0.000000 0.000000 0.000000 0.000000 0.071407 0.000000
# 6 0.000000 0.000000 0.000000 0.000000 0.000000 0.083368
#
#
# Mechanical properties :
#
#
# Convention : Reuss Voigt Hill
#
# Bulk Modulus (GPa) = 26.61120 85.33861 55.97491
# Shear Modulus (GPa) = 19.32813 34.30950 26.81882
#
# Velocity S-wave (km/s) = 2.97141 3.95890 3.50016
# Velocity P-wave (km/s) = 4.89169 7.73826 6.47338
#
# Compressibility (1/GPa) = 0.03757816
#
# Stress axis : x y z
#
# Youngs Moduli (GPa) = 25.23482 137.66623 136.57766
#
# Poissons Ratio (x) = 0.30086 0.28062
# Poissons Ratio (y) = 0.05515 0.55692
# Poissons Ratio (z) = 0.05185 0.56135
#
# Static dielectric constant tensor:
#      x y z
#    x 3.424180 0.000000 0.000000 
#    y 0.000000 4.276920 0.000000 
#    z 0.000000 0.000000 4.305910 
# 
# 
# High freq. dielectric constant tensor:
#      x y z
#    x 1.808860 0.000000 0.000000 
#    y 0.000000 1.873890 0.000000 
#    z 0.000000 0.000000 1.877110 
# 
# From -- ./inp_files/8641.got.cif
#   From: 2010.03.12/outbox.cif.g09.slc.cpg/sg63_5_cif.got.tgz:8641.got - 2010.04.10 19:34:48.
