data_PCOD8258980
_publ_section_title
;
Structure prediction by ZEFSAII (Michael W. Deem and Ramdas Pophale) SiO2 
 PCOD8258980
Probable space group: C M C M
;
_chemical_formula_sum "Si O2"
_cell_formula_units_Z 96
_cell_length_a 14.422899
_cell_length_b 20.058718
_cell_length_c 15.475667
_cell_angle_alpha 90.000000
_cell_angle_beta 90.000000
_cell_angle_gamma 90.000000
_cell_volume 4477.185733
_symmetry_space_group_name_H-M "C M C M"
_symmetry_group_IT_number 63
_symmetry_cell_setting 'orthorhombic'
loop_
_space_group_symop_operation_xyz
x,y,z
-x,-y,1/2+z
x,-y,-z
-x,y,1/2-z
-x,-y,-z
x,y,1/2-z
-x,y,z
x,-y,1/2+z
1/2+x,1/2+y,z
1/2-x,1/2-y,1/2+z
1/2+x,1/2-y,-z
1/2-x,1/2+y,1/2-z
1/2-x,1/2-y,-z
1/2+x,1/2+y,1/2-z
1/2-x,1/2+y,z
1/2+x,1/2-y,1/2+z
loop_
_atom_site_type_symbol
_atom_site_label
_atom_site_fract_x
_atom_site_fract_y
_atom_site_fract_z
Si Si1 0.889320 0.792271 0.846227
Si Si2 0.102951 0.060206 0.147453
Si Si3 0.713848 0.563891 0.850810
Si Si4 0.892127 0.708857 0.005074
Si Si5 0.395676 0.932995 0.446996
Si Si6 0.390478 0.305760 0.348924
O O1 0.850685 0.774068 0.750000
O O2 0.857527 0.866460 0.875844
O O3 0.848507 0.740410 0.916910
O O4 0.000000 0.791141 0.841886
O O5 0.097944 0.054008 0.250000
O O6 0.000000 0.049881 0.108591
O O7 0.169897 0.003230 0.107521
O O8 0.698151 0.561647 0.750000
O O9 0.823325 0.566745 0.869009
O O10 0.660200 0.628620 0.886459
O O11 0.872865 0.629827 0.009313
O O12 0.000000 0.724479 0.000444
O O13 0.854637 0.743962 0.092227
O O14 0.500000 0.926202 0.408715
O O15 0.385147 0.000000 0.500000
O O16 0.362576 0.289793 0.250000
O O17 0.500000 0.318021 0.356533
#
# Coordination Sequence:
#
# PCOD8258980 Si02
#       6
#    16  16  16  16  16  16
#     4   8  14  26  48  80 115 146 173 207 260 326
#     4   8  14  27  49  80 119 153 174 200 249 322
#     4  10  20  34  55  83 111 143 182 220 266 323
#     4   9  18  34  56  80 106 139 180 224 274 328
#     4  10  23  42  58  72  97 138 189 242 287 320
#     4   9  18  34  57  86 118 146 172 209 264 335
#
# _framework density 21.442041
#
# number of rings (size 3 to 8) (size 9 to 14) (size 15 to 20)
#    0.000    3.000    0.000    1.500    0.000    5.000 
#    0.000    2.500    0.000   12.000    0.000    0.000 
#    0.000    0.000    0.000    0.000    0.000    0.000 
#
# Total GULP energy -594928.668346 kJ/mol
# GULP energy per Si atom -12394.347257 kJ/mol
# Density = 2.139324 g / cm^3
# Si number density = 21.442041 Si / 1000 Ang^3
#
#
#
# Elastic Constant Matrix: (Units=GPa)
#
#
# Indices 1 2 3 4 5 6 
#
# 1 69.1060 36.2314 13.1895 0.0000 0.0000 0.0000
# 2 36.2314 184.1969 59.2760 0.0000 0.0000 0.0000
# 3 13.1895 59.2760 77.3058 0.0000 0.0000 0.0000
# 4 0.0000 0.0000 0.0000 8.6625 0.0000 0.0000
# 5 0.0000 0.0000 0.0000 0.0000 18.4051 0.0000
# 6 0.0000 0.0000 0.0000 0.0000 0.0000 4.8671
#
#
#
# Elastic Compliance Matrix: (Units=1/GPa)
#
#
# Indices 1 2 3 4 5 6 
#
# 1 0.016145 -0.003039 -0.000424 0.000000 0.000000 0.000000
# 2 -0.003039 0.007780 -0.005447 0.000000 0.000000 0.000000
# 3 -0.000424 -0.005447 0.017184 0.000000 0.000000 0.000000
# 4 0.000000 0.000000 0.000000 0.115441 0.000000 0.000000
# 5 0.000000 0.000000 0.000000 0.000000 0.054333 0.000000
# 6 0.000000 0.000000 0.000000 0.000000 0.000000 0.205460
#
#
# Mechanical properties :
#
#
# Convention : Reuss Voigt Hill
#
# Bulk Modulus (GPa) = 42.93910 60.88916 51.91413
# Shear Modulus (GPa) = 11.31414 21.18106 16.24760
#
# Velocity S-wave (km/s) = 2.29958 3.14638 2.75570
# Velocity P-wave (km/s) = 5.20768 6.45433 5.86422
#
# Compressibility (1/GPa) = 0.02328880
#
# Stress axis : x y z
#
# Youngs Moduli (GPa) = 61.93909 128.54231 58.19260
#
# Poissons Ratio (x) = 0.39066 0.02468
# Poissons Ratio (y) = 0.18824 0.31695
# Poissons Ratio (z) = 0.02627 0.70012
#
# Static dielectric constant tensor:
#      x y z
#    x 3.699570 0.000000 0.000000 
#    y 0.000000 4.160800 0.000000 
#    z 0.000000 0.000000 3.675740 
# 
# 
# High freq. dielectric constant tensor:
#      x y z
#    x 1.826220 0.000000 0.000000 
#    y 0.000000 1.851260 0.000000 
#    z 0.000000 0.000000 1.814320 
# 
# From -- ./inp_files/31925.got.cif
#   From: 2010.03.12/outbox.cif.g09.slc.cpg/sg63_16_cif.got.tgz:31925.got - 2010.04.10 19:34:48.
