data_PCOD8258000
_publ_section_title
;
Structure prediction by ZEFSAII (Michael W. Deem and Ramdas Pophale) SiO2 
 PCOD8258000
Probable space group: C M C M
;
_chemical_formula_sum "Si O2"
_cell_formula_units_Z 96
_cell_length_a 28.795510
_cell_length_b 10.331613
_cell_length_c 16.159914
_cell_angle_alpha 90.000000
_cell_angle_beta 90.000000
_cell_angle_gamma 90.000000
_cell_volume 4807.640112
_symmetry_space_group_name_H-M "C M C M"
_symmetry_group_IT_number 63
_symmetry_cell_setting 'orthorhombic'
loop_
_space_group_symop_operation_xyz
x,y,z
-x,-y,1/2+z
x,-y,-z
-x,y,1/2-z
-x,-y,-z
x,y,1/2-z
-x,y,z
x,-y,1/2+z
1/2+x,1/2+y,z
1/2-x,1/2-y,1/2+z
1/2+x,1/2-y,-z
1/2-x,1/2+y,1/2-z
1/2-x,1/2-y,-z
1/2+x,1/2+y,1/2-z
1/2-x,1/2+y,z
1/2+x,1/2-y,1/2+z
loop_
_atom_site_type_symbol
_atom_site_label
_atom_site_fract_x
_atom_site_fract_y
_atom_site_fract_z
Si Si1 0.354314 0.937522 0.152205
Si Si2 0.295027 0.700447 0.154037
Si Si3 0.352596 0.463870 0.095798
Si Si4 0.190423 0.701511 0.348926
Si Si5 0.051256 0.321896 0.154209
Si Si6 0.549962 0.540533 0.094176
O O1 0.348076 0.937054 0.250000
O O2 0.325216 0.816815 0.113724
O O3 0.408753 0.923487 0.127867
O O4 0.334847 0.072341 0.117410
O O5 0.290351 0.728380 0.250000
O O6 0.318517 0.561697 0.142043
O O7 0.243116 0.698371 0.117289
O O8 0.335105 0.319662 0.107576
O O9 0.404822 0.472842 0.134833
O O10 0.354156 0.500000 0.000000
O O11 0.187356 0.714466 0.250000
O O12 0.057870 0.281161 0.250000
O O13 0.057251 0.194557 0.099029
O O14 0.000000 0.384301 0.140160
O O15 0.500000 0.503825 0.137263
O O16 0.546785 0.500000 0.000000
#
# Coordination Sequence:
#
# PCOD8258000 Si02
#       6
#    16  16  16  16  16  16
#     4   9  17  31  51  76 103 133 171 216 262 313
#     4  10  19  35  58  78 102 142 186 218 259 327
#     4  11  22  35  54  81 111 142 179 227 273 312
#     4  10  21  36  55  79 108 140 176 219 267 320
#     4   9  16  28  51  80 104 132 175 224 270 318
#     4   9  18  33  53  75 105 143 180 217 261 318
#
# _framework density 19.968216000000002
#
# number of rings (size 3 to 8) (size 9 to 14) (size 15 to 20)
#    0.000    2.333    1.667    1.500    0.000    4.000 
#    0.000    1.667    0.000    1.000    0.000    5.833 
#    0.000    0.000    0.000    0.000    0.000    0.000 
#
# Total GULP energy -594903.413432 kJ/mol
# GULP energy per Si atom -12393.821113 kJ/mol
# Density = 1.992277 g / cm^3
# Si number density = 19.968216 Si / 1000 Ang^3
#
#
#
# Elastic Constant Matrix: (Units=GPa)
#
#
# Indices 1 2 3 4 5 6 
#
# 1 228.3968 96.4100 15.7618 0.0000 0.0000 0.0000
# 2 96.4100 152.0011 14.9322 0.0000 0.0000 0.0000
# 3 15.7618 14.9322 19.7159 0.0000 0.0000 0.0000
# 4 0.0000 0.0000 0.0000 21.4249 0.0000 0.0000
# 5 0.0000 0.0000 0.0000 0.0000 11.8113 0.0000
# 6 0.0000 0.0000 0.0000 0.0000 0.0000 17.0239
#
#
#
# Elastic Compliance Matrix: (Units=1/GPa)
#
#
# Indices 1 2 3 4 5 6 
#
# 1 0.006058 -0.003637 -0.002088 0.000000 0.000000 0.000000
# 2 -0.003637 0.009291 -0.004129 0.000000 0.000000 0.000000
# 3 -0.002088 -0.004129 0.055517 0.000000 0.000000 0.000000
# 4 0.000000 0.000000 0.000000 0.046675 0.000000 0.000000
# 5 0.000000 0.000000 0.000000 0.000000 0.084665 0.000000
# 6 0.000000 0.000000 0.000000 0.000000 0.000000 0.058741
#
#
# Mechanical properties :
#
#
# Convention : Reuss Voigt Hill
#
# Bulk Modulus (GPa) = 19.54760 72.70243 46.12502
# Shear Modulus (GPa) = 16.79493 28.25268 22.52381
#
# Velocity S-wave (km/s) = 2.90329 3.76557 3.36219
# Velocity P-wave (km/s) = 4.58796 7.44273 6.18238
#
# Compressibility (1/GPa) = 0.05115717
#
# Stress axis : x y z
#
# Youngs Moduli (GPa) = 165.07818 107.62548 18.01237
#
# Poissons Ratio (x) = 0.39145 0.03761
# Poissons Ratio (y) = 0.60041 0.07438
# Poissons Ratio (z) = 0.34472 0.44443
#
# Static dielectric constant tensor:
#      x y z
#    x 4.414150 0.000000 0.000000 
#    y 0.000000 3.580320 0.000000 
#    z 0.000000 0.000000 3.193550 
# 
# 
# High freq. dielectric constant tensor:
#      x y z
#    x 1.808270 0.000000 0.000000 
#    y 0.000000 1.764640 0.000000 
#    z 0.000000 0.000000 1.738210 
# 
# From -- ./inp_files/58083.got.cif
#   From: 2010.03.12/outbox.cif.g09.slc.cpg/sg63_30_cif.got.tgz:58083.got - 2010.04.10 19:34:48.
