data_PCOD8258486
_publ_section_title
;
Structure prediction by ZEFSAII (Michael W. Deem and Ramdas Pophale) SiO2 
 PCOD8258486
Probable space group: C M C M
;
_chemical_formula_sum "Si O2"
_cell_formula_units_Z 112
_cell_length_a 15.226673
_cell_length_b 26.960973
_cell_length_c 14.171881
_cell_angle_alpha 90.000000
_cell_angle_beta 90.000000
_cell_angle_gamma 90.000000
_cell_volume 5817.924480
_symmetry_space_group_name_H-M "C M C M"
_symmetry_group_IT_number 63
_symmetry_cell_setting 'orthorhombic'
loop_
_space_group_symop_operation_xyz
x,y,z
-x,-y,1/2+z
x,-y,-z
-x,y,1/2-z
-x,-y,-z
x,y,1/2-z
-x,y,z
x,-y,1/2+z
1/2+x,1/2+y,z
1/2-x,1/2-y,1/2+z
1/2+x,1/2-y,-z
1/2-x,1/2+y,1/2-z
1/2-x,1/2-y,-z
1/2+x,1/2+y,1/2-z
1/2-x,1/2+y,z
1/2+x,1/2-y,1/2+z
loop_
_atom_site_type_symbol
_atom_site_label
_atom_site_fract_x
_atom_site_fract_y
_atom_site_fract_z
Si Si1 0.396639 0.463084 0.854945
Si Si2 0.677204 0.119226 0.644136
Si Si3 0.264603 0.192420 0.487849
Si Si4 0.896408 0.639502 0.139301
Si Si5 0.400320 0.054267 0.006070
Si Si6 0.098147 0.128843 0.472842
Si Si7 0.638588 0.571399 0.645234
O O1 0.356093 0.458793 0.750000
O O2 0.500000 0.457006 0.852355
O O3 0.360029 0.417936 0.917148
O O4 0.372691 0.516531 0.898977
O O5 0.645262 0.133737 0.750000
O O6 0.700811 0.168950 0.586152
O O7 0.604647 0.086241 0.590372
O O8 0.759340 0.082968 0.649280
O O9 0.250000 0.250000 0.500000
O O10 0.337260 0.183173 0.406205
O O11 0.168349 0.172273 0.458890
O O12 0.878034 0.636981 0.250000
O O13 0.862568 0.587905 0.091850
O O14 0.000000 0.649380 0.118201
O O15 0.500000 0.043522 0.031458
O O16 0.352632 0.000000 0.000000
O O17 0.089226 0.111961 0.581689
O O18 0.000000 0.145408 0.438758
O O19 0.596344 0.573194 0.750000
#
# Coordination Sequence:
#
# PCOD8258486 Si02
#       7
#    16  16  16  16  16  16  16
#     4   9  17  29  46  70 100 132 164 196 235 294
#     4   9  19  34  50  72 103 135 172 219 267 319
#     4  10  22  38  56  77 102 136 178 231 284 326
#     4   9  19  37  60  84 109 139 179 227 276 325
#     4   9  18  32  51  78 110 141 175 215 262 322
#     4  10  20  33  50  73 102 136 172 209 254 309
#     4   9  17  29  47  73 104 136 167 199 240 297
#
# _framework density 19.250851999999998
#
# number of rings (size 3 to 8) (size 9 to 14) (size 15 to 20)
#    0.000    2.714    0.000    0.857    0.000    8.000 
#    0.000    2.857    0.000    0.000    0.000    2.000 
#    0.000    0.000    0.000    0.000    0.000    0.000 
#
# Total GULP energy -694007.436383 kJ/mol
# GULP energy per Si atom -12392.989935 kJ/mol
# Density = 1.920704 g / cm^3
# Si number density = 19.250852 Si / 1000 Ang^3
#
#
#
# Elastic Constant Matrix: (Units=GPa)
#
#
# Indices 1 2 3 4 5 6 
#
# 1 62.5963 41.8902 28.8418 0.0000 0.0000 0.0000
# 2 41.8902 144.9920 47.7569 0.0000 0.0000 0.0000
# 3 28.8418 47.7569 110.1249 0.0000 0.0000 0.0000
# 4 0.0000 0.0000 0.0000 17.1186 0.0000 0.0000
# 5 0.0000 0.0000 0.0000 0.0000 24.3191 0.0000
# 6 0.0000 0.0000 0.0000 0.0000 0.0000 19.5226
#
#
#
# Elastic Compliance Matrix: (Units=1/GPa)
#
#
# Indices 1 2 3 4 5 6 
#
# 1 0.020792 -0.004916 -0.003314 0.000000 0.000000 0.000000
# 2 -0.004916 0.009208 -0.002706 0.000000 0.000000 0.000000
# 3 -0.003314 -0.002706 0.011122 0.000000 0.000000 0.000000
# 4 0.000000 0.000000 0.000000 0.058416 0.000000 0.000000
# 5 0.000000 0.000000 0.000000 0.000000 0.041120 0.000000
# 6 0.000000 0.000000 0.000000 0.000000 0.000000 0.051223
#
#
# Mechanical properties :
#
#
# Convention : Reuss Voigt Hill
#
# Bulk Modulus (GPa) = 51.94355 61.63232 56.78794
# Shear Modulus (GPa) = 22.70992 25.47368 24.09180
#
# Velocity S-wave (km/s) = 3.43838 3.64160 3.54145
# Velocity P-wave (km/s) = 6.54250 7.05454 6.80334
#
# Compressibility (1/GPa) = 0.01925167
#
# Stress axis : x y z
#
# Youngs Moduli (GPa) = 48.09602 108.59680 89.91259
#
# Poissons Ratio (x) = 0.53382 0.29794
# Poissons Ratio (y) = 0.23642 0.24330
# Poissons Ratio (z) = 0.15938 0.29385
#
# Static dielectric constant tensor:
#      x y z
#    x 3.393760 0.000000 0.000000 
#    y 0.000000 3.324660 0.000000 
#    z 0.000000 0.000000 3.846700 
# 
# 
# High freq. dielectric constant tensor:
#      x y z
#    x 1.741930 0.000000 0.000000 
#    y 0.000000 1.724220 0.000000 
#    z 0.000000 0.000000 1.751060 
# 
# From -- ./inp_files/32511.got.cif
#   From: 2010.03.12/outbox.cif.g09.slc.cpg/sg63_17_cif.got.tgz:32511.got - 2010.04.10 19:34:48.
