data_PCOD8258190
_publ_section_title
;
Structure prediction by ZEFSAII (Michael W. Deem and Ramdas Pophale) SiO2 
 PCOD8258190
Probable space group: C M C M
;
_chemical_formula_sum "Si O2"
_cell_formula_units_Z 24
_cell_length_a 9.465591
_cell_length_b 9.876040
_cell_length_c 9.524454
_cell_angle_alpha 90.000000
_cell_angle_beta 90.000000
_cell_angle_gamma 90.000000
_cell_volume 890.370298
_symmetry_space_group_name_H-M "C M C M"
_symmetry_group_IT_number 63
_symmetry_cell_setting 'orthorhombic'
loop_
_space_group_symop_operation_xyz
x,y,z
-x,-y,1/2+z
x,-y,-z
-x,y,1/2-z
-x,-y,-z
x,y,1/2-z
-x,y,z
x,-y,1/2+z
1/2+x,1/2+y,z
1/2-x,1/2-y,1/2+z
1/2+x,1/2-y,-z
1/2-x,1/2+y,1/2-z
1/2-x,1/2-y,-z
1/2+x,1/2+y,1/2-z
1/2-x,1/2+y,z
1/2+x,1/2-y,1/2+z
loop_
_atom_site_type_symbol
_atom_site_label
_atom_site_fract_x
_atom_site_fract_y
_atom_site_fract_z
Si Si1 0.500000 0.744585 0.555740
Si Si2 0.000000 0.158826 0.250000
Si Si3 0.500000 0.009099 0.250000
Si Si4 0.805016 0.086991 0.750000
O O1 0.500000 0.752368 0.388306
O O2 0.500000 0.898059 0.610929
O O3 0.361812 0.664415 0.611806
O O4 0.859453 0.067247 0.250000
O O5 0.363707 0.910888 0.250000
#
# Coordination Sequence:
#
# PCOD8258190 Si02
#       4
#     8   4   4   8
#     4   9  21  41  63  87 125 166 202 258 314 369
#     4  10  19  40  63  86 128 168 199 252 323 374
#     4  10  21  38  61  96 122 152 217 260 301 376
#     4   9  18  38  64  87 119 165 209 254 308 367
#
# _framework density 26.955079000000001
#
# number of rings (size 3 to 8) (size 9 to 14) (size 15 to 20)
#    0.000    3.333    0.000    4.000    0.000    2.667 
#    0.000   30.000    0.000    0.000    0.000    0.000 
#    0.000    0.000    0.000    0.000    0.000    0.000 
#
# Total GULP energy -148855.191034 kJ/mol
# GULP energy per Si atom -12404.599253 kJ/mol
# Density = 2.689373 g / cm^3
# Si number density = 26.955079 Si / 1000 Ang^3
#
#
#
# Elastic Constant Matrix: (Units=GPa)
#
#
# Indices 1 2 3 4 5 6 
#
# 1 256.0399 71.2935 71.4066 0.0000 0.0000 0.0000
# 2 71.2935 102.6165 65.9096 0.0000 0.0000 0.0000
# 3 71.4066 65.9096 253.1226 0.0000 0.0000 0.0000
# 4 0.0000 0.0000 0.0000 41.4802 0.0000 0.0000
# 5 0.0000 0.0000 0.0000 0.0000 4.3936 0.0000
# 6 0.0000 0.0000 0.0000 0.0000 0.0000 40.9960
#
#
#
# Elastic Compliance Matrix: (Units=1/GPa)
#
#
# Indices 1 2 3 4 5 6 
#
# 1 0.004917 -0.003032 -0.000597 0.000000 0.000000 0.000000
# 2 -0.003032 0.013572 -0.002679 0.000000 0.000000 0.000000
# 3 -0.000597 -0.002679 0.004817 0.000000 0.000000 0.000000
# 4 0.000000 0.000000 0.000000 0.024108 0.000000 0.000000
# 5 0.000000 0.000000 0.000000 0.000000 0.227605 0.000000
# 6 0.000000 0.000000 0.000000 0.000000 0.000000 0.024393
#
#
# Mechanical properties :
#
#
# Convention : Reuss Voigt Hill
#
# Bulk Modulus (GPa) = 93.55444 114.33317 103.94380
# Shear Modulus (GPa) = 15.84333 44.25192 30.04762
#
# Velocity S-wave (km/s) = 2.42702 4.05617 3.34238
# Velocity P-wave (km/s) = 6.52969 8.02776 7.31716
#
# Compressibility (1/GPa) = 0.01068896
#
# Stress axis : x y z
#
# Youngs Moduli (GPa) = 203.39550 73.68108 207.61212
#
# Poissons Ratio (x) = 0.22340 0.12404
# Poissons Ratio (y) = 0.61670 0.55611
# Poissons Ratio (z) = 0.12152 0.19736
#
# Static dielectric constant tensor:
#      x y z
#    x 4.743390 0.000000 0.000000 
#    y 0.000000 4.760170 0.000000 
#    z 0.000000 0.000000 4.645970 
# 
# 
# High freq. dielectric constant tensor:
#      x y z
#    x 2.080040 0.000000 0.000000 
#    y 0.000000 2.105640 0.000000 
#    z 0.000000 0.000000 2.079340 
# 
# From -- ./inp_files/1553.got.cif
#   From: 2010.03.12/outbox.cif.g09.slc.cpg/sg63_1_cif.got.tgz:1553.got - 2010.04.10 19:34:48.
