data_PCOD8258884
_publ_section_title
;
Structure prediction by ZEFSAII (Michael W. Deem and Ramdas Pophale) SiO2 
 PCOD8258884
Probable space group: C M C M
;
_chemical_formula_sum "Si O2"
_cell_formula_units_Z 64
_cell_length_a 12.406294
_cell_length_b 12.137047
_cell_length_c 21.894321
_cell_angle_alpha 90.000000
_cell_angle_beta 90.000000
_cell_angle_gamma 90.000000
_cell_volume 3296.754317
_symmetry_space_group_name_H-M "C M C M"
_symmetry_group_IT_number 63
_symmetry_cell_setting 'orthorhombic'
loop_
_space_group_symop_operation_xyz
x,y,z
-x,-y,1/2+z
x,-y,-z
-x,y,1/2-z
-x,-y,-z
x,y,1/2-z
-x,y,z
x,-y,1/2+z
1/2+x,1/2+y,z
1/2-x,1/2-y,1/2+z
1/2+x,1/2-y,-z
1/2-x,1/2+y,1/2-z
1/2-x,1/2-y,-z
1/2+x,1/2+y,1/2-z
1/2-x,1/2+y,z
1/2+x,1/2-y,1/2+z
loop_
_atom_site_type_symbol
_atom_site_label
_atom_site_fract_x
_atom_site_fract_y
_atom_site_fract_z
Si Si1 0.628497 0.334249 0.750000
Si Si2 0.622247 0.836172 0.541983
Si Si3 0.309634 0.594768 0.958450
Si Si4 0.241514 0.542862 0.351302
Si Si5 0.125065 0.413105 0.250000
O O1 0.500000 0.341406 0.750000
O O2 0.671258 0.392595 0.811096
O O3 0.675097 0.209751 0.750000
O O4 0.500000 0.880150 0.538091
O O5 0.618845 0.703732 0.539799
O O6 0.688409 0.882206 0.484067
O O7 0.678760 0.872860 0.604761
O O8 0.303292 0.550651 0.889649
O O9 0.365025 0.500000 0.000000
O O10 0.156064 0.480781 0.309633
O O11 0.000000 0.396271 0.250000
#
# Coordination Sequence:
#
# PCOD8258884 Si02
#       5
#     8  16  16  16   8
#     4  10  22  38  56  78 106 142 180 220 270 322
#     4  10  20  35  56  81 109 143 180 219 267 319
#     4   9  20  36  53  79 112 142 176 221 265 317
#     4  10  20  36  55  78 108 139 178 223 265 316
#     4  10  20  34  54  78 104 138 178 222 268 312
#
# _framework density 19.413032999999999
#
# number of rings (size 3 to 8) (size 9 to 14) (size 15 to 20)
#    0.000    2.250    0.000    2.250    0.000    7.000 
#    0.000   15.000    0.000    4.500    0.000    0.000 
#    0.000    0.000    0.000    0.000    0.000    0.000 
#
# Total GULP energy -396806.449302 kJ/mol
# GULP energy per Si atom -12400.201541 kJ/mol
# Density = 1.936885 g / cm^3
# Si number density = 19.413033 Si / 1000 Ang^3
#
#
#
# Elastic Constant Matrix: (Units=GPa)
#
#
# Indices 1 2 3 4 5 6 
#
# 1 83.0437 15.7585 25.8385 0.0000 0.0000 0.0000
# 2 15.7585 117.3547 39.1720 0.0000 0.0000 0.0000
# 3 25.8385 39.1720 116.0132 0.0000 0.0000 0.0000
# 4 0.0000 0.0000 0.0000 459.8061 0.0000 0.0000
# 5 0.0000 0.0000 0.0000 0.0000 15.9885 0.0000
# 6 0.0000 0.0000 0.0000 0.0000 0.0000 21.0618
#
#
#
# Elastic Compliance Matrix: (Units=1/GPa)
#
#
# Indices 1 2 3 4 5 6 
#
# 1 0.013018 -0.000879 -0.002603 0.000000 0.000000 0.000000
# 2 -0.000879 0.009663 -0.003067 0.000000 0.000000 0.000000
# 3 -0.002603 -0.003067 0.010235 0.000000 0.000000 0.000000
# 4 0.000000 0.000000 0.000000 0.002175 0.000000 0.000000
# 5 0.000000 0.000000 0.000000 0.000000 0.062545 0.000000
# 6 0.000000 0.000000 0.000000 0.000000 0.000000 0.047479
#
#
# Mechanical properties :
#
#
# Convention : Reuss Voigt Hill
#
# Bulk Modulus (GPa) = 50.45739 53.10549 51.78144
# Shear Modulus (GPa) = 30.33624 115.08078 72.70851
#
# Velocity S-wave (km/s) = 3.95736 7.70771 6.12656
# Velocity P-wave (km/s) = 6.85046 10.32602 8.76229
#
# Compressibility (1/GPa) = 0.01981870
#
# Stress axis : x y z
#
# Youngs Moduli (GPa) = 76.81377 103.48810 97.70518
#
# Poissons Ratio (x) = 0.09101 0.25428
# Poissons Ratio (y) = 0.06755 0.29965
# Poissons Ratio (z) = 0.19991 0.31738
#
# Static dielectric constant tensor:
#      x y z
#    x 3.188860 0.000000 0.000000 
#    y 0.000000 3.846510 0.000000 
#    z 0.000000 0.000000 3.603300 
# 
# 
# High freq. dielectric constant tensor:
#      x y z
#    x 1.735390 0.000000 0.000000 
#    y 0.000000 1.778860 0.000000 
#    z 0.000000 0.000000 1.760650 
# 
# From -- ./inp_files/60894.got.cif
#   From: 2010.03.12/outbox.cif.g09.slc.cpg/sg63_31_cif.got.tgz:60894.got - 2010.04.10 19:34:48.
