data_PCOD8258352
_publ_section_title
;
Structure prediction by ZEFSAII (Michael W. Deem and Ramdas Pophale) SiO2 
 PCOD8258352
Probable space group: C M C M
;
_chemical_formula_sum "Si O2"
_cell_formula_units_Z 96
_cell_length_a 9.035123
_cell_length_b 24.823266
_cell_length_c 24.832249
_cell_angle_alpha 90.000000
_cell_angle_beta 90.000000
_cell_angle_gamma 90.000000
_cell_volume 5569.408133
_symmetry_space_group_name_H-M "C M C M"
_symmetry_group_IT_number 63
_symmetry_cell_setting 'orthorhombic'
loop_
_space_group_symop_operation_xyz
x,y,z
-x,-y,1/2+z
x,-y,-z
-x,y,1/2-z
-x,-y,-z
x,y,1/2-z
-x,y,z
x,-y,1/2+z
1/2+x,1/2+y,z
1/2-x,1/2-y,1/2+z
1/2+x,1/2-y,-z
1/2-x,1/2+y,1/2-z
1/2-x,1/2-y,-z
1/2+x,1/2+y,1/2-z
1/2-x,1/2+y,z
1/2+x,1/2-y,1/2+z
loop_
_atom_site_type_symbol
_atom_site_label
_atom_site_fract_x
_atom_site_fract_y
_atom_site_fract_z
Si Si1 0.826330 0.939489 0.142385
Si Si2 0.327279 0.859821 0.435200
Si Si3 0.166030 0.566612 0.250000
Si Si4 0.667305 0.136935 0.437968
Si Si5 0.668077 0.061465 0.750000
Si Si6 0.328587 0.564908 0.144014
Si Si7 0.671547 0.744116 0.943548
O O1 0.750695 0.910444 0.092203
O O2 0.753521 0.917212 0.197371
O O3 0.000000 0.927172 0.144129
O O4 0.792719 0.002413 0.134589
O O5 0.500000 0.859061 0.421130
O O6 0.297704 0.864786 0.498688
O O7 0.253232 0.804565 0.412114
O O8 0.171042 0.502572 0.250000
O O9 0.245828 0.588234 0.196459
O O10 0.000000 0.589121 0.250000
O O11 0.500000 0.117152 0.427491
O O12 0.778800 0.097040 0.408614
O O13 0.687407 0.197770 0.414459
O O14 0.500000 0.083405 0.750000
O O15 0.500000 0.574396 0.154090
O O16 0.500000 0.729278 0.951924
O O17 0.750000 0.750000 0.000000
#
# Coordination Sequence:
#
# PCOD8258352 Si02
#       7
#    16  16   8  16   8  16  16
#     4  10  20  33  49  72 101 131 162 200 244 289
#     4  10  20  33  50  73  99 130 166 203 242 288
#     4   9  17  31  51  70  93 126 163 201 240 284
#     4   9  19  33  49  71  99 130 163 198 241 289
#     4   9  17  31  51  72  93 124 165 203 238 284
#     4  10  20  32  49  73 100 129 163 201 241 286
#     4   9  17  31  50  71  95 126 164 203 241 286
#
# _framework density 17.237020999999999
#
# number of rings (size 3 to 8) (size 9 to 14) (size 15 to 20)
#    0.000    2.500    0.000    3.500    0.000    8.667 
#    0.000    3.333    0.000    1.000    0.000    1.167 
#    0.000    0.000    0.000    0.000    0.000    0.000 
#
# Total GULP energy -595107.623562 kJ/mol
# GULP energy per Si atom -12398.075491 kJ/mol
# Density = 1.719779 g / cm^3
# Si number density = 17.237021 Si / 1000 Ang^3
#
#
#
# Elastic Constant Matrix: (Units=GPa)
#
#
# Indices 1 2 3 4 5 6 
#
# 1 129.7978 60.8977 49.9722 0.0000 0.0000 0.0000
# 2 60.8977 74.0062 45.0208 0.0000 0.0000 0.0000
# 3 49.9722 45.0208 72.9389 0.0000 0.0000 0.0000
# 4 0.0000 0.0000 0.0000 3.7458 0.0000 0.0000
# 5 0.0000 0.0000 0.0000 0.0000 34.1206 0.0000
# 6 0.0000 0.0000 0.0000 0.0000 0.0000 31.4950
#
#
#
# Elastic Compliance Matrix: (Units=1/GPa)
#
#
# Indices 1 2 3 4 5 6 
#
# 1 0.013155 -0.008554 -0.003733 0.000000 0.000000 0.000000
# 2 -0.008554 0.027199 -0.010928 0.000000 0.000000 0.000000
# 3 -0.003733 -0.010928 0.023013 0.000000 0.000000 0.000000
# 4 0.000000 0.000000 0.000000 0.266963 0.000000 0.000000
# 5 0.000000 0.000000 0.000000 0.000000 0.029308 0.000000
# 6 0.000000 0.000000 0.000000 0.000000 0.000000 0.031751
#
#
# Mechanical properties :
#
#
# Convention : Reuss Voigt Hill
#
# Bulk Modulus (GPa) = 59.04133 65.39159 62.21646
# Shear Modulus (GPa) = 11.27490 21.92910 16.60200
#
# Velocity S-wave (km/s) = 2.56033 3.57067 3.10685
# Velocity P-wave (km/s) = 6.56257 7.41746 7.00307
#
# Compressibility (1/GPa) = 0.01693729
#
# Stress axis : x y z
#
# Youngs Moduli (GPa) = 76.01887 36.76620 43.45427
#
# Poissons Ratio (x) = 0.31449 0.16221
# Poissons Ratio (y) = 0.65025 0.47486
# Poissons Ratio (z) = 0.28377 0.40178
#
# Static dielectric constant tensor:
#      x y z
#    x 3.431170 0.000000 0.000000 
#    y 0.000000 3.255180 0.000000 
#    z 0.000000 0.000000 3.053410 
# 
# 
# High freq. dielectric constant tensor:
#      x y z
#    x 1.685280 0.000000 0.000000 
#    y 0.000000 1.648900 0.000000 
#    z 0.000000 0.000000 1.643920 
# 
# From -- ./inp_files/60008.got.cif
#   From: 2010.03.12/outbox.cif.g09.slc.cpg/sg63_31_cif.got.tgz:60008.got - 2010.04.10 19:34:48.
