data_PCOD8258180
_publ_section_title
;
Structure prediction by ZEFSAII (Michael W. Deem and Ramdas Pophale) SiO2 
 PCOD8258180
Probable space group: C M C M
;
_chemical_formula_sum "Si O2"
_cell_formula_units_Z 88
_cell_length_a 16.477036
_cell_length_b 10.123057
_cell_length_c 23.616685
_cell_angle_alpha 90.000000
_cell_angle_beta 90.000000
_cell_angle_gamma 90.000000
_cell_volume 3939.215225
_symmetry_space_group_name_H-M "C M C M"
_symmetry_group_IT_number 63
_symmetry_cell_setting 'orthorhombic'
loop_
_space_group_symop_operation_xyz
x,y,z
-x,-y,1/2+z
x,-y,-z
-x,y,1/2-z
-x,-y,-z
x,y,1/2-z
-x,y,z
x,-y,1/2+z
1/2+x,1/2+y,z
1/2-x,1/2-y,1/2+z
1/2+x,1/2-y,-z
1/2-x,1/2+y,1/2-z
1/2-x,1/2-y,-z
1/2+x,1/2+y,1/2-z
1/2-x,1/2+y,z
1/2+x,1/2-y,1/2+z
loop_
_atom_site_type_symbol
_atom_site_label
_atom_site_fract_x
_atom_site_fract_y
_atom_site_fract_z
Si Si1 0.411699 0.790238 0.371001
Si Si2 0.225958 0.983258 0.250000
Si Si3 0.656920 0.483481 0.868548
Si Si4 0.091273 0.760210 0.250000
Si Si5 0.409994 0.775066 0.871474
Si Si6 0.591277 0.899646 0.250000
Si Si7 0.686586 0.991760 0.566056
O O1 0.500000 0.835537 0.392420
O O2 0.401991 0.635985 0.384753
O O3 0.403255 0.805534 0.304010
O O4 0.347842 0.879459 0.403564
O O5 0.200760 0.054049 0.191155
O O6 0.172753 0.848696 0.250000
O O7 0.324291 0.982295 0.250000
O O8 0.607843 0.619585 0.866321
O O9 0.718943 0.492416 0.920531
O O10 0.095463 0.668891 0.306618
O O11 0.000000 0.831827 0.250000
O O12 0.500000 0.795619 0.896113
O O13 0.349918 0.854215 0.911471
O O14 0.500000 0.971913 0.250000
O O15 0.670130 0.000000 0.500000
#
# Coordination Sequence:
#
# PCOD8258180 Si02
#       7
#    16   8  16   8  16   8  16
#     4  11  24  43  68 100 135 170 214 274 334 396
#     4  10  19  38  66  99 137 178 208 259 327 408
#     4  11  23  41  69 101 131 169 216 269 333 396
#     4   8  18  35  63 100 132 163 209 263 322 396
#     4  10  22  42  67  96 131 170 213 266 330 404
#     4  10  21  39  65 103 141 177 215 262 325 406
#     4  12  27  45  64  90 128 175 229 280 329 390
#
# _framework density 22.339476000000001
#
# number of rings (size 3 to 8) (size 9 to 14) (size 15 to 20)
#    0.000    1.455    1.818    2.727    2.545    6.545 
#    0.000    5.455    0.000    3.273    0.000    0.000 
#    0.000    0.000    0.000    0.000    0.000    0.000 
#
# Total GULP energy -545260.278245 kJ/mol
# GULP energy per Si atom -12392.279051 kJ/mol
# Density = 2.228863 g / cm^3
# Si number density = 22.339476 Si / 1000 Ang^3
#
#
#
# Elastic Constant Matrix: (Units=GPa)
#
#
# Indices 1 2 3 4 5 6 
#
# 1 100.3167 0.3796 24.4599 0.0000 0.0000 0.0000
# 2 0.3796 78.5005 30.7111 0.0000 0.0000 0.0000
# 3 24.4599 30.7111 126.1289 0.0000 0.0000 0.0000
# 4 0.0000 0.0000 0.0000 3.5117 0.0000 0.0000
# 5 0.0000 0.0000 0.0000 0.0000 19.3696 0.0000
# 6 0.0000 0.0000 0.0000 0.0000 0.0000 23.9296
#
#
#
# Elastic Compliance Matrix: (Units=1/GPa)
#
#
# Indices 1 2 3 4 5 6 
#
# 1 0.010511 0.000825 -0.002239 0.000000 0.000000 0.000000
# 2 0.000825 0.014145 -0.003604 0.000000 0.000000 0.000000
# 3 -0.002239 -0.003604 0.009240 0.000000 0.000000 0.000000
# 4 0.000000 0.000000 0.000000 0.284763 0.000000 0.000000
# 5 0.000000 0.000000 0.000000 0.000000 0.051627 0.000000
# 6 0.000000 0.000000 0.000000 0.000000 0.000000 0.041789
#
#
# Mechanical properties :
#
#
# Convention : Reuss Voigt Hill
#
# Bulk Modulus (GPa) = 41.91142 46.22747 44.06945
# Shear Modulus (GPa) = 11.62613 25.98854 18.80733
#
# Velocity S-wave (km/s) = 2.28377 3.41449 2.90468
# Velocity P-wave (km/s) = 5.07504 6.02354 5.56952
#
# Compressibility (1/GPa) = 0.02385984
#
# Stress axis : x y z
#
# Youngs Moduli (GPa) = 95.13541 70.69738 108.22218
#
# Poissons Ratio (x) = -0.05834 0.24235
# Poissons Ratio (y) = -0.07851 0.39005
# Poissons Ratio (z) = 0.21305 0.25480
#
# Static dielectric constant tensor:
#      x y z
#    x 4.270910 0.000000 0.000000 
#    y 0.000000 3.701040 0.000000 
#    z 0.000000 0.000000 3.992900 
# 
# 
# High freq. dielectric constant tensor:
#      x y z
#    x 1.898450 0.000000 0.000000 
#    y 0.000000 1.869950 0.000000 
#    z 0.000000 0.000000 1.863790 
# 
# From -- ./inp_files/62717.got.cif
#   From: 2010.03.12/outbox.cif.g09.slc.cpg/sg63_32_cif.got.tgz:62717.got - 2010.04.10 19:34:48.
