data_PCOD8258568
_publ_section_title
;
Structure prediction by ZEFSAII (Michael W. Deem and Ramdas Pophale) SiO2 
 PCOD8258568
Probable space group: C M C M
;
_chemical_formula_sum "Si O2"
_cell_formula_units_Z 96
_cell_length_a 21.051915
_cell_length_b 13.481668
_cell_length_c 17.694406
_cell_angle_alpha 90.000000
_cell_angle_beta 90.000000
_cell_angle_gamma 90.000000
_cell_volume 5021.936579
_symmetry_space_group_name_H-M "C M C M"
_symmetry_group_IT_number 63
_symmetry_cell_setting 'orthorhombic'
loop_
_space_group_symop_operation_xyz
x,y,z
-x,-y,1/2+z
x,-y,-z
-x,y,1/2-z
-x,-y,-z
x,y,1/2-z
-x,y,z
x,-y,1/2+z
1/2+x,1/2+y,z
1/2-x,1/2-y,1/2+z
1/2+x,1/2-y,-z
1/2-x,1/2+y,1/2-z
1/2-x,1/2-y,-z
1/2+x,1/2+y,1/2-z
1/2-x,1/2+y,z
1/2+x,1/2-y,1/2+z
loop_
_atom_site_type_symbol
_atom_site_label
_atom_site_fract_x
_atom_site_fract_y
_atom_site_fract_z
Si Si1 0.646521 0.810106 0.663870
Si Si2 0.231760 0.327461 0.163589
Si Si3 0.573029 0.486591 0.664886
Si Si4 0.426745 0.674369 0.936475
Si Si5 0.221567 0.529631 0.418931
Si Si6 0.156942 0.163946 0.084382
O O1 0.626274 0.829112 0.750000
O O2 0.702748 0.731022 0.657438
O O3 0.586314 0.767141 0.618628
O O4 0.667375 0.914200 0.627978
O O5 0.209710 0.337295 0.250000
O O6 0.243559 0.435217 0.129029
O O7 0.176955 0.270339 0.117514
O O8 0.588117 0.523454 0.750000
O O9 0.500000 0.455222 0.656880
O O10 0.590133 0.573095 0.606669
O O11 0.615002 0.390734 0.647332
O O12 0.500000 0.676277 0.961428
O O13 0.382840 0.682555 0.009265
O O14 0.192606 0.500000 0.500000
O O15 0.281654 0.599286 0.435281
#
# Coordination Sequence:
#
# PCOD8258568 Si02
#       6
#    16  16  16  16  16  16
#     4  10  21  36  55  81 110 141 180 224 271 324
#     4  10  21  36  56  82 111 144 181 222 272 327
#     4  10  20  33  51  77 109 145 183 223 269 321
#     4  11  22  36  56  81 110 145 184 225 269 319
#     4  11  21  34  55  81 110 142 176 220 274 327
#     4  11  21  35  55  81 112 145 180 222 271 324
#
# _framework density 19.116132
#
# number of rings (size 3 to 8) (size 9 to 14) (size 15 to 20)
#    0.000    1.500    0.000    6.500    0.000    8.333 
#    0.000    0.000    0.000    5.500    0.000    0.000 
#    0.000    0.000    0.000    0.000    0.000    0.000 
#
# Total GULP energy -595452.201223 kJ/mol
# GULP energy per Si atom -12405.254192 kJ/mol
# Density = 1.907262 g / cm^3
# Si number density = 19.116132 Si / 1000 Ang^3
#
#
#
# Elastic Constant Matrix: (Units=GPa)
#
#
# Indices 1 2 3 4 5 6 
#
# 1 52.7811 15.0295 34.6551 0.0000 0.0000 0.0000
# 2 15.0295 77.8191 37.6553 0.0000 0.0000 0.0000
# 3 34.6551 37.6553 135.1752 0.0000 0.0000 0.0000
# 4 0.0000 0.0000 0.0000 34.5589 0.0000 0.0000
# 5 0.0000 0.0000 0.0000 0.0000 32.1412 0.0000
# 6 0.0000 0.0000 0.0000 0.0000 0.0000 25.6120
#
#
#
# Elastic Compliance Matrix: (Units=1/GPa)
#
#
# Indices 1 2 3 4 5 6 
#
# 1 0.023006 -0.001837 -0.005386 0.000000 0.000000 0.000000
# 2 -0.001837 0.014999 -0.003707 0.000000 0.000000 0.000000
# 3 -0.005386 -0.003707 0.009811 0.000000 0.000000 0.000000
# 4 0.000000 0.000000 0.000000 0.028936 0.000000 0.000000
# 5 0.000000 0.000000 0.000000 0.000000 0.031113 0.000000
# 6 0.000000 0.000000 0.000000 0.000000 0.000000 0.039044
#
#
# Mechanical properties :
#
#
# Convention : Reuss Voigt Hill
#
# Bulk Modulus (GPa) = 38.52788 48.93946 43.73367
# Shear Modulus (GPa) = 28.18141 30.35812 29.26977
#
# Velocity S-wave (km/s) = 3.84372 3.98941 3.91724
# Velocity P-wave (km/s) = 6.31644 6.84669 6.58690
#
# Compressibility (1/GPa) = 0.02595523
#
# Stress axis : x y z
#
# Youngs Moduli (GPa) = 43.46733 66.67131 101.92180
#
# Poissons Ratio (x) = 0.12246 0.54899
# Poissons Ratio (y) = 0.07984 0.37785
# Poissons Ratio (z) = 0.23413 0.24717
#
# Static dielectric constant tensor:
#      x y z
#    x 3.372270 0.000000 0.000000 
#    y 0.000000 3.483510 0.000000 
#    z 0.000000 0.000000 3.719730 
# 
# 
# High freq. dielectric constant tensor:
#      x y z
#    x 1.724330 0.000000 0.000000 
#    y 0.000000 1.735460 0.000000 
#    z 0.000000 0.000000 1.765040 
# 
# From -- ./inp_files/35307.got.cif
#   From: 2010.03.12/outbox.cif.g09.slc.cpg/sg63_18_cif.got.tgz:35307.got - 2010.04.10 19:34:48.
