data_PCOD8258292
_publ_section_title
;
Structure prediction by ZEFSAII (Michael W. Deem and Ramdas Pophale) SiO2 
 PCOD8258292
Probable space group: C M C M
;
_chemical_formula_sum "Si O2"
_cell_formula_units_Z 96
_cell_length_a 9.506184
_cell_length_b 30.843899
_cell_length_c 19.205451
_cell_angle_alpha 90.000000
_cell_angle_beta 90.000000
_cell_angle_gamma 90.000000
_cell_volume 5631.187636
_symmetry_space_group_name_H-M "C M C M"
_symmetry_group_IT_number 63
_symmetry_cell_setting 'orthorhombic'
loop_
_space_group_symop_operation_xyz
x,y,z
-x,-y,1/2+z
x,-y,-z
-x,y,1/2-z
-x,-y,-z
x,y,1/2-z
-x,y,z
x,-y,1/2+z
1/2+x,1/2+y,z
1/2-x,1/2-y,1/2+z
1/2+x,1/2-y,-z
1/2-x,1/2+y,1/2-z
1/2-x,1/2-y,-z
1/2+x,1/2+y,1/2-z
1/2-x,1/2+y,z
1/2+x,1/2-y,1/2+z
loop_
_atom_site_type_symbol
_atom_site_label
_atom_site_fract_x
_atom_site_fract_y
_atom_site_fract_z
Si Si1 0.667419 0.871331 0.672489
Si Si2 0.836369 0.708684 0.915983
Si Si3 0.162729 0.860240 0.331510
Si Si4 0.655723 0.033870 0.332853
Si Si5 0.844935 0.042473 0.667463
Si Si6 0.337048 0.792900 0.578005
O O1 0.724383 0.860258 0.750000
O O2 0.500000 0.873512 0.674400
O O3 0.721616 0.918932 0.647845
O O4 0.719870 0.834884 0.619049
O O5 0.767532 0.670293 0.872887
O O6 0.756992 0.752937 0.896501
O O7 0.000000 0.713301 0.896181
O O8 0.816170 0.697724 0.996879
O O9 0.183190 0.851579 0.250000
O O10 0.207993 0.909275 0.351380
O O11 0.000000 0.851803 0.352278
O O12 0.648952 0.030159 0.250000
O O13 0.500000 0.029037 0.364652
O O14 0.746568 0.994725 0.365474
O O15 0.850261 0.037768 0.750000
O O16 0.000000 0.035340 0.636300
O O17 0.500000 0.782776 0.595609
#
# Coordination Sequence:
#
# PCOD8258292 Si02
#       6
#    16  16  16  16  16  16
#     4   8  14  26  46  70  91 114 149 187 218 257
#     4  10  20  32  47  68  92 118 151 192 233 270
#     4   9  18  32  49  68  90 119 154 188 224 270
#     4   8  13  22  39  64  90 113 140 177 218 257
#     4   8  14  25  41  62  88 116 145 177 216 265
#     4   9  18  33  50  66  89 123 157 185 221 275
#
# _framework density 17.047915
#
# number of rings (size 3 to 8) (size 9 to 14) (size 15 to 20)
#    0.000    3.333    0.000    2.500    0.000    2.333 
#    0.000    4.167    0.000    2.000    0.000    7.000 
#    0.000    0.000    0.000    0.000    0.000    0.000 
#
# Total GULP energy -594907.558291 kJ/mol
# GULP energy per Si atom -12393.907464 kJ/mol
# Density = 1.700911 g / cm^3
# Si number density = 17.047915 Si / 1000 Ang^3
#
#
#
# Elastic Constant Matrix: (Units=GPa)
#
#
# Indices 1 2 3 4 5 6 
#
# 1 84.9814 81.4292 33.2176 0.0000 0.0000 0.0000
# 2 81.4292 172.2994 53.8340 0.0000 0.0000 0.0000
# 3 33.2176 53.8340 37.4114 0.0000 0.0000 0.0000
# 4 0.0000 0.0000 0.0000 -2.7176 0.0000 0.0000
# 5 0.0000 0.0000 0.0000 0.0000 18.3208 0.0000
# 6 0.0000 0.0000 0.0000 0.0000 0.0000 32.7004
#
#
#
# Elastic Compliance Matrix: (Units=1/GPa)
#
#
# Indices 1 2 3 4 5 6 
#
# 1 0.022956 -0.008141 -0.008668 0.000000 0.000000 0.000000
# 2 -0.008141 0.013432 -0.012100 0.000000 0.000000 0.000000
# 3 -0.008668 -0.012100 0.051838 0.000000 0.000000 0.000000
# 4 0.000000 0.000000 0.000000 -0.367974 0.000000 0.000000
# 5 0.000000 0.000000 0.000000 0.000000 0.054583 0.000000
# 6 0.000000 0.000000 0.000000 0.000000 0.000000 0.030581
#
#
# Mechanical properties :
#
#
# Convention : Reuss Voigt Hill
#
# Bulk Modulus (GPa) = 32.88639 70.18376 51.53508
# Shear Modulus (GPa) = -39.48436 18.07483 -10.70477
#
# Velocity S-wave (km/s) = -4.81779 3.25966 -2.50856
# Velocity P-wave (km/s) = 3.40818 7.44480 4.68025
#
# Compressibility (1/GPa) = 0.03040772
#
# Stress axis : x y z
#
# Youngs Moduli (GPa) = 43.56163 74.45112 19.29101
#
# Poissons Ratio (x) = 0.60608 0.16722
# Poissons Ratio (y) = 0.35462 0.23341
# Poissons Ratio (z) = 0.37761 0.90083
#
# Static dielectric constant tensor:
#      x y z
#    x 3.236730 0.000000 0.000000 
#    y 0.000000 3.482350 0.000000 
#    z 0.000000 0.000000 2.853550 
# 
# 
# High freq. dielectric constant tensor:
#      x y z
#    x 1.641990 0.000000 0.000000 
#    y 0.000000 1.672880 0.000000 
#    z 0.000000 0.000000 1.614890 
# 
# From -- ./inp_files/60250.got.cif
#   From: 2010.03.12/outbox.cif.g09.slc.cpg/sg63_31_cif.got.tgz:60250.got - 2010.04.10 19:34:48.
