data_PCOD8258701
_publ_section_title
;
Structure prediction by ZEFSAII (Michael W. Deem and Ramdas Pophale) SiO2 
 PCOD8258701
Probable space group: C M C M
;
_chemical_formula_sum "Si O2"
_cell_formula_units_Z 72
_cell_length_a 13.160591
_cell_length_b 32.142913
_cell_length_c 9.484438
_cell_angle_alpha 90.000000
_cell_angle_beta 90.000000
_cell_angle_gamma 90.000000
_cell_volume 4012.104417
_symmetry_space_group_name_H-M "C M C M"
_symmetry_group_IT_number 63
_symmetry_cell_setting 'orthorhombic'
loop_
_space_group_symop_operation_xyz
x,y,z
-x,-y,1/2+z
x,-y,-z
-x,y,1/2-z
-x,-y,-z
x,y,1/2-z
-x,y,z
x,-y,1/2+z
1/2+x,1/2+y,z
1/2-x,1/2-y,1/2+z
1/2+x,1/2-y,-z
1/2-x,1/2+y,1/2-z
1/2-x,1/2-y,-z
1/2+x,1/2+y,1/2-z
1/2-x,1/2+y,z
1/2+x,1/2-y,1/2+z
loop_
_atom_site_type_symbol
_atom_site_label
_atom_site_fract_x
_atom_site_fract_y
_atom_site_fract_z
Si Si1 0.199450 0.688114 0.584419
Si Si2 0.500000 0.043017 0.917686
Si Si3 0.196513 0.405054 0.083295
Si Si4 0.885595 0.958323 0.085900
Si Si5 0.612341 0.741863 0.590869
O O1 0.176297 0.689052 0.750000
O O2 0.189105 0.641626 0.522050
O O3 0.311733 0.705016 0.546826
O O4 0.119029 0.717807 0.508220
O O5 0.500000 0.034931 0.750000
O O6 0.599609 0.068365 0.966882
O O7 0.500000 0.000000 0.000000
O O8 0.197640 0.402066 0.250000
O O9 0.302458 0.425256 0.031014
O O10 0.868538 0.968625 0.250000
O O11 0.000000 0.940922 0.060011
O O12 0.867240 0.000000 0.000000
O O13 0.635907 0.756525 0.750000
O O14 0.500000 0.722899 0.576972
#
# Coordination Sequence:
#
# PCOD8258701 Si02
#       5
#    16   8  16  16  16
#     4   9  18  32  50  72  94 124 165 198 235 285
#     4  10  20  34  50  70  98 128 162 200 240 284
#     4   9  18  31  49  72  95 122 159 201 235 277
#     4   9  17  30  48  69  93 121 154 192 236 284
#     4   9  18  32  49  70  99 128 154 195 245 290
#
# _framework density 17.945695000000001
#
# number of rings (size 3 to 8) (size 9 to 14) (size 15 to 20)
#    0.000    2.889    0.000    0.667    1.556    1.333 
#    0.000    6.667    0.000    0.000    0.000    3.111 
#    0.000    0.000    0.000    0.000    0.000    0.000 
#
# Total GULP energy -446298.743816 kJ/mol
# GULP energy per Si atom -12397.187328 kJ/mol
# Density = 1.790485 g / cm^3
# Si number density = 17.945695 Si / 1000 Ang^3
#
#
#
# Elastic Constant Matrix: (Units=GPa)
#
#
# Indices 1 2 3 4 5 6 
#
# 1 121.7292 62.5995 22.4110 0.0000 0.0000 0.0000
# 2 62.5995 140.6649 33.4787 0.0000 0.0000 0.0000
# 3 22.4110 33.4787 32.2502 0.0000 0.0000 0.0000
# 4 0.0000 0.0000 0.0000 25.7747 0.0000 0.0000
# 5 0.0000 0.0000 0.0000 0.0000 17.9341 0.0000
# 6 0.0000 0.0000 0.0000 0.0000 0.0000 19.7108
#
#
#
# Elastic Compliance Matrix: (Units=1/GPa)
#
#
# Indices 1 2 3 4 5 6 
#
# 1 0.010923 -0.004057 -0.003379 0.000000 0.000000 0.000000
# 2 -0.004057 0.010949 -0.008547 0.000000 0.000000 0.000000
# 3 -0.003379 -0.008547 0.042228 0.000000 0.000000 0.000000
# 4 0.000000 0.000000 0.000000 0.038798 0.000000 0.000000
# 5 0.000000 0.000000 0.000000 0.000000 0.055760 0.000000
# 6 0.000000 0.000000 0.000000 0.000000 0.000000 0.050734
#
#
# Mechanical properties :
#
#
# Convention : Reuss Voigt Hill
#
# Bulk Modulus (GPa) = 31.11923 59.06921 45.09422
# Shear Modulus (GPa) = 19.83592 24.42759 22.13175
#
# Velocity S-wave (km/s) = 3.32826 3.69344 3.51559
# Velocity P-wave (km/s) = 5.66993 7.15372 6.45460
#
# Compressibility (1/GPa) = 0.03213448
#
# Stress axis : x y z
#
# Youngs Moduli (GPa) = 91.54685 91.33577 23.68099
#
# Poissons Ratio (x) = 0.37054 0.08003
# Poissons Ratio (y) = 0.37140 0.20239
# Poissons Ratio (z) = 0.30937 0.78060
#
# Static dielectric constant tensor:
#      x y z
#    x 3.560570 0.000000 0.000000 
#    y 0.000000 3.388890 0.000000 
#    z 0.000000 0.000000 3.098870 
# 
# 
# High freq. dielectric constant tensor:
#      x y z
#    x 1.709530 0.000000 0.000000 
#    y 0.000000 1.688470 0.000000 
#    z 0.000000 0.000000 1.665150 
# 
# From -- ./inp_files/4639.got.cif
#   From: 2010.03.12/outbox.cif.g09.slc.cpg/sg63_3_cif.got.tgz:4639.got - 2010.04.10 19:34:48.
