data_PCOD8258862
_publ_section_title
;
Structure prediction by ZEFSAII (Michael W. Deem and Ramdas Pophale) SiO2 
 PCOD8258862
Probable space group: C M C M
;
_chemical_formula_sum "Si O2"
_cell_formula_units_Z 80
_cell_length_a 8.708913
_cell_length_b 15.535227
_cell_length_c 29.748996
_cell_angle_alpha 90.000000
_cell_angle_beta 90.000000
_cell_angle_gamma 90.000000
_cell_volume 4024.888640
_symmetry_space_group_name_H-M "C M C M"
_symmetry_group_IT_number 63
_symmetry_cell_setting 'orthorhombic'
loop_
_space_group_symop_operation_xyz
x,y,z
-x,-y,1/2+z
x,-y,-z
-x,y,1/2-z
-x,-y,-z
x,y,1/2-z
-x,y,z
x,-y,1/2+z
1/2+x,1/2+y,z
1/2-x,1/2-y,1/2+z
1/2+x,1/2-y,-z
1/2-x,1/2+y,1/2-z
1/2-x,1/2-y,-z
1/2+x,1/2+y,1/2-z
1/2-x,1/2+y,z
1/2+x,1/2-y,1/2+z
loop_
_atom_site_type_symbol
_atom_site_label
_atom_site_fract_x
_atom_site_fract_y
_atom_site_fract_z
Si Si1 0.819381 0.873756 0.802144
Si Si2 0.325588 0.543092 0.548107
Si Si3 0.682075 0.982621 0.136518
Si Si4 0.817865 0.713699 0.641268
Si Si5 0.825783 0.716928 0.955541
O O1 0.778345 0.873581 0.750000
O O2 0.759683 0.781614 0.821561
O O3 0.000000 0.884856 0.811001
O O4 0.730178 0.953378 0.823913
O O5 0.317632 0.500000 0.500000
O O6 0.500000 0.575978 0.556407
O O7 0.270506 0.485767 0.590798
O O8 0.196332 0.615500 0.546527
O O9 0.500000 0.987072 0.129377
O O10 0.738253 0.884943 0.149648
O O11 0.759864 0.750467 0.592492
O O12 0.000000 0.710198 0.640589
O O13 0.000000 0.744399 0.960108
O O14 0.750000 0.750000 0.000000
#
# Coordination Sequence:
#
# PCOD8258862 Si02
#       5
#    16  16  16  16  16
#     4  10  21  38  61  86 111 148 195 237 286 350
#     4  10  21  36  55  80 112 153 194 234 287 349
#     4  10  21  38  59  85 117 151 189 242 296 347
#     4   8  18  37  57  78 111 152 190 230 282 346
#     4  10  20  34  53  80 114 151 194 238 286 345
#
# _framework density 19.876328000000001
#
# number of rings (size 3 to 8) (size 9 to 14) (size 15 to 20)
#    0.000    2.400    0.000    3.000    2.800    2.800 
#    0.000    7.000    0.000    0.000    0.000    0.000 
#    0.000    0.000    0.000    0.000    0.000    0.000 
#
# Total GULP energy -495523.660393 kJ/mol
# GULP energy per Si atom -12388.091510 kJ/mol
# Density = 1.983109 g / cm^3
# Si number density = 19.876328 Si / 1000 Ang^3
#
#
#
# Elastic Constant Matrix: (Units=GPa)
#
#
# Indices 1 2 3 4 5 6 
#
# 1 50.6516 27.4690 50.3547 0.0000 0.0000 0.0000
# 2 27.4690 99.4749 77.8779 0.0000 0.0000 0.0000
# 3 50.3547 77.8779 172.8424 0.0000 0.0000 0.0000
# 4 0.0000 0.0000 0.0000 35.2654 0.0000 0.0000
# 5 0.0000 0.0000 0.0000 0.0000 29.2876 0.0000
# 6 0.0000 0.0000 0.0000 0.0000 0.0000 27.8776
#
#
#
# Elastic Compliance Matrix: (Units=1/GPa)
#
#
# Indices 1 2 3 4 5 6 
#
# 1 0.028069 -0.002084 -0.007238 0.000000 0.000000 0.000000
# 2 -0.002084 0.015686 -0.006461 0.000000 0.000000 0.000000
# 3 -0.007238 -0.006461 0.010805 0.000000 0.000000 0.000000
# 4 0.000000 0.000000 0.000000 0.028356 0.000000 0.000000
# 5 0.000000 0.000000 0.000000 0.000000 0.034144 0.000000
# 6 0.000000 0.000000 0.000000 0.000000 0.000000 0.035871
#
#
# Mechanical properties :
#
#
# Convention : Reuss Voigt Hill
#
# Bulk Modulus (GPa) = 43.48901 70.48579 56.98740
# Shear Modulus (GPa) = 26.01958 29.63727 27.82843
#
# Velocity S-wave (km/s) = 3.62204 3.86564 3.74582
# Velocity P-wave (km/s) = 6.27850 7.44738 6.88778
#
# Compressibility (1/GPa) = 0.02299432
#
# Stress axis : x y z
#
# Youngs Moduli (GPa) = 35.62668 63.75018 92.54678
#
# Poissons Ratio (x) = 0.13286 0.66988
# Poissons Ratio (y) = 0.07425 0.59791
# Poissons Ratio (z) = 0.25788 0.41186
#
# Static dielectric constant tensor:
#      x y z
#    x 3.532290 0.000000 0.000000 
#    y 0.000000 3.412210 0.000000 
#    z 0.000000 0.000000 3.253240 
# 
# 
# High freq. dielectric constant tensor:
#      x y z
#    x 1.758960 0.000000 0.000000 
#    y 0.000000 1.764860 0.000000 
#    z 0.000000 0.000000 1.788140 
# 
# From -- ./inp_files/66584.got.cif
#   From: 2010.03.12/outbox.cif.g09.slc.cpg/sg63_34_cif.got.tgz:66584.got - 2010.04.10 19:34:48.
