data_PCOD8258276
_publ_section_title
;
Structure prediction by ZEFSAII (Michael W. Deem and Ramdas Pophale) SiO2 
 PCOD8258276
Probable space group: C M C M
;
_chemical_formula_sum "Si O2"
_cell_formula_units_Z 88
_cell_length_a 27.183352
_cell_length_b 18.508858
_cell_length_c 9.077447
_cell_angle_alpha 90.000000
_cell_angle_beta 90.000000
_cell_angle_gamma 90.000000
_cell_volume 4567.161345
_symmetry_space_group_name_H-M "C M C M"
_symmetry_group_IT_number 63
_symmetry_cell_setting 'orthorhombic'
loop_
_space_group_symop_operation_xyz
x,y,z
-x,-y,1/2+z
x,-y,-z
-x,y,1/2-z
-x,-y,-z
x,y,1/2-z
-x,y,z
x,-y,1/2+z
1/2+x,1/2+y,z
1/2-x,1/2-y,1/2+z
1/2+x,1/2-y,-z
1/2-x,1/2+y,1/2-z
1/2-x,1/2-y,-z
1/2+x,1/2+y,1/2-z
1/2-x,1/2+y,z
1/2+x,1/2-y,1/2+z
loop_
_atom_site_type_symbol
_atom_site_label
_atom_site_fract_x
_atom_site_fract_y
_atom_site_fract_z
Si Si1 0.500000 0.573685 0.078337
Si Si2 0.249307 0.424927 0.578543
Si Si3 0.912246 0.170954 0.418679
Si Si4 0.682976 0.310543 0.076720
Si Si5 0.944817 0.332914 0.081031
Si Si6 0.847769 0.347420 0.581079
O O1 0.500000 0.562765 0.250000
O O2 0.548221 0.614481 0.027391
O O3 0.500000 0.500000 0.000000
O O4 0.264338 0.500000 0.500000
O O5 0.264016 0.430107 0.750000
O O6 0.274926 0.354583 0.508128
O O7 0.190749 0.412581 0.559837
O O8 0.894559 0.160153 0.250000
O O9 0.868459 0.154195 0.531057
O O10 0.937629 0.248070 0.437681
O O11 0.693177 0.316839 0.250000
O O12 0.678347 0.226737 0.022241
O O13 0.941492 0.357083 0.250000
O O14 0.000000 0.353351 0.020622
O O15 0.898932 0.370430 0.997530
O O16 0.861421 0.333990 0.750000
#
# Coordination Sequence:
#
# PCOD8258276 Si02
#       6
#     8  16  16  16  16  16
#     4  10  20  32  46  64  94 136 177 214 255 304
#     4  11  23  39  57  78 107 143 181 222 271 324
#     4   9  17  32  50  70 100 136 174 216 260 306
#     4  10  20  35  56  82 108 137 177 221 267 320
#     4   9  16  29  53  81 106 134 172 216 263 314
#     4   9  20  36  55  82 112 141 176 221 271 320
#
# _framework density 19.267984999999999
#
# number of rings (size 3 to 8) (size 9 to 14) (size 15 to 20)
#    0.000    2.364    0.909    1.636    0.000    4.000 
#    0.000    1.818    0.000    0.545    0.000    0.000 
#    0.000    0.000    0.000    0.000    0.000    0.000 
#
# Total GULP energy -545305.474510 kJ/mol
# GULP energy per Si atom -12393.306239 kJ/mol
# Density = 1.922413 g / cm^3
# Si number density = 19.267985 Si / 1000 Ang^3
#
#
#
# Elastic Constant Matrix: (Units=GPa)
#
#
# Indices 1 2 3 4 5 6 
#
# 1 100.7396 14.5125 41.9428 0.0000 0.0000 0.0000
# 2 14.5125 29.9812 15.2643 0.0000 0.0000 0.0000
# 3 41.9428 15.2643 67.0437 0.0000 0.0000 0.0000
# 4 0.0000 0.0000 0.0000 22.4811 0.0000 0.0000
# 5 0.0000 0.0000 0.0000 0.0000 37.7642 0.0000
# 6 0.0000 0.0000 0.0000 0.0000 0.0000 19.7425
#
#
#
# Elastic Compliance Matrix: (Units=1/GPa)
#
#
# Indices 1 2 3 4 5 6 
#
# 1 0.013592 -0.002545 -0.007924 0.000000 0.000000 0.000000
# 2 -0.002545 0.038204 -0.007106 0.000000 0.000000 0.000000
# 3 -0.007924 -0.007106 0.021491 0.000000 0.000000 0.000000
# 4 0.000000 0.000000 0.000000 0.044482 0.000000 0.000000
# 5 0.000000 0.000000 0.000000 0.000000 0.026480 0.000000
# 6 0.000000 0.000000 0.000000 0.000000 0.000000 0.050652
#
#
# Mechanical properties :
#
#
# Convention : Reuss Voigt Hill
#
# Bulk Modulus (GPa) = 26.22118 37.91153 32.06636
# Shear Modulus (GPa) = 20.59615 24.40055 22.49835
#
# Velocity S-wave (km/s) = 3.27300 3.56248 3.42080
# Velocity P-wave (km/s) = 5.28409 6.05313 5.68163
#
# Compressibility (1/GPa) = 0.03813710
#
# Stress axis : x y z
#
# Youngs Moduli (GPa) = 73.57067 26.17523 46.53160
#
# Poissons Ratio (x) = 0.06662 0.36872
# Poissons Ratio (y) = 0.18725 0.33065
# Poissons Ratio (z) = 0.58297 0.18600
#
# Static dielectric constant tensor:
#      x y z
#    x 3.730350 0.000000 0.000000 
#    y 0.000000 3.215450 0.000000 
#    z 0.000000 0.000000 3.660330 
# 
# 
# High freq. dielectric constant tensor:
#      x y z
#    x 1.761510 0.000000 0.000000 
#    y 0.000000 1.720170 0.000000 
#    z 0.000000 0.000000 1.743760 
# 
# From -- ./inp_files/12337.got.cif
#   From: 2010.03.12/outbox.cif.g09.slc.cpg/sg63_7_cif.got.tgz:12337.got - 2010.04.10 19:34:48.
