data_PCOD8258952
_publ_section_title
;
Structure prediction by ZEFSAII (Michael W. Deem and Ramdas Pophale) SiO2 
 PCOD8258952
Probable space group: C M C M
;
_chemical_formula_sum "Si O2"
_cell_formula_units_Z 80
_cell_length_a 24.717018
_cell_length_b 10.848417
_cell_length_c 14.474289
_cell_angle_alpha 90.000000
_cell_angle_beta 90.000000
_cell_angle_gamma 90.000000
_cell_volume 3881.143354
_symmetry_space_group_name_H-M "C M C M"
_symmetry_group_IT_number 63
_symmetry_cell_setting 'orthorhombic'
loop_
_space_group_symop_operation_xyz
x,y,z
-x,-y,1/2+z
x,-y,-z
-x,y,1/2-z
-x,-y,-z
x,y,1/2-z
-x,y,z
x,-y,1/2+z
1/2+x,1/2+y,z
1/2-x,1/2-y,1/2+z
1/2+x,1/2-y,-z
1/2-x,1/2+y,1/2-z
1/2-x,1/2-y,-z
1/2+x,1/2+y,1/2-z
1/2-x,1/2+y,z
1/2+x,1/2-y,1/2+z
loop_
_atom_site_type_symbol
_atom_site_label
_atom_site_fract_x
_atom_site_fract_y
_atom_site_fract_z
Si Si1 0.938504 0.378231 0.952877
Si Si2 0.061259 0.827844 0.580929
Si Si3 0.319602 0.305995 0.250000
Si Si4 0.292744 0.681535 0.250000
Si Si5 0.905167 0.313940 0.250000
Si Si6 0.403591 0.901635 0.750000
Si Si7 0.836233 0.990456 0.604305
O O1 0.936732 0.371596 0.842394
O O2 0.000000 0.379546 0.987090
O O3 0.910186 0.500000 0.000000
O O4 0.915071 0.248727 0.992836
O O5 0.059989 0.727478 0.662450
O O6 0.101709 0.940569 0.603021
O O7 0.000000 0.880075 0.567015
O O8 0.256079 0.277255 0.250000
O O9 0.348035 0.173617 0.250000
O O10 0.336716 0.379279 0.342461
O O11 0.347026 0.755873 0.250000
O O12 0.293828 0.597261 0.342086
O O13 0.891187 0.455946 0.250000
O O14 0.814210 0.000000 0.500000
#
# Coordination Sequence:
#
# PCOD8258952 Si02
#       7
#    16  16   8   8   8   8  16
#     4  10  20  34  54  86 124 156 191 240 293 352
#     4  10  20  37  62  90 122 164 203 241 297 360
#     4  11  25  42  63  87 122 155 201 260 311 353
#     4   9  23  43  63  87 117 158 201 257 306 355
#     4  10  20  34  60  86 118 156 205 250 296 361
#     4  12  22  35  58  88 119 157 197 253 311 353
#     4  10  22  43  65  90 124 158 203 251 298 369
#
# _framework density 20.612483999999998
#
# number of rings (size 3 to 8) (size 9 to 14) (size 15 to 20)
#    0.000    1.800    2.000    2.400    2.800    2.000 
#    0.000    3.000    0.000    0.000    0.000    0.000 
#    0.000    0.000    0.000    0.000    0.000    0.000 
#
# Total GULP energy -495802.578480 kJ/mol
# GULP energy per Si atom -12395.064462 kJ/mol
# Density = 2.056557 g / cm^3
# Si number density = 20.612484 Si / 1000 Ang^3
#
#
#
# Elastic Constant Matrix: (Units=GPa)
#
#
# Indices 1 2 3 4 5 6 
#
# 1 70.2151 32.9527 26.6573 0.0000 0.0000 0.0000
# 2 32.9527 82.3567 41.5901 0.0000 0.0000 0.0000
# 3 26.6573 41.5901 171.7596 0.0000 0.0000 0.0000
# 4 0.0000 0.0000 0.0000 31.0935 0.0000 0.0000
# 5 0.0000 0.0000 0.0000 0.0000 16.9720 0.0000
# 6 0.0000 0.0000 0.0000 0.0000 0.0000 28.9760
#
#
#
# Elastic Compliance Matrix: (Units=1/GPa)
#
#
# Indices 1 2 3 4 5 6 
#
# 1 0.017742 -0.006504 -0.001179 0.000000 0.000000 0.000000
# 2 -0.006504 0.016218 -0.002918 0.000000 0.000000 0.000000
# 3 -0.001179 -0.002918 0.006712 0.000000 0.000000 0.000000
# 4 0.000000 0.000000 0.000000 0.032161 0.000000 0.000000
# 5 0.000000 0.000000 0.000000 0.000000 0.058921 0.000000
# 6 0.000000 0.000000 0.000000 0.000000 0.000000 0.034511
#
#
# Mechanical properties :
#
#
# Convention : Reuss Voigt Hill
#
# Bulk Modulus (GPa) = 51.35796 58.52571 54.94183
# Shear Modulus (GPa) = 25.77928 30.28374 28.03151
#
# Velocity S-wave (km/s) = 3.54031 3.83717 3.69172
# Velocity P-wave (km/s) = 6.45614 6.93446 6.69957
#
# Compressibility (1/GPa) = 0.01947118
#
# Stress axis : x y z
#
# Youngs Moduli (GPa) = 56.36452 61.66014 148.99745
#
# Poissons Ratio (x) = 0.40101 0.17563
# Poissons Ratio (y) = 0.36657 0.43473
# Poissons Ratio (z) = 0.06644 0.17990
#
# Static dielectric constant tensor:
#      x y z
#    x 3.312580 0.000000 0.000000 
#    y 0.000000 3.976110 0.000000 
#    z 0.000000 0.000000 4.364630 
# 
# 
# High freq. dielectric constant tensor:
#      x y z
#    x 1.772750 0.000000 0.000000 
#    y 0.000000 1.814130 0.000000 
#    z 0.000000 0.000000 1.822000 
# 
# From -- ./inp_files/36562.got.cif
#   From: 2010.03.12/outbox.cif.g09.slc.cpg/sg63_19_cif.got.tgz:36562.got - 2010.04.10 19:34:48.
