data_PCOD8258585
_publ_section_title
;
Structure prediction by ZEFSAII (Michael W. Deem and Ramdas Pophale) SiO2 
 PCOD8258585
Probable space group: C M C M
;
_chemical_formula_sum "Si O2"
_cell_formula_units_Z 80
_cell_length_a 12.305313
_cell_length_b 19.820747
_cell_length_c 18.706455
_cell_angle_alpha 90.000000
_cell_angle_beta 90.000000
_cell_angle_gamma 90.000000
_cell_volume 4562.513648
_symmetry_space_group_name_H-M "C M C M"
_symmetry_group_IT_number 63
_symmetry_cell_setting 'orthorhombic'
loop_
_space_group_symop_operation_xyz
x,y,z
-x,-y,1/2+z
x,-y,-z
-x,y,1/2-z
-x,-y,-z
x,y,1/2-z
-x,y,z
x,-y,1/2+z
1/2+x,1/2+y,z
1/2-x,1/2-y,1/2+z
1/2+x,1/2-y,-z
1/2-x,1/2+y,1/2-z
1/2-x,1/2-y,-z
1/2+x,1/2+y,1/2-z
1/2-x,1/2+y,z
1/2+x,1/2-y,1/2+z
loop_
_atom_site_type_symbol
_atom_site_label
_atom_site_fract_x
_atom_site_fract_y
_atom_site_fract_z
Si Si1 0.706805 0.168502 0.057035
Si Si2 0.780769 0.450003 0.669001
Si Si3 0.125684 0.067760 0.667705
Si Si4 0.500000 0.999347 0.381931
Si Si5 0.000000 0.607641 0.506563
Si Si6 0.871317 0.187913 0.563105
O O1 0.719491 0.116583 0.121410
O O2 0.608468 0.151560 0.002866
O O3 0.679841 0.241617 0.090525
O O4 0.818912 0.168516 0.013072
O O5 0.756011 0.427759 0.750000
O O6 0.690144 0.502006 0.640366
O O7 0.895238 0.488688 0.666771
O O8 0.154072 0.083820 0.750000
O O9 0.160236 0.132320 0.621730
O O10 0.000000 0.050660 0.657065
O O11 0.500000 0.923629 0.413804
O O12 0.500000 0.050007 0.447677
O O13 0.000000 0.193792 0.552889
#
# Coordination Sequence:
#
# PCOD8258585 Si02
#       6
#    16  16  16   8   8  16
#     4  10  20  33  52  77 103 137 172 215 261 305
#     4  10  20  34  51  76 106 135 175 217 257 309
#     4   9  19  35  54  76 103 136 172 213 259 307
#     4   9  17  28  48  74 101 135 162 202 256 304
#     4   9  16  30  48  72 104 129 166 206 251 304
#     4  10  20  35  53  76 105 135 173 214 258 313
#
# _framework density 17.534193999999999
#
# number of rings (size 3 to 8) (size 9 to 14) (size 15 to 20)
#    0.000    2.400    1.000    1.500    0.000    4.000 
#    0.000    2.000    0.000    0.000    0.000    0.000 
#    0.000    0.000    0.000    0.000    0.000    0.000 
#
# Total GULP energy -496028.166412 kJ/mol
# GULP energy per Si atom -12400.704160 kJ/mol
# Density = 1.749429 g / cm^3
# Si number density = 17.534194 Si / 1000 Ang^3
#
#
#
# Elastic Constant Matrix: (Units=GPa)
#
#
# Indices 1 2 3 4 5 6 
#
# 1 87.4914 59.2037 44.2207 0.0000 0.0000 0.0000
# 2 59.2037 131.7125 67.1872 0.0000 0.0000 0.0000
# 3 44.2207 67.1872 74.9506 0.0000 0.0000 0.0000
# 4 0.0000 0.0000 0.0000 31.3696 0.0000 0.0000
# 5 0.0000 0.0000 0.0000 0.0000 23.7693 0.0000
# 6 0.0000 0.0000 0.0000 0.0000 0.0000 28.3034
#
#
#
# Elastic Compliance Matrix: (Units=1/GPa)
#
#
# Indices 1 2 3 4 5 6 
#
# 1 0.017842 -0.004883 -0.006150 0.000000 0.000000 0.000000
# 2 -0.004883 0.015325 -0.010857 0.000000 0.000000 0.000000
# 3 -0.006150 -0.010857 0.026703 0.000000 0.000000 0.000000
# 4 0.000000 0.000000 0.000000 0.031878 0.000000 0.000000
# 5 0.000000 0.000000 0.000000 0.000000 0.042071 0.000000
# 6 0.000000 0.000000 0.000000 0.000000 0.000000 0.035331
#
#
# Mechanical properties :
#
#
# Convention : Reuss Voigt Hill
#
# Bulk Modulus (GPa) = 62.14620 70.59751 66.37185
# Shear Modulus (GPa) = 22.90494 24.92467 23.91480
#
# Velocity S-wave (km/s) = 3.61820 3.77435 3.69710
# Velocity P-wave (km/s) = 7.27839 7.70354 7.49398
#
# Compressibility (1/GPa) = 0.01609109
#
# Stress axis : x y z
#
# Youngs Moduli (GPa) = 56.04738 65.25142 37.44921
#
# Poissons Ratio (x) = 0.31862 0.23030
# Poissons Ratio (y) = 0.27367 0.40659
# Poissons Ratio (z) = 0.34467 0.70844
#
# Static dielectric constant tensor:
#      x y z
#    x 3.375820 0.000000 0.000000 
#    y 0.000000 3.332630 0.000000 
#    z 0.000000 0.000000 3.059240 
# 
# 
# High freq. dielectric constant tensor:
#      x y z
#    x 1.687190 0.000000 0.000000 
#    y 0.000000 1.681140 0.000000 
#    z 0.000000 0.000000 1.661230 
# 
# From -- ./inp_files/52462.got.cif
#   From: 2010.03.12/outbox.cif.g09.slc.cpg/sg63_27_cif.got.tgz:52462.got - 2010.04.10 19:34:48.
