data_PCOD8258919
_publ_section_title
;
Structure prediction by ZEFSAII (Michael W. Deem and Ramdas Pophale) SiO2 
 PCOD8258919
Probable space group: C M C M
;
_chemical_formula_sum "Si O2"
_cell_formula_units_Z 72
_cell_length_a 17.461255
_cell_length_b 23.126729
_cell_length_c 8.952239
_cell_angle_alpha 90.000000
_cell_angle_beta 90.000000
_cell_angle_gamma 90.000000
_cell_volume 3615.108483
_symmetry_space_group_name_H-M "C M C M"
_symmetry_group_IT_number 63
_symmetry_cell_setting 'orthorhombic'
loop_
_space_group_symop_operation_xyz
x,y,z
-x,-y,1/2+z
x,-y,-z
-x,y,1/2-z
-x,-y,-z
x,y,1/2-z
-x,y,z
x,-y,1/2+z
1/2+x,1/2+y,z
1/2-x,1/2-y,1/2+z
1/2+x,1/2-y,-z
1/2-x,1/2+y,1/2-z
1/2-x,1/2-y,-z
1/2+x,1/2+y,1/2-z
1/2-x,1/2+y,z
1/2+x,1/2-y,1/2+z
loop_
_atom_site_type_symbol
_atom_site_label
_atom_site_fract_x
_atom_site_fract_y
_atom_site_fract_z
Si Si1 0.500000 0.561692 0.074314
Si Si2 0.712857 0.940436 0.575379
Si Si3 0.642598 0.637647 0.076327
Si Si4 0.910871 0.367463 0.076150
Si Si5 0.088461 0.248611 0.924412
O O1 0.500000 0.552289 0.250000
O O2 0.574789 0.596076 0.020431
O O3 0.500000 0.500000 0.000000
O O4 0.701174 0.951075 0.750000
O O5 0.777277 0.892812 0.542974
O O6 0.633615 0.919306 0.503934
O O7 0.738961 0.000000 0.500000
O O8 0.631857 0.652718 0.250000
O O9 0.640872 0.696689 0.983230
O O10 0.890721 0.366893 0.250000
O O11 0.000000 0.378760 0.046438
O O12 0.884924 0.306628 0.006624
O O13 0.102542 0.257649 0.750000
O O14 0.000000 0.234621 0.961274
#
# Coordination Sequence:
#
# PCOD8258919 Si02
#       5
#     8  16  16  16  16
#     4  10  20  34  54  80 114 156 201 240 279 334
#     4  11  24  41  61  87 119 155 197 245 295 348
#     4  10  21  37  58  84 118 160 198 238 289 345
#     4  10  22  41  65  89 115 152 194 241 299 357
#     4  10  20  35  59  91 122 153 194 244 293 345
#
# _framework density 19.916416000000002
#
# number of rings (size 3 to 8) (size 9 to 14) (size 15 to 20)
#    0.000    1.778    1.111    2.667    0.000    6.222 
#    0.000    0.000    0.000    0.000    0.000    0.000 
#    0.000    0.000    0.000    0.000    0.000    0.000 
#
# Total GULP energy -446653.631301 kJ/mol
# GULP energy per Si atom -12407.045314 kJ/mol
# Density = 1.987109 g / cm^3
# Si number density = 19.916416 Si / 1000 Ang^3
#
#
#
# Elastic Constant Matrix: (Units=GPa)
#
#
# Indices 1 2 3 4 5 6 
#
# 1 72.9069 28.9725 43.8534 0.0000 0.0000 0.0000
# 2 28.9725 74.8114 45.8203 0.0000 0.0000 0.0000
# 3 43.8534 45.8203 102.8863 0.0000 0.0000 0.0000
# 4 0.0000 0.0000 0.0000 45.0040 0.0000 0.0000
# 5 0.0000 0.0000 0.0000 0.0000 28.5096 0.0000
# 6 0.0000 0.0000 0.0000 0.0000 0.0000 24.5328
#
#
#
# Elastic Compliance Matrix: (Units=1/GPa)
#
#
# Indices 1 2 3 4 5 6 
#
# 1 0.019020 -0.003301 -0.006637 0.000000 0.000000 0.000000
# 2 -0.003301 0.018953 -0.007034 0.000000 0.000000 0.000000
# 3 -0.006637 -0.007034 0.015681 0.000000 0.000000 0.000000
# 4 0.000000 0.000000 0.000000 0.022220 0.000000 0.000000
# 5 0.000000 0.000000 0.000000 0.000000 0.035076 0.000000
# 6 0.000000 0.000000 0.000000 0.000000 0.000000 0.040762
#
#
# Mechanical properties :
#
#
# Convention : Reuss Voigt Hill
#
# Bulk Modulus (GPa) = 50.73369 54.21077 52.47223
# Shear Modulus (GPa) = 26.01108 28.40651 27.20879
#
# Velocity S-wave (km/s) = 3.61780 3.78072 3.70016
# Velocity P-wave (km/s) = 6.55591 6.80710 6.68269
#
# Compressibility (1/GPa) = 0.01971077
#
# Stress axis : x y z
#
# Youngs Moduli (GPa) = 52.57640 52.76081 63.77219
#
# Poissons Ratio (x) = 0.17417 0.42324
# Poissons Ratio (y) = 0.17356 0.44857
# Poissons Ratio (z) = 0.34894 0.37111
#
# Static dielectric constant tensor:
#      x y z
#    x 3.595950 0.000000 0.000000 
#    y 0.000000 3.593760 0.000000 
#    z 0.000000 0.000000 3.624850 
# 
# 
# High freq. dielectric constant tensor:
#      x y z
#    x 1.774370 0.000000 0.000000 
#    y 0.000000 1.783730 0.000000 
#    z 0.000000 0.000000 1.782700 
# 
# From -- ./inp_files/6116.got.cif
#   From: 2010.03.12/outbox.cif.g09.slc.cpg/sg63_4_cif.got.tgz:6116.got - 2010.04.10 19:34:48.
