data_PCOD8258140
_publ_section_title
;
Structure prediction by ZEFSAII (Michael W. Deem and Ramdas Pophale) SiO2 
 PCOD8258140
Probable space group: C M C M
;
_chemical_formula_sum "Si O2"
_cell_formula_units_Z 72
_cell_length_a 16.177240
_cell_length_b 23.235647
_cell_length_c 10.230253
_cell_angle_alpha 90.000000
_cell_angle_beta 90.000000
_cell_angle_gamma 90.000000
_cell_volume 3845.435867
_symmetry_space_group_name_H-M "C M C M"
_symmetry_group_IT_number 63
_symmetry_cell_setting 'orthorhombic'
loop_
_space_group_symop_operation_xyz
x,y,z
-x,-y,1/2+z
x,-y,-z
-x,y,1/2-z
-x,-y,-z
x,y,1/2-z
-x,y,z
x,-y,1/2+z
1/2+x,1/2+y,z
1/2-x,1/2-y,1/2+z
1/2+x,1/2-y,-z
1/2-x,1/2+y,1/2-z
1/2-x,1/2-y,-z
1/2+x,1/2+y,1/2-z
1/2-x,1/2+y,z
1/2+x,1/2-y,1/2+z
loop_
_atom_site_type_symbol
_atom_site_label
_atom_site_fract_x
_atom_site_fract_y
_atom_site_fract_z
Si Si1 0.401458 0.562661 0.750000
Si Si2 0.095216 0.237450 0.597610
Si Si3 0.348483 0.135894 0.401765
Si Si4 0.500000 0.947670 0.900500
Si Si5 0.827708 0.873818 0.002593
Si Si6 0.096956 0.069869 0.250000
O O1 0.500000 0.572251 0.750000
O O2 0.361694 0.591206 0.624248
O O3 0.375395 0.496357 0.750000
O O4 0.112213 0.226860 0.750000
O O5 0.118427 0.301790 0.556256
O O6 0.150588 0.193578 0.514454
O O7 0.000000 0.226047 0.563981
O O8 0.321951 0.135771 0.250000
O O9 0.419440 0.089963 0.429109
O O10 0.270910 0.119373 0.491787
O O11 0.500000 0.969333 0.750000
O O12 0.500000 0.000000 0.000000
O O13 0.869809 0.898698 0.875752
O O14 0.000000 0.074300 0.250000
#
# Coordination Sequence:
#
# PCOD8258140 Si02
#       6
#     8  16  16   8  16   8
#     4  11  24  42  61  89 123 169 212 249 306 375
#     4  10  19  36  65  91 122 160 208 254 309 373
#     4  10  21  41  63  94 125 162 207 258 312 372
#     4  10  22  44  70  92 126 172 211 255 310 372
#     4  12  22  39  63  94 122 159 216 255 308 370
#     4  11  24  40  59  85 131 165 198 259 312 365
#
# _framework density 18.723493999999999
#
# number of rings (size 3 to 8) (size 9 to 14) (size 15 to 20)
#    0.000    1.333    3.333    3.333    0.000    3.556 
#    2.000    0.000    0.000    0.000    0.000    0.000 
#    0.000    0.000    0.000    0.000    0.000    0.000 
#
# Total GULP energy -446540.694415 kJ/mol
# GULP energy per Si atom -12403.908178 kJ/mol
# Density = 1.868088 g / cm^3
# Si number density = 18.723494 Si / 1000 Ang^3
#
#
#
# Elastic Constant Matrix: (Units=GPa)
#
#
# Indices 1 2 3 4 5 6 
#
# 1 59.8977 61.5350 40.1437 0.0000 0.0000 0.0000
# 2 61.5350 154.7870 75.0485 0.0000 0.0000 0.0000
# 3 40.1437 75.0485 115.9000 0.0000 0.0000 0.0000
# 4 0.0000 0.0000 0.0000 31.0996 0.0000 0.0000
# 5 0.0000 0.0000 0.0000 0.0000 51.9334 0.0000
# 6 0.0000 0.0000 0.0000 0.0000 0.0000 1.4252
#
#
#
# Elastic Compliance Matrix: (Units=1/GPa)
#
#
# Indices 1 2 3 4 5 6 
#
# 1 0.029327 -0.009815 -0.003802 0.000000 0.000000 0.000000
# 2 -0.009815 0.012702 -0.004825 0.000000 0.000000 0.000000
# 3 -0.003802 -0.004825 0.013070 0.000000 0.000000 0.000000
# 4 0.000000 0.000000 0.000000 0.032155 0.000000 0.000000
# 5 0.000000 0.000000 0.000000 0.000000 0.019255 0.000000
# 6 0.000000 0.000000 0.000000 0.000000 0.000000 0.701664
#
#
# Mechanical properties :
#
#
# Convention : Reuss Voigt Hill
#
# Bulk Modulus (GPa) = 54.90540 76.00434 65.45487
# Shear Modulus (GPa) = 5.87455 27.14879 16.51167
#
# Velocity S-wave (km/s) = 1.77323 3.81200 2.97285
# Velocity P-wave (km/s) = 5.79486 7.74960 6.84239
#
# Compressibility (1/GPa) = 0.01821314
#
# Stress axis : x y z
#
# Youngs Moduli (GPa) = 34.09820 78.72720 76.51386
#
# Poissons Ratio (x) = 0.77274 0.29091
# Poissons Ratio (y) = 0.33469 0.36920
# Poissons Ratio (z) = 0.12965 0.37988
#
# Static dielectric constant tensor:
#      x y z
#    x 3.576730 0.000000 0.000000 
#    y 0.000000 3.756470 0.000000 
#    z 0.000000 0.000000 3.265450 
# 
# 
# High freq. dielectric constant tensor:
#      x y z
#    x 1.739210 0.000000 0.000000 
#    y 0.000000 1.742220 0.000000 
#    z 0.000000 0.000000 1.717110 
# 
# From -- ./inp_files/6181.got.cif
#   From: 2010.03.12/outbox.cif.g09.slc.cpg/sg63_4_cif.got.tgz:6181.got - 2010.04.10 19:34:48.
