data_PCOD8258777
_publ_section_title
;
Structure prediction by ZEFSAII (Michael W. Deem and Ramdas Pophale) SiO2 
 PCOD8258777
Probable space group: C M C M
;
_chemical_formula_sum "Si O2"
_cell_formula_units_Z 112
_cell_length_a 12.713373
_cell_length_b 28.456108
_cell_length_c 18.399273
_cell_angle_alpha 90.000000
_cell_angle_beta 90.000000
_cell_angle_gamma 90.000000
_cell_volume 6656.362309
_symmetry_space_group_name_H-M "C M C M"
_symmetry_group_IT_number 63
_symmetry_cell_setting 'orthorhombic'
loop_
_space_group_symop_operation_xyz
x,y,z
-x,-y,1/2+z
x,-y,-z
-x,y,1/2-z
-x,-y,-z
x,y,1/2-z
-x,y,z
x,-y,1/2+z
1/2+x,1/2+y,z
1/2-x,1/2-y,1/2+z
1/2+x,1/2-y,-z
1/2-x,1/2+y,1/2-z
1/2-x,1/2-y,-z
1/2+x,1/2+y,1/2-z
1/2-x,1/2+y,z
1/2+x,1/2-y,1/2+z
loop_
_atom_site_type_symbol
_atom_site_label
_atom_site_fract_x
_atom_site_fract_y
_atom_site_fract_z
Si Si1 0.874145 0.621380 0.428440
Si Si2 0.790838 0.535713 0.336277
Si Si3 0.623723 0.687366 0.833813
Si Si4 0.880901 0.016036 0.581983
Si Si5 0.619620 0.060416 0.672505
Si Si6 0.123986 0.706869 0.170779
Si Si7 0.256507 0.612382 0.574265
O O1 0.846350 0.579931 0.373135
O O2 0.841790 0.670128 0.390366
O O3 0.792116 0.618948 0.494648
O O4 0.000000 0.619325 0.448713
O O5 0.786430 0.544678 0.250000
O O6 0.675298 0.523110 0.367334
O O7 0.862079 0.491355 0.360433
O O8 0.651391 0.673286 0.750000
O O9 0.500000 0.681130 0.846697
O O10 0.661225 0.740642 0.849483
O O11 0.683286 0.657451 0.895104
O O12 0.831463 0.067627 0.584994
O O13 0.000000 0.019331 0.610148
O O14 0.874135 0.000000 0.500000
O O15 0.680406 0.062529 0.750000
O O16 0.500000 0.069169 0.685984
O O17 0.655166 0.103197 0.623106
O O18 0.171273 0.692666 0.250000
O O19 0.000000 0.707125 0.178042
#
# Coordination Sequence:
#
# PCOD8258777 Si02
#       7
#    16  16  16  16  16  16  16
#     4  11  21  32  49  75 106 138 168 204 251 303
#     4  10  20  34  52  76  99 131 177 211 243 293
#     4   9  18  34  55  76  97 124 164 213 260 304
#     4  10  20  36  52  70 101 135 167 205 254 302
#     4   9  18  31  46  67  98 132 165 204 244 285
#     4   8  16  32  52  73  98 128 163 207 256 302
#     4  11  20  31  49  76 100 132 168 207 248 304
#
# _framework density 16.826007000000001
#
# number of rings (size 3 to 8) (size 9 to 14) (size 15 to 20)
#    0.000    2.286    1.429    3.000    0.000    2.857 
#    0.000    2.143    0.000    0.000    0.000    1.000 
#    0.000    5.714    0.000    0.000    0.000    0.000 
#
# Total GULP energy -693828.523346 kJ/mol
# GULP energy per Si atom -12389.795060 kJ/mol
# Density = 1.678771 g / cm^3
# Si number density = 16.826007 Si / 1000 Ang^3
#
#
#
# Elastic Constant Matrix: (Units=GPa)
#
#
# Indices 1 2 3 4 5 6 
#
# 1 71.3906 27.7255 36.3485 0.0000 0.0000 0.0000
# 2 27.7255 90.9784 42.0344 0.0000 0.0000 0.0000
# 3 36.3485 42.0344 89.7262 0.0000 0.0000 0.0000
# 4 0.0000 0.0000 0.0000 19.9089 0.0000 0.0000
# 5 0.0000 0.0000 0.0000 0.0000 25.1042 0.0000
# 6 0.0000 0.0000 0.0000 0.0000 0.0000 17.2180
#
#
#
# Elastic Compliance Matrix: (Units=1/GPa)
#
#
# Indices 1 2 3 4 5 6 
#
# 1 0.018162 -0.002725 -0.006081 0.000000 0.000000 0.000000
# 2 -0.002725 0.014437 -0.005659 0.000000 0.000000 0.000000
# 3 -0.006081 -0.005659 0.016260 0.000000 0.000000 0.000000
# 4 0.000000 0.000000 0.000000 0.050229 0.000000 0.000000
# 5 0.000000 0.000000 0.000000 0.000000 0.039834 0.000000
# 6 0.000000 0.000000 0.000000 0.000000 0.000000 0.058079
#
#
# Mechanical properties :
#
#
# Convention : Reuss Voigt Hill
#
# Bulk Modulus (GPa) = 50.18143 51.59022 50.88582
# Shear Modulus (GPa) = 21.49861 22.17866 21.83863
#
# Velocity S-wave (km/s) = 3.57837 3.63453 3.60656
# Velocity P-wave (km/s) = 6.85284 6.95274 6.90297
#
# Compressibility (1/GPa) = 0.01992769
#
# Stress axis : x y z
#
# Youngs Moduli (GPa) = 55.06043 69.26700 61.50233
#
# Poissons Ratio (x) = 0.18878 0.37398
# Poissons Ratio (y) = 0.15006 0.34806
# Poissons Ratio (z) = 0.33481 0.39200
#
# Static dielectric constant tensor:
#      x y z
#    x 3.095490 0.000000 0.000000 
#    y 0.000000 3.257260 0.000000 
#    z 0.000000 0.000000 2.114940 
# 
# 
# High freq. dielectric constant tensor:
#      x y z
#    x 1.631380 0.000000 0.000000 
#    y 0.000000 1.648040 0.000000 
#    z 0.000000 0.000000 1.655390 
# 
# From -- ./inp_files/32775.got.cif
#   From: 2010.03.12/outbox.cif.g09.slc.cpg/sg63_17_cif.got.tgz:32775.got - 2010.04.10 19:34:48.
