data_PCOD8258653
_publ_section_title
;
Structure prediction by ZEFSAII (Michael W. Deem and Ramdas Pophale) SiO2 
 PCOD8258653
Probable space group: C M C M
;
_chemical_formula_sum "Si O2"
_cell_formula_units_Z 96
_cell_length_a 8.884201
_cell_length_b 24.745258
_cell_length_c 23.616816
_cell_angle_alpha 90.000000
_cell_angle_beta 90.000000
_cell_angle_gamma 90.000000
_cell_volume 5191.964423
_symmetry_space_group_name_H-M "C M C M"
_symmetry_group_IT_number 63
_symmetry_cell_setting 'orthorhombic'
loop_
_space_group_symop_operation_xyz
x,y,z
-x,-y,1/2+z
x,-y,-z
-x,y,1/2-z
-x,-y,-z
x,y,1/2-z
-x,y,z
x,-y,1/2+z
1/2+x,1/2+y,z
1/2-x,1/2-y,1/2+z
1/2+x,1/2-y,-z
1/2-x,1/2+y,1/2-z
1/2-x,1/2-y,-z
1/2+x,1/2+y,1/2-z
1/2-x,1/2+y,z
1/2+x,1/2-y,1/2+z
loop_
_atom_site_type_symbol
_atom_site_label
_atom_site_fract_x
_atom_site_fract_y
_atom_site_fract_z
Si Si1 0.178500 0.102121 0.250000
Si Si2 0.175998 0.980048 0.062302
Si Si3 0.178040 0.431124 0.863945
Si Si4 0.323946 0.829434 0.937015
Si Si5 0.675067 0.764202 0.130306
Si Si6 0.674484 0.133031 0.560419
Si Si7 0.678648 0.274539 0.750000
O O1 0.242088 0.071108 0.303817
O O2 0.236528 0.163898 0.250000
O O3 0.000000 0.099313 0.250000
O O4 0.219409 0.917864 0.070342
O O5 0.000000 0.987965 0.074116
O O6 0.272183 0.013624 0.106936
O O7 0.221018 0.000000 0.000000
O O8 0.234664 0.380810 0.901561
O O9 0.000000 0.430958 0.855997
O O10 0.500000 0.822443 0.929194
O O11 0.248237 0.775218 0.915212
O O12 0.279113 0.837719 0.002195
O O13 0.500000 0.750262 0.129928
O O14 0.704775 0.825817 0.112005
O O15 0.741803 0.755007 0.193565
O O16 0.500000 0.114776 0.557899
O O17 0.500000 0.272106 0.750000
#
# Coordination Sequence:
#
# PCOD8258653 Si02
#       7
#     8  16  16  16  16  16   8
#     4  11  21  37  60  85 118 151 190 240 287 335
#     4  11  23  38  59  85 113 150 195 241 291 348
#     4  11  22  37  59  86 117 150 191 238 289 344
#     4  10  20  33  53  83 116 146 183 234 290 342
#     4  10  20  35  56  81 112 149 191 231 285 348
#     4  10  21  37  56  81 114 154 190 234 290 348
#     4   9  18  33  54  81 110 145 184 228 273 331
#
# _framework density 18.490112
#
# number of rings (size 3 to 8) (size 9 to 14) (size 15 to 20)
#    0.000    1.667    3.333    1.750    0.000    2.667 
#    0.000    1.250    0.000    2.000    0.000    0.000 
#    0.000    0.000    0.000    0.000    0.000    0.000 
#
# Total GULP energy -595406.910968 kJ/mol
# GULP energy per Si atom -12404.310645 kJ/mol
# Density = 1.844803 g / cm^3
# Si number density = 18.490112 Si / 1000 Ang^3
#
#
#
# Elastic Constant Matrix: (Units=GPa)
#
#
# Indices 1 2 3 4 5 6 
#
# 1 49.8162 31.3083 32.7007 0.0000 0.0000 0.0000
# 2 31.3083 98.5923 46.1942 0.0000 0.0000 0.0000
# 3 32.7007 46.1942 123.9938 0.0000 0.0000 0.0000
# 4 0.0000 0.0000 0.0000 26.0300 0.0000 0.0000
# 5 0.0000 0.0000 0.0000 0.0000 22.1421 0.0000
# 6 0.0000 0.0000 0.0000 0.0000 0.0000 30.6170
#
#
#
# Elastic Compliance Matrix: (Units=1/GPa)
#
#
# Indices 1 2 3 4 5 6 
#
# 1 0.027250 -0.006404 -0.004801 0.000000 0.000000 0.000000
# 2 -0.006404 0.013793 -0.003450 0.000000 0.000000 0.000000
# 3 -0.004801 -0.003450 0.010616 0.000000 0.000000 0.000000
# 4 0.000000 0.000000 0.000000 0.038417 0.000000 0.000000
# 5 0.000000 0.000000 0.000000 0.000000 0.045163 0.000000
# 6 0.000000 0.000000 0.000000 0.000000 0.000000 0.032662
#
#
# Mechanical properties :
#
#
# Convention : Reuss Voigt Hill
#
# Bulk Modulus (GPa) = 44.74253 54.75652 49.74953
# Shear Modulus (GPa) = 24.43090 26.57110 25.50100
#
# Velocity S-wave (km/s) = 3.63891 3.79495 3.71775
# Velocity P-wave (km/s) = 6.47349 6.99145 6.73745
#
# Compressibility (1/GPa) = 0.02235010
#
# Stress axis : x y z
#
# Youngs Moduli (GPa) = 36.69738 72.50248 94.19600
#
# Poissons Ratio (x) = 0.46430 0.45221
# Poissons Ratio (y) = 0.23501 0.32494
# Poissons Ratio (z) = 0.17618 0.25010
#
# Static dielectric constant tensor:
#      x y z
#    x 3.263040 0.000000 0.000000 
#    y 0.000000 3.309110 0.000000 
#    z 0.000000 0.000000 3.613940 
# 
# 
# High freq. dielectric constant tensor:
#      x y z
#    x 1.709170 0.000000 0.000000 
#    y 0.000000 1.714490 0.000000 
#    z 0.000000 0.000000 1.722860 
# 
# From -- ./inp_files/60090.got.cif
#   From: 2010.03.12/outbox.cif.g09.slc.cpg/sg63_31_cif.got.tgz:60090.got - 2010.04.10 19:34:48.
