data_PCOD8258312
_publ_section_title
;
Structure prediction by ZEFSAII (Michael W. Deem and Ramdas Pophale) SiO2 
 PCOD8258312
Probable space group: C M C M
;
_chemical_formula_sum "Si O2"
_cell_formula_units_Z 64
_cell_length_a 9.100833
_cell_length_b 22.929730
_cell_length_c 19.374232
_cell_angle_alpha 90.000000
_cell_angle_beta 90.000000
_cell_angle_gamma 90.000000
_cell_volume 4043.007826
_symmetry_space_group_name_H-M "C M C M"
_symmetry_group_IT_number 63
_symmetry_cell_setting 'orthorhombic'
loop_
_space_group_symop_operation_xyz
x,y,z
-x,-y,1/2+z
x,-y,-z
-x,y,1/2-z
-x,-y,-z
x,y,1/2-z
-x,y,z
x,-y,1/2+z
1/2+x,1/2+y,z
1/2-x,1/2-y,1/2+z
1/2+x,1/2-y,-z
1/2-x,1/2+y,1/2-z
1/2-x,1/2-y,-z
1/2+x,1/2+y,1/2-z
1/2-x,1/2+y,z
1/2+x,1/2-y,1/2+z
loop_
_atom_site_type_symbol
_atom_site_label
_atom_site_fract_x
_atom_site_fract_y
_atom_site_fract_z
Si Si1 0.833965 0.691015 0.014657
Si Si2 0.671349 0.409486 0.930405
Si Si3 0.329238 0.510276 0.671397
Si Si4 0.833942 0.420482 0.438891
O O1 0.751454 0.653876 0.075320
O O2 0.000000 0.704903 0.038449
O O3 0.750000 0.750000 0.000000
O O4 0.833356 0.650528 0.945377
O O5 0.500000 0.399458 0.943766
O O6 0.701608 0.446953 0.861898
O O7 0.740968 0.445037 0.995485
O O8 0.274892 0.507747 0.750000
O O9 0.500000 0.526311 0.666099
O O10 0.239619 0.560796 0.632752
O O11 0.000000 0.444774 0.442274
#
# Coordination Sequence:
#
# PCOD8258312 Si02
#       4
#    16  16  16  16
#     4   9  18  30  48  73  96 119 156 199 239 280
#     4   9  17  30  49  70  96 126 157 195 237 278
#     4  10  20  32  47  70  99 130 161 191 231 283
#     4   9  19  31  47  71  97 123 158 198 236 280
#
# _framework density 15.829799
#
# number of rings (size 3 to 8) (size 9 to 14) (size 15 to 20)
#    1.500    1.250    0.000    2.250    0.000    5.500 
#    0.000    0.000    0.000    1.500    0.000    3.500 
#    0.000    0.000    0.000    0.000    0.000    0.000 
#
# Total GULP energy -396421.248617 kJ/mol
# GULP energy per Si atom -12388.164019 kJ/mol
# Density = 1.579377 g / cm^3
# Si number density = 15.829799 Si / 1000 Ang^3
#
#
#
# Elastic Constant Matrix: (Units=GPa)
#
#
# Indices 1 2 3 4 5 6 
#
# 1 116.6308 43.1504 45.0663 0.0000 0.0000 0.0000
# 2 43.1504 69.4017 25.6110 0.0000 0.0000 0.0000
# 3 45.0663 25.6110 97.3996 0.0000 0.0000 0.0000
# 4 0.0000 0.0000 0.0000 6.0462 0.0000 0.0000
# 5 0.0000 0.0000 0.0000 0.0000 16.7759 0.0000
# 6 0.0000 0.0000 0.0000 0.0000 0.0000 29.8111
#
#
#
# Elastic Compliance Matrix: (Units=1/GPa)
#
#
# Indices 1 2 3 4 5 6 
#
# 1 0.012477 -0.006232 -0.004135 0.000000 0.000000 0.000000
# 2 -0.006232 0.019070 -0.002131 0.000000 0.000000 0.000000
# 3 -0.004135 -0.002131 0.012740 0.000000 0.000000 0.000000
# 4 0.000000 0.000000 0.000000 0.165393 0.000000 0.000000
# 5 0.000000 0.000000 0.000000 0.000000 0.059609 0.000000
# 6 0.000000 0.000000 0.000000 0.000000 0.000000 0.033545
#
#
# Mechanical properties :
#
#
# Convention : Reuss Voigt Hill
#
# Bulk Modulus (GPa) = 51.83280 56.78749 54.31015
# Shear Modulus (GPa) = 14.95841 21.83361 18.39601
#
# Velocity S-wave (km/s) = 3.07734 3.71789 3.41268
# Velocity P-wave (km/s) = 6.74104 7.37441 7.06483
#
# Compressibility (1/GPa) = 0.01929280
#
# Stress axis : x y z
#
# Youngs Moduli (GPa) = 80.14528 52.43842 78.49106
#
# Poissons Ratio (x) = 0.32680 0.32452
# Poissons Ratio (y) = 0.49947 0.16725
# Poissons Ratio (z) = 0.33136 0.11174
#
# Static dielectric constant tensor:
#      x y z
#    x 3.145970 0.000000 0.000000 
#    y 0.000000 2.826570 0.000000 
#    z 0.000000 0.000000 2.734800 
# 
# 
# High freq. dielectric constant tensor:
#      x y z
#    x 1.626990 0.000000 0.000000 
#    y 0.000000 1.597700 0.000000 
#    z 0.000000 0.000000 1.566550 
# 
# From -- ./inp_files/39832.got.cif
#   From: 2010.03.12/outbox.cif.g09.slc.cpg/sg63_20_cif.got.tgz:39832.got - 2010.04.10 19:34:48.
