data_PCOD8258567
_publ_section_title
;
Structure prediction by ZEFSAII (Michael W. Deem and Ramdas Pophale) SiO2 
 PCOD8258567
Probable space group: C M C M
;
_chemical_formula_sum "Si O2"
_cell_formula_units_Z 128
_cell_length_a 9.866384
_cell_length_b 26.849853
_cell_length_c 25.472514
_cell_angle_alpha 90.000000
_cell_angle_beta 90.000000
_cell_angle_gamma 90.000000
_cell_volume 6747.948138
_symmetry_space_group_name_H-M "C M C M"
_symmetry_group_IT_number 63
_symmetry_cell_setting 'orthorhombic'
loop_
_space_group_symop_operation_xyz
x,y,z
-x,-y,1/2+z
x,-y,-z
-x,y,1/2-z
-x,-y,-z
x,y,1/2-z
-x,y,z
x,-y,1/2+z
1/2+x,1/2+y,z
1/2-x,1/2-y,1/2+z
1/2+x,1/2-y,-z
1/2-x,1/2+y,1/2-z
1/2-x,1/2-y,-z
1/2+x,1/2+y,1/2-z
1/2-x,1/2+y,z
1/2+x,1/2-y,1/2+z
loop_
_atom_site_type_symbol
_atom_site_label
_atom_site_fract_x
_atom_site_fract_y
_atom_site_fract_z
Si Si1 0.156783 0.839223 0.690450
Si Si2 0.160638 0.078278 0.901859
Si Si3 0.840995 0.250305 0.653337
Si Si4 0.353175 0.788668 0.545208
Si Si5 0.350981 0.347520 0.009039
Si Si6 0.660326 0.355511 0.192423
Si Si7 0.846175 0.494195 0.939257
Si Si8 0.740047 0.113794 0.410169
O O1 0.178796 0.859242 0.750000
O O2 0.249825 0.791151 0.681975
O O3 0.198217 0.882122 0.648599
O O4 0.000000 0.824466 0.681445
O O5 0.210577 0.117728 0.945711
O O6 0.204598 0.100285 0.845922
O O7 0.000000 0.068190 0.907188
O O8 0.241111 0.027118 0.906547
O O9 0.817937 0.248238 0.590027
O O10 0.784823 0.197717 0.673561
O O11 0.000000 0.259323 0.666629
O O12 0.500000 0.778708 0.519043
O O13 0.262264 0.703750 0.500354
O O14 0.364120 0.840962 0.578298
O O15 0.500000 0.329252 0.025259
O O16 0.356708 0.379625 0.955048
O O17 0.718700 0.367843 0.250000
O O18 0.500000 0.351838 0.192936
O O19 0.834491 0.438385 0.917777
O O20 0.000000 0.512678 0.930336
O O21 0.806513 0.500000 0.000000
#
# Coordination Sequence:
#
# PCOD8258567 Si02
#       8
#    16  16  16  16  16  16  16  16
#     4  10  20  33  51  77 109 142 174 210 255 309
#     4  10  21  35  53  80 106 133 178 226 263 307
#     4   9  17  31  54  80 102 132 180 224 256 299
#     4   8  15  27  47  73 104 135 164 203 254 307
#     4   9  17  29  48  72 103 136 164 204 256 306
#     4   9  18  35  57  77 102 139 180 222 264 305
#     4  11  21  36  57  81 105 134 171 213 262 317
#     4   9  18  30  51  71 102 135 165 202 251 307
#
# _framework density 18.968729
#
# number of rings (size 3 to 8) (size 9 to 14) (size 15 to 20)
#    0.750    1.875    1.250    1.125    0.000    3.000 
#    0.000    1.875    0.000    3.375    0.000    0.000 
#    0.000    0.000    0.000    0.000    0.000    0.000 
#
# Total GULP energy -793113.232060 kJ/mol
# GULP energy per Si atom -12392.394251 kJ/mol
# Density = 1.892556 g / cm^3
# Si number density = 18.968729 Si / 1000 Ang^3
#
#
#
# Elastic Constant Matrix: (Units=GPa)
#
#
# Indices 1 2 3 4 5 6 
#
# 1 60.6725 9.4870 20.4353 0.0000 0.0000 0.0000
# 2 9.4870 61.2272 24.0622 0.0000 0.0000 0.0000
# 3 20.4353 24.0622 105.0792 0.0000 0.0000 0.0000
# 4 0.0000 0.0000 0.0000 24.3957 0.0000 0.0000
# 5 0.0000 0.0000 0.0000 0.0000 21.2709 0.0000
# 6 0.0000 0.0000 0.0000 0.0000 0.0000 17.1953
#
#
#
# Elastic Compliance Matrix: (Units=1/GPa)
#
#
# Indices 1 2 3 4 5 6 
#
# 1 0.017767 -0.001533 -0.003104 0.000000 0.000000 0.000000
# 2 -0.001533 0.018080 -0.003842 0.000000 0.000000 0.000000
# 3 -0.003104 -0.003842 0.011000 0.000000 0.000000 0.000000
# 4 0.000000 0.000000 0.000000 0.040991 0.000000 0.000000
# 5 0.000000 0.000000 0.000000 0.000000 0.047013 0.000000
# 6 0.000000 0.000000 0.000000 0.000000 0.000000 0.058155
#
#
# Mechanical properties :
#
#
# Convention : Reuss Voigt Hill
#
# Bulk Modulus (GPa) = 33.45737 37.21642 35.33690
# Shear Modulus (GPa) = 22.73474 24.10533 23.42004
#
# Velocity S-wave (km/s) = 3.46575 3.56869 3.51759
# Velocity P-wave (km/s) = 5.80445 6.05336 5.93021
#
# Compressibility (1/GPa) = 0.02988878
#
# Stress axis : x y z
#
# Youngs Moduli (GPa) = 56.28356 55.30950 90.90816
#
# Poissons Ratio (x) = 0.08479 0.28220
# Poissons Ratio (y) = 0.08629 0.34927
# Poissons Ratio (z) = 0.17472 0.21250
#
# Static dielectric constant tensor:
#      x y z
#    x 3.246290 0.000000 0.000000 
#    y 0.000000 3.301950 0.000000 
#    z 0.000000 0.000000 3.679690 
# 
# 
# High freq. dielectric constant tensor:
#      x y z
#    x 1.718040 0.000000 0.000000 
#    y 0.000000 1.725080 0.000000 
#    z 0.000000 0.000000 1.736510 
# 
# From -- ./inp_files/68829.got.cif
#   From: 2010.03.12/outbox.cif.g09.slc.cpg/sg63_35_cif.got.tgz:68829.got - 2010.04.10 19:34:48.
