data_PCOD8258922
_publ_section_title
;
Structure prediction by ZEFSAII (Michael W. Deem and Ramdas Pophale) SiO2 
 PCOD8258922
Probable space group: C M C M
;
_chemical_formula_sum "Si O2"
_cell_formula_units_Z 80
_cell_length_a 15.069660
_cell_length_b 18.096423
_cell_length_c 17.306115
_cell_angle_alpha 90.000000
_cell_angle_beta 90.000000
_cell_angle_gamma 90.000000
_cell_volume 4719.497697
_symmetry_space_group_name_H-M "C M C M"
_symmetry_group_IT_number 63
_symmetry_cell_setting 'orthorhombic'
loop_
_space_group_symop_operation_xyz
x,y,z
-x,-y,1/2+z
x,-y,-z
-x,y,1/2-z
-x,-y,-z
x,y,1/2-z
-x,y,z
x,-y,1/2+z
1/2+x,1/2+y,z
1/2-x,1/2-y,1/2+z
1/2+x,1/2-y,-z
1/2-x,1/2+y,1/2-z
1/2-x,1/2-y,-z
1/2+x,1/2+y,1/2-z
1/2-x,1/2+y,z
1/2+x,1/2-y,1/2+z
loop_
_atom_site_type_symbol
_atom_site_label
_atom_site_fract_x
_atom_site_fract_y
_atom_site_fract_z
Si Si1 0.396707 0.173367 0.838347
Si Si2 0.398226 0.436526 0.562505
Si Si3 0.760463 0.582601 0.338708
Si Si4 0.200850 0.204803 0.434602
Si Si5 0.603185 0.019111 0.586696
O O1 0.365248 0.158696 0.750000
O O2 0.500000 0.191604 0.839440
O O3 0.347114 0.242795 0.873625
O O4 0.375420 0.103598 0.892929
O O5 0.383248 0.500000 0.500000
O O6 0.500000 0.434736 0.590568
O O7 0.332837 0.455374 0.634339
O O8 0.369852 0.354886 0.529643
O O9 0.753474 0.602290 0.250000
O O10 0.774625 0.658854 0.386307
O O11 0.844056 0.530469 0.352855
O O12 0.250000 0.250000 0.500000
O O13 0.500000 0.000663 0.597230
O O14 0.635408 0.000000 0.500000
#
# Coordination Sequence:
#
# PCOD8258922 Si02
#       5
#    16  16  16  16  16
#     4  10  20  34  54  81 109 139 179 229 279 319
#     4   9  20  37  57  77 104 143 185 224 264 317
#     4  10  21  34  54  83 110 143 181 223 275 320
#     4  10  21  33  54  78 109 142 175 223 272 325
#     4  10  20  35  56  81 110 144 182 222 269 327
#
# _framework density 16.950956000000001
#
# number of rings (size 3 to 8) (size 9 to 14) (size 15 to 20)
#    1.200    1.000    0.000    3.600    2.800    1.600 
#    0.000    1.000    0.000    0.000    0.000    0.000 
#    0.000    0.000    0.000    0.000    0.000    0.000 
#
# Total GULP energy -495705.465263 kJ/mol
# GULP energy per Si atom -12392.636632 kJ/mol
# Density = 1.691237 g / cm^3
# Si number density = 16.950956 Si / 1000 Ang^3
#
#
#
# Elastic Constant Matrix: (Units=GPa)
#
#
# Indices 1 2 3 4 5 6 
#
# 1 59.6748 41.8064 31.1171 0.0000 0.0000 0.0000
# 2 41.8064 93.0914 34.5415 0.0000 0.0000 0.0000
# 3 31.1171 34.5415 91.5141 0.0000 0.0000 0.0000
# 4 0.0000 0.0000 0.0000 29.5279 0.0000 0.0000
# 5 0.0000 0.0000 0.0000 0.0000 21.7788 0.0000
# 6 0.0000 0.0000 0.0000 0.0000 0.0000 31.3533
#
#
#
# Elastic Compliance Matrix: (Units=1/GPa)
#
#
# Indices 1 2 3 4 5 6 
#
# 1 0.026451 -0.009933 -0.005245 0.000000 0.000000 0.000000
# 2 -0.009933 0.016221 -0.002745 0.000000 0.000000 0.000000
# 3 -0.005245 -0.002745 0.013747 0.000000 0.000000 0.000000
# 4 0.000000 0.000000 0.000000 0.033866 0.000000 0.000000
# 5 0.000000 0.000000 0.000000 0.000000 0.045916 0.000000
# 6 0.000000 0.000000 0.000000 0.000000 0.000000 0.031895
#
#
# Mechanical properties :
#
#
# Convention : Reuss Voigt Hill
#
# Bulk Modulus (GPa) = 48.60657 51.02337 49.81497
# Shear Modulus (GPa) = 23.71914 25.65304 24.68609
#
# Velocity S-wave (km/s) = 3.74475 3.89442 3.82032
# Velocity P-wave (km/s) = 6.88728 7.09845 6.99366
#
# Compressibility (1/GPa) = 0.02057335
#
# Stress axis : x y z
#
# Youngs Moduli (GPa) = 37.80568 61.64669 72.74363
#
# Poissons Ratio (x) = 0.61232 0.38154
# Poissons Ratio (y) = 0.37551 0.19970
# Poissons Ratio (z) = 0.19829 0.16924
#
# Static dielectric constant tensor:
#      x y z
#    x 3.112720 0.000000 0.000000 
#    y 0.000000 3.202840 0.000000 
#    z 0.000000 0.000000 3.097650 
# 
# 
# High freq. dielectric constant tensor:
#      x y z
#    x 1.646750 0.000000 0.000000 
#    y 0.000000 1.660310 0.000000 
#    z 0.000000 0.000000 1.647540 
# 
# From -- ./inp_files/43984.got.cif
#   From: 2010.03.12/outbox.cif.g09.slc.cpg/sg63_22_cif.got.tgz:43984.got - 2010.04.10 19:34:48.
