data_PCOD8258336
_publ_section_title
;
Structure prediction by ZEFSAII (Michael W. Deem and Ramdas Pophale) SiO2 
 PCOD8258336
Probable space group: C M C M
;
_chemical_formula_sum "Si O2"
_cell_formula_units_Z 96
_cell_length_a 18.550550
_cell_length_b 31.052301
_cell_length_c 9.281750
_cell_angle_alpha 90.000000
_cell_angle_beta 90.000000
_cell_angle_gamma 90.000000
_cell_volume 5346.633859
_symmetry_space_group_name_H-M "C M C M"
_symmetry_group_IT_number 63
_symmetry_cell_setting 'orthorhombic'
loop_
_space_group_symop_operation_xyz
x,y,z
-x,-y,1/2+z
x,-y,-z
-x,y,1/2-z
-x,-y,-z
x,y,1/2-z
-x,y,z
x,-y,1/2+z
1/2+x,1/2+y,z
1/2-x,1/2-y,1/2+z
1/2+x,1/2-y,-z
1/2-x,1/2+y,1/2-z
1/2-x,1/2-y,-z
1/2+x,1/2+y,1/2-z
1/2-x,1/2+y,z
1/2+x,1/2-y,1/2+z
loop_
_atom_site_type_symbol
_atom_site_label
_atom_site_fract_x
_atom_site_fract_y
_atom_site_fract_z
Si Si1 0.414475 0.704785 0.087910
Si Si2 0.158988 0.456822 0.418707
Si Si3 0.414246 0.200440 0.587952
Si Si4 0.085725 0.619365 0.413393
Si Si5 0.826364 0.957582 0.416921
Si Si6 0.916917 0.123289 0.581163
O O1 0.388425 0.695830 0.250000
O O2 0.500000 0.704471 0.078513
O O3 0.386717 0.752116 0.037764
O O4 0.383767 0.666713 0.988101
O O5 0.134734 0.500000 0.500000
O O6 0.140828 0.461395 0.250000
O O7 0.114047 0.418268 0.485649
O O8 0.242906 0.447540 0.445396
O O9 0.386315 0.190452 0.750000
O O10 0.500000 0.200093 0.588941
O O11 0.384852 0.164554 0.477681
O O12 0.114551 0.614468 0.250000
O O13 0.000000 0.618081 0.416477
O O14 0.842468 0.965676 0.250000
O O15 0.872050 0.917412 0.476770
O O16 0.852043 0.000000 0.500000
O O17 0.907217 0.128650 0.750000
O O18 0.000000 0.116156 0.537321
#
# Coordination Sequence:
#
# PCOD8258336 Si02
#       6
#    16  16  16  16  16  16
#     4   8  14  25  42  66  95 125 157 190 225 270
#     4  10  20  35  53  69  90 122 158 194 231 276
#     4   8  14  26  44  66  94 126 156 187 226 272
#     4  10  20  32  48  73 100 122 150 190 233 277
#     4   9  19  34  50  69  92 122 159 194 231 277
#     4   9  17  29  46  70  99 126 153 190 235 277
#
# _framework density 17.955221999999999
#
# number of rings (size 3 to 8) (size 9 to 14) (size 15 to 20)
#    0.000    3.000    0.000    2.000    0.000    3.667 
#    0.000    3.333    0.000    1.000    0.000    0.000 
#    0.000    0.000    0.000    0.000    0.000    0.000 
#
# Total GULP energy -595034.332529 kJ/mol
# GULP energy per Si atom -12396.548594 kJ/mol
# Density = 1.791435 g / cm^3
# Si number density = 17.955222 Si / 1000 Ang^3
#
#
#
# Elastic Constant Matrix: (Units=GPa)
#
#
# Indices 1 2 3 4 5 6 
#
# 1 21.1248 34.9184 23.9110 0.0000 0.0000 0.0000
# 2 34.9184 172.5915 78.3313 0.0000 0.0000 0.0000
# 3 23.9110 78.3313 94.9396 0.0000 0.0000 0.0000
# 4 0.0000 0.0000 0.0000 41.6555 0.0000 0.0000
# 5 0.0000 0.0000 0.0000 0.0000 16.2045 0.0000
# 6 0.0000 0.0000 0.0000 0.0000 0.0000 -2.1311
#
#
#
# Elastic Compliance Matrix: (Units=1/GPa)
#
#
# Indices 1 2 3 4 5 6 
#
# 1 0.077128 -0.010852 -0.010472 0.000000 0.000000 0.000000
# 2 -0.010852 0.010789 -0.006169 0.000000 0.000000 0.000000
# 3 -0.010472 -0.006169 0.018260 0.000000 0.000000 0.000000
# 4 0.000000 0.000000 0.000000 0.024006 0.000000 0.000000
# 5 0.000000 0.000000 0.000000 0.000000 0.061711 0.000000
# 6 0.000000 0.000000 0.000000 0.000000 0.000000 -0.469249
#
#
# Mechanical properties :
#
#
# Convention : Reuss Voigt Hill
#
# Bulk Modulus (GPa) = 19.53399 62.55305 41.04352
# Shear Modulus (GPa) = -24.35394 21.24547 -1.55424
#
# Velocity S-wave (km/s) = -3.68689 3.44357 -0.93140
# Velocity P-wave (km/s) = 2.68725 7.12214 4.66388
#
# Compressibility (1/GPa) = 0.05119283
#
# Stress axis : x y z
#
# Youngs Moduli (GPa) = 12.96549 92.68470 54.76473
#
# Poissons Ratio (x) = 1.00580 0.57347
# Poissons Ratio (y) = 0.14070 0.33783
# Poissons Ratio (z) = 0.13577 0.57175
#
# Static dielectric constant tensor:
#      x y z
#    x 2.927180 0.000000 0.000000 
#    y 0.000000 3.749440 0.000000 
#    z 0.000000 0.000000 3.447690 
# 
# 
# High freq. dielectric constant tensor:
#      x y z
#    x 1.646790 0.000000 0.000000 
#    y 0.000000 1.712410 0.000000 
#    z 0.000000 0.000000 1.696560 
# 
# From -- ./inp_files/8632.got.cif
#   From: 2010.03.12/outbox.cif.g09.slc.cpg/sg63_5_cif.got.tgz:8632.got - 2010.04.10 19:34:48.
