data_PCOD8258841
_publ_section_title
;
Structure prediction by ZEFSAII (Michael W. Deem and Ramdas Pophale) SiO2 
 PCOD8258841
Probable space group: C M C M
;
_chemical_formula_sum "Si O2"
_cell_formula_units_Z 96
_cell_length_a 14.744096
_cell_length_b 21.673497
_cell_length_c 15.489085
_cell_angle_alpha 90.000000
_cell_angle_beta 90.000000
_cell_angle_gamma 90.000000
_cell_volume 4949.631912
_symmetry_space_group_name_H-M "C M C M"
_symmetry_group_IT_number 63
_symmetry_cell_setting 'orthorhombic'
loop_
_space_group_symop_operation_xyz
x,y,z
-x,-y,1/2+z
x,-y,-z
-x,y,1/2-z
-x,-y,-z
x,y,1/2-z
-x,y,z
x,-y,1/2+z
1/2+x,1/2+y,z
1/2-x,1/2-y,1/2+z
1/2+x,1/2-y,-z
1/2-x,1/2+y,1/2-z
1/2-x,1/2-y,-z
1/2+x,1/2+y,1/2-z
1/2-x,1/2+y,z
1/2+x,1/2-y,1/2+z
loop_
_atom_site_type_symbol
_atom_site_label
_atom_site_fract_x
_atom_site_fract_y
_atom_site_fract_z
Si Si1 0.100736 0.868228 0.047758
Si Si2 0.398596 0.712314 0.383792
Si Si3 0.780849 0.429032 0.490694
Si Si4 0.900394 0.758581 0.149889
Si Si5 0.777364 0.650880 0.154424
Si Si6 0.893825 0.646467 0.850374
O O1 0.173939 0.921295 0.031365
O O2 0.124774 0.830881 0.135175
O O3 0.000000 0.898746 0.048614
O O4 0.105016 0.810278 0.982106
O O5 0.500000 0.703697 0.344725
O O6 0.328490 0.668379 0.333499
O O7 0.368698 0.783400 0.375193
O O8 0.806267 0.500000 0.500000
O O9 0.797948 0.402544 0.586197
O O10 0.839925 0.398612 0.414823
O O11 0.902632 0.746812 0.250000
O O12 0.827777 0.710283 0.113010
O O13 0.000000 0.745044 0.109312
O O14 0.812360 0.630519 0.250000
O O15 0.866964 0.634139 0.750000
O O16 0.000000 0.634017 0.864379
#
# Coordination Sequence:
#
# PCOD8258841 Si02
#       6
#    16  16  16  16  16  16
#     4   9  18  33  53  78 108 140 174 215 265 318
#     4   9  17  31  54  82 108 132 163 212 274 332
#     4  11  24  38  53  74 104 146 190 225 254 295
#     4   9  17  30  51  80 109 133 161 207 271 334
#     4  10  20  34  53  78 107 138 173 215 266 320
#     4  10  21  37  58  83 108 135 170 216 271 324
#
# _framework density 19.395381
#
# number of rings (size 3 to 8) (size 9 to 14) (size 15 to 20)
#    0.000    2.333    0.000    2.500    0.000    9.000 
#    0.000    0.000    0.000    2.000    0.000    2.333 
#    0.000    0.000    0.000    0.000    0.000    0.000 
#
# Total GULP energy -594758.901804 kJ/mol
# GULP energy per Si atom -12390.810454 kJ/mol
# Density = 1.935124 g / cm^3
# Si number density = 19.395381 Si / 1000 Ang^3
#
#
#
# Elastic Constant Matrix: (Units=GPa)
#
#
# Indices 1 2 3 4 5 6 
#
# 1 59.0769 24.1546 39.1995 0.0000 0.0000 0.0000
# 2 24.1546 84.6667 45.3276 0.0000 0.0000 0.0000
# 3 39.1995 45.3276 83.5703 0.0000 0.0000 0.0000
# 4 0.0000 0.0000 0.0000 13.9655 0.0000 0.0000
# 5 0.0000 0.0000 0.0000 0.0000 24.9456 0.0000
# 6 0.0000 0.0000 0.0000 0.0000 0.0000 18.4526
#
#
#
# Elastic Compliance Matrix: (Units=1/GPa)
#
#
# Indices 1 2 3 4 5 6 
#
# 1 0.024661 -0.001188 -0.010923 0.000000 0.000000 0.000000
# 2 -0.001188 0.016701 -0.008502 0.000000 0.000000 0.000000
# 3 -0.010923 -0.008502 0.021701 0.000000 0.000000 0.000000
# 4 0.000000 0.000000 0.000000 0.071605 0.000000 0.000000
# 5 0.000000 0.000000 0.000000 0.000000 0.040087 0.000000
# 6 0.000000 0.000000 0.000000 0.000000 0.000000 0.054193
#
#
# Mechanical properties :
#
#
# Convention : Reuss Voigt Hill
#
# Bulk Modulus (GPa) = 45.79171 49.40859 47.60015
# Shear Modulus (GPa) = 18.02117 19.38155 18.70136
#
# Velocity S-wave (km/s) = 3.05150 3.16458 3.10855
# Velocity P-wave (km/s) = 6.00636 6.23558 6.12204
#
# Compressibility (1/GPa) = 0.02183801
#
# Stress axis : x y z
#
# Youngs Moduli (GPa) = 40.55068 59.87580 46.08140
#
# Poissons Ratio (x) = 0.07111 0.50335
# Poissons Ratio (y) = 0.04816 0.39176
# Poissons Ratio (z) = 0.44294 0.50904
#
# Static dielectric constant tensor:
#      x y z
#    x 3.936600 0.000000 0.000000 
#    y 0.000000 3.102850 0.000000 
#    z 0.000000 0.000000 3.657260 
# 
# 
# High freq. dielectric constant tensor:
#      x y z
#    x 1.766790 0.000000 0.000000 
#    y 0.000000 1.709200 0.000000 
#    z 0.000000 0.000000 1.763450 
# 
# From -- ./inp_files/31944.got.cif
#   From: 2010.03.12/outbox.cif.g09.slc.cpg/sg63_16_cif.got.tgz:31944.got - 2010.04.10 19:34:48.
