data_PCOD8258366
_publ_section_title
;
Structure prediction by ZEFSAII (Michael W. Deem and Ramdas Pophale) SiO2 
 PCOD8258366
Probable space group: C M C M
;
_chemical_formula_sum "Si O2"
_cell_formula_units_Z 96
_cell_length_a 9.131866
_cell_length_b 19.527849
_cell_length_c 30.367369
_cell_angle_alpha 90.000000
_cell_angle_beta 90.000000
_cell_angle_gamma 90.000000
_cell_volume 5415.282344
_symmetry_space_group_name_H-M "C M C M"
_symmetry_group_IT_number 63
_symmetry_cell_setting 'orthorhombic'
loop_
_space_group_symop_operation_xyz
x,y,z
-x,-y,1/2+z
x,-y,-z
-x,y,1/2-z
-x,-y,-z
x,y,1/2-z
-x,y,z
x,-y,1/2+z
1/2+x,1/2+y,z
1/2-x,1/2-y,1/2+z
1/2+x,1/2-y,-z
1/2-x,1/2+y,1/2-z
1/2-x,1/2-y,-z
1/2+x,1/2+y,1/2-z
1/2-x,1/2+y,z
1/2+x,1/2-y,1/2+z
loop_
_atom_site_type_symbol
_atom_site_label
_atom_site_fract_x
_atom_site_fract_y
_atom_site_fract_z
Si Si1 0.329388 0.793205 0.874529
Si Si2 0.831136 0.959437 0.198836
Si Si3 0.670791 0.547488 0.460156
Si Si4 0.169479 0.451655 0.871309
Si Si5 0.173618 0.804991 0.298378
Si Si6 0.671702 0.705574 0.036553
O O1 0.500000 0.778145 0.883973
O O2 0.302444 0.871835 0.862490
O O3 0.266504 0.748353 0.834212
O O4 0.236566 0.771358 0.916797
O O5 0.806553 0.976588 0.250000
O O6 0.780420 0.881912 0.188536
O O7 0.000000 0.970048 0.185738
O O8 0.732208 0.009542 0.170568
O O9 0.726428 0.500000 0.500000
O O10 0.500000 0.536496 0.451252
O O11 0.753410 0.524069 0.416152
O O12 0.706454 0.625882 0.472370
O O13 0.000000 0.468984 0.876201
O O14 0.237845 0.786310 0.250000
O O15 0.000000 0.800771 0.295934
O O16 0.500000 0.720717 0.035845
O O17 0.750000 0.750000 0.000000
#
# Coordination Sequence:
#
# PCOD8258366 Si02
#       6
#    16  16  16  16  16  16
#     4   9  18  33  52  73  98 128 163 201 240 286
#     4   9  18  33  52  72  96 129 167 203 237 280
#     4   9  19  36  55  72  93 128 171 206 236 281
#     4  10  20  32  49  75 104 130 156 197 252 298
#     4   8  15  30  52  74  94 123 166 206 234 271
#     4  10  20  34  52  73  99 128 160 201 245 290
#
# _framework density 17.727608
#
# number of rings (size 3 to 8) (size 9 to 14) (size 15 to 20)
#    0.000    2.833    0.000    2.000    0.000    4.000 
#    0.000    9.167    0.000    1.500    0.000    0.000 
#    0.000    0.000    0.000    0.000    0.000    0.000 
#
# Total GULP energy -595223.596274 kJ/mol
# GULP energy per Si atom -12400.491589 kJ/mol
# Density = 1.768726 g / cm^3
# Si number density = 17.727608 Si / 1000 Ang^3
#
#
#
# Elastic Constant Matrix: (Units=GPa)
#
#
# Indices 1 2 3 4 5 6 
#
# 1 63.7494 43.3736 61.0918 0.0000 0.0000 0.0000
# 2 43.3736 85.0638 85.2810 0.0000 0.0000 0.0000
# 3 61.0918 85.2810 146.2689 0.0000 0.0000 0.0000
# 4 0.0000 0.0000 0.0000 39.8620 0.0000 0.0000
# 5 0.0000 0.0000 0.0000 0.0000 32.0152 0.0000
# 6 0.0000 0.0000 0.0000 0.0000 0.0000 25.5707
#
#
#
# Elastic Compliance Matrix: (Units=1/GPa)
#
#
# Indices 1 2 3 4 5 6 
#
# 1 0.027373 -0.006006 -0.007931 0.000000 0.000000 0.000000
# 2 -0.006006 0.029613 -0.014757 0.000000 0.000000 0.000000
# 3 -0.007931 -0.014757 0.018753 0.000000 0.000000 0.000000
# 4 0.000000 0.000000 0.000000 0.025087 0.000000 0.000000
# 5 0.000000 0.000000 0.000000 0.000000 0.031235 0.000000
# 6 0.000000 0.000000 0.000000 0.000000 0.000000 0.039107
#
#
# Mechanical properties :
#
#
# Convention : Reuss Voigt Hill
#
# Bulk Modulus (GPa) = 54.49287 74.95276 64.72282
# Shear Modulus (GPa) = 21.30604 26.51194 23.90899
#
# Velocity S-wave (km/s) = 3.47054 3.87139 3.67643
# Velocity P-wave (km/s) = 6.84582 7.89655 7.38989
#
# Compressibility (1/GPa) = 0.01835103
#
# Stress axis : x y z
#
# Youngs Moduli (GPa) = 36.53184 33.76860 53.32363
#
# Poissons Ratio (x) = 0.20282 0.42292
# Poissons Ratio (y) = 0.21942 0.78691
# Poissons Ratio (z) = 0.28974 0.49833
#
# Static dielectric constant tensor:
#      x y z
#    x 3.150000 0.000000 0.000000 
#    y 0.000000 3.331210 0.000000 
#    z 0.000000 0.000000 3.729280 
# 
# 
# High freq. dielectric constant tensor:
#      x y z
#    x 1.670730 0.000000 0.000000 
#    y 0.000000 1.684330 0.000000 
#    z 0.000000 0.000000 1.693830 
# 
# From -- ./inp_files/66957.got.cif
#   From: 2010.03.12/outbox.cif.g09.slc.cpg/sg63_34_cif.got.tgz:66957.got - 2010.04.10 19:34:48.
