data_PCOD8258491
_publ_section_title
;
Structure prediction by ZEFSAII (Michael W. Deem and Ramdas Pophale) SiO2 
 PCOD8258491
Probable space group: C M C M
;
_chemical_formula_sum "Si O2"
_cell_formula_units_Z 80
_cell_length_a 22.424419
_cell_length_b 12.952023
_cell_length_c 14.459760
_cell_angle_alpha 90.000000
_cell_angle_beta 90.000000
_cell_angle_gamma 90.000000
_cell_volume 4199.715695
_symmetry_space_group_name_H-M "C M C M"
_symmetry_group_IT_number 63
_symmetry_cell_setting 'orthorhombic'
loop_
_space_group_symop_operation_xyz
x,y,z
-x,-y,1/2+z
x,-y,-z
-x,y,1/2-z
-x,-y,-z
x,y,1/2-z
-x,y,z
x,-y,1/2+z
1/2+x,1/2+y,z
1/2-x,1/2-y,1/2+z
1/2+x,1/2-y,-z
1/2-x,1/2+y,1/2-z
1/2-x,1/2-y,-z
1/2+x,1/2+y,1/2-z
1/2-x,1/2+y,z
1/2+x,1/2-y,1/2+z
loop_
_atom_site_type_symbol
_atom_site_label
_atom_site_fract_x
_atom_site_fract_y
_atom_site_fract_z
Si Si1 0.113622 0.115376 0.144526
Si Si2 0.932594 0.732235 0.997844
Si Si3 0.569197 0.398873 0.145113
Si Si4 0.736155 0.725373 0.357420
Si Si5 0.814984 0.379611 0.497807
O O1 0.092342 0.122159 0.250000
O O2 0.070866 0.193693 0.090727
O O3 0.182419 0.144535 0.132049
O O4 0.105638 0.998276 0.108564
O O5 0.000000 0.688696 0.006723
O O6 0.913043 0.799231 0.086438
O O7 0.886284 0.637908 0.989604
O O8 0.586322 0.372132 0.250000
O O9 0.500000 0.425801 0.133548
O O10 0.751000 0.748745 0.250000
O O11 0.792687 0.674301 0.407768
O O12 0.718593 0.832108 0.408420
O O13 0.801310 0.500000 0.500000
#
# Coordination Sequence:
#
# PCOD8258491 Si02
#       5
#    16  16  16  16  16
#     4   9  17  30  51  79 106 133 169 213 264 319
#     4  10  20  33  50  73 105 143 179 216 257 302
#     4   9  17  29  47  74 106 137 170 210 258 312
#     4   9  20  38  58  80 106 136 172 218 270 320
#     4  10  22  38  56  80 107 137 178 221 261 314
#
# _framework density 19.048908000000001
#
# number of rings (size 3 to 8) (size 9 to 14) (size 15 to 20)
#    0.000    2.600    0.000    1.200    0.000    9.600 
#    0.000    2.000    0.000    0.000    0.000    5.600 
#    0.000    0.000    0.000    0.000    0.000    0.000 
#
# Total GULP energy -496015.530860 kJ/mol
# GULP energy per Si atom -12400.388272 kJ/mol
# Density = 1.900555 g / cm^3
# Si number density = 19.048908 Si / 1000 Ang^3
#
#
#
# Elastic Constant Matrix: (Units=GPa)
#
#
# Indices 1 2 3 4 5 6 
#
# 1 75.4822 40.2328 32.3938 0.0000 0.0000 0.0000
# 2 40.2328 86.2417 33.1206 0.0000 0.0000 0.0000
# 3 32.3938 33.1206 108.3568 0.0000 0.0000 0.0000
# 4 0.0000 0.0000 0.0000 19.7761 0.0000 0.0000
# 5 0.0000 0.0000 0.0000 0.0000 24.0076 0.0000
# 6 0.0000 0.0000 0.0000 0.0000 0.0000 17.6200
#
#
#
# Elastic Compliance Matrix: (Units=1/GPa)
#
#
# Indices 1 2 3 4 5 6 
#
# 1 0.018618 -0.007419 -0.003298 0.000000 0.000000 0.000000
# 2 -0.007419 0.016094 -0.002701 0.000000 0.000000 0.000000
# 3 -0.003298 -0.002701 0.011041 0.000000 0.000000 0.000000
# 4 0.000000 0.000000 0.000000 0.050566 0.000000 0.000000
# 5 0.000000 0.000000 0.000000 0.000000 0.041654 0.000000
# 6 0.000000 0.000000 0.000000 0.000000 0.000000 0.056754
#
#
# Mechanical properties :
#
#
# Convention : Reuss Voigt Hill
#
# Bulk Modulus (GPa) = 52.86731 53.50836 53.18784
# Shear Modulus (GPa) = 21.94258 23.23630 22.58944
#
# Velocity S-wave (km/s) = 3.39766 3.49639 3.44738
# Velocity P-wave (km/s) = 6.57311 6.66713 6.62029
#
# Compressibility (1/GPa) = 0.01891528
#
# Stress axis : x y z
#
# Youngs Moduli (GPa) = 53.71163 62.13595 90.57558
#
# Poissons Ratio (x) = 0.46098 0.29874
# Poissons Ratio (y) = 0.39848 0.24468
# Poissons Ratio (z) = 0.17716 0.16785
#
# Static dielectric constant tensor:
#      x y z
#    x 3.399810 0.000000 0.000000 
#    y 0.000000 3.213660 0.000000 
#    z 0.000000 0.000000 3.675030 
# 
# 
# High freq. dielectric constant tensor:
#      x y z
#    x 1.739560 0.000000 0.000000 
#    y 0.000000 1.714790 0.000000 
#    z 0.000000 0.000000 1.749070 
# 
# From -- ./inp_files/36431.got.cif
#   From: 2010.03.12/outbox.cif.g09.slc.cpg/sg63_19_cif.got.tgz:36431.got - 2010.04.10 19:34:48.
