data_PCOD8258801
_publ_section_title
;
Structure prediction by ZEFSAII (Michael W. Deem and Ramdas Pophale) SiO2 
 PCOD8258801
Probable space group: C M C M
;
_chemical_formula_sum "Si O2"
_cell_formula_units_Z 96
_cell_length_a 9.822814
_cell_length_b 21.881238
_cell_length_c 25.795747
_cell_angle_alpha 90.000000
_cell_angle_beta 90.000000
_cell_angle_gamma 90.000000
_cell_volume 5544.417419
_symmetry_space_group_name_H-M "C M C M"
_symmetry_group_IT_number 63
_symmetry_cell_setting 'orthorhombic'
loop_
_space_group_symop_operation_xyz
x,y,z
-x,-y,1/2+z
x,-y,-z
-x,y,1/2-z
-x,-y,-z
x,y,1/2-z
-x,y,z
x,-y,1/2+z
1/2+x,1/2+y,z
1/2-x,1/2-y,1/2+z
1/2+x,1/2-y,-z
1/2-x,1/2+y,1/2-z
1/2-x,1/2-y,-z
1/2+x,1/2+y,1/2-z
1/2-x,1/2+y,z
1/2+x,1/2-y,1/2+z
loop_
_atom_site_type_symbol
_atom_site_label
_atom_site_fract_x
_atom_site_fract_y
_atom_site_fract_z
Si Si1 0.847383 0.610282 0.610373
Si Si2 0.843769 0.517222 0.441826
Si Si3 0.153096 0.129330 0.430231
Si Si4 0.157920 0.828490 0.308965
Si Si5 0.290938 0.308770 0.032017
Si Si6 0.853906 0.274862 0.618306
O O1 0.821964 0.540418 0.595049
O O2 0.745210 0.624669 0.656884
O O3 0.830606 0.653323 0.559411
O O4 0.000000 0.620205 0.630652
O O5 0.803890 0.500000 0.500000
O O6 0.740859 0.568734 0.421755
O O7 0.000000 0.541010 0.439615
O O8 0.137404 0.145805 0.491233
O O9 0.229541 0.182406 0.398176
O O10 0.000000 0.120819 0.408015
O O11 0.208315 0.833097 0.250000
O O12 0.181593 0.758093 0.327365
O O13 0.000000 0.846766 0.314085
O O14 0.381752 0.281773 0.078357
O O15 0.250000 0.250000 0.000000
O O16 0.000000 0.310255 0.621744
#
# Coordination Sequence:
#
# PCOD8258801 Si02
#       6
#    16  16  16  16  16  16
#     4  10  20  34  53  75 101 135 178 217 251 300
#     4  10  20  35  51  70 101 144 180 211 250 299
#     4  11  21  31  47  73 104 137 173 212 250 295
#     4   9  19  36  57  80 105 131 162 209 269 318
#     4   9  18  29  44  70 101 134 165 204 248 297
#     4   9  18  32  50  71  99 134 168 203 250 311
#
# _framework density 17.314713000000001
#
# number of rings (size 3 to 8) (size 9 to 14) (size 15 to 20)
#    0.000    2.333    1.667    1.000    0.000   10.667 
#    0.000    0.000    0.000    1.000    0.000    2.333 
#    0.000    0.000    0.000    0.000    0.000    0.000 
#
# Total GULP energy -594679.732653 kJ/mol
# GULP energy per Si atom -12389.161097 kJ/mol
# Density = 1.727530 g / cm^3
# Si number density = 17.314713 Si / 1000 Ang^3
#
#
#
# Elastic Constant Matrix: (Units=GPa)
#
#
# Indices 1 2 3 4 5 6 
#
# 1 126.8777 58.7240 44.3562 0.0000 0.0000 0.0000
# 2 58.7240 90.5910 34.0827 0.0000 0.0000 0.0000
# 3 44.3562 34.0827 87.0292 0.0000 0.0000 0.0000
# 4 0.0000 0.0000 0.0000 15.8447 0.0000 0.0000
# 5 0.0000 0.0000 0.0000 0.0000 19.0871 0.0000
# 6 0.0000 0.0000 0.0000 0.0000 0.0000 28.4230
#
#
#
# Elastic Compliance Matrix: (Units=1/GPa)
#
#
# Indices 1 2 3 4 5 6 
#
# 1 0.012176 -0.006518 -0.003653 0.000000 0.000000 0.000000
# 2 -0.006518 0.016436 -0.003114 0.000000 0.000000 0.000000
# 3 -0.003653 -0.003114 0.014572 0.000000 0.000000 0.000000
# 4 0.000000 0.000000 0.000000 0.063113 0.000000 0.000000
# 5 0.000000 0.000000 0.000000 0.000000 0.052392 0.000000
# 6 0.000000 0.000000 0.000000 0.000000 0.000000 0.035183
#
#
# Mechanical properties :
#
#
# Convention : Reuss Voigt Hill
#
# Bulk Modulus (GPa) = 60.19740 64.31376 62.25558
# Shear Modulus (GPa) = 22.12601 23.82662 22.97632
#
# Velocity S-wave (km/s) = 3.57861 3.71359 3.64673
# Velocity P-wave (km/s) = 7.20537 7.45737 7.33245
#
# Compressibility (1/GPa) = 0.01661201
#
# Stress axis : x y z
#
# Youngs Moduli (GPa) = 82.13181 60.84305 68.62565
#
# Poissons Ratio (x) = 0.39659 0.25068
# Poissons Ratio (y) = 0.53536 0.21373
# Poissons Ratio (z) = 0.30001 0.18949
#
# Static dielectric constant tensor:
#      x y z
#    x 3.274910 0.000000 0.000000 
#    y 0.000000 3.258490 0.000000 
#    z 0.000000 0.000000 3.487630 
# 
# 
# High freq. dielectric constant tensor:
#      x y z
#    x 1.671030 0.000000 0.000000 
#    y 0.000000 1.659820 0.000000 
#    z 0.000000 0.000000 1.642160 
# 
# From -- ./inp_files/67245.got.cif
#   From: 2010.03.12/outbox.cif.g09.slc.cpg/sg63_34_cif.got.tgz:67245.got - 2010.04.10 19:34:48.
