data_PCOD8258188
_publ_section_title
;
Structure prediction by ZEFSAII (Michael W. Deem and Ramdas Pophale) SiO2 
 PCOD8258188
Probable space group: C M C M
;
_chemical_formula_sum "Si O2"
_cell_formula_units_Z 88
_cell_length_a 10.439526
_cell_length_b 15.276284
_cell_length_c 26.143478
_cell_angle_alpha 90.000000
_cell_angle_beta 90.000000
_cell_angle_gamma 90.000000
_cell_volume 4169.287729
_symmetry_space_group_name_H-M "C M C M"
_symmetry_group_IT_number 63
_symmetry_cell_setting 'orthorhombic'
loop_
_space_group_symop_operation_xyz
x,y,z
-x,-y,1/2+z
x,-y,-z
-x,y,1/2-z
-x,-y,-z
x,y,1/2-z
-x,y,z
x,-y,1/2+z
1/2+x,1/2+y,z
1/2-x,1/2-y,1/2+z
1/2+x,1/2-y,-z
1/2-x,1/2+y,1/2-z
1/2-x,1/2-y,-z
1/2+x,1/2+y,1/2-z
1/2-x,1/2+y,z
1/2+x,1/2-y,1/2+z
loop_
_atom_site_type_symbol
_atom_site_label
_atom_site_fract_x
_atom_site_fract_y
_atom_site_fract_z
Si Si1 0.229521 0.775514 0.884602
Si Si2 0.727858 0.132305 0.807382
Si Si3 0.245300 0.529781 0.117722
Si Si4 0.500000 0.019745 0.558759
Si Si5 0.000000 0.901554 0.303248
Si Si6 0.500000 0.534398 0.912325
Si Si7 0.000000 0.770870 0.434479
Si Si8 0.000000 0.722304 0.549815
O O1 0.168940 0.709311 0.842047
O O2 0.371564 0.749949 0.903021
O O3 0.128605 0.771391 0.931395
O O4 0.235432 0.872451 0.860434
O O5 0.665654 0.126847 0.750000
O O6 0.723178 0.037646 0.835299
O O7 0.876318 0.160785 0.803513
O O8 0.364167 0.512319 0.078028
O O9 0.121950 0.527765 0.082355
O O10 0.500000 0.122923 0.570126
O O11 0.500000 0.000000 0.500000
O O12 0.000000 0.965919 0.350483
O O13 0.000000 0.957546 0.250000
O O14 0.500000 0.624822 0.942845
O O15 0.000000 0.721812 0.488338
#
# Coordination Sequence:
#
# PCOD8258188 Si02
#       8
#    16  16  16   8   8   8   8   8
#     4  12  23  42  65  96 130 167 216 269 316 385
#     4  10  20  39  66  93 131 171 209 266 328 378
#     4  11  23  41  65  95 130 165 214 268 315 385
#     4  12  24  44  63  91 130 177 211 258 331 389
#     4   8  14  30  60  88 112 157 207 250 309 366
#     4  10  19  40  62  88 124 162 206 271 313 365
#     4  12  22  42  67  91 123 174 222 261 314 382
#     4  12  25  42  63  94 133 172 211 268 328 381
#
# _framework density 21.106724
#
# number of rings (size 3 to 8) (size 9 to 14) (size 15 to 20)
#    0.000    1.091    5.455    2.727    0.000    2.182 
#    0.000    3.182    0.000    4.364    0.000    0.000 
#    0.000    0.000    0.000    0.000    0.000    0.000 
#
# Total GULP energy -545092.130862 kJ/mol
# GULP energy per Si atom -12388.457520 kJ/mol
# Density = 2.105868 g / cm^3
# Si number density = 21.106724 Si / 1000 Ang^3
#
#
#
# Elastic Constant Matrix: (Units=GPa)
#
#
# Indices 1 2 3 4 5 6 
#
# 1 117.4636 9.9158 15.2351 0.0000 0.0000 0.0000
# 2 9.9158 150.6583 34.8201 0.0000 0.0000 0.0000
# 3 15.2351 34.8201 104.1231 0.0000 0.0000 0.0000
# 4 0.0000 0.0000 0.0000 23.6343 0.0000 0.0000
# 5 0.0000 0.0000 0.0000 0.0000 12.4260 0.0000
# 6 0.0000 0.0000 0.0000 0.0000 0.0000 11.3492
#
#
#
# Elastic Compliance Matrix: (Units=1/GPa)
#
#
# Indices 1 2 3 4 5 6 
#
# 1 0.008691 -0.000301 -0.001171 0.000000 0.000000 0.000000
# 2 -0.000301 0.007204 -0.002365 0.000000 0.000000 0.000000
# 3 -0.001171 -0.002365 0.010566 0.000000 0.000000 0.000000
# 4 0.000000 0.000000 0.000000 0.042311 0.000000 0.000000
# 5 0.000000 0.000000 0.000000 0.000000 0.080476 0.000000
# 6 0.000000 0.000000 0.000000 0.000000 0.000000 0.088112
#
#
# Mechanical properties :
#
#
# Convention : Reuss Voigt Hill
#
# Bulk Modulus (GPa) = 53.23008 54.68745 53.95877
# Shear Modulus (GPa) = 19.89675 30.30016 25.09846
#
# Velocity S-wave (km/s) = 3.07363 3.79300 3.45210
# Velocity P-wave (km/s) = 6.15390 6.71928 6.44279
#
# Compressibility (1/GPa) = 0.01878637
#
# Stress axis : x y z
#
# Youngs Moduli (GPa) = 115.06725 138.81238 94.64128
#
# Poissons Ratio (x) = 0.04184 0.11081
# Poissons Ratio (y) = 0.03468 0.22383
# Poissons Ratio (z) = 0.13472 0.32829
#
# Static dielectric constant tensor:
#      x y z
#    x 4.203970 0.000000 0.000000 
#    y 0.000000 3.787900 0.000000 
#    z 0.000000 0.000000 3.879440 
# 
# 
# High freq. dielectric constant tensor:
#      x y z
#    x 1.842370 0.000000 0.000000 
#    y 0.000000 1.814870 0.000000 
#    z 0.000000 0.000000 1.815240 
# 
# From -- ./inp_files/68254.got.cif
#   From: 2010.03.12/outbox.cif.g09.slc.cpg/sg63_35_cif.got.tgz:68254.got - 2010.04.10 19:34:48.
