data_PCOD8258004
_publ_section_title
;
Structure prediction by ZEFSAII (Michael W. Deem and Ramdas Pophale) SiO2 
 PCOD8258004
Probable space group: C M C M
;
_chemical_formula_sum "Si O2"
_cell_formula_units_Z 96
_cell_length_a 8.814205
_cell_length_b 25.036445
_cell_length_c 23.629453
_cell_angle_alpha 90.000000
_cell_angle_beta 90.000000
_cell_angle_gamma 90.000000
_cell_volume 5214.461646
_symmetry_space_group_name_H-M "C M C M"
_symmetry_group_IT_number 63
_symmetry_cell_setting 'orthorhombic'
loop_
_space_group_symop_operation_xyz
x,y,z
-x,-y,1/2+z
x,-y,-z
-x,y,1/2-z
-x,-y,-z
x,y,1/2-z
-x,y,z
x,-y,1/2+z
1/2+x,1/2+y,z
1/2-x,1/2-y,1/2+z
1/2+x,1/2-y,-z
1/2-x,1/2+y,1/2-z
1/2-x,1/2-y,-z
1/2+x,1/2+y,1/2-z
1/2-x,1/2+y,z
1/2+x,1/2-y,1/2+z
loop_
_atom_site_type_symbol
_atom_site_label
_atom_site_fract_x
_atom_site_fract_y
_atom_site_fract_z
Si Si1 0.179235 0.102156 0.636655
Si Si2 0.324334 0.311663 0.553519
Si Si3 0.320068 0.497216 0.062878
Si Si4 0.319977 0.939274 0.250000
Si Si5 0.321752 0.404568 0.636794
Si Si6 0.323538 0.810859 0.436645
Si Si7 0.178997 0.561457 0.250000
O O1 0.233794 0.057036 0.592570
O O2 0.259121 0.092201 0.696033
O O3 0.230742 0.158881 0.611939
O O4 0.000000 0.101289 0.645850
O O5 0.500000 0.318493 0.536702
O O6 0.281140 0.349152 0.606070
O O7 0.286485 0.251514 0.571891
O O8 0.228518 0.329376 0.498917
O O9 0.500000 0.500014 0.059207
O O10 0.258576 0.547182 0.098502
O O11 0.249516 0.500000 0.000000
O O12 0.500000 0.938008 0.250000
O O13 0.258760 0.000425 0.250000
O O14 0.500000 0.410497 0.647741
O O15 0.237347 0.405910 0.696226
O O16 0.500000 0.823546 0.429526
O O17 0.000000 0.561124 0.250000
#
# Coordination Sequence:
#
# PCOD8258004 Si02
#       7
#    16  16  16   8  16  16   8
#     4  11  21  35  57  82 109 144 190 229 269 329
#     4   9  19  36  59  84 110 147 190 228 270 327
#     4   9  17  29  50  80 108 133 170 223 271 315
#     4  11  23  39  56  77 112 149 182 226 281 334
#     4  10  19  35  58  80 106 142 189 230 265 319
#     4  10  20  35  56  84 117 149 181 225 282 330
#     4  11  23  37  54  79 114 147 178 222 283 338
#
# _framework density 18.410337999999999
#
# number of rings (size 3 to 8) (size 9 to 14) (size 15 to 20)
#    0.000    2.000    1.667    2.500    0.000    4.667 
#    0.000    0.833    0.000    4.500    0.000    0.000 
#    0.000    0.000    0.000    0.000    0.000    0.000 
#
# Total GULP energy -595389.791952 kJ/mol
# GULP energy per Si atom -12403.953999 kJ/mol
# Density = 1.836844 g / cm^3
# Si number density = 18.410338 Si / 1000 Ang^3
#
#
#
# Elastic Constant Matrix: (Units=GPa)
#
#
# Indices 1 2 3 4 5 6 
#
# 1 56.0804 35.0095 42.9568 0.0000 0.0000 0.0000
# 2 35.0095 100.5552 65.1737 0.0000 0.0000 0.0000
# 3 42.9568 65.1737 155.1064 0.0000 0.0000 0.0000
# 4 0.0000 0.0000 0.0000 28.5413 0.0000 0.0000
# 5 0.0000 0.0000 0.0000 0.0000 28.3338 0.0000
# 6 0.0000 0.0000 0.0000 0.0000 0.0000 25.6685
#
#
#
# Elastic Compliance Matrix: (Units=1/GPa)
#
#
# Indices 1 2 3 4 5 6 
#
# 1 0.024843 -0.005758 -0.004461 0.000000 0.000000 0.000000
# 2 -0.005758 0.015001 -0.004709 0.000000 0.000000 0.000000
# 3 -0.004461 -0.004709 0.009661 0.000000 0.000000 0.000000
# 4 0.000000 0.000000 0.000000 0.035037 0.000000 0.000000
# 5 0.000000 0.000000 0.000000 0.000000 0.035294 0.000000
# 6 0.000000 0.000000 0.000000 0.000000 0.000000 0.038958
#
#
# Mechanical properties :
#
#
# Convention : Reuss Voigt Hill
#
# Bulk Modulus (GPa) = 50.88967 66.44689 58.66828
# Shear Modulus (GPa) = 25.61477 27.74886 26.68182
#
# Velocity S-wave (km/s) = 3.73409 3.88654 3.81108
# Velocity P-wave (km/s) = 6.80391 7.50405 7.16254
#
# Compressibility (1/GPa) = 0.01965035
#
# Stress axis : x y z
#
# Youngs Moduli (GPa) = 40.25256 66.66026 103.50759
#
# Poissons Ratio (x) = 0.38384 0.46173
# Poissons Ratio (y) = 0.23178 0.48738
# Poissons Ratio (z) = 0.17956 0.31388
#
# Static dielectric constant tensor:
#      x y z
#    x 3.217190 0.000000 0.000000 
#    y 0.000000 3.452310 0.000000 
#    z 0.000000 0.000000 3.437670 
# 
# 
# High freq. dielectric constant tensor:
#      x y z
#    x 1.700900 0.000000 0.000000 
#    y 0.000000 1.714790 0.000000 
#    z 0.000000 0.000000 1.717260 
# 
# From -- ./inp_files/60024.got.cif
#   From: 2010.03.12/outbox.cif.g09.slc.cpg/sg63_31_cif.got.tgz:60024.got - 2010.04.10 19:34:48.
