data_PCOD8258727
_publ_section_title
;
Structure prediction by ZEFSAII (Michael W. Deem and Ramdas Pophale) SiO2 
 PCOD8258727
Probable space group: C M C M
;
_chemical_formula_sum "Si O2"
_cell_formula_units_Z 104
_cell_length_a 26.355490
_cell_length_b 23.880116
_cell_length_c 9.073561
_cell_angle_alpha 90.000000
_cell_angle_beta 90.000000
_cell_angle_gamma 90.000000
_cell_volume 5710.646671
_symmetry_space_group_name_H-M "C M C M"
_symmetry_group_IT_number 63
_symmetry_cell_setting 'orthorhombic'
loop_
_space_group_symop_operation_xyz
x,y,z
-x,-y,1/2+z
x,-y,-z
-x,y,1/2-z
-x,-y,-z
x,y,1/2-z
-x,y,z
x,-y,1/2+z
1/2+x,1/2+y,z
1/2-x,1/2-y,1/2+z
1/2+x,1/2-y,-z
1/2-x,1/2+y,1/2-z
1/2-x,1/2-y,-z
1/2+x,1/2+y,1/2-z
1/2-x,1/2+y,z
1/2+x,1/2-y,1/2+z
loop_
_atom_site_type_symbol
_atom_site_label
_atom_site_fract_x
_atom_site_fract_y
_atom_site_fract_z
Si Si1 0.683574 0.655472 0.425095
Si Si2 0.890810 0.940892 0.577548
Si Si3 0.442535 0.155878 0.077125
Si Si4 0.000000 0.057765 0.080149
Si Si5 0.868453 0.268491 0.417163
Si Si6 0.134485 0.558596 0.075246
Si Si7 0.711587 0.133538 0.919207
O O1 0.692920 0.657857 0.250000
O O2 0.651562 0.601907 0.476669
O O3 0.652921 0.710077 0.479460
O O4 0.736295 0.652050 0.508180
O O5 0.885493 0.951787 0.750000
O O6 0.946350 0.912509 0.539954
O O7 0.882208 0.000000 0.500000
O O8 0.441562 0.164890 0.250000
O O9 0.500000 0.149163 0.018348
O O10 0.411440 0.100265 0.033066
O O11 0.417419 0.211234 0.007602
O O12 0.000000 0.043012 0.250000
O O13 0.000000 0.000000 0.000000
O O14 0.886616 0.260864 0.250000
O O15 0.823933 0.313033 0.431228
O O16 0.140532 0.551294 0.250000
O O17 0.120974 0.500000 0.000000
O O18 0.187175 0.581855 0.008741
O O19 0.719732 0.115060 0.750000
#
# Coordination Sequence:
#
# PCOD8258727 Si02
#       7
#    16  16  16   8  16  16  16
#     4  10  20  34  51  76 105 133 171 217 263 311
#     4   9  18  32  50  71  97 127 160 201 246 297
#     4   9  19  36  56  78 108 143 176 215 267 319
#     4   8  14  28  48  66  86 118 154 186 229 280
#     4   9  19  35  53  76 103 134 176 218 259 311
#     4  10  20  35  55  79 108 142 178 218 263 314
#     4  10  20  34  53  75 102 137 175 215 259 311
#
# _framework density 18.211597000000001
#
# number of rings (size 3 to 8) (size 9 to 14) (size 15 to 20)
#    0.000    2.615    0.000    1.385    0.000    3.692 
#    1.385    1.538    0.000    0.000    0.000    0.000 
#    0.000    0.000    0.000    0.000    0.000    0.000 
#
# Total GULP energy -644598.276128 kJ/mol
# GULP energy per Si atom -12396.120695 kJ/mol
# Density = 1.817015 g / cm^3
# Si number density = 18.211597 Si / 1000 Ang^3
#
#
#
# Elastic Constant Matrix: (Units=GPa)
#
#
# Indices 1 2 3 4 5 6 
#
# 1 102.0023 62.1011 49.6473 0.0000 0.0000 0.0000
# 2 62.1011 97.0093 41.2415 0.0000 0.0000 0.0000
# 3 49.6473 41.2415 61.5906 0.0000 0.0000 0.0000
# 4 0.0000 0.0000 0.0000 27.0817 0.0000 0.0000
# 5 0.0000 0.0000 0.0000 0.0000 27.9205 0.0000
# 6 0.0000 0.0000 0.0000 0.0000 0.0000 14.0392
#
#
#
# Elastic Compliance Matrix: (Units=1/GPa)
#
#
# Indices 1 2 3 4 5 6 
#
# 1 0.020007 -0.008320 -0.010556 0.000000 0.000000 0.000000
# 2 -0.008320 0.017870 -0.005260 0.000000 0.000000 0.000000
# 3 -0.010556 -0.005260 0.028267 0.000000 0.000000 0.000000
# 4 0.000000 0.000000 0.000000 0.036925 0.000000 0.000000
# 5 0.000000 0.000000 0.000000 0.000000 0.035816 0.000000
# 6 0.000000 0.000000 0.000000 0.000000 0.000000 0.071229
#
#
# Mechanical properties :
#
#
# Convention : Reuss Voigt Hill
#
# Bulk Modulus (GPa) = 55.94968 62.95356 59.45162
# Shear Modulus (GPa) = 18.91470 20.98242 19.94856
#
# Velocity S-wave (km/s) = 3.22624 3.39801 3.31324
# Velocity P-wave (km/s) = 6.68333 7.07377 6.88132
#
# Compressibility (1/GPa) = 0.01787320
#
# Stress axis : x y z
#
# Youngs Moduli (GPa) = 49.98241 55.95885 35.37641
#
# Poissons Ratio (x) = 0.46557 0.37345
# Poissons Ratio (y) = 0.41584 0.18607
# Poissons Ratio (z) = 0.52763 0.29432
#
# Static dielectric constant tensor:
#      x y z
#    x 3.806950 0.000000 0.000000 
#    y 0.000000 3.313500 0.000000 
#    z 0.000000 0.000000 3.366480 
# 
# 
# High freq. dielectric constant tensor:
#      x y z
#    x 1.714360 0.000000 0.000000 
#    y 0.000000 1.696130 0.000000 
#    z 0.000000 0.000000 1.704070 
# 
# From -- ./inp_files/10815.got.cif
#   From: 2010.03.12/outbox.cif.g09.slc.cpg/sg63_6_cif.got.tgz:10815.got - 2010.04.10 19:34:48.
