data_PCOD8258110
_publ_section_title
;
Structure prediction by ZEFSAII (Michael W. Deem and Ramdas Pophale) SiO2 
 PCOD8258110
Probable space group: C M C M
;
_chemical_formula_sum "Si O2"
_cell_formula_units_Z 96
_cell_length_a 8.720431
_cell_length_b 23.518730
_cell_length_c 25.326083
_cell_angle_alpha 90.000000
_cell_angle_beta 90.000000
_cell_angle_gamma 90.000000
_cell_volume 5194.214046
_symmetry_space_group_name_H-M "C M C M"
_symmetry_group_IT_number 63
_symmetry_cell_setting 'orthorhombic'
loop_
_space_group_symop_operation_xyz
x,y,z
-x,-y,1/2+z
x,-y,-z
-x,y,1/2-z
-x,-y,-z
x,y,1/2-z
-x,y,z
x,-y,1/2+z
1/2+x,1/2+y,z
1/2-x,1/2-y,1/2+z
1/2+x,1/2-y,-z
1/2-x,1/2+y,1/2-z
1/2-x,1/2-y,-z
1/2+x,1/2+y,1/2-z
1/2-x,1/2+y,z
1/2+x,1/2-y,1/2+z
loop_
_atom_site_type_symbol
_atom_site_label
_atom_site_fract_x
_atom_site_fract_y
_atom_site_fract_z
Si Si1 0.319293 0.122429 0.153730
Si Si2 0.177615 0.816370 0.942240
Si Si3 0.180896 0.501887 0.190943
Si Si4 0.678524 0.688670 0.750000
Si Si5 0.820819 0.620378 0.843464
Si Si6 0.322590 0.186679 0.948244
Si Si7 0.679870 0.689715 0.250000
O O1 0.500000 0.125488 0.160758
O O2 0.274520 0.143504 0.095902
O O3 0.257406 0.057964 0.161138
O O4 0.246000 0.162288 0.197480
O O5 0.218848 0.750670 0.930166
O O6 0.000000 0.828714 0.932550
O O7 0.220572 0.831926 0.002178
O O8 0.251942 0.498740 0.250000
O O9 0.226764 0.445940 0.157875
O O10 0.000000 0.505904 0.195942
O O11 0.500000 0.704892 0.750000
O O12 0.717143 0.652901 0.801751
O O13 0.781391 0.744331 0.750000
O O14 0.783047 0.643658 0.901358
O O15 0.000000 0.629019 0.829140
O O16 0.500000 0.183555 0.964958
O O17 0.500000 0.681395 0.250000
#
# Coordination Sequence:
#
# PCOD8258110 Si02
#       7
#    16  16  16   8  16  16   8
#     4  11  21  36  57  82 112 145 186 232 276 329
#     4  10  20  35  55  81 113 147 183 227 282 340
#     4   9  17  33  57  82 109 146 188 227 276 330
#     4  12  24  35  52  83 117 146 180 226 283 336
#     4  10  19  36  60  82 109 146 189 233 276 329
#     4   9  19  35  57  82 106 140 186 231 279 333
#     4  12  24  37  54  79 111 146 184 226 279 336
#
# _framework density 18.482102000000001
#
# number of rings (size 3 to 8) (size 9 to 14) (size 15 to 20)
#    0.000    1.833    1.667    3.500    0.000    2.667 
#    0.000    3.333    0.000    5.000    0.000    0.000 
#    0.000    0.000    0.000    0.000    0.000    0.000 
#
# Total GULP energy -595333.206583 kJ/mol
# GULP energy per Si atom -12402.775137 kJ/mol
# Density = 1.844004 g / cm^3
# Si number density = 18.482102 Si / 1000 Ang^3
#
#
#
# Elastic Constant Matrix: (Units=GPa)
#
#
# Indices 1 2 3 4 5 6 
#
# 1 58.1131 26.7192 32.4128 0.0000 0.0000 0.0000
# 2 26.7192 138.8041 73.6032 0.0000 0.0000 0.0000
# 3 32.4128 73.6032 110.5862 0.0000 0.0000 0.0000
# 4 0.0000 0.0000 0.0000 119.1444 0.0000 0.0000
# 5 0.0000 0.0000 0.0000 0.0000 59.7118 0.0000
# 6 0.0000 0.0000 0.0000 0.0000 0.0000 22.4159
#
#
#
# Elastic Compliance Matrix: (Units=1/GPa)
#
#
# Indices 1 2 3 4 5 6 
#
# 1 0.020696 -0.001186 -0.005277 0.000000 0.000000 0.000000
# 2 -0.001186 0.011202 -0.007108 0.000000 0.000000 0.000000
# 3 -0.005277 -0.007108 0.015320 0.000000 0.000000 0.000000
# 4 0.000000 0.000000 0.000000 0.008393 0.000000 0.000000
# 5 0.000000 0.000000 0.000000 0.000000 0.016747 0.000000
# 6 0.000000 0.000000 0.000000 0.000000 0.000000 0.044611
#
#
# Mechanical properties :
#
#
# Convention : Reuss Voigt Hill
#
# Bulk Modulus (GPa) = 49.80842 63.66376 56.73609
# Shear Modulus (GPa) = 33.15576 51.90566 42.53071
#
# Velocity S-wave (km/s) = 4.24009 5.30521 4.80227
# Velocity P-wave (km/s) = 7.13997 8.48811 7.84306
#
# Compressibility (1/GPa) = 0.02007693
#
# Stress axis : x y z
#
# Youngs Moduli (GPa) = 48.31811 89.27107 65.27292
#
# Poissons Ratio (x) = 0.10586 0.34443
# Poissons Ratio (y) = 0.05730 0.46397
# Poissons Ratio (z) = 0.25496 0.63455
#
# Static dielectric constant tensor:
#      x y z
#    x 3.263930 0.000000 0.000000 
#    y 0.000000 3.620480 0.000000 
#    z 0.000000 0.000000 3.401920 
# 
# 
# High freq. dielectric constant tensor:
#      x y z
#    x 1.704960 0.000000 0.000000 
#    y 0.000000 1.720350 0.000000 
#    z 0.000000 0.000000 1.717300 
# 
# From -- ./inp_files/60044.got.cif
#   From: 2010.03.12/outbox.cif.g09.slc.cpg/sg63_31_cif.got.tgz:60044.got - 2010.04.10 19:34:48.
