data_PCOD8258161
_publ_section_title
;
Structure prediction by ZEFSAII (Michael W. Deem and Ramdas Pophale) SiO2 
 PCOD8258161
Probable space group: C M C M
;
_chemical_formula_sum "Si O2"
_cell_formula_units_Z 112
_cell_length_a 15.781307
_cell_length_b 23.887306
_cell_length_c 14.055192
_cell_angle_alpha 90.000000
_cell_angle_beta 90.000000
_cell_angle_gamma 90.000000
_cell_volume 5298.426620
_symmetry_space_group_name_H-M "C M C M"
_symmetry_group_IT_number 63
_symmetry_cell_setting 'orthorhombic'
loop_
_space_group_symop_operation_xyz
x,y,z
-x,-y,1/2+z
x,-y,-z
-x,y,1/2-z
-x,-y,-z
x,y,1/2-z
-x,y,z
x,-y,1/2+z
1/2+x,1/2+y,z
1/2-x,1/2-y,1/2+z
1/2+x,1/2-y,-z
1/2-x,1/2+y,1/2-z
1/2-x,1/2-y,-z
1/2+x,1/2+y,1/2-z
1/2-x,1/2+y,z
1/2+x,1/2-y,1/2+z
loop_
_atom_site_type_symbol
_atom_site_label
_atom_site_fract_x
_atom_site_fract_y
_atom_site_fract_z
Si Si1 0.905591 0.736081 0.354345
Si Si2 0.593030 0.939704 0.461026
Si Si3 0.404338 0.490564 0.137614
Si Si4 0.165651 0.107294 0.357711
Si Si5 0.855410 0.383413 0.645296
Si Si6 0.242166 0.905256 0.361528
Si Si7 0.692029 0.304794 0.012418
O O1 0.893737 0.763384 0.250000
O O2 0.841742 0.683610 0.365326
O O3 0.890605 0.784376 0.430871
O O4 0.000000 0.711941 0.366977
O O5 0.500000 0.934429 0.412518
O O6 0.589983 0.901419 0.555425
O O7 0.664332 0.929075 0.381887
O O8 0.611983 0.000000 0.500000
O O9 0.397629 0.493009 0.250000
O O10 0.500000 0.473449 0.104827
O O11 0.385163 0.553674 0.099401
O O12 0.333831 0.446061 0.101397
O O13 0.135727 0.120987 0.250000
O O14 0.263503 0.087995 0.359533
O O15 0.155741 0.164350 0.418562
O O16 0.896857 0.396638 0.750000
O O17 0.232787 0.892887 0.250000
O O18 0.241741 0.848624 0.422036
O O19 0.750000 0.250000 0.000000
#
# Coordination Sequence:
#
# PCOD8258161 Si02
#       7
#    16  16  16  16  16  16  16
#     4  10  21  37  58  85 117 153 205 268 316 364
#     4  11  23  38  60  90 123 157 201 256 308 378
#     4   9  20  40  65  95 129 165 210 264 322 386
#     4  10  20  36  63  91 120 163 210 261 323 391
#     4  10  19  37  63  87 115 156 204 257 317 371
#     4  11  24  41  64  91 128 173 212 263 330 391
#     4  12  23  38  60  89 124 169 214 263 316 387
#
# _framework density 21.138351
#
# number of rings (size 3 to 8) (size 9 to 14) (size 15 to 20)
#    0.000    1.571    2.857    1.714    0.000    4.571 
#    0.000    3.571    0.000    0.000    0.000    2.000 
#    0.000    0.000    0.000    0.000    0.000    0.000 
#
# Total GULP energy -693930.343023 kJ/mol
# GULP energy per Si atom -12391.613268 kJ/mol
# Density = 2.109024 g / cm^3
# Si number density = 21.138351 Si / 1000 Ang^3
#
#
#
# Elastic Constant Matrix: (Units=GPa)
#
#
# Indices 1 2 3 4 5 6 
#
# 1 110.6819 49.0152 22.0772 0.0000 0.0000 0.0000
# 2 49.0152 117.9635 46.6523 0.0000 0.0000 0.0000
# 3 22.0772 46.6523 93.4652 0.0000 0.0000 0.0000
# 4 0.0000 0.0000 0.0000 22.3996 0.0000 0.0000
# 5 0.0000 0.0000 0.0000 0.0000 27.7172 0.0000
# 6 0.0000 0.0000 0.0000 0.0000 0.0000 30.7425
#
#
#
# Elastic Compliance Matrix: (Units=1/GPa)
#
#
# Indices 1 2 3 4 5 6 
#
# 1 0.011084 -0.004448 -0.000398 0.000000 0.000000 0.000000
# 2 -0.004448 0.012347 -0.005112 0.000000 0.000000 0.000000
# 3 -0.000398 -0.005112 0.013345 0.000000 0.000000 0.000000
# 4 0.000000 0.000000 0.000000 0.044644 0.000000 0.000000
# 5 0.000000 0.000000 0.000000 0.000000 0.036079 0.000000
# 6 0.000000 0.000000 0.000000 0.000000 0.000000 0.032528
#
#
# Mechanical properties :
#
#
# Convention : Reuss Voigt Hill
#
# Bulk Modulus (GPa) = 59.31371 61.95554 60.63463
# Shear Modulus (GPa) = 28.47969 29.79626 29.13798
#
# Velocity S-wave (km/s) = 3.67454 3.75851 3.71676
# Velocity P-wave (km/s) = 6.79144 6.94323 6.86775
#
# Compressibility (1/GPa) = 0.01685951
#
# Stress axis : x y z
#
# Youngs Moduli (GPa) = 90.21884 80.98914 74.93485
#
# Poissons Ratio (x) = 0.36026 0.02981
# Poissons Ratio (y) = 0.40132 0.38309
# Poissons Ratio (z) = 0.03589 0.41404
#
# Static dielectric constant tensor:
#      x y z
#    x 3.772560 0.000000 0.000000 
#    y 0.000000 3.672520 0.000000 
#    z 0.000000 0.000000 5.381880 
# 
# 
# High freq. dielectric constant tensor:
#      x y z
#    x 1.821170 0.000000 0.000000 
#    y 0.000000 1.822800 0.000000 
#    z 0.000000 0.000000 1.832330 
# 
# From -- ./inp_files/32317.got.cif
#   From: 2010.03.12/outbox.cif.g09.slc.cpg/sg63_17_cif.got.tgz:32317.got - 2010.04.10 19:34:48.
