data_PCOD8258240
_publ_section_title
;
Structure prediction by ZEFSAII (Michael W. Deem and Ramdas Pophale) SiO2 
 PCOD8258240
Probable space group: C M C M
;
_chemical_formula_sum "Si O2"
_cell_formula_units_Z 96
_cell_length_a 23.437845
_cell_length_b 14.777710
_cell_length_c 13.432534
_cell_angle_alpha 90.000000
_cell_angle_beta 90.000000
_cell_angle_gamma 90.000000
_cell_volume 4652.461265
_symmetry_space_group_name_H-M "C M C M"
_symmetry_group_IT_number 63
_symmetry_cell_setting 'orthorhombic'
loop_
_space_group_symop_operation_xyz
x,y,z
-x,-y,1/2+z
x,-y,-z
-x,y,1/2-z
-x,-y,-z
x,y,1/2-z
-x,y,z
x,-y,1/2+z
1/2+x,1/2+y,z
1/2-x,1/2-y,1/2+z
1/2+x,1/2-y,-z
1/2-x,1/2+y,1/2-z
1/2-x,1/2-y,-z
1/2+x,1/2+y,1/2-z
1/2-x,1/2+y,z
1/2+x,1/2-y,1/2+z
loop_
_atom_site_type_symbol
_atom_site_label
_atom_site_fract_x
_atom_site_fract_y
_atom_site_fract_z
Si Si1 0.385452 0.569263 0.137655
Si Si2 0.247351 0.678167 0.863118
Si Si3 0.258827 0.472759 0.860918
Si Si4 0.563764 0.192120 0.135762
Si Si5 0.320018 0.832283 0.547983
Si Si6 0.064416 0.888421 0.061564
O O1 0.406391 0.594606 0.250000
O O2 0.317594 0.582270 0.129855
O O3 0.398556 0.464389 0.115532
O O4 0.414547 0.630954 0.052406
O O5 0.226261 0.687811 0.750000
O O6 0.270509 0.577606 0.887773
O O7 0.297801 0.750439 0.882001
O O8 0.192476 0.696775 0.933774
O O9 0.234026 0.465587 0.750000
O O10 0.212654 0.426191 0.931813
O O11 0.573546 0.163687 0.250000
O O12 0.500000 0.161391 0.100693
O O13 0.612885 0.148428 0.066665
O O14 0.569419 0.299625 0.127455
O O15 0.000000 0.923774 0.056354
#
# Coordination Sequence:
#
# PCOD8258240 Si02
#       6
#    16  16  16  16  16  16
#     4  10  20  31  49  74 110 149 183 224 273 336
#     4  10  22  36  56  86 119 154 186 227 286 345
#     4  10  21  36  55  84 116 147 186 229 281 345
#     4  10  21  38  58  79 105 141 190 243 289 334
#     4  11  22  36  60  86 116 150 189 238 282 345
#     4  10  21  33  50  75 106 146 192 234 273 330
#
# _framework density 20.634239999999998
#
# number of rings (size 3 to 8) (size 9 to 14) (size 15 to 20)
#    0.000    1.833    0.000    4.500    9.333    3.333 
#    0.000    0.000    0.000    3.500    0.000    2.333 
#    0.000    0.000    0.000    0.000    0.000    0.000 
#
# Total GULP energy -595028.806265 kJ/mol
# GULP energy per Si atom -12396.433464 kJ/mol
# Density = 2.058728 g / cm^3
# Si number density = 20.634240 Si / 1000 Ang^3
#
#
#
# Elastic Constant Matrix: (Units=GPa)
#
#
# Indices 1 2 3 4 5 6 
#
# 1 128.4611 8.3787 47.0134 0.0000 0.0000 0.0000
# 2 8.3787 53.7058 7.8165 0.0000 0.0000 0.0000
# 3 47.0134 7.8165 111.8075 0.0000 0.0000 0.0000
# 4 0.0000 0.0000 0.0000 18.8674 0.0000 0.0000
# 5 0.0000 0.0000 0.0000 0.0000 28.1995 0.0000
# 6 0.0000 0.0000 0.0000 0.0000 0.0000 23.9306
#
#
#
# Elastic Compliance Matrix: (Units=1/GPa)
#
#
# Indices 1 2 3 4 5 6 
#
# 1 0.009242 -0.000885 -0.003824 0.000000 0.000000 0.000000
# 2 -0.000885 0.018896 -0.000949 0.000000 0.000000 0.000000
# 3 -0.003824 -0.000949 0.010618 0.000000 0.000000 0.000000
# 4 0.000000 0.000000 0.000000 0.053001 0.000000 0.000000
# 5 0.000000 0.000000 0.000000 0.000000 0.035462 0.000000
# 6 0.000000 0.000000 0.000000 0.000000 0.000000 0.041787
#
#
# Mechanical properties :
#
#
# Convention : Reuss Voigt Hill
#
# Bulk Modulus (GPa) = 36.44338 46.71018 41.57678
# Shear Modulus (GPa) = 26.38945 29.58389 27.98667
#
# Velocity S-wave (km/s) = 3.58007 3.79057 3.68682
# Velocity P-wave (km/s) = 5.89823 6.46871 6.19005
#
# Compressibility (1/GPa) = 0.02743983
#
# Stress axis : x y z
#
# Youngs Moduli (GPa) = 108.20487 52.92078 94.17735
#
# Poissons Ratio (x) = 0.04685 0.36015
# Poissons Ratio (y) = 0.09579 0.08936
# Poissons Ratio (z) = 0.41379 0.05021
#
# Static dielectric constant tensor:
#      x y z
#    x 3.760250 0.000000 0.000000 
#    y 0.000000 3.425820 0.000000 
#    z 0.000000 0.000000 3.977380 
# 
# 
# High freq. dielectric constant tensor:
#      x y z
#    x 1.792820 0.000000 0.000000 
#    y 0.000000 1.773870 0.000000 
#    z 0.000000 0.000000 1.818680 
# 
# From -- ./inp_files/35343.got.cif
#   From: 2010.03.12/outbox.cif.g09.slc.cpg/sg63_18_cif.got.tgz:35343.got - 2010.04.10 19:34:48.
