data_PCOD8258977
_publ_section_title
;
Structure prediction by ZEFSAII (Michael W. Deem and Ramdas Pophale) SiO2 
 PCOD8258977
Probable space group: C M C M
;
_chemical_formula_sum "Si O2"
_cell_formula_units_Z 80
_cell_length_a 9.161411
_cell_length_b 15.308126
_cell_length_c 29.751885
_cell_angle_alpha 90.000000
_cell_angle_beta 90.000000
_cell_angle_gamma 90.000000
_cell_volume 4172.524369
_symmetry_space_group_name_H-M "C M C M"
_symmetry_group_IT_number 63
_symmetry_cell_setting 'orthorhombic'
loop_
_space_group_symop_operation_xyz
x,y,z
-x,-y,1/2+z
x,-y,-z
-x,y,1/2-z
-x,-y,-z
x,y,1/2-z
-x,y,z
x,-y,1/2+z
1/2+x,1/2+y,z
1/2-x,1/2-y,1/2+z
1/2+x,1/2-y,-z
1/2-x,1/2+y,1/2-z
1/2-x,1/2-y,-z
1/2+x,1/2+y,1/2-z
1/2-x,1/2+y,z
1/2+x,1/2-y,1/2+z
loop_
_atom_site_type_symbol
_atom_site_label
_atom_site_fract_x
_atom_site_fract_y
_atom_site_fract_z
Si Si1 0.826958 0.619301 0.699702
Si Si2 0.325379 0.279278 0.859879
Si Si3 0.342729 0.270130 0.543085
Si Si4 0.338513 0.525997 0.451927
Si Si5 0.326404 0.962883 0.636040
O O1 0.761721 0.615428 0.750000
O O2 0.771183 0.708524 0.676400
O O3 0.776388 0.532913 0.673302
O O4 0.000000 0.621920 0.700748
O O5 0.500000 0.294950 0.858706
O O6 0.278914 0.238501 0.908783
O O7 0.244941 0.370661 0.850205
O O8 0.500000 0.226150 0.534576
O O9 0.250000 0.250000 0.500000
O O10 0.359888 0.371948 0.549578
O O11 0.268255 0.500000 0.500000
O O12 0.500000 0.481748 0.446570
O O13 0.231032 0.498996 0.411608
O O14 0.500000 0.951993 0.633150
#
# Coordination Sequence:
#
# PCOD8258977 Si02
#       5
#    16  16  16  16  16
#     4   9  19  36  58  82 108 143 183 223 275 329
#     4   9  19  37  56  75 107 147 183 217 263 329
#     4   9  18  30  47  72 101 134 172 213 257 308
#     4   9  19  35  52  73 105 145 180 213 264 325
#     4  10  20  34  55  83 111 139 178 230 276 316
#
# _framework density 19.173045999999999
#
# number of rings (size 3 to 8) (size 9 to 14) (size 15 to 20)
#    0.000    2.800    0.000    1.800    2.800    4.400 
#    0.000    2.000    0.000    4.200    0.000    0.000 
#    0.000    0.000    0.000    0.000    0.000    0.000 
#
# Total GULP energy -495661.009006 kJ/mol
# GULP energy per Si atom -12391.525225 kJ/mol
# Density = 1.912941 g / cm^3
# Si number density = 19.173046 Si / 1000 Ang^3
#
#
#
# Elastic Constant Matrix: (Units=GPa)
#
#
# Indices 1 2 3 4 5 6 
#
# 1 59.4993 39.0640 52.1329 0.0000 0.0000 0.0000
# 2 39.0640 93.0143 82.1370 0.0000 0.0000 0.0000
# 3 52.1329 82.1370 198.4478 0.0000 0.0000 0.0000
# 4 0.0000 0.0000 0.0000 36.3098 0.0000 0.0000
# 5 0.0000 0.0000 0.0000 0.0000 23.5416 0.0000
# 6 0.0000 0.0000 0.0000 0.0000 0.0000 23.9917
#
#
#
# Elastic Compliance Matrix: (Units=1/GPa)
#
#
# Indices 1 2 3 4 5 6 
#
# 1 0.024617 -0.007294 -0.003448 0.000000 0.000000 0.000000
# 2 -0.007294 0.019105 -0.005991 0.000000 0.000000 0.000000
# 3 -0.003448 -0.005991 0.008425 0.000000 0.000000 0.000000
# 4 0.000000 0.000000 0.000000 0.027541 0.000000 0.000000
# 5 0.000000 0.000000 0.000000 0.000000 0.042478 0.000000
# 6 0.000000 0.000000 0.000000 0.000000 0.000000 0.041681
#
#
# Mechanical properties :
#
#
# Convention : Reuss Voigt Hill
#
# Bulk Modulus (GPa) = 53.53274 77.51434 65.52354
# Shear Modulus (GPa) = 24.56529 28.61046 26.58788
#
# Velocity S-wave (km/s) = 3.58333 3.86712 3.72792
# Velocity P-wave (km/s) = 6.71578 7.77535 7.26491
#
# Compressibility (1/GPa) = 0.01868016
#
# Stress axis : x y z
#
# Youngs Moduli (GPa) = 40.62290 52.34242 118.69764
#
# Poissons Ratio (x) = 0.38177 0.40928
# Poissons Ratio (y) = 0.29629 0.71117
# Poissons Ratio (z) = 0.14007 0.31361
#
# Static dielectric constant tensor:
#      x y z
#    x 3.036340 0.000000 0.000000 
#    y 0.000000 3.375460 0.000000 
#    z 0.000000 0.000000 3.471730 
# 
# 
# High freq. dielectric constant tensor:
#      x y z
#    x 1.719070 0.000000 0.000000 
#    y 0.000000 1.739360 0.000000 
#    z 0.000000 0.000000 1.755110 
# 
# From -- ./inp_files/66616.got.cif
#   From: 2010.03.12/outbox.cif.g09.slc.cpg/sg63_34_cif.got.tgz:66616.got - 2010.04.10 19:34:48.
