data_PCOD8258033
_publ_section_title
;
Structure prediction by ZEFSAII (Michael W. Deem and Ramdas Pophale) SiO2 
 PCOD8258033
Probable space group: C M C M
;
_chemical_formula_sum "Si O2"
_cell_formula_units_Z 64
_cell_length_a 8.385623
_cell_length_b 18.232655
_cell_length_c 20.845913
_cell_angle_alpha 90.000000
_cell_angle_beta 90.000000
_cell_angle_gamma 90.000000
_cell_volume 3187.176898
_symmetry_space_group_name_H-M "C M C M"
_symmetry_group_IT_number 63
_symmetry_cell_setting 'orthorhombic'
loop_
_space_group_symop_operation_xyz
x,y,z
-x,-y,1/2+z
x,-y,-z
-x,y,1/2-z
-x,-y,-z
x,y,1/2-z
-x,y,z
x,-y,1/2+z
1/2+x,1/2+y,z
1/2-x,1/2-y,1/2+z
1/2+x,1/2-y,-z
1/2-x,1/2+y,1/2-z
1/2-x,1/2-y,-z
1/2+x,1/2+y,1/2-z
1/2-x,1/2+y,z
1/2+x,1/2-y,1/2+z
loop_
_atom_site_type_symbol
_atom_site_label
_atom_site_fract_x
_atom_site_fract_y
_atom_site_fract_z
Si Si1 0.816220 0.083552 0.993372
Si Si2 0.683736 0.825634 0.380285
Si Si3 0.188521 0.162026 0.750000
Si Si4 0.685464 0.165284 0.111652
Si Si5 0.187174 0.326665 0.750000
O O1 0.706964 0.120756 0.940050
O O2 0.000000 0.088936 0.972578
O O3 0.794621 0.123929 0.061103
O O4 0.760138 0.000000 0.000000
O O5 0.500000 0.803131 0.375574
O O6 0.739461 0.870448 0.316223
O O7 0.788692 0.752755 0.391295
O O8 0.256621 0.244901 0.750000
O O9 0.000000 0.151575 0.750000
O O10 0.500000 0.149509 0.097399
O O11 0.736828 0.134431 0.182964
O O12 0.000000 0.315940 0.750000
#
# Coordination Sequence:
#
# PCOD8258033 Si02
#       5
#    16  16   8  16   8
#     4  11  24  40  55  75 108 149 190 232 279 328
#     4  11  21  35  58  86 113 143 183 226 272 328
#     4   9  17  33  56  83 114 143 177 223 273 321
#     4  10  19  35  59  84 111 143 181 225 275 329
#     4   7  14  29  52  81 108 135 167 213 269 319
#
# _framework density 20.080468
#
# number of rings (size 3 to 8) (size 9 to 14) (size 15 to 20)
#    0.000    2.000    0.000    6.375    0.000    2.000 
#    0.000    3.125    0.000    6.000    0.000    0.000 
#    0.000    0.000    0.000    0.000    0.000    0.000 
#
# Total GULP energy -396666.933316 kJ/mol
# GULP energy per Si atom -12395.841666 kJ/mol
# Density = 2.003476 g / cm^3
# Si number density = 20.080468 Si / 1000 Ang^3
#
#
#
# Elastic Constant Matrix: (Units=GPa)
#
#
# Indices 1 2 3 4 5 6 
#
# 1 67.3107 5.7322 21.9153 0.0000 0.0000 0.0000
# 2 5.7322 61.0865 40.7980 0.0000 0.0000 0.0000
# 3 21.9153 40.7980 164.5305 0.0000 0.0000 0.0000
# 4 0.0000 0.0000 0.0000 -3.7629 0.0000 0.0000
# 5 0.0000 0.0000 0.0000 0.0000 34.7205 0.0000
# 6 0.0000 0.0000 0.0000 0.0000 0.0000 19.0142
#
#
#
# Elastic Compliance Matrix: (Units=1/GPa)
#
#
# Indices 1 2 3 4 5 6 
#
# 1 0.015530 -0.000091 -0.002046 0.000000 0.000000 0.000000
# 2 -0.000091 0.019620 -0.004853 0.000000 0.000000 0.000000
# 3 -0.002046 -0.004853 0.007554 0.000000 0.000000 0.000000
# 4 0.000000 0.000000 0.000000 -0.265752 0.000000 0.000000
# 5 0.000000 0.000000 0.000000 0.000000 0.028801 0.000000
# 6 0.000000 0.000000 0.000000 0.000000 0.000000 0.052592
#
#
# Mechanical properties :
#
#
# Convention : Reuss Voigt Hill
#
# Bulk Modulus (GPa) = 34.81368 47.75764 41.28566
# Shear Modulus (GPa) = -42.33700 24.95984 -8.68858
#
# Velocity S-wave (km/s) = -4.59668 3.52943 -2.08237
# Velocity P-wave (km/s) = 3.28601 6.35956 3.85007
#
# Compressibility (1/GPa) = 0.02872434
#
# Stress axis : x y z
#
# Youngs Moduli (GPa) = 64.38988 50.96862 132.38338
#
# Poissons Ratio (x) = 0.00463 0.27087
# Poissons Ratio (y) = 0.00585 0.64245
# Poissons Ratio (z) = 0.13175 0.24735
#
# Static dielectric constant tensor:
#      x y z
#    x 3.433380 0.000000 0.000000 
#    y 0.000000 3.188310 0.000000 
#    z 0.000000 0.000000 4.231120 
# 
# 
# High freq. dielectric constant tensor:
#      x y z
#    x 1.783390 0.000000 0.000000 
#    y 0.000000 1.729500 0.000000 
#    z 0.000000 0.000000 1.813140 
# 
# From -- ./inp_files/50352.got.cif
#   From: 2010.03.12/outbox.cif.g09.slc.cpg/sg63_26_cif.got.tgz:50352.got - 2010.04.10 19:34:48.
