data_PCOD8258533
_publ_section_title
;
Structure prediction by ZEFSAII (Michael W. Deem and Ramdas Pophale) SiO2 
 PCOD8258533
Probable space group: C M C M
;
_chemical_formula_sum "Si O2"
_cell_formula_units_Z 96
_cell_length_a 24.768623
_cell_length_b 23.489604
_cell_length_c 9.010775
_cell_angle_alpha 90.000000
_cell_angle_beta 90.000000
_cell_angle_gamma 90.000000
_cell_volume 5242.515264
_symmetry_space_group_name_H-M "C M C M"
_symmetry_group_IT_number 63
_symmetry_cell_setting 'orthorhombic'
loop_
_space_group_symop_operation_xyz
x,y,z
-x,-y,1/2+z
x,-y,-z
-x,y,1/2-z
-x,-y,-z
x,y,1/2-z
-x,y,z
x,-y,1/2+z
1/2+x,1/2+y,z
1/2-x,1/2-y,1/2+z
1/2+x,1/2-y,-z
1/2-x,1/2+y,1/2-z
1/2-x,1/2-y,-z
1/2+x,1/2+y,1/2-z
1/2-x,1/2+y,z
1/2+x,1/2-y,1/2+z
loop_
_atom_site_type_symbol
_atom_site_label
_atom_site_fract_x
_atom_site_fract_y
_atom_site_fract_z
Si Si1 0.813221 0.058201 0.423214
Si Si2 0.500000 0.560432 0.575869
Si Si3 0.812298 0.557943 0.422404
Si Si4 0.062713 0.244170 0.422125
Si Si5 0.103271 0.368738 0.422972
Si Si6 0.602372 0.633896 0.925278
Si Si7 0.000000 0.560572 0.925223
O O1 0.826528 0.053582 0.250000
O O2 0.750435 0.068964 0.454139
O O3 0.844206 0.111168 0.494580
O O4 0.832970 0.000000 0.500000
O O5 0.500000 0.500000 0.500000
O O6 0.500000 0.550906 0.750000
O O7 0.447773 0.595230 0.523808
O O8 0.832239 0.500000 0.500000
O O9 0.824804 0.551493 0.250000
O O10 0.844104 0.611738 0.487367
O O11 0.068765 0.227458 0.250000
O O12 0.092473 0.303011 0.457601
O O13 0.091882 0.197962 0.523636
O O14 0.000000 0.249617 0.465559
O O15 0.113865 0.378707 0.250000
O O16 0.052305 0.405029 0.478665
O O17 0.611108 0.632728 0.750000
O O18 0.000000 0.553335 0.750000
O O19 0.000000 0.500000 0.000000
#
# Coordination Sequence:
#
# PCOD8258533 Si02
#       7
#    16   8  16  16  16  16   8
#     4  10  21  38  59  84 113 147 187 230 279 335
#     4  10  22  35  50  78 112 141 173 220 273 326
#     4  10  21  37  58  84 114 147 186 231 281 333
#     4  10  20  37  59  81 109 151 191 228 278 332
#     4  10  20  36  57  81 112 146 188 231 276 333
#     4  11  22  37  56  82 114 146 186 231 277 331
#     4  10  20  33  50  78 112 143 177 224 275 330
#
# _framework density 18.311819
#
# number of rings (size 3 to 8) (size 9 to 14) (size 15 to 20)
#    0.000    1.833    1.667    2.500    0.000    7.333 
#    0.000    0.833    0.000    0.000    0.000    0.000 
#    0.000    0.000    0.000    0.000    0.000    0.000 
#
# Total GULP energy -595474.096476 kJ/mol
# GULP energy per Si atom -12405.710343 kJ/mol
# Density = 1.827014 g / cm^3
# Si number density = 18.311819 Si / 1000 Ang^3
#
#
#
# Elastic Constant Matrix: (Units=GPa)
#
#
# Indices 1 2 3 4 5 6 
#
# 1 90.8874 61.1740 55.8006 0.0000 0.0000 0.0000
# 2 61.1740 127.2551 59.3718 0.0000 0.0000 0.0000
# 3 55.8006 59.3718 83.2096 0.0000 0.0000 0.0000
# 4 0.0000 0.0000 0.0000 37.8766 0.0000 0.0000
# 5 0.0000 0.0000 0.0000 0.0000 26.3804 0.0000
# 6 0.0000 0.0000 0.0000 0.0000 0.0000 31.7930
#
#
#
# Elastic Compliance Matrix: (Units=1/GPa)
#
#
# Indices 1 2 3 4 5 6 
#
# 1 0.020793 -0.005232 -0.010211 0.000000 0.000000 0.000000
# 2 -0.005232 0.013096 -0.005836 0.000000 0.000000 0.000000
# 3 -0.010211 -0.005836 0.023029 0.000000 0.000000 0.000000
# 4 0.000000 0.000000 0.000000 0.026402 0.000000 0.000000
# 5 0.000000 0.000000 0.000000 0.000000 0.037907 0.000000
# 6 0.000000 0.000000 0.000000 0.000000 0.000000 0.031453
#
#
# Mechanical properties :
#
#
# Convention : Reuss Voigt Hill
#
# Bulk Modulus (GPa) = 69.63133 72.67167 71.15150
# Shear Modulus (GPa) = 24.99698 27.54372 26.27035
#
# Velocity S-wave (km/s) = 3.69870 3.88254 3.79174
# Velocity P-wave (km/s) = 7.50656 7.73761 7.62296
#
# Compressibility (1/GPa) = 0.01436135
#
# Stress axis : x y z
#
# Youngs Moduli (GPa) = 48.09335 76.35961 43.42273
#
# Poissons Ratio (x) = 0.39948 0.44339
# Poissons Ratio (y) = 0.25160 0.25341
# Poissons Ratio (z) = 0.49108 0.44563
#
# Static dielectric constant tensor:
#      x y z
#    x 3.392290 0.000000 0.000000 
#    y 0.000000 3.325460 0.000000 
#    z 0.000000 0.000000 3.404630 
# 
# 
# High freq. dielectric constant tensor:
#      x y z
#    x 1.711220 0.000000 0.000000 
#    y 0.000000 1.711530 0.000000 
#    z 0.000000 0.000000 1.713180 
# 
# From -- ./inp_files/10511.got.cif
#   From: 2010.03.12/outbox.cif.g09.slc.cpg/sg63_6_cif.got.tgz:10511.got - 2010.04.10 19:34:48.
