data_PCOD8258104
_publ_section_title
;
Structure prediction by ZEFSAII (Michael W. Deem and Ramdas Pophale) SiO2 
 PCOD8258104
Probable space group: C M C M
;
_chemical_formula_sum "Si O2"
_cell_formula_units_Z 96
_cell_length_a 8.745476
_cell_length_b 28.937952
_cell_length_c 20.421328
_cell_angle_alpha 90.000000
_cell_angle_beta 90.000000
_cell_angle_gamma 90.000000
_cell_volume 5168.151368
_symmetry_space_group_name_H-M "C M C M"
_symmetry_group_IT_number 63
_symmetry_cell_setting 'orthorhombic'
loop_
_space_group_symop_operation_xyz
x,y,z
-x,-y,1/2+z
x,-y,-z
-x,y,1/2-z
-x,-y,-z
x,y,1/2-z
-x,y,z
x,-y,1/2+z
1/2+x,1/2+y,z
1/2-x,1/2-y,1/2+z
1/2+x,1/2-y,-z
1/2-x,1/2+y,1/2-z
1/2-x,1/2-y,-z
1/2+x,1/2+y,1/2-z
1/2-x,1/2+y,z
1/2+x,1/2-y,1/2+z
loop_
_atom_site_type_symbol
_atom_site_label
_atom_site_fract_x
_atom_site_fract_y
_atom_site_fract_z
Si Si1 0.319893 0.871300 0.023203
Si Si2 0.680211 0.533056 0.940140
Si Si3 0.820590 0.778480 0.059396
Si Si4 0.324999 0.212593 0.323747
Si Si5 0.818608 0.969746 0.677315
Si Si6 0.820440 0.126199 0.381632
O O1 0.500000 0.867600 0.026202
O O2 0.267219 0.918958 0.055207
O O3 0.249137 0.829480 0.064693
O O4 0.267052 0.866462 0.948929
O O5 0.500000 0.542538 0.941736
O O6 0.735024 0.509508 0.872539
O O7 0.727600 0.500000 0.000000
O O8 0.779358 0.753700 0.127509
O O9 0.000000 0.782136 0.047296
O O10 0.750000 0.750000 0.000000
O O11 0.301058 0.230870 0.250000
O O12 0.500000 0.197166 0.335999
O O13 0.215611 0.168760 0.334256
O O14 0.752479 0.979910 0.750000
O O15 0.758432 0.920288 0.652419
O O16 0.000000 0.968019 0.679501
O O17 0.000000 0.122954 0.396353
#
# Coordination Sequence:
#
# PCOD8258104 Si02
#       6
#    16  16  16  16  16  16
#     4  12  24  37  56  85 117 150 193 240 286 337
#     4  10  19  36  59  83 111 147 189 235 283 337
#     4  11  22  38  61  86 115 152 192 237 285 340
#     4  10  22  39  58  85 120 153 187 233 291 350
#     4   9  18  33  55  84 115 146 184 230 283 342
#     4  11  20  34  58  87 118 150 189 237 287 343
#
# _framework density 18.575308
#
# number of rings (size 3 to 8) (size 9 to 14) (size 15 to 20)
#    0.000    1.500    3.333    3.000    0.000    2.000 
#    0.000    0.833    0.000    7.500    0.000    0.000 
#    0.000    0.000    0.000    0.000    0.000    0.000 
#
# Total GULP energy -595363.919044 kJ/mol
# GULP energy per Si atom -12403.414980 kJ/mol
# Density = 1.853303 g / cm^3
# Si number density = 18.575308 Si / 1000 Ang^3
#
#
#
# Elastic Constant Matrix: (Units=GPa)
#
#
# Indices 1 2 3 4 5 6 
#
# 1 78.6667 53.7454 37.2923 0.0000 0.0000 0.0000
# 2 53.7454 141.1876 71.7149 0.0000 0.0000 0.0000
# 3 37.2923 71.7149 142.3828 0.0000 0.0000 0.0000
# 4 0.0000 0.0000 0.0000 30.6147 0.0000 0.0000
# 5 0.0000 0.0000 0.0000 0.0000 19.2158 0.0000
# 6 0.0000 0.0000 0.0000 0.0000 0.0000 30.5655
#
#
#
# Elastic Compliance Matrix: (Units=1/GPa)
#
#
# Indices 1 2 3 4 5 6 
#
# 1 0.017463 -0.005811 -0.001647 0.000000 0.000000 0.000000
# 2 -0.005811 0.011451 -0.004246 0.000000 0.000000 0.000000
# 3 -0.001647 -0.004246 0.009593 0.000000 0.000000 0.000000
# 4 0.000000 0.000000 0.000000 0.032664 0.000000 0.000000
# 5 0.000000 0.000000 0.000000 0.000000 0.052041 0.000000
# 6 0.000000 0.000000 0.000000 0.000000 0.000000 0.032717
#
#
# Mechanical properties :
#
#
# Convention : Reuss Voigt Hill
#
# Bulk Modulus (GPa) = 66.22553 76.41582 71.32067
# Shear Modulus (GPa) = 27.11950 29.37816 28.24883
#
# Velocity S-wave (km/s) = 3.82511 3.98121 3.90394
# Velocity P-wave (km/s) = 7.43226 7.89690 7.66810
#
# Compressibility (1/GPa) = 0.01509992
#
# Stress axis : x y z
#
# Youngs Moduli (GPa) = 57.26516 87.32534 104.24031
#
# Poissons Ratio (x) = 0.50744 0.17168
# Poissons Ratio (y) = 0.33276 0.44259
# Poissons Ratio (z) = 0.09431 0.37077
#
# Static dielectric constant tensor:
#      x y z
#    x 3.286380 0.000000 0.000000 
#    y 0.000000 3.541320 0.000000 
#    z 0.000000 0.000000 3.608470 
# 
# 
# High freq. dielectric constant tensor:
#      x y z
#    x 1.708540 0.000000 0.000000 
#    y 0.000000 1.725310 0.000000 
#    z 0.000000 0.000000 1.721990 
# 
# From -- ./inp_files/51312.got.cif
#   From: 2010.03.12/outbox.cif.g09.slc.cpg/sg63_26_cif.got.tgz:51312.got - 2010.04.10 19:34:48.
