data_PCOD8258286
_publ_section_title
;
Structure prediction by ZEFSAII (Michael W. Deem and Ramdas Pophale) SiO2 
 PCOD8258286
Probable space group: C M C M
;
_chemical_formula_sum "Si O2"
_cell_formula_units_Z 88
_cell_length_a 30.790651
_cell_length_b 17.760860
_cell_length_c 8.743978
_cell_angle_alpha 90.000000
_cell_angle_beta 90.000000
_cell_angle_gamma 90.000000
_cell_volume 4781.805623
_symmetry_space_group_name_H-M "C M C M"
_symmetry_group_IT_number 63
_symmetry_cell_setting 'orthorhombic'
loop_
_space_group_symop_operation_xyz
x,y,z
-x,-y,1/2+z
x,-y,-z
-x,y,1/2-z
-x,-y,-z
x,y,1/2-z
-x,y,z
x,-y,1/2+z
1/2+x,1/2+y,z
1/2-x,1/2-y,1/2+z
1/2+x,1/2-y,-z
1/2-x,1/2+y,1/2-z
1/2-x,1/2-y,-z
1/2+x,1/2+y,1/2-z
1/2-x,1/2+y,z
1/2+x,1/2-y,1/2+z
loop_
_atom_site_type_symbol
_atom_site_label
_atom_site_fract_x
_atom_site_fract_y
_atom_site_fract_z
Si Si1 0.049246 0.080890 0.430160
Si Si2 0.329150 0.078217 0.570604
Si Si3 0.910229 0.636947 0.424247
Si Si4 0.500000 0.919726 0.570565
Si Si5 0.882730 0.193814 0.576704
Si Si6 0.203927 0.730873 0.431844
O O1 0.051060 0.073324 0.250000
O O2 0.087616 0.137732 0.478575
O O3 0.000000 0.106454 0.481059
O O4 0.060209 0.000000 0.500000
O O5 0.319685 0.079405 0.750000
O O6 0.380105 0.087848 0.535732
O O7 0.305572 0.147351 0.489447
O O8 0.311664 0.000000 0.500000
O O9 0.902633 0.608580 0.250000
O O10 0.904002 0.725181 0.434184
O O11 0.958383 0.625438 0.486380
O O12 0.500000 0.927681 0.750000
O O13 0.500000 0.000000 0.500000
O O14 0.882331 0.163154 0.750000
O O15 0.832800 0.207093 0.516895
O O16 0.205073 0.729027 0.250000
O O17 0.250000 0.750000 0.500000
#
# Coordination Sequence:
#
# PCOD8258286 Si02
#       6
#    16  16  16   8  16  16
#     4  10  21  36  55  81 112 147 188 234 282 335
#     4  11  21  35  56  80 108 143 182 226 273 323
#     4   9  19  34  51  74 104 141 183 223 267 320
#     4  10  20  32  46  68 101 140 179 218 263 308
#     4   9  19  35  57  81 108 142 180 223 273 331
#     4  10  21  39  61  86 114 145 183 227 281 340
#
# _framework density 18.403089000000001
#
# number of rings (size 3 to 8) (size 9 to 14) (size 15 to 20)
#    0.000    2.182    0.000    4.364    1.273    6.909 
#    0.000    0.909    0.000    4.364    0.000    0.000 
#    0.000    0.000    0.000    0.000    0.000    0.000 
#
# Total GULP energy -545302.828185 kJ/mol
# GULP energy per Si atom -12393.246095 kJ/mol
# Density = 1.836120 g / cm^3
# Si number density = 18.403089 Si / 1000 Ang^3
#
#
#
# Elastic Constant Matrix: (Units=GPa)
#
#
# Indices 1 2 3 4 5 6 
#
# 1 158.7464 58.7688 45.7736 0.0000 0.0000 0.0000
# 2 58.7688 84.5672 39.5756 0.0000 0.0000 0.0000
# 3 45.7736 39.5756 78.9915 0.0000 0.0000 0.0000
# 4 0.0000 0.0000 0.0000 34.4531 0.0000 0.0000
# 5 0.0000 0.0000 0.0000 0.0000 31.4505 0.0000
# 6 0.0000 0.0000 0.0000 0.0000 0.0000 15.3636
#
#
#
# Elastic Compliance Matrix: (Units=1/GPa)
#
#
# Indices 1 2 3 4 5 6 
#
# 1 0.008898 -0.004925 -0.002688 0.000000 0.000000 0.000000
# 2 -0.004925 0.018173 -0.006251 0.000000 0.000000 0.000000
# 3 -0.002688 -0.006251 0.017349 0.000000 0.000000 0.000000
# 4 0.000000 0.000000 0.000000 0.029025 0.000000 0.000000
# 5 0.000000 0.000000 0.000000 0.000000 0.031796 0.000000
# 6 0.000000 0.000000 0.000000 0.000000 0.000000 0.065089
#
#
# Mechanical properties :
#
#
# Convention : Reuss Voigt Hill
#
# Bulk Modulus (GPa) = 59.91274 67.83790 63.87532
# Shear Modulus (GPa) = 24.55521 28.13257 26.34389
#
# Velocity S-wave (km/s) = 3.65677 3.91408 3.78761
# Velocity P-wave (km/s) = 7.10322 7.57423 7.34250
#
# Compressibility (1/GPa) = 0.01669094
#
# Stress axis : x y z
#
# Youngs Moduli (GPa) = 112.38537 55.02697 57.63963
#
# Poissons Ratio (x) = 0.27103 0.15496
# Poissons Ratio (y) = 0.55354 0.36029
# Poissons Ratio (z) = 0.30215 0.34396
#
# Static dielectric constant tensor:
#      x y z
#    x 3.731920 0.000000 0.000000 
#    y 0.000000 3.400850 0.000000 
#    z 0.000000 0.000000 3.121330 
# 
# 
# High freq. dielectric constant tensor:
#      x y z
#    x 1.716440 0.000000 0.000000 
#    y 0.000000 1.709440 0.000000 
#    z 0.000000 0.000000 1.714590 
# 
# From -- ./inp_files/14228.got.cif
#   From: 2010.03.12/outbox.cif.g09.slc.cpg/sg63_8_cif.got.tgz:14228.got - 2010.04.10 19:34:48.
