data_PCOD8258413
_publ_section_title
;
Structure prediction by ZEFSAII (Michael W. Deem and Ramdas Pophale) SiO2 
 PCOD8258413
Probable space group: C M C M
;
_chemical_formula_sum "Si O2"
_cell_formula_units_Z 112
_cell_length_a 26.544286
_cell_length_b 11.115338
_cell_length_c 20.242740
_cell_angle_alpha 90.000000
_cell_angle_beta 90.000000
_cell_angle_gamma 90.000000
_cell_volume 5972.594341
_symmetry_space_group_name_H-M "C M C M"
_symmetry_group_IT_number 63
_symmetry_cell_setting 'orthorhombic'
loop_
_space_group_symop_operation_xyz
x,y,z
-x,-y,1/2+z
x,-y,-z
-x,y,1/2-z
-x,-y,-z
x,y,1/2-z
-x,y,z
x,-y,1/2+z
1/2+x,1/2+y,z
1/2-x,1/2-y,1/2+z
1/2+x,1/2-y,-z
1/2-x,1/2+y,1/2-z
1/2-x,1/2-y,-z
1/2+x,1/2+y,1/2-z
1/2-x,1/2+y,z
1/2+x,1/2-y,1/2+z
loop_
_atom_site_type_symbol
_atom_site_label
_atom_site_fract_x
_atom_site_fract_y
_atom_site_fract_z
Si Si1 0.294335 0.560016 0.396733
Si Si2 0.884303 0.932305 0.327204
Si Si3 0.641543 0.256561 0.967696
Si Si4 0.058164 0.072688 0.433237
Si Si5 0.253956 0.766236 0.322471
Si Si6 0.346879 0.786897 0.616958
Si Si7 0.310111 0.957987 0.390838
O O1 0.332814 0.463874 0.366391
O O2 0.317086 0.638393 0.456903
O O3 0.286427 0.646789 0.333598
O O4 0.241819 0.505956 0.424438
O O5 0.886251 0.969807 0.250000
O O6 0.885017 0.785704 0.334027
O O7 0.929737 0.995147 0.367214
O O8 0.589947 0.302932 0.933318
O O9 0.658753 0.127663 0.939630
O O10 0.632464 0.237447 0.044310
O O11 0.000000 0.108445 0.431152
O O12 0.071757 0.000000 0.500000
O O13 0.229508 0.766002 0.250000
O O14 0.209590 0.766034 0.376269
O O15 0.291031 0.881034 0.328156
O O16 0.345456 0.930566 0.632056
#
# Coordination Sequence:
#
# PCOD8258413 Si02
#       7
#    16  16  16  16  16  16  16
#     4   9  20  34  51  75 110 156 197 237 274 327
#     4  11  21  36  57  86 117 146 187 241 292 349
#     4  10  21  37  55  79 112 149 198 242 286 339
#     4  10  21  41  67  88 109 141 187 250 310 354
#     4  10  20  33  46  68 107 160 206 233 268 329
#     4  11  21  32  49  76 112 151 191 238 282 336
#     4  10  21  33  49  77 114 161 196 233 270 335
#
# _framework density 18.752320000000001
#
# number of rings (size 3 to 8) (size 9 to 14) (size 15 to 20)
#    0.000    1.857    2.857    1.286    0.000    9.429 
#    0.000    0.000    0.000    2.571    0.000    0.000 
#    0.000    0.000    0.000    0.000    0.000    0.000 
#
# Total GULP energy -693856.567120 kJ/mol
# GULP energy per Si atom -12390.295841 kJ/mol
# Density = 1.870964 g / cm^3
# Si number density = 18.752320 Si / 1000 Ang^3
#
#
#
# Elastic Constant Matrix: (Units=GPa)
#
#
# Indices 1 2 3 4 5 6 
#
# 1 83.3803 41.4693 20.0481 0.0000 0.0000 0.0000
# 2 41.4693 107.9658 27.6570 0.0000 0.0000 0.0000
# 3 20.0481 27.6570 77.6361 0.0000 0.0000 0.0000
# 4 0.0000 0.0000 0.0000 12.2372 0.0000 0.0000
# 5 0.0000 0.0000 0.0000 0.0000 15.6127 0.0000
# 6 0.0000 0.0000 0.0000 0.0000 0.0000 18.6613
#
#
#
# Elastic Compliance Matrix: (Units=1/GPa)
#
#
# Indices 1 2 3 4 5 6 
#
# 1 0.015107 -0.005286 -0.002018 0.000000 0.000000 0.000000
# 2 -0.005286 0.012042 -0.002925 0.000000 0.000000 0.000000
# 3 -0.002018 -0.002925 0.014444 0.000000 0.000000 0.000000
# 4 0.000000 0.000000 0.000000 0.081718 0.000000 0.000000
# 5 0.000000 0.000000 0.000000 0.000000 0.064050 0.000000
# 6 0.000000 0.000000 0.000000 0.000000 0.000000 0.053587
#
#
# Mechanical properties :
#
#
# Convention : Reuss Voigt Hill
#
# Bulk Modulus (GPa) = 47.31419 49.70344 48.50882
# Shear Modulus (GPa) = 18.62542 21.28944 19.95743
#
# Velocity S-wave (km/s) = 3.15498 3.37307 3.26585
# Velocity P-wave (km/s) = 6.20949 6.46010 6.33603
#
# Compressibility (1/GPa) = 0.02113531
#
# Stress axis : x y z
#
# Youngs Moduli (GPa) = 66.19303 83.04535 69.23441
#
# Poissons Ratio (x) = 0.43895 0.13973
# Poissons Ratio (y) = 0.34987 0.20249
# Poissons Ratio (z) = 0.13359 0.24289
#
# Static dielectric constant tensor:
#      x y z
#    x 3.116620 0.000000 0.000000 
#    y 0.000000 3.792600 0.000000 
#    z 0.000000 0.000000 3.222820 
# 
# 
# High freq. dielectric constant tensor:
#      x y z
#    x 1.680140 0.000000 0.000000 
#    y 0.000000 1.743740 0.000000 
#    z 0.000000 0.000000 1.717220 
# 
# From -- ./inp_files/58312.got.cif
#   From: 2010.03.12/outbox.cif.g09.slc.cpg/sg63_30_cif.got.tgz:58312.got - 2010.04.10 19:34:48.
