data_PCOD8258055
_publ_section_title
;
Structure prediction by ZEFSAII (Michael W. Deem and Ramdas Pophale) SiO2 
 PCOD8258055
Probable space group: C M C M
;
_chemical_formula_sum "Si O2"
_cell_formula_units_Z 96
_cell_length_a 24.929991
_cell_length_b 10.075274
_cell_length_c 21.782094
_cell_angle_alpha 90.000000
_cell_angle_beta 90.000000
_cell_angle_gamma 90.000000
_cell_volume 5471.149919
_symmetry_space_group_name_H-M "C M C M"
_symmetry_group_IT_number 63
_symmetry_cell_setting 'orthorhombic'
loop_
_space_group_symop_operation_xyz
x,y,z
-x,-y,1/2+z
x,-y,-z
-x,y,1/2-z
-x,-y,-z
x,y,1/2-z
-x,y,z
x,-y,1/2+z
1/2+x,1/2+y,z
1/2-x,1/2-y,1/2+z
1/2+x,1/2-y,-z
1/2-x,1/2+y,1/2-z
1/2-x,1/2-y,-z
1/2+x,1/2+y,1/2-z
1/2-x,1/2+y,z
1/2+x,1/2-y,1/2+z
loop_
_atom_site_type_symbol
_atom_site_label
_atom_site_fract_x
_atom_site_fract_y
_atom_site_fract_z
Si Si1 0.746417 0.622449 0.041679
Si Si2 0.348517 0.281574 0.880763
Si Si3 0.061113 0.610180 0.449462
Si Si4 0.691888 0.291539 0.750000
Si Si5 0.342105 0.026285 0.379099
Si Si6 0.708910 0.011547 0.250000
Si Si7 0.438159 0.361884 0.530202
O O1 0.700822 0.636040 0.092493
O O2 0.802688 0.602469 0.075196
O O3 0.729713 0.500000 0.000000
O O4 0.750000 0.750000 0.000000
O O5 0.347863 0.304984 0.807806
O O6 0.404135 0.334743 0.908486
O O7 0.340751 0.127764 0.896878
O O8 0.074405 0.500000 0.500000
O O9 0.098701 0.586404 0.390368
O O10 0.073325 0.752744 0.478453
O O11 0.000000 0.598759 0.426477
O O12 0.735675 0.408159 0.750000
O O13 0.721283 0.146913 0.750000
O O14 0.326175 0.051991 0.308885
O O15 0.421039 0.500000 0.500000
O O16 0.500000 0.360889 0.551000
#
# Coordination Sequence:
#
# PCOD8258055 Si02
#       7
#    16  16  16   8  16   8  16
#     4  12  22  32  52  79 110 143 176 231 283 327
#     4  11  21  37  57  81 112 147 188 230 275 333
#     4  10  19  35  61  83 110 149 180 222 286 335
#     4  10  22  40  57  77 110 154 193 226 278 326
#     4  11  21  37  56  81 114 142 191 232 273 330
#     4  10  22  40  57  75 110 158 185 234 276 322
#     4  10  21  38  59  86 117 146 180 231 286 334
#
# _framework density 17.546585
#
# number of rings (size 3 to 8) (size 9 to 14) (size 15 to 20)
#    0.000    1.333    5.000    2.000    0.000    0.000 
#    3.000    0.833    0.000    3.000    0.000    3.500 
#    0.000    0.000    0.000    0.000    0.000    0.000 
#
# Total GULP energy -595369.303670 kJ/mol
# GULP energy per Si atom -12403.527160 kJ/mol
# Density = 1.750665 g / cm^3
# Si number density = 17.546585 Si / 1000 Ang^3
#
#
#
# Elastic Constant Matrix: (Units=GPa)
#
#
# Indices 1 2 3 4 5 6 
#
# 1 112.6455 40.9306 64.8120 0.0000 0.0000 0.0000
# 2 40.9306 114.6058 55.0780 0.0000 0.0000 0.0000
# 3 64.8120 55.0780 121.9590 0.0000 0.0000 0.0000
# 4 0.0000 0.0000 0.0000 24.6336 0.0000 0.0000
# 5 0.0000 0.0000 0.0000 0.0000 24.5878 0.0000
# 6 0.0000 0.0000 0.0000 0.0000 0.0000 24.8607
#
#
#
# Elastic Compliance Matrix: (Units=1/GPa)
#
#
# Indices 1 2 3 4 5 6 
#
# 1 0.013040 -0.001695 -0.006164 0.000000 0.000000 0.000000
# 2 -0.001695 0.011365 -0.004232 0.000000 0.000000 0.000000
# 3 -0.006164 -0.004232 0.013387 0.000000 0.000000 0.000000
# 4 0.000000 0.000000 0.000000 0.040595 0.000000 0.000000
# 5 0.000000 0.000000 0.000000 0.000000 0.040671 0.000000
# 6 0.000000 0.000000 0.000000 0.000000 0.000000 0.040224
#
#
# Mechanical properties :
#
#
# Convention : Reuss Voigt Hill
#
# Bulk Modulus (GPa) = 73.47891 74.53906 74.00898
# Shear Modulus (GPa) = 26.59592 27.37574 26.98583
#
# Velocity S-wave (km/s) = 3.89746 3.95419 3.92593
# Velocity P-wave (km/s) = 7.88803 7.96369 7.92595
#
# Compressibility (1/GPa) = 0.01360935
#
# Stress axis : x y z
#
# Youngs Moduli (GPa) = 76.68755 87.99321 74.70183
#
# Poissons Ratio (x) = 0.14911 0.46050
# Poissons Ratio (y) = 0.12995 0.31612
# Poissons Ratio (z) = 0.47274 0.37237
#
# Static dielectric constant tensor:
#      x y z
#    x 3.275440 0.000000 0.000000 
#    y 0.000000 3.415750 0.000000 
#    z 0.000000 0.000000 3.252050 
# 
# 
# High freq. dielectric constant tensor:
#      x y z
#    x 1.676760 0.000000 0.000000 
#    y 0.000000 1.689710 0.000000 
#    z 0.000000 0.000000 1.669840 
# 
# From -- ./inp_files/64998.got.cif
#   From: 2010.03.12/outbox.cif.g09.slc.cpg/sg63_33_cif.got.tgz:64998.got - 2010.04.10 19:34:48.
