data_PCOD8258545
_publ_section_title
;
Structure prediction by ZEFSAII (Michael W. Deem and Ramdas Pophale) SiO2 
 PCOD8258545
Probable space group: C M C M
;
_chemical_formula_sum "Si O2"
_cell_formula_units_Z 72
_cell_length_a 10.131702
_cell_length_b 15.195762
_cell_length_c 24.215343
_cell_angle_alpha 90.000000
_cell_angle_beta 90.000000
_cell_angle_gamma 90.000000
_cell_volume 3728.168352
_symmetry_space_group_name_H-M "C M C M"
_symmetry_group_IT_number 63
_symmetry_cell_setting 'orthorhombic'
loop_
_space_group_symop_operation_xyz
x,y,z
-x,-y,1/2+z
x,-y,-z
-x,y,1/2-z
-x,-y,-z
x,y,1/2-z
-x,y,z
x,-y,1/2+z
1/2+x,1/2+y,z
1/2-x,1/2-y,1/2+z
1/2+x,1/2-y,-z
1/2-x,1/2+y,1/2-z
1/2-x,1/2-y,-z
1/2+x,1/2+y,1/2-z
1/2-x,1/2+y,z
1/2+x,1/2-y,1/2+z
loop_
_atom_site_type_symbol
_atom_site_label
_atom_site_fract_x
_atom_site_fract_y
_atom_site_fract_z
Si Si1 0.264268 0.500000 0.000000
Si Si2 0.142694 0.320056 0.984144
Si Si3 0.344127 0.335252 0.311347
Si Si4 0.851787 0.652336 0.355983
Si Si5 0.650472 0.503747 0.377493
O O1 0.173367 0.584710 0.990729
O O2 0.350164 0.509737 0.055737
O O3 0.135293 0.323731 0.919204
O O4 0.000000 0.290135 0.007684
O O5 0.250000 0.250000 0.000000
O O6 0.294764 0.361878 0.250000
O O7 0.500000 0.327519 0.313484
O O8 0.289966 0.237997 0.325902
O O9 0.299435 0.408467 0.355918
O O10 0.748569 0.572965 0.348326
O O11 0.000000 0.627122 0.333860
O O12 0.500000 0.522054 0.357975
#
# Coordination Sequence:
#
# PCOD8258545 Si02
#       5
#     8  16  16  16  16
#     4  10  20  34  52  76 110 144 172 206 258 316
#     4  10  20  33  51  75 104 137 173 210 251 302
#     4   9  18  34  55  76 101 136 175 214 260 313
#     4   9  19  35  52  73 102 135 169 207 255 309
#     4  10  20  34  54  80 106 136 175 217 258 304
#
# _framework density 19.312432999999999
#
# number of rings (size 3 to 8) (size 9 to 14) (size 15 to 20)
#    0.000    2.444    0.000    2.000    0.000    8.000 
#    0.000    1.111    0.000    1.333    0.000    0.000 
#    0.000    0.000    0.000    0.000    0.000    0.000 
#
# Total GULP energy -446172.597499 kJ/mol
# GULP energy per Si atom -12393.683264 kJ/mol
# Density = 1.926848 g / cm^3
# Si number density = 19.312433 Si / 1000 Ang^3
#
#
#
# Elastic Constant Matrix: (Units=GPa)
#
#
# Indices 1 2 3 4 5 6 
#
# 1 112.7668 70.7873 11.1568 0.0000 0.0000 0.0000
# 2 70.7873 159.0359 38.8982 0.0000 0.0000 0.0000
# 3 11.1568 38.8982 46.4574 0.0000 0.0000 0.0000
# 4 0.0000 0.0000 0.0000 31.9490 0.0000 0.0000
# 5 0.0000 0.0000 0.0000 0.0000 8.0067 0.0000
# 6 0.0000 0.0000 0.0000 0.0000 0.0000 26.8719
#
#
#
# Elastic Compliance Matrix: (Units=1/GPa)
#
#
# Indices 1 2 3 4 5 6 
#
# 1 0.012464 -0.006056 0.002077 0.000000 0.000000 0.000000
# 2 -0.006056 0.010849 -0.007630 0.000000 0.000000 0.000000
# 3 0.002077 -0.007630 0.027415 0.000000 0.000000 0.000000
# 4 0.000000 0.000000 0.000000 0.031300 0.000000 0.000000
# 5 0.000000 0.000000 0.000000 0.000000 0.124895 0.000000
# 6 0.000000 0.000000 0.000000 0.000000 0.000000 0.037214
#
#
# Mechanical properties :
#
#
# Convention : Reuss Voigt Hill
#
# Bulk Modulus (GPa) = 36.34895 62.21608 49.28252
# Shear Modulus (GPa) = 18.08166 26.52672 22.30419
#
# Velocity S-wave (km/s) = 3.06317 3.71017 3.40209
# Velocity P-wave (km/s) = 5.60117 7.11613 6.40361
#
# Compressibility (1/GPa) = 0.02751111
#
# Stress axis : x y z
#
# Youngs Moduli (GPa) = 80.23298 92.17046 36.47686
#
# Poissons Ratio (x) = 0.55816 -0.07577
# Poissons Ratio (y) = 0.48587 0.27831
# Poissons Ratio (z) = -0.16666 0.70325
#
# Static dielectric constant tensor:
#      x y z
#    x 3.606930 0.000000 0.000000 
#    y 0.000000 3.746490 0.000000 
#    z 0.000000 0.000000 3.516380 
# 
# 
# High freq. dielectric constant tensor:
#      x y z
#    x 1.730410 0.000000 0.000000 
#    y 0.000000 1.759840 0.000000 
#    z 0.000000 0.000000 1.738880 
# 
# From -- ./inp_files/66319.got.cif
#   From: 2010.03.12/outbox.cif.g09.slc.cpg/sg63_34_cif.got.tgz:66319.got - 2010.04.10 19:34:48.
