data_PCOD8258174
_publ_section_title
;
Structure prediction by ZEFSAII (Michael W. Deem and Ramdas Pophale) SiO2 
 PCOD8258174
Probable space group: C M C M
;
_chemical_formula_sum "Si O2"
_cell_formula_units_Z 80
_cell_length_a 26.025276
_cell_length_b 9.534137
_cell_length_c 17.501198
_cell_angle_alpha 90.000000
_cell_angle_beta 90.000000
_cell_angle_gamma 90.000000
_cell_volume 4342.546828
_symmetry_space_group_name_H-M "C M C M"
_symmetry_group_IT_number 63
_symmetry_cell_setting 'orthorhombic'
loop_
_space_group_symop_operation_xyz
x,y,z
-x,-y,1/2+z
x,-y,-z
-x,y,1/2-z
-x,-y,-z
x,y,1/2-z
-x,y,z
x,-y,1/2+z
1/2+x,1/2+y,z
1/2-x,1/2-y,1/2+z
1/2+x,1/2-y,-z
1/2-x,1/2+y,1/2-z
1/2-x,1/2-y,-z
1/2+x,1/2+y,1/2-z
1/2-x,1/2+y,z
1/2+x,1/2-y,1/2+z
loop_
_atom_site_type_symbol
_atom_site_label
_atom_site_fract_x
_atom_site_fract_y
_atom_site_fract_z
Si Si1 0.558302 0.627646 0.941481
Si Si2 0.639978 0.478835 0.334775
Si Si3 0.797516 0.293773 0.836353
Si Si4 0.204441 0.867698 0.554190
Si Si5 0.860826 0.650834 0.466907
O O1 0.500000 0.670082 0.922788
O O2 0.586629 0.590255 0.862146
O O3 0.587333 0.760595 0.978468
O O4 0.560690 0.500000 0.000000
O O5 0.631509 0.540561 0.250000
O O6 0.688007 0.370795 0.334751
O O7 0.653908 0.597418 0.396093
O O8 0.790662 0.351674 0.750000
O O9 0.746624 0.322565 0.884579
O O10 0.845454 0.371527 0.877853
O O11 0.188762 0.733074 0.503029
O O12 0.220352 0.000000 0.500000
O O13 0.871041 0.500000 0.500000
#
# Coordination Sequence:
#
# PCOD8258174 Si02
#       5
#    16  16  16  16  16
#     4  10  19  38  63  83 107 141 187 236 279 330
#     4  10  20  36  56  84 115 143 185 235 278 328
#     4  10  22  35  52  82 115 149 189 228 277 331
#     4  12  20  37  55  80 111 155 191 229 270 330
#     4  11  22  37  56  82 114 148 187 233 281 331
#
# _framework density 18.422369
#
# number of rings (size 3 to 8) (size 9 to 14) (size 15 to 20)
#    0.000    1.400    6.000    1.800    2.800    0.800 
#    0.000    1.000    0.000    0.000    0.000    0.000 
#    0.000    0.000    0.000    0.000    0.000    0.000 
#
# Total GULP energy -495733.167975 kJ/mol
# GULP energy per Si atom -12393.329199 kJ/mol
# Density = 1.838044 g / cm^3
# Si number density = 18.422369 Si / 1000 Ang^3
#
#
#
# Elastic Constant Matrix: (Units=GPa)
#
#
# Indices 1 2 3 4 5 6 
#
# 1 114.7781 34.0277 48.7197 0.0000 0.0000 0.0000
# 2 34.0277 82.4115 38.3863 0.0000 0.0000 0.0000
# 3 48.7197 38.3863 130.5865 0.0000 0.0000 0.0000
# 4 0.0000 0.0000 0.0000 13.3251 0.0000 0.0000
# 5 0.0000 0.0000 0.0000 0.0000 21.3641 0.0000
# 6 0.0000 0.0000 0.0000 0.0000 0.0000 21.7545
#
#
#
# Elastic Compliance Matrix: (Units=1/GPa)
#
#
# Indices 1 2 3 4 5 6 
#
# 1 0.010972 -0.003040 -0.003200 0.000000 0.000000 0.000000
# 2 -0.003040 0.014901 -0.003246 0.000000 0.000000 0.000000
# 3 -0.003200 -0.003246 0.009806 0.000000 0.000000 0.000000
# 4 0.000000 0.000000 0.000000 0.075046 0.000000 0.000000
# 5 0.000000 0.000000 0.000000 0.000000 0.046808 0.000000
# 6 0.000000 0.000000 0.000000 0.000000 0.000000 0.045967
#
#
# Mechanical properties :
#
#
# Convention : Reuss Voigt Hill
#
# Bulk Modulus (GPa) = 59.85403 63.33817 61.59610
# Shear Modulus (GPa) = 21.92584 25.06490 23.49537
#
# Velocity S-wave (km/s) = 3.45363 3.69259 3.57511
# Velocity P-wave (km/s) = 6.96160 7.25507 7.10985
#
# Compressibility (1/GPa) = 0.01670731
#
# Stress axis : x y z
#
# Youngs Moduli (GPa) = 91.14180 67.10769 101.98030
#
# Poissons Ratio (x) = 0.20400 0.32632
# Poissons Ratio (y) = 0.27706 0.33105
# Poissons Ratio (z) = 0.29164 0.21785
#
# Static dielectric constant tensor:
#      x y z
#    x 3.419060 0.000000 0.000000 
#    y 0.000000 3.252870 0.000000 
#    z 0.000000 0.000000 3.694330 
# 
# 
# High freq. dielectric constant tensor:
#      x y z
#    x 1.701880 0.000000 0.000000 
#    y 0.000000 1.693220 0.000000 
#    z 0.000000 0.000000 1.725870 
# 
# From -- ./inp_files/48756.got.cif
#   From: 2010.03.12/outbox.cif.g09.slc.cpg/sg63_25_cif.got.tgz:48756.got - 2010.04.10 19:34:48.
