data_PCOD8258684
_publ_section_title
;
Structure prediction by ZEFSAII (Michael W. Deem and Ramdas Pophale) SiO2 
 PCOD8258684
Probable space group: C M C M
;
_chemical_formula_sum "Si O2"
_cell_formula_units_Z 80
_cell_length_a 13.726741
_cell_length_b 12.003990
_cell_length_c 22.306833
_cell_angle_alpha 90.000000
_cell_angle_beta 90.000000
_cell_angle_gamma 90.000000
_cell_volume 3675.623168
_symmetry_space_group_name_H-M "C M C M"
_symmetry_group_IT_number 63
_symmetry_cell_setting 'orthorhombic'
loop_
_space_group_symop_operation_xyz
x,y,z
-x,-y,1/2+z
x,-y,-z
-x,y,1/2-z
-x,-y,-z
x,y,1/2-z
-x,y,z
x,-y,1/2+z
1/2+x,1/2+y,z
1/2-x,1/2-y,1/2+z
1/2+x,1/2-y,-z
1/2-x,1/2+y,1/2-z
1/2-x,1/2-y,-z
1/2+x,1/2+y,1/2-z
1/2-x,1/2+y,z
1/2+x,1/2-y,1/2+z
loop_
_atom_site_type_symbol
_atom_site_label
_atom_site_fract_x
_atom_site_fract_y
_atom_site_fract_z
Si Si1 0.610538 0.354871 0.121152
Si Si2 0.205757 0.275150 0.319019
Si Si3 0.390092 0.066161 0.589031
Si Si4 0.389824 0.262616 0.504558
Si Si5 0.208171 0.919890 0.595082
O O1 0.500000 0.346802 0.144546
O O2 0.683687 0.320632 0.174049
O O3 0.631825 0.479139 0.097966
O O4 0.630977 0.269106 0.066364
O O5 0.175817 0.275116 0.250000
O O6 0.131118 0.354292 0.354310
O O7 0.197369 0.149881 0.343716
O O8 0.500000 0.020156 0.594108
O O9 0.375886 0.136421 0.527697
O O10 0.318638 0.961692 0.588407
O O11 0.500000 0.303077 0.518415
O O12 0.314331 0.344207 0.537450
#
# Coordination Sequence:
#
# PCOD8258684 Si02
#       5
#    16  16  16  16  16
#     4  10  21  37  59  85 113 145 181 226 280 335
#     4  10  23  40  55  76 109 147 189 235 279 322
#     4   9  20  38  59  83 112 148 188 226 272 333
#     4   9  18  35  58  86 117 145 177 221 277 340
#     4  10  20  33  58  86 113 143 182 229 278 330
#
# _framework density 21.765017
#
# number of rings (size 3 to 8) (size 9 to 14) (size 15 to 20)
#    0.000    2.400    0.000    1.200    0.000   16.000 
#    0.000    0.000    0.000   13.200    0.000    0.000 
#    0.000    0.000    0.000    0.000    0.000    0.000 
#
# Total GULP energy -496167.386618 kJ/mol
# GULP energy per Si atom -12404.184665 kJ/mol
# Density = 2.171548 g / cm^3
# Si number density = 21.765017 Si / 1000 Ang^3
#
#
#
# Elastic Constant Matrix: (Units=GPa)
#
#
# Indices 1 2 3 4 5 6 
#
# 1 107.3898 0.7335 -2.1603 0.0000 0.0000 0.0000
# 2 0.7335 39.7258 -8.3129 0.0000 0.0000 0.0000
# 3 -2.1603 -8.3129 58.9060 0.0000 0.0000 0.0000
# 4 0.0000 0.0000 0.0000 15.7146 0.0000 0.0000
# 5 0.0000 0.0000 0.0000 0.0000 22.0456 0.0000
# 6 0.0000 0.0000 0.0000 0.0000 0.0000 25.6697
#
#
#
# Elastic Compliance Matrix: (Units=1/GPa)
#
#
# Indices 1 2 3 4 5 6 
#
# 1 0.009319 -0.000104 0.000327 0.000000 0.000000 0.000000
# 2 -0.000104 0.025940 0.003657 0.000000 0.000000 0.000000
# 3 0.000327 0.003657 0.017504 0.000000 0.000000 0.000000
# 4 0.000000 0.000000 0.000000 0.063635 0.000000 0.000000
# 5 0.000000 0.000000 0.000000 0.000000 0.045361 0.000000
# 6 0.000000 0.000000 0.000000 0.000000 0.000000 0.038956
#
#
# Mechanical properties :
#
#
# Convention : Reuss Voigt Hill
#
# Bulk Modulus (GPa) = 16.52239 20.72690 18.62464
# Shear Modulus (GPa) = 23.45995 27.07005 25.26500
#
# Velocity S-wave (km/s) = 3.28666 3.53050 3.41076
# Velocity P-wave (km/s) = 4.69154 5.11497 4.90783
#
# Compressibility (1/GPa) = 0.06052394
#
# Stress axis : x y z
#
# Youngs Moduli (GPa) = 107.30578 38.55095 57.12892
#
# Poissons Ratio (x) = 0.00399 -0.01869
# Poissons Ratio (y) = 0.01112 -0.20891
# Poissons Ratio (z) = -0.03510 -0.14098
#
# Static dielectric constant tensor:
#      x y z
#    x 4.048650 0.000000 0.000000 
#    y 0.000000 3.871130 0.000000 
#    z 0.000000 0.000000 3.542840 
# 
# 
# High freq. dielectric constant tensor:
#      x y z
#    x 1.871020 0.000000 0.000000 
#    y 0.000000 1.860400 0.000000 
#    z 0.000000 0.000000 1.824270 
# 
# From -- ./inp_files/62538.got.cif
#   From: 2010.03.12/outbox.cif.g09.slc.cpg/sg63_32_cif.got.tgz:62538.got - 2010.04.10 19:34:48.
