data_PCOD8258473
_publ_section_title
;
Structure prediction by ZEFSAII (Michael W. Deem and Ramdas Pophale) SiO2 
 PCOD8258473
Probable space group: C M C M
;
_chemical_formula_sum "Si O2"
_cell_formula_units_Z 96
_cell_length_a 19.096332
_cell_length_b 28.131551
_cell_length_c 8.804776
_cell_angle_alpha 90.000000
_cell_angle_beta 90.000000
_cell_angle_gamma 90.000000
_cell_volume 4730.008763
_symmetry_space_group_name_H-M "C M C M"
_symmetry_group_IT_number 63
_symmetry_cell_setting 'orthorhombic'
loop_
_space_group_symop_operation_xyz
x,y,z
-x,-y,1/2+z
x,-y,-z
-x,y,1/2-z
-x,-y,-z
x,y,1/2-z
-x,y,z
x,-y,1/2+z
1/2+x,1/2+y,z
1/2-x,1/2-y,1/2+z
1/2+x,1/2-y,-z
1/2-x,1/2+y,1/2-z
1/2-x,1/2-y,-z
1/2+x,1/2+y,1/2-z
1/2-x,1/2+y,z
1/2+x,1/2-y,1/2+z
loop_
_atom_site_type_symbol
_atom_site_label
_atom_site_fract_x
_atom_site_fract_y
_atom_site_fract_z
Si Si1 0.078715 0.892137 0.926789
Si Si2 0.575982 0.950560 0.579426
Si Si3 0.210121 0.949120 0.926862
Si Si4 0.417128 0.296779 0.080939
Si Si5 0.080121 0.699946 0.929961
Si Si6 0.677920 0.115565 0.926379
O O1 0.078018 0.879942 0.750000
O O2 0.128756 0.937084 0.961945
O O3 0.000000 0.904733 0.983710
O O4 0.110596 0.845617 0.008385
O O5 0.610065 0.953133 0.750000
O O6 0.500000 0.926146 0.594813
O O7 0.620372 0.923832 0.454675
O O8 0.566530 0.000000 0.500000
O O9 0.224765 0.954507 0.750000
O O10 0.253307 0.903197 0.986381
O O11 0.230698 0.000000 0.000000
O O12 0.385868 0.291969 0.250000
O O13 0.500000 0.299299 0.083705
O O14 0.393204 0.251422 0.983868
O O15 0.078437 0.698221 0.750000
O O16 0.140340 0.663636 0.990267
O O17 0.000000 0.689265 0.990130
O O18 0.696684 0.120481 0.750000
#
# Coordination Sequence:
#
# PCOD8258473 Si02
#       6
#    16  16  16  16  16  16
#     4   9  19  38  63  87 111 141 177 219 272 336
#     4  10  20  33  50  72  99 134 179 231 281 326
#     4  11  24  41  60  82 110 144 182 226 279 336
#     4   9  17  30  53  86 118 145 176 220 272 323
#     4   9  18  33  54  80 111 149 190 229 269 315
#     4  11  22  36  54  76 107 147 189 230 273 323
#
# _framework density 20.295947000000002
#
# number of rings (size 3 to 8) (size 9 to 14) (size 15 to 20)
#    0.000    2.167    0.000    3.000    0.000    6.667 
#    0.000    2.500    0.000    0.000    0.000    0.000 
#    0.000    0.000    0.000    0.000    0.000    0.000 
#
# Total GULP energy -594684.853892 kJ/mol
# GULP energy per Si atom -12389.267789 kJ/mol
# Density = 2.024975 g / cm^3
# Si number density = 20.295947 Si / 1000 Ang^3
#
#
#
# Elastic Constant Matrix: (Units=GPa)
#
#
# Indices 1 2 3 4 5 6 
#
# 1 79.0614 42.3073 23.8247 0.0000 0.0000 0.0000
# 2 42.3073 79.4875 26.5133 0.0000 0.0000 0.0000
# 3 23.8247 26.5133 59.0883 0.0000 0.0000 0.0000
# 4 0.0000 0.0000 0.0000 22.7659 0.0000 0.0000
# 5 0.0000 0.0000 0.0000 0.0000 28.9629 0.0000
# 6 0.0000 0.0000 0.0000 0.0000 0.0000 30.0435
#
#
#
# Elastic Compliance Matrix: (Units=1/GPa)
#
#
# Indices 1 2 3 4 5 6 
#
# 1 0.018293 -0.008557 -0.003536 0.000000 0.000000 0.000000
# 2 -0.008557 0.018798 -0.004984 0.000000 0.000000 0.000000
# 3 -0.003536 -0.004984 0.020586 0.000000 0.000000 0.000000
# 4 0.000000 0.000000 0.000000 0.043925 0.000000 0.000000
# 5 0.000000 0.000000 0.000000 0.000000 0.034527 0.000000
# 6 0.000000 0.000000 0.000000 0.000000 0.000000 0.033285
#
#
# Mechanical properties :
#
#
# Convention : Reuss Voigt Hill
#
# Bulk Modulus (GPa) = 42.51416 44.76976 43.64196
# Shear Modulus (GPa) = 23.65074 24.68726 24.16900
#
# Velocity S-wave (km/s) = 3.41734 3.49142 3.45458
# Velocity P-wave (km/s) = 6.04678 6.19352 6.12059
#
# Compressibility (1/GPa) = 0.02352157
#
# Stress axis : x y z
#
# Youngs Moduli (GPa) = 54.66563 53.19833 48.57620
#
# Poissons Ratio (x) = 0.45521 0.17178
# Poissons Ratio (y) = 0.46777 0.24212
# Poissons Ratio (z) = 0.19331 0.26516
#
# Static dielectric constant tensor:
#      x y z
#    x 3.763250 0.000000 0.000000 
#    y 0.000000 3.766310 0.000000 
#    z 0.000000 0.000000 3.696680 
# 
# 
# High freq. dielectric constant tensor:
#      x y z
#    x 1.778600 0.000000 0.000000 
#    y 0.000000 1.787370 0.000000 
#    z 0.000000 0.000000 1.791360 
# 
# From -- ./inp_files/8521.got.cif
#   From: 2010.03.12/outbox.cif.g09.slc.cpg/sg63_5_cif.got.tgz:8521.got - 2010.04.10 19:34:48.
