data_PCOD8258601
_publ_section_title
;
Structure prediction by ZEFSAII (Michael W. Deem and Ramdas Pophale) SiO2 
 PCOD8258601
Probable space group: C M C M
;
_chemical_formula_sum "Si O2"
_cell_formula_units_Z 112
_cell_length_a 24.790687
_cell_length_b 14.029860
_cell_length_c 17.155646
_cell_angle_alpha 90.000000
_cell_angle_beta 90.000000
_cell_angle_gamma 90.000000
_cell_volume 5966.902969
_symmetry_space_group_name_H-M "C M C M"
_symmetry_group_IT_number 63
_symmetry_cell_setting 'orthorhombic'
loop_
_space_group_symop_operation_xyz
x,y,z
-x,-y,1/2+z
x,-y,-z
-x,y,1/2-z
-x,-y,-z
x,y,1/2-z
-x,y,z
x,-y,1/2+z
1/2+x,1/2+y,z
1/2-x,1/2-y,1/2+z
1/2+x,1/2-y,-z
1/2-x,1/2+y,1/2-z
1/2-x,1/2-y,-z
1/2+x,1/2+y,1/2-z
1/2-x,1/2+y,z
1/2+x,1/2-y,1/2+z
loop_
_atom_site_type_symbol
_atom_site_label
_atom_site_fract_x
_atom_site_fract_y
_atom_site_fract_z
Si Si1 0.937235 0.719153 0.335372
Si Si2 0.438828 0.429232 0.157754
Si Si3 0.756985 0.849173 0.341931
Si Si4 0.749668 0.132661 0.159132
Si Si5 0.558566 0.974990 0.910690
Si Si6 0.164585 0.997520 0.591675
Si Si7 0.672284 0.979748 0.091821
O O1 0.911084 0.694242 0.250000
O O2 0.917546 0.822740 0.365402
O O3 0.925833 0.636603 0.398511
O O4 0.000000 0.732284 0.321414
O O5 0.435982 0.442535 0.250000
O O6 0.500000 0.448816 0.128027
O O7 0.398220 0.504111 0.116937
O O8 0.749103 0.863148 0.250000
O O9 0.765242 0.739742 0.365633
O O10 0.807947 0.909861 0.369825
O O11 0.703224 0.883493 0.386687
O O12 0.759795 0.124167 0.250000
O O13 0.805065 0.098221 0.118945
O O14 0.699162 0.068475 0.135404
O O15 0.500000 0.997100 0.869302
O O16 0.610098 0.033171 0.878319
O O17 0.551204 0.000000 0.000000
O O18 0.170173 0.000000 0.500000
O O19 0.673805 0.000000 0.000000
#
# Coordination Sequence:
#
# PCOD8258601 Si02
#       7
#    16  16  16  16  16  16  16
#     4   8  15  28  48  75 101 130 173 219 259 300
#     4   9  18  34  56  81 110 141 176 222 269 314
#     4  10  21  37  56  76 102 138 180 223 266 315
#     4  10  21  37  57  78 103 139 180 223 268 314
#     4   9  18  32  48  73 109 142 171 206 260 320
#     4  11  22  35  54  83 112 141 175 218 269 326
#     4  10  20  33  52  79 106 137 173 214 264 316
#
# _framework density 18.770206000000002
#
# number of rings (size 3 to 8) (size 9 to 14) (size 15 to 20)
#    0.000    2.429    0.000    5.143    2.000    3.714 
#    2.571    0.000    0.000    0.857    0.000    2.000 
#    0.000    0.000    0.000    0.000    0.000    0.000 
#
# Total GULP energy -693908.314796 kJ/mol
# GULP energy per Si atom -12391.219907 kJ/mol
# Density = 1.872748 g / cm^3
# Si number density = 18.770206 Si / 1000 Ang^3
#
#
#
# Elastic Constant Matrix: (Units=GPa)
#
#
# Indices 1 2 3 4 5 6 
#
# 1 118.1121 16.7413 21.0748 0.0000 0.0000 0.0000
# 2 16.7413 62.3134 23.0476 0.0000 0.0000 0.0000
# 3 21.0748 23.0476 70.3534 0.0000 0.0000 0.0000
# 4 0.0000 0.0000 0.0000 3.6695 0.0000 0.0000
# 5 0.0000 0.0000 0.0000 0.0000 12.2046 0.0000
# 6 0.0000 0.0000 0.0000 0.0000 0.0000 19.7090
#
#
#
# Elastic Compliance Matrix: (Units=1/GPa)
#
#
# Indices 1 2 3 4 5 6 
#
# 1 0.009088 -0.001633 -0.002188 0.000000 0.000000 0.000000
# 2 -0.001633 0.018554 -0.005589 0.000000 0.000000 0.000000
# 3 -0.002188 -0.005589 0.016700 0.000000 0.000000 0.000000
# 4 0.000000 0.000000 0.000000 0.272515 0.000000 0.000000
# 5 0.000000 0.000000 0.000000 0.000000 0.081937 0.000000
# 6 0.000000 0.000000 0.000000 0.000000 0.000000 0.050738
#
#
# Mechanical properties :
#
#
# Convention : Reuss Voigt Hill
#
# Bulk Modulus (GPa) = 39.17933 41.38959 40.28446
# Shear Modulus (GPa) = 10.48528 19.77762 15.13145
#
# Velocity S-wave (km/s) = 2.36606 3.24955 2.84234
# Velocity P-wave (km/s) = 5.32755 6.01482 5.68158
#
# Compressibility (1/GPa) = 0.02552366
#
# Stress axis : x y z
#
# Youngs Moduli (GPa) = 110.03188 53.89748 59.87935
#
# Poissons Ratio (x) = 0.08799 0.13099
# Poissons Ratio (y) = 0.17963 0.33467
# Poissons Ratio (z) = 0.24071 0.30124
#
# Static dielectric constant tensor:
#      x y z
#    x 3.829730 0.000000 0.000000 
#    y 0.000000 3.491310 0.000000 
#    z 0.000000 0.000000 3.355720 
# 
# 
# High freq. dielectric constant tensor:
#      x y z
#    x 1.739410 0.000000 0.000000 
#    y 0.000000 1.707880 0.000000 
#    z 0.000000 0.000000 1.718940 
# 
# From -- ./inp_files/37934.got.cif
#   From: 2010.03.12/outbox.cif.g09.slc.cpg/sg63_19_cif.got.tgz:37934.got - 2010.04.10 19:34:48.
