data_PCOD8258338
_publ_section_title
;
Structure prediction by ZEFSAII (Michael W. Deem and Ramdas Pophale) SiO2 
 PCOD8258338
Probable space group: C M C M
;
_chemical_formula_sum "Si O2"
_cell_formula_units_Z 96
_cell_length_a 23.624509
_cell_length_b 13.485763
_cell_length_c 17.977339
_cell_angle_alpha 90.000000
_cell_angle_beta 90.000000
_cell_angle_gamma 90.000000
_cell_volume 5727.481858
_symmetry_space_group_name_H-M "C M C M"
_symmetry_group_IT_number 63
_symmetry_cell_setting 'orthorhombic'
loop_
_space_group_symop_operation_xyz
x,y,z
-x,-y,1/2+z
x,-y,-z
-x,y,1/2-z
-x,-y,-z
x,y,1/2-z
-x,y,z
x,-y,1/2+z
1/2+x,1/2+y,z
1/2-x,1/2-y,1/2+z
1/2+x,1/2-y,-z
1/2-x,1/2+y,1/2-z
1/2-x,1/2-y,-z
1/2+x,1/2+y,1/2-z
1/2-x,1/2+y,z
1/2+x,1/2-y,1/2+z
loop_
_atom_site_type_symbol
_atom_site_label
_atom_site_fract_x
_atom_site_fract_y
_atom_site_fract_z
Si Si1 0.273629 0.206523 0.665150
Si Si2 0.769056 0.494555 0.087490
Si Si3 0.064052 0.791998 0.164358
Si Si4 0.835462 0.094542 0.336704
Si Si5 0.167511 0.338044 0.835728
Si Si6 0.434926 0.495527 0.086513
O O1 0.277921 0.169283 0.750000
O O2 0.320071 0.291104 0.648787
O O3 0.211477 0.249656 0.648517
O O4 0.286325 0.116435 0.610064
O O5 0.709920 0.522093 0.125653
O O6 0.819232 0.567665 0.113113
O O7 0.761474 0.500000 0.000000
O O8 0.072671 0.823702 0.250000
O O9 0.104992 0.700772 0.143915
O O10 0.000000 0.756385 0.149077
O O11 0.080039 0.885735 0.114362
O O12 0.835362 0.069118 0.250000
O O13 0.897211 0.076030 0.370727
O O14 0.172420 0.371910 0.750000
O O15 0.500000 0.522381 0.103415
O O16 0.420884 0.500000 0.000000
#
# Coordination Sequence:
#
# PCOD8258338 Si02
#       6
#    16  16  16  16  16  16
#     4   9  18  32  48  67  93 125 159 194 234 281
#     4  11  21  31  48  73  99 126 156 195 243 291
#     4   9  17  30  50  73  94 122 162 203 239 276
#     4  10  20  33  50  70  94 128 164 197 234 278
#     4   9  18  32  50  70  93 123 158 196 237 281
#     4  10  20  32  48  73 103 130 155 191 239 285
#
# _framework density 16.761292000000001
#
# number of rings (size 3 to 8) (size 9 to 14) (size 15 to 20)
#    0.000    2.333    0.000    4.500    0.000    6.333 
#    0.000    0.000    0.000    1.500    0.000    2.333 
#    0.000    0.000    0.000    0.000    0.000    0.000 
#
# Total GULP energy -595353.753797 kJ/mol
# GULP energy per Si atom -12403.203204 kJ/mol
# Density = 1.672314 g / cm^3
# Si number density = 16.761292 Si / 1000 Ang^3
#
#
#
# Elastic Constant Matrix: (Units=GPa)
#
#
# Indices 1 2 3 4 5 6 
#
# 1 104.8345 56.5058 54.1487 0.0000 0.0000 0.0000
# 2 56.5058 99.3032 62.1970 0.0000 0.0000 0.0000
# 3 54.1487 62.1970 113.0066 0.0000 0.0000 0.0000
# 4 0.0000 0.0000 0.0000 16.0846 0.0000 0.0000
# 5 0.0000 0.0000 0.0000 0.0000 25.2696 0.0000
# 6 0.0000 0.0000 0.0000 0.0000 0.0000 18.7999
#
#
#
# Elastic Compliance Matrix: (Units=1/GPa)
#
#
# Indices 1 2 3 4 5 6 
#
# 1 0.014721 -0.006041 -0.003729 0.000000 0.000000 0.000000
# 2 -0.006041 0.017847 -0.006928 0.000000 0.000000 0.000000
# 3 -0.003729 -0.006928 0.014449 0.000000 0.000000 0.000000
# 4 0.000000 0.000000 0.000000 0.062171 0.000000 0.000000
# 5 0.000000 0.000000 0.000000 0.000000 0.039573 0.000000
# 6 0.000000 0.000000 0.000000 0.000000 0.000000 0.053192
#
#
# Mechanical properties :
#
#
# Convention : Reuss Voigt Hill
#
# Bulk Modulus (GPa) = 73.41660 73.64969 73.53315
# Shear Modulus (GPa) = 20.84295 21.65034 21.24664
#
# Velocity S-wave (km/s) = 3.53018 3.59790 3.56420
# Velocity P-wave (km/s) = 7.77898 7.82915 7.80411
#
# Compressibility (1/GPa) = 0.01362090
#
# Stress axis : x y z
#
# Youngs Moduli (GPa) = 67.93009 56.03209 69.20973
#
# Poissons Ratio (x) = 0.33849 0.25807
# Poissons Ratio (y) = 0.41037 0.47948
# Poissons Ratio (z) = 0.25330 0.38819
#
# Static dielectric constant tensor:
#      x y z
#    x 3.181380 0.000000 0.000000 
#    y 0.000000 2.993330 0.000000 
#    z 0.000000 0.000000 3.149230 
# 
# 
# High freq. dielectric constant tensor:
#      x y z
#    x 1.639130 0.000000 0.000000 
#    y 0.000000 1.634460 0.000000 
#    z 0.000000 0.000000 1.648780 
# 
# From -- ./inp_files/48006.got.cif
#   From: 2010.03.12/outbox.cif.g09.slc.cpg/sg63_25_cif.got.tgz:48006.got - 2010.04.10 19:34:48.
