data_PCOD8258550
_publ_section_title
;
Structure prediction by ZEFSAII (Michael W. Deem and Ramdas Pophale) SiO2 
 PCOD8258550
Probable space group: C M C M
;
_chemical_formula_sum "Si O2"
_cell_formula_units_Z 112
_cell_length_a 12.784016
_cell_length_b 26.656733
_cell_length_c 18.186921
_cell_angle_alpha 90.000000
_cell_angle_beta 90.000000
_cell_angle_gamma 90.000000
_cell_volume 6197.740779
_symmetry_space_group_name_H-M "C M C M"
_symmetry_group_IT_number 63
_symmetry_cell_setting 'orthorhombic'
loop_
_space_group_symop_operation_xyz
x,y,z
-x,-y,1/2+z
x,-y,-z
-x,y,1/2-z
-x,-y,-z
x,y,1/2-z
-x,y,z
x,-y,1/2+z
1/2+x,1/2+y,z
1/2-x,1/2-y,1/2+z
1/2+x,1/2-y,-z
1/2-x,1/2+y,1/2-z
1/2-x,1/2-y,-z
1/2+x,1/2+y,1/2-z
1/2-x,1/2+y,z
1/2+x,1/2-y,1/2+z
loop_
_atom_site_type_symbol
_atom_site_label
_atom_site_fract_x
_atom_site_fract_y
_atom_site_fract_z
Si Si1 0.620797 0.682108 0.424225
Si Si2 0.117435 0.080922 0.163848
Si Si3 0.120973 0.548736 0.543863
Si Si4 0.744187 0.850911 0.443520
Si Si5 0.622818 0.220149 0.665719
Si Si6 0.117228 0.900563 0.330289
Si Si7 0.736992 0.006220 0.830602
O O1 0.500000 0.688723 0.451840
O O2 0.634965 0.631314 0.380292
O O3 0.705308 0.681937 0.490784
O O4 0.651974 0.725802 0.367470
O O5 0.132294 0.091643 0.250000
O O6 0.000000 0.060026 0.149113
O O7 0.206786 0.042758 0.134844
O O8 0.161911 0.500000 0.500000
O O9 0.186546 0.598990 0.525478
O O10 0.138639 0.529988 0.627037
O O11 0.000000 0.560382 0.528412
O O12 0.664871 0.820824 0.391653
O O13 0.841068 0.864146 0.392401
O O14 0.667216 0.215097 0.750000
O O15 0.500000 0.211959 0.669081
O O16 0.127151 0.874354 0.250000
O O17 0.172356 0.953485 0.328092
O O18 0.000000 0.912737 0.351740
O O19 0.693663 0.993353 0.750000
#
# Coordination Sequence:
#
# PCOD8258550 Si02
#       7
#    16  16  16  16  16  16  16
#     4  10  20  33  51  76 103 129 159 201 252 303
#     4   9  16  28  48  73 101 133 166 200 245 301
#     4  10  21  35  49  68  97 132 167 204 246 289
#     4  11  20  33  52  74  98 129 166 203 244 295
#     4  10  21  37  55  75  99 127 163 207 251 294
#     4   9  17  29  45  68  99 130 158 192 235 284
#     4   9  17  29  47  71  97 127 164 203 241 285
#
# _framework density 18.071100000000001
#
# number of rings (size 3 to 8) (size 9 to 14) (size 15 to 20)
#    0.000    2.286    0.000    3.429    0.000    4.286 
#    0.000    0.000    0.000    6.857    0.000    0.000 
#    0.000   12.571    0.000    0.000    0.000    0.000 
#
# Total GULP energy -693894.112965 kJ/mol
# GULP energy per Si atom -12390.966303 kJ/mol
# Density = 1.802997 g / cm^3
# Si number density = 18.071100 Si / 1000 Ang^3
#
#
#
# Elastic Constant Matrix: (Units=GPa)
#
#
# Indices 1 2 3 4 5 6 
#
# 1 46.8555 17.9025 34.6578 0.0000 0.0000 0.0000
# 2 17.9025 68.0416 36.6824 0.0000 0.0000 0.0000
# 3 34.6578 36.6824 80.8123 0.0000 0.0000 0.0000
# 4 0.0000 0.0000 0.0000 29.3620 0.0000 0.0000
# 5 0.0000 0.0000 0.0000 0.0000 18.7268 0.0000
# 6 0.0000 0.0000 0.0000 0.0000 0.0000 20.4815
#
#
#
# Elastic Compliance Matrix: (Units=1/GPa)
#
#
# Indices 1 2 3 4 5 6 
#
# 1 0.031348 -0.001324 -0.012843 0.000000 0.000000 0.000000
# 2 -0.001324 0.019515 -0.008290 0.000000 0.000000 0.000000
# 3 -0.012843 -0.008290 0.021645 0.000000 0.000000 0.000000
# 4 0.000000 0.000000 0.000000 0.034058 0.000000 0.000000
# 5 0.000000 0.000000 0.000000 0.000000 0.053399 0.000000
# 6 0.000000 0.000000 0.000000 0.000000 0.000000 0.048825
#
#
# Mechanical properties :
#
#
# Convention : Reuss Voigt Hill
#
# Bulk Modulus (GPa) = 36.24086 41.57719 38.90902
# Shear Modulus (GPa) = 19.01850 20.81184 19.91517
#
# Velocity S-wave (km/s) = 3.24763 3.39730 3.32331
# Velocity P-wave (km/s) = 5.84474 6.20051 6.02525
#
# Compressibility (1/GPa) = 0.02759317
#
# Stress axis : x y z
#
# Youngs Moduli (GPa) = 31.90024 51.24337 46.19913
#
# Poissons Ratio (x) = 0.06785 0.59334
# Poissons Ratio (y) = 0.04224 0.38300
# Poissons Ratio (z) = 0.40969 0.42482
#
# Static dielectric constant tensor:
#      x y z
#    x 3.201450 0.000000 0.000000 
#    y 0.000000 3.391950 0.000000 
#    z 0.000000 0.000000 3.836690 
# 
# 
# High freq. dielectric constant tensor:
#      x y z
#    x 1.687730 0.000000 0.000000 
#    y 0.000000 1.697490 0.000000 
#    z 0.000000 0.000000 1.703360 
# 
# From -- ./inp_files/53157.got.cif
#   From: 2010.03.12/outbox.cif.g09.slc.cpg/sg63_27_cif.got.tgz:53157.got - 2010.04.10 19:34:48.
