data_PCOD8258734
_publ_section_title
;
Structure prediction by ZEFSAII (Michael W. Deem and Ramdas Pophale) SiO2 
 PCOD8258734
Probable space group: C M C M
;
_chemical_formula_sum "Si O2"
_cell_formula_units_Z 80
_cell_length_a 9.084619
_cell_length_b 27.330682
_cell_length_c 18.222980
_cell_angle_alpha 90.000000
_cell_angle_beta 90.000000
_cell_angle_gamma 90.000000
_cell_volume 4524.562438
_symmetry_space_group_name_H-M "C M C M"
_symmetry_group_IT_number 63
_symmetry_cell_setting 'orthorhombic'
loop_
_space_group_symop_operation_xyz
x,y,z
-x,-y,1/2+z
x,-y,-z
-x,y,1/2-z
-x,-y,-z
x,y,1/2-z
-x,y,z
x,-y,1/2+z
1/2+x,1/2+y,z
1/2-x,1/2-y,1/2+z
1/2+x,1/2-y,-z
1/2-x,1/2+y,1/2-z
1/2-x,1/2-y,-z
1/2+x,1/2+y,1/2-z
1/2-x,1/2+y,z
1/2+x,1/2-y,1/2+z
loop_
_atom_site_type_symbol
_atom_site_label
_atom_site_fract_x
_atom_site_fract_y
_atom_site_fract_z
Si Si1 0.168939 0.466106 0.833572
Si Si2 0.169478 0.701690 0.975933
Si Si3 0.170850 0.598602 0.467340
Si Si4 0.674223 0.558854 0.603789
Si Si5 0.331239 0.850713 0.168430
O O1 0.203996 0.450947 0.750000
O O2 0.198790 0.418485 0.884055
O O3 0.275731 0.509035 0.858367
O O4 0.000000 0.483612 0.842102
O O5 0.202457 0.692096 0.889847
O O6 0.000000 0.711158 0.991348
O O7 0.250000 0.750000 0.000000
O O8 0.224862 0.654659 0.022856
O O9 0.258889 0.563052 0.522218
O O10 0.000000 0.595081 0.489826
O O11 0.500000 0.559429 0.597792
O O12 0.727130 0.603160 0.654873
O O13 0.301594 0.829985 0.250000
O O14 0.500000 0.868402 0.159302
#
# Coordination Sequence:
#
# PCOD8258734 Si02
#       5
#    16  16  16  16  16
#     4  10  20  34  52  72  97 133 172 204 237 284
#     4   9  18  33  53  75  97 124 160 202 247 293
#     4   9  19  36  54  71  95 131 173 208 239 288
#     4  11  21  31  48  76 106 132 161 201 249 296
#     4   9  18  34  54  74  98 130 168 206 244 292
#
# _framework density 17.681266999999998
#
# number of rings (size 3 to 8) (size 9 to 14) (size 15 to 20)
#    0.000    2.400    0.000    4.200    0.000    9.600 
#    0.000    1.000    0.000    1.200    0.000    0.000 
#    0.000    0.000    0.000    0.000    0.000    0.000 
#
# Total GULP energy -495970.929286 kJ/mol
# GULP energy per Si atom -12399.273232 kJ/mol
# Density = 1.764102 g / cm^3
# Si number density = 17.681267 Si / 1000 Ang^3
#
#
#
# Elastic Constant Matrix: (Units=GPa)
#
#
# Indices 1 2 3 4 5 6 
#
# 1 79.1352 43.8967 50.5782 0.0000 0.0000 0.0000
# 2 43.8967 100.7375 77.9825 0.0000 0.0000 0.0000
# 3 50.5782 77.9825 158.8830 0.0000 0.0000 0.0000
# 4 0.0000 0.0000 0.0000 20.8077 0.0000 0.0000
# 5 0.0000 0.0000 0.0000 0.0000 11.9604 0.0000
# 6 0.0000 0.0000 0.0000 0.0000 0.0000 29.0199
#
#
#
# Elastic Compliance Matrix: (Units=1/GPa)
#
#
# Indices 1 2 3 4 5 6 
#
# 1 0.017479 -0.005337 -0.002945 0.000000 0.000000 0.000000
# 2 -0.005337 0.017639 -0.006959 0.000000 0.000000 0.000000
# 3 -0.002945 -0.006959 0.010647 0.000000 0.000000 0.000000
# 4 0.000000 0.000000 0.000000 0.048059 0.000000 0.000000
# 5 0.000000 0.000000 0.000000 0.000000 0.083609 0.000000
# 6 0.000000 0.000000 0.000000 0.000000 0.000000 0.034459
#
#
# Mechanical properties :
#
#
# Convention : Reuss Voigt Hill
#
# Bulk Modulus (GPa) = 65.42658 75.96338 70.69498
# Shear Modulus (GPa) = 20.20462 23.44416 21.82439
#
# Velocity S-wave (km/s) = 3.38407 3.64529 3.51710
# Velocity P-wave (km/s) = 7.23553 7.79573 7.52085
#
# Compressibility (1/GPa) = 0.01528431
#
# Stress axis : x y z
#
# Youngs Moduli (GPa) = 57.21093 56.69182 93.92504
#
# Poissons Ratio (x) = 0.30257 0.27658
# Poissons Ratio (y) = 0.30534 0.65359
# Poissons Ratio (z) = 0.16847 0.39450
#
# Static dielectric constant tensor:
#      x y z
#    x 3.183060 0.000000 0.000000 
#    y 0.000000 3.109660 0.000000 
#    z 0.000000 0.000000 3.554510 
# 
# 
# High freq. dielectric constant tensor:
#      x y z
#    x 1.675220 0.000000 0.000000 
#    y 0.000000 1.662940 0.000000 
#    z 0.000000 0.000000 1.691520 
# 
# From -- ./inp_files/40419.got.cif
#   From: 2010.03.12/outbox.cif.g09.slc.cpg/sg63_21_cif.got.tgz:40419.got - 2010.04.10 19:34:48.
