data_PCOD8258642
_publ_section_title
;
Structure prediction by ZEFSAII (Michael W. Deem and Ramdas Pophale) SiO2 
 PCOD8258642
Probable space group: C M C M
;
_chemical_formula_sum "Si O2"
_cell_formula_units_Z 112
_cell_length_a 13.337864
_cell_length_b 24.519100
_cell_length_c 17.290457
_cell_angle_alpha 90.000000
_cell_angle_beta 90.000000
_cell_angle_gamma 90.000000
_cell_volume 5654.540016
_symmetry_space_group_name_H-M "C M C M"
_symmetry_group_IT_number 63
_symmetry_cell_setting 'orthorhombic'
loop_
_space_group_symop_operation_xyz
x,y,z
-x,-y,1/2+z
x,-y,-z
-x,y,1/2-z
-x,-y,-z
x,y,1/2-z
-x,y,z
x,-y,1/2+z
1/2+x,1/2+y,z
1/2-x,1/2-y,1/2+z
1/2+x,1/2-y,-z
1/2-x,1/2+y,1/2-z
1/2-x,1/2-y,-z
1/2+x,1/2+y,1/2-z
1/2-x,1/2+y,z
1/2+x,1/2-y,1/2+z
loop_
_atom_site_type_symbol
_atom_site_label
_atom_site_fract_x
_atom_site_fract_y
_atom_site_fract_z
Si Si1 0.194561 0.785334 0.418451
Si Si2 0.609436 0.686320 0.074906
Si Si3 0.117714 0.005451 0.590523
Si Si4 0.286338 0.404168 0.660791
Si Si5 0.114061 0.115832 0.834552
Si Si6 0.110042 0.710033 0.661796
Si Si7 0.114785 0.677399 0.339652
O O1 0.184296 0.786231 0.511736
O O2 0.117239 0.827824 0.381713
O O3 0.302681 0.811468 0.394399
O O4 0.173174 0.724792 0.385899
O O5 0.500000 0.682158 0.035855
O O6 0.639466 0.627099 0.103004
O O7 0.607823 0.724624 0.150413
O O8 0.195711 0.966449 0.636467
O O9 0.000000 0.993962 0.611067
O O10 0.135902 0.000000 0.500000
O O11 0.156009 0.065465 0.615254
O O12 0.316906 0.396556 0.750000
O O13 0.173571 0.380083 0.647610
O O14 0.168059 0.120320 0.750000
O O15 0.000000 0.102304 0.818837
O O16 0.136664 0.696690 0.750000
O O17 0.000000 0.685494 0.639822
O O18 0.115943 0.694221 0.250000
O O19 0.000000 0.670819 0.369112
#
# Coordination Sequence:
#
# PCOD8258642 Si02
#       7
#    16  16  16  16  16  16  16
#     4  12  21  36  56  82 116 158 192 232 292 347
#     4  11  22  34  52  82 116 149 189 235 283 341
#     4  10  21  38  58  82 113 145 184 237 292 347
#     4  11  22  37  59  85 116 157 197 236 294 355
#     4  10  20  33  53  80 108 143 188 234 281 340
#     4  10  21  36  53  76 110 150 192 237 282 336
#     4  10  21  36  56  84 117 154 197 242 286 342
#
# _framework density 19.807092999999998
#
# number of rings (size 3 to 8) (size 9 to 14) (size 15 to 20)
#    0.000    1.429    1.429    5.143    0.000    4.571 
#    0.000    0.000    0.000    1.286    0.000    2.000 
#    0.000    0.000    0.000    0.000    0.000    0.000 
#
# Total GULP energy -694039.673540 kJ/mol
# GULP energy per Si atom -12393.565599 kJ/mol
# Density = 1.976201 g / cm^3
# Si number density = 19.807093 Si / 1000 Ang^3
#
#
#
# Elastic Constant Matrix: (Units=GPa)
#
#
# Indices 1 2 3 4 5 6 
#
# 1 109.0856 12.9153 36.7874 0.0000 0.0000 0.0000
# 2 12.9153 69.7792 12.5295 0.0000 0.0000 0.0000
# 3 36.7874 12.5295 86.7999 0.0000 0.0000 0.0000
# 4 0.0000 0.0000 0.0000 31.5660 0.0000 0.0000
# 5 0.0000 0.0000 0.0000 0.0000 27.5129 0.0000
# 6 0.0000 0.0000 0.0000 0.0000 0.0000 24.5723
#
#
#
# Elastic Compliance Matrix: (Units=1/GPa)
#
#
# Indices 1 2 3 4 5 6 
#
# 1 0.010794 -0.001208 -0.004400 0.000000 0.000000 0.000000
# 2 -0.001208 0.014847 -0.001631 0.000000 0.000000 0.000000
# 3 -0.004400 -0.001631 0.013621 0.000000 0.000000 0.000000
# 4 0.000000 0.000000 0.000000 0.031680 0.000000 0.000000
# 5 0.000000 0.000000 0.000000 0.000000 0.036347 0.000000
# 6 0.000000 0.000000 0.000000 0.000000 0.000000 0.040696
#
#
# Mechanical properties :
#
#
# Convention : Reuss Voigt Hill
#
# Bulk Modulus (GPa) = 40.34909 43.34769 41.84839
# Shear Modulus (GPa) = 29.28682 30.29241 29.78962
#
# Velocity S-wave (km/s) = 3.84943 3.91496 3.88233
# Velocity P-wave (km/s) = 6.33820 6.50910 6.42422
#
# Compressibility (1/GPa) = 0.02478371
#
# Stress axis : x y z
#
# Youngs Moduli (GPa) = 92.64347 67.35197 73.41500
#
# Poissons Ratio (x) = 0.08134 0.32305
# Poissons Ratio (y) = 0.11189 0.11977
# Poissons Ratio (z) = 0.40767 0.10987
#
# Static dielectric constant tensor:
#      x y z
#    x 3.782370 0.000000 0.000000 
#    y 0.000000 3.393440 0.000000 
#    z 0.000000 0.000000 3.694230 
# 
# 
# High freq. dielectric constant tensor:
#      x y z
#    x 1.765640 0.000000 0.000000 
#    y 0.000000 1.745470 0.000000 
#    z 0.000000 0.000000 1.784510 
# 
# From -- ./inp_files/32284.got.cif
#   From: 2010.03.12/outbox.cif.g09.slc.cpg/sg63_17_cif.got.tgz:32284.got - 2010.04.10 19:34:48.
