data_PCOD8258017
_publ_section_title
;
Structure prediction by ZEFSAII (Michael W. Deem and Ramdas Pophale) SiO2 
 PCOD8258017
Probable space group: C M C M
;
_chemical_formula_sum "Si O2"
_cell_formula_units_Z 112
_cell_length_a 32.026232
_cell_length_b 11.786579
_cell_length_c 13.436858
_cell_angle_alpha 90.000000
_cell_angle_beta 90.000000
_cell_angle_gamma 90.000000
_cell_volume 5072.141309
_symmetry_space_group_name_H-M "C M C M"
_symmetry_group_IT_number 63
_symmetry_cell_setting 'orthorhombic'
loop_
_space_group_symop_operation_xyz
x,y,z
-x,-y,1/2+z
x,-y,-z
-x,y,1/2-z
-x,-y,-z
x,y,1/2-z
-x,y,z
x,-y,1/2+z
1/2+x,1/2+y,z
1/2-x,1/2-y,1/2+z
1/2+x,1/2-y,-z
1/2-x,1/2+y,1/2-z
1/2-x,1/2-y,-z
1/2+x,1/2+y,1/2-z
1/2-x,1/2+y,z
1/2+x,1/2-y,1/2+z
loop_
_atom_site_type_symbol
_atom_site_label
_atom_site_fract_x
_atom_site_fract_y
_atom_site_fract_z
Si Si1 0.953688 0.681588 0.864517
Si Si2 0.629370 0.223647 0.132973
Si Si3 0.701008 0.180225 0.868955
Si Si4 0.665168 0.412788 0.632013
Si Si5 0.707532 0.362874 0.366658
Si Si6 0.581987 0.624110 0.481277
Si Si7 0.123859 0.468727 0.367492
O O1 0.945228 0.713346 0.750000
O O2 0.952069 0.795877 0.929505
O O3 0.918554 0.593514 0.901670
O O4 0.000000 0.628045 0.877879
O O5 0.618905 0.230161 0.250000
O O6 0.678122 0.253853 0.113043
O O7 0.622553 0.096647 0.089107
O O8 0.598874 0.314255 0.080877
O O9 0.700851 0.178981 0.750000
O O10 0.692277 0.307311 0.908368
O O11 0.746252 0.148195 0.913440
O O12 0.664519 0.097331 0.909290
O O13 0.664715 0.416229 0.750000
O O14 0.684536 0.527748 0.586669
O O15 0.618442 0.397049 0.597113
O O16 0.713351 0.381822 0.250000
O O17 0.561593 0.500000 0.500000
O O18 0.127062 0.476229 0.250000
#
# Coordination Sequence:
#
# PCOD8258017 Si02
#       7
#    16  16  16  16  16  16  16
#     4  10  22  43  71  98 120 147 190 245 304 366
#     4  10  22  38  57  84 122 165 205 246 297 355
#     4   9  17  30  55  85 114 156 208 252 297 352
#     4  10  19  35  58  84 118 162 211 258 302 351
#     4   9  18  31  52  83 118 162 205 247 298 347
#     4  12  23  38  63  88 125 160 205 246 297 358
#     4   9  18  36  61  87 117 155 198 247 306 361
#
# _framework density 22.081403000000002
#
# number of rings (size 3 to 8) (size 9 to 14) (size 15 to 20)
#    0.000    2.143    2.857    0.429    2.000    1.429 
#    0.000    2.143    3.143    1.286    0.000    0.000 
#    0.000    0.000    0.000    0.000    0.000    0.000 
#
# Total GULP energy -694314.442220 kJ/mol
# GULP energy per Si atom -12398.472183 kJ/mol
# Density = 2.203114 g / cm^3
# Si number density = 22.081403 Si / 1000 Ang^3
#
#
#
# Elastic Constant Matrix: (Units=GPa)
#
#
# Indices 1 2 3 4 5 6 
#
# 1 114.6708 54.4958 32.8163 0.0000 0.0000 0.0000
# 2 54.4958 178.3756 28.2100 0.0000 0.0000 0.0000
# 3 32.8163 28.2100 23.4672 0.0000 0.0000 0.0000
# 4 0.0000 0.0000 0.0000 15.1928 0.0000 0.0000
# 5 0.0000 0.0000 0.0000 0.0000 15.3563 0.0000
# 6 0.0000 0.0000 0.0000 0.0000 0.0000 22.9372
#
#
#
# Elastic Compliance Matrix: (Units=1/GPa)
#
#
# Indices 1 2 3 4 5 6 
#
# 1 0.014878 -0.001550 -0.018942 0.000000 0.000000 0.000000
# 2 -0.001550 0.007084 -0.006348 0.000000 0.000000 0.000000
# 3 -0.018942 -0.006348 0.076732 0.000000 0.000000 0.000000
# 4 0.000000 0.000000 0.000000 0.065821 0.000000 0.000000
# 5 0.000000 0.000000 0.000000 0.000000 0.065120 0.000000
# 6 0.000000 0.000000 0.000000 0.000000 0.000000 0.043597
#
#
# Mechanical properties :
#
#
# Convention : Reuss Voigt Hill
#
# Bulk Modulus (GPa) = 22.21540 60.83975 41.52758
# Shear Modulus (GPa) = 14.62345 24.09670 19.36008
#
# Velocity S-wave (km/s) = 2.57622 3.30702 2.96422
# Velocity P-wave (km/s) = 4.35106 6.49570 5.52837
#
# Compressibility (1/GPa) = 0.04501381
#
# Stress axis : x y z
#
# Youngs Moduli (GPa) = 67.21347 141.17244 13.03229
#
# Poissons Ratio (x) = 0.21877 0.24686
# Poissons Ratio (y) = 0.10416 0.08273
# Poissons Ratio (z) = 1.27318 0.89617
#
# Static dielectric constant tensor:
#      x y z
#    x 3.807270 0.000000 0.000000 
#    y 0.000000 4.478560 0.000000 
#    z 0.000000 0.000000 3.895510 
# 
# 
# High freq. dielectric constant tensor:
#      x y z
#    x 1.844140 0.000000 0.000000 
#    y 0.000000 1.874160 0.000000 
#    z 0.000000 0.000000 1.877520 
# 
# From -- ./inp_files/38545.got.cif
#   From: 2010.03.12/outbox.cif.g09.slc.cpg/sg63_20_cif.got.tgz:38545.got - 2010.04.10 19:34:48.
