data_PCOD8258092
_publ_section_title
;
Structure prediction by ZEFSAII (Michael W. Deem and Ramdas Pophale) SiO2 
 PCOD8258092
Probable space group: C M C M
;
_chemical_formula_sum "Si O2"
_cell_formula_units_Z 64
_cell_length_a 20.756642
_cell_length_b 17.981530
_cell_length_c 8.539570
_cell_angle_alpha 90.000000
_cell_angle_beta 90.000000
_cell_angle_gamma 90.000000
_cell_volume 3187.276493
_symmetry_space_group_name_H-M "C M C M"
_symmetry_group_IT_number 63
_symmetry_cell_setting 'orthorhombic'
loop_
_space_group_symop_operation_xyz
x,y,z
-x,-y,1/2+z
x,-y,-z
-x,y,1/2-z
-x,-y,-z
x,y,1/2-z
-x,y,z
x,-y,1/2+z
1/2+x,1/2+y,z
1/2-x,1/2-y,1/2+z
1/2+x,1/2-y,-z
1/2-x,1/2+y,1/2-z
1/2-x,1/2-y,-z
1/2+x,1/2+y,1/2-z
1/2-x,1/2+y,z
1/2+x,1/2-y,1/2+z
loop_
_atom_site_type_symbol
_atom_site_label
_atom_site_fract_x
_atom_site_fract_y
_atom_site_fract_z
Si Si1 0.500000 0.917807 0.934195
Si Si2 0.123594 0.336170 0.435538
Si Si3 0.125442 0.832217 0.935623
Si Si4 0.500000 0.582575 0.436305
Si Si5 0.747736 0.917586 0.563817
O O1 0.500000 0.922917 0.750000
O O2 0.437480 0.874987 0.990250
O O3 0.500000 0.000000 0.000000
O O4 0.117043 0.338935 0.250000
O O5 0.126425 0.251872 0.499189
O O6 0.187005 0.378377 0.487851
O O7 0.123199 0.831815 0.750000
O O8 0.189199 0.873846 0.994843
O O9 0.062756 0.874637 0.001703
O O10 0.500000 0.500000 0.500000
O O11 0.500000 0.580474 0.250000
O O12 0.740834 0.917864 0.750000
O O13 0.753282 0.000000 0.500000
#
# Coordination Sequence:
#
# PCOD8258092 Si02
#       5
#     8  16  16   8  16
#     4  12  25  42  62  88 118 152 191 238 288 346
#     4  11  22  40  63  87 114 152 194 240 292 345
#     4   9  20  37  60  85 116 154 194 236 287 343
#     4  10  19  36  58  84 114 150 191 234 282 340
#     4  11  22  38  58  86 119 155 195 240 288 343
#
# _framework density 20.079840999999998
#
# number of rings (size 3 to 8) (size 9 to 14) (size 15 to 20)
#    0.000    1.500    0.000    5.625    0.000    2.000 
#    0.000    8.750    0.000    0.000    0.000    0.000 
#    0.000    0.000    0.000    0.000    0.000    0.000 
#
# Total GULP energy -396931.068060 kJ/mol
# GULP energy per Si atom -12404.095877 kJ/mol
# Density = 2.003414 g / cm^3
# Si number density = 20.079841 Si / 1000 Ang^3
#
#
#
# Elastic Constant Matrix: (Units=GPa)
#
#
# Indices 1 2 3 4 5 6 
#
# 1 205.0607 111.5485 42.9726 0.0000 0.0000 0.0000
# 2 111.5485 220.2016 47.9166 0.0000 0.0000 0.0000
# 3 42.9726 47.9166 80.5113 0.0000 0.0000 0.0000
# 4 0.0000 0.0000 0.0000 27.0209 0.0000 0.0000
# 5 0.0000 0.0000 0.0000 0.0000 53.8096 0.0000
# 6 0.0000 0.0000 0.0000 0.0000 0.0000 49.0019
#
#
#
# Elastic Compliance Matrix: (Units=1/GPa)
#
#
# Indices 1 2 3 4 5 6 
#
# 1 0.006966 -0.003124 -0.001858 0.000000 0.000000 0.000000
# 2 -0.003124 0.006618 -0.002271 0.000000 0.000000 0.000000
# 3 -0.001858 -0.002271 0.014764 0.000000 0.000000 0.000000
# 4 0.000000 0.000000 0.000000 0.037008 0.000000 0.000000
# 5 0.000000 0.000000 0.000000 0.000000 0.018584 0.000000
# 6 0.000000 0.000000 0.000000 0.000000 0.000000 0.020407
#
#
# Mechanical properties :
#
#
# Convention : Reuss Voigt Hill
#
# Bulk Modulus (GPa) = 72.25353 101.18322 86.71838
# Shear Modulus (GPa) = 40.49593 46.18886 43.34240
#
# Velocity S-wave (km/s) = 4.49569 4.80131 4.65101
# Velocity P-wave (km/s) = 7.93786 9.01313 8.49253
#
# Compressibility (1/GPa) = 0.01384015
#
# Stress axis : x y z
#
# Youngs Moduli (GPa) = 143.56392 151.09951 67.73067
#
# Poissons Ratio (x) = 0.47206 0.12588
# Poissons Ratio (y) = 0.44852 0.15384
# Poissons Ratio (z) = 0.26681 0.34320
#
# Static dielectric constant tensor:
#      x y z
#    x 3.973810 0.000000 0.000000 
#    y 0.000000 3.971630 0.000000 
#    z 0.000000 0.000000 3.547350 
# 
# 
# High freq. dielectric constant tensor:
#      x y z
#    x 1.807580 0.000000 0.000000 
#    y 0.000000 1.807420 0.000000 
#    z 0.000000 0.000000 1.769440 
# 
# From -- ./inp_files/9671.got.cif
#   From: 2010.03.12/outbox.cif.g09.slc.cpg/sg63_5_cif.got.tgz:9671.got - 2010.04.10 19:34:48.
