data_PCOD8258882
_publ_section_title
;
Structure prediction by ZEFSAII (Michael W. Deem and Ramdas Pophale) SiO2 
 PCOD8258882
Probable space group: C M C M
;
_chemical_formula_sum "Si O2"
_cell_formula_units_Z 80
_cell_length_a 9.029593
_cell_length_b 25.236430
_cell_length_c 19.445356
_cell_angle_alpha 90.000000
_cell_angle_beta 90.000000
_cell_angle_gamma 90.000000
_cell_volume 4431.104503
_symmetry_space_group_name_H-M "C M C M"
_symmetry_group_IT_number 63
_symmetry_cell_setting 'orthorhombic'
loop_
_space_group_symop_operation_xyz
x,y,z
-x,-y,1/2+z
x,-y,-z
-x,y,1/2-z
-x,-y,-z
x,y,1/2-z
-x,y,z
x,-y,1/2+z
1/2+x,1/2+y,z
1/2-x,1/2-y,1/2+z
1/2+x,1/2-y,-z
1/2-x,1/2+y,1/2-z
1/2-x,1/2-y,-z
1/2+x,1/2+y,1/2-z
1/2-x,1/2+y,z
1/2+x,1/2-y,1/2+z
loop_
_atom_site_type_symbol
_atom_site_label
_atom_site_fract_x
_atom_site_fract_y
_atom_site_fract_z
Si Si1 0.663057 0.496271 0.418547
Si Si2 0.330644 0.808716 0.670691
Si Si3 0.173982 0.392759 0.427205
Si Si4 0.831262 0.813639 0.170243
Si Si5 0.674643 0.611718 0.427459
O O1 0.652801 0.500000 0.500000
O O2 0.500000 0.483303 0.388047
O O3 0.774434 0.449697 0.396715
O O4 0.718223 0.554471 0.393990
O O5 0.293055 0.819509 0.750000
O O6 0.500000 0.824463 0.654846
O O7 0.303579 0.747589 0.652413
O O8 0.220850 0.842982 0.624967
O O9 0.217005 0.347690 0.373451
O O10 0.246696 0.379081 0.499929
O O11 0.000000 0.394127 0.437084
O O12 0.799746 0.824442 0.250000
O O13 0.000000 0.829284 0.151857
O O14 0.500000 0.614096 0.440916
#
# Coordination Sequence:
#
# PCOD8258882 Si02
#       5
#    16  16  16  16  16
#     4   8  16  32  51  72 101 136 170 204 248 303
#     4   9  19  36  56  77 102 133 169 211 259 304
#     4  11  21  32  52  80 106 133 168 213 258 297
#     4   9  19  37  57  74  99 137 173 207 254 308
#     4  10  20  34  54  78 104 136 172 208 249 302
#
# _framework density 18.054189000000001
#
# number of rings (size 3 to 8) (size 9 to 14) (size 15 to 20)
#    0.000    2.600    0.000    4.800    0.000    6.800 
#    0.000    3.000    0.000    1.200    0.000    0.000 
#    0.000    0.000    0.000    0.000    0.000    0.000 
#
# Total GULP energy -495923.725742 kJ/mol
# GULP energy per Si atom -12398.093144 kJ/mol
# Density = 1.801310 g / cm^3
# Si number density = 18.054189 Si / 1000 Ang^3
#
#
#
# Elastic Constant Matrix: (Units=GPa)
#
#
# Indices 1 2 3 4 5 6 
#
# 1 111.5941 64.1626 47.4793 0.0000 0.0000 0.0000
# 2 64.1626 115.9981 58.0426 0.0000 0.0000 0.0000
# 3 47.4793 58.0426 61.7228 0.0000 0.0000 0.0000
# 4 0.0000 0.0000 0.0000 -33.8340 0.0000 0.0000
# 5 0.0000 0.0000 0.0000 0.0000 29.0223 0.0000
# 6 0.0000 0.0000 0.0000 0.0000 0.0000 30.9701
#
#
#
# Elastic Compliance Matrix: (Units=1/GPa)
#
#
# Indices 1 2 3 4 5 6 
#
# 1 0.014520 -0.004614 -0.006831 0.000000 0.000000 0.000000
# 2 -0.004614 0.017748 -0.013141 0.000000 0.000000 0.000000
# 3 -0.006831 -0.013141 0.033813 0.000000 0.000000 0.000000
# 4 0.000000 0.000000 0.000000 -0.029556 0.000000 0.000000
# 5 0.000000 0.000000 0.000000 0.000000 0.034456 0.000000
# 6 0.000000 0.000000 0.000000 0.000000 0.000000 0.032289
#
#
# Mechanical properties :
#
#
# Convention : Reuss Voigt Hill
#
# Bulk Modulus (GPa) = 59.13367 69.85376 64.49372
# Shear Modulus (GPa) = 31.62982 13.20706 22.41844
#
# Velocity S-wave (km/s) = 4.19016 2.70760 3.52764
# Velocity P-wave (km/s) = 7.49896 6.96778 7.23825
#
# Compressibility (1/GPa) = 0.01691084
#
# Stress axis : x y z
#
# Youngs Moduli (GPa) = 68.87099 56.34377 29.57399
#
# Poissons Ratio (x) = 0.25994 0.20201
# Poissons Ratio (y) = 0.31774 0.38863
# Poissons Ratio (z) = 0.47044 0.74042
#
# Static dielectric constant tensor:
#      x y z
#    x 3.263830 0.000000 0.000000 
#    y 0.000000 3.694020 0.000000 
#    z 0.000000 0.000000 3.032320 
# 
# 
# High freq. dielectric constant tensor:
#      x y z
#    x 1.697750 0.000000 0.000000 
#    y 0.000000 1.711950 0.000000 
#    z 0.000000 0.000000 1.672190 
# 
# From -- ./inp_files/40431.got.cif
#   From: 2010.03.12/outbox.cif.g09.slc.cpg/sg63_21_cif.got.tgz:40431.got - 2010.04.10 19:34:48.
