data_PCOD8258401
_publ_section_title
;
Structure prediction by ZEFSAII (Michael W. Deem and Ramdas Pophale) SiO2 
 PCOD8258401
Probable space group: C M C M
;
_chemical_formula_sum "Si O2"
_cell_formula_units_Z 72
_cell_length_a 16.596895
_cell_length_b 8.910062
_cell_length_c 26.700079
_cell_angle_alpha 90.000000
_cell_angle_beta 90.000000
_cell_angle_gamma 90.000000
_cell_volume 3948.390687
_symmetry_space_group_name_H-M "C M C M"
_symmetry_group_IT_number 63
_symmetry_cell_setting 'orthorhombic'
loop_
_space_group_symop_operation_xyz
x,y,z
-x,-y,1/2+z
x,-y,-z
-x,y,1/2-z
-x,-y,-z
x,y,1/2-z
-x,y,z
x,-y,1/2+z
1/2+x,1/2+y,z
1/2-x,1/2-y,1/2+z
1/2+x,1/2-y,-z
1/2-x,1/2+y,1/2-z
1/2-x,1/2-y,-z
1/2+x,1/2+y,1/2-z
1/2-x,1/2+y,z
1/2+x,1/2-y,1/2+z
loop_
_atom_site_type_symbol
_atom_site_label
_atom_site_fract_x
_atom_site_fract_y
_atom_site_fract_z
Si Si1 0.500000 0.641717 0.307213
Si Si2 0.241246 0.234625 0.600116
Si Si3 0.000000 0.364106 0.397418
Si Si4 0.000000 0.056392 0.056398
Si Si5 0.636931 0.518420 0.366812
Si Si6 0.352657 0.001646 0.056202
O O1 0.500000 0.693896 0.250000
O O2 0.500000 0.788294 0.342702
O O3 0.579553 0.542127 0.318657
O O4 0.306385 0.334516 0.629435
O O5 0.190602 0.131656 0.639499
O O6 0.282770 0.122224 0.560801
O O7 0.180526 0.334506 0.568187
O O8 0.922121 0.467805 0.403555
O O9 0.000000 0.237521 0.440992
O O10 0.081078 0.999379 0.083802
O O11 0.000000 0.000000 0.000000
O O12 0.387055 0.000000 0.000000
#
# Coordination Sequence:
#
# PCOD8258401 Si02
#       6
#     8  16   8   8  16  16
#     4  10  20  42  66  79 104 145 186 233 293 347
#     4  10  20  35  54  80 118 149 182 231 273 322
#     4  10  21  38  50  84 111 147 192 234 267 332
#     4  10  20  32  52  70 116 149 194 218 265 323
#     4   9  20  37  57  82 108 146 185 232 277 330
#     4  11  21  33  53  81 121 154 191 216 268 324
#
# _framework density 18.235277
#
# number of rings (size 3 to 8) (size 9 to 14) (size 15 to 20)
#    0.000    2.222    4.444    1.000    3.111    5.333 
#    0.000    1.111    0.000    2.667    0.000    0.000 
#    0.000    0.000    0.000    0.000    0.000    0.000 
#
# Total GULP energy -446312.339431 kJ/mol
# GULP energy per Si atom -12397.564984 kJ/mol
# Density = 1.819377 g / cm^3
# Si number density = 18.235277 Si / 1000 Ang^3
#
#
#
# Elastic Constant Matrix: (Units=GPa)
#
#
# Indices 1 2 3 4 5 6 
#
# 1 117.4783 53.6739 43.1213 0.0000 0.0000 0.0000
# 2 53.6739 111.0699 33.4064 0.0000 0.0000 0.0000
# 3 43.1213 33.4064 109.9075 0.0000 0.0000 0.0000
# 4 0.0000 0.0000 0.0000 13.9253 0.0000 0.0000
# 5 0.0000 0.0000 0.0000 0.0000 13.5061 0.0000
# 6 0.0000 0.0000 0.0000 0.0000 0.0000 24.0418
#
#
#
# Elastic Compliance Matrix: (Units=1/GPa)
#
#
# Indices 1 2 3 4 5 6 
#
# 1 0.011869 -0.004771 -0.003207 0.000000 0.000000 0.000000
# 2 -0.004771 0.011827 -0.001723 0.000000 0.000000 0.000000
# 3 -0.003207 -0.001723 0.010880 0.000000 0.000000 0.000000
# 4 0.000000 0.000000 0.000000 0.071812 0.000000 0.000000
# 5 0.000000 0.000000 0.000000 0.000000 0.074041 0.000000
# 6 0.000000 0.000000 0.000000 0.000000 0.000000 0.041594
#
#
# Mechanical properties :
#
#
# Convention : Reuss Voigt Hill
#
# Bulk Modulus (GPa) = 65.89690 66.53988 66.21839
# Shear Modulus (GPa) = 20.28534 24.17823 22.23178
#
# Velocity S-wave (km/s) = 3.33892 3.64525 3.49544
# Velocity P-wave (km/s) = 7.14703 7.36790 7.25830
#
# Compressibility (1/GPa) = 0.01517522
#
# Stress axis : x y z
#
# Youngs Moduli (GPa) = 84.25243 84.55070 91.90935
#
# Poissons Ratio (x) = 0.40341 0.29471
# Poissons Ratio (y) = 0.40199 0.15835
# Poissons Ratio (z) = 0.27016 0.14567
#
# Static dielectric constant tensor:
#      x y z
#    x 3.639620 0.000000 0.000000 
#    y 0.000000 3.422060 0.000000 
#    z 0.000000 0.000000 2.799810 
# 
# 
# High freq. dielectric constant tensor:
#      x y z
#    x 1.729960 0.000000 0.000000 
#    y 0.000000 1.710360 0.000000 
#    z 0.000000 0.000000 1.648840 
# 
# From -- ./inp_files/73243.got.cif
#   From: 2010.03.12/outbox.cif.g09.slc.cpg/sg63_37_cif.got.tgz:73243.got - 2010.04.10 19:34:48.
