data_PCOD8258026
_publ_section_title
;
Structure prediction by ZEFSAII (Michael W. Deem and Ramdas Pophale) SiO2 
 PCOD8258026
Probable space group: C M C M
;
_chemical_formula_sum "Si O2"
_cell_formula_units_Z 80
_cell_length_a 9.231144
_cell_length_b 17.911347
_cell_length_c 25.848306
_cell_angle_alpha 90.000000
_cell_angle_beta 90.000000
_cell_angle_gamma 90.000000
_cell_volume 4273.816385
_symmetry_space_group_name_H-M "C M C M"
_symmetry_group_IT_number 63
_symmetry_cell_setting 'orthorhombic'
loop_
_space_group_symop_operation_xyz
x,y,z
-x,-y,1/2+z
x,-y,-z
-x,y,1/2-z
-x,-y,-z
x,y,1/2-z
-x,y,z
x,-y,1/2+z
1/2+x,1/2+y,z
1/2-x,1/2-y,1/2+z
1/2+x,1/2-y,-z
1/2-x,1/2+y,1/2-z
1/2-x,1/2-y,-z
1/2+x,1/2+y,1/2-z
1/2-x,1/2+y,z
1/2+x,1/2-y,1/2+z
loop_
_atom_site_type_symbol
_atom_site_label
_atom_site_fract_x
_atom_site_fract_y
_atom_site_fract_z
Si Si1 0.327247 0.706261 0.250000
Si Si2 0.171823 0.706303 0.650102
Si Si3 0.831739 0.449254 0.750000
Si Si4 0.169580 0.960324 0.552748
Si Si5 0.670349 0.287918 0.547127
Si Si6 0.329775 0.037602 0.853374
O O1 0.500000 0.700156 0.250000
O O2 0.267948 0.750352 0.200055
O O3 0.264585 0.623873 0.250000
O O4 0.227134 0.749166 0.599363
O O5 0.230926 0.621908 0.649641
O O6 0.000000 0.705654 0.652718
O O7 0.790915 0.497759 0.799864
O O8 0.000000 0.426853 0.750000
O O9 0.213289 0.874205 0.549021
O O10 0.253246 0.995685 0.600172
O O11 0.000000 0.970973 0.562810
O O12 0.218861 0.000000 0.500000
O O13 0.500000 0.276680 0.539759
O O14 0.750000 0.250000 0.500000
O O15 0.500000 0.037138 0.864278
#
# Coordination Sequence:
#
# PCOD8258026 Si02
#       6
#     8  16   8  16  16  16
#     4  10  19  35  59  79 101 138 176 210 254 310
#     4   9  18  33  54  78 100 129 174 216 247 293
#     4  10  21  35  51  77 109 134 164 214 266 304
#     4  10  21  36  53  77 109 139 170 215 267 314
#     4  10  20  34  52  75 103 134 171 213 254 303
#     4  10  20  35  55  77 104 138 175 216 259 306
#
# _framework density 18.718631999999999
#
# number of rings (size 3 to 8) (size 9 to 14) (size 15 to 20)
#    0.000    2.200    0.000    3.000    0.000    6.000 
#    0.000    2.000    0.000    1.200    0.000    0.000 
#    0.000    0.000    0.000    0.000    0.000    0.000 
#
# Total GULP energy -496132.043795 kJ/mol
# GULP energy per Si atom -12403.301095 kJ/mol
# Density = 1.867603 g / cm^3
# Si number density = 18.718632 Si / 1000 Ang^3
#
#
#
# Elastic Constant Matrix: (Units=GPa)
#
#
# Indices 1 2 3 4 5 6 
#
# 1 32.2198 50.3807 51.8193 0.0000 0.0000 0.0000
# 2 50.3807 193.4131 115.2921 0.0000 0.0000 0.0000
# 3 51.8193 115.2921 207.7554 0.0000 0.0000 0.0000
# 4 0.0000 0.0000 0.0000 42.0788 0.0000 0.0000
# 5 0.0000 0.0000 0.0000 0.0000 31.7839 0.0000
# 6 0.0000 0.0000 0.0000 0.0000 0.0000 24.2805
#
#
#
# Elastic Compliance Matrix: (Units=1/GPa)
#
#
# Indices 1 2 3 4 5 6 
#
# 1 0.063767 -0.010653 -0.009993 0.000000 0.000000 0.000000
# 2 -0.010653 0.009506 -0.002618 0.000000 0.000000 0.000000
# 3 -0.009993 -0.002618 0.008759 0.000000 0.000000 0.000000
# 4 0.000000 0.000000 0.000000 0.023765 0.000000 0.000000
# 5 0.000000 0.000000 0.000000 0.000000 0.031462 0.000000
# 6 0.000000 0.000000 0.000000 0.000000 0.000000 0.041185
#
#
# Mechanical properties :
#
#
# Convention : Reuss Voigt Hill
#
# Bulk Modulus (GPa) = 28.16686 96.48584 62.32635
# Shear Modulus (GPa) = 21.11420 34.02170 27.56795
#
# Velocity S-wave (km/s) = 3.36218 4.26788 3.84181
# Velocity P-wave (km/s) = 5.49113 8.71456 7.28341
#
# Compressibility (1/GPa) = 0.03550272
#
# Stress axis : x y z
#
# Youngs Moduli (GPa) = 15.68209 105.19834 114.17222
#
# Poissons Ratio (x) = 1.12072 1.14093
# Poissons Ratio (y) = 0.16707 0.29890
# Poissons Ratio (z) = 0.15671 0.27541
#
# Static dielectric constant tensor:
#      x y z
#    x 3.130950 0.000000 0.000000 
#    y 0.000000 3.806590 0.000000 
#    z 0.000000 0.000000 3.261580 
# 
# 
# High freq. dielectric constant tensor:
#      x y z
#    x 1.694990 0.000000 0.000000 
#    y 0.000000 1.747710 0.000000 
#    z 0.000000 0.000000 1.746990 
# 
# From -- ./inp_files/52480.got.cif
#   From: 2010.03.12/outbox.cif.g09.slc.cpg/sg63_27_cif.got.tgz:52480.got - 2010.04.10 19:34:48.
