data_PCOD8258930
_publ_section_title
;
Structure prediction by ZEFSAII (Michael W. Deem and Ramdas Pophale) SiO2 
 PCOD8258930
Probable space group: C M C M
;
_chemical_formula_sum "Si O2"
_cell_formula_units_Z 80
_cell_length_a 8.750041
_cell_length_b 18.229801
_cell_length_c 25.840340
_cell_angle_alpha 90.000000
_cell_angle_beta 90.000000
_cell_angle_gamma 90.000000
_cell_volume 4121.831553
_symmetry_space_group_name_H-M "C M C M"
_symmetry_group_IT_number 63
_symmetry_cell_setting 'orthorhombic'
loop_
_space_group_symop_operation_xyz
x,y,z
-x,-y,1/2+z
x,-y,-z
-x,y,1/2-z
-x,-y,-z
x,y,1/2-z
-x,y,z
x,-y,1/2+z
1/2+x,1/2+y,z
1/2-x,1/2-y,1/2+z
1/2+x,1/2-y,-z
1/2-x,1/2+y,1/2-z
1/2-x,1/2-y,-z
1/2+x,1/2+y,1/2-z
1/2-x,1/2+y,z
1/2+x,1/2-y,1/2+z
loop_
_atom_site_type_symbol
_atom_site_label
_atom_site_fract_x
_atom_site_fract_y
_atom_site_fract_z
Si Si1 0.321402 0.675674 0.847213
Si Si2 0.181465 0.081817 0.443018
Si Si3 0.175557 0.073833 0.750000
Si Si4 0.178998 0.418760 0.750000
Si Si5 0.181581 0.082365 0.557490
Si Si6 0.319255 0.667547 0.344416
O O1 0.500000 0.694598 0.851472
O O2 0.288154 0.621214 0.800374
O O3 0.255525 0.638588 0.899600
O O4 0.229608 0.749264 0.836575
O O5 0.236629 0.107616 0.500195
O O6 0.242721 0.138057 0.399836
O O7 0.000000 0.079465 0.442405
O O8 0.243487 0.999794 0.431229
O O9 0.000000 0.046991 0.750000
O O10 0.286140 0.004689 0.750000
O O11 0.249024 0.382848 0.699363
O O12 0.000000 0.404822 0.750000
O O13 0.000000 0.081186 0.561072
O O14 0.500000 0.661197 0.340745
#
# Coordination Sequence:
#
# PCOD8258930 Si02
#       6
#    16  16   8   8  16  16
#     4  10  20  34  54  81 114 149 183 221 266 316
#     4   8  15  29  51  78 105 139 184 227 266 312
#     4  10  21  38  59  81 105 137 179 222 265 318
#     4  12  25  40  59  81 105 135 175 222 273 330
#     4   8  14  28  51  77 106 142 185 227 265 310
#     4  11  22  36  55  80 111 144 180 223 270 320
#
# _framework density 19.408847000000002
#
# number of rings (size 3 to 8) (size 9 to 14) (size 15 to 20)
#    0.000    2.400    0.000    4.500    0.000    5.600 
#    0.000    0.000    0.000    1.200    0.000    8.400 
#    0.000    0.000    0.000    0.000    0.000    0.000 
#
# Total GULP energy -495941.894450 kJ/mol
# GULP energy per Si atom -12398.547361 kJ/mol
# Density = 1.936467 g / cm^3
# Si number density = 19.408847 Si / 1000 Ang^3
#
#
#
# Elastic Constant Matrix: (Units=GPa)
#
#
# Indices 1 2 3 4 5 6 
#
# 1 52.6589 36.6518 40.0557 0.0000 0.0000 0.0000
# 2 36.6518 114.4842 69.3477 0.0000 0.0000 0.0000
# 3 40.0557 69.3477 158.1405 0.0000 0.0000 0.0000
# 4 0.0000 0.0000 0.0000 7.1347 0.0000 0.0000
# 5 0.0000 0.0000 0.0000 0.0000 63.1459 0.0000
# 6 0.0000 0.0000 0.0000 0.0000 0.0000 24.3904
#
#
#
# Elastic Compliance Matrix: (Units=1/GPa)
#
#
# Indices 1 2 3 4 5 6 
#
# 1 0.026192 -0.005946 -0.004027 0.000000 0.000000 0.000000
# 2 -0.005946 0.013244 -0.004302 0.000000 0.000000 0.000000
# 3 -0.004027 -0.004302 0.009230 0.000000 0.000000 0.000000
# 4 0.000000 0.000000 0.000000 0.140160 0.000000 0.000000
# 5 0.000000 0.000000 0.000000 0.000000 0.015836 0.000000
# 6 0.000000 0.000000 0.000000 0.000000 0.000000 0.041000
#
#
# Mechanical properties :
#
#
# Convention : Reuss Voigt Hill
#
# Bulk Modulus (GPa) = 49.70991 68.59933 59.15462
# Shear Modulus (GPa) = 17.79891 30.88275 24.34083
#
# Velocity S-wave (km/s) = 3.03157 3.99327 3.54518
# Velocity P-wave (km/s) = 6.15804 7.52879 6.87765
#
# Compressibility (1/GPa) = 0.02011671
#
# Stress axis : x y z
#
# Youngs Moduli (GPa) = 38.18006 75.50479 108.34461
#
# Poissons Ratio (x) = 0.44896 0.43627
# Poissons Ratio (y) = 0.22702 0.46607
# Poissons Ratio (z) = 0.15374 0.32480
#
# Static dielectric constant tensor:
#      x y z
#    x 3.119850 0.000000 0.000000 
#    y 0.000000 3.581220 0.000000 
#    z 0.000000 0.000000 3.973140 
# 
# 
# High freq. dielectric constant tensor:
#      x y z
#    x 1.710920 0.000000 0.000000 
#    y 0.000000 1.758410 0.000000 
#    z 0.000000 0.000000 1.778640 
# 
# From -- ./inp_files/66722.got.cif
#   From: 2010.03.12/outbox.cif.g09.slc.cpg/sg63_34_cif.got.tgz:66722.got - 2010.04.10 19:34:48.
