data_PCOD8258947
_publ_section_title
;
Structure prediction by ZEFSAII (Michael W. Deem and Ramdas Pophale) SiO2 
 PCOD8258947
Probable space group: C M C M
;
_chemical_formula_sum "Si O2"
_cell_formula_units_Z 72
_cell_length_a 26.932189
_cell_length_b 14.426076
_cell_length_c 9.059986
_cell_angle_alpha 90.000000
_cell_angle_beta 90.000000
_cell_angle_gamma 90.000000
_cell_volume 3520.038357
_symmetry_space_group_name_H-M "C M C M"
_symmetry_group_IT_number 63
_symmetry_cell_setting 'orthorhombic'
loop_
_space_group_symop_operation_xyz
x,y,z
-x,-y,1/2+z
x,-y,-z
-x,y,1/2-z
-x,-y,-z
x,y,1/2-z
-x,y,z
x,-y,1/2+z
1/2+x,1/2+y,z
1/2-x,1/2-y,1/2+z
1/2+x,1/2-y,-z
1/2-x,1/2+y,1/2-z
1/2-x,1/2-y,-z
1/2+x,1/2+y,1/2-z
1/2-x,1/2+y,z
1/2+x,1/2-y,1/2+z
loop_
_atom_site_type_symbol
_atom_site_label
_atom_site_fract_x
_atom_site_fract_y
_atom_site_fract_z
Si Si1 0.889840 0.591021 0.426169
Si Si2 0.780185 0.625953 0.411087
Si Si3 0.691075 0.336429 0.087502
Si Si4 0.094653 0.218564 0.424536
Si Si5 0.500000 0.597759 0.421623
O O1 0.915125 0.500000 0.500000
O O2 0.897392 0.592556 0.250000
O O3 0.831910 0.586492 0.472542
O O4 0.913861 0.683104 0.494951
O O5 0.768646 0.583832 0.250000
O O6 0.734425 0.598854 0.518080
O O7 0.785685 0.735647 0.396056
O O8 0.676345 0.374425 0.250000
O O9 0.643145 0.335293 0.982510
O O10 0.099633 0.235328 0.250000
O O11 0.048139 0.155825 0.467895
O O12 0.500000 0.500000 0.500000
O O13 0.500000 0.577024 0.250000
#
# Coordination Sequence:
#
# PCOD8258947 Si02
#       5
#    16  16  16  16   8
#     4  10  20  34  54  83 117 155 194 229 271 326
#     4   8  15  27  44  70 106 146 186 224 264 312
#     4   9  16  27  47  76 106 141 185 227 271 320
#     4  10  20  37  59  83 112 145 184 232 286 340
#     4  10  24  44  67  90 109 136 177 230 290 346
#
# _framework density 20.454324
#
# number of rings (size 3 to 8) (size 9 to 14) (size 15 to 20)
#    0.000    2.667    0.000    3.333    0.000    8.000 
#    0.000    1.667    0.000    0.000    0.000    0.000 
#    0.000    0.000    0.000    0.000    0.000    0.000 
#
# Total GULP energy -446224.975818 kJ/mol
# GULP energy per Si atom -12395.138217 kJ/mol
# Density = 2.040777 g / cm^3
# Si number density = 20.454324 Si / 1000 Ang^3
#
#
#
# Elastic Constant Matrix: (Units=GPa)
#
#
# Indices 1 2 3 4 5 6 
#
# 1 101.8063 51.1973 59.5156 0.0000 0.0000 0.0000
# 2 51.1973 105.8979 62.0910 0.0000 0.0000 0.0000
# 3 59.5156 62.0910 123.1998 0.0000 0.0000 0.0000
# 4 0.0000 0.0000 0.0000 29.0197 0.0000 0.0000
# 5 0.0000 0.0000 0.0000 0.0000 23.9053 0.0000
# 6 0.0000 0.0000 0.0000 0.0000 0.0000 6.4028
#
#
#
# Elastic Compliance Matrix: (Units=1/GPa)
#
#
# Indices 1 2 3 4 5 6 
#
# 1 0.014919 -0.004240 -0.005070 0.000000 0.000000 0.000000
# 2 -0.004240 0.014609 -0.005314 0.000000 0.000000 0.000000
# 3 -0.005070 -0.005314 0.013245 0.000000 0.000000 0.000000
# 4 0.000000 0.000000 0.000000 0.034459 0.000000 0.000000
# 5 0.000000 0.000000 0.000000 0.000000 0.041832 0.000000
# 6 0.000000 0.000000 0.000000 0.000000 0.000000 0.156182
#
#
# Mechanical properties :
#
#
# Convention : Reuss Voigt Hill
#
# Bulk Modulus (GPa) = 73.94644 75.16796 74.55720
# Shear Modulus (GPa) = 16.18114 22.40557 19.29335
#
# Velocity S-wave (km/s) = 2.81568 3.31327 3.07455
# Velocity P-wave (km/s) = 6.84114 7.17398 7.00953
#
# Compressibility (1/GPa) = 0.01352330
#
# Stress axis : x y z
#
# Youngs Moduli (GPa) = 67.02990 68.45161 75.50231
#
# Poissons Ratio (x) = 0.29022 0.38281
# Poissons Ratio (y) = 0.28419 0.40126
# Poissons Ratio (z) = 0.33985 0.36379
#
# Static dielectric constant tensor:
#      x y z
#    x 3.579500 0.000000 0.000000 
#    y 0.000000 3.519300 0.000000 
#    z 0.000000 0.000000 4.096700 
# 
# 
# High freq. dielectric constant tensor:
#      x y z
#    x 1.778340 0.000000 0.000000 
#    y 0.000000 1.785400 0.000000 
#    z 0.000000 0.000000 1.810760 
# 
# From -- ./inp_files/11744.got.cif
#   From: 2010.03.12/outbox.cif.g09.slc.cpg/sg63_6_cif.got.tgz:11744.got - 2010.04.10 19:34:48.
