data_PCOD8258114
_publ_section_title
;
Structure prediction by ZEFSAII (Michael W. Deem and Ramdas Pophale) SiO2 
 PCOD8258114
Probable space group: C M C M
;
_chemical_formula_sum "Si O2"
_cell_formula_units_Z 96
_cell_length_a 20.514381
_cell_length_b 15.527642
_cell_length_c 14.255482
_cell_angle_alpha 90.000000
_cell_angle_beta 90.000000
_cell_angle_gamma 90.000000
_cell_volume 4540.940723
_symmetry_space_group_name_H-M "C M C M"
_symmetry_group_IT_number 63
_symmetry_cell_setting 'orthorhombic'
loop_
_space_group_symop_operation_xyz
x,y,z
-x,-y,1/2+z
x,-y,-z
-x,y,1/2-z
-x,-y,-z
x,y,1/2-z
-x,y,z
x,-y,1/2+z
1/2+x,1/2+y,z
1/2-x,1/2-y,1/2+z
1/2+x,1/2-y,-z
1/2-x,1/2+y,1/2-z
1/2-x,1/2-y,-z
1/2+x,1/2+y,1/2-z
1/2-x,1/2+y,z
1/2+x,1/2-y,1/2+z
loop_
_atom_site_type_symbol
_atom_site_label
_atom_site_fract_x
_atom_site_fract_y
_atom_site_fract_z
Si Si1 0.311344 0.339340 0.638637
Si Si2 0.892364 0.800627 0.141808
Si Si3 0.428250 0.896121 0.640992
Si Si4 0.203093 0.475663 0.862185
Si Si5 0.245895 0.338703 0.138981
Si Si6 0.928085 0.906778 0.976431
O O1 0.315245 0.344329 0.750000
O O2 0.255382 0.404841 0.601708
O O3 0.296153 0.242424 0.603235
O O4 0.381684 0.361225 0.598042
O O5 0.904304 0.827127 0.250000
O O6 0.908073 0.701801 0.125403
O O7 0.819534 0.822201 0.107500
O O8 0.937611 0.855669 0.073924
O O9 0.434197 0.916459 0.750000
O O10 0.500000 0.914757 0.594776
O O11 0.369618 0.954066 0.598923
O O12 0.203461 0.473977 0.750000
O O13 0.220677 0.570247 0.902905
O O14 0.242113 0.343321 0.250000
O O15 0.000000 0.914544 0.930607
O O16 0.898764 0.000000 0.000000
#
# Coordination Sequence:
#
# PCOD8258114 Si02
#       6
#    16  16  16  16  16  16
#     4  10  20  38  60  83 115 154 194 238 286 339
#     4  10  19  36  60  85 110 144 189 241 296 343
#     4   9  16  28  50  80 113 146 183 236 297 346
#     4   9  16  30  53  83 116 150 191 238 285 342
#     4   9  17  31  56  86 114 147 191 237 285 343
#     4  11  25  40  55  82 116 151 195 242 290 346
#
# _framework density 21.140993999999999
#
# number of rings (size 3 to 8) (size 9 to 14) (size 15 to 20)
#    0.000    2.333    1.667    1.500    0.000    4.000 
#    0.000    2.500    0.000    3.000    0.000    2.333 
#    0.000    0.000    0.000    0.000    0.000    0.000 
#
# Total GULP energy -594992.003917 kJ/mol
# GULP energy per Si atom -12395.666748 kJ/mol
# Density = 2.109288 g / cm^3
# Si number density = 21.140994 Si / 1000 Ang^3
#
#
#
# Elastic Constant Matrix: (Units=GPa)
#
#
# Indices 1 2 3 4 5 6 
#
# 1 154.5468 64.9488 17.5190 0.0000 0.0000 0.0000
# 2 64.9488 132.5370 18.4230 0.0000 0.0000 0.0000
# 3 17.5190 18.4230 28.4323 0.0000 0.0000 0.0000
# 4 0.0000 0.0000 0.0000 15.4092 0.0000 0.0000
# 5 0.0000 0.0000 0.0000 0.0000 16.5122 0.0000
# 6 0.0000 0.0000 0.0000 0.0000 0.0000 48.3644
#
#
#
# Elastic Compliance Matrix: (Units=1/GPa)
#
#
# Indices 1 2 3 4 5 6 
#
# 1 0.008338 -0.003706 -0.002737 0.000000 0.000000 0.000000
# 2 -0.003706 0.009939 -0.004157 0.000000 0.000000 0.000000
# 3 -0.002737 -0.004157 0.039551 0.000000 0.000000 0.000000
# 4 0.000000 0.000000 0.000000 0.064896 0.000000 0.000000
# 5 0.000000 0.000000 0.000000 0.000000 0.060561 0.000000
# 6 0.000000 0.000000 0.000000 0.000000 0.000000 0.020676
#
#
# Mechanical properties :
#
#
# Convention : Reuss Voigt Hill
#
# Bulk Modulus (GPa) = 27.30007 57.47753 42.38880
# Shear Modulus (GPa) = 21.06424 30.36551 25.71488
#
# Velocity S-wave (km/s) = 3.15996 3.79401 3.49141
# Velocity P-wave (km/s) = 5.12398 6.81465 6.02887
#
# Compressibility (1/GPa) = 0.03662994
#
# Stress axis : x y z
#
# Youngs Moduli (GPa) = 119.93239 100.61627 25.28401
#
# Poissons Ratio (x) = 0.37284 0.06919
# Poissons Ratio (y) = 0.44442 0.10510
# Poissons Ratio (z) = 0.32820 0.41823
#
# Static dielectric constant tensor:
#      x y z
#    x 4.042630 0.000000 0.000000 
#    y 0.000000 4.028260 0.000000 
#    z 0.000000 0.000000 3.400080 
# 
# 
# High freq. dielectric constant tensor:
#      x y z
#    x 1.834370 0.000000 0.000000 
#    y 0.000000 1.831990 0.000000 
#    z 0.000000 0.000000 1.802690 
# 
# From -- ./inp_files/35292.got.cif
#   From: 2010.03.12/outbox.cif.g09.slc.cpg/sg63_18_cif.got.tgz:35292.got - 2010.04.10 19:34:48.
