data_PCOD8258107
_publ_section_title
;
Structure prediction by ZEFSAII (Michael W. Deem and Ramdas Pophale) SiO2 
 PCOD8258107
Probable space group: C M C M
;
_chemical_formula_sum "Si O2"
_cell_formula_units_Z 80
_cell_length_a 17.919301
_cell_length_b 12.885539
_cell_length_c 18.610241
_cell_angle_alpha 90.000000
_cell_angle_beta 90.000000
_cell_angle_gamma 90.000000
_cell_volume 4297.101891
_symmetry_space_group_name_H-M "C M C M"
_symmetry_group_IT_number 63
_symmetry_cell_setting 'orthorhombic'
loop_
_space_group_symop_operation_xyz
x,y,z
-x,-y,1/2+z
x,-y,-z
-x,y,1/2-z
-x,-y,-z
x,y,1/2-z
-x,y,z
x,-y,1/2+z
1/2+x,1/2+y,z
1/2-x,1/2-y,1/2+z
1/2+x,1/2-y,-z
1/2-x,1/2+y,1/2-z
1/2-x,1/2-y,-z
1/2+x,1/2+y,1/2-z
1/2-x,1/2+y,z
1/2+x,1/2-y,1/2+z
loop_
_atom_site_type_symbol
_atom_site_label
_atom_site_fract_x
_atom_site_fract_y
_atom_site_fract_z
Si Si1 0.197988 0.040959 0.333303
Si Si2 0.352532 0.855898 0.831075
Si Si3 0.500000 0.058804 0.109095
Si Si4 0.000000 0.663348 0.956429
Si Si5 0.848376 0.781924 0.570984
Si Si6 0.200389 0.166897 0.917576
O O1 0.177649 0.026184 0.250000
O O2 0.284913 0.065378 0.345577
O O3 0.148314 0.135441 0.364119
O O4 0.179116 0.936606 0.375627
O O5 0.349092 0.813131 0.750000
O O6 0.427918 0.918511 0.843384
O O7 0.348551 0.759495 0.884684
O O8 0.500000 0.937669 0.092623
O O9 0.500000 0.130605 0.039059
O O10 0.928483 0.731778 0.938530
O O11 0.822331 0.845204 0.500513
O O12 0.788573 0.691490 0.588965
#
# Coordination Sequence:
#
# PCOD8258107 Si02
#       6
#    16  16   8   8  16  16
#     4  10  21  37  58  83 113 151 191 235 283 335
#     4  10  20  35  56  85 117 145 185 235 284 339
#     4  11  21  36  57  85 115 147 182 229 289 347
#     4  11  22  38  58  82 115 149 185 233 283 337
#     4  10  21  37  58  85 113 147 192 236 279 335
#     4  10  19  36  59  85 110 148 191 236 283 330
#
# _framework density 18.617198999999999
#
# number of rings (size 3 to 8) (size 9 to 14) (size 15 to 20)
#    0.000    1.800    2.000    2.700    0.000    0.800 
#    0.000    5.500    0.000    0.000    0.000    0.000 
#    0.000    0.000    0.000    0.000    0.000    0.000 
#
# Total GULP energy -496167.866386 kJ/mol
# GULP energy per Si atom -12404.196660 kJ/mol
# Density = 1.857483 g / cm^3
# Si number density = 18.617199 Si / 1000 Ang^3
#
#
#
# Elastic Constant Matrix: (Units=GPa)
#
#
# Indices 1 2 3 4 5 6 
#
# 1 95.4775 46.0054 16.7360 0.0000 0.0000 0.0000
# 2 46.0054 88.8163 38.9445 0.0000 0.0000 0.0000
# 3 16.7360 38.9445 77.7951 0.0000 0.0000 0.0000
# 4 0.0000 0.0000 0.0000 28.6085 0.0000 0.0000
# 5 0.0000 0.0000 0.0000 0.0000 39.2908 0.0000
# 6 0.0000 0.0000 0.0000 0.0000 0.0000 17.9272
#
#
#
# Elastic Compliance Matrix: (Units=1/GPa)
#
#
# Indices 1 2 3 4 5 6 
#
# 1 0.013995 -0.007597 0.000792 0.000000 0.000000 0.000000
# 2 -0.007597 0.018549 -0.007652 0.000000 0.000000 0.000000
# 3 0.000792 -0.007652 0.016514 0.000000 0.000000 0.000000
# 4 0.000000 0.000000 0.000000 0.034955 0.000000 0.000000
# 5 0.000000 0.000000 0.000000 0.000000 0.025451 0.000000
# 6 0.000000 0.000000 0.000000 0.000000 0.000000 0.055781
#
#
# Mechanical properties :
#
#
# Convention : Reuss Voigt Hill
#
# Bulk Modulus (GPa) = 49.63620 51.71785 50.67703
# Shear Modulus (GPa) = 24.89130 27.85883 26.37506
#
# Velocity S-wave (km/s) = 3.66048 3.87253 3.76800
# Velocity P-wave (km/s) = 6.67718 6.91630 6.79780
#
# Compressibility (1/GPa) = 0.02014659
#
# Stress axis : x y z
#
# Youngs Moduli (GPa) = 71.45286 53.91059 60.55368
#
# Poissons Ratio (x) = 0.40954 -0.04797
# Poissons Ratio (y) = 0.54280 0.46333
# Poissons Ratio (z) = -0.05660 0.41250
#
# Static dielectric constant tensor:
#      x y z
#    x 3.272280 0.000000 0.000000 
#    y 0.000000 3.248160 0.000000 
#    z 0.000000 0.000000 3.540550 
# 
# 
# High freq. dielectric constant tensor:
#      x y z
#    x 1.710540 0.000000 0.000000 
#    y 0.000000 1.719930 0.000000 
#    z 0.000000 0.000000 1.734560 
# 
# From -- ./inp_files/55299.got.cif
#   From: 2010.03.12/outbox.cif.g09.slc.cpg/sg63_28_cif.got.tgz:55299.got - 2010.04.10 19:34:48.
