data_PCOD8258920
_publ_section_title
;
Structure prediction by ZEFSAII (Michael W. Deem and Ramdas Pophale) SiO2 
 PCOD8258920
Probable space group: C M C M
;
_chemical_formula_sum "Si O2"
_cell_formula_units_Z 80
_cell_length_a 20.620663
_cell_length_b 12.456103
_cell_length_c 16.602381
_cell_angle_alpha 90.000000
_cell_angle_beta 90.000000
_cell_angle_gamma 90.000000
_cell_volume 4264.373065
_symmetry_space_group_name_H-M "C M C M"
_symmetry_group_IT_number 63
_symmetry_cell_setting 'orthorhombic'
loop_
_space_group_symop_operation_xyz
x,y,z
-x,-y,1/2+z
x,-y,-z
-x,y,1/2-z
-x,-y,-z
x,y,1/2-z
-x,y,z
x,-y,1/2+z
1/2+x,1/2+y,z
1/2-x,1/2-y,1/2+z
1/2+x,1/2-y,-z
1/2-x,1/2+y,1/2-z
1/2-x,1/2-y,-z
1/2+x,1/2+y,1/2-z
1/2-x,1/2+y,z
1/2+x,1/2-y,1/2+z
loop_
_atom_site_type_symbol
_atom_site_label
_atom_site_fract_x
_atom_site_fract_y
_atom_site_fract_z
Si Si1 0.179194 0.591210 0.341861
Si Si2 0.150910 0.740975 0.652814
Si Si3 0.424540 0.049423 0.912559
Si Si4 0.187088 0.033149 0.089997
Si Si5 0.291988 0.681402 0.658184
O O1 0.204916 0.581763 0.250000
O O2 0.113854 0.523667 0.349019
O O3 0.235872 0.549435 0.399976
O O4 0.164425 0.715170 0.365059
O O5 0.140314 0.735530 0.750000
O O6 0.097173 0.672712 0.603359
O O7 0.146518 0.865265 0.623122
O O8 0.219506 0.693025 0.620814
O O9 0.500000 0.040495 0.893638
O O10 0.408116 0.000000 0.000000
O O11 0.168218 0.925092 0.137657
O O12 0.169568 0.000000 0.000000
O O13 0.274967 0.682318 0.750000
#
# Coordination Sequence:
#
# PCOD8258920 Si02
#       5
#    16  16  16  16  16
#     4  10  20  34  54  80 115 152 186 226 279 345
#     4  10  21  36  57  82 115 154 193 229 276 349
#     4  11  24  39  58  82 111 144 186 240 282 326
#     4  11  21  31  54  86 117 151 182 232 287 335
#     4   9  18  32  52  80 115 148 178 226 282 336
#
# _framework density 18.760085
#
# number of rings (size 3 to 8) (size 9 to 14) (size 15 to 20)
#    0.000    1.800    2.000    4.200    2.800    3.200 
#    0.000    0.000    0.000    1.800    0.000    2.800 
#    0.000    0.000    0.000    0.000    0.000    0.000 
#
# Total GULP energy -495579.308388 kJ/mol
# GULP energy per Si atom -12389.482710 kJ/mol
# Density = 1.871739 g / cm^3
# Si number density = 18.760085 Si / 1000 Ang^3
#
#
#
# Elastic Constant Matrix: (Units=GPa)
#
#
# Indices 1 2 3 4 5 6 
#
# 1 53.7205 29.3630 21.7252 0.0000 0.0000 0.0000
# 2 29.3630 157.1257 37.8428 0.0000 0.0000 0.0000
# 3 21.7252 37.8428 63.5020 0.0000 0.0000 0.0000
# 4 0.0000 0.0000 0.0000 36.5249 0.0000 0.0000
# 5 0.0000 0.0000 0.0000 0.0000 16.5092 0.0000
# 6 0.0000 0.0000 0.0000 0.0000 0.0000 25.5314
#
#
#
# Elastic Compliance Matrix: (Units=1/GPa)
#
#
# Indices 1 2 3 4 5 6 
#
# 1 0.022581 -0.002755 -0.006084 0.000000 0.000000 0.000000
# 2 -0.002755 0.007767 -0.003686 0.000000 0.000000 0.000000
# 3 -0.006084 -0.003686 0.020026 0.000000 0.000000 0.000000
# 4 0.000000 0.000000 0.000000 0.027379 0.000000 0.000000
# 5 0.000000 0.000000 0.000000 0.000000 0.060572 0.000000
# 6 0.000000 0.000000 0.000000 0.000000 0.000000 0.039167
#
#
# Mechanical properties :
#
#
# Convention : Reuss Voigt Hill
#
# Bulk Modulus (GPa) = 39.48771 50.24558 44.86664
# Shear Modulus (GPa) = 23.69869 28.07424 25.88647
#
# Velocity S-wave (km/s) = 3.55808 3.87264 3.71869
# Velocity P-wave (km/s) = 6.16234 6.84382 6.51200
#
# Compressibility (1/GPa) = 0.02532434
#
# Stress axis : x y z
#
# Youngs Moduli (GPa) = 44.28535 128.75181 49.93612
#
# Poissons Ratio (x) = 0.35466 0.30380
# Poissons Ratio (y) = 0.12199 0.18407
# Poissons Ratio (z) = 0.26942 0.47460
#
# Static dielectric constant tensor:
#      x y z
#    x 2.932780 0.000000 0.000000 
#    y 0.000000 3.570600 0.000000 
#    z 0.000000 0.000000 3.386710 
# 
# 
# High freq. dielectric constant tensor:
#      x y z
#    x 1.665200 0.000000 0.000000 
#    y 0.000000 1.755400 0.000000 
#    z 0.000000 0.000000 1.730340 
# 
# From -- ./inp_files/36429.got.cif
#   From: 2010.03.12/outbox.cif.g09.slc.cpg/sg63_19_cif.got.tgz:36429.got - 2010.04.10 19:34:48.
