data_PCOD8258290
_publ_section_title
;
Structure prediction by ZEFSAII (Michael W. Deem and Ramdas Pophale) SiO2 
 PCOD8258290
Probable space group: C M C M
;
_chemical_formula_sum "Si O2"
_cell_formula_units_Z 80
_cell_length_a 18.919937
_cell_length_b 32.710494
_cell_length_c 8.771597
_cell_angle_alpha 90.000000
_cell_angle_beta 90.000000
_cell_angle_gamma 90.000000
_cell_volume 5428.570212
_symmetry_space_group_name_H-M "C M C M"
_symmetry_group_IT_number 63
_symmetry_cell_setting 'orthorhombic'
loop_
_space_group_symop_operation_xyz
x,y,z
-x,-y,1/2+z
x,-y,-z
-x,y,1/2-z
-x,-y,-z
x,y,1/2-z
-x,y,z
x,-y,1/2+z
1/2+x,1/2+y,z
1/2-x,1/2-y,1/2+z
1/2+x,1/2-y,-z
1/2-x,1/2+y,1/2-z
1/2-x,1/2-y,-z
1/2+x,1/2+y,1/2-z
1/2-x,1/2+y,z
1/2+x,1/2-y,1/2+z
loop_
_atom_site_type_symbol
_atom_site_label
_atom_site_fract_x
_atom_site_fract_y
_atom_site_fract_z
Si Si1 0.000000 0.665418 0.924265
Si Si2 0.718765 0.187922 0.573882
Si Si3 0.000000 0.237726 0.423576
Si Si4 0.418484 0.957086 0.428675
Si Si5 0.143600 0.236172 0.573168
Si Si6 0.867290 0.377308 0.929750
O O1 0.000000 0.713732 0.933315
O O2 0.000000 0.649372 0.750000
O O3 0.068257 0.649331 0.009578
O O4 0.700585 0.180503 0.750000
O O5 0.800371 0.199700 0.548498
O O6 0.667756 0.223934 0.517647
O O7 0.703988 0.146146 0.481485
O O8 0.930895 0.220236 0.508473
O O9 0.000000 0.222209 0.250000
O O10 0.406179 0.959353 0.250000
O O11 0.500000 0.946844 0.469145
O O12 0.368546 0.922495 0.499592
O O13 0.395545 0.000000 0.500000
O O14 0.136980 0.248089 0.750000
O O15 0.870680 0.381154 0.750000
#
# Coordination Sequence:
#
# PCOD8258290 Si02
#       6
#     8  16   8  16  16  16
#     4  11  21  31  42  62  86 114 150 189 226 261
#     4  10  20  33  46  63  87 114 145 184 227 265
#     4  11  21  31  47  64  87 116 147 187 228 267
#     4  10  20  33  48  64  88 116 145 184 224 264
#     4  10  20  32  47  64  85 113 147 185 224 267
#     4  12  22  31  47  66  86 115 150 187 224 266
#
# _framework density 14.736845000000001
#
# number of rings (size 3 to 8) (size 9 to 14) (size 15 to 20)
#    0.000    1.400    3.000    4.200    0.000    4.000 
#    0.000    0.000    0.000    0.000    0.000    0.000 
#    0.000    0.000    0.000    0.900    0.000   11.800 
#
# Total GULP energy -496154.419992 kJ/mol
# GULP energy per Si atom -12403.860500 kJ/mol
# Density = 1.470330 g / cm^3
# Si number density = 14.736845 Si / 1000 Ang^3
#
#
#
# Elastic Constant Matrix: (Units=GPa)
#
#
# Indices 1 2 3 4 5 6 
#
# 1 82.5633 30.9567 36.0511 0.0000 0.0000 0.0000
# 2 30.9567 82.8485 42.7392 0.0000 0.0000 0.0000
# 3 36.0511 42.7392 100.3608 0.0000 0.0000 0.0000
# 4 0.0000 0.0000 0.0000 25.4031 0.0000 0.0000
# 5 0.0000 0.0000 0.0000 0.0000 21.6569 0.0000
# 6 0.0000 0.0000 0.0000 0.0000 0.0000 19.2483
#
#
#
# Elastic Compliance Matrix: (Units=1/GPa)
#
#
# Indices 1 2 3 4 5 6 
#
# 1 0.015187 -0.003666 -0.003894 0.000000 0.000000 0.000000
# 2 -0.003666 0.016353 -0.005647 0.000000 0.000000 0.000000
# 3 -0.003894 -0.005647 0.013768 0.000000 0.000000 0.000000
# 4 0.000000 0.000000 0.000000 0.039365 0.000000 0.000000
# 5 0.000000 0.000000 0.000000 0.000000 0.046175 0.000000
# 6 0.000000 0.000000 0.000000 0.000000 0.000000 0.051953
#
#
# Mechanical properties :
#
#
# Convention : Reuss Voigt Hill
#
# Bulk Modulus (GPa) = 52.92880 53.91852 53.42366
# Shear Modulus (GPa) = 23.20049 23.66338 23.43193
#
# Velocity S-wave (km/s) = 3.97207 4.01150 3.99184
# Velocity P-wave (km/s) = 7.55185 7.62386 7.58794
#
# Compressibility (1/GPa) = 0.01889331
#
# Stress axis : x y z
#
# Youngs Moduli (GPa) = 65.84678 61.15006 72.63276
#
# Poissons Ratio (x) = 0.22416 0.28285
# Poissons Ratio (y) = 0.24137 0.41018
# Poissons Ratio (z) = 0.25643 0.34534
#
# Static dielectric constant tensor:
#      x y z
#    x 2.782760 0.000000 0.000000 
#    y 0.000000 2.769970 0.000000 
#    z 0.000000 0.000000 3.054270 
# 
# 
# High freq. dielectric constant tensor:
#      x y z
#    x 1.538800 0.000000 0.000000 
#    y 0.000000 1.537290 0.000000 
#    z 0.000000 0.000000 1.588320 
# 
# From -- ./inp_files/8897.got.cif
#   From: 2010.03.12/outbox.cif.g09.slc.cpg/sg63_5_cif.got.tgz:8897.got - 2010.04.10 19:34:48.
