data_PCOD8258015
_publ_section_title
;
Structure prediction by ZEFSAII (Michael W. Deem and Ramdas Pophale) SiO2 
 PCOD8258015
Probable space group: C M C M
;
_chemical_formula_sum "Si O2"
_cell_formula_units_Z 96
_cell_length_a 13.784269
_cell_length_b 20.554163
_cell_length_c 18.032799
_cell_angle_alpha 90.000000
_cell_angle_beta 90.000000
_cell_angle_gamma 90.000000
_cell_volume 5109.126761
_symmetry_space_group_name_H-M "C M C M"
_symmetry_group_IT_number 63
_symmetry_cell_setting 'orthorhombic'
loop_
_space_group_symop_operation_xyz
x,y,z
-x,-y,1/2+z
x,-y,-z
-x,y,1/2-z
-x,-y,-z
x,y,1/2-z
-x,y,z
x,-y,1/2+z
1/2+x,1/2+y,z
1/2-x,1/2-y,1/2+z
1/2+x,1/2-y,-z
1/2-x,1/2+y,1/2-z
1/2-x,1/2-y,-z
1/2+x,1/2+y,1/2-z
1/2-x,1/2+y,z
1/2+x,1/2-y,1/2+z
loop_
_atom_site_type_symbol
_atom_site_label
_atom_site_fract_x
_atom_site_fract_y
_atom_site_fract_z
Si Si1 0.272196 0.982356 0.164535
Si Si2 0.389937 0.909987 0.606677
Si Si3 0.108525 0.602806 0.937543
Si Si4 0.110956 0.269700 0.833599
Si Si5 0.275778 0.309344 0.446166
Si Si6 0.386354 0.560980 0.554346
O O1 0.267604 0.962412 0.250000
O O2 0.303019 0.057783 0.154828
O O3 0.363809 0.951189 0.122228
O O4 0.169877 0.960340 0.129259
O O5 0.500000 0.929282 0.632334
O O6 0.375257 0.926038 0.519962
O O7 0.374849 0.833516 0.617251
O O8 0.171215 0.666263 0.921221
O O9 0.000000 0.625703 0.925235
O O10 0.148796 0.280892 0.750000
O O11 0.170326 0.212468 0.872001
O O12 0.000000 0.247366 0.832833
O O13 0.250000 0.250000 0.500000
O O14 0.337887 0.371909 0.478554
O O15 0.372254 0.500000 0.500000
O O16 0.500000 0.572940 0.571122
#
# Coordination Sequence:
#
# PCOD8258015 Si02
#       6
#    16  16  16  16  16  16
#     4  11  22  35  56  86 120 156 193 242 299 355
#     4  10  19  35  58  84 116 155 197 243 300 360
#     4  10  21  36  55  81 115 152 197 243 291 355
#     4  10  21  36  57  88 120 150 193 252 309 356
#     4  11  21  36  61  88 116 154 199 249 299 358
#     4  10  23  42  63  87 118 158 202 244 293 357
#
# _framework density 18.789904
#
# number of rings (size 3 to 8) (size 9 to 14) (size 15 to 20)
#    0.000    1.667    1.667    4.000    0.000    7.000 
#    0.000    0.000    0.000    0.000    0.000    0.000 
#    0.000    0.000    0.000    0.000    0.000    0.000 
#
# Total GULP energy -594834.854056 kJ/mol
# GULP energy per Si atom -12392.392793 kJ/mol
# Density = 1.874714 g / cm^3
# Si number density = 18.789904 Si / 1000 Ang^3
#
#
#
# Elastic Constant Matrix: (Units=GPa)
#
#
# Indices 1 2 3 4 5 6 
#
# 1 132.8023 54.2172 43.1054 0.0000 0.0000 0.0000
# 2 54.2172 88.9771 36.3477 0.0000 0.0000 0.0000
# 3 43.1054 36.3477 115.9437 0.0000 0.0000 0.0000
# 4 0.0000 0.0000 0.0000 21.5807 0.0000 0.0000
# 5 0.0000 0.0000 0.0000 0.0000 25.7833 0.0000
# 6 0.0000 0.0000 0.0000 0.0000 0.0000 32.6882
#
#
#
# Elastic Compliance Matrix: (Units=1/GPa)
#
#
# Indices 1 2 3 4 5 6 
#
# 1 0.010480 -0.005498 -0.002173 0.000000 0.000000 0.000000
# 2 -0.005498 0.015774 -0.002901 0.000000 0.000000 0.000000
# 3 -0.002173 -0.002901 0.010342 0.000000 0.000000 0.000000
# 4 0.000000 0.000000 0.000000 0.046338 0.000000 0.000000
# 5 0.000000 0.000000 0.000000 0.000000 0.038785 0.000000
# 6 0.000000 0.000000 0.000000 0.000000 0.000000 0.030592
#
#
# Mechanical properties :
#
#
# Convention : Reuss Voigt Hill
#
# Bulk Modulus (GPa) = 64.71433 67.22931 65.97182
# Shear Modulus (GPa) = 27.99473 29.61397 28.80435
#
# Velocity S-wave (km/s) = 3.86409 3.97427 3.91956
# Velocity P-wave (km/s) = 7.37726 7.54433 7.46126
#
# Compressibility (1/GPa) = 0.01545253
#
# Stress axis : x y z
#
# Youngs Moduli (GPa) = 95.42114 63.39451 96.69302
#
# Poissons Ratio (x) = 0.34856 0.21007
# Poissons Ratio (y) = 0.52465 0.28051
# Poissons Ratio (z) = 0.20730 0.18391
#
# Static dielectric constant tensor:
#      x y z
#    x 3.593330 0.000000 0.000000 
#    y 0.000000 3.929910 0.000000 
#    z 0.000000 0.000000 3.285650 
# 
# 
# High freq. dielectric constant tensor:
#      x y z
#    x 1.732330 0.000000 0.000000 
#    y 0.000000 1.738690 0.000000 
#    z 0.000000 0.000000 1.712620 
# 
# From -- ./inp_files/31879.got.cif
#   From: 2010.03.12/outbox.cif.g09.slc.cpg/sg63_16_cif.got.tgz:31879.got - 2010.04.10 19:34:48.
