data_PCOD8258179
_publ_section_title
;
Structure prediction by ZEFSAII (Michael W. Deem and Ramdas Pophale) SiO2 
 PCOD8258179
Probable space group: C M C M
;
_chemical_formula_sum "Si O2"
_cell_formula_units_Z 112
_cell_length_a 14.024302
_cell_length_b 27.470011
_cell_length_c 13.655661
_cell_angle_alpha 90.000000
_cell_angle_beta 90.000000
_cell_angle_gamma 90.000000
_cell_volume 5260.812405
_symmetry_space_group_name_H-M "C M C M"
_symmetry_group_IT_number 63
_symmetry_cell_setting 'orthorhombic'
loop_
_space_group_symop_operation_xyz
x,y,z
-x,-y,1/2+z
x,-y,-z
-x,y,1/2-z
-x,-y,-z
x,y,1/2-z
-x,y,z
x,-y,1/2+z
1/2+x,1/2+y,z
1/2-x,1/2-y,1/2+z
1/2+x,1/2-y,-z
1/2-x,1/2+y,1/2-z
1/2-x,1/2-y,-z
1/2+x,1/2+y,1/2-z
1/2-x,1/2+y,z
1/2+x,1/2-y,1/2+z
loop_
_atom_site_type_symbol
_atom_site_label
_atom_site_fract_x
_atom_site_fract_y
_atom_site_fract_z
Si Si1 0.607234 0.149902 0.860240
Si Si2 0.168822 0.285807 0.966403
Si Si3 0.757956 0.620000 0.135415
Si Si4 0.392113 0.967469 0.633688
Si Si5 0.232668 0.442810 0.364355
Si Si6 0.385951 0.394163 0.476106
Si Si7 0.606035 0.697752 0.643487
O O1 0.628954 0.168907 0.750000
O O2 0.500000 0.129627 0.865986
O O3 0.676278 0.106252 0.889437
O O4 0.618712 0.194057 0.936148
O O5 0.205327 0.327101 0.893597
O O6 0.099314 0.251259 0.903918
O O7 0.250000 0.250000 0.000000
O O8 0.738840 0.617288 0.250000
O O9 0.839124 0.581882 0.101167
O O10 0.656692 0.607071 0.085448
O O11 0.397484 0.971210 0.750000
O O12 0.500000 0.967952 0.590680
O O13 0.330552 0.012962 0.592803
O O14 0.251594 0.450202 0.250000
O O15 0.336248 0.438758 0.416931
O O16 0.500000 0.401023 0.479741
O O17 0.348205 0.343587 0.426000
O O18 0.658907 0.698877 0.750000
O O19 0.500000 0.679159 0.661257
#
# Coordination Sequence:
#
# PCOD8258179 Si02
#       7
#    16  16  16  16  16  16  16
#     4  10  21  37  61  95 133 167 202 254 318 382
#     4  12  22  39  60  88 127 166 210 259 310 377
#     4  11  24  43  63  90 127 168 215 263 316 377
#     4   9  20  40  67  98 132 167 202 246 310 389
#     4  10  19  38  66  96 130 165 205 254 312 378
#     4  11  23  42  63  90 124 163 218 272 318 370
#     4  10  21  38  61  88 119 158 204 257 317 377
#
# _framework density 21.289487999999999
#
# number of rings (size 3 to 8) (size 9 to 14) (size 15 to 20)
#    0.000    1.571    2.857    1.714    0.000    6.857 
#    0.000    3.571    0.000    2.571    0.000    0.000 
#    0.000    0.000    0.000    0.000    0.000    0.000 
#
# Total GULP energy -694248.466089 kJ/mol
# GULP energy per Si atom -12397.294037 kJ/mol
# Density = 2.124103 g / cm^3
# Si number density = 21.289488 Si / 1000 Ang^3
#
#
#
# Elastic Constant Matrix: (Units=GPa)
#
#
# Indices 1 2 3 4 5 6 
#
# 1 141.0489 65.3477 50.0763 0.0000 0.0000 0.0000
# 2 65.3477 119.4801 43.8906 0.0000 0.0000 0.0000
# 3 50.0763 43.8906 115.6135 0.0000 0.0000 0.0000
# 4 0.0000 0.0000 0.0000 34.0328 0.0000 0.0000
# 5 0.0000 0.0000 0.0000 0.0000 32.6599 0.0000
# 6 0.0000 0.0000 0.0000 0.0000 0.0000 31.7581
#
#
#
# Elastic Compliance Matrix: (Units=1/GPa)
#
#
# Indices 1 2 3 4 5 6 
#
# 1 0.010155 -0.004576 -0.002661 0.000000 0.000000 0.000000
# 2 -0.004576 0.011788 -0.002493 0.000000 0.000000 0.000000
# 3 -0.002661 -0.002493 0.010749 0.000000 0.000000 0.000000
# 4 0.000000 0.000000 0.000000 0.029383 0.000000 0.000000
# 5 0.000000 0.000000 0.000000 0.000000 0.030619 0.000000
# 6 0.000000 0.000000 0.000000 0.000000 0.000000 0.031488
#
#
# Mechanical properties :
#
#
# Convention : Reuss Voigt Hill
#
# Bulk Modulus (GPa) = 75.58191 77.19685 76.38938
# Shear Modulus (GPa) = 33.77168 34.14533 33.95850
#
# Velocity S-wave (km/s) = 3.98717 4.00917 3.99818
# Velocity P-wave (km/s) = 7.53497 7.60069 7.56790
#
# Compressibility (1/GPa) = 0.01323068
#
# Stress axis : x y z
#
# Youngs Moduli (GPa) = 98.47623 84.82891 93.03606
#
# Poissons Ratio (x) = 0.38822 0.24757
# Poissons Ratio (y) = 0.45067 0.23194
# Poissons Ratio (z) = 0.26205 0.21148
#
# Static dielectric constant tensor:
#      x y z
#    x 3.805300 0.000000 0.000000 
#    y 0.000000 2.085900 0.000000 
#    z 0.000000 0.000000 3.951570 
# 
# 
# High freq. dielectric constant tensor:
#      x y z
#    x 1.831710 0.000000 0.000000 
#    y 0.000000 1.828400 0.000000 
#    z 0.000000 0.000000 1.848550 
# 
# From -- ./inp_files/32351.got.cif
#   From: 2010.03.12/outbox.cif.g09.slc.cpg/sg63_17_cif.got.tgz:32351.got - 2010.04.10 19:34:48.
