data_PCOD8258602
_publ_section_title
;
Structure prediction by ZEFSAII (Michael W. Deem and Ramdas Pophale) SiO2 
 PCOD8258602
Probable space group: C M C M
;
_chemical_formula_sum "Si O2"
_cell_formula_units_Z 80
_cell_length_a 9.141325
_cell_length_b 24.854017
_cell_length_c 19.494619
_cell_angle_alpha 90.000000
_cell_angle_beta 90.000000
_cell_angle_gamma 90.000000
_cell_volume 4429.151060
_symmetry_space_group_name_H-M "C M C M"
_symmetry_group_IT_number 63
_symmetry_cell_setting 'orthorhombic'
loop_
_space_group_symop_operation_xyz
x,y,z
-x,-y,1/2+z
x,-y,-z
-x,y,1/2-z
-x,-y,-z
x,y,1/2-z
-x,y,z
x,-y,1/2+z
1/2+x,1/2+y,z
1/2-x,1/2-y,1/2+z
1/2+x,1/2-y,-z
1/2-x,1/2+y,1/2-z
1/2-x,1/2-y,-z
1/2+x,1/2+y,1/2-z
1/2-x,1/2+y,z
1/2+x,1/2-y,1/2+z
loop_
_atom_site_type_symbol
_atom_site_label
_atom_site_fract_x
_atom_site_fract_y
_atom_site_fract_z
Si Si1 0.170417 0.311198 0.928647
Si Si2 0.829794 0.813835 0.433661
Si Si3 0.167400 0.111274 0.331144
Si Si4 0.161866 0.508416 0.168569
Si Si5 0.670265 0.888532 0.329782
O O1 0.200900 0.248376 0.917669
O O2 0.239261 0.341087 0.863840
O O3 0.000000 0.324532 0.933245
O O4 0.245718 0.332227 0.998025
O O5 0.771074 0.847018 0.369627
O O6 0.000000 0.825489 0.444584
O O7 0.186493 0.116265 0.250000
O O8 0.225313 0.053396 0.357985
O O9 0.000000 0.116722 0.353934
O O10 0.155631 0.507769 0.250000
O O11 0.209782 0.448873 0.144224
O O12 0.000000 0.522197 0.139852
O O13 0.707485 0.881782 0.250000
O O14 0.500000 0.876266 0.343584
#
# Coordination Sequence:
#
# PCOD8258602 Si02
#       5
#    16  16  16  16  16
#     4  10  21  37  55  73  99 137 174 209 254 307
#     4  10  21  36  54  76 102 133 170 213 259 303
#     4  10  20  33  52  79 107 134 167 210 256 298
#     4   8  15  30  51  74 102 136 170 203 245 299
#     4   9  18  33  54  79 106 137 171 206 248 301
#
# _framework density 18.062152000000001
#
# number of rings (size 3 to 8) (size 9 to 14) (size 15 to 20)
#    0.000    2.600    0.000    3.000    0.000    5.600 
#    0.000    7.000    0.000    6.000    0.000    0.000 
#    0.000    0.000    0.000    0.000    0.000    0.000 
#
# Total GULP energy -496017.747466 kJ/mol
# GULP energy per Si atom -12400.443687 kJ/mol
# Density = 1.802104 g / cm^3
# Si number density = 18.062152 Si / 1000 Ang^3
#
#
#
# Elastic Constant Matrix: (Units=GPa)
#
#
# Indices 1 2 3 4 5 6 
#
# 1 122.9623 67.7881 51.3686 0.0000 0.0000 0.0000
# 2 67.7881 91.8406 47.2378 0.0000 0.0000 0.0000
# 3 51.3686 47.2378 57.5413 0.0000 0.0000 0.0000
# 4 0.0000 0.0000 0.0000 6.7285 0.0000 0.0000
# 5 0.0000 0.0000 0.0000 0.0000 33.1500 0.0000
# 6 0.0000 0.0000 0.0000 0.0000 0.0000 35.4003
#
#
#
# Elastic Compliance Matrix: (Units=1/GPa)
#
#
# Indices 1 2 3 4 5 6 
#
# 1 0.015447 -0.007458 -0.007668 0.000000 0.000000 0.000000
# 2 -0.007458 0.022447 -0.011770 0.000000 0.000000 0.000000
# 3 -0.007668 -0.011770 0.033886 0.000000 0.000000 0.000000
# 4 0.000000 0.000000 0.000000 0.148622 0.000000 0.000000
# 5 0.000000 0.000000 0.000000 0.000000 0.030166 0.000000
# 6 0.000000 0.000000 0.000000 0.000000 0.000000 0.028248
#
#
# Mechanical properties :
#
#
# Convention : Reuss Voigt Hill
#
# Bulk Modulus (GPa) = 55.58709 67.23704 61.41207
# Shear Modulus (GPa) = 14.76654 22.11907 18.44280
#
# Velocity S-wave (km/s) = 2.86237 3.50324 3.19889
# Velocity P-wave (km/s) = 6.46270 7.32596 6.90783
#
# Compressibility (1/GPa) = 0.01798979
#
# Stress axis : x y z
#
# Youngs Moduli (GPa) = 64.73618 44.54984 29.51059
#
# Poissons Ratio (x) = 0.33225 0.22628
# Poissons Ratio (y) = 0.48279 0.34733
# Poissons Ratio (z) = 0.49638 0.52433
#
# Static dielectric constant tensor:
#      x y z
#    x 3.463960 0.000000 0.000000 
#    y 0.000000 3.455620 0.000000 
#    z 0.000000 0.000000 3.078430 
# 
# 
# High freq. dielectric constant tensor:
#      x y z
#    x 1.707830 0.000000 0.000000 
#    y 0.000000 1.704590 0.000000 
#    z 0.000000 0.000000 1.676480 
# 
# From -- ./inp_files/40444.got.cif
#   From: 2010.03.12/outbox.cif.g09.slc.cpg/sg63_21_cif.got.tgz:40444.got - 2010.04.10 19:34:48.
