data_PCOD8258717
_publ_section_title
;
Structure prediction by ZEFSAII (Michael W. Deem and Ramdas Pophale) SiO2 
 PCOD8258717
Probable space group: C M C M
;
_chemical_formula_sum "Si O2"
_cell_formula_units_Z 112
_cell_length_a 15.352244
_cell_length_b 30.064355
_cell_length_c 13.957084
_cell_angle_alpha 90.000000
_cell_angle_beta 90.000000
_cell_angle_gamma 90.000000
_cell_volume 6441.966283
_symmetry_space_group_name_H-M "C M C M"
_symmetry_group_IT_number 63
_symmetry_cell_setting 'orthorhombic'
loop_
_space_group_symop_operation_xyz
x,y,z
-x,-y,1/2+z
x,-y,-z
-x,y,1/2-z
-x,-y,-z
x,y,1/2-z
-x,y,z
x,-y,1/2+z
1/2+x,1/2+y,z
1/2-x,1/2-y,1/2+z
1/2+x,1/2-y,-z
1/2-x,1/2+y,1/2-z
1/2-x,1/2-y,-z
1/2+x,1/2+y,1/2-z
1/2-x,1/2+y,z
1/2+x,1/2-y,1/2+z
loop_
_atom_site_type_symbol
_atom_site_label
_atom_site_fract_x
_atom_site_fract_y
_atom_site_fract_z
Si Si1 0.000000 0.507550 0.389437
Si Si2 0.344920 0.153807 0.478575
Si Si3 0.254271 0.433111 0.983195
Si Si4 0.190146 0.505378 0.856186
Si Si5 0.400343 0.782507 0.358743
Si Si6 0.398713 0.604876 0.360444
Si Si7 0.000000 0.612426 0.140429
Si Si8 0.298975 0.695316 0.139814
O O1 0.000000 0.500000 0.500000
O O2 0.913048 0.482774 0.350335
O O3 0.000000 0.559180 0.362366
O O4 0.282165 0.114492 0.513050
O O5 0.385048 0.175443 0.573254
O O6 0.416698 0.133195 0.410046
O O7 0.289159 0.190000 0.420524
O O8 0.193777 0.456097 0.902160
O O9 0.349877 0.428093 0.935087
O O10 0.251279 0.462482 0.079825
O O11 0.230128 0.506222 0.750000
O O12 0.375921 0.796357 0.250000
O O13 0.500000 0.767421 0.364675
O O14 0.344119 0.740702 0.394114
O O15 0.381058 0.590322 0.250000
O O16 0.500000 0.602631 0.385445
O O17 0.365695 0.654921 0.376745
O O18 0.000000 0.628091 0.250000
O O19 0.271420 0.698190 0.250000
#
# Coordination Sequence:
#
# PCOD8258717 Si02
#       8
#     8  16  16  16  16  16   8  16
#     4  12  20  36  52  75 104 139 178 216 256 305
#     4  11  20  34  50  75 106 135 169 213 264 307
#     4  10  21  34  52  75 104 131 170 217 255 311
#     4  11  21  35  52  72 101 140 177 211 252 303
#     4  10  20  34  51  73 103 140 176 213 254 302
#     4   9  17  32  56  83 106 130 165 214 265 310
#     4  12  22  32  51  76 105 136 168 214 263 309
#     4   9  18  32  53  78 104 134 172 212 255 309
#
# _framework density 17.385995999999999
#
# number of rings (size 3 to 8) (size 9 to 14) (size 15 to 20)
#    0.000    1.714    3.571    2.357    0.000    3.429 
#    0.000    1.429    0.000    1.286    0.000    0.000 
#    0.000    0.000    0.000    0.000    0.000    0.000 
#
# Total GULP energy -694218.674419 kJ/mol
# GULP energy per Si atom -12396.762043 kJ/mol
# Density = 1.734642 g / cm^3
# Si number density = 17.385996 Si / 1000 Ang^3
#
#
#
# Elastic Constant Matrix: (Units=GPa)
#
#
# Indices 1 2 3 4 5 6 
#
# 1 79.9985 21.0979 29.7720 0.0000 0.0000 0.0000
# 2 21.0979 66.0092 41.9915 0.0000 0.0000 0.0000
# 3 29.7720 41.9915 111.5302 0.0000 0.0000 0.0000
# 4 0.0000 0.0000 0.0000 20.5471 0.0000 0.0000
# 5 0.0000 0.0000 0.0000 0.0000 25.0471 0.0000
# 6 0.0000 0.0000 0.0000 0.0000 0.0000 23.7336
#
#
#
# Elastic Compliance Matrix: (Units=1/GPa)
#
#
# Indices 1 2 3 4 5 6 
#
# 1 0.014265 -0.002810 -0.002750 0.000000 0.000000 0.000000
# 2 -0.002810 0.020474 -0.006958 0.000000 0.000000 0.000000
# 3 -0.002750 -0.006958 0.012320 0.000000 0.000000 0.000000
# 4 0.000000 0.000000 0.000000 0.048669 0.000000 0.000000
# 5 0.000000 0.000000 0.000000 0.000000 0.039925 0.000000
# 6 0.000000 0.000000 0.000000 0.000000 0.000000 0.042134
#
#
# Mechanical properties :
#
#
# Convention : Reuss Voigt Hill
#
# Bulk Modulus (GPa) = 45.40851 49.25120 47.32985
# Shear Modulus (GPa) = 23.79092 24.84399 24.31745
#
# Velocity S-wave (km/s) = 3.70320 3.78427 3.74395
# Velocity P-wave (km/s) = 6.66779 6.89085 6.78024
#
# Compressibility (1/GPa) = 0.02202230
#
# Stress axis : x y z
#
# Youngs Moduli (GPa) = 70.10317 48.84209 81.16804
#
# Poissons Ratio (x) = 0.13725 0.22320
# Poissons Ratio (y) = 0.19699 0.56481
# Poissons Ratio (z) = 0.19277 0.33987
#
# Static dielectric constant tensor:
#      x y z
#    x 3.370650 0.000000 0.000000 
#    y 0.000000 3.166540 0.000000 
#    z 0.000000 0.000000 3.236490 
# 
# 
# High freq. dielectric constant tensor:
#      x y z
#    x 1.667070 0.000000 0.000000 
#    y 0.000000 1.661800 0.000000 
#    z 0.000000 0.000000 1.670530 
# 
# From -- ./inp_files/32614.got.cif
#   From: 2010.03.12/outbox.cif.g09.slc.cpg/sg63_17_cif.got.tgz:32614.got - 2010.04.10 19:34:48.
