data_PCOD8258861
_publ_section_title
;
Structure prediction by ZEFSAII (Michael W. Deem and Ramdas Pophale) SiO2 
 PCOD8258861
Probable space group: C M C M
;
_chemical_formula_sum "Si O2"
_cell_formula_units_Z 64
_cell_length_a 11.912673
_cell_length_b 19.561122
_cell_length_c 12.955429
_cell_angle_alpha 90.000000
_cell_angle_beta 90.000000
_cell_angle_gamma 90.000000
_cell_volume 3018.942080
_symmetry_space_group_name_H-M "C M C M"
_symmetry_group_IT_number 63
_symmetry_cell_setting 'orthorhombic'
loop_
_space_group_symop_operation_xyz
x,y,z
-x,-y,1/2+z
x,-y,-z
-x,y,1/2-z
-x,-y,-z
x,y,1/2-z
-x,y,z
x,-y,1/2+z
1/2+x,1/2+y,z
1/2-x,1/2-y,1/2+z
1/2+x,1/2-y,-z
1/2-x,1/2+y,1/2-z
1/2-x,1/2-y,-z
1/2+x,1/2+y,1/2-z
1/2-x,1/2+y,z
1/2+x,1/2-y,1/2+z
loop_
_atom_site_type_symbol
_atom_site_label
_atom_site_fract_x
_atom_site_fract_y
_atom_site_fract_z
Si Si1 0.625397 0.419362 0.579263
Si Si2 0.287605 0.440372 0.132653
Si Si3 0.628833 0.169507 0.931415
Si Si4 0.236085 0.702919 0.362900
O O1 0.500000 0.439145 0.614434
O O2 0.713165 0.477283 0.618426
O O3 0.626627 0.411288 0.454013
O O4 0.658200 0.348065 0.630055
O O5 0.323776 0.421987 0.250000
O O6 0.166339 0.406560 0.105281
O O7 0.500000 0.180849 0.899353
O O8 0.713815 0.221546 0.876378
O O9 0.641729 0.181205 0.054453
O O10 0.180082 0.698724 0.250000
#
# Coordination Sequence:
#
# PCOD8258861 Si02
#       4
#    16  16  16  16
#     4  10  21  36  56  84 114 145 186 234 281 328
#     4  10  20  34  53  80 113 146 182 224 272 330
#     4  10  22  39  58  83 114 147 185 227 274 332
#     4  10  21  38  60  85 111 142 186 234 277 327
#
# _framework density 21.199477999999999
#
# number of rings (size 3 to 8) (size 9 to 14) (size 15 to 20)
#    0.000    2.000    0.000    3.750    0.000    7.000 
#    0.000   11.250    0.000   21.000    0.000    0.000 
#    0.000    0.000    0.000    0.000    0.000    0.000 
#
# Total GULP energy -396545.447933 kJ/mol
# GULP energy per Si atom -12392.045248 kJ/mol
# Density = 2.115123 g / cm^3
# Si number density = 21.199478 Si / 1000 Ang^3
#
#
#
# Elastic Constant Matrix: (Units=GPa)
#
#
# Indices 1 2 3 4 5 6 
#
# 1 65.8516 27.6581 -3.4126 0.0000 0.0000 0.0000
# 2 27.6581 92.2295 16.3560 0.0000 0.0000 0.0000
# 3 -3.4126 16.3560 147.4001 0.0000 0.0000 0.0000
# 4 0.0000 0.0000 0.0000 16.5943 0.0000 0.0000
# 5 0.0000 0.0000 0.0000 0.0000 7.6168 0.0000
# 6 0.0000 0.0000 0.0000 0.0000 0.0000 22.0668
#
#
#
# Elastic Compliance Matrix: (Units=1/GPa)
#
#
# Indices 1 2 3 4 5 6 
#
# 1 0.017520 -0.005433 0.001008 0.000000 0.000000 0.000000
# 2 -0.005433 0.012745 -0.001540 0.000000 0.000000 0.000000
# 3 0.001008 -0.001540 0.006978 0.000000 0.000000 0.000000
# 4 0.000000 0.000000 0.000000 0.060262 0.000000 0.000000
# 5 0.000000 0.000000 0.000000 0.000000 0.131289 0.000000
# 6 0.000000 0.000000 0.000000 0.000000 0.000000 0.045317
#
#
# Mechanical properties :
#
#
# Convention : Reuss Voigt Hill
#
# Bulk Modulus (GPa) = 39.50308 42.96492 41.23400
# Shear Modulus (GPa) = 16.97926 26.91423 21.94674
#
# Velocity S-wave (km/s) = 2.83314 3.56697 3.22102
# Velocity P-wave (km/s) = 5.42002 6.10535 5.77287
#
# Compressibility (1/GPa) = 0.02531448
#
# Stress axis : x y z
#
# Youngs Moduli (GPa) = 57.07866 78.46345 143.29755
#
# Poissons Ratio (x) = 0.42627 -0.14451
# Poissons Ratio (y) = 0.31009 0.22068
# Poissons Ratio (z) = -0.05756 0.12083
#
# Static dielectric constant tensor:
#      x y z
#    x 3.340950 0.000000 0.000000 
#    y 0.000000 3.913820 0.000000 
#    z 0.000000 0.000000 4.076040 
# 
# 
# High freq. dielectric constant tensor:
#      x y z
#    x 1.780600 0.000000 0.000000 
#    y 0.000000 1.837230 0.000000 
#    z 0.000000 0.000000 1.847220 
# 
# From -- ./inp_files/29321.got.cif
#   From: 2010.03.12/outbox.cif.g09.slc.cpg/sg63_15_cif.got.tgz:29321.got - 2010.04.10 19:34:48.
