data_PCOD8258083
_publ_section_title
;
Structure prediction by ZEFSAII (Michael W. Deem and Ramdas Pophale) SiO2 
 PCOD8258083
Probable space group: C M C M
;
_chemical_formula_sum "Si O2"
_cell_formula_units_Z 96
_cell_length_a 8.863819
_cell_length_b 29.942032
_cell_length_c 19.195556
_cell_angle_alpha 90.000000
_cell_angle_beta 90.000000
_cell_angle_gamma 90.000000
_cell_volume 5094.515000
_symmetry_space_group_name_H-M "C M C M"
_symmetry_group_IT_number 63
_symmetry_cell_setting 'orthorhombic'
loop_
_space_group_symop_operation_xyz
x,y,z
-x,-y,1/2+z
x,-y,-z
-x,y,1/2-z
-x,-y,-z
x,y,1/2-z
-x,y,z
x,-y,1/2+z
1/2+x,1/2+y,z
1/2-x,1/2-y,1/2+z
1/2+x,1/2-y,-z
1/2-x,1/2+y,1/2-z
1/2-x,1/2-y,-z
1/2+x,1/2+y,1/2-z
1/2-x,1/2+y,z
1/2+x,1/2-y,1/2+z
loop_
_atom_site_type_symbol
_atom_site_label
_atom_site_fract_x
_atom_site_fract_y
_atom_site_fract_z
Si Si1 0.673850 0.809049 0.170582
Si Si2 0.824448 0.717235 0.330556
Si Si3 0.176375 0.617898 0.941727
Si Si4 0.320877 0.553856 0.327944
Si Si5 0.678755 0.361603 0.913284
Si Si6 0.675788 0.524216 0.572189
O O1 0.706045 0.823450 0.250000
O O2 0.500000 0.795249 0.160176
O O3 0.776118 0.767133 0.148992
O O4 0.719336 0.850534 0.122711
O O5 0.785885 0.707610 0.250000
O O6 0.730428 0.683766 0.377688
O O7 0.000000 0.711157 0.346451
O O8 0.227247 0.568555 0.921097
O O9 0.000000 0.617982 0.957507
O O10 0.261279 0.636417 0.008774
O O11 0.253187 0.553977 0.250000
O O12 0.500000 0.557058 0.326054
O O13 0.256144 0.596387 0.369716
O O14 0.271517 0.508363 0.365812
O O15 0.500000 0.363225 0.915835
O O16 0.711279 0.500000 0.500000
O O17 0.500000 0.536713 0.577180
#
# Coordination Sequence:
#
# PCOD8258083 Si02
#       6
#    16  16  16  16  16  16
#     4   9  20  40  61  80 108 149 193 233 278 341
#     4  10  21  37  58  86 118 148 184 235 288 334
#     4  11  23  37  57  85 114 146 187 236 290 339
#     4   9  18  33  55  82 109 142 188 234 271 323
#     4  11  21  36  58  83 114 153 193 231 278 341
#     4  10  19  36  57  79 109 146 186 227 277 339
#
# _framework density 18.843796000000001
#
# number of rings (size 3 to 8) (size 9 to 14) (size 15 to 20)
#    0.000    2.000    1.667    2.000    0.000    4.667 
#    0.000    0.000    0.000    2.000    0.000    0.000 
#    0.000    0.000    0.000    0.000    0.000    0.000 
#
# Total GULP energy -595379.375609 kJ/mol
# GULP energy per Si atom -12403.736992 kJ/mol
# Density = 1.880091 g / cm^3
# Si number density = 18.843796 Si / 1000 Ang^3
#
#
#
# Elastic Constant Matrix: (Units=GPa)
#
#
# Indices 1 2 3 4 5 6 
#
# 1 62.1998 50.2504 45.6027 0.0000 0.0000 0.0000
# 2 50.2504 136.2187 78.0224 0.0000 0.0000 0.0000
# 3 45.6027 78.0224 132.6909 0.0000 0.0000 0.0000
# 4 0.0000 0.0000 0.0000 34.1558 0.0000 0.0000
# 5 0.0000 0.0000 0.0000 0.0000 25.5725 0.0000
# 6 0.0000 0.0000 0.0000 0.0000 0.0000 33.4067
#
#
#
# Elastic Compliance Matrix: (Units=1/GPa)
#
#
# Indices 1 2 3 4 5 6 
#
# 1 0.024723 -0.006414 -0.004726 0.000000 0.000000 0.000000
# 2 -0.006414 0.012733 -0.005283 0.000000 0.000000 0.000000
# 3 -0.004726 -0.005283 0.012267 0.000000 0.000000 0.000000
# 4 0.000000 0.000000 0.000000 0.029278 0.000000 0.000000
# 5 0.000000 0.000000 0.000000 0.000000 0.039104 0.000000
# 6 0.000000 0.000000 0.000000 0.000000 0.000000 0.029934
#
#
# Mechanical properties :
#
#
# Convention : Reuss Voigt Hill
#
# Bulk Modulus (GPa) = 59.24537 75.42891 67.33714
# Shear Modulus (GPa) = 26.80831 29.10927 27.95879
#
# Velocity S-wave (km/s) = 3.77591 3.93462 3.85608
# Velocity P-wave (km/s) = 7.10764 7.79468 7.45907
#
# Compressibility (1/GPa) = 0.01687896
#
# Stress axis : x y z
#
# Youngs Moduli (GPa) = 40.44759 78.53668 81.52178
#
# Poissons Ratio (x) = 0.50370 0.38524
# Poissons Ratio (y) = 0.25942 0.43066
# Poissons Ratio (z) = 0.19114 0.41489
#
# Static dielectric constant tensor:
#      x y z
#    x 3.320810 0.000000 0.000000 
#    y 0.000000 3.506640 0.000000 
#    z 0.000000 0.000000 3.674730 
# 
# 
# High freq. dielectric constant tensor:
#      x y z
#    x 1.718630 0.000000 0.000000 
#    y 0.000000 1.740680 0.000000 
#    z 0.000000 0.000000 1.739130 
# 
# From -- ./inp_files/51353.got.cif
#   From: 2010.03.12/outbox.cif.g09.slc.cpg/sg63_26_cif.got.tgz:51353.got - 2010.04.10 19:34:48.
