data_PCOD8258645
_publ_section_title
;
Structure prediction by ZEFSAII (Michael W. Deem and Ramdas Pophale) SiO2 
 PCOD8258645
Probable space group: C M C M
;
_chemical_formula_sum "Si O2"
_cell_formula_units_Z 104
_cell_length_a 22.426068
_cell_length_b 28.354936
_cell_length_c 8.836341
_cell_angle_alpha 90.000000
_cell_angle_beta 90.000000
_cell_angle_gamma 90.000000
_cell_volume 5618.938430
_symmetry_space_group_name_H-M "C M C M"
_symmetry_group_IT_number 63
_symmetry_cell_setting 'orthorhombic'
loop_
_space_group_symop_operation_xyz
x,y,z
-x,-y,1/2+z
x,-y,-z
-x,y,1/2-z
-x,-y,-z
x,y,1/2-z
-x,y,z
x,-y,1/2+z
1/2+x,1/2+y,z
1/2-x,1/2-y,1/2+z
1/2+x,1/2-y,-z
1/2-x,1/2+y,1/2-z
1/2-x,1/2-y,-z
1/2+x,1/2+y,1/2-z
1/2-x,1/2+y,z
1/2+x,1/2-y,1/2+z
loop_
_atom_site_type_symbol
_atom_site_label
_atom_site_fract_x
_atom_site_fract_y
_atom_site_fract_z
Si Si1 0.382910 0.599437 0.068938
Si Si2 0.696446 0.795118 0.079955
Si Si3 0.500000 0.552995 0.568142
Si Si4 0.180534 0.192954 0.073331
Si Si5 0.433956 0.953777 0.925147
Si Si6 0.772674 0.951113 0.428113
Si Si7 0.655974 0.105856 0.918044
O O1 0.391490 0.597345 0.250000
O O2 0.363868 0.652308 0.008799
O O3 0.443195 0.582885 0.987875
O O4 0.331591 0.563551 0.018520
O O5 0.721016 0.786866 0.250000
O O6 0.662634 0.746927 0.026384
O O7 0.650135 0.837733 0.075164
O O8 0.751441 0.811762 0.978565
O O9 0.500000 0.500000 0.500000
O O10 0.500000 0.549359 0.750000
O O11 0.178995 0.184650 0.250000
O O12 0.436991 0.962599 0.750000
O O13 0.500000 0.944442 0.991887
O O14 0.392123 0.910119 0.960747
O O15 0.405127 0.000000 0.000000
O O16 0.786573 0.956402 0.250000
O O17 0.722054 0.912103 0.458882
O O18 0.749965 0.000000 0.500000
O O19 0.639285 0.087510 0.750000
#
# Coordination Sequence:
#
# PCOD8258645 Si02
#       7
#    16  16   8  16  16  16  16
#     4  11  22  38  59  84 112 146 186 230 279 334
#     4   9  17  32  53  82 115 143 177 217 264 320
#     4  12  26  44  64  84 110 148 192 240 291 344
#     4   9  18  32  55  83 111 143 177 217 266 320
#     4  10  21  36  54  75 102 139 181 223 266 318
#     4  11  22  35  51  78 112 146 179 222 272 326
#     4  10  20  33  53  80 110 143 178 221 268 318
#
# _framework density 18.508834
#
# number of rings (size 3 to 8) (size 9 to 14) (size 15 to 20)
#    0.000    1.846    1.538    3.000    0.000    4.615 
#    0.000    0.000    1.692    0.000    0.000    0.000 
#    0.000    0.000    0.000    0.000    0.000    0.000 
#
# Total GULP energy -644470.042061 kJ/mol
# GULP energy per Si atom -12393.654655 kJ/mol
# Density = 1.846671 g / cm^3
# Si number density = 18.508834 Si / 1000 Ang^3
#
#
#
# Elastic Constant Matrix: (Units=GPa)
#
#
# Indices 1 2 3 4 5 6 
#
# 1 79.2466 47.8096 33.8779 0.0000 0.0000 0.0000
# 2 47.8096 139.0248 39.7042 0.0000 0.0000 0.0000
# 3 33.8779 39.7042 65.8933 0.0000 0.0000 0.0000
# 4 0.0000 0.0000 0.0000 24.0453 0.0000 0.0000
# 5 0.0000 0.0000 0.0000 0.0000 30.5303 0.0000
# 6 0.0000 0.0000 0.0000 0.0000 0.0000 28.0882
#
#
#
# Elastic Compliance Matrix: (Units=1/GPa)
#
#
# Indices 1 2 3 4 5 6 
#
# 1 0.018081 -0.004304 -0.006703 0.000000 0.000000 0.000000
# 2 -0.004304 0.009712 -0.003640 0.000000 0.000000 0.000000
# 3 -0.006703 -0.003640 0.020815 0.000000 0.000000 0.000000
# 4 0.000000 0.000000 0.000000 0.041588 0.000000 0.000000
# 5 0.000000 0.000000 0.000000 0.000000 0.032754 0.000000
# 6 0.000000 0.000000 0.000000 0.000000 0.000000 0.035602
#
#
# Mechanical properties :
#
#
# Convention : Reuss Voigt Hill
#
# Bulk Modulus (GPa) = 51.76950 58.54980 55.15965
# Shear Modulus (GPa) = 25.73559 27.38427 26.55993
#
# Velocity S-wave (km/s) = 3.73292 3.85063 3.79223
# Velocity P-wave (km/s) = 6.82718 7.17439 7.00294
#
# Compressibility (1/GPa) = 0.01931639
#
# Stress axis : x y z
#
# Youngs Moduli (GPa) = 55.30797 102.96150 48.04185
#
# Poissons Ratio (x) = 0.44310 0.32201
# Poissons Ratio (y) = 0.23802 0.17485
# Poissons Ratio (z) = 0.37071 0.37474
#
# Static dielectric constant tensor:
#      x y z
#    x 3.207490 0.000000 0.000000 
#    y 0.000000 3.742570 0.000000 
#    z 0.000000 0.000000 3.463980 
# 
# 
# High freq. dielectric constant tensor:
#      x y z
#    x 1.690630 0.000000 0.000000 
#    y 0.000000 1.732850 0.000000 
#    z 0.000000 0.000000 1.722060 
# 
# From -- ./inp_files/10819.got.cif
#   From: 2010.03.12/outbox.cif.g09.slc.cpg/sg63_6_cif.got.tgz:10819.got - 2010.04.10 19:34:48.
