data_PCOD8258956
_publ_section_title
;
Structure prediction by ZEFSAII (Michael W. Deem and Ramdas Pophale) SiO2 
 PCOD8258956
Probable space group: C M C M
;
_chemical_formula_sum "Si O2"
_cell_formula_units_Z 80
_cell_length_a 25.952119
_cell_length_b 8.753777
_cell_length_c 18.310300
_cell_angle_alpha 90.000000
_cell_angle_beta 90.000000
_cell_angle_gamma 90.000000
_cell_volume 4159.716786
_symmetry_space_group_name_H-M "C M C M"
_symmetry_group_IT_number 63
_symmetry_cell_setting 'orthorhombic'
loop_
_space_group_symop_operation_xyz
x,y,z
-x,-y,1/2+z
x,-y,-z
-x,y,1/2-z
-x,-y,-z
x,y,1/2-z
-x,y,z
x,-y,1/2+z
1/2+x,1/2+y,z
1/2-x,1/2-y,1/2+z
1/2+x,1/2-y,-z
1/2-x,1/2+y,1/2-z
1/2-x,1/2-y,-z
1/2+x,1/2+y,1/2-z
1/2-x,1/2+y,z
1/2+x,1/2-y,1/2+z
loop_
_atom_site_type_symbol
_atom_site_label
_atom_site_fract_x
_atom_site_fract_y
_atom_site_fract_z
Si Si1 0.300013 0.431755 0.420915
Si Si2 0.195375 0.430304 0.920607
Si Si3 0.899165 0.047693 0.667767
Si Si4 0.595674 0.094259 0.333486
Si Si5 0.500000 0.359763 0.663012
Si Si6 0.000000 0.456513 0.414831
O O1 0.305436 0.500000 0.500000
O O2 0.246758 0.494136 0.386137
O O3 0.297412 0.250410 0.426103
O O4 0.348698 0.497413 0.377369
O O5 0.149238 0.468075 0.865502
O O6 0.182869 0.500000 0.000000
O O7 0.885807 0.003545 0.750000
O O8 0.910480 0.225555 0.659593
O O9 0.949625 0.957269 0.641988
O O10 0.591593 0.039202 0.250000
O O11 0.550571 0.024643 0.380026
O O12 0.500000 0.314897 0.750000
O O13 0.500000 0.221702 0.605636
O O14 0.000000 0.500000 0.500000
#
# Coordination Sequence:
#
# PCOD8258956 Si02
#       6
#    16  16  16  16   8   8
#     4  10  20  34  55  80 111 147 182 224 273 323
#     4  10  20  35  55  80 110 145 184 226 271 323
#     4   9  20  38  59  81 109 144 185 228 274 328
#     4  10  21  39  59  80 109 147 183 223 277 332
#     4  10  21  38  59  84 111 142 183 232 276 322
#     4  12  25  38  56  84 114 144 181 226 272 326
#
# _framework density 19.23208
#
# number of rings (size 3 to 8) (size 9 to 14) (size 15 to 20)
#    0.000    2.000    0.000    4.500    0.000    8.800 
#    0.000    1.500    0.000    0.000    0.000    0.000 
#    0.000    0.000    0.000    0.000    0.000    0.000 
#
# Total GULP energy -495938.458348 kJ/mol
# GULP energy per Si atom -12398.461459 kJ/mol
# Density = 1.918831 g / cm^3
# Si number density = 19.232080 Si / 1000 Ang^3
#
#
#
# Elastic Constant Matrix: (Units=GPa)
#
#
# Indices 1 2 3 4 5 6 
#
# 1 199.8758 64.6974 96.5780 0.0000 0.0000 0.0000
# 2 64.6974 54.5330 47.0382 0.0000 0.0000 0.0000
# 3 96.5780 47.0382 111.0033 0.0000 0.0000 0.0000
# 4 0.0000 0.0000 0.0000 27.8871 0.0000 0.0000
# 5 0.0000 0.0000 0.0000 0.0000 48.8408 0.0000
# 6 0.0000 0.0000 0.0000 0.0000 0.0000 0.1563
#
#
#
# Elastic Compliance Matrix: (Units=1/GPa)
#
#
# Indices 1 2 3 4 5 6 
#
# 1 0.010049 -0.006904 -0.005817 0.000000 0.000000 0.000000
# 2 -0.006904 0.033645 -0.008250 0.000000 0.000000 0.000000
# 3 -0.005817 -0.008250 0.017566 0.000000 0.000000 0.000000
# 4 0.000000 0.000000 0.000000 0.035859 0.000000 0.000000
# 5 0.000000 0.000000 0.000000 0.000000 0.020475 0.000000
# 6 0.000000 0.000000 0.000000 0.000000 0.000000 6.398701
#
#
# Mechanical properties :
#
#
# Convention : Reuss Voigt Hill
#
# Bulk Modulus (GPa) = 51.76935 86.89328 69.33131
# Shear Modulus (GPa) = 0.76165 25.85007 13.30586
#
# Velocity S-wave (km/s) = 0.62999 3.67019 2.63317
# Velocity P-wave (km/s) = 5.24460 7.95235 6.73594
#
# Compressibility (1/GPa) = 0.01931645
#
# Stress axis : x y z
#
# Youngs Moduli (GPa) = 99.51600 29.72234 56.92755
#
# Poissons Ratio (x) = 0.20520 0.33116
# Poissons Ratio (y) = 0.68704 0.46968
# Poissons Ratio (z) = 0.57891 0.24522
#
# Static dielectric constant tensor:
#      x y z
#    x 3.972830 0.000000 0.000000 
#    y 0.000000 3.709680 0.000000 
#    z 0.000000 0.000000 3.575050 
# 
# 
# High freq. dielectric constant tensor:
#      x y z
#    x 1.770920 0.000000 0.000000 
#    y 0.000000 1.752270 0.000000 
#    z 0.000000 0.000000 1.740980 
# 
# From -- ./inp_files/48878.got.cif
#   From: 2010.03.12/outbox.cif.g09.slc.cpg/sg63_25_cif.got.tgz:48878.got - 2010.04.10 19:34:48.
