data_PCOD8258485
_publ_section_title
;
Structure prediction by ZEFSAII (Michael W. Deem and Ramdas Pophale) SiO2 
 PCOD8258485
Probable space group: C M C M
;
_chemical_formula_sum "Si O2"
_cell_formula_units_Z 96
_cell_length_a 8.798068
_cell_length_b 23.562098
_cell_length_c 23.735942
_cell_angle_alpha 90.000000
_cell_angle_beta 90.000000
_cell_angle_gamma 90.000000
_cell_volume 4920.483099
_symmetry_space_group_name_H-M "C M C M"
_symmetry_group_IT_number 63
_symmetry_cell_setting 'orthorhombic'
loop_
_space_group_symop_operation_xyz
x,y,z
-x,-y,1/2+z
x,-y,-z
-x,y,1/2-z
-x,-y,-z
x,y,1/2-z
-x,y,z
x,-y,1/2+z
1/2+x,1/2+y,z
1/2-x,1/2-y,1/2+z
1/2+x,1/2-y,-z
1/2-x,1/2+y,1/2-z
1/2-x,1/2-y,-z
1/2+x,1/2+y,1/2-z
1/2-x,1/2+y,z
1/2+x,1/2-y,1/2+z
loop_
_atom_site_type_symbol
_atom_site_label
_atom_site_fract_x
_atom_site_fract_y
_atom_site_fract_z
Si Si1 0.180687 0.395800 0.591769
Si Si2 0.319620 0.811525 0.814172
Si Si3 0.170004 0.901860 0.314665
Si Si4 0.179870 0.476480 0.399730
Si Si5 0.320348 0.129901 0.528679
Si Si6 0.321064 0.798750 0.132192
O O1 0.239152 0.365229 0.648879
O O2 0.239111 0.460292 0.587388
O O3 0.241541 0.363232 0.535329
O O4 0.000000 0.394827 0.591371
O O5 0.253898 0.814572 0.750000
O O6 0.500000 0.809979 0.811178
O O7 0.265933 0.756687 0.847945
O O8 0.164907 0.916590 0.250000
O O9 0.237792 0.957993 0.342763
O O10 0.280878 0.848785 0.324751
O O11 0.000000 0.888095 0.337267
O O12 0.229454 0.432302 0.448557
O O13 0.000000 0.475686 0.390479
O O14 0.500000 0.132050 0.529291
O O15 0.263130 0.180651 0.569859
O O16 0.500000 0.786965 0.133467
#
# Coordination Sequence:
#
# PCOD8258485 Si02
#       6
#    16  16  16  16  16  16
#     4   9  17  31  52  75 102 137 170 201 242 297
#     4  10  21  35  50  71 101 137 173 206 244 293
#     4  10  20  33  50  73 102 135 168 206 255 304
#     4   9  17  30  52  79 103 130 167 209 249 293
#     4   8  15  29  51  79 103 124 160 209 256 298
#     4  10  20  34  54  77  98 125 166 214 259 301
#
# _framework density 19.510279000000001
#
# number of rings (size 3 to 8) (size 9 to 14) (size 15 to 20)
#    0.000    2.667    0.000    3.000    0.000    7.000 
#    0.000    2.500    0.000   13.000    0.000    0.000 
#    0.000    0.000    0.000    0.000    0.000    0.000 
#
# Total GULP energy -594821.281026 kJ/mol
# GULP energy per Si atom -12392.110021 kJ/mol
# Density = 1.946587 g / cm^3
# Si number density = 19.510279 Si / 1000 Ang^3
#
#
#
# Elastic Constant Matrix: (Units=GPa)
#
#
# Indices 1 2 3 4 5 6 
#
# 1 10.0522 -1.1253 20.6508 0.0000 0.0000 0.0000
# 2 -1.1253 91.7120 74.6541 0.0000 0.0000 0.0000
# 3 20.6508 74.6541 139.4736 0.0000 0.0000 0.0000
# 4 0.0000 0.0000 0.0000 22.3527 0.0000 0.0000
# 5 0.0000 0.0000 0.0000 0.0000 18.8751 0.0000
# 6 0.0000 0.0000 0.0000 0.0000 0.0000 21.9861
#
#
#
# Elastic Compliance Matrix: (Units=1/GPa)
#
#
# Indices 1 2 3 4 5 6 
#
# 1 0.242214 0.056999 -0.066372 0.000000 0.000000 0.000000
# 2 0.056999 0.032736 -0.025962 0.000000 0.000000 0.000000
# 3 -0.066372 -0.025962 0.030893 0.000000 0.000000 0.000000
# 4 0.000000 0.000000 0.000000 0.044737 0.000000 0.000000
# 5 0.000000 0.000000 0.000000 0.000000 0.052980 0.000000
# 6 0.000000 0.000000 0.000000 0.000000 0.000000 0.045483
#
#
# Mechanical properties :
#
#
# Convention : Reuss Voigt Hill
#
# Bulk Modulus (GPa) = 4.25217 47.73301 25.99259
# Shear Modulus (GPa) = 8.35976 22.44666 15.40321
#
# Velocity S-wave (km/s) = 2.07222 3.39559 2.81284
# Velocity P-wave (km/s) = 2.81241 6.31601 4.88885
#
# Compressibility (1/GPa) = 0.23517412
#
# Stress axis : x y z
#
# Youngs Moduli (GPa) = 4.12858 30.54744 32.36965
#
# Poissons Ratio (x) = -1.74118 2.14844
# Poissons Ratio (y) = -0.23533 0.84037
# Poissons Ratio (z) = 0.27402 0.79306
#
# Static dielectric constant tensor:
#      x y z
#    x 3.295950 0.000000 0.000000 
#    y 0.000000 3.633730 0.000000 
#    z 0.000000 0.000000 3.977170 
# 
# 
# High freq. dielectric constant tensor:
#      x y z
#    x 1.721610 0.000000 0.000000 
#    y 0.000000 1.753920 0.000000 
#    z 0.000000 0.000000 1.769660 
# 
# From -- ./inp_files/59828.got.cif
#   From: 2010.03.12/outbox.cif.g09.slc.cpg/sg63_30_cif.got.tgz:59828.got - 2010.04.10 19:34:48.
