data_PCOD8258695
_publ_section_title
;
Structure prediction by ZEFSAII (Michael W. Deem and Ramdas Pophale) SiO2 
 PCOD8258695
Probable space group: C M C M
;
_chemical_formula_sum "Si O2"
_cell_formula_units_Z 72
_cell_length_a 29.498259
_cell_length_b 15.033723
_cell_length_c 9.780520
_cell_angle_alpha 90.000000
_cell_angle_beta 90.000000
_cell_angle_gamma 90.000000
_cell_volume 4337.354048
_symmetry_space_group_name_H-M "C M C M"
_symmetry_group_IT_number 63
_symmetry_cell_setting 'orthorhombic'
loop_
_space_group_symop_operation_xyz
x,y,z
-x,-y,1/2+z
x,-y,-z
-x,y,1/2-z
-x,-y,-z
x,y,1/2-z
-x,y,z
x,-y,1/2+z
1/2+x,1/2+y,z
1/2-x,1/2-y,1/2+z
1/2+x,1/2-y,-z
1/2-x,1/2+y,1/2-z
1/2-x,1/2-y,-z
1/2+x,1/2+y,1/2-z
1/2-x,1/2+y,z
1/2+x,1/2-y,1/2+z
loop_
_atom_site_type_symbol
_atom_site_label
_atom_site_fract_x
_atom_site_fract_y
_atom_site_fract_z
Si Si1 0.049004 0.603415 0.476577
Si Si2 0.290628 0.403149 0.970466
Si Si3 0.216289 0.612513 0.250000
Si Si4 0.233704 0.191114 0.750000
Si Si5 0.089176 0.644720 0.750000
Si Si6 0.885437 0.438850 0.750000
Si Si7 0.328456 0.279186 0.750000
O O1 0.042698 0.500000 0.500000
O O2 0.058894 0.657590 0.615214
O O3 0.091886 0.613514 0.376588
O O4 0.000000 0.638273 0.418909
O O5 0.244164 0.415406 0.884902
O O6 0.325685 0.341921 0.884942
O O7 0.312293 0.500000 0.000000
O O8 0.279635 0.361401 0.115663
O O9 0.206352 0.717127 0.250000
O O10 0.168295 0.565639 0.250000
O O11 0.287162 0.209963 0.750000
O O12 0.107624 0.544320 0.750000
O O13 0.126566 0.721577 0.750000
#
# Coordination Sequence:
#
# PCOD8258695 Si02
#       7
#    16  16   8   8   8   8   8
#     4   9  18  33  49  69 100 136 164 192 241 295
#     4  10  21  35  51  67  95 139 169 207 252 298
#     4  10  21  33  47  74  98 130 173 204 249 281
#     4  10  20  34  50  66  99 130 164 213 249 284
#     4  10  21  31  50  74 103 129 166 208 240 287
#     4  10  21  30  49  75  97 136 169 205 234 285
#     4  10  21  34  48  73  99 125 168 214 252 287
#
# _framework density 16.599981
#
# number of rings (size 3 to 8) (size 9 to 14) (size 15 to 20)
#    0.000    2.444    0.000    4.667    9.333    3.556 
#    0.000    0.000    0.000    0.000    0.000    0.000 
#    0.000    3.556    0.000    0.000    0.000    0.000 
#
# Total GULP energy -446085.287239 kJ/mol
# GULP energy per Si atom -12391.257979 kJ/mol
# Density = 1.656220 g / cm^3
# Si number density = 16.599981 Si / 1000 Ang^3
#
#
#
# Elastic Constant Matrix: (Units=GPa)
#
#
# Indices 1 2 3 4 5 6 
#
# 1 83.0814 20.5026 25.1685 0.0000 0.0000 0.0000
# 2 20.5026 76.9409 33.7305 0.0000 0.0000 0.0000
# 3 25.1685 33.7305 123.3763 0.0000 0.0000 0.0000
# 4 0.0000 0.0000 0.0000 9.3319 0.0000 0.0000
# 5 0.0000 0.0000 0.0000 0.0000 46.2849 0.0000
# 6 0.0000 0.0000 0.0000 0.0000 0.0000 -2.8590
#
#
#
# Elastic Compliance Matrix: (Units=1/GPa)
#
#
# Indices 1 2 3 4 5 6 
#
# 1 0.013297 -0.002675 -0.001981 0.000000 0.000000 0.000000
# 2 -0.002675 0.015305 -0.003639 0.000000 0.000000 0.000000
# 3 -0.001981 -0.003639 0.009504 0.000000 0.000000 0.000000
# 4 0.000000 0.000000 0.000000 0.107159 0.000000 0.000000
# 5 0.000000 0.000000 0.000000 0.000000 0.021605 0.000000
# 6 0.000000 0.000000 0.000000 0.000000 0.000000 -0.349769
#
#
# Mechanical properties :
#
#
# Convention : Reuss Voigt Hill
#
# Bulk Modulus (GPa) = 46.47557 49.13354 47.80456
# Shear Modulus (GPa) = -31.41936 24.15137 -3.63400
#
# Velocity S-wave (km/s) = -4.35528 3.81846 -1.48119
# Velocity P-wave (km/s) = 1.66340 7.00740 5.09267
#
# Compressibility (1/GPa) = 0.02151668
#
# Stress axis : x y z
#
# Youngs Moduli (GPa) = 75.20711 65.33864 105.21611
#
# Poissons Ratio (x) = 0.17476 0.20846
# Poissons Ratio (y) = 0.20115 0.38285
# Poissons Ratio (z) = 0.14900 0.23775
#
# Static dielectric constant tensor:
#      x y z
#    x 2.980910 0.000000 0.000000 
#    y 0.000000 2.992250 0.000000 
#    z 0.000000 0.000000 3.390490 
# 
# 
# High freq. dielectric constant tensor:
#      x y z
#    x 1.613140 0.000000 0.000000 
#    y 0.000000 1.609510 0.000000 
#    z 0.000000 0.000000 1.660760 
# 
# From -- ./inp_files/13966.got.cif
#   From: 2010.03.12/outbox.cif.g09.slc.cpg/sg63_7_cif.got.tgz:13966.got - 2010.04.10 19:34:48.
