data_PCOD8258469
_publ_section_title
;
Structure prediction by ZEFSAII (Michael W. Deem and Ramdas Pophale) SiO2 
 PCOD8258469
Probable space group: C M C M
;
_chemical_formula_sum "Si O2"
_cell_formula_units_Z 80
_cell_length_a 9.423299
_cell_length_b 18.461960
_cell_length_c 25.364969
_cell_angle_alpha 90.000000
_cell_angle_beta 90.000000
_cell_angle_gamma 90.000000
_cell_volume 4412.808825
_symmetry_space_group_name_H-M "C M C M"
_symmetry_group_IT_number 63
_symmetry_cell_setting 'orthorhombic'
loop_
_space_group_symop_operation_xyz
x,y,z
-x,-y,1/2+z
x,-y,-z
-x,y,1/2-z
-x,-y,-z
x,y,1/2-z
-x,y,z
x,-y,1/2+z
1/2+x,1/2+y,z
1/2-x,1/2-y,1/2+z
1/2+x,1/2-y,-z
1/2-x,1/2+y,1/2-z
1/2-x,1/2-y,-z
1/2+x,1/2+y,1/2-z
1/2-x,1/2+y,z
1/2+x,1/2-y,1/2+z
loop_
_atom_site_type_symbol
_atom_site_label
_atom_site_fract_x
_atom_site_fract_y
_atom_site_fract_z
Si Si1 0.668074 0.828042 0.096811
Si Si2 0.334656 0.665362 0.406031
Si Si3 0.333427 0.915970 0.504944
Si Si4 0.338100 0.568132 0.309407
Si Si5 0.333265 0.072996 0.809859
O O1 0.500000 0.824708 0.098307
O O2 0.728107 0.746708 0.091954
O O3 0.722731 0.864315 0.151106
O O4 0.720855 0.875276 0.047437
O O5 0.500000 0.663398 0.421691
O O6 0.249263 0.615340 0.445669
O O7 0.309450 0.636214 0.347045
O O8 0.500000 0.904028 0.513993
O O9 0.295264 0.000000 0.500000
O O10 0.302450 0.593598 0.250000
O O11 0.500000 0.541508 0.314032
O O12 0.240084 0.501591 0.326624
O O13 0.293794 0.095222 0.750000
O O14 0.500000 0.060413 0.816650
#
# Coordination Sequence:
#
# PCOD8258469 Si02
#       5
#    16  16  16  16  16
#     4   9  18  32  49  72 100 126 156 196 241 285
#     4  10  20  33  50  72  98 127 160 198 237 283
#     4  10  20  34  52  71  95 128 161 197 242 287
#     4   9  18  32  49  70  97 127 157 193 239 284
#     4   9  17  31  53  76  96 124 163 201 234 277
#
# _framework density 18.129044
#
# number of rings (size 3 to 8) (size 9 to 14) (size 15 to 20)
#    0.000    2.600    0.000    1.800    0.000    3.600 
#    0.000    6.000    0.000    0.000    0.000    5.600 
#    0.000    0.000    0.000    0.000    0.000    0.000 
#
# Total GULP energy -496028.708518 kJ/mol
# GULP energy per Si atom -12400.717713 kJ/mol
# Density = 1.808778 g / cm^3
# Si number density = 18.129044 Si / 1000 Ang^3
#
#
#
# Elastic Constant Matrix: (Units=GPa)
#
#
# Indices 1 2 3 4 5 6 
#
# 1 34.0647 42.9191 36.6720 0.0000 0.0000 0.0000
# 2 42.9191 158.0011 83.5346 0.0000 0.0000 0.0000
# 3 36.6720 83.5346 122.5501 0.0000 0.0000 0.0000
# 4 0.0000 0.0000 0.0000 31.2388 0.0000 0.0000
# 5 0.0000 0.0000 0.0000 0.0000 24.8075 0.0000
# 6 0.0000 0.0000 0.0000 0.0000 0.0000 19.6884
#
#
#
# Elastic Compliance Matrix: (Units=1/GPa)
#
#
# Indices 1 2 3 4 5 6 
#
# 1 0.050219 -0.008906 -0.008957 0.000000 0.000000 0.000000
# 2 -0.008906 0.011474 -0.005156 0.000000 0.000000 0.000000
# 3 -0.008957 -0.005156 0.014355 0.000000 0.000000 0.000000
# 4 0.000000 0.000000 0.000000 0.032011 0.000000 0.000000
# 5 0.000000 0.000000 0.000000 0.000000 0.040310 0.000000
# 6 0.000000 0.000000 0.000000 0.000000 0.000000 0.050791
#
#
# Mechanical properties :
#
#
# Convention : Reuss Voigt Hill
#
# Bulk Modulus (GPa) = 33.32218 71.20748 52.26483
# Shear Modulus (GPa) = 19.59217 25.24629 22.41923
#
# Velocity S-wave (km/s) = 3.29098 3.73579 3.52041
# Velocity P-wave (km/s) = 5.73246 7.61390 6.73917
#
# Compressibility (1/GPa) = 0.03001004
#
# Stress axis : x y z
#
# Youngs Moduli (GPa) = 19.91264 87.15063 69.66200
#
# Poissons Ratio (x) = 0.77615 0.62397
# Poissons Ratio (y) = 0.17734 0.35920
# Poissons Ratio (z) = 0.17836 0.44938
#
# Static dielectric constant tensor:
#      x y z
#    x 3.121110 0.000000 0.000000 
#    y 0.000000 3.513730 0.000000 
#    z 0.000000 0.000000 3.542900 
# 
# 
# High freq. dielectric constant tensor:
#      x y z
#    x 1.674760 0.000000 0.000000 
#    y 0.000000 1.704720 0.000000 
#    z 0.000000 0.000000 1.716580 
# 
# From -- ./inp_files/61105.got.cif
#   From: 2010.03.12/outbox.cif.g09.slc.cpg/sg63_31_cif.got.tgz:61105.got - 2010.04.10 19:34:48.
