data_PCOD8258316
_publ_section_title
;
Structure prediction by ZEFSAII (Michael W. Deem and Ramdas Pophale) SiO2 
 PCOD8258316
Probable space group: C M C M
;
_chemical_formula_sum "Si O2"
_cell_formula_units_Z 96
_cell_length_a 19.864380
_cell_length_b 13.281155
_cell_length_c 20.619063
_cell_angle_alpha 90.000000
_cell_angle_beta 90.000000
_cell_angle_gamma 90.000000
_cell_volume 5439.760578
_symmetry_space_group_name_H-M "C M C M"
_symmetry_group_IT_number 63
_symmetry_cell_setting 'orthorhombic'
loop_
_space_group_symop_operation_xyz
x,y,z
-x,-y,1/2+z
x,-y,-z
-x,y,1/2-z
-x,-y,-z
x,y,1/2-z
-x,y,z
x,-y,1/2+z
1/2+x,1/2+y,z
1/2-x,1/2-y,1/2+z
1/2+x,1/2-y,-z
1/2-x,1/2+y,1/2-z
1/2-x,1/2-y,-z
1/2+x,1/2+y,1/2-z
1/2-x,1/2+y,z
1/2+x,1/2-y,1/2+z
loop_
_atom_site_type_symbol
_atom_site_label
_atom_site_fract_x
_atom_site_fract_y
_atom_site_fract_z
Si Si1 0.246656 0.857478 0.586092
Si Si2 0.688010 0.434537 0.384488
Si Si3 0.575360 0.442400 0.676759
Si Si4 0.800149 0.701202 0.825020
Si Si5 0.845435 0.236553 0.518665
Si Si6 0.424407 0.759124 0.401255
O O1 0.230279 0.812581 0.657656
O O2 0.204888 0.781192 0.541084
O O3 0.323489 0.834345 0.562125
O O4 0.226412 0.973357 0.579550
O O5 0.628171 0.469684 0.337816
O O6 0.743682 0.380549 0.341379
O O7 0.653023 0.363582 0.437744
O O8 0.586517 0.401762 0.750000
O O9 0.500000 0.486554 0.669326
O O10 0.587038 0.353750 0.625501
O O11 0.817597 0.698132 0.750000
O O12 0.869323 0.672760 0.863609
O O13 0.915154 0.258774 0.480186
O O14 0.500000 0.797317 0.385969
#
# Coordination Sequence:
#
# PCOD8258316 Si02
#       6
#    16  16  16  16  16  16
#     4   9  18  31  48  70 103 131 162 210 252 296
#     4  11  19  31  53  76 103 135 170 215 253 301
#     4  10  20  32  47  71 105 139 164 198 255 310
#     4  10  20  32  50  76 101 135 177 209 252 304
#     4   9  18  31  47  73  97 131 171 204 251 302
#     4  10  20  34  51  73 104 137 169 210 259 306
#
# _framework density 17.647836000000002
#
# number of rings (size 3 to 8) (size 9 to 14) (size 15 to 20)
#    0.000    2.167    3.333    2.500    0.000    2.333 
#    0.000    1.667    0.000    2.000    0.000    0.000 
#    0.000    0.000    0.000    0.000    0.000    0.000 
#
# Total GULP energy -594731.745946 kJ/mol
# GULP energy per Si atom -12390.244707 kJ/mol
# Density = 1.760767 g / cm^3
# Si number density = 17.647836 Si / 1000 Ang^3
#
#
#
# Elastic Constant Matrix: (Units=GPa)
#
#
# Indices 1 2 3 4 5 6 
#
# 1 112.1612 26.6221 41.1421 0.0000 0.0000 0.0000
# 2 26.6221 39.3148 18.0678 0.0000 0.0000 0.0000
# 3 41.1421 18.0678 87.0158 0.0000 0.0000 0.0000
# 4 0.0000 0.0000 0.0000 15.3716 0.0000 0.0000
# 5 0.0000 0.0000 0.0000 0.0000 26.0612 0.0000
# 6 0.0000 0.0000 0.0000 0.0000 0.0000 24.9202
#
#
#
# Elastic Compliance Matrix: (Units=1/GPa)
#
#
# Indices 1 2 3 4 5 6 
#
# 1 0.011974 -0.006087 -0.004397 0.000000 0.000000 0.000000
# 2 -0.006087 0.031213 -0.003603 0.000000 0.000000 0.000000
# 3 -0.004397 -0.003603 0.014319 0.000000 0.000000 0.000000
# 4 0.000000 0.000000 0.000000 0.065055 0.000000 0.000000
# 5 0.000000 0.000000 0.000000 0.000000 0.038371 0.000000
# 6 0.000000 0.000000 0.000000 0.000000 0.000000 0.040128
#
#
# Mechanical properties :
#
#
# Convention : Reuss Voigt Hill
#
# Bulk Modulus (GPa) = 34.09306 45.57287 39.83297
# Shear Modulus (GPa) = 20.91937 23.44791 22.18364
#
# Velocity S-wave (km/s) = 3.44667 3.64903 3.54929
# Velocity P-wave (km/s) = 5.93295 6.60556 6.27827
#
# Compressibility (1/GPa) = 0.02933148
#
# Stress axis : x y z
#
# Youngs Moduli (GPa) = 83.51761 32.03751 69.83529
#
# Poissons Ratio (x) = 0.19501 0.30709
# Poissons Ratio (y) = 0.50837 0.25162
# Poissons Ratio (z) = 0.36725 0.11543
#
# Static dielectric constant tensor:
#      x y z
#    x 3.501690 0.000000 0.000000 
#    y 0.000000 2.969270 0.000000 
#    z 0.000000 0.000000 3.469070 
# 
# 
# High freq. dielectric constant tensor:
#      x y z
#    x 1.675420 0.000000 0.000000 
#    y 0.000000 1.645740 0.000000 
#    z 0.000000 0.000000 1.688240 
# 
# From -- ./inp_files/57510.got.cif
#   From: 2010.03.12/outbox.cif.g09.slc.cpg/sg63_29_cif.got.tgz:57510.got - 2010.04.10 19:34:48.
