data_PCOD8258524
_publ_section_title
;
Structure prediction by ZEFSAII (Michael W. Deem and Ramdas Pophale) SiO2 
 PCOD8258524
Probable space group: C M C M
;
_chemical_formula_sum "Si O2"
_cell_formula_units_Z 112
_cell_length_a 13.612395
_cell_length_b 17.422458
_cell_length_c 25.369861
_cell_angle_alpha 90.000000
_cell_angle_beta 90.000000
_cell_angle_gamma 90.000000
_cell_volume 6016.751249
_symmetry_space_group_name_H-M "C M C M"
_symmetry_group_IT_number 63
_symmetry_cell_setting 'orthorhombic'
loop_
_space_group_symop_operation_xyz
x,y,z
-x,-y,1/2+z
x,-y,-z
-x,y,1/2-z
-x,-y,-z
x,y,1/2-z
-x,y,z
x,-y,1/2+z
1/2+x,1/2+y,z
1/2-x,1/2-y,1/2+z
1/2+x,1/2-y,-z
1/2-x,1/2+y,1/2-z
1/2-x,1/2-y,-z
1/2+x,1/2+y,1/2-z
1/2-x,1/2+y,z
1/2+x,1/2-y,1/2+z
loop_
_atom_site_type_symbol
_atom_site_label
_atom_site_fract_x
_atom_site_fract_y
_atom_site_fract_z
Si Si1 0.887239 0.768336 0.535731
Si Si2 0.886777 0.762074 0.308309
Si Si3 0.385369 0.898483 0.843402
Si Si4 0.616635 0.061999 0.809711
Si Si5 0.762271 0.663700 0.887756
Si Si6 0.888435 0.632544 0.039158
Si Si7 0.204774 0.083330 0.511803
O O1 0.819119 0.730540 0.580584
O O2 0.876878 0.720317 0.481285
O O3 0.852210 0.854356 0.523650
O O4 0.000000 0.769517 0.555321
O O5 0.870046 0.796918 0.250000
O O6 0.858291 0.671869 0.305187
O O7 0.821872 0.804275 0.350713
O O8 0.000000 0.770837 0.326196
O O9 0.500000 0.913574 0.844197
O O10 0.350078 0.873277 0.901368
O O11 0.337754 0.977758 0.823072
O O12 0.647659 0.083733 0.750000
O O13 0.500000 0.063336 0.815412
O O14 0.658545 0.121745 0.851417
O O15 0.705155 0.604868 0.926490
O O16 0.000000 0.603695 0.032255
O O17 0.819480 0.578403 0.004282
O O18 0.156596 0.000000 0.500000
#
# Coordination Sequence:
#
# PCOD8258524 Si02
#       7
#    16  16  16  16  16  16  16
#     4  10  21  37  54  74 102 136 174 213 254 305
#     4  10  20  34  54  79 104 133 171 213 257 304
#     4   9  16  29  51  77 105 133 161 202 258 310
#     4  10  20  33  50  76 108 138 170 209 253 301
#     4  11  21  35  55  75 102 139 174 211 253 305
#     4   9  17  31  52  77 106 136 167 208 258 315
#     4  11  22  34  51  77 105 134 173 216 262 314
#
# _framework density 18.614695999999999
#
# number of rings (size 3 to 8) (size 9 to 14) (size 15 to 20)
#    0.000    2.000    0.000    5.571    0.000    4.571 
#    0.000    0.000    0.000    0.000    0.000    0.000 
#    0.000    6.857    0.000    0.000    0.000    0.000 
#
# Total GULP energy -694166.634570 kJ/mol
# GULP energy per Si atom -12395.832760 kJ/mol
# Density = 1.857233 g / cm^3
# Si number density = 18.614696 Si / 1000 Ang^3
#
#
#
# Elastic Constant Matrix: (Units=GPa)
#
#
# Indices 1 2 3 4 5 6 
#
# 1 67.7518 36.5795 45.5499 0.0000 0.0000 0.0000
# 2 36.5795 119.0473 58.5311 0.0000 0.0000 0.0000
# 3 45.5499 58.5311 125.4962 0.0000 0.0000 0.0000
# 4 0.0000 0.0000 0.0000 20.7899 0.0000 0.0000
# 5 0.0000 0.0000 0.0000 0.0000 31.3823 0.0000
# 6 0.0000 0.0000 0.0000 0.0000 0.0000 19.7447
#
#
#
# Elastic Compliance Matrix: (Units=1/GPa)
#
#
# Indices 1 2 3 4 5 6 
#
# 1 0.020552 -0.003435 -0.005858 0.000000 0.000000 0.000000
# 2 -0.003435 0.011474 -0.004104 0.000000 0.000000 0.000000
# 3 -0.005858 -0.004104 0.012009 0.000000 0.000000 0.000000
# 4 0.000000 0.000000 0.000000 0.048100 0.000000 0.000000
# 5 0.000000 0.000000 0.000000 0.000000 0.031865 0.000000
# 6 0.000000 0.000000 0.000000 0.000000 0.000000 0.050647
#
#
# Mechanical properties :
#
#
# Convention : Reuss Voigt Hill
#
# Bulk Modulus (GPa) = 58.00312 65.95736 61.98024
# Shear Modulus (GPa) = 24.13271 25.82570 24.97920
#
# Velocity S-wave (km/s) = 3.60451 3.72880 3.66718
# Velocity P-wave (km/s) = 6.96784 7.35177 7.16238
#
# Compressibility (1/GPa) = 0.01724045
#
# Stress axis : x y z
#
# Youngs Moduli (GPa) = 48.65598 87.15723 83.27309
#
# Poissons Ratio (x) = 0.29940 0.48777
# Poissons Ratio (y) = 0.16714 0.34178
# Poissons Ratio (z) = 0.28500 0.35773
#
# Static dielectric constant tensor:
#      x y z
#    x 3.290100 0.000000 0.000000 
#    y 0.000000 3.460100 0.000000 
#    z 0.000000 0.000000 3.605640 
# 
# 
# High freq. dielectric constant tensor:
#      x y z
#    x 1.700230 0.000000 0.000000 
#    y 0.000000 1.716250 0.000000 
#    z 0.000000 0.000000 1.729120 
# 
# From -- ./inp_files/62994.got.cif
#   From: 2010.03.12/outbox.cif.g09.slc.cpg/sg63_32_cif.got.tgz:62994.got - 2010.04.10 19:34:48.
