data_PCOD8258522
_publ_section_title
;
Structure prediction by ZEFSAII (Michael W. Deem and Ramdas Pophale) SiO2 
 PCOD8258522
Probable space group: C M C M
;
_chemical_formula_sum "Si O2"
_cell_formula_units_Z 80
_cell_length_a 18.343428
_cell_length_b 26.958838
_cell_length_c 8.837271
_cell_angle_alpha 90.000000
_cell_angle_beta 90.000000
_cell_angle_gamma 90.000000
_cell_volume 4370.185195
_symmetry_space_group_name_H-M "C M C M"
_symmetry_group_IT_number 63
_symmetry_cell_setting 'orthorhombic'
loop_
_space_group_symop_operation_xyz
x,y,z
-x,-y,1/2+z
x,-y,-z
-x,y,1/2-z
-x,-y,-z
x,y,1/2-z
-x,y,z
x,-y,1/2+z
1/2+x,1/2+y,z
1/2-x,1/2-y,1/2+z
1/2+x,1/2-y,-z
1/2-x,1/2+y,1/2-z
1/2-x,1/2-y,-z
1/2+x,1/2+y,1/2-z
1/2-x,1/2+y,z
1/2+x,1/2-y,1/2+z
loop_
_atom_site_type_symbol
_atom_site_label
_atom_site_fract_x
_atom_site_fract_y
_atom_site_fract_z
Si Si1 0.916521 0.847492 0.071614
Si Si2 0.151533 0.051356 0.577107
Si Si3 0.716472 0.298846 0.929006
Si Si4 0.206938 0.390427 0.074757
Si Si5 0.416001 0.052348 0.423741
O O1 0.900092 0.844296 0.250000
O O2 0.896749 0.902917 0.012930
O O3 0.000000 0.835227 0.032739
O O4 0.865979 0.807169 0.988637
O O5 0.131690 0.043570 0.750000
O O6 0.236744 0.064053 0.553147
O O7 0.130329 0.000000 0.500000
O O8 0.714974 0.293827 0.750000
O O9 0.750000 0.250000 0.000000
O O10 0.767441 0.344039 0.977495
O O11 0.201492 0.374857 0.250000
O O12 0.128492 0.406004 0.012728
O O13 0.390619 0.049352 0.250000
O O14 0.500000 0.067672 0.437225
O O15 0.400647 0.000000 0.500000
#
# Coordination Sequence:
#
# PCOD8258522 Si02
#       5
#    16  16  16  16  16
#     4   9  19  37  57  78 109 145 178 216 263 310
#     4   9  18  30  47  74 106 141 177 212 252 300
#     4  11  22  38  60  83 107 135 173 219 268 322
#     4  10  20  35  54  76 104 138 179 224 269 317
#     4  10  20  33  50  75 108 145 182 220 267 321
#
# _framework density 18.305861
#
# number of rings (size 3 to 8) (size 9 to 14) (size 15 to 20)
#    0.000    2.200    0.000    4.800    0.000    7.600 
#    0.000    1.000    0.000    6.000    0.000    0.000 
#    0.000    0.000    0.000    0.000    0.000    0.000 
#
# Total GULP energy -496050.153098 kJ/mol
# GULP energy per Si atom -12401.253827 kJ/mol
# Density = 1.826420 g / cm^3
# Si number density = 18.305861 Si / 1000 Ang^3
#
#
#
# Elastic Constant Matrix: (Units=GPa)
#
#
# Indices 1 2 3 4 5 6 
#
# 1 117.3725 59.3201 58.7890 0.0000 0.0000 0.0000
# 2 59.3201 102.7658 51.8972 0.0000 0.0000 0.0000
# 3 58.7890 51.8972 111.0656 0.0000 0.0000 0.0000
# 4 0.0000 0.0000 0.0000 34.9195 0.0000 0.0000
# 5 0.0000 0.0000 0.0000 0.0000 30.9033 0.0000
# 6 0.0000 0.0000 0.0000 0.0000 0.0000 17.4912
#
#
#
# Elastic Compliance Matrix: (Units=1/GPa)
#
#
# Indices 1 2 3 4 5 6 
#
# 1 0.013636 -0.005531 -0.004633 0.000000 0.000000 0.000000
# 2 -0.005531 0.014980 -0.004072 0.000000 0.000000 0.000000
# 3 -0.004633 -0.004072 0.013359 0.000000 0.000000 0.000000
# 4 0.000000 0.000000 0.000000 0.028637 0.000000 0.000000
# 5 0.000000 0.000000 0.000000 0.000000 0.032359 0.000000
# 6 0.000000 0.000000 0.000000 0.000000 0.000000 0.057172
#
#
# Mechanical properties :
#
#
# Convention : Reuss Voigt Hill
#
# Bulk Modulus (GPa) = 74.06270 74.57960 74.32115
# Shear Modulus (GPa) = 25.89110 27.40931 26.65020
#
# Velocity S-wave (km/s) = 3.76488 3.87369 3.81967
# Velocity P-wave (km/s) = 7.71008 7.79978 7.75506
#
# Compressibility (1/GPa) = 0.01350207
#
# Stress axis : x y z
#
# Youngs Moduli (GPa) = 73.33452 66.75517 74.85745
#
# Poissons Ratio (x) = 0.36926 0.34683
# Poissons Ratio (y) = 0.40565 0.30480
# Poissons Ratio (z) = 0.33977 0.27181
#
# Static dielectric constant tensor:
#      x y z
#    x 3.404970 0.000000 0.000000 
#    y 0.000000 3.079020 0.000000 
#    z 0.000000 0.000000 3.383730 
# 
# 
# High freq. dielectric constant tensor:
#      x y z
#    x 1.709990 0.000000 0.000000 
#    y 0.000000 1.696450 0.000000 
#    z 0.000000 0.000000 1.715920 
# 
# From -- ./inp_files/6392.got.cif
#   From: 2010.03.12/outbox.cif.g09.slc.cpg/sg63_4_cif.got.tgz:6392.got - 2010.04.10 19:34:48.
