data_PCOD8258412
_publ_section_title
;
Structure prediction by ZEFSAII (Michael W. Deem and Ramdas Pophale) SiO2 
 PCOD8258412
Probable space group: C M C M
;
_chemical_formula_sum "Si O2"
_cell_formula_units_Z 80
_cell_length_a 23.148146
_cell_length_b 28.300736
_cell_length_c 8.948845
_cell_angle_alpha 90.000000
_cell_angle_beta 90.000000
_cell_angle_gamma 90.000000
_cell_volume 5862.473990
_symmetry_space_group_name_H-M "C M C M"
_symmetry_group_IT_number 63
_symmetry_cell_setting 'orthorhombic'
loop_
_space_group_symop_operation_xyz
x,y,z
-x,-y,1/2+z
x,-y,-z
-x,y,1/2-z
-x,-y,-z
x,y,1/2-z
-x,y,z
x,-y,1/2+z
1/2+x,1/2+y,z
1/2-x,1/2-y,1/2+z
1/2+x,1/2-y,-z
1/2-x,1/2+y,1/2-z
1/2-x,1/2-y,-z
1/2+x,1/2+y,1/2-z
1/2-x,1/2+y,z
1/2+x,1/2-y,1/2+z
loop_
_atom_site_type_symbol
_atom_site_label
_atom_site_fract_x
_atom_site_fract_y
_atom_site_fract_z
Si Si1 0.933260 0.950447 0.424325
Si Si2 0.171032 0.280477 0.584887
Si Si3 0.625536 0.637122 0.427179
Si Si4 0.269400 0.320718 0.415846
Si Si5 0.565644 0.276119 0.075032
O O1 0.918023 0.953094 0.250000
O O2 0.893612 0.912143 0.503718
O O3 0.000000 0.936780 0.449318
O O4 0.918589 0.000000 0.500000
O O5 0.169046 0.302982 0.750000
O O6 0.203794 0.317676 0.478563
O O7 0.204824 0.231342 0.589538
O O8 0.106021 0.268437 0.527824
O O9 0.623228 0.634578 0.250000
O O10 0.691214 0.646771 0.478595
O O11 0.581980 0.677570 0.482533
O O12 0.267084 0.342789 0.250000
O O13 0.575539 0.287969 0.250000
O O14 0.500000 0.261828 0.040437
#
# Coordination Sequence:
#
# PCOD8258412 Si02
#       5
#    16  16  16  16  16
#     4  10  20  33  46  58  74  96 122 153 190 230
#     4   8  14  24  37  53  72  93 119 151 185 220
#     4  11  20  28  40  57  75  95 123 158 192 225
#     4   9  16  26  39  53  70  93 120 151 187 223
#     4   9  17  28  40  54  74 100 127 155 188 224
#
# _framework density 13.646115999999999
#
# number of rings (size 3 to 8) (size 9 to 14) (size 15 to 20)
#    0.000    2.600    0.000    4.800    0.000    8.800 
#    0.000    0.000    0.000    0.000    0.000    0.000 
#    0.000    0.000    0.000    0.000    0.000    1.000 
#
# Total GULP energy -495854.648463 kJ/mol
# GULP energy per Si atom -12396.366212 kJ/mol
# Density = 1.361506 g / cm^3
# Si number density = 13.646116 Si / 1000 Ang^3
#
#
#
# Elastic Constant Matrix: (Units=GPa)
#
#
# Indices 1 2 3 4 5 6 
#
# 1 105.2435 45.7311 50.0178 0.0000 0.0000 0.0000
# 2 45.7311 45.7208 37.2045 0.0000 0.0000 0.0000
# 3 50.0178 37.2045 98.2113 0.0000 0.0000 0.0000
# 4 0.0000 0.0000 0.0000 19.8286 0.0000 0.0000
# 5 0.0000 0.0000 0.0000 0.0000 20.9320 0.0000
# 6 0.0000 0.0000 0.0000 0.0000 0.0000 16.6896
#
#
#
# Elastic Compliance Matrix: (Units=1/GPa)
#
#
# Indices 1 2 3 4 5 6 
#
# 1 0.017517 -0.014834 -0.003302 0.000000 0.000000 0.000000
# 2 -0.014834 0.044181 -0.009182 0.000000 0.000000 0.000000
# 3 -0.003302 -0.009182 0.015342 0.000000 0.000000 0.000000
# 4 0.000000 0.000000 0.000000 0.050432 0.000000 0.000000
# 5 0.000000 0.000000 0.000000 0.000000 0.047774 0.000000
# 6 0.000000 0.000000 0.000000 0.000000 0.000000 0.059918
#
#
# Mechanical properties :
#
#
# Convention : Reuss Voigt Hill
#
# Bulk Modulus (GPa) = 44.63396 57.23138 50.93267
# Shear Modulus (GPa) = 16.81997 19.23819 18.02908
#
# Velocity S-wave (km/s) = 3.51462 3.75879 3.63876
# Velocity P-wave (km/s) = 7.01778 7.80184 7.42018
#
# Compressibility (1/GPa) = 0.02240446
#
# Stress axis : x y z
#
# Youngs Moduli (GPa) = 57.08860 22.63430 65.18118
#
# Poissons Ratio (x) = 0.33576 0.21520
# Poissons Ratio (y) = 0.84685 0.59848
# Poissons Ratio (z) = 0.18848 0.20782
#
# Static dielectric constant tensor:
#      x y z
#    x 2.897640 0.000000 0.000000 
#    y 0.000000 2.410250 0.000000 
#    z 0.000000 0.000000 2.896620 
# 
# 
# High freq. dielectric constant tensor:
#      x y z
#    x 1.512710 0.000000 0.000000 
#    y 0.000000 1.467190 0.000000 
#    z 0.000000 0.000000 1.534480 
# 
# From -- ./inp_files/8884.got.cif
#   From: 2010.03.12/outbox.cif.g09.slc.cpg/sg63_5_cif.got.tgz:8884.got - 2010.04.10 19:34:48.
