data_PCOD8258629
_publ_section_title
;
Structure prediction by ZEFSAII (Michael W. Deem and Ramdas Pophale) SiO2 
 PCOD8258629
Probable space group: C M C M
;
_chemical_formula_sum "Si O2"
_cell_formula_units_Z 96
_cell_length_a 17.375175
_cell_length_b 11.238858
_cell_length_c 25.500353
_cell_angle_alpha 90.000000
_cell_angle_beta 90.000000
_cell_angle_gamma 90.000000
_cell_volume 4979.635609
_symmetry_space_group_name_H-M "C M C M"
_symmetry_group_IT_number 63
_symmetry_cell_setting 'orthorhombic'
loop_
_space_group_symop_operation_xyz
x,y,z
-x,-y,1/2+z
x,-y,-z
-x,y,1/2-z
-x,-y,-z
x,y,1/2-z
-x,y,z
x,-y,1/2+z
1/2+x,1/2+y,z
1/2-x,1/2-y,1/2+z
1/2+x,1/2-y,-z
1/2-x,1/2+y,1/2-z
1/2-x,1/2-y,-z
1/2+x,1/2+y,1/2-z
1/2-x,1/2+y,z
1/2+x,1/2-y,1/2+z
loop_
_atom_site_type_symbol
_atom_site_label
_atom_site_fract_x
_atom_site_fract_y
_atom_site_fract_z
Si Si1 0.808716 0.811246 0.960800
Si Si2 0.157954 0.376891 0.373184
Si Si3 0.411578 0.324872 0.811532
Si Si4 0.090038 0.557820 0.447014
Si Si5 0.590423 0.326240 0.447801
Si Si6 0.312380 0.497226 0.119953
O O1 0.838855 0.713171 0.921330
O O2 0.775803 0.922971 0.927417
O O3 0.750000 0.750000 0.000000
O O4 0.880200 0.863814 0.994331
O O5 0.116407 0.309083 0.325367
O O6 0.107579 0.486837 0.393674
O O7 0.241643 0.424392 0.354515
O O8 0.404701 0.342826 0.750000
O O9 0.500000 0.341992 0.830275
O O10 0.355811 0.421787 0.837832
O O11 0.127431 0.500000 0.500000
O O12 0.120574 0.691540 0.439001
O O13 0.000000 0.564284 0.455841
O O14 0.500000 0.342093 0.445341
O O15 0.626404 0.404020 0.401784
#
# Coordination Sequence:
#
# PCOD8258629 Si02
#       6
#    16  16  16  16  16  16
#     4  11  21  34  51  82 126 163 196 231 288 347
#     4  11  22  35  63  87 118 156 205 248 298 359
#     4  10  24  47  69  87 114 155 205 263 323 375
#     4  10  20  33  52  81 124 166 200 239 285 349
#     4  11  22  34  53  83 124 169 206 240 290 359
#     4  11  24  36  60  90 118 155 198 257 302 360
#
# _framework density 19.278518999999999
#
# number of rings (size 3 to 8) (size 9 to 14) (size 15 to 20)
#    0.000    1.333    3.333    2.500    2.333    4.667 
#    0.000    0.000    0.000    0.000    0.000    4.667 
#    0.000    0.000    0.000    0.000    0.000    0.000 
#
# Total GULP energy -595148.637391 kJ/mol
# GULP energy per Si atom -12398.929946 kJ/mol
# Density = 1.923464 g / cm^3
# Si number density = 19.278519 Si / 1000 Ang^3
#
#
#
# Elastic Constant Matrix: (Units=GPa)
#
#
# Indices 1 2 3 4 5 6 
#
# 1 67.8150 36.1959 36.1940 0.0000 0.0000 0.0000
# 2 36.1959 84.9640 41.7409 0.0000 0.0000 0.0000
# 3 36.1940 41.7409 74.1523 0.0000 0.0000 0.0000
# 4 0.0000 0.0000 0.0000 24.9226 0.0000 0.0000
# 5 0.0000 0.0000 0.0000 0.0000 25.2152 0.0000
# 6 0.0000 0.0000 0.0000 0.0000 0.0000 35.6016
#
#
#
# Elastic Compliance Matrix: (Units=1/GPa)
#
#
# Indices 1 2 3 4 5 6 
#
# 1 0.021703 -0.005587 -0.007449 0.000000 0.000000 0.000000
# 2 -0.005587 0.017707 -0.007240 0.000000 0.000000 0.000000
# 3 -0.007449 -0.007240 0.021197 0.000000 0.000000 0.000000
# 4 0.000000 0.000000 0.000000 0.040124 0.000000 0.000000
# 5 0.000000 0.000000 0.000000 0.000000 0.039659 0.000000
# 6 0.000000 0.000000 0.000000 0.000000 0.000000 0.028089
#
#
# Mechanical properties :
#
#
# Convention : Reuss Voigt Hill
#
# Bulk Modulus (GPa) = 49.86090 50.57696 50.21893
# Shear Modulus (GPa) = 23.17868 24.66790 23.92329
#
# Velocity S-wave (km/s) = 3.47119 3.58097 3.52651
# Velocity P-wave (km/s) = 6.47959 6.58708 6.53356
#
# Compressibility (1/GPa) = 0.02005580
#
# Stress axis : x y z
#
# Youngs Moduli (GPa) = 46.07592 56.47581 47.17598
#
# Poissons Ratio (x) = 0.31550 0.35140
# Poissons Ratio (y) = 0.25740 0.34157
# Poissons Ratio (z) = 0.34321 0.40891
#
# Static dielectric constant tensor:
#      x y z
#    x 3.628610 0.000000 0.000000 
#    y 0.000000 3.859280 0.000000 
#    z 0.000000 0.000000 2.847430 
# 
# 
# High freq. dielectric constant tensor:
#      x y z
#    x 1.762190 0.000000 0.000000 
#    y 0.000000 1.768280 0.000000 
#    z 0.000000 0.000000 1.711010 
# 
# From -- ./inp_files/63711.got.cif
#   From: 2010.03.12/outbox.cif.g09.slc.cpg/sg63_32_cif.got.tgz:63711.got - 2010.04.10 19:34:48.
