data_PCOD8258689
_publ_section_title
;
Structure prediction by ZEFSAII (Michael W. Deem and Ramdas Pophale) SiO2 
 PCOD8258689
Probable space group: C M C M
;
_chemical_formula_sum "Si O2"
_cell_formula_units_Z 72
_cell_length_a 23.820392
_cell_length_b 22.552697
_cell_length_c 8.765996
_cell_angle_alpha 90.000000
_cell_angle_beta 90.000000
_cell_angle_gamma 90.000000
_cell_volume 4709.216504
_symmetry_space_group_name_H-M "C M C M"
_symmetry_group_IT_number 63
_symmetry_cell_setting 'orthorhombic'
loop_
_space_group_symop_operation_xyz
x,y,z
-x,-y,1/2+z
x,-y,-z
-x,y,1/2-z
-x,-y,-z
x,y,1/2-z
-x,y,z
x,-y,1/2+z
1/2+x,1/2+y,z
1/2-x,1/2-y,1/2+z
1/2+x,1/2-y,-z
1/2-x,1/2+y,1/2-z
1/2-x,1/2-y,-z
1/2+x,1/2+y,1/2-z
1/2-x,1/2+y,z
1/2+x,1/2-y,1/2+z
loop_
_atom_site_type_symbol
_atom_site_label
_atom_site_fract_x
_atom_site_fract_y
_atom_site_fract_z
Si Si1 0.279378 0.835448 0.418309
Si Si2 0.889512 0.119207 0.932056
Si Si3 0.280516 0.438115 0.569728
Si Si4 0.165283 0.236926 0.581911
Si Si5 0.500000 0.434988 0.931024
O O1 0.294160 0.859775 0.250000
O O2 0.267742 0.890198 0.531150
O O3 0.225221 0.794378 0.409986
O O4 0.331646 0.795324 0.476352
O O5 0.893086 0.111741 0.750000
O O6 0.878980 0.188007 0.978913
O O7 0.839454 0.078138 0.991996
O O8 0.946266 0.100451 0.012290
O O9 0.259978 0.500000 0.500000
O O10 0.288613 0.442276 0.750000
O O11 0.147440 0.258334 0.750000
O O12 0.500000 0.439628 0.750000
O O13 0.500000 0.500000 0.000000
#
# Coordination Sequence:
#
# PCOD8258689 Si02
#       5
#    16  16  16  16   8
#     4   9  16  26  41  61  83 106 134 167 204 247
#     4  10  20  34  48  62  81 107 142 180 217 253
#     4  11  20  30  43  60  84 112 143 175 210 251
#     4   8  15  27  43  61  80 103 132 168 208 249
#     4  12  24  36  48  62  82 110 145 182 221 256
#
# _framework density 15.289168
#
# number of rings (size 3 to 8) (size 9 to 14) (size 15 to 20)
#    0.000    2.222    0.000    6.333    0.000    6.222 
#    0.000    0.000    0.000    0.000    0.000    0.000 
#    0.000    0.000    0.000    1.000    0.000   13.111 
#
# Total GULP energy -446261.238811 kJ/mol
# GULP energy per Si atom -12396.145523 kJ/mol
# Density = 1.525437 g / cm^3
# Si number density = 15.289168 Si / 1000 Ang^3
#
#
#
# Elastic Constant Matrix: (Units=GPa)
#
#
# Indices 1 2 3 4 5 6 
#
# 1 54.1060 50.8354 33.7818 0.0000 0.0000 0.0000
# 2 50.8354 97.6293 50.3072 0.0000 0.0000 0.0000
# 3 33.7818 50.3072 115.6590 0.0000 0.0000 0.0000
# 4 0.0000 0.0000 0.0000 28.0374 0.0000 0.0000
# 5 0.0000 0.0000 0.0000 0.0000 19.4399 0.0000
# 6 0.0000 0.0000 0.0000 0.0000 0.0000 23.4823
#
#
#
# Elastic Compliance Matrix: (Units=1/GPa)
#
#
# Indices 1 2 3 4 5 6 
#
# 1 0.037044 -0.017675 -0.003132 0.000000 0.000000 0.000000
# 2 -0.017675 0.021635 -0.004248 0.000000 0.000000 0.000000
# 3 -0.003132 -0.004248 0.011409 0.000000 0.000000 0.000000
# 4 0.000000 0.000000 0.000000 0.035667 0.000000 0.000000
# 5 0.000000 0.000000 0.000000 0.000000 0.051441 0.000000
# 6 0.000000 0.000000 0.000000 0.000000 0.000000 0.042585
#
#
# Mechanical properties :
#
#
# Convention : Reuss Voigt Hill
#
# Bulk Modulus (GPa) = 50.05465 59.69369 54.87417
# Shear Modulus (GPa) = 19.48940 23.02325 21.25632
#
# Velocity S-wave (km/s) = 3.57419 3.88474 3.73270
# Velocity P-wave (km/s) = 7.05995 7.69737 7.38554
#
# Compressibility (1/GPa) = 0.01997816
#
# Stress axis : x y z
#
# Youngs Moduli (GPa) = 26.99466 46.22123 87.65344
#
# Poissons Ratio (x) = 0.81696 0.27453
# Poissons Ratio (y) = 0.47713 0.37234
# Poissons Ratio (z) = 0.08455 0.19634
#
# Static dielectric constant tensor:
#      x y z
#    x 2.656860 0.000000 0.000000 
#    y 0.000000 3.053110 0.000000 
#    z 0.000000 0.000000 3.209890 
# 
# 
# High freq. dielectric constant tensor:
#      x y z
#    x 1.528870 0.000000 0.000000 
#    y 0.000000 1.583650 0.000000 
#    z 0.000000 0.000000 1.605600 
# 
# From -- ./inp_files/7853.got.cif
#   From: 2010.03.12/outbox.cif.g09.slc.cpg/sg63_4_cif.got.tgz:7853.got - 2010.04.10 19:34:48.
