data_PCOD8258978
_publ_section_title
;
Structure prediction by ZEFSAII (Michael W. Deem and Ramdas Pophale) SiO2 
 PCOD8258978
Probable space group: C M C M
;
_chemical_formula_sum "Si O2"
_cell_formula_units_Z 96
_cell_length_a 8.915057
_cell_length_b 20.742334
_cell_length_c 26.959863
_cell_angle_alpha 90.000000
_cell_angle_beta 90.000000
_cell_angle_gamma 90.000000
_cell_volume 4985.393330
_symmetry_space_group_name_H-M "C M C M"
_symmetry_group_IT_number 63
_symmetry_cell_setting 'orthorhombic'
loop_
_space_group_symop_operation_xyz
x,y,z
-x,-y,1/2+z
x,-y,-z
-x,y,1/2-z
-x,-y,-z
x,y,1/2-z
-x,y,z
x,-y,1/2+z
1/2+x,1/2+y,z
1/2-x,1/2-y,1/2+z
1/2+x,1/2-y,-z
1/2-x,1/2+y,1/2-z
1/2-x,1/2-y,-z
1/2+x,1/2+y,1/2-z
1/2-x,1/2+y,z
1/2+x,1/2-y,1/2+z
loop_
_atom_site_type_symbol
_atom_site_label
_atom_site_fract_x
_atom_site_fract_y
_atom_site_fract_z
Si Si1 0.823765 0.182471 0.861009
Si Si2 0.323661 0.311987 0.024235
Si Si3 0.678554 0.189831 0.305909
Si Si4 0.321728 0.063474 0.139704
Si Si5 0.824051 0.433384 0.526740
Si Si6 0.821827 0.436112 0.306341
O O1 0.764752 0.247058 0.834510
O O2 0.739068 0.123155 0.837171
O O3 0.000000 0.173033 0.853058
O O4 0.779758 0.186955 0.918255
O O5 0.500000 0.307101 0.016530
O O6 0.264734 0.376746 0.999562
O O7 0.250000 0.250000 0.000000
O O8 0.741642 0.191098 0.250000
O O9 0.500000 0.187303 0.305685
O O10 0.743515 0.127240 0.333942
O O11 0.500000 0.063867 0.141682
O O12 0.266724 0.061419 0.083090
O O13 0.259248 0.001396 0.168762
O O14 0.784796 0.500000 0.500000
O O15 0.000000 0.417614 0.523889
O O16 0.762768 0.432746 0.250000
O O17 0.000000 0.434715 0.308056
#
# Coordination Sequence:
#
# PCOD8258978 Si02
#       6
#    16  16  16  16  16  16
#     4  10  21  36  54  77 106 141 178 218 269 329
#     4  11  23  38  57  81 110 144 185 234 284 336
#     4   9  16  28  49  74  98 128 169 214 256 304
#     4   9  17  31  51  76 106 137 173 217 263 313
#     4  10  20  35  56  80 109 147 186 225 273 329
#     4  10  20  34  55  83 111 140 177 221 267 316
#
# _framework density 19.256253000000001
#
# number of rings (size 3 to 8) (size 9 to 14) (size 15 to 20)
#    0.000    2.167    0.000    3.500    0.000    8.667 
#    0.000    0.833    0.000    1.000    0.000    0.000 
#    0.000    0.000    0.000    0.000    0.000    0.000 
#
# Total GULP energy -595327.141560 kJ/mol
# GULP energy per Si atom -12402.648782 kJ/mol
# Density = 1.921242 g / cm^3
# Si number density = 19.256253 Si / 1000 Ang^3
#
#
#
# Elastic Constant Matrix: (Units=GPa)
#
#
# Indices 1 2 3 4 5 6 
#
# 1 29.8031 41.0676 47.4758 0.0000 0.0000 0.0000
# 2 41.0676 191.2042 103.1495 0.0000 0.0000 0.0000
# 3 47.4758 103.1495 183.6853 0.0000 0.0000 0.0000
# 4 0.0000 0.0000 0.0000 57.1621 0.0000 0.0000
# 5 0.0000 0.0000 0.0000 0.0000 19.6508 0.0000
# 6 0.0000 0.0000 0.0000 0.0000 0.0000 31.8594
#
#
#
# Elastic Compliance Matrix: (Units=1/GPa)
#
#
# Indices 1 2 3 4 5 6 
#
# 1 0.062598 -0.006767 -0.012379 0.000000 0.000000 0.000000
# 2 -0.006767 0.008234 -0.002875 0.000000 0.000000 0.000000
# 3 -0.012379 -0.002875 0.010258 0.000000 0.000000 0.000000
# 4 0.000000 0.000000 0.000000 0.017494 0.000000 0.000000
# 5 0.000000 0.000000 0.000000 0.000000 0.050888 0.000000
# 6 0.000000 0.000000 0.000000 0.000000 0.000000 0.031388
#
#
# Mechanical properties :
#
#
# Convention : Reuss Voigt Hill
#
# Bulk Modulus (GPa) = 26.99184 87.56428 57.27806
# Shear Modulus (GPa) = 21.07454 35.93445 28.50449
#
# Velocity S-wave (km/s) = 3.31180 4.32455 3.85160
# Velocity P-wave (km/s) = 5.35459 8.39687 7.04199
#
# Compressibility (1/GPa) = 0.03704823
#
# Stress axis : x y z
#
# Youngs Moduli (GPa) = 15.97495 121.44074 97.48234
#
# Poissons Ratio (x) = 0.82175 1.20677
# Poissons Ratio (y) = 0.10810 0.28028
# Poissons Ratio (z) = 0.19776 0.34916
#
# Static dielectric constant tensor:
#      x y z
#    x 3.105390 0.000000 0.000000 
#    y 0.000000 3.697780 0.000000 
#    z 0.000000 0.000000 4.244500 
# 
# 
# High freq. dielectric constant tensor:
#      x y z
#    x 1.704900 0.000000 0.000000 
#    y 0.000000 1.770320 0.000000 
#    z 0.000000 0.000000 1.772120 
# 
# From -- ./inp_files/61497.got.cif
#   From: 2010.03.12/outbox.cif.g09.slc.cpg/sg63_31_cif.got.tgz:61497.got - 2010.04.10 19:34:48.
