data_PCOD8258492
_publ_section_title
;
Structure prediction by ZEFSAII (Michael W. Deem and Ramdas Pophale) SiO2 
 PCOD8258492
Probable space group: C M C M
;
_chemical_formula_sum "Si O2"
_cell_formula_units_Z 96
_cell_length_a 8.887040
_cell_length_b 27.371526
_cell_length_c 22.721771
_cell_angle_alpha 90.000000
_cell_angle_beta 90.000000
_cell_angle_gamma 90.000000
_cell_volume 5527.112750
_symmetry_space_group_name_H-M "C M C M"
_symmetry_group_IT_number 63
_symmetry_cell_setting 'orthorhombic'
loop_
_space_group_symop_operation_xyz
x,y,z
-x,-y,1/2+z
x,-y,-z
-x,y,1/2-z
-x,-y,-z
x,y,1/2-z
-x,y,z
x,-y,1/2+z
1/2+x,1/2+y,z
1/2-x,1/2-y,1/2+z
1/2+x,1/2-y,-z
1/2-x,1/2+y,1/2-z
1/2-x,1/2-y,-z
1/2+x,1/2+y,1/2-z
1/2-x,1/2+y,z
1/2+x,1/2-y,1/2+z
loop_
_atom_site_type_symbol
_atom_site_label
_atom_site_fract_x
_atom_site_fract_y
_atom_site_fract_z
Si Si1 0.668977 0.192089 0.933044
Si Si2 0.320229 0.369309 0.250000
Si Si3 0.826630 0.212524 0.135448
Si Si4 0.178903 0.757483 0.250000
Si Si5 0.176018 0.892652 0.125690
Si Si6 0.174286 0.357848 0.553038
Si Si7 0.678992 0.445116 0.012090
O O1 0.500000 0.174624 0.916765
O O2 0.691000 0.248579 0.917552
O O3 0.787287 0.162128 0.894315
O O4 0.699456 0.182133 0.001669
O O5 0.500000 0.367395 0.250000
O O6 0.261181 0.313367 0.250000
O O7 0.259607 0.398520 0.307742
O O8 0.739658 0.229904 0.192906
O O9 0.754975 0.162185 0.111661
O O10 0.000000 0.203570 0.151845
O O11 0.000000 0.755076 0.250000
O O12 0.240043 0.931096 0.077769
O O13 0.000000 0.899286 0.128123
O O14 0.246966 0.409705 0.535853
O O15 0.000000 0.366372 0.566894
O O16 0.500000 0.439312 0.007567
O O17 0.732163 0.500000 0.000000
#
# Coordination Sequence:
#
# PCOD8258492 Si02
#       7
#    16   8  16   8  16  16  16
#     4   9  18  30  45  69 100 130 163 200 243 292
#     4   9  16  27  45  70  97 128 163 200 239 290
#     4  11  21  33  48  70 101 136 170 205 244 291
#     4  11  21  33  49  70  99 138 175 206 241 292
#     4   9  16  28  47  70  97 128 164 202 248 305
#     4  10  20  33  50  73  98 129 166 207 252 302
#     4   9  18  33  53  75  98 127 164 213 269 317
#
# _framework density 17.368924
#
# number of rings (size 3 to 8) (size 9 to 14) (size 15 to 20)
#    0.000    2.333    1.667    1.750    0.000    1.667 
#    0.000    0.417    0.000    1.000    0.000    3.500 
#    0.000    0.000    0.000    0.000    0.000    0.000 
#
# Total GULP energy -594954.738629 kJ/mol
# GULP energy per Si atom -12394.890388 kJ/mol
# Density = 1.732939 g / cm^3
# Si number density = 17.368924 Si / 1000 Ang^3
#
#
#
# Elastic Constant Matrix: (Units=GPa)
#
#
# Indices 1 2 3 4 5 6 
#
# 1 51.3457 35.9004 32.0749 0.0000 0.0000 0.0000
# 2 35.9004 105.1866 60.1453 0.0000 0.0000 0.0000
# 3 32.0749 60.1453 100.8671 0.0000 0.0000 0.0000
# 4 0.0000 0.0000 0.0000 17.4620 0.0000 0.0000
# 5 0.0000 0.0000 0.0000 0.0000 24.6436 0.0000
# 6 0.0000 0.0000 0.0000 0.0000 0.0000 20.9299
#
#
#
# Elastic Compliance Matrix: (Units=1/GPa)
#
#
# Indices 1 2 3 4 5 6 
#
# 1 0.026964 -0.006525 -0.004684 0.000000 0.000000 0.000000
# 2 -0.006525 0.016004 -0.007468 0.000000 0.000000 0.000000
# 3 -0.004684 -0.007468 0.015857 0.000000 0.000000 0.000000
# 4 0.000000 0.000000 0.000000 0.057267 0.000000 0.000000
# 5 0.000000 0.000000 0.000000 0.000000 0.040579 0.000000
# 6 0.000000 0.000000 0.000000 0.000000 0.000000 0.047778
#
#
# Mechanical properties :
#
#
# Convention : Reuss Voigt Hill
#
# Bulk Modulus (GPa) = 46.57385 57.07117 51.82251
# Shear Modulus (GPa) = 20.08369 21.22570 20.65470
#
# Velocity S-wave (km/s) = 3.40413 3.49958 3.45218
# Velocity P-wave (km/s) = 6.50565 7.01847 6.76692
#
# Compressibility (1/GPa) = 0.02147127
#
# Stress axis : x y z
#
# Youngs Moduli (GPa) = 37.08706 62.48420 63.06548
#
# Poissons Ratio (x) = 0.40769 0.29538
# Poissons Ratio (y) = 0.24198 0.47098
# Poissons Ratio (z) = 0.17370 0.46664
#
# Static dielectric constant tensor:
#      x y z
#    x 3.179860 0.000000 0.000000 
#    y 0.000000 3.003400 0.000000 
#    z 0.000000 0.000000 3.486510 
# 
# 
# High freq. dielectric constant tensor:
#      x y z
#    x 1.666910 0.000000 0.000000 
#    y 0.000000 1.637590 0.000000 
#    z 0.000000 0.000000 1.671450 
# 
# From -- ./inp_files/60290.got.cif
#   From: 2010.03.12/outbox.cif.g09.slc.cpg/sg63_31_cif.got.tgz:60290.got - 2010.04.10 19:34:48.
