data_PCOD8258406
_publ_section_title
;
Structure prediction by ZEFSAII (Michael W. Deem and Ramdas Pophale) SiO2 
 PCOD8258406
Probable space group: C M C M
;
_chemical_formula_sum "Si O2"
_cell_formula_units_Z 80
_cell_length_a 7.449733
_cell_length_b 26.337253
_cell_length_c 20.637672
_cell_angle_alpha 90.000000
_cell_angle_beta 90.000000
_cell_angle_gamma 90.000000
_cell_volume 4049.224811
_symmetry_space_group_name_H-M "C M C M"
_symmetry_group_IT_number 63
_symmetry_cell_setting 'orthorhombic'
loop_
_space_group_symop_operation_xyz
x,y,z
-x,-y,1/2+z
x,-y,-z
-x,y,1/2-z
-x,-y,-z
x,y,1/2-z
-x,y,z
x,-y,1/2+z
1/2+x,1/2+y,z
1/2-x,1/2-y,1/2+z
1/2+x,1/2-y,-z
1/2-x,1/2+y,1/2-z
1/2-x,1/2-y,-z
1/2+x,1/2+y,1/2-z
1/2-x,1/2+y,z
1/2+x,1/2-y,1/2+z
loop_
_atom_site_type_symbol
_atom_site_label
_atom_site_fract_x
_atom_site_fract_y
_atom_site_fract_z
Si Si1 0.205426 0.300461 0.250000
Si Si2 0.000000 0.059224 0.673722
Si Si3 0.500000 0.440235 0.673441
Si Si4 0.785156 0.633294 0.126537
Si Si5 0.289309 0.132310 0.627109
Si Si6 0.697167 0.810201 0.750000
Si Si7 0.291045 0.809566 0.499191
O O1 0.254965 0.331868 0.187063
O O2 0.321023 0.249968 0.250000
O O3 0.000000 0.283286 0.250000
O O4 0.822457 0.081028 0.638417
O O5 0.000000 0.072414 0.750000
O O6 0.000000 0.999779 0.661675
O O7 0.500000 0.427137 0.750000
O O8 0.320607 0.419259 0.637832
O O9 0.713117 0.669728 0.184243
O O10 0.000000 0.623523 0.125003
O O11 0.714534 0.661584 0.062027
O O12 0.500000 0.118330 0.622701
O O13 0.214708 0.162484 0.564471
O O14 0.500000 0.834290 0.750000
O O15 0.500000 0.816985 0.498451
O O16 0.250000 0.750000 0.500000
#
# Coordination Sequence:
#
# PCOD8258406 Si02
#       7
#     8   8   8  16  16   8  16
#     4  10  20  32  54  83 115 158 196 240 301 356
#     4  11  24  41  67  93 115 161 215 265 320 353
#     4  11  24  41  67  93 115 161 215 265 320 353
#     4  10  22  40  58  88 126 157 201 256 304 367
#     4  10  22  40  58  88 126 157 201 256 304 367
#     4  10  20  32  54  83 115 158 196 240 301 356
#     4  10  22  38  60  91 127 170 202 238 307 370
#
# _framework density 19.756869999999999
#
# number of rings (size 3 to 8) (size 9 to 14) (size 15 to 20)
#    0.000    1.800    2.000    1.200    5.600    0.800 
#    0.000    4.000    0.000    3.600    0.000    0.000 
#    0.000    0.000    0.000    0.000    0.000    0.000 
#
# Total GULP energy -495848.288028 kJ/mol
# GULP energy per Si atom -12396.207201 kJ/mol
# Density = 1.971190 g / cm^3
# Si number density = 19.756870 Si / 1000 Ang^3
#
#
#
# Elastic Constant Matrix: (Units=GPa)
#
#
# Indices 1 2 3 4 5 6 
#
# 1 78.9757 53.7382 38.9592 0.0000 0.0000 0.0000
# 2 53.7382 150.5157 82.3055 0.0000 0.0000 0.0000
# 3 38.9592 82.3055 183.5985 0.0000 0.0000 0.0000
# 4 0.0000 0.0000 0.0000 30.5521 0.0000 0.0000
# 5 0.0000 0.0000 0.0000 0.0000 8.2049 0.0000
# 6 0.0000 0.0000 0.0000 0.0000 0.0000 34.8584
#
#
#
# Elastic Compliance Matrix: (Units=1/GPa)
#
#
# Indices 1 2 3 4 5 6 
#
# 1 0.016912 -0.005399 -0.001168 0.000000 0.000000 0.000000
# 2 -0.005399 0.010525 -0.003573 0.000000 0.000000 0.000000
# 3 -0.001168 -0.003573 0.007296 0.000000 0.000000 0.000000
# 4 0.000000 0.000000 0.000000 0.032731 0.000000 0.000000
# 5 0.000000 0.000000 0.000000 0.000000 0.121878 0.000000
# 6 0.000000 0.000000 0.000000 0.000000 0.000000 0.028688
#
#
# Mechanical properties :
#
#
# Convention : Reuss Voigt Hill
#
# Bulk Modulus (GPa) = 69.18886 84.78840 76.98863
# Shear Modulus (GPa) = 20.56530 30.59554 25.58042
#
# Velocity S-wave (km/s) = 3.22983 3.93950 3.60218
# Velocity P-wave (km/s) = 7.00037 7.98135 7.50690
#
# Compressibility (1/GPa) = 0.01445319
#
# Stress axis : x y z
#
# Youngs Moduli (GPa) = 59.12835 95.01103 137.05887
#
# Poissons Ratio (x) = 0.51299 0.16013
# Poissons Ratio (y) = 0.31925 0.48965
# Poissons Ratio (z) = 0.06908 0.33943
#
# Static dielectric constant tensor:
#      x y z
#    x 3.765420 0.000000 0.000000 
#    y 0.000000 3.291210 0.000000 
#    z 0.000000 0.000000 4.125060 
# 
# 
# High freq. dielectric constant tensor:
#      x y z
#    x 1.774350 0.000000 0.000000 
#    y 0.000000 1.753010 0.000000 
#    z 0.000000 0.000000 1.784070 
# 
# From -- ./inp_files/51009.got.cif
#   From: 2010.03.12/outbox.cif.g09.slc.cpg/sg63_26_cif.got.tgz:51009.got - 2010.04.10 19:34:48.
