data_PCOD8258600
_publ_section_title
;
Structure prediction by ZEFSAII (Michael W. Deem and Ramdas Pophale) SiO2 
 PCOD8258600
Probable space group: C M C M
;
_chemical_formula_sum "Si O2"
_cell_formula_units_Z 80
_cell_length_a 9.202311
_cell_length_b 25.990810
_cell_length_c 17.897310
_cell_angle_alpha 90.000000
_cell_angle_beta 90.000000
_cell_angle_gamma 90.000000
_cell_volume 4280.598368
_symmetry_space_group_name_H-M "C M C M"
_symmetry_group_IT_number 63
_symmetry_cell_setting 'orthorhombic'
loop_
_space_group_symop_operation_xyz
x,y,z
-x,-y,1/2+z
x,-y,-z
-x,y,1/2-z
-x,-y,-z
x,y,1/2-z
-x,y,z
x,-y,1/2+z
1/2+x,1/2+y,z
1/2-x,1/2-y,1/2+z
1/2+x,1/2-y,-z
1/2-x,1/2+y,1/2-z
1/2-x,1/2-y,-z
1/2+x,1/2+y,1/2-z
1/2-x,1/2+y,z
1/2+x,1/2-y,1/2+z
loop_
_atom_site_type_symbol
_atom_site_label
_atom_site_fract_x
_atom_site_fract_y
_atom_site_fract_z
Si Si1 0.835280 0.836430 0.161167
Si Si2 0.672699 0.252705 0.921123
Si Si3 0.663543 0.065789 0.661086
Si Si4 0.663863 0.952777 0.838629
Si Si5 0.329892 0.645056 0.165148
O O1 0.831359 0.834546 0.250000
O O2 0.731782 0.791923 0.131670
O O3 0.773553 0.890889 0.130764
O O4 0.000000 0.829925 0.131275
O O5 0.500000 0.247030 0.929568
O O6 0.717507 0.306634 0.884192
O O7 0.750000 0.250000 0.000000
O O8 0.662329 0.066266 0.750000
O O9 0.500000 0.077107 0.632005
O O10 0.715641 0.009225 0.632599
O O11 0.675207 0.952220 0.750000
O O12 0.500000 0.942984 0.865340
O O13 0.760966 0.906478 0.871065
O O14 0.274829 0.654382 0.250000
O O15 0.500000 0.636824 0.163943
#
# Coordination Sequence:
#
# PCOD8258600 Si02
#       5
#    16  16  16  16  16
#     4  10  20  33  52  79 106 133 169 210 250 296
#     4  11  23  38  54  72  99 135 173 213 259 307
#     4   8  14  26  45  71 103 135 164 197 242 293
#     4   8  14  25  44  72 103 132 162 198 241 290
#     4   9  18  32  51  75 101 130 164 202 247 299
#
# _framework density 18.688977000000001
#
# number of rings (size 3 to 8) (size 9 to 14) (size 15 to 20)
#    0.000    2.800    0.000    3.000    0.000    4.400 
#    0.000    6.000    0.000    1.200    0.000    8.400 
#    0.000    0.000    0.000    0.000    0.000    0.000 
#
# Total GULP energy -495807.326673 kJ/mol
# GULP energy per Si atom -12395.183167 kJ/mol
# Density = 1.864644 g / cm^3
# Si number density = 18.688977 Si / 1000 Ang^3
#
#
#
# Elastic Constant Matrix: (Units=GPa)
#
#
# Indices 1 2 3 4 5 6 
#
# 1 83.4752 71.9465 24.5505 0.0000 0.0000 0.0000
# 2 71.9465 170.0534 24.8528 0.0000 0.0000 0.0000
# 3 24.5505 24.8528 24.4360 0.0000 0.0000 0.0000
# 4 0.0000 0.0000 0.0000 -1.7868 0.0000 0.0000
# 5 0.0000 0.0000 0.0000 0.0000 21.7571 0.0000
# 6 0.0000 0.0000 0.0000 0.0000 0.0000 41.0618
#
#
#
# Elastic Compliance Matrix: (Units=1/GPa)
#
#
# Indices 1 2 3 4 5 6 
#
# 1 0.022953 -0.007448 -0.015486 0.000000 0.000000 0.000000
# 2 -0.007448 0.009324 -0.002000 0.000000 0.000000 0.000000
# 3 -0.015486 -0.002000 0.058516 0.000000 0.000000 0.000000
# 4 0.000000 0.000000 0.000000 -0.559667 0.000000 0.000000
# 5 0.000000 0.000000 0.000000 0.000000 0.045962 0.000000
# 6 0.000000 0.000000 0.000000 0.000000 0.000000 0.024354
#
#
# Mechanical properties :
#
#
# Convention : Reuss Voigt Hill
#
# Bulk Modulus (GPa) = 24.43480 57.85158 41.14319
# Shear Modulus (GPa) = -14.92322 22.64740 3.86209
#
# Velocity S-wave (km/s) = -2.82885 3.48488 1.43909
# Velocity P-wave (km/s) = 1.55981 6.87129 4.98235
#
# Compressibility (1/GPa) = 0.04092524
#
# Stress axis : x y z
#
# Youngs Moduli (GPa) = 43.56655 107.25111 17.08938
#
# Poissons Ratio (x) = 0.79880 0.26464
# Poissons Ratio (y) = 0.32448 0.03418
# Poissons Ratio (z) = 0.67467 0.21452
#
# Static dielectric constant tensor:
#      x y z
#    x 3.579350 0.000000 0.000000 
#    y 0.000000 3.982300 0.000000 
#    z 0.000000 0.000000 2.970000 
# 
# 
# High freq. dielectric constant tensor:
#      x y z
#    x 1.725470 0.000000 0.000000 
#    y 0.000000 1.746610 0.000000 
#    z 0.000000 0.000000 1.673670 
# 
# From -- ./inp_files/40451.got.cif
#   From: 2010.03.12/outbox.cif.g09.slc.cpg/sg63_21_cif.got.tgz:40451.got - 2010.04.10 19:34:48.
