data_PCOD8258134
_publ_section_title
;
Structure prediction by ZEFSAII (Michael W. Deem and Ramdas Pophale) SiO2 
 PCOD8258134
Probable space group: C M C M
;
_chemical_formula_sum "Si O2"
_cell_formula_units_Z 112
_cell_length_a 13.777482
_cell_length_b 13.472263
_cell_length_c 27.425690
_cell_angle_alpha 90.000000
_cell_angle_beta 90.000000
_cell_angle_gamma 90.000000
_cell_volume 5090.588211
_symmetry_space_group_name_H-M "C M C M"
_symmetry_group_IT_number 63
_symmetry_cell_setting 'orthorhombic'
loop_
_space_group_symop_operation_xyz
x,y,z
-x,-y,1/2+z
x,-y,-z
-x,y,1/2-z
-x,-y,-z
x,y,1/2-z
-x,y,z
x,-y,1/2+z
1/2+x,1/2+y,z
1/2-x,1/2-y,1/2+z
1/2+x,1/2-y,-z
1/2-x,1/2+y,1/2-z
1/2-x,1/2-y,-z
1/2+x,1/2+y,1/2-z
1/2-x,1/2+y,z
1/2+x,1/2-y,1/2+z
loop_
_atom_site_type_symbol
_atom_site_label
_atom_site_fract_x
_atom_site_fract_y
_atom_site_fract_z
Si Si1 0.886793 0.738805 0.058363
Si Si2 0.610044 0.453506 0.094327
Si Si3 0.258012 0.096434 0.122422
Si Si4 0.886707 0.419157 0.364999
Si Si5 0.107850 0.139036 0.803412
Si Si6 0.386272 0.098588 0.525914
Si Si7 0.201609 0.246362 0.304838
O O1 0.862978 0.855802 0.062709
O O2 0.821919 0.679119 0.096149
O O3 0.000000 0.720122 0.071022
O O4 0.861803 0.698766 0.004196
O O5 0.500000 0.486534 0.082311
O O6 0.685303 0.542479 0.083280
O O7 0.625520 0.436533 0.152372
O O8 0.189803 0.147382 0.163212
O O9 0.329378 0.018751 0.149161
O O10 0.847572 0.388080 0.419017
O O11 0.863802 0.333927 0.326556
O O12 0.000000 0.442433 0.364435
O O13 0.117605 0.085965 0.750000
O O14 0.184380 0.227681 0.806332
O O15 0.000000 0.185491 0.809513
O O16 0.500000 0.081834 0.529197
O O17 0.341298 0.000000 0.500000
O O18 0.165300 0.226301 0.250000
#
# Coordination Sequence:
#
# PCOD8258134 Si02
#       7
#    16  16  16  16  16  16  16
#     4  10  19  36  62  91 126 160 201 256 311 368
#     4  10  21  37  58  86 120 160 207 254 304 361
#     4  12  21  37  60  93 120 163 207 260 308 370
#     4  11  23  41  66  95 129 164 206 259 317 383
#     4   9  17  33  57  81 108 146 196 251 301 353
#     4   9  17  33  61  97 129 163 204 251 312 381
#     4  11  25  42  60  88 127 164 205 260 320 375
#
# _framework density 22.001387000000001
#
# number of rings (size 3 to 8) (size 9 to 14) (size 15 to 20)
#    0.000    1.714    4.286    0.429    0.000    2.571 
#    0.000    4.286    0.000    0.000    0.000    7.000 
#    0.000    0.000    0.000    0.000    0.000    0.000 
#
# Total GULP energy -694156.364257 kJ/mol
# GULP energy per Si atom -12395.649362 kJ/mol
# Density = 2.195131 g / cm^3
# Si number density = 22.001387 Si / 1000 Ang^3
#
#
#
# Elastic Constant Matrix: (Units=GPa)
#
#
# Indices 1 2 3 4 5 6 
#
# 1 60.9018 28.1148 -15.3871 0.0000 0.0000 0.0000
# 2 28.1148 79.5630 11.8062 0.0000 0.0000 0.0000
# 3 -15.3871 11.8062 63.8364 0.0000 0.0000 0.0000
# 4 0.0000 0.0000 0.0000 26.8507 0.0000 0.0000
# 5 0.0000 0.0000 0.0000 0.0000 15.0265 0.0000
# 6 0.0000 0.0000 0.0000 0.0000 0.0000 2.8276
#
#
#
# Elastic Compliance Matrix: (Units=1/GPa)
#
#
# Indices 1 2 3 4 5 6 
#
# 1 0.022319 -0.008930 0.007031 0.000000 0.000000 0.000000
# 2 -0.008930 0.016496 -0.005203 0.000000 0.000000 0.000000
# 3 0.007031 -0.005203 0.018322 0.000000 0.000000 0.000000
# 4 0.000000 0.000000 0.000000 0.037243 0.000000 0.000000
# 5 0.000000 0.000000 0.000000 0.000000 0.066549 0.000000
# 6 0.000000 0.000000 0.000000 0.000000 0.000000 0.353659
#
#
# Mechanical properties :
#
#
# Convention : Reuss Voigt Hill
#
# Bulk Modulus (GPa) = 23.29210 28.15213 25.72212
# Shear Modulus (GPa) = 9.20634 20.92544 15.06589
#
# Velocity S-wave (km/s) = 2.04781 3.08733 2.61965
# Velocity P-wave (km/s) = 4.02505 5.05294 4.56800
#
# Compressibility (1/GPa) = 0.04293300
#
# Stress axis : x y z
#
# Youngs Moduli (GPa) = 44.80516 60.61939 54.57861
#
# Poissons Ratio (x) = 0.54134 -0.38376
# Poissons Ratio (y) = 0.40011 0.28400
# Poissons Ratio (z) = -0.31504 0.31543
#
# Static dielectric constant tensor:
#      x y z
#    x 3.990220 0.000000 0.000000 
#    y 0.000000 3.746240 0.000000 
#    z 0.000000 0.000000 4.190910 
# 
# 
# High freq. dielectric constant tensor:
#      x y z
#    x 1.871020 0.000000 0.000000 
#    y 0.000000 1.843100 0.000000 
#    z 0.000000 0.000000 1.857610 
# 
# From -- ./inp_files/73431.got.cif
#   From: 2010.03.12/outbox.cif.g09.slc.cpg/sg63_37_cif.got.tgz:73431.got - 2010.04.10 19:34:48.
