data_PCOD8258932
_publ_section_title
;
Structure prediction by ZEFSAII (Michael W. Deem and Ramdas Pophale) SiO2 
 PCOD8258932
Probable space group: C M C M
;
_chemical_formula_sum "Si O2"
_cell_formula_units_Z 112
_cell_length_a 14.105269
_cell_length_b 18.223884
_cell_length_c 23.603111
_cell_angle_alpha 90.000000
_cell_angle_beta 90.000000
_cell_angle_gamma 90.000000
_cell_volume 6067.245442
_symmetry_space_group_name_H-M "C M C M"
_symmetry_group_IT_number 63
_symmetry_cell_setting 'orthorhombic'
loop_
_space_group_symop_operation_xyz
x,y,z
-x,-y,1/2+z
x,-y,-z
-x,y,1/2-z
-x,-y,-z
x,y,1/2-z
-x,y,z
x,-y,1/2+z
1/2+x,1/2+y,z
1/2-x,1/2-y,1/2+z
1/2+x,1/2-y,-z
1/2-x,1/2+y,1/2-z
1/2-x,1/2-y,-z
1/2+x,1/2+y,1/2-z
1/2-x,1/2+y,z
1/2+x,1/2-y,1/2+z
loop_
_atom_site_type_symbol
_atom_site_label
_atom_site_fract_x
_atom_site_fract_y
_atom_site_fract_z
Si Si1 0.390912 0.380168 0.889099
Si Si2 0.107626 0.673324 0.508847
Si Si3 0.287177 0.413614 0.000537
Si Si4 0.707709 0.666354 0.685692
Si Si5 0.393752 0.219710 0.637240
Si Si6 0.388903 0.697033 0.923566
Si Si7 0.892539 0.984275 0.314204
O O1 0.500000 0.388200 0.907661
O O2 0.329693 0.375742 0.945349
O O3 0.377044 0.306304 0.852437
O O4 0.356554 0.448497 0.851900
O O5 0.174844 0.602839 0.501595
O O6 0.121706 0.706398 0.570847
O O7 0.137776 0.735377 0.463858
O O8 0.000000 0.647375 0.498322
O O9 0.305957 0.500000 0.000000
O O10 0.337997 0.377321 0.054913
O O11 0.682799 0.691306 0.750000
O O12 0.820280 0.673726 0.675043
O O13 0.649739 0.715014 0.639852
O O14 0.679145 0.582205 0.676117
O O15 0.500000 0.196392 0.655746
O O16 0.500000 0.682603 0.921884
O O17 0.889560 0.012057 0.250000
O O18 0.000000 0.959844 0.330254
#
# Coordination Sequence:
#
# PCOD8258932 Si02
#       7
#    16  16  16  16  16  16  16
#     4  10  20  34  54  82 111 140 177 220 273 331
#     4  10  21  39  58  76 107 149 184 221 271 323
#     4  12  22  32  54  84 113 141 176 225 273 323
#     4  11  22  35  54  81 112 146 182 219 265 323
#     4  10  20  37  59  80 107 141 184 233 272 313
#     4  11  21  36  58  81 110 147 179 218 271 326
#     4   9  19  36  55  77 112 150 178 215 272 331
#
# _framework density 18.459776999999999
#
# number of rings (size 3 to 8) (size 9 to 14) (size 15 to 20)
#    0.000    1.571    2.857    3.000    0.000    4.286 
#    0.000    1.429    0.000    0.000    0.000    0.000 
#    0.000    4.571    0.000    0.000    0.000    0.000 
#
# Total GULP energy -694480.554506 kJ/mol
# GULP energy per Si atom -12401.438473 kJ/mol
# Density = 1.841776 g / cm^3
# Si number density = 18.459777 Si / 1000 Ang^3
#
#
#
# Elastic Constant Matrix: (Units=GPa)
#
#
# Indices 1 2 3 4 5 6 
#
# 1 111.2817 48.3999 39.4003 0.0000 0.0000 0.0000
# 2 48.3999 61.6458 22.3642 0.0000 0.0000 0.0000
# 3 39.4003 22.3642 95.4814 0.0000 0.0000 0.0000
# 4 0.0000 0.0000 0.0000 22.7912 0.0000 0.0000
# 5 0.0000 0.0000 0.0000 0.0000 28.0233 0.0000
# 6 0.0000 0.0000 0.0000 0.0000 0.0000 30.8283
#
#
#
# Elastic Compliance Matrix: (Units=1/GPa)
#
#
# Indices 1 2 3 4 5 6 
#
# 1 0.014745 -0.010239 -0.003686 0.000000 0.000000 0.000000
# 2 -0.010239 0.024839 -0.001593 0.000000 0.000000 0.000000
# 3 -0.003686 -0.001593 0.012367 0.000000 0.000000 0.000000
# 4 0.000000 0.000000 0.000000 0.043877 0.000000 0.000000
# 5 0.000000 0.000000 0.000000 0.000000 0.035685 0.000000
# 6 0.000000 0.000000 0.000000 0.000000 0.000000 0.032438
#
#
# Mechanical properties :
#
#
# Convention : Reuss Voigt Hill
#
# Bulk Modulus (GPa) = 47.81318 54.30420 51.05869
# Shear Modulus (GPa) = 24.75778 26.87821 25.81799
#
# Velocity S-wave (km/s) = 3.66618 3.81995 3.74385
# Velocity P-wave (km/s) = 6.62410 6.99553 6.81235
#
# Compressibility (1/GPa) = 0.02091474
#
# Stress axis : x y z
#
# Youngs Moduli (GPa) = 67.82132 40.25996 80.85817
#
# Poissons Ratio (x) = 0.41223 0.29805
# Poissons Ratio (y) = 0.69443 0.12878
# Poissons Ratio (z) = 0.24999 0.06412
#
# Static dielectric constant tensor:
#      x y z
#    x 3.520180 0.000000 0.000000 
#    y 0.000000 3.195250 0.000000 
#    z 0.000000 0.000000 3.514520 
# 
# 
# High freq. dielectric constant tensor:
#      x y z
#    x 1.718770 0.000000 0.000000 
#    y 0.000000 1.696330 0.000000 
#    z 0.000000 0.000000 1.718330 
# 
# From -- ./inp_files/62990.got.cif
#   From: 2010.03.12/outbox.cif.g09.slc.cpg/sg63_32_cif.got.tgz:62990.got - 2010.04.10 19:34:48.
