data_PCOD8258605
_publ_section_title
;
Structure prediction by ZEFSAII (Michael W. Deem and Ramdas Pophale) SiO2 
 PCOD8258605
Probable space group: C M C M
;
_chemical_formula_sum "Si O2"
_cell_formula_units_Z 80
_cell_length_a 8.905141
_cell_length_b 27.692806
_cell_length_c 17.540716
_cell_angle_alpha 90.000000
_cell_angle_beta 90.000000
_cell_angle_gamma 90.000000
_cell_volume 4325.686892
_symmetry_space_group_name_H-M "C M C M"
_symmetry_group_IT_number 63
_symmetry_cell_setting 'orthorhombic'
loop_
_space_group_symop_operation_xyz
x,y,z
-x,-y,1/2+z
x,-y,-z
-x,y,1/2-z
-x,-y,-z
x,y,1/2-z
-x,y,z
x,-y,1/2+z
1/2+x,1/2+y,z
1/2-x,1/2-y,1/2+z
1/2+x,1/2-y,-z
1/2-x,1/2+y,1/2-z
1/2-x,1/2-y,-z
1/2+x,1/2+y,1/2-z
1/2-x,1/2+y,z
1/2+x,1/2-y,1/2+z
loop_
_atom_site_type_symbol
_atom_site_label
_atom_site_fract_x
_atom_site_fract_y
_atom_site_fract_z
Si Si1 0.825688 0.609241 0.555352
Si Si2 0.828384 0.144669 0.165333
Si Si3 0.176000 0.962290 0.338119
Si Si4 0.173250 0.444261 0.600338
Si Si5 0.824248 0.800716 0.516113
O O1 0.758501 0.585477 0.631254
O O2 0.798444 0.572257 0.486075
O O3 0.742415 0.659582 0.540859
O O4 0.000000 0.620508 0.567147
O O5 0.804950 0.166489 0.250000
O O6 0.723068 0.098157 0.157148
O O7 0.786184 0.185369 0.103666
O O8 0.000000 0.127597 0.152862
O O9 0.218853 0.969005 0.250000
O O10 0.000000 0.955661 0.350216
O O11 0.229400 0.008565 0.385139
O O12 0.000000 0.456685 0.615389
O O13 0.750000 0.750000 0.500000
O O14 0.000000 0.796847 0.501205
#
# Coordination Sequence:
#
# PCOD8258605 Si02
#       5
#    16  16  16  16  16
#     4  10  21  37  56  78 104 136 176 219 262 312
#     4   9  18  33  53  78 106 135 170 213 261 311
#     4  11  23  36  51  75 108 144 180 216 256 306
#     4  10  20  33  52  79 108 138 174 214 257 308
#     4  10  20  36  58  80 104 136 174 218 266 317
#
# _framework density 18.494174000000001
#
# number of rings (size 3 to 8) (size 9 to 14) (size 15 to 20)
#    0.000    2.000    0.000    3.600    0.000   10.000 
#    0.000    1.000    0.000    3.600    0.000    0.000 
#    0.000    0.000    0.000    0.000    0.000    0.000 
#
# Total GULP energy -496157.230309 kJ/mol
# GULP energy per Si atom -12403.930758 kJ/mol
# Density = 1.845208 g / cm^3
# Si number density = 18.494174 Si / 1000 Ang^3
#
#
#
# Elastic Constant Matrix: (Units=GPa)
#
#
# Indices 1 2 3 4 5 6 
#
# 1 97.7595 59.8355 39.4469 0.0000 0.0000 0.0000
# 2 59.8355 128.4645 46.5499 0.0000 0.0000 0.0000
# 3 39.4469 46.5499 54.3639 0.0000 0.0000 0.0000
# 4 0.0000 0.0000 0.0000 16.1698 0.0000 0.0000
# 5 0.0000 0.0000 0.0000 0.0000 26.0528 0.0000
# 6 0.0000 0.0000 0.0000 0.0000 0.0000 39.2662
#
#
#
# Elastic Compliance Matrix: (Units=1/GPa)
#
#
# Indices 1 2 3 4 5 6 
#
# 1 0.016267 -0.004784 -0.007707 0.000000 0.000000 0.000000
# 2 -0.004784 0.012693 -0.007397 0.000000 0.000000 0.000000
# 3 -0.007707 -0.007397 0.030321 0.000000 0.000000 0.000000
# 4 0.000000 0.000000 0.000000 0.061844 0.000000 0.000000
# 5 0.000000 0.000000 0.000000 0.000000 0.038384 0.000000
# 6 0.000000 0.000000 0.000000 0.000000 0.000000 0.025467
#
#
# Mechanical properties :
#
#
# Convention : Reuss Voigt Hill
#
# Bulk Modulus (GPa) = 51.27103 63.58362 57.42732
# Shear Modulus (GPa) = 21.62124 25.28146 23.45135
#
# Velocity S-wave (km/s) = 3.42290 3.70130 3.56482
# Velocity P-wave (km/s) = 6.58822 7.26093 6.93274
#
# Compressibility (1/GPa) = 0.01950419
#
# Stress axis : x y z
#
# Youngs Moduli (GPa) = 61.47278 78.78369 32.98055
#
# Poissons Ratio (x) = 0.37691 0.25419
# Poissons Ratio (y) = 0.29410 0.24396
# Poissons Ratio (z) = 0.47379 0.58277
#
# Static dielectric constant tensor:
#      x y z
#    x 3.518830 0.000000 0.000000 
#    y 0.000000 3.314980 0.000000 
#    z 0.000000 0.000000 3.465950 
# 
# 
# High freq. dielectric constant tensor:
#      x y z
#    x 1.731700 0.000000 0.000000 
#    y 0.000000 1.704520 0.000000 
#    z 0.000000 0.000000 1.715120 
# 
# From -- ./inp_files/40416.got.cif
#   From: 2010.03.12/outbox.cif.g09.slc.cpg/sg63_21_cif.got.tgz:40416.got - 2010.04.10 19:34:48.
