data_PCOD8258213
_publ_section_title
;
Structure prediction by ZEFSAII (Michael W. Deem and Ramdas Pophale) SiO2 
 PCOD8258213
Probable space group: C M C M
;
_chemical_formula_sum "Si O2"
_cell_formula_units_Z 80
_cell_length_a 21.902294
_cell_length_b 27.314074
_cell_length_c 9.189822
_cell_angle_alpha 90.000000
_cell_angle_beta 90.000000
_cell_angle_gamma 90.000000
_cell_volume 5497.727192
_symmetry_space_group_name_H-M "C M C M"
_symmetry_group_IT_number 63
_symmetry_cell_setting 'orthorhombic'
loop_
_space_group_symop_operation_xyz
x,y,z
-x,-y,1/2+z
x,-y,-z
-x,y,1/2-z
-x,-y,-z
x,y,1/2-z
-x,y,z
x,-y,1/2+z
1/2+x,1/2+y,z
1/2-x,1/2-y,1/2+z
1/2+x,1/2-y,-z
1/2-x,1/2+y,1/2-z
1/2-x,1/2-y,-z
1/2+x,1/2+y,1/2-z
1/2-x,1/2+y,z
1/2+x,1/2-y,1/2+z
loop_
_atom_site_type_symbol
_atom_site_label
_atom_site_fract_x
_atom_site_fract_y
_atom_site_fract_z
Si Si1 0.248653 0.639062 0.089387
Si Si2 0.669899 0.948995 0.577134
Si Si3 0.070269 0.612668 0.916455
Si Si4 0.301089 0.280764 0.080358
Si Si5 0.121177 0.304549 0.910573
O O1 0.277809 0.638046 0.250000
O O2 0.229292 0.584334 0.040533
O O3 0.186789 0.669945 0.090211
O O4 0.299116 0.663713 0.982915
O O5 0.661043 0.955242 0.750000
O O6 0.608349 0.924904 0.514171
O O7 0.682217 0.000000 0.500000
O O8 0.092958 0.610147 0.750000
O O9 0.000000 0.597315 0.928882
O O10 0.078068 0.668767 0.972528
O O11 0.285525 0.282767 0.250000
O O12 0.366320 0.253189 0.053086
O O13 0.250000 0.250000 0.000000
O O14 0.091272 0.309401 0.750000
#
# Coordination Sequence:
#
# PCOD8258213 Si02
#       5
#    16  16  16  16  16
#     4   8  15  26  38  54  73  91 114 144 179 220
#     4  10  20  32  44  56  71  94 125 160 196 230
#     4  10  20  31  42  56  72  93 125 162 197 230
#     4   9  15  22  35  55  75  93 113 138 172 216
#     4   8  15  26  38  54  74  94 117 145 179 220
#
# _framework density 14.551467000000001
#
# number of rings (size 3 to 8) (size 9 to 14) (size 15 to 20)
#    0.000    3.000    0.000    4.200    0.000   10.800 
#    0.000    0.000    0.000    0.000    0.000    0.000 
#    0.000    0.000    0.000    0.000    0.000    1.000 
#
# Total GULP energy -495539.466943 kJ/mol
# GULP energy per Si atom -12388.486674 kJ/mol
# Density = 1.451835 g / cm^3
# Si number density = 14.551467 Si / 1000 Ang^3
#
#
#
# Elastic Constant Matrix: (Units=GPa)
#
#
# Indices 1 2 3 4 5 6 
#
# 1 11.5677 33.0057 19.7079 0.0000 0.0000 0.0000
# 2 33.0057 106.1322 61.9902 0.0000 0.0000 0.0000
# 3 19.7079 61.9902 98.4326 0.0000 0.0000 0.0000
# 4 0.0000 0.0000 0.0000 27.7190 0.0000 0.0000
# 5 0.0000 0.0000 0.0000 0.0000 16.5619 0.0000
# 6 0.0000 0.0000 0.0000 0.0000 0.0000 15.5872
#
#
#
# Elastic Compliance Matrix: (Units=1/GPa)
#
#
# Indices 1 2 3 4 5 6 
#
# 1 0.768980 -0.236040 -0.005311 0.000000 0.000000 0.000000
# 2 -0.236040 0.087358 -0.007756 0.000000 0.000000 0.000000
# 3 -0.005311 -0.007756 0.016107 0.000000 0.000000 0.000000
# 4 0.000000 0.000000 0.000000 0.036076 0.000000 0.000000
# 5 0.000000 0.000000 0.000000 0.000000 0.060380 0.000000
# 6 0.000000 0.000000 0.000000 0.000000 0.000000 0.064155
#
#
# Mechanical properties :
#
#
# Convention : Reuss Voigt Hill
#
# Bulk Modulus (GPa) = 2.67216 49.50446 26.08831
# Shear Modulus (GPa) = 3.01930 18.73553 10.87742
#
# Velocity S-wave (km/s) = 1.44202 3.59212 2.73704
# Velocity P-wave (km/s) = 2.14776 7.16230 5.28732
#
# Compressibility (1/GPa) = 0.37422931
#
# Stress axis : x y z
#
# Youngs Moduli (GPa) = 1.30042 11.44715 62.08339
#
# Poissons Ratio (x) = 2.70199 0.32974
# Poissons Ratio (y) = 0.30695 0.48154
# Poissons Ratio (z) = 0.00691 0.08879
#
# Static dielectric constant tensor:
#      x y z
#    x 2.570310 0.000000 0.000000 
#    y 0.000000 3.419190 0.000000 
#    z 0.000000 0.000000 3.149040 
# 
# 
# High freq. dielectric constant tensor:
#      x y z
#    x 1.491750 0.000000 0.000000 
#    y 0.000000 1.548090 0.000000 
#    z 0.000000 0.000000 1.573060 
# 
# From -- ./inp_files/6626.got.cif
#   From: 2010.03.12/outbox.cif.g09.slc.cpg/sg63_4_cif.got.tgz:6626.got - 2010.04.10 19:34:48.
