data_PCOD8258686
_publ_section_title
;
Structure prediction by ZEFSAII (Michael W. Deem and Ramdas Pophale) SiO2 
 PCOD8258686
Probable space group: C M C M
;
_chemical_formula_sum "Si O2"
_cell_formula_units_Z 88
_cell_length_a 26.277437
_cell_length_b 27.482887
_cell_length_c 8.862214
_cell_angle_alpha 90.000000
_cell_angle_beta 90.000000
_cell_angle_gamma 90.000000
_cell_volume 6400.112215
_symmetry_space_group_name_H-M "C M C M"
_symmetry_group_IT_number 63
_symmetry_cell_setting 'orthorhombic'
loop_
_space_group_symop_operation_xyz
x,y,z
-x,-y,1/2+z
x,-y,-z
-x,y,1/2-z
-x,-y,-z
x,y,1/2-z
-x,y,z
x,-y,1/2+z
1/2+x,1/2+y,z
1/2-x,1/2-y,1/2+z
1/2+x,1/2-y,-z
1/2-x,1/2+y,1/2-z
1/2-x,1/2-y,-z
1/2+x,1/2+y,1/2-z
1/2-x,1/2+y,z
1/2+x,1/2-y,1/2+z
loop_
_atom_site_type_symbol
_atom_site_label
_atom_site_fract_x
_atom_site_fract_y
_atom_site_fract_z
Si Si1 0.249035 0.632839 0.417789
Si Si2 0.201141 0.726880 0.074343
Si Si3 0.851568 0.194652 0.083428
Si Si4 0.500000 0.553127 0.929950
Si Si5 0.599377 0.401799 0.930503
Si Si6 0.197935 0.949405 0.071717
O O1 0.241014 0.610689 0.250000
O O2 0.201339 0.668459 0.461821
O O3 0.298157 0.667028 0.416370
O O4 0.256949 0.589314 0.536546
O O5 0.205444 0.735722 0.250000
O O6 0.250000 0.750000 0.000000
O O7 0.151032 0.755873 0.016033
O O8 0.866326 0.212174 0.250000
O O9 0.892964 0.155200 0.025866
O O10 0.500000 0.549492 0.750000
O O11 0.500000 0.500000 0.000000
O O12 0.548713 0.581947 0.987325
O O13 0.596233 0.408985 0.750000
O O14 0.645571 0.434136 0.992220
O O15 0.189921 0.953645 0.250000
O O16 0.215728 0.000000 0.000000
#
# Coordination Sequence:
#
# PCOD8258686 Si02
#       6
#    16  16  16   8  16  16
#     4   8  15  26  36  51  73  95 117 143 174 209
#     4   9  15  22  35  53  74  94 112 137 170 207
#     4   8  15  26  40  55  72  91 111 138 174 214
#     4  12  24  36  48  60  72  90 118 154 193 234
#     4  10  20  34  46  57  73  92 116 150 189 228
#     4  11  20  29  41  55  71  94 122 154 187 221
#
# _framework density 13.749758
#
# number of rings (size 3 to 8) (size 9 to 14) (size 15 to 20)
#    0.000    2.545    0.000    6.273    0.000    8.000 
#    0.000    0.000    0.000    0.000    0.000    0.000 
#    0.000    0.000    0.000    0.000    0.000    0.000 
#
# Total GULP energy -545105.273142 kJ/mol
# GULP energy per Si atom -12388.756208 kJ/mol
# Density = 1.371846 g / cm^3
# Si number density = 13.749758 Si / 1000 Ang^3
#
#
#
# Elastic Constant Matrix: (Units=GPa)
#
#
# Indices 1 2 3 4 5 6 
#
# 1 36.2745 47.2558 29.1395 0.0000 0.0000 0.0000
# 2 47.2558 100.5384 55.9882 0.0000 0.0000 0.0000
# 3 29.1395 55.9882 97.4123 0.0000 0.0000 0.0000
# 4 0.0000 0.0000 0.0000 25.6312 0.0000 0.0000
# 5 0.0000 0.0000 0.0000 0.0000 16.1162 0.0000
# 6 0.0000 0.0000 0.0000 0.0000 0.0000 55.5140
#
#
#
# Elastic Compliance Matrix: (Units=1/GPa)
#
#
# Indices 1 2 3 4 5 6 
#
# 1 0.071723 -0.032009 -0.003058 0.000000 0.000000 0.000000
# 2 -0.032009 0.028914 -0.007043 0.000000 0.000000 0.000000
# 3 -0.003058 -0.007043 0.015228 0.000000 0.000000 0.000000
# 4 0.000000 0.000000 0.000000 0.039015 0.000000 0.000000
# 5 0.000000 0.000000 0.000000 0.000000 0.062049 0.000000
# 6 0.000000 0.000000 0.000000 0.000000 0.000000 0.018013
#
#
# Mechanical properties :
#
#
# Convention : Reuss Voigt Hill
#
# Bulk Modulus (GPa) = 31.60023 55.44358 43.52191
# Shear Modulus (GPa) = 15.16480 26.24174 20.70327
#
# Velocity S-wave (km/s) = 3.32462 4.37341 3.88457
# Velocity P-wave (km/s) = 6.14571 8.11869 7.20010
#
# Compressibility (1/GPa) = 0.03164533
#
# Stress axis : x y z
#
# Youngs Moduli (GPa) = 13.94260 34.58548 65.66658
#
# Poissons Ratio (x) = 1.10704 0.20078
# Poissons Ratio (y) = 0.44629 0.46251
# Poissons Ratio (z) = 0.04263 0.24360
#
# Static dielectric constant tensor:
#      x y z
#    x 2.512050 0.000000 0.000000 
#    y 0.000000 3.158370 0.000000 
#    z 0.000000 0.000000 2.852100 
# 
# 
# High freq. dielectric constant tensor:
#      x y z
#    x 1.458820 0.000000 0.000000 
#    y 0.000000 1.524780 0.000000 
#    z 0.000000 0.000000 1.539210 
# 
# From -- ./inp_files/14799.got.cif
#   From: 2010.03.12/outbox.cif.g09.slc.cpg/sg63_8_cif.got.tgz:14799.got - 2010.04.10 19:34:48.
