data_PCOD8258224
_publ_section_title
;
Structure prediction by ZEFSAII (Michael W. Deem and Ramdas Pophale) SiO2 
 PCOD8258224
Probable space group: C M C M
;
_chemical_formula_sum "Si O2"
_cell_formula_units_Z 96
_cell_length_a 9.575493
_cell_length_b 27.920703
_cell_length_c 20.721053
_cell_angle_alpha 90.000000
_cell_angle_beta 90.000000
_cell_angle_gamma 90.000000
_cell_volume 5539.866684
_symmetry_space_group_name_H-M "C M C M"
_symmetry_group_IT_number 63
_symmetry_cell_setting 'orthorhombic'
loop_
_space_group_symop_operation_xyz
x,y,z
-x,-y,1/2+z
x,-y,-z
-x,y,1/2-z
-x,-y,-z
x,y,1/2-z
-x,y,z
x,-y,1/2+z
1/2+x,1/2+y,z
1/2-x,1/2-y,1/2+z
1/2+x,1/2-y,-z
1/2-x,1/2+y,1/2-z
1/2-x,1/2-y,-z
1/2+x,1/2+y,1/2-z
1/2-x,1/2+y,z
1/2+x,1/2-y,1/2+z
loop_
_atom_site_type_symbol
_atom_site_label
_atom_site_fract_x
_atom_site_fract_y
_atom_site_fract_z
Si Si1 0.338834 0.008346 0.823504
Si Si2 0.163961 0.235474 0.437123
Si Si3 0.347068 0.594147 0.824516
Si Si4 0.658684 0.312651 0.111392
Si Si5 0.655780 0.635024 0.024819
Si Si6 0.837302 0.457451 0.547401
O O1 0.293925 0.992759 0.750000
O O2 0.500000 0.022496 0.823657
O O3 0.307660 0.967550 0.876531
O O4 0.259659 0.054909 0.851318
O O5 0.250000 0.250000 0.500000
O O6 0.235081 0.267692 0.381022
O O7 0.182607 0.178428 0.423667
O O8 0.000000 0.248059 0.445589
O O9 0.361387 0.584287 0.750000
O O10 0.500000 0.587599 0.857927
O O11 0.295049 0.648353 0.835429
O O12 0.500000 0.294244 0.121817
O O13 0.672802 0.340346 0.044137
O O14 0.500000 0.614247 0.034232
O O15 0.762916 0.592109 0.031579
O O16 0.783260 0.500000 0.500000
O O17 0.000000 0.449467 0.534533
#
# Coordination Sequence:
#
# PCOD8258224 Si02
#       6
#    16  16  16  16  16  16
#     4   9  18  32  47  64  90 122 153 185 224 272
#     4   9  17  29  45  66  90 116 147 180 219 271
#     4   9  17  29  46  68  92 118 150 186 222 265
#     4   9  17  29  45  67  94 120 147 181 223 270
#     4   9  18  30  44  65  91 117 146 182 223 265
#     4  10  20  31  45  68  93 116 148 189 227 264
#
# _framework density 17.328938000000001
#
# number of rings (size 3 to 8) (size 9 to 14) (size 15 to 20)
#    0.000    2.833    0.000    2.500    0.000    5.000 
#    0.000    0.000    0.000    1.000    0.000    7.000 
#    0.000    0.000    0.000    0.000    0.000    0.000 
#
# Total GULP energy -594642.022633 kJ/mol
# GULP energy per Si atom -12388.375472 kJ/mol
# Density = 1.728950 g / cm^3
# Si number density = 17.328938 Si / 1000 Ang^3
#
#
#
# Elastic Constant Matrix: (Units=GPa)
#
#
# Indices 1 2 3 4 5 6 
#
# 1 74.4007 57.4913 16.5256 0.0000 0.0000 0.0000
# 2 57.4913 107.6020 18.9429 0.0000 0.0000 0.0000
# 3 16.5256 18.9429 36.9994 0.0000 0.0000 0.0000
# 4 0.0000 0.0000 0.0000 22.5298 0.0000 0.0000
# 5 0.0000 0.0000 0.0000 0.0000 14.4597 0.0000
# 6 0.0000 0.0000 0.0000 0.0000 0.0000 38.0631
#
#
#
# Elastic Compliance Matrix: (Units=1/GPa)
#
#
# Indices 1 2 3 4 5 6 
#
# 1 0.023549 -0.011793 -0.004480 0.000000 0.000000 0.000000
# 2 -0.011793 0.016120 -0.002986 0.000000 0.000000 0.000000
# 3 -0.004480 -0.002986 0.030557 0.000000 0.000000 0.000000
# 4 0.000000 0.000000 0.000000 0.044386 0.000000 0.000000
# 5 0.000000 0.000000 0.000000 0.000000 0.069158 0.000000
# 6 0.000000 0.000000 0.000000 0.000000 0.000000 0.026272
#
#
# Mechanical properties :
#
#
# Convention : Reuss Voigt Hill
#
# Bulk Modulus (GPa) = 31.53789 44.99130 38.26459
# Shear Modulus (GPa) = 19.29538 23.41335 21.35436
#
# Velocity S-wave (km/s) = 3.34050 3.67974 3.51421
# Velocity P-wave (km/s) = 5.75479 6.63878 6.21253
#
# Compressibility (1/GPa) = 0.03170790
#
# Stress axis : x y z
#
# Youngs Moduli (GPa) = 42.46489 62.03363 32.72557
#
# Poissons Ratio (x) = 0.73159 0.14661
# Poissons Ratio (y) = 0.50080 0.09771
# Poissons Ratio (z) = 0.19024 0.18522
#
# Static dielectric constant tensor:
#      x y z
#    x 3.627850 0.000000 0.000000 
#    y 0.000000 3.923780 0.000000 
#    z 0.000000 0.000000 3.320600 
# 
# 
# High freq. dielectric constant tensor:
#      x y z
#    x 1.672980 0.000000 0.000000 
#    y 0.000000 1.663690 0.000000 
#    z 0.000000 0.000000 1.638710 
# 
# From -- ./inp_files/60183.got.cif
#   From: 2010.03.12/outbox.cif.g09.slc.cpg/sg63_31_cif.got.tgz:60183.got - 2010.04.10 19:34:48.
