data_PCOD8258235
_publ_section_title
;
Structure prediction by ZEFSAII (Michael W. Deem and Ramdas Pophale) SiO2 
 PCOD8258235
Probable space group: C M C M
;
_chemical_formula_sum "Si O2"
_cell_formula_units_Z 112
_cell_length_a 17.453079
_cell_length_b 25.776846
_cell_length_c 14.410527
_cell_angle_alpha 90.000000
_cell_angle_beta 90.000000
_cell_angle_gamma 90.000000
_cell_volume 6483.084689
_symmetry_space_group_name_H-M "C M C M"
_symmetry_group_IT_number 63
_symmetry_cell_setting 'orthorhombic'
loop_
_space_group_symop_operation_xyz
x,y,z
-x,-y,1/2+z
x,-y,-z
-x,y,1/2-z
-x,-y,-z
x,y,1/2-z
-x,y,z
x,-y,1/2+z
1/2+x,1/2+y,z
1/2-x,1/2-y,1/2+z
1/2+x,1/2-y,-z
1/2-x,1/2+y,1/2-z
1/2-x,1/2-y,-z
1/2+x,1/2+y,1/2-z
1/2-x,1/2+y,z
1/2+x,1/2-y,1/2+z
loop_
_atom_site_type_symbol
_atom_site_label
_atom_site_fract_x
_atom_site_fract_y
_atom_site_fract_z
Si Si1 0.584494 0.865804 0.500000
Si Si2 0.144785 0.558173 0.355754
Si Si3 0.410653 0.560953 1.000000
Si Si4 0.855215 0.558173 0.855754
Si Si5 0.739670 0.810760 0.000000
Si Si6 0.802975 0.887930 0.142553
Si Si7 0.302975 0.387930 0.857447
O O1 0.500000 0.840011 0.500000
O O2 0.591757 0.902203 0.589524
O O3 0.591757 0.902203 0.410476
O O4 0.648428 0.821199 0.500000
O O5 0.119313 0.562817 0.250000
O O6 0.132456 0.500000 0.393269
O O7 0.234009 0.571498 0.368699
O O8 0.500000 0.573410 0.000000
O O9 0.375969 0.586557 0.092893
O O10 0.394013 0.500000 0.000000
O O11 0.375969 0.586557 0.907107
O O12 0.880687 0.562817 0.750000
O O13 0.765990 0.571498 0.868699
O O14 0.779068 0.834447 0.907962
O O15 0.750000 0.750000 0.000000
O O16 0.779068 0.834447 0.092038
O O17 0.822339 0.876230 0.250000
O O18 0.322339 0.376230 0.750000
#
# Coordination Sequence:
#
# PCOD8258235 Si02
#       7
#    16  16  16  16  16  16  16
#     4  10  20  32  47  69  98 127 154 193 244 286
#     4   9  17  29  47  71  98 130 163 188 218 276
#     4  10  20  31  46  73 106 136 167 207 256 306
#     4   9  17  29  47  71  98 130 163 188 218 276
#     4   9  19  36  55  74  94 123 167 214 254 298
#     4   9  18  33  52  72  97 130 168 209 250 298
#     4   9  18  33  52  72  97 130 168 209 250 298
#
# _framework density 17.275725999999999
#
# number of rings (size 3 to 8) (size 9 to 14) (size 15 to 20)
#    0.000    2.714    0.000    2.143    0.000    4.571 
#    0.000    5.714    0.000    0.000    0.000    0.000 
#    0.000    0.000    0.000    0.000    0.000    0.000 
#
# Total GULP energy -694345.667542 kJ/mol
# GULP energy per Si atom -12399.029778 kJ/mol
# Density = 1.723641 g / cm^3
# Si number density = 17.275726 Si / 1000 Ang^3
#
#
#
# Elastic Constant Matrix: (Units=GPa)
#
#
# Indices 1 2 3 4 5 6 
#
# 1 116.8647 54.0585 50.0386 0.0000 0.0000 0.0000
# 2 54.0585 125.8224 49.3537 0.0000 0.0000 0.0000
# 3 50.0386 49.3537 131.6706 0.0000 0.0000 0.0000
# 4 0.0000 0.0000 0.0000 16.0865 0.0000 0.0000
# 5 0.0000 0.0000 0.0000 0.0000 17.5187 0.0000
# 6 0.0000 0.0000 0.0000 0.0000 0.0000 13.9363
#
#
#
# Elastic Compliance Matrix: (Units=1/GPa)
#
#
# Indices 1 2 3 4 5 6 
#
# 1 0.011596 -0.003814 -0.002977 0.000000 0.000000 0.000000
# 2 -0.003814 0.010572 -0.002513 0.000000 0.000000 0.000000
# 3 -0.002977 -0.002513 0.009668 0.000000 0.000000 0.000000
# 4 0.000000 0.000000 0.000000 0.062164 0.000000 0.000000
# 5 0.000000 0.000000 0.000000 0.000000 0.057082 0.000000
# 6 0.000000 0.000000 0.000000 0.000000 0.000000 0.071755
#
#
# Mechanical properties :
#
#
# Convention : Reuss Voigt Hill
#
# Bulk Modulus (GPa) = 75.60238 75.69549 75.64894
# Shear Modulus (GPa) = 20.33714 24.23543 22.28629
#
# Velocity S-wave (km/s) = 3.43477 3.74954 3.59560
# Velocity P-wave (km/s) = 7.71929 7.91559 7.81806
#
# Compressibility (1/GPa) = 0.01322710
#
# Stress axis : x y z
#
# Youngs Moduli (GPa) = 86.23626 94.58653 103.43270
#
# Poissons Ratio (x) = 0.36079 0.30793
# Poissons Ratio (y) = 0.32894 0.25995
# Poissons Ratio (z) = 0.25673 0.23772
#
# Static dielectric constant tensor:
#      x y z
#    x 3.080340 0.000000 0.000000 
#    y 0.000000 2.947740 0.000000 
#    z 0.000000 0.000000 3.660800 
# 
# 
# High freq. dielectric constant tensor:
#      x y z
#    x 1.657360 0.000000 0.000000 
#    y 0.000000 1.642730 0.000000 
#    z 0.000000 0.000000 1.680220 
# 
# From -- ./inp_files/32597.got.cif
#   From: 2010.03.12/outbox.cif.g09.slc.cpg/sg63_17_cif.got.tgz:32597.got - 2010.04.10 19:34:48.
