data_PCOD8258415
_publ_section_title
;
Structure prediction by ZEFSAII (Michael W. Deem and Ramdas Pophale) SiO2 
 PCOD8258415
Probable space group: C M C M
;
_chemical_formula_sum "Si O2"
_cell_formula_units_Z 64
_cell_length_a 34.654862
_cell_length_b 13.421147
_cell_length_c 8.728425
_cell_angle_alpha 90.000000
_cell_angle_beta 90.000000
_cell_angle_gamma 90.000000
_cell_volume 4059.660270
_symmetry_space_group_name_H-M "C M C M"
_symmetry_group_IT_number 63
_symmetry_cell_setting 'orthorhombic'
loop_
_space_group_symop_operation_xyz
x,y,z
-x,-y,1/2+z
x,-y,-z
-x,y,1/2-z
-x,-y,-z
x,y,1/2-z
-x,y,z
x,-y,1/2+z
1/2+x,1/2+y,z
1/2-x,1/2-y,1/2+z
1/2+x,1/2-y,-z
1/2-x,1/2+y,1/2-z
1/2-x,1/2-y,-z
1/2+x,1/2+y,1/2-z
1/2-x,1/2+y,z
1/2+x,1/2-y,1/2+z
loop_
_atom_site_type_symbol
_atom_site_label
_atom_site_fract_x
_atom_site_fract_y
_atom_site_fract_z
Si Si1 0.881688 0.609856 0.569416
Si Si2 0.735535 0.601264 0.928978
Si Si3 0.041779 0.608608 0.070697
Si Si4 0.308027 0.199299 0.071511
O O1 0.875961 0.500000 0.500000
O O2 0.882199 0.600799 0.750000
O O3 0.921778 0.661494 0.511077
O O4 0.847586 0.682215 0.517652
O O5 0.743536 0.589382 0.750000
O O6 0.704721 0.687697 0.962541
O O7 0.718292 0.500000 0.000000
O O8 0.775919 0.623272 0.011349
O O9 0.050497 0.600473 0.250000
O O10 0.000000 0.662533 0.042025
O O11 0.039149 0.500000 0.000000
O O12 0.314329 0.179092 0.250000
#
# Coordination Sequence:
#
# PCOD8258415 Si02
#       4
#    16  16  16  16
#     4  11  20  29  43  62  87 117 148 182 216 253
#     4  10  20  33  49  66  86 113 143 179 219 258
#     4   9  16  26  40  58  82 112 144 176 211 253
#     4  10  20  33  47  64  87 114 146 180 214 255
#
# _framework density 15.764865
#
# number of rings (size 3 to 8) (size 9 to 14) (size 15 to 20)
#    0.000    2.000    0.000    6.750    0.000    4.500 
#    0.000    0.000    0.000    0.000    0.000    0.000 
#    0.000    1.000    0.000    3.250    0.000    4.500 
#
# Total GULP energy -396686.177388 kJ/mol
# GULP energy per Si atom -12396.443043 kJ/mol
# Density = 1.572898 g / cm^3
# Si number density = 15.764865 Si / 1000 Ang^3
#
#
#
# Elastic Constant Matrix: (Units=GPa)
#
#
# Indices 1 2 3 4 5 6 
#
# 1 141.0848 35.1925 65.7972 0.0000 0.0000 0.0000
# 2 35.1925 63.2661 35.7085 0.0000 0.0000 0.0000
# 3 65.7972 35.7085 126.7371 0.0000 0.0000 0.0000
# 4 0.0000 0.0000 0.0000 21.4560 0.0000 0.0000
# 5 0.0000 0.0000 0.0000 0.0000 30.0913 0.0000
# 6 0.0000 0.0000 0.0000 0.0000 0.0000 17.7877
#
#
#
# Elastic Compliance Matrix: (Units=1/GPa)
#
#
# Indices 1 2 3 4 5 6 
#
# 1 0.009832 -0.003077 -0.004237 0.000000 0.000000 0.000000
# 2 -0.003077 0.019758 -0.003969 0.000000 0.000000 0.000000
# 3 -0.004237 -0.003969 0.011208 0.000000 0.000000 0.000000
# 4 0.000000 0.000000 0.000000 0.046607 0.000000 0.000000
# 5 0.000000 0.000000 0.000000 0.000000 0.033232 0.000000
# 6 0.000000 0.000000 0.000000 0.000000 0.000000 0.056219
#
#
# Mechanical properties :
#
#
# Convention : Reuss Voigt Hill
#
# Bulk Modulus (GPa) = 54.85221 67.16492 61.00857
# Shear Modulus (GPa) = 24.33074 26.82630 25.57852
#
# Velocity S-wave (km/s) = 3.93281 4.12958 4.03240
# Velocity P-wave (km/s) = 7.44931 8.08917 7.77582
#
# Compressibility (1/GPa) = 0.01823080
#
# Stress axis : x y z
#
# Youngs Moduli (GPa) = 101.71236 50.61121 89.21818
#
# Poissons Ratio (x) = 0.15575 0.37803
# Poissons Ratio (y) = 0.31301 0.35413
# Poissons Ratio (z) = 0.43097 0.20089
#
# Static dielectric constant tensor:
#      x y z
#    x 3.609390 0.000000 0.000000 
#    y 0.000000 2.687640 0.000000 
#    z 0.000000 0.000000 3.214940 
# 
# 
# High freq. dielectric constant tensor:
#      x y z
#    x 1.613930 0.000000 0.000000 
#    y 0.000000 1.550730 0.000000 
#    z 0.000000 0.000000 1.630670 
# 
# From -- ./inp_files/13850.got.cif
#   From: 2010.03.12/outbox.cif.g09.slc.cpg/sg63_7_cif.got.tgz:13850.got - 2010.04.10 19:34:48.
