data_PCOD8258897
_publ_section_title
;
Structure prediction by ZEFSAII (Michael W. Deem and Ramdas Pophale) SiO2 
 PCOD8258897
Probable space group: C M C M
;
_chemical_formula_sum "Si O2"
_cell_formula_units_Z 64
_cell_length_a 28.574096
_cell_length_b 10.970560
_cell_length_c 8.747604
_cell_angle_alpha 90.000000
_cell_angle_beta 90.000000
_cell_angle_gamma 90.000000
_cell_volume 2742.144970
_symmetry_space_group_name_H-M "C M C M"
_symmetry_group_IT_number 63
_symmetry_cell_setting 'orthorhombic'
loop_
_space_group_symop_operation_xyz
x,y,z
-x,-y,1/2+z
x,-y,-z
-x,y,1/2-z
-x,-y,-z
x,y,1/2-z
-x,y,z
x,-y,1/2+z
1/2+x,1/2+y,z
1/2-x,1/2-y,1/2+z
1/2+x,1/2-y,-z
1/2-x,1/2+y,1/2-z
1/2-x,1/2-y,-z
1/2+x,1/2+y,1/2-z
1/2-x,1/2+y,z
1/2+x,1/2-y,1/2+z
loop_
_atom_site_type_symbol
_atom_site_label
_atom_site_fract_x
_atom_site_fract_y
_atom_site_fract_z
Si Si1 0.093180 0.121985 0.927552
Si Si2 0.314432 0.649842 0.082353
Si Si3 0.788705 0.612278 0.079707
Si Si4 0.945416 0.628503 0.571218
O O1 0.080840 0.125320 0.750000
O O2 0.148988 0.103484 0.954510
O O3 0.078909 0.251262 0.001046
O O4 0.068445 0.000000 0.000000
O O5 0.339018 0.649278 0.250000
O O6 0.266247 0.575000 0.089763
O O7 0.298117 0.783898 0.040733
O O8 0.808526 0.640482 0.250000
O O9 0.815491 0.500000 0.000000
O O10 0.927090 0.500000 0.500000
O O11 0.934589 0.625067 0.750000
O O12 0.000000 0.642439 0.535074
#
# Coordination Sequence:
#
# PCOD8258897 Si02
#       4
#    16  16  16  16
#     4  12  25  41  63  92 127 165 207 254 306 365
#     4  10  21  37  56  80 113 152 197 248 302 359
#     4  10  20  34  54  79 109 149 197 249 303 359
#     4  10  22  43  70  98 128 162 201 247 302 364
#
# _framework density 23.339393999999999
#
# number of rings (size 3 to 8) (size 9 to 14) (size 15 to 20)
#    0.000    1.500    0.000    5.250    0.000    8.000 
#    0.000    5.000    0.000    0.000    0.000    0.000 
#    0.000    0.000    0.000    0.000    0.000    0.000 
#
# Total GULP energy -396454.077206 kJ/mol
# GULP energy per Si atom -12389.189913 kJ/mol
# Density = 2.328627 g / cm^3
# Si number density = 23.339394 Si / 1000 Ang^3
#
#
#
# Elastic Constant Matrix: (Units=GPa)
#
#
# Indices 1 2 3 4 5 6 
#
# 1 36.9752 13.0943 12.3419 0.0000 0.0000 0.0000
# 2 13.0943 169.4359 66.7245 0.0000 0.0000 0.0000
# 3 12.3419 66.7245 161.8618 0.0000 0.0000 0.0000
# 4 0.0000 0.0000 0.0000 40.8349 0.0000 0.0000
# 5 0.0000 0.0000 0.0000 0.0000 26.3925 0.0000
# 6 0.0000 0.0000 0.0000 0.0000 0.0000 -27.9301
#
#
#
# Elastic Compliance Matrix: (Units=1/GPa)
#
#
# Indices 1 2 3 4 5 6 
#
# 1 0.028104 -0.001585 -0.001489 0.000000 0.000000 0.000000
# 2 -0.001585 0.007135 -0.002820 0.000000 0.000000 0.000000
# 3 -0.001489 -0.002820 0.007454 0.000000 0.000000 0.000000
# 4 0.000000 0.000000 0.000000 0.024489 0.000000 0.000000
# 5 0.000000 0.000000 0.000000 0.000000 0.037889 0.000000
# 6 0.000000 0.000000 0.000000 0.000000 0.000000 -0.035804
#
#
# Mechanical properties :
#
#
# Convention : Reuss Voigt Hill
#
# Bulk Modulus (GPa) = 32.35950 61.39937 46.87944
# Shear Modulus (GPa) = 54.72900 26.26694 40.49797
#
# Velocity S-wave (km/s) = 4.84769 3.35839 4.17006
# Velocity P-wave (km/s) = 6.72520 6.43449 6.58145
#
# Compressibility (1/GPa) = 0.03090282
#
# Stress axis : x y z
#
# Youngs Moduli (GPa) = 35.58251 140.15096 134.14983
#
# Poissons Ratio (x) = 0.22219 0.19980
# Poissons Ratio (y) = 0.05641 0.37836
# Poissons Ratio (z) = 0.05299 0.39529
#
# Static dielectric constant tensor:
#      x y z
#    x 4.036300 0.000000 0.000000 
#    y 0.000000 4.453280 0.000000 
#    z 0.000000 0.000000 4.468110 
# 
# 
# High freq. dielectric constant tensor:
#      x y z
#    x 1.887510 0.000000 0.000000 
#    y 0.000000 1.950870 0.000000 
#    z 0.000000 0.000000 1.933970 
# 
# From -- ./inp_files/13721.got.cif
#   From: 2010.03.12/outbox.cif.g09.slc.cpg/sg63_7_cif.got.tgz:13721.got - 2010.04.10 19:34:48.
