data_PCOD8258281
_publ_section_title
;
Structure prediction by ZEFSAII (Michael W. Deem and Ramdas Pophale) SiO2 
 PCOD8258281
Probable space group: C M C M
;
_chemical_formula_sum "Si O2"
_cell_formula_units_Z 96
_cell_length_a 8.955938
_cell_length_b 27.528681
_cell_length_c 23.882153
_cell_angle_alpha 90.000000
_cell_angle_beta 90.000000
_cell_angle_gamma 90.000000
_cell_volume 5888.029239
_symmetry_space_group_name_H-M "C M C M"
_symmetry_group_IT_number 63
_symmetry_cell_setting 'orthorhombic'
loop_
_space_group_symop_operation_xyz
x,y,z
-x,-y,1/2+z
x,-y,-z
-x,y,1/2-z
-x,-y,-z
x,y,1/2-z
-x,y,z
x,-y,1/2+z
1/2+x,1/2+y,z
1/2-x,1/2-y,1/2+z
1/2+x,1/2-y,-z
1/2-x,1/2+y,1/2-z
1/2-x,1/2-y,-z
1/2+x,1/2+y,1/2-z
1/2-x,1/2+y,z
1/2+x,1/2-y,1/2+z
loop_
_atom_site_type_symbol
_atom_site_label
_atom_site_fract_x
_atom_site_fract_y
_atom_site_fract_z
Si Si1 0.822233 0.926134 0.188852
Si Si2 0.823307 0.018699 0.583396
Si Si3 0.173451 0.183932 0.685603
Si Si4 0.824546 0.321332 0.974927
Si Si5 0.676459 0.423569 0.524276
Si Si6 0.324657 0.235164 0.585070
O O1 0.761467 0.942144 0.250000
O O2 0.755275 0.962739 0.142336
O O3 0.771774 0.871230 0.175686
O O4 0.000000 0.927705 0.189298
O O5 0.766459 0.054337 0.534470
O O6 0.000000 0.022705 0.583927
O O7 0.778928 0.962770 0.572262
O O8 0.201531 0.199221 0.750000
O O9 0.268877 0.218297 0.645589
O O10 0.000000 0.189331 0.670033
O O11 0.763393 0.374661 0.963127
O O12 0.752065 0.286087 0.929218
O O13 0.000000 0.320711 0.965731
O O14 0.781035 0.304465 0.037736
O O15 0.500000 0.413336 0.523668
O O16 0.500000 0.243769 0.587289
#
# Coordination Sequence:
#
# PCOD8258281 Si02
#       6
#    16  16  16  16  16  16
#     4   8  13  22  39  64  91 116 142 174 213 258
#     4   8  14  24  40  63  88 115 147 180 215 258
#     4   9  17  29  47  71  96 121 148 180 221 267
#     4  10  20  32  46  66  91 118 150 189 232 274
#     4   9  16  27  44  64  87 116 148 182 220 263
#     4  10  20  32  47  67  90 118 151 187 227 271
#
# _framework density 16.304268
#
# number of rings (size 3 to 8) (size 9 to 14) (size 15 to 20)
#    0.000    3.000    0.000    4.000    0.000    3.667 
#    0.000    1.667    0.000    2.000    0.000    2.333 
#    0.000    0.000    0.000    0.000    0.000    0.000 
#
# Total GULP energy -595012.000866 kJ/mol
# GULP energy per Si atom -12396.083351 kJ/mol
# Density = 1.626716 g / cm^3
# Si number density = 16.304268 Si / 1000 Ang^3
#
#
#
# Elastic Constant Matrix: (Units=GPa)
#
#
# Indices 1 2 3 4 5 6 
#
# 1 47.1642 41.2108 33.7268 0.0000 0.0000 0.0000
# 2 41.2108 131.7281 72.9913 0.0000 0.0000 0.0000
# 3 33.7268 72.9913 118.8289 0.0000 0.0000 0.0000
# 4 0.0000 0.0000 0.0000 28.4372 0.0000 0.0000
# 5 0.0000 0.0000 0.0000 0.0000 18.9996 0.0000
# 6 0.0000 0.0000 0.0000 0.0000 0.0000 24.8607
#
#
#
# Elastic Compliance Matrix: (Units=1/GPa)
#
#
# Indices 1 2 3 4 5 6 
#
# 1 0.030527 -0.007200 -0.004242 0.000000 0.000000 0.000000
# 2 -0.007200 0.013207 -0.006069 0.000000 0.000000 0.000000
# 3 -0.004242 -0.006069 0.013347 0.000000 0.000000 0.000000
# 4 0.000000 0.000000 0.000000 0.035165 0.000000 0.000000
# 5 0.000000 0.000000 0.000000 0.000000 0.052633 0.000000
# 6 0.000000 0.000000 0.000000 0.000000 0.000000 0.040224
#
#
# Mechanical properties :
#
#
# Convention : Reuss Voigt Hill
#
# Bulk Modulus (GPa) = 45.33120 65.95322 55.64221
# Shear Modulus (GPa) = 21.98031 24.44565 23.21298
#
# Velocity S-wave (km/s) = 3.67568 3.87633 3.77734
# Velocity P-wave (km/s) = 6.77331 7.78293 7.29560
#
# Compressibility (1/GPa) = 0.02205986
#
# Stress axis : x y z
#
# Youngs Moduli (GPa) = 32.75808 75.72000 74.92251
#
# Poissons Ratio (x) = 0.54517 0.31780
# Poissons Ratio (y) = 0.23585 0.45468
# Poissons Ratio (z) = 0.13895 0.45952
#
# Static dielectric constant tensor:
#      x y z
#    x 2.752660 0.000000 0.000000 
#    y 0.000000 3.055890 0.000000 
#    z 0.000000 0.000000 3.367490 
# 
# 
# High freq. dielectric constant tensor:
#      x y z
#    x 1.599450 0.000000 0.000000 
#    y 0.000000 1.620210 0.000000 
#    z 0.000000 0.000000 1.621980 
# 
# From -- ./inp_files/59879.got.cif
#   From: 2010.03.12/outbox.cif.g09.slc.cpg/sg63_30_cif.got.tgz:59879.got - 2010.04.10 19:34:48.
