data_PCOD8258609
_publ_section_title
;
Structure prediction by ZEFSAII (Michael W. Deem and Ramdas Pophale) SiO2 
 PCOD8258609
Probable space group: C M C M
;
_chemical_formula_sum "Si O2"
_cell_formula_units_Z 96
_cell_length_a 23.239712
_cell_length_b 25.264788
_cell_length_c 9.008038
_cell_angle_alpha 90.000000
_cell_angle_beta 90.000000
_cell_angle_gamma 90.000000
_cell_volume 5289.037054
_symmetry_space_group_name_H-M "C M C M"
_symmetry_group_IT_number 63
_symmetry_cell_setting 'orthorhombic'
loop_
_space_group_symop_operation_xyz
x,y,z
-x,-y,1/2+z
x,-y,-z
-x,y,1/2-z
-x,-y,-z
x,y,1/2-z
-x,y,z
x,-y,1/2+z
1/2+x,1/2+y,z
1/2-x,1/2-y,1/2+z
1/2+x,1/2-y,-z
1/2-x,1/2+y,1/2-z
1/2-x,1/2-y,-z
1/2+x,1/2+y,1/2-z
1/2-x,1/2+y,z
1/2+x,1/2-y,1/2+z
loop_
_atom_site_type_symbol
_atom_site_label
_atom_site_fract_x
_atom_site_fract_y
_atom_site_fract_z
Si Si1 0.246816 0.693850 0.577386
Si Si2 0.933887 0.445324 0.576506
Si Si3 0.366945 0.647809 0.923254
Si Si4 0.434140 0.445148 0.575504
Si Si5 0.876371 0.651644 0.575708
Si Si6 0.933415 0.747059 0.419343
O O1 0.247805 0.706808 0.750000
O O2 0.250000 0.750000 0.500000
O O3 0.300022 0.655771 0.535229
O O4 0.189054 0.663837 0.530094
O O5 0.917003 0.500000 0.500000
O O6 0.922258 0.450779 0.750000
O O7 0.893067 0.401011 0.509974
O O8 0.000000 0.430188 0.543286
O O9 0.376289 0.635341 0.750000
O O10 0.399221 0.701264 0.970193
O O11 0.391635 0.599883 0.018063
O O12 0.416050 0.500000 0.500000
O O13 0.426169 0.451570 0.750000
O O14 0.500000 0.430446 0.534129
O O15 0.883991 0.642583 0.750000
O O16 0.917443 0.699254 0.526713
O O17 0.917927 0.731357 0.250000
O O18 0.000000 0.760335 0.436768
#
# Coordination Sequence:
#
# PCOD8258609 Si02
#       6
#    16  16  16  16  16  16
#     4  10  21  37  57  80 109 148 190 230 273 324
#     4  10  21  38  60  84 111 145 184 227 277 332
#     4  10  20  36  57  80 109 146 187 229 274 326
#     4  10  21  37  58  84 113 145 182 226 277 332
#     4  11  22  35  54  82 113 145 184 229 276 327
#     4  10  20  33  52  79 110 145 183 224 274 331
#
# _framework density 18.150752000000001
#
# number of rings (size 3 to 8) (size 9 to 14) (size 15 to 20)
#    0.000    1.833    1.667    2.500    0.000    7.000 
#    0.000    0.833    0.000    0.000    0.000    0.000 
#    0.000    0.000    0.000    0.000    0.000    0.000 
#
# Total GULP energy -595421.988530 kJ/mol
# GULP energy per Si atom -12404.624761 kJ/mol
# Density = 1.810944 g / cm^3
# Si number density = 18.150752 Si / 1000 Ang^3
#
#
#
# Elastic Constant Matrix: (Units=GPa)
#
#
# Indices 1 2 3 4 5 6 
#
# 1 101.3812 65.7804 43.4714 0.0000 0.0000 0.0000
# 2 65.7804 137.3914 66.2570 0.0000 0.0000 0.0000
# 3 43.4714 66.2570 77.3453 0.0000 0.0000 0.0000
# 4 0.0000 0.0000 0.0000 39.9151 0.0000 0.0000
# 5 0.0000 0.0000 0.0000 0.0000 27.4897 0.0000
# 6 0.0000 0.0000 0.0000 0.0000 0.0000 -33.0209
#
#
#
# Elastic Compliance Matrix: (Units=1/GPa)
#
#
# Indices 1 2 3 4 5 6 
#
# 1 0.014960 -0.005295 -0.003872 0.000000 0.000000 0.000000
# 2 -0.005295 0.014276 -0.009253 0.000000 0.000000 0.000000
# 3 -0.003872 -0.009253 0.023032 0.000000 0.000000 0.000000
# 4 0.000000 0.000000 0.000000 0.025053 0.000000 0.000000
# 5 0.000000 0.000000 0.000000 0.000000 0.036377 0.000000
# 6 0.000000 0.000000 0.000000 0.000000 0.000000 -0.030284
#
#
# Mechanical properties :
#
#
# Convention : Reuss Voigt Hill
#
# Bulk Modulus (GPa) = 64.82188 74.12619 69.47403
# Shear Modulus (GPa) = 39.87300 16.25070 28.06185
#
# Velocity S-wave (km/s) = 4.69205 2.99543 3.93624
# Velocity P-wave (km/s) = 8.07121 7.27264 7.68231
#
# Compressibility (1/GPa) = 0.01542689
#
# Stress axis : x y z
#
# Youngs Moduli (GPa) = 66.84587 70.04677 43.41775
#
# Poissons Ratio (x) = 0.37091 0.16811
# Poissons Ratio (y) = 0.35396 0.40176
# Poissons Ratio (z) = 0.25882 0.64817
#
# Static dielectric constant tensor:
#      x y z
#    x 3.531090 0.000000 0.000000 
#    y 0.000000 3.326280 0.000000 
#    z 0.000000 0.000000 3.392880 
# 
# 
# High freq. dielectric constant tensor:
#      x y z
#    x 1.706410 0.000000 0.000000 
#    y 0.000000 1.703870 0.000000 
#    z 0.000000 0.000000 1.708650 
# 
# From -- ./inp_files/10436.got.cif
#   From: 2010.03.12/outbox.cif.g09.slc.cpg/sg63_6_cif.got.tgz:10436.got - 2010.04.10 19:34:48.
