data_PCOD8258779
_publ_section_title
;
Structure prediction by ZEFSAII (Michael W. Deem and Ramdas Pophale) SiO2 
 PCOD8258779
Probable space group: C M C M
;
_chemical_formula_sum "Si O2"
_cell_formula_units_Z 80
_cell_length_a 13.977000
_cell_length_b 18.701304
_cell_length_c 17.648972
_cell_angle_alpha 90.000000
_cell_angle_beta 90.000000
_cell_angle_gamma 90.000000
_cell_volume 4613.231717
_symmetry_space_group_name_H-M "C M C M"
_symmetry_group_IT_number 63
_symmetry_cell_setting 'orthorhombic'
loop_
_space_group_symop_operation_xyz
x,y,z
-x,-y,1/2+z
x,-y,-z
-x,y,1/2-z
-x,-y,-z
x,y,1/2-z
-x,y,z
x,-y,1/2+z
1/2+x,1/2+y,z
1/2-x,1/2-y,1/2+z
1/2+x,1/2-y,-z
1/2-x,1/2+y,1/2-z
1/2-x,1/2-y,-z
1/2+x,1/2+y,1/2-z
1/2-x,1/2+y,z
1/2+x,1/2-y,1/2+z
loop_
_atom_site_type_symbol
_atom_site_label
_atom_site_fract_x
_atom_site_fract_y
_atom_site_fract_z
Si Si1 0.894203 0.562290 0.060843
Si Si2 0.219260 0.655765 0.548392
Si Si3 0.608361 0.579845 0.336015
Si Si4 0.770909 0.526673 0.837899
Si Si5 0.887980 0.203655 0.454401
O O1 0.853483 0.529346 0.138629
O O2 0.000000 0.593452 0.076703
O O3 0.899003 0.500000 0.000000
O O4 0.826321 0.624311 0.028823
O O5 0.222648 0.600137 0.616619
O O6 0.151903 0.720680 0.575804
O O7 0.327129 0.681256 0.528883
O O8 0.630556 0.603717 0.250000
O O9 0.500000 0.554124 0.346329
O O10 0.670542 0.510847 0.358394
O O11 0.630843 0.647201 0.388157
O O12 0.782006 0.545067 0.750000
O O13 0.000000 0.208942 0.475916
#
# Coordination Sequence:
#
# PCOD8258779 Si02
#       5
#    16  16  16  16  16
#     4   9  17  31  50  72 102 135 168 211 258 301
#     4  10  20  34  52  78 105 138 175 218 265 307
#     4   9  18  33  53  78 108 139 171 213 263 309
#     4  10  20  34  52  77 107 137 175 216 258 311
#     4  10  20  34  54  78 104 138 178 216 259 313
#
# _framework density 17.341422999999999
#
# number of rings (size 3 to 8) (size 9 to 14) (size 15 to 20)
#    0.000    2.400    2.000    0.600    0.000    2.800 
#    0.000    2.000    0.000    0.000    0.000    0.000 
#    0.000    0.000    0.000    0.000    0.000    0.000 
#
# Total GULP energy -495941.075191 kJ/mol
# GULP energy per Si atom -12398.526880 kJ/mol
# Density = 1.730195 g / cm^3
# Si number density = 17.341423 Si / 1000 Ang^3
#
#
#
# Elastic Constant Matrix: (Units=GPa)
#
#
# Indices 1 2 3 4 5 6 
#
# 1 129.9237 52.1293 50.8652 0.0000 0.0000 0.0000
# 2 52.1293 103.1190 52.3641 0.0000 0.0000 0.0000
# 3 50.8652 52.3641 79.5980 0.0000 0.0000 0.0000
# 4 0.0000 0.0000 0.0000 24.2609 0.0000 0.0000
# 5 0.0000 0.0000 0.0000 0.0000 21.6426 0.0000
# 6 0.0000 0.0000 0.0000 0.0000 0.0000 27.5646
#
#
#
# Elastic Compliance Matrix: (Units=1/GPa)
#
#
# Indices 1 2 3 4 5 6 
#
# 1 0.010829 -0.002944 -0.004983 0.000000 0.000000 0.000000
# 2 -0.002944 0.015362 -0.008225 0.000000 0.000000 0.000000
# 3 -0.004983 -0.008225 0.021159 0.000000 0.000000 0.000000
# 4 0.000000 0.000000 0.000000 0.041219 0.000000 0.000000
# 5 0.000000 0.000000 0.000000 0.000000 0.046205 0.000000
# 6 0.000000 0.000000 0.000000 0.000000 0.000000 0.036278
#
#
# Mechanical properties :
#
#
# Convention : Reuss Voigt Hill
#
# Bulk Modulus (GPa) = 66.46552 69.26199 67.86375
# Shear Modulus (GPa) = 23.99555 25.17909 24.58732
#
# Velocity S-wave (km/s) = 3.72386 3.81460 3.76950
# Velocity P-wave (km/s) = 7.54323 7.70898 7.62656
#
# Compressibility (1/GPa) = 0.01504539
#
# Stress axis : x y z
#
# Youngs Moduli (GPa) = 92.34510 65.09393 47.26201
#
# Poissons Ratio (x) = 0.19162 0.23553
# Poissons Ratio (y) = 0.27184 0.38874
# Poissons Ratio (z) = 0.46020 0.53541
#
# Static dielectric constant tensor:
#      x y z
#    x 3.499000 0.000000 0.000000 
#    y 0.000000 3.202990 0.000000 
#    z 0.000000 0.000000 3.042040 
# 
# 
# High freq. dielectric constant tensor:
#      x y z
#    x 1.683790 0.000000 0.000000 
#    y 0.000000 1.668290 0.000000 
#    z 0.000000 0.000000 1.649890 
# 
# From -- ./inp_files/31638.got.cif
#   From: 2010.03.12/outbox.cif.g09.slc.cpg/sg63_16_cif.got.tgz:31638.got - 2010.04.10 19:34:48.
