data_PCOD8258857
_publ_section_title
;
Structure prediction by ZEFSAII (Michael W. Deem and Ramdas Pophale) SiO2 
 PCOD8258857
Probable space group: C M C M
;
_chemical_formula_sum "Si O2"
_cell_formula_units_Z 72
_cell_length_a 27.042932
_cell_length_b 14.315888
_cell_length_c 9.431901
_cell_angle_alpha 90.000000
_cell_angle_beta 90.000000
_cell_angle_gamma 90.000000
_cell_volume 3651.499973
_symmetry_space_group_name_H-M "C M C M"
_symmetry_group_IT_number 63
_symmetry_cell_setting 'orthorhombic'
loop_
_space_group_symop_operation_xyz
x,y,z
-x,-y,1/2+z
x,-y,-z
-x,y,1/2-z
-x,-y,-z
x,y,1/2-z
-x,y,z
x,-y,1/2+z
1/2+x,1/2+y,z
1/2-x,1/2-y,1/2+z
1/2+x,1/2-y,-z
1/2-x,1/2+y,1/2-z
1/2-x,1/2-y,-z
1/2+x,1/2+y,1/2-z
1/2-x,1/2+y,z
1/2+x,1/2-y,1/2+z
loop_
_atom_site_type_symbol
_atom_site_label
_atom_site_fract_x
_atom_site_fract_y
_atom_site_fract_z
Si Si1 0.233814 0.162328 0.589930
Si Si2 0.129316 0.911949 0.412919
Si Si3 0.096540 0.712183 0.086891
Si Si4 0.162170 0.587326 0.589069
Si Si5 0.500000 0.902995 0.916069
O O1 0.223439 0.197228 0.750000
O O2 0.250000 0.250000 0.500000
O O3 0.184139 0.114848 0.529874
O O4 0.278402 0.087896 0.586949
O O5 0.132088 0.942655 0.250000
O O6 0.092135 0.824156 0.433633
O O7 0.108584 0.000000 0.500000
O O8 0.109957 0.689464 0.250000
O O9 0.046750 0.659943 0.040295
O O10 0.141153 0.679749 0.985958
O O11 0.141653 0.500000 0.500000
O O12 0.142224 0.580443 0.750000
O O13 0.500000 0.926337 0.750000
O O14 0.500000 0.000000 0.000000
#
# Coordination Sequence:
#
# PCOD8258857 Si02
#       5
#    16  16  16  16   8
#     4  10  20  34  53  79 111 149 190 230 273 325
#     4  10  21  37  57  81 112 151 190 230 277 328
#     4  10  21  39  60  82 112 146 186 234 284 337
#     4  11  22  34  53  82 113 148 187 228 277 333
#     4  10  22  40  63  88 112 144 181 228 287 344
#
# _framework density 19.717925000000001
#
# number of rings (size 3 to 8) (size 9 to 14) (size 15 to 20)
#    0.000    1.778    2.222    2.000    0.000    5.333 
#    0.000    0.556    0.000    0.000    0.000    0.000 
#    0.000    0.000    0.000    0.000    0.000    0.000 
#
# Total GULP energy -446430.488084 kJ/mol
# GULP energy per Si atom -12400.846891 kJ/mol
# Density = 1.967305 g / cm^3
# Si number density = 19.717925 Si / 1000 Ang^3
#
#
#
# Elastic Constant Matrix: (Units=GPa)
#
#
# Indices 1 2 3 4 5 6 
#
# 1 85.9144 38.5374 24.9185 0.0000 0.0000 0.0000
# 2 38.5374 134.1840 63.0143 0.0000 0.0000 0.0000
# 3 24.9185 63.0143 91.0198 0.0000 0.0000 0.0000
# 4 0.0000 0.0000 0.0000 40.6232 0.0000 0.0000
# 5 0.0000 0.0000 0.0000 0.0000 20.2287 0.0000
# 6 0.0000 0.0000 0.0000 0.0000 0.0000 31.2918
#
#
#
# Elastic Compliance Matrix: (Units=1/GPa)
#
#
# Indices 1 2 3 4 5 6 
#
# 1 0.013497 -0.003173 -0.001499 0.000000 0.000000 0.000000
# 2 -0.003173 0.011788 -0.007293 0.000000 0.000000 0.000000
# 3 -0.001499 -0.007293 0.016446 0.000000 0.000000 0.000000
# 4 0.000000 0.000000 0.000000 0.024616 0.000000 0.000000
# 5 0.000000 0.000000 0.000000 0.000000 0.049435 0.000000
# 6 0.000000 0.000000 0.000000 0.000000 0.000000 0.031957
#
#
# Mechanical properties :
#
#
# Convention : Reuss Voigt Hill
#
# Bulk Modulus (GPa) = 56.16907 62.67317 59.42112
# Shear Modulus (GPa) = 28.15280 30.73861 29.44571
#
# Velocity S-wave (km/s) = 3.78269 3.95260 3.86858
# Velocity P-wave (km/s) = 6.90120 7.25841 7.08206
#
# Compressibility (1/GPa) = 0.01780339
#
# Stress axis : x y z
#
# Youngs Moduli (GPa) = 74.08913 84.82965 60.80598
#
# Poissons Ratio (x) = 0.26913 0.09113
# Poissons Ratio (y) = 0.23505 0.44344
# Poissons Ratio (z) = 0.11104 0.61864
#
# Static dielectric constant tensor:
#      x y z
#    x 3.567060 0.000000 0.000000 
#    y 0.000000 3.492550 0.000000 
#    z 0.000000 0.000000 3.647290 
# 
# 
# High freq. dielectric constant tensor:
#      x y z
#    x 1.751420 0.000000 0.000000 
#    y 0.000000 1.767570 0.000000 
#    z 0.000000 0.000000 1.765680 
# 
# From -- ./inp_files/11682.got.cif
#   From: 2010.03.12/outbox.cif.g09.slc.cpg/sg63_6_cif.got.tgz:11682.got - 2010.04.10 19:34:48.
