data_PCOD8258664
_publ_section_title
;
Structure prediction by ZEFSAII (Michael W. Deem and Ramdas Pophale) SiO2 
 PCOD8258664
Probable space group: C M C M
;
_chemical_formula_sum "Si O2"
_cell_formula_units_Z 96
_cell_length_a 30.030648
_cell_length_b 9.907807
_cell_length_c 17.717541
_cell_angle_alpha 90.000000
_cell_angle_beta 90.000000
_cell_angle_gamma 90.000000
_cell_volume 5271.639313
_symmetry_space_group_name_H-M "C M C M"
_symmetry_group_IT_number 63
_symmetry_cell_setting 'orthorhombic'
loop_
_space_group_symop_operation_xyz
x,y,z
-x,-y,1/2+z
x,-y,-z
-x,y,1/2-z
-x,-y,-z
x,y,1/2-z
-x,y,z
x,-y,1/2+z
1/2+x,1/2+y,z
1/2-x,1/2-y,1/2+z
1/2+x,1/2-y,-z
1/2-x,1/2+y,1/2-z
1/2-x,1/2-y,-z
1/2+x,1/2+y,1/2-z
1/2-x,1/2+y,z
1/2+x,1/2-y,1/2+z
loop_
_atom_site_type_symbol
_atom_site_label
_atom_site_fract_x
_atom_site_fract_y
_atom_site_fract_z
Si Si1 0.126621 0.770867 0.660844
Si Si2 0.549780 0.232986 0.160244
Si Si3 0.297157 0.885178 0.555891
Si Si4 0.196182 0.127202 0.455224
Si Si5 0.549258 0.534951 0.339552
Si Si6 0.626989 0.040874 0.161230
O O1 0.134560 0.789299 0.750000
O O2 0.168811 0.832815 0.618511
O O3 0.120087 0.614990 0.638715
O O4 0.083586 0.852636 0.631094
O O5 0.550126 0.226953 0.250000
O O6 0.500000 0.196286 0.131117
O O7 0.562919 0.384344 0.133064
O O8 0.585313 0.125764 0.127467
O O9 0.245412 0.907502 0.576255
O O10 0.303645 0.742020 0.517761
O O11 0.314669 0.000000 0.500000
O O12 0.326947 0.897509 0.630572
O O13 0.175772 0.000000 0.500000
O O14 0.548345 0.537057 0.250000
O O15 0.500000 0.571180 0.370683
O O16 0.629710 0.058285 0.250000
#
# Coordination Sequence:
#
# PCOD8258664 Si02
#       6
#    16  16  16  16  16  16
#     4  10  20  34  53  81 111 135 171 222 267 305
#     4   8  15  29  49  75 106 138 173 211 255 310
#     4  10  20  39  57  73 104 140 176 213 258 320
#     4  10  22  37  57  78 100 142 182 212 260 320
#     4   8  15  29  49  74 106 140 172 211 258 308
#     4  10  20  33  54  82 108 137 174 220 265 305
#
# _framework density 18.210654000000002
#
# number of rings (size 3 to 8) (size 9 to 14) (size 15 to 20)
#    0.000    2.667    1.667    1.000    2.333    1.333 
#    0.000    3.333    0.000    2.000    0.000    0.000 
#    0.000    0.000    0.000    0.000    0.000    0.000 
#
# Total GULP energy -595024.106592 kJ/mol
# GULP energy per Si atom -12396.335554 kJ/mol
# Density = 1.816921 g / cm^3
# Si number density = 18.210654 Si / 1000 Ang^3
#
#
#
# Elastic Constant Matrix: (Units=GPa)
#
#
# Indices 1 2 3 4 5 6 
#
# 1 127.2240 70.5422 39.5045 0.0000 0.0000 0.0000
# 2 70.5422 125.8617 31.6125 0.0000 0.0000 0.0000
# 3 39.5045 31.6125 30.7100 0.0000 0.0000 0.0000
# 4 0.0000 0.0000 0.0000 21.2757 0.0000 0.0000
# 5 0.0000 0.0000 0.0000 0.0000 11.1060 0.0000
# 6 0.0000 0.0000 0.0000 0.0000 0.0000 110.9294
#
#
#
# Elastic Compliance Matrix: (Units=1/GPa)
#
#
# Indices 1 2 3 4 5 6 
#
# 1 0.014961 -0.004790 -0.014315 0.000000 0.000000 0.000000
# 2 -0.004790 0.012249 -0.006448 0.000000 0.000000 0.000000
# 3 -0.014315 -0.006448 0.057614 0.000000 0.000000 0.000000
# 4 0.000000 0.000000 0.000000 0.047002 0.000000 0.000000
# 5 0.000000 0.000000 0.000000 0.000000 0.090041 0.000000
# 6 0.000000 0.000000 0.000000 0.000000 0.000000 0.009015
#
#
# Mechanical properties :
#
#
# Convention : Reuss Voigt Hill
#
# Bulk Modulus (GPa) = 29.65632 63.01269 46.33451
# Shear Modulus (GPa) = 17.05165 38.13798 27.59482
#
# Velocity S-wave (km/s) = 3.06331 4.58128 3.89692
# Velocity P-wave (km/s) = 5.36958 7.91590 6.76364
#
# Compressibility (1/GPa) = 0.03371963
#
# Stress axis : x y z
#
# Youngs Moduli (GPa) = 66.84132 81.63758 17.35684
#
# Poissons Ratio (x) = 0.39102 0.24846
# Poissons Ratio (y) = 0.32015 0.11191
# Poissons Ratio (z) = 0.95681 0.52639
#
# Static dielectric constant tensor:
#      x y z
#    x 3.618010 0.000000 0.000000 
#    y 0.000000 3.662790 0.000000 
#    z 0.000000 0.000000 3.283730 
# 
# 
# High freq. dielectric constant tensor:
#      x y z
#    x 1.710180 0.000000 0.000000 
#    y 0.000000 1.720520 0.000000 
#    z 0.000000 0.000000 1.663500 
# 
# From -- ./inp_files/58046.got.cif
#   From: 2010.03.12/outbox.cif.g09.slc.cpg/sg63_30_cif.got.tgz:58046.got - 2010.04.10 19:34:48.
