data_PCOD8258360
_publ_section_title
;
Structure prediction by ZEFSAII (Michael W. Deem and Ramdas Pophale) SiO2 
 PCOD8258360
Probable space group: C M C M
;
_chemical_formula_sum "Si O2"
_cell_formula_units_Z 96
_cell_length_a 22.607937
_cell_length_b 13.421232
_cell_length_c 17.461816
_cell_angle_alpha 90.000000
_cell_angle_beta 90.000000
_cell_angle_gamma 90.000000
_cell_volume 5298.375399
_symmetry_space_group_name_H-M "C M C M"
_symmetry_group_IT_number 63
_symmetry_cell_setting 'orthorhombic'
loop_
_space_group_symop_operation_xyz
x,y,z
-x,-y,1/2+z
x,-y,-z
-x,y,1/2-z
-x,-y,-z
x,y,1/2-z
-x,y,z
x,-y,1/2+z
1/2+x,1/2+y,z
1/2-x,1/2-y,1/2+z
1/2+x,1/2-y,-z
1/2-x,1/2+y,1/2-z
1/2-x,1/2-y,-z
1/2+x,1/2+y,1/2-z
1/2-x,1/2+y,z
1/2+x,1/2-y,1/2+z
loop_
_atom_site_type_symbol
_atom_site_label
_atom_site_fract_x
_atom_site_fract_y
_atom_site_fract_z
Si Si1 0.432697 0.968104 0.582299
Si Si2 0.842227 0.654460 0.163157
Si Si3 0.067865 0.327330 0.161700
Si Si4 0.709532 0.337257 0.416326
Si Si5 0.775911 0.042886 0.162155
Si Si6 0.672208 0.277622 0.920976
O O1 0.500000 0.933247 0.573038
O O2 0.425822 0.055747 0.644234
O O3 0.407170 0.000000 0.500000
O O4 0.397207 0.871365 0.609401
O O5 0.863480 0.651610 0.250000
O O6 0.819823 0.765243 0.145964
O O7 0.792074 0.571748 0.146865
O O8 0.087289 0.310014 0.250000
O O9 0.108775 0.267125 0.102247
O O10 0.000000 0.292971 0.148741
O O11 0.705043 0.450787 0.390087
O O12 0.673092 0.327761 0.495311
O O13 0.778809 0.309821 0.423324
O O14 0.786595 0.014080 0.250000
O O15 0.815223 0.138489 0.142125
#
# Coordination Sequence:
#
# PCOD8258360 Si02
#       6
#    16  16  16  16  16  16
#     4  10  20  33  50  73 102 135 169 206 248 296
#     4  10  20  32  49  74 102 133 168 206 250 300
#     4  10  20  34  54  78 102 132 172 216 258 298
#     4  10  20  33  51  75 104 135 166 204 252 305
#     4  10  20  33  51  75 102 132 167 208 253 301
#     4  10  20  34  53  76 102 133 168 207 253 304
#
# _framework density 18.118760999999999
#
# number of rings (size 3 to 8) (size 9 to 14) (size 15 to 20)
#    0.000    2.000    0.000    4.000    0.000    7.000 
#    0.000    0.000    0.000    3.000    0.000    0.000 
#    0.000    0.000    0.000    0.000    0.000    0.000 
#
# Total GULP energy -595283.108132 kJ/mol
# GULP energy per Si atom -12401.731419 kJ/mol
# Density = 1.807752 g / cm^3
# Si number density = 18.118761 Si / 1000 Ang^3
#
#
#
# Elastic Constant Matrix: (Units=GPa)
#
#
# Indices 1 2 3 4 5 6 
#
# 1 68.3772 15.1656 35.6812 0.0000 0.0000 0.0000
# 2 15.1656 48.8979 16.7113 0.0000 0.0000 0.0000
# 3 35.6812 16.7113 84.7345 0.0000 0.0000 0.0000
# 4 0.0000 0.0000 0.0000 33.9902 0.0000 0.0000
# 5 0.0000 0.0000 0.0000 0.0000 31.5463 0.0000
# 6 0.0000 0.0000 0.0000 0.0000 0.0000 15.9496
#
#
#
# Elastic Compliance Matrix: (Units=1/GPa)
#
#
# Indices 1 2 3 4 5 6 
#
# 1 0.019267 -0.003434 -0.007436 0.000000 0.000000 0.000000
# 2 -0.003434 0.022541 -0.002999 0.000000 0.000000 0.000000
# 3 -0.007436 -0.002999 0.015524 0.000000 0.000000 0.000000
# 4 0.000000 0.000000 0.000000 0.029420 0.000000 0.000000
# 5 0.000000 0.000000 0.000000 0.000000 0.031699 0.000000
# 6 0.000000 0.000000 0.000000 0.000000 0.000000 0.062697
#
#
# Mechanical properties :
#
#
# Convention : Reuss Voigt Hill
#
# Bulk Modulus (GPa) = 33.79169 37.45842 35.62505
# Shear Modulus (GPa) = 22.85693 25.26067 24.05880
#
# Velocity S-wave (km/s) = 3.55562 3.73791 3.64791
# Velocity P-wave (km/s) = 5.96215 6.27280 6.11945
#
# Compressibility (1/GPa) = 0.02959307
#
# Stress axis : x y z
#
# Youngs Moduli (GPa) = 51.90316 44.36370 64.41534
#
# Poissons Ratio (x) = 0.15236 0.47898
# Poissons Ratio (y) = 0.17825 0.19320
# Poissons Ratio (z) = 0.38594 0.13306
#
# Static dielectric constant tensor:
#      x y z
#    x 3.203270 0.000000 0.000000 
#    y 0.000000 3.125030 0.000000 
#    z 0.000000 0.000000 3.514270 
# 
# 
# High freq. dielectric constant tensor:
#      x y z
#    x 1.682120 0.000000 0.000000 
#    y 0.000000 1.688260 0.000000 
#    z 0.000000 0.000000 1.720870 
# 
# From -- ./inp_files/48022.got.cif
#   From: 2010.03.12/outbox.cif.g09.slc.cpg/sg63_25_cif.got.tgz:48022.got - 2010.04.10 19:34:48.
