data_PCOD8258563
_publ_section_title
;
Structure prediction by ZEFSAII (Michael W. Deem and Ramdas Pophale) SiO2 
 PCOD8258563
Probable space group: C M C M
;
_chemical_formula_sum "Si O2"
_cell_formula_units_Z 64
_cell_length_a 9.353919
_cell_length_b 41.271526
_cell_length_c 8.927949
_cell_angle_alpha 90.000000
_cell_angle_beta 90.000000
_cell_angle_gamma 90.000000
_cell_volume 3446.639276
_symmetry_space_group_name_H-M "C M C M"
_symmetry_group_IT_number 63
_symmetry_cell_setting 'orthorhombic'
loop_
_space_group_symop_operation_xyz
x,y,z
-x,-y,1/2+z
x,-y,-z
-x,y,1/2-z
-x,-y,-z
x,y,1/2-z
-x,y,z
x,-y,1/2+z
1/2+x,1/2+y,z
1/2-x,1/2-y,1/2+z
1/2+x,1/2-y,-z
1/2-x,1/2+y,1/2-z
1/2-x,1/2-y,-z
1/2+x,1/2+y,1/2-z
1/2-x,1/2+y,z
1/2+x,1/2-y,1/2+z
loop_
_atom_site_type_symbol
_atom_site_label
_atom_site_fract_x
_atom_site_fract_y
_atom_site_fract_z
Si Si1 0.329873 0.031963 0.918937
Si Si2 0.833217 0.778903 0.923749
Si Si3 0.164841 0.154650 0.574570
Si Si4 0.169049 0.597138 0.077804
O O1 0.269615 0.033518 0.750000
O O2 0.500000 0.030660 0.916862
O O3 0.276468 0.063216 0.009974
O O4 0.268362 0.000000 0.000000
O O5 0.794216 0.780023 0.750000
O O6 0.000000 0.773211 0.952212
O O7 0.750000 0.750000 0.000000
O O8 0.782428 0.812509 0.996315
O O9 0.190136 0.158509 0.750000
O O10 0.259159 0.125594 0.514276
O O11 0.000000 0.147590 0.535643
O O12 0.216945 0.598816 0.250000
O O13 0.000000 0.600596 0.060474
#
# Coordination Sequence:
#
# PCOD8258563 Si02
#       4
#    16  16  16  16
#     4   9  16  27  45  70 101 135 170 211 258 305
#     4  10  21  37  57  80 105 135 171 210 254 304
#     4  10  21  37  56  77 103 137 174 211 255 307
#     4  10  20  33  51  77 106 136 173 215 257 303
#
# _framework density 18.568811
#
# number of rings (size 3 to 8) (size 9 to 14) (size 15 to 20)
#    0.000    2.250    0.000    3.000    0.000    8.500 
#    0.000    0.000    0.000    0.750    0.000    0.000 
#    0.000    0.000    0.000    0.000    0.000    0.000 
#
# Total GULP energy -396903.780611 kJ/mol
# GULP energy per Si atom -12403.243144 kJ/mol
# Density = 1.852655 g / cm^3
# Si number density = 18.568811 Si / 1000 Ang^3
#
#
#
# Elastic Constant Matrix: (Units=GPa)
#
#
# Indices 1 2 3 4 5 6 
#
# 1 26.1077 41.6688 30.5313 0.0000 0.0000 0.0000
# 2 41.6688 171.5059 67.7599 0.0000 0.0000 0.0000
# 3 30.5313 67.7599 116.6743 0.0000 0.0000 0.0000
# 4 0.0000 0.0000 0.0000 46.0943 0.0000 0.0000
# 5 0.0000 0.0000 0.0000 0.0000 25.5320 0.0000
# 6 0.0000 0.0000 0.0000 0.0000 0.0000 20.3483
#
#
#
# Elastic Compliance Matrix: (Units=1/GPa)
#
#
# Indices 1 2 3 4 5 6 
#
# 1 0.072556 -0.013142 -0.011354 0.000000 0.000000 0.000000
# 2 -0.013142 0.009947 -0.002338 0.000000 0.000000 0.000000
# 3 -0.011354 -0.002338 0.012900 0.000000 0.000000 0.000000
# 4 0.000000 0.000000 0.000000 0.021695 0.000000 0.000000
# 5 0.000000 0.000000 0.000000 0.000000 0.039167 0.000000
# 6 0.000000 0.000000 0.000000 0.000000 0.000000 0.049144
#
#
# Mechanical properties :
#
#
# Convention : Reuss Voigt Hill
#
# Bulk Modulus (GPa) = 23.96077 66.02310 44.99194
# Shear Modulus (GPa) = 18.31576 30.01677 24.16626
#
# Velocity S-wave (km/s) = 3.14406 4.02495 3.61147
# Velocity P-wave (km/s) = 5.10999 7.56528 6.45544
#
# Compressibility (1/GPa) = 0.04173488
#
# Stress axis : x y z
#
# Youngs Moduli (GPa) = 13.78243 100.52803 77.52070
#
# Poissons Ratio (x) = 1.32117 0.88016
# Poissons Ratio (y) = 0.18113 0.18125
# Poissons Ratio (z) = 0.15648 0.23504
#
# Static dielectric constant tensor:
#      x y z
#    x 3.065330 0.000000 0.000000 
#    y 0.000000 3.595600 0.000000 
#    z 0.000000 0.000000 3.235950 
# 
# 
# High freq. dielectric constant tensor:
#      x y z
#    x 1.681180 0.000000 0.000000 
#    y 0.000000 1.738080 0.000000 
#    z 0.000000 0.000000 1.743080 
# 
# From -- ./inp_files/3116.got.cif
#   From: 2010.03.12/outbox.cif.g09.slc.cpg/sg63_2_cif.got.tgz:3116.got - 2010.04.10 19:34:48.
