data_PCOD8258991
_publ_section_title
;
Structure prediction by ZEFSAII (Michael W. Deem and Ramdas Pophale) SiO2 
 PCOD8258991
Probable space group: C M C M
;
_chemical_formula_sum "Si O2"
_cell_formula_units_Z 88
_cell_length_a 18.205057
_cell_length_b 28.751211
_cell_length_c 8.589545
_cell_angle_alpha 90.000000
_cell_angle_beta 90.000000
_cell_angle_gamma 90.000000
_cell_volume 4495.917612
_symmetry_space_group_name_H-M "C M C M"
_symmetry_group_IT_number 63
_symmetry_cell_setting 'orthorhombic'
loop_
_space_group_symop_operation_xyz
x,y,z
-x,-y,1/2+z
x,-y,-z
-x,y,1/2-z
-x,-y,-z
x,y,1/2-z
-x,y,z
x,-y,1/2+z
1/2+x,1/2+y,z
1/2-x,1/2-y,1/2+z
1/2+x,1/2-y,-z
1/2-x,1/2+y,1/2-z
1/2-x,1/2-y,-z
1/2+x,1/2+y,1/2-z
1/2-x,1/2+y,z
1/2+x,1/2-y,1/2+z
loop_
_atom_site_type_symbol
_atom_site_label
_atom_site_fract_x
_atom_site_fract_y
_atom_site_fract_z
Si Si1 0.084051 0.050481 0.068626
Si Si2 0.000000 0.551692 0.565458
Si Si3 0.187868 0.217953 0.933634
Si Si4 0.208071 0.885728 0.433984
Si Si5 0.137179 0.608281 0.065731
Si Si6 0.919788 0.706172 0.065585
O O1 0.103441 0.050183 0.250000
O O2 0.000000 0.066204 0.039308
O O3 0.137114 0.085083 0.978921
O O4 0.098098 0.000000 0.000000
O O5 0.000000 0.500000 0.500000
O O6 0.073626 0.577183 0.508776
O O7 0.000000 0.550180 0.750000
O O8 0.195044 0.216066 0.750000
O O9 0.192666 0.166034 0.001691
O O10 0.113247 0.244121 0.985926
O O11 0.250000 0.250000 0.000000
O O12 0.217934 0.885713 0.250000
O O13 0.281996 0.907397 0.508833
O O14 0.131570 0.602541 0.250000
O O15 0.127648 0.661826 0.009191
O O16 0.925380 0.703529 0.250000
O O17 0.000000 0.702443 0.988920
#
# Coordination Sequence:
#
# PCOD8258991 Si02
#       6
#    16   8  16  16  16  16
#     4  10  22  42  67  92 120 156 199 248 308 371
#     4  12  26  44  64  90 124 156 202 260 315 370
#     4  10  20  34  55  84 118 158 200 245 293 347
#     4  11  23  37  59  94 130 163 204 253 305 362
#     4  11  21  38  63  88 117 161 208 250 305 364
#     4   9  17  32  56  83 111 152 203 244 288 350
#
# _framework density 19.573312999999999
#
# number of rings (size 3 to 8) (size 9 to 14) (size 15 to 20)
#    0.000    1.636    2.727    2.455    0.000    3.273 
#    0.000    5.455    0.000    0.000    0.000    0.000 
#    0.000    0.000    0.000    0.000    0.000    0.000 
#
# Total GULP energy -545519.675784 kJ/mol
# GULP energy per Si atom -12398.174450 kJ/mol
# Density = 1.952876 g / cm^3
# Si number density = 19.573313 Si / 1000 Ang^3
#
#
#
# Elastic Constant Matrix: (Units=GPa)
#
#
# Indices 1 2 3 4 5 6 
#
# 1 134.3822 68.4318 36.5326 0.0000 0.0000 0.0000
# 2 68.4318 118.2242 37.9738 0.0000 0.0000 0.0000
# 3 36.5326 37.9738 74.5029 0.0000 0.0000 0.0000
# 4 0.0000 0.0000 0.0000 25.1622 0.0000 0.0000
# 5 0.0000 0.0000 0.0000 0.0000 32.6737 0.0000
# 6 0.0000 0.0000 0.0000 0.0000 0.0000 41.5638
#
#
#
# Elastic Compliance Matrix: (Units=1/GPa)
#
#
# Indices 1 2 3 4 5 6 
#
# 1 0.010944 -0.005514 -0.002556 0.000000 0.000000 0.000000
# 2 -0.005514 0.012892 -0.003867 0.000000 0.000000 0.000000
# 3 -0.002556 -0.003867 0.016647 0.000000 0.000000 0.000000
# 4 0.000000 0.000000 0.000000 0.039742 0.000000 0.000000
# 5 0.000000 0.000000 0.000000 0.000000 0.030606 0.000000
# 6 0.000000 0.000000 0.000000 0.000000 0.000000 0.024059
#
#
# Mechanical properties :
#
#
# Convention : Reuss Voigt Hill
#
# Bulk Modulus (GPa) = 60.20963 68.10953 64.15958
# Shear Modulus (GPa) = 30.43185 32.15800 31.29493
#
# Velocity S-wave (km/s) = 3.94733 4.05773 4.00291
# Velocity P-wave (km/s) = 7.18353 7.53832 7.36306
#
# Compressibility (1/GPa) = 0.01660864
#
# Stress axis : x y z
#
# Youngs Moduli (GPa) = 91.37291 77.56580 60.07115
#
# Poissons Ratio (x) = 0.42768 0.15355
# Poissons Ratio (y) = 0.50381 0.23232
# Poissons Ratio (z) = 0.23356 0.29998
#
# Static dielectric constant tensor:
#      x y z
#    x 4.504020 0.000000 0.000000 
#    y 0.000000 1.852360 0.000000 
#    z 0.000000 0.000000 3.421870 
# 
# 
# High freq. dielectric constant tensor:
#      x y z
#    x 1.775730 0.000000 0.000000 
#    y 0.000000 1.764740 0.000000 
#    z 0.000000 0.000000 1.752970 
# 
# From -- ./inp_files/6859.got.cif
#   From: 2010.03.12/outbox.cif.g09.slc.cpg/sg63_4_cif.got.tgz:6859.got - 2010.04.10 19:34:48.
