data_PCOD8258902
_publ_section_title
;
Structure prediction by ZEFSAII (Michael W. Deem and Ramdas Pophale) SiO2 
 PCOD8258902
Probable space group: C M C M
;
_chemical_formula_sum "Si O2"
_cell_formula_units_Z 80
_cell_length_a 9.030223
_cell_length_b 19.494071
_cell_length_c 24.933233
_cell_angle_alpha 90.000000
_cell_angle_beta 90.000000
_cell_angle_gamma 90.000000
_cell_volume 4389.141825
_symmetry_space_group_name_H-M "C M C M"
_symmetry_group_IT_number 63
_symmetry_cell_setting 'orthorhombic'
loop_
_space_group_symop_operation_xyz
x,y,z
-x,-y,1/2+z
x,-y,-z
-x,y,1/2-z
-x,-y,-z
x,y,1/2-z
-x,y,z
x,-y,1/2+z
1/2+x,1/2+y,z
1/2-x,1/2-y,1/2+z
1/2+x,1/2-y,-z
1/2-x,1/2+y,1/2-z
1/2-x,1/2-y,-z
1/2+x,1/2+y,1/2-z
1/2-x,1/2+y,z
1/2+x,1/2-y,1/2+z
loop_
_atom_site_type_symbol
_atom_site_label
_atom_site_fract_x
_atom_site_fract_y
_atom_site_fract_z
Si Si1 0.172543 0.665048 0.107538
Si Si2 0.667778 0.673808 0.613982
Si Si3 0.171227 0.178015 0.004502
Si Si4 0.671376 0.433154 0.812794
Si Si5 0.671618 0.928055 0.311823
O O1 0.204143 0.745576 0.114337
O O2 0.249403 0.636563 0.052734
O O3 0.242140 0.627571 0.158279
O O4 0.000000 0.648450 0.103939
O O5 0.500000 0.661527 0.633928
O O6 0.687280 0.642229 0.553857
O O7 0.780769 0.637451 0.653827
O O8 0.000000 0.188939 0.019157
O O9 0.250000 0.250000 0.000000
O O10 0.696894 0.421931 0.750000
O O11 0.500000 0.430871 0.828732
O O12 0.736025 0.506191 0.831174
O O13 0.704778 0.910911 0.250000
O O14 0.500000 0.943720 0.321541
#
# Coordination Sequence:
#
# PCOD8258902 Si02
#       5
#    16  16  16  16  16
#     4  10  20  34  54  80 108 138 173 214 259 306
#     4   9  19  34  53  78 106 137 171 209 255 304
#     4   9  17  31  51  76 106 138 172 211 258 309
#     4  10  21  37  56  76 102 138 175 213 261 313
#     4  10  21  36  54  76 103 136 173 214 259 307
#
# _framework density 18.226797999999999
#
# number of rings (size 3 to 8) (size 9 to 14) (size 15 to 20)
#    0.000    2.400    0.000    3.600    0.000    8.000 
#    0.000    5.000    0.000    6.000    0.000    0.000 
#    0.000    0.000    0.000    0.000    0.000    0.000 
#
# Total GULP energy -495962.600787 kJ/mol
# GULP energy per Si atom -12399.065020 kJ/mol
# Density = 1.818531 g / cm^3
# Si number density = 18.226798 Si / 1000 Ang^3
#
#
#
# Elastic Constant Matrix: (Units=GPa)
#
#
# Indices 1 2 3 4 5 6 
#
# 1 134.3388 49.4191 64.6503 0.0000 0.0000 0.0000
# 2 49.4191 63.5509 48.8013 0.0000 0.0000 0.0000
# 3 64.6503 48.8013 90.2390 0.0000 0.0000 0.0000
# 4 0.0000 0.0000 0.0000 8.6320 0.0000 0.0000
# 5 0.0000 0.0000 0.0000 0.0000 37.8733 0.0000
# 6 0.0000 0.0000 0.0000 0.0000 0.0000 32.8951
#
#
#
# Elastic Compliance Matrix: (Units=1/GPa)
#
#
# Indices 1 2 3 4 5 6 
#
# 1 0.012136 -0.004721 -0.006142 0.000000 0.000000 0.000000
# 2 -0.004721 0.028748 -0.012164 0.000000 0.000000 0.000000
# 3 -0.006142 -0.012164 0.022060 0.000000 0.000000 0.000000
# 4 0.000000 0.000000 0.000000 0.115848 0.000000 0.000000
# 5 0.000000 0.000000 0.000000 0.000000 0.026404 0.000000
# 6 0.000000 0.000000 0.000000 0.000000 0.000000 0.030400
#
#
# Mechanical properties :
#
#
# Convention : Reuss Voigt Hill
#
# Bulk Modulus (GPa) = 59.20692 68.20779 63.70736
# Shear Modulus (GPa) = 17.40460 24.23062 20.81761
#
# Velocity S-wave (km/s) = 3.09348 3.65004 3.38323
# Velocity P-wave (km/s) = 6.73153 7.43416 7.09155
#
# Compressibility (1/GPa) = 0.01688992
#
# Stress axis : x y z
#
# Youngs Moduli (GPa) = 82.39715 34.78491 45.33052
#
# Poissons Ratio (x) = 0.16423 0.27840
# Poissons Ratio (y) = 0.38903 0.55142
# Poissons Ratio (z) = 0.50605 0.42314
#
# Static dielectric constant tensor:
#      x y z
#    x 3.561620 0.000000 0.000000 
#    y 0.000000 3.045790 0.000000 
#    z 0.000000 0.000000 3.604260 
# 
# 
# High freq. dielectric constant tensor:
#      x y z
#    x 1.723940 0.000000 0.000000 
#    y 0.000000 1.675500 0.000000 
#    z 0.000000 0.000000 1.714770 
# 
# From -- ./inp_files/66593.got.cif
#   From: 2010.03.12/outbox.cif.g09.slc.cpg/sg63_34_cif.got.tgz:66593.got - 2010.04.10 19:34:48.
