data_PCOD8258129
_publ_section_title
;
Structure prediction by ZEFSAII (Michael W. Deem and Ramdas Pophale) SiO2 
 PCOD8258129
Probable space group: C M C M
;
_chemical_formula_sum "Si O2"
_cell_formula_units_Z 96
_cell_length_a 13.378569
_cell_length_b 20.272528
_cell_length_c 17.844837
_cell_angle_alpha 90.000000
_cell_angle_beta 90.000000
_cell_angle_gamma 90.000000
_cell_volume 4839.830556
_symmetry_space_group_name_H-M "C M C M"
_symmetry_group_IT_number 63
_symmetry_cell_setting 'orthorhombic'
loop_
_space_group_symop_operation_xyz
x,y,z
-x,-y,1/2+z
x,-y,-z
-x,y,1/2-z
-x,-y,-z
x,y,1/2-z
-x,y,z
x,-y,1/2+z
1/2+x,1/2+y,z
1/2-x,1/2-y,1/2+z
1/2+x,1/2-y,-z
1/2-x,1/2+y,1/2-z
1/2-x,1/2-y,-z
1/2+x,1/2+y,1/2-z
1/2-x,1/2+y,z
1/2+x,1/2-y,1/2+z
loop_
_atom_site_type_symbol
_atom_site_label
_atom_site_fract_x
_atom_site_fract_y
_atom_site_fract_z
Si Si1 0.762730 0.597661 0.337558
Si Si2 0.108154 0.005200 0.664393
Si Si3 0.386401 0.656788 0.665313
Si Si4 0.783607 0.303478 0.440683
Si Si5 0.888701 0.784637 0.665307
Si Si6 0.616642 0.924319 0.522408
O O1 0.793900 0.589501 0.250000
O O2 0.694255 0.538926 0.371324
O O3 0.698422 0.663092 0.351100
O O4 0.860429 0.592831 0.390079
O O5 0.097710 0.981741 0.750000
O O6 0.140807 0.080312 0.660183
O O7 0.000000 0.994386 0.624751
O O8 0.370872 0.682425 0.750000
O O9 0.500000 0.669890 0.639816
O O10 0.313901 0.694631 0.610922
O O11 0.750000 0.250000 0.500000
O O12 0.875300 0.276747 0.390680
O O13 0.815886 0.374350 0.473219
O O14 0.879581 0.758352 0.750000
O O15 0.000000 0.815138 0.652375
O O16 0.500000 0.910045 0.508694
O O17 0.642137 0.000000 0.500000
#
# Coordination Sequence:
#
# PCOD8258129 Si02
#       6
#    16  16  16  16  16  16
#     4  10  19  36  61  89 119 158 204 251 305 368
#     4   8  14  28  54  86 116 143 178 233 296 354
#     4   9  19  36  59  88 117 148 191 242 299 363
#     4  12  23  40  60  85 121 162 203 253 306 369
#     4  10  21  38  61  89 119 154 202 256 310 368
#     4  11  25  44  62  86 125 169 212 259 309 364
#
# _framework density 19.835405000000002
#
# number of rings (size 3 to 8) (size 9 to 14) (size 15 to 20)
#    0.000    2.000    1.667    3.500    0.000    3.667 
#    0.000    0.833    0.000    5.500    0.000    0.000 
#    0.000    0.000    0.000    0.000    0.000    0.000 
#
# Total GULP energy -594895.492514 kJ/mol
# GULP energy per Si atom -12393.656094 kJ/mol
# Density = 1.979026 g / cm^3
# Si number density = 19.835405 Si / 1000 Ang^3
#
#
#
# Elastic Constant Matrix: (Units=GPa)
#
#
# Indices 1 2 3 4 5 6 
#
# 1 89.5110 42.9788 50.5553 0.0000 0.0000 0.0000
# 2 42.9788 88.8200 48.0200 0.0000 0.0000 0.0000
# 3 50.5553 48.0200 99.5058 0.0000 0.0000 0.0000
# 4 0.0000 0.0000 0.0000 31.6606 0.0000 0.0000
# 5 0.0000 0.0000 0.0000 0.0000 28.2406 0.0000
# 6 0.0000 0.0000 0.0000 0.0000 0.0000 23.7483
#
#
#
# Elastic Compliance Matrix: (Units=1/GPa)
#
#
# Indices 1 2 3 4 5 6 
#
# 1 0.017075 -0.004833 -0.006343 0.000000 0.000000 0.000000
# 2 -0.004833 0.016601 -0.005556 0.000000 0.000000 0.000000
# 3 -0.006343 -0.005556 0.015953 0.000000 0.000000 0.000000
# 4 0.000000 0.000000 0.000000 0.031585 0.000000 0.000000
# 5 0.000000 0.000000 0.000000 0.000000 0.035410 0.000000
# 6 0.000000 0.000000 0.000000 0.000000 0.000000 0.042108
#
#
# Mechanical properties :
#
#
# Convention : Reuss Voigt Hill
#
# Bulk Modulus (GPa) = 61.85890 62.32723 62.09306
# Shear Modulus (GPa) = 25.30560 25.81541 25.56051
#
# Velocity S-wave (km/s) = 3.57568 3.61152 3.59364
# Velocity P-wave (km/s) = 6.94990 6.99151 6.97074
#
# Compressibility (1/GPa) = 0.01616582
#
# Stress axis : x y z
#
# Youngs Moduli (GPa) = 58.56601 60.23666 62.68256
#
# Poissons Ratio (x) = 0.29113 0.39758
# Poissons Ratio (y) = 0.28305 0.34826
# Poissons Ratio (z) = 0.37147 0.33467
#
# Static dielectric constant tensor:
#      x y z
#    x 3.619460 0.000000 0.000000 
#    y 0.000000 3.567230 0.000000 
#    z 0.000000 0.000000 3.558510 
# 
# 
# High freq. dielectric constant tensor:
#      x y z
#    x 1.772400 0.000000 0.000000 
#    y 0.000000 1.772460 0.000000 
#    z 0.000000 0.000000 1.763920 
# 
# From -- ./inp_files/31889.got.cif
#   From: 2010.03.12/outbox.cif.g09.slc.cpg/sg63_16_cif.got.tgz:31889.got - 2010.04.10 19:34:48.
