data_PCOD8258766
_publ_section_title
;
Structure prediction by ZEFSAII (Michael W. Deem and Ramdas Pophale) SiO2 
 PCOD8258766
Probable space group: C M C M
;
_chemical_formula_sum "Si O2"
_cell_formula_units_Z 80
_cell_length_a 22.083445
_cell_length_b 19.405778
_cell_length_c 8.698472
_cell_angle_alpha 90.000000
_cell_angle_beta 90.000000
_cell_angle_gamma 90.000000
_cell_volume 3727.699132
_symmetry_space_group_name_H-M "C M C M"
_symmetry_group_IT_number 63
_symmetry_cell_setting 'orthorhombic'
loop_
_space_group_symop_operation_xyz
x,y,z
-x,-y,1/2+z
x,-y,-z
-x,y,1/2-z
-x,-y,-z
x,y,1/2-z
-x,y,z
x,-y,1/2+z
1/2+x,1/2+y,z
1/2-x,1/2-y,1/2+z
1/2+x,1/2-y,-z
1/2-x,1/2+y,1/2-z
1/2-x,1/2-y,-z
1/2+x,1/2+y,1/2-z
1/2-x,1/2+y,z
1/2+x,1/2-y,1/2+z
loop_
_atom_site_type_symbol
_atom_site_label
_atom_site_fract_x
_atom_site_fract_y
_atom_site_fract_z
Si Si1 0.359672 0.173313 0.428853
Si Si2 0.739583 0.074089 0.567991
Si Si3 0.568587 0.290232 0.927954
Si Si4 0.569969 0.934339 0.418842
Si Si5 0.367926 0.570508 0.072122
O O1 0.344720 0.174222 0.250000
O O2 0.304214 0.136712 0.516548
O O3 0.377633 0.249928 0.483435
O O4 0.419991 0.130441 0.470637
O O5 0.739310 0.069016 0.750000
O O6 0.806266 0.093403 0.510735
O O7 0.718978 0.000000 0.500000
O O8 0.572520 0.268691 0.750000
O O9 0.500000 0.275618 0.988983
O O10 0.581574 0.371061 0.950787
O O11 0.600233 0.923815 0.250000
O O12 0.500000 0.947476 0.395967
O O13 0.600909 0.000000 0.500000
O O14 0.352882 0.557965 0.250000
O O15 0.393845 0.500000 0.000000
#
# Coordination Sequence:
#
# PCOD8258766 Si02
#       5
#    16  16  16  16  16
#     4  12  24  37  56  84 119 157 199 246 296 352
#     4  11  22  39  63  90 123 161 202 248 298 355
#     4  10  23  43  64  88 121 161 202 245 297 356
#     4  10  20  34  52  75 107 149 197 246 294 346
#     4  10  21  40  66  94 123 154 194 246 301 359
#
# _framework density 21.460961000000001
#
# number of rings (size 3 to 8) (size 9 to 14) (size 15 to 20)
#    0.000    1.400    0.000    7.200    0.000    6.800 
#    0.000    0.000    0.000    0.000    0.000    0.000 
#    0.000    0.000    0.000    0.000    0.000    0.000 
#
# Total GULP energy -495838.999545 kJ/mol
# GULP energy per Si atom -12395.974989 kJ/mol
# Density = 2.141211 g / cm^3
# Si number density = 21.460961 Si / 1000 Ang^3
#
#
#
# Elastic Constant Matrix: (Units=GPa)
#
#
# Indices 1 2 3 4 5 6 
#
# 1 67.5341 24.4021 27.7367 0.0000 0.0000 0.0000
# 2 24.4021 104.8010 45.2953 0.0000 0.0000 0.0000
# 3 27.7367 45.2953 153.5979 0.0000 0.0000 0.0000
# 4 0.0000 0.0000 0.0000 33.6333 0.0000 0.0000
# 5 0.0000 0.0000 0.0000 0.0000 20.0619 0.0000
# 6 0.0000 0.0000 0.0000 0.0000 0.0000 35.0595
#
#
#
# Elastic Compliance Matrix: (Units=1/GPa)
#
#
# Indices 1 2 3 4 5 6 
#
# 1 0.016765 -0.002974 -0.002150 0.000000 0.000000 0.000000
# 2 -0.002974 0.011463 -0.002843 0.000000 0.000000 0.000000
# 3 -0.002150 -0.002843 0.007737 0.000000 0.000000 0.000000
# 4 0.000000 0.000000 0.000000 0.029732 0.000000 0.000000
# 5 0.000000 0.000000 0.000000 0.000000 0.049846 0.000000
# 6 0.000000 0.000000 0.000000 0.000000 0.000000 0.028523
#
#
# Mechanical properties :
#
#
# Convention : Reuss Voigt Hill
#
# Bulk Modulus (GPa) = 49.92551 57.86679 53.89615
# Shear Modulus (GPa) = 29.99768 32.98420 31.49094
#
# Velocity S-wave (km/s) = 3.74274 3.92464 3.83477
# Velocity P-wave (km/s) = 6.48008 6.89633 6.69144
#
# Compressibility (1/GPa) = 0.02002984
#
# Stress axis : x y z
#
# Youngs Moduli (GPa) = 59.64736 87.23446 129.24366
#
# Poissons Ratio (x) = 0.25946 0.27792
# Poissons Ratio (y) = 0.17741 0.36749
# Poissons Ratio (z) = 0.12826 0.24804
#
# Static dielectric constant tensor:
#      x y z
#    x 3.717290 0.000000 0.000000 
#    y 0.000000 3.948900 0.000000 
#    z 0.000000 0.000000 4.217520 
# 
# 
# High freq. dielectric constant tensor:
#      x y z
#    x 1.837040 0.000000 0.000000 
#    y 0.000000 1.841960 0.000000 
#    z 0.000000 0.000000 1.849860 
# 
# From -- ./inp_files/12019.got.cif
#   From: 2010.03.12/outbox.cif.g09.slc.cpg/sg63_7_cif.got.tgz:12019.got - 2010.04.10 19:34:48.
