data_PCOD8258034
_publ_section_title
;
Structure prediction by ZEFSAII (Michael W. Deem and Ramdas Pophale) SiO2 
 PCOD8258034
Probable space group: C M C M
;
_chemical_formula_sum "Si O2"
_cell_formula_units_Z 112
_cell_length_a 18.131754
_cell_length_b 15.230502
_cell_length_c 21.432637
_cell_angle_alpha 90.000000
_cell_angle_beta 90.000000
_cell_angle_gamma 90.000000
_cell_volume 5918.745207
_symmetry_space_group_name_H-M "C M C M"
_symmetry_group_IT_number 63
_symmetry_cell_setting 'orthorhombic'
loop_
_space_group_symop_operation_xyz
x,y,z
-x,-y,1/2+z
x,-y,-z
-x,y,1/2-z
-x,-y,-z
x,y,1/2-z
-x,y,z
x,-y,1/2+z
1/2+x,1/2+y,z
1/2-x,1/2-y,1/2+z
1/2+x,1/2-y,-z
1/2-x,1/2+y,1/2-z
1/2-x,1/2-y,-z
1/2+x,1/2+y,1/2-z
1/2-x,1/2+y,z
1/2+x,1/2-y,1/2+z
loop_
_atom_site_type_symbol
_atom_site_label
_atom_site_fract_x
_atom_site_fract_y
_atom_site_fract_z
Si Si1 0.413423 0.484969 0.928480
Si Si2 0.413641 0.964950 0.596777
Si Si3 0.205224 0.395265 0.820212
Si Si4 0.084619 0.627841 0.522678
Si Si5 0.313253 0.445500 0.177502
Si Si6 0.220504 0.725015 0.676687
Si Si7 0.084903 0.215215 0.397543
O O1 0.500000 0.504966 0.925726
O O2 0.376970 0.548675 0.875806
O O3 0.394885 0.384964 0.910477
O O4 0.384777 0.500000 0.000000
O O5 0.500000 0.956344 0.611063
O O6 0.371225 0.935901 0.657802
O O7 0.381334 0.898499 0.543693
O O8 0.387990 0.063601 0.578307
O O9 0.188897 0.371111 0.750000
O O10 0.270949 0.463651 0.827721
O O11 0.229769 0.303693 0.852498
O O12 0.096840 0.730007 0.538149
O O13 0.000000 0.602059 0.514452
O O14 0.342588 0.433354 0.250000
O O15 0.258510 0.366659 0.158194
O O16 0.212609 0.733082 0.750000
O O17 0.137224 0.737407 0.652252
O O18 0.000000 0.224735 0.374665
#
# Coordination Sequence:
#
# PCOD8258034 Si02
#       7
#    16  16  16  16  16  16  16
#     4  10  22  40  60  86 120 154 195 250 296 336
#     4   9  17  32  52  75 108 148 183 221 277 342
#     4  10  20  35  52  76 109 141 182 232 279 330
#     4   8  16  31  51  77 106 135 175 229 282 332
#     4  10  21  40  60  80 116 157 189 236 301 359
#     4  10  21  37  56  82 114 147 188 240 292 343
#     4  10  19  35  59  84 111 146 191 242 295 345
#
# _framework density 18.922930000000001
#
# number of rings (size 3 to 8) (size 9 to 14) (size 15 to 20)
#    0.000    2.429    1.429    1.714    0.000    2.000 
#    5.143    5.000    0.000    7.714    0.000    0.000 
#    0.000    0.000    0.000    0.000    0.000    0.000 
#
# Total GULP energy -693765.856742 kJ/mol
# GULP energy per Si atom -12388.676013 kJ/mol
# Density = 1.887986 g / cm^3
# Si number density = 18.922930 Si / 1000 Ang^3
#
#
#
# Elastic Constant Matrix: (Units=GPa)
#
#
# Indices 1 2 3 4 5 6 
#
# 1 70.5324 27.6374 50.5705 0.0000 0.0000 0.0000
# 2 27.6374 93.1294 34.2024 0.0000 0.0000 0.0000
# 3 50.5705 34.2024 75.9275 0.0000 0.0000 0.0000
# 4 0.0000 0.0000 0.0000 24.8144 0.0000 0.0000
# 5 0.0000 0.0000 0.0000 0.0000 29.9641 0.0000
# 6 0.0000 0.0000 0.0000 0.0000 0.0000 28.3262
#
#
#
# Elastic Compliance Matrix: (Units=1/GPa)
#
#
# Indices 1 2 3 4 5 6 
#
# 1 0.027362 -0.001710 -0.017454 0.000000 0.000000 0.000000
# 2 -0.001710 0.012973 -0.004705 0.000000 0.000000 0.000000
# 3 -0.017454 -0.004705 0.026915 0.000000 0.000000 0.000000
# 4 0.000000 0.000000 0.000000 0.040299 0.000000 0.000000
# 5 0.000000 0.000000 0.000000 0.000000 0.033373 0.000000
# 6 0.000000 0.000000 0.000000 0.000000 0.000000 0.035303
#
#
# Mechanical properties :
#
#
# Convention : Reuss Voigt Hill
#
# Bulk Modulus (GPa) = 51.24967 51.60109 51.42538
# Shear Modulus (GPa) = 21.69506 25.09955 23.39730
#
# Velocity S-wave (km/s) = 3.38967 3.64594 3.52014
# Velocity P-wave (km/s) = 6.51628 6.71209 6.61491
#
# Compressibility (1/GPa) = 0.01951232
#
# Stress axis : x y z
#
# Youngs Moduli (GPa) = 36.54694 77.08229 37.15429
#
# Poissons Ratio (x) = 0.13181 0.64849
# Poissons Ratio (y) = 0.06250 0.17481
# Poissons Ratio (z) = 0.63789 0.36267
#
# Static dielectric constant tensor:
#      x y z
#    x 3.273470 0.000000 0.000000 
#    y 0.000000 3.689760 0.000000 
#    z 0.000000 0.000000 3.467800 
# 
# 
# High freq. dielectric constant tensor:
#      x y z
#    x 1.717610 0.000000 0.000000 
#    y 0.000000 1.746330 0.000000 
#    z 0.000000 0.000000 1.724790 
# 
# From -- ./inp_files/62951.got.cif
#   From: 2010.03.12/outbox.cif.g09.slc.cpg/sg63_32_cif.got.tgz:62951.got - 2010.04.10 19:34:48.
