data_PCOD8258022
_publ_section_title
;
Structure prediction by ZEFSAII (Michael W. Deem and Ramdas Pophale) SiO2 
 PCOD8258022
Probable space group: C M C M
;
_chemical_formula_sum "Si O2"
_cell_formula_units_Z 112
_cell_length_a 13.688515
_cell_length_b 14.763221
_cell_length_c 27.782271
_cell_angle_alpha 90.000000
_cell_angle_beta 90.000000
_cell_angle_gamma 90.000000
_cell_volume 5614.423912
_symmetry_space_group_name_H-M "C M C M"
_symmetry_group_IT_number 63
_symmetry_cell_setting 'orthorhombic'
loop_
_space_group_symop_operation_xyz
x,y,z
-x,-y,1/2+z
x,-y,-z
-x,y,1/2-z
-x,-y,-z
x,y,1/2-z
-x,y,z
x,-y,1/2+z
1/2+x,1/2+y,z
1/2-x,1/2-y,1/2+z
1/2+x,1/2-y,-z
1/2-x,1/2+y,1/2-z
1/2-x,1/2-y,-z
1/2+x,1/2+y,1/2-z
1/2-x,1/2+y,z
1/2+x,1/2-y,1/2+z
loop_
_atom_site_type_symbol
_atom_site_label
_atom_site_fract_x
_atom_site_fract_y
_atom_site_fract_z
Si Si1 0.211932 0.788272 0.804595
Si Si2 0.107199 0.279173 0.864544
Si Si3 0.745996 0.270708 0.056190
Si Si4 0.893401 0.479396 0.615473
Si Si5 0.114605 0.602430 0.697882
Si Si6 0.883905 0.132654 0.108635
Si Si7 0.724381 0.483030 0.445153
O O1 0.224024 0.824092 0.750000
O O2 0.315310 0.747485 0.824106
O O3 0.134035 0.708160 0.808269
O O4 0.168089 0.867450 0.838699
O O5 0.146269 0.263508 0.918890
O O6 0.095128 0.385646 0.856879
O O7 0.000000 0.232506 0.858049
O O8 0.839066 0.218947 0.079500
O O9 0.742205 0.377896 0.066333
O O10 0.750000 0.250000 0.000000
O O11 0.839712 0.546339 0.653645
O O12 0.826259 0.468303 0.568339
O O13 0.000000 0.515215 0.598865
O O14 0.156623 0.570156 0.750000
O O15 0.000000 0.584672 0.696504
O O16 0.000000 0.144738 0.111813
O O17 0.860478 0.034453 0.085043
O O18 0.697837 0.500000 0.500000
#
# Coordination Sequence:
#
# PCOD8258022 Si02
#       7
#    16  16  16  16  16  16  16
#     4  10  20  38  62  89 123 163 206 261 319 373
#     4  10  21  37  58  87 123 161 202 250 312 378
#     4  11  22  42  64  91 127 167 211 265 320 374
#     4  10  19  35  58  86 118 153 198 251 309 373
#     4   9  18  33  58  91 120 151 199 259 318 376
#     4  11  24  43  65  95 129 171 219 262 317 387
#     4  12  23  41  64  88 128 165 212 263 319 382
#
# _framework density 19.948618
#
# number of rings (size 3 to 8) (size 9 to 14) (size 15 to 20)
#    0.000    1.571    4.286    2.143    0.000    5.143 
#    0.000    1.429    0.000    0.000    0.000    4.000 
#    0.000    0.000    0.000    0.000    0.000    0.000 
#
# Total GULP energy -693879.879957 kJ/mol
# GULP energy per Si atom -12390.712142 kJ/mol
# Density = 1.990321 g / cm^3
# Si number density = 19.948618 Si / 1000 Ang^3
#
#
#
# Elastic Constant Matrix: (Units=GPa)
#
#
# Indices 1 2 3 4 5 6 
#
# 1 120.6862 11.7986 47.8625 0.0000 0.0000 0.0000
# 2 11.7986 78.9230 20.5779 0.0000 0.0000 0.0000
# 3 47.8625 20.5779 143.4661 0.0000 0.0000 0.0000
# 4 0.0000 0.0000 0.0000 18.0951 0.0000 0.0000
# 5 0.0000 0.0000 0.0000 0.0000 17.5806 0.0000
# 6 0.0000 0.0000 0.0000 0.0000 0.0000 25.9740
#
#
#
# Elastic Compliance Matrix: (Units=1/GPa)
#
#
# Indices 1 2 3 4 5 6 
#
# 1 0.009579 -0.000622 -0.003106 0.000000 0.000000 0.000000
# 2 -0.000622 0.013203 -0.001686 0.000000 0.000000 0.000000
# 3 -0.003106 -0.001686 0.008248 0.000000 0.000000 0.000000
# 4 0.000000 0.000000 0.000000 0.055264 0.000000 0.000000
# 5 0.000000 0.000000 0.000000 0.000000 0.056881 0.000000
# 6 0.000000 0.000000 0.000000 0.000000 0.000000 0.038500
#
#
# Mechanical properties :
#
#
# Convention : Reuss Voigt Hill
#
# Bulk Modulus (GPa) = 49.50235 55.95038 52.72636
# Shear Modulus (GPa) = 25.09562 29.85237 27.47399
#
# Velocity S-wave (km/s) = 3.55070 3.87261 3.71514
# Velocity P-wave (km/s) = 6.45591 6.93573 6.70011
#
# Compressibility (1/GPa) = 0.02020106
#
# Stress axis : x y z
#
# Youngs Moduli (GPa) = 104.39816 75.73902 121.23428
#
# Poissons Ratio (x) = 0.04711 0.37660
# Poissons Ratio (y) = 0.06494 0.20443
# Poissons Ratio (z) = 0.32430 0.12772
#
# Static dielectric constant tensor:
#      x y z
#    x 3.727030 0.000000 0.000000 
#    y 0.000000 3.673270 0.000000 
#    z 0.000000 0.000000 3.858590 
# 
# 
# High freq. dielectric constant tensor:
#      x y z
#    x 1.769960 0.000000 0.000000 
#    y 0.000000 1.769350 0.000000 
#    z 0.000000 0.000000 1.781670 
# 
# From -- ./inp_files/69408.got.cif
#   From: 2010.03.12/outbox.cif.g09.slc.cpg/sg63_35_cif.got.tgz:69408.got - 2010.04.10 19:34:48.
