data_PCOD8258025
_publ_section_title
;
Structure prediction by ZEFSAII (Michael W. Deem and Ramdas Pophale) SiO2 
 PCOD8258025
Probable space group: C M C M
;
_chemical_formula_sum "Si O2"
_cell_formula_units_Z 80
_cell_length_a 22.388077
_cell_length_b 11.019351
_cell_length_c 17.199159
_cell_angle_alpha 90.000000
_cell_angle_beta 90.000000
_cell_angle_gamma 90.000000
_cell_volume 4243.068277
_symmetry_space_group_name_H-M "C M C M"
_symmetry_group_IT_number 63
_symmetry_cell_setting 'orthorhombic'
loop_
_space_group_symop_operation_xyz
x,y,z
-x,-y,1/2+z
x,-y,-z
-x,y,1/2-z
-x,-y,-z
x,y,1/2-z
-x,y,z
x,-y,1/2+z
1/2+x,1/2+y,z
1/2-x,1/2-y,1/2+z
1/2+x,1/2-y,-z
1/2-x,1/2+y,1/2-z
1/2-x,1/2-y,-z
1/2+x,1/2+y,1/2-z
1/2-x,1/2+y,z
1/2+x,1/2-y,1/2+z
loop_
_atom_site_type_symbol
_atom_site_label
_atom_site_fract_x
_atom_site_fract_y
_atom_site_fract_z
Si Si1 0.500000 0.754232 0.835476
Si Si2 0.623286 0.348140 0.158615
Si Si3 0.000000 0.481278 0.118786
Si Si4 0.893612 0.500000 0.000000
Si Si5 0.500000 0.713814 0.337965
Si Si6 0.100192 0.077815 0.071198
Si Si7 0.318845 0.757061 0.980647
O O1 0.500000 0.696680 0.750000
O O2 0.559881 0.703279 0.875517
O O3 0.500000 0.899341 0.828384
O O4 0.632892 0.324173 0.250000
O O5 0.625906 0.490419 0.138784
O O6 0.673799 0.276663 0.110622
O O7 0.000000 0.359269 0.169096
O O8 0.061889 0.485528 0.072053
O O9 0.849452 0.386056 0.995561
O O10 0.500000 0.660777 0.250000
O O11 0.444166 0.669591 0.387343
O O12 0.153445 0.154916 0.035557
O O13 0.070863 0.000000 0.000000
O O14 0.250000 0.750000 0.000000
#
# Coordination Sequence:
#
# PCOD8258025 Si02
#       7
#     8  16   8   8   8  16  16
#     4  10  19  35  58  87 121 154 190 239 306 369
#     4  10  21  39  62  90 120 155 198 250 304 359
#     4  11  21  37  58  92 124 155 195 251 307 371
#     4  11  22  38  66  88 122 157 206 254 298 353
#     4  12  22  36  57  90 128 157 189 247 317 366
#     4  10  22  38  60  88 116 155 202 247 297 362
#     4  11  24  41  65  87 116 162 211 248 295 359
#
# _framework density 18.854281
#
# number of rings (size 3 to 8) (size 9 to 14) (size 15 to 20)
#    0.000    1.400    4.000    1.800    4.200    3.200 
#    0.000    2.000    0.000    0.000    0.000    0.000 
#    0.000    0.000    0.000    0.000    0.000    0.000 
#
# Total GULP energy -495761.674924 kJ/mol
# GULP energy per Si atom -12394.041873 kJ/mol
# Density = 1.881137 g / cm^3
# Si number density = 18.854281 Si / 1000 Ang^3
#
#
#
# Elastic Constant Matrix: (Units=GPa)
#
#
# Indices 1 2 3 4 5 6 
#
# 1 138.2913 53.1381 61.8013 0.0000 0.0000 0.0000
# 2 53.1381 132.9102 37.7705 0.0000 0.0000 0.0000
# 3 61.8013 37.7705 108.2224 0.0000 0.0000 0.0000
# 4 0.0000 0.0000 0.0000 28.4666 0.0000 0.0000
# 5 0.0000 0.0000 0.0000 0.0000 18.3582 0.0000
# 6 0.0000 0.0000 0.0000 0.0000 0.0000 14.0851
#
#
#
# Elastic Compliance Matrix: (Units=1/GPa)
#
#
# Indices 1 2 3 4 5 6 
#
# 1 0.010562 -0.002785 -0.005060 0.000000 0.000000 0.000000
# 2 -0.002785 0.009087 -0.001581 0.000000 0.000000 0.000000
# 3 -0.005060 -0.001581 0.012681 0.000000 0.000000 0.000000
# 4 0.000000 0.000000 0.000000 0.035129 0.000000 0.000000
# 5 0.000000 0.000000 0.000000 0.000000 0.054472 0.000000
# 6 0.000000 0.000000 0.000000 0.000000 0.000000 0.070997
#
#
# Mechanical properties :
#
#
# Convention : Reuss Voigt Hill
#
# Bulk Modulus (GPa) = 74.18910 76.09375 75.14142
# Shear Modulus (GPa) = 23.11901 27.29624 25.20762
#
# Velocity S-wave (km/s) = 3.50550 3.80906 3.66043
# Velocity P-wave (km/s) = 7.47120 7.73251 7.60298
#
# Compressibility (1/GPa) = 0.01347907
#
# Stress axis : x y z
#
# Youngs Moduli (GPa) = 94.67523 110.05215 78.85563
#
# Poissons Ratio (x) = 0.30650 0.39899
# Poissons Ratio (y) = 0.26367 0.12466
# Poissons Ratio (z) = 0.47903 0.17398
#
# Static dielectric constant tensor:
#      x y z
#    x 3.280720 0.000000 0.000000 
#    y 0.000000 3.677440 0.000000 
#    z 0.000000 0.000000 3.383130 
# 
# 
# High freq. dielectric constant tensor:
#      x y z
#    x 1.712080 0.000000 0.000000 
#    y 0.000000 1.752090 0.000000 
#    z 0.000000 0.000000 1.731590 
# 
# From -- ./inp_files/46872.got.cif
#   From: 2010.03.12/outbox.cif.g09.slc.cpg/sg63_24_cif.got.tgz:46872.got - 2010.04.10 19:34:48.
