data_PCOD8258630
_publ_section_title
;
Structure prediction by ZEFSAII (Michael W. Deem and Ramdas Pophale) SiO2 
 PCOD8258630
Probable space group: C M C M
;
_chemical_formula_sum "Si O2"
_cell_formula_units_Z 96
_cell_length_a 8.897170
_cell_length_b 27.176837
_cell_length_c 19.070767
_cell_angle_alpha 90.000000
_cell_angle_beta 90.000000
_cell_angle_gamma 90.000000
_cell_volume 4611.253082
_symmetry_space_group_name_H-M "C M C M"
_symmetry_group_IT_number 63
_symmetry_cell_setting 'orthorhombic'
loop_
_space_group_symop_operation_xyz
x,y,z
-x,-y,1/2+z
x,-y,-z
-x,y,1/2-z
-x,-y,-z
x,y,1/2-z
-x,y,z
x,-y,1/2+z
1/2+x,1/2+y,z
1/2-x,1/2-y,1/2+z
1/2+x,1/2-y,-z
1/2-x,1/2+y,1/2-z
1/2-x,1/2-y,-z
1/2+x,1/2+y,1/2-z
1/2-x,1/2+y,z
1/2+x,1/2-y,1/2+z
loop_
_atom_site_type_symbol
_atom_site_label
_atom_site_fract_x
_atom_site_fract_y
_atom_site_fract_z
Si Si1 0.322939 0.807161 0.589017
Si Si2 0.676839 0.651116 0.959137
Si Si3 0.327502 0.048883 0.539797
Si Si4 0.328842 0.991879 0.671862
Si Si5 0.329093 0.606510 0.332458
Si Si6 0.177846 0.788375 0.171164
O O1 0.500000 0.803271 0.578014
O O2 0.246356 0.808893 0.512442
O O3 0.282473 0.856230 0.630591
O O4 0.261006 0.761267 0.634386
O O5 0.500000 0.653067 0.968286
O O6 0.732063 0.596682 0.979754
O O7 0.723810 0.666000 0.879483
O O8 0.500000 0.059449 0.519081
O O9 0.269462 0.000000 0.500000
O O10 0.307305 0.039167 0.622625
O O11 0.285958 0.009106 0.750000
O O12 0.500000 0.972399 0.667877
O O13 0.221114 0.948213 0.645990
O O14 0.312440 0.613819 0.250000
O O15 0.500000 0.614971 0.357725
O O16 0.246854 0.794682 0.250000
O O17 0.000000 0.784870 0.177763
#
# Coordination Sequence:
#
# PCOD8258630 Si02
#       6
#    16  16  16  16  16  16
#     4  11  21  36  60  84 112 152 193 231 275 336
#     4  11  23  38  59  86 116 147 184 237 291 337
#     4  10  21  37  56  79 109 147 191 234 276 330
#     4   9  18  33  53  77 108 148 191 233 281 340
#     4  10  20  33  52  83 120 151 186 238 292 338
#     4   9  20  39  61  86 115 149 189 229 275 337
#
# _framework density 20.818635
#
# number of rings (size 3 to 8) (size 9 to 14) (size 15 to 20)
#    0.000    2.000    0.000    3.500    0.000    4.667 
#    0.000    2.500    0.000    5.500    0.000    0.000 
#    0.000    0.000    0.000    0.000    0.000    0.000 
#
# Total GULP energy -595168.937304 kJ/mol
# GULP energy per Si atom -12399.352860 kJ/mol
# Density = 2.077125 g / cm^3
# Si number density = 20.818635 Si / 1000 Ang^3
#
#
#
# Elastic Constant Matrix: (Units=GPa)
#
#
# Indices 1 2 3 4 5 6 
#
# 1 66.0420 28.9145 30.7484 0.0000 0.0000 0.0000
# 2 28.9145 86.6051 53.0061 0.0000 0.0000 0.0000
# 3 30.7484 53.0061 106.3636 0.0000 0.0000 0.0000
# 4 0.0000 0.0000 0.0000 34.6068 0.0000 0.0000
# 5 0.0000 0.0000 0.0000 0.0000 26.5878 0.0000
# 6 0.0000 0.0000 0.0000 0.0000 0.0000 11.0688
#
#
#
# Elastic Compliance Matrix: (Units=1/GPa)
#
#
# Indices 1 2 3 4 5 6 
#
# 1 0.018490 -0.004175 -0.003265 0.000000 0.000000 0.000000
# 2 -0.004175 0.017557 -0.007542 0.000000 0.000000 0.000000
# 3 -0.003265 -0.007542 0.014104 0.000000 0.000000 0.000000
# 4 0.000000 0.000000 0.000000 0.028896 0.000000 0.000000
# 5 0.000000 0.000000 0.000000 0.000000 0.037611 0.000000
# 6 0.000000 0.000000 0.000000 0.000000 0.000000 0.090344
#
#
# Mechanical properties :
#
#
# Convention : Reuss Voigt Hill
#
# Bulk Modulus (GPa) = 49.53750 53.81650 51.67700
# Shear Modulus (GPa) = 20.51741 24.20879 22.36310
#
# Velocity S-wave (km/s) = 3.14272 3.41375 3.28103
# Velocity P-wave (km/s) = 6.08403 6.43774 6.26338
#
# Compressibility (1/GPa) = 0.02018673
#
# Stress axis : x y z
#
# Youngs Moduli (GPa) = 54.08406 56.95759 70.90072
#
# Poissons Ratio (x) = 0.23780 0.23146
# Poissons Ratio (y) = 0.22581 0.53477
# Poissons Ratio (z) = 0.17656 0.42960
#
# Static dielectric constant tensor:
#      x y z
#    x 3.594740 0.000000 0.000000 
#    y 0.000000 3.640820 0.000000 
#    z 0.000000 0.000000 4.263960 
# 
# 
# High freq. dielectric constant tensor:
#      x y z
#    x 1.792550 0.000000 0.000000 
#    y 0.000000 1.804900 0.000000 
#    z 0.000000 0.000000 1.835750 
# 
# From -- ./inp_files/51316.got.cif
#   From: 2010.03.12/outbox.cif.g09.slc.cpg/sg63_26_cif.got.tgz:51316.got - 2010.04.10 19:34:48.
