data_PCOD8258827
_publ_section_title
;
Structure prediction by ZEFSAII (Michael W. Deem and Ramdas Pophale) SiO2 
 PCOD8258827
Probable space group: C M C M
;
_chemical_formula_sum "Si O2"
_cell_formula_units_Z 96
_cell_length_a 23.920750
_cell_length_b 23.701777
_cell_length_c 8.992473
_cell_angle_alpha 90.000000
_cell_angle_beta 90.000000
_cell_angle_gamma 90.000000
_cell_volume 5098.410999
_symmetry_space_group_name_H-M "C M C M"
_symmetry_group_IT_number 63
_symmetry_cell_setting 'orthorhombic'
loop_
_space_group_symop_operation_xyz
x,y,z
-x,-y,1/2+z
x,-y,-z
-x,y,1/2-z
-x,-y,-z
x,y,1/2-z
-x,y,z
x,-y,1/2+z
1/2+x,1/2+y,z
1/2-x,1/2-y,1/2+z
1/2+x,1/2-y,-z
1/2-x,1/2+y,1/2-z
1/2-x,1/2-y,-z
1/2+x,1/2+y,1/2-z
1/2-x,1/2+y,z
1/2+x,1/2-y,1/2+z
loop_
_atom_site_type_symbol
_atom_site_label
_atom_site_fract_x
_atom_site_fract_y
_atom_site_fract_z
Si Si1 0.064483 0.329348 0.425393
Si Si2 0.739994 0.330960 0.076531
Si Si3 0.058401 0.059596 0.923993
Si Si4 0.161875 0.270957 0.923391
Si Si5 0.066353 0.555346 0.417710
Si Si6 0.178961 0.059271 0.924140
O O1 0.072541 0.333346 0.250000
O O2 0.103135 0.279408 0.491002
O O3 0.084865 0.388558 0.495046
O O4 0.000000 0.316280 0.467172
O O5 0.755717 0.325337 0.250000
O O6 0.687082 0.290619 0.040668
O O7 0.724367 0.394434 0.030051
O O8 0.793482 0.316956 0.978081
O O9 0.059416 0.049159 0.750000
O O10 0.118054 0.086117 0.971550
O O11 0.000000 0.093316 0.965978
O O12 0.055180 0.000000 0.000000
O O13 0.150352 0.279374 0.750000
O O14 0.091071 0.500000 0.500000
O O15 0.090220 0.557641 0.250000
O O16 0.000000 0.551228 0.414808
O O17 0.180638 0.048025 0.750000
O O18 0.192894 0.000000 0.000000
#
# Coordination Sequence:
#
# PCOD8258827 Si02
#       6
#    16  16  16  16  16  16
#     4  10  20  34  53  77 106 138 170 210 261 310
#     4   9  19  36  55  75 101 133 170 212 258 308
#     4   8  13  22  38  61  90 124 159 191 227 278
#     4  10  20  35  56  78  99 130 174 217 256 303
#     4   9  16  27  45  70 101 136 172 207 246 299
#     4   9  17  30  49  74 103 133 165 205 254 303
#
# _framework density 18.829395999999999
#
# number of rings (size 3 to 8) (size 9 to 14) (size 15 to 20)
#    0.000    2.833    0.000    1.500    0.000    4.333 
#    0.000    1.667    0.000    5.000    0.000    9.333 
#    0.000    0.000    0.000    0.000    0.000    0.000 
#
# Total GULP energy -594678.043587 kJ/mol
# GULP energy per Si atom -12389.125908 kJ/mol
# Density = 1.878654 g / cm^3
# Si number density = 18.829396 Si / 1000 Ang^3
#
#
#
# Elastic Constant Matrix: (Units=GPa)
#
#
# Indices 1 2 3 4 5 6 
#
# 1 74.4615 40.1249 37.2220 0.0000 0.0000 0.0000
# 2 40.1249 77.7896 30.7171 0.0000 0.0000 0.0000
# 3 37.2220 30.7171 76.0884 0.0000 0.0000 0.0000
# 4 0.0000 0.0000 0.0000 26.6968 0.0000 0.0000
# 5 0.0000 0.0000 0.0000 0.0000 28.2155 0.0000
# 6 0.0000 0.0000 0.0000 0.0000 0.0000 20.6507
#
#
#
# Elastic Compliance Matrix: (Units=1/GPa)
#
#
# Indices 1 2 3 4 5 6 
#
# 1 0.021450 -0.008233 -0.007170 0.000000 0.000000 0.000000
# 2 -0.008233 0.018453 -0.003422 0.000000 0.000000 0.000000
# 3 -0.007170 -0.003422 0.018031 0.000000 0.000000 0.000000
# 4 0.000000 0.000000 0.000000 0.037458 0.000000 0.000000
# 5 0.000000 0.000000 0.000000 0.000000 0.035442 0.000000
# 6 0.000000 0.000000 0.000000 0.000000 0.000000 0.048424
#
#
# Mechanical properties :
#
#
# Convention : Reuss Voigt Hill
#
# Bulk Modulus (GPa) = 49.29669 49.38528 49.34098
# Shear Modulus (GPa) = 22.35434 23.13096 22.74265
#
# Velocity S-wave (km/s) = 3.44932 3.50873 3.47915
# Velocity P-wave (km/s) = 6.48855 6.53449 6.51156
#
# Compressibility (1/GPa) = 0.02028534
#
# Stress axis : x y z
#
# Youngs Moduli (GPa) = 46.61919 54.19095 55.45888
#
# Poissons Ratio (x) = 0.44617 0.39762
# Poissons Ratio (y) = 0.38383 0.18978
# Poissons Ratio (z) = 0.33424 0.18544
#
# Static dielectric constant tensor:
#      x y z
#    x 3.805560 0.000000 0.000000 
#    y 0.000000 3.262980 0.000000 
#    z 0.000000 0.000000 3.468620 
# 
# 
# High freq. dielectric constant tensor:
#      x y z
#    x 1.726850 0.000000 0.000000 
#    y 0.000000 1.703880 0.000000 
#    z 0.000000 0.000000 1.734420 
# 
# From -- ./inp_files/10709.got.cif
#   From: 2010.03.12/outbox.cif.g09.slc.cpg/sg63_6_cif.got.tgz:10709.got - 2010.04.10 19:34:48.
