data_PCOD8258461
_publ_section_title
;
Structure prediction by ZEFSAII (Michael W. Deem and Ramdas Pophale) SiO2 
 PCOD8258461
Probable space group: C M C M
;
_chemical_formula_sum "Si O2"
_cell_formula_units_Z 80
_cell_length_a 9.454633
_cell_length_b 25.568133
_cell_length_c 18.905234
_cell_angle_alpha 90.000000
_cell_angle_beta 90.000000
_cell_angle_gamma 90.000000
_cell_volume 4570.100488
_symmetry_space_group_name_H-M "C M C M"
_symmetry_group_IT_number 63
_symmetry_cell_setting 'orthorhombic'
loop_
_space_group_symop_operation_xyz
x,y,z
-x,-y,1/2+z
x,-y,-z
-x,y,1/2-z
-x,-y,-z
x,y,1/2-z
-x,y,z
x,-y,1/2+z
1/2+x,1/2+y,z
1/2-x,1/2-y,1/2+z
1/2+x,1/2-y,-z
1/2-x,1/2+y,1/2-z
1/2-x,1/2-y,-z
1/2+x,1/2+y,1/2-z
1/2-x,1/2+y,z
1/2+x,1/2-y,1/2+z
loop_
_atom_site_type_symbol
_atom_site_label
_atom_site_fract_x
_atom_site_fract_y
_atom_site_fract_z
Si Si1 0.664574 0.900305 0.831757
Si Si2 0.163353 0.300101 0.918764
Si Si3 0.163900 0.113513 0.667157
Si Si4 0.835755 0.698596 0.583634
Si Si5 0.156242 0.996597 0.666022
O O1 0.703659 0.890785 0.750000
O O2 0.500000 0.909814 0.842668
O O3 0.716820 0.850204 0.875312
O O4 0.739448 0.952020 0.863126
O O5 0.258069 0.251755 0.893345
O O6 0.000000 0.287017 0.901770
O O7 0.186001 0.312142 0.000937
O O8 0.191588 0.121335 0.750000
O O9 0.267257 0.150966 0.625005
O O10 0.000000 0.125427 0.649282
O O11 0.204045 0.054619 0.642577
O O12 0.000000 0.703312 0.603833
O O13 0.153458 0.995500 0.750000
O O14 0.000000 0.984580 0.636147
#
# Coordination Sequence:
#
# PCOD8258461 Si02
#       5
#    16  16  16  16  16
#     4   9  17  30  50  73  94 121 158 195 232 279
#     4   9  19  35  50  67  97 132 161 193 240 293
#     4   9  18  33  52  72  96 127 159 193 238 289
#     4  10  20  33  50  71  95 126 163 202 240 279
#     4   8  15  29  48  70  96 124 153 189 236 284
#
# _framework density 17.505085999999999
#
# number of rings (size 3 to 8) (size 9 to 14) (size 15 to 20)
#    0.000    3.000    0.000    1.800    0.000    3.600 
#    0.000    5.000    0.000    6.000    0.000    0.000 
#    0.000    0.000    0.000    0.000    0.000    0.000 
#
# Total GULP energy -495941.182964 kJ/mol
# GULP energy per Si atom -12398.529574 kJ/mol
# Density = 1.746524 g / cm^3
# Si number density = 17.505086 Si / 1000 Ang^3
#
#
#
# Elastic Constant Matrix: (Units=GPa)
#
#
# Indices 1 2 3 4 5 6 
#
# 1 97.6099 95.7123 40.0575 0.0000 0.0000 0.0000
# 2 95.7123 179.6592 56.9819 0.0000 0.0000 0.0000
# 3 40.0575 56.9819 39.7119 0.0000 0.0000 0.0000
# 4 0.0000 0.0000 0.0000 -23.1623 0.0000 0.0000
# 5 0.0000 0.0000 0.0000 0.0000 23.6453 0.0000
# 6 0.0000 0.0000 0.0000 0.0000 0.0000 40.4930
#
#
#
# Elastic Compliance Matrix: (Units=1/GPa)
#
#
# Indices 1 2 3 4 5 6 
#
# 1 0.023657 -0.009239 -0.010605 0.000000 0.000000 0.000000
# 2 -0.009239 0.013823 -0.010515 0.000000 0.000000 0.000000
# 3 -0.010605 -0.010515 0.050967 0.000000 0.000000 0.000000
# 4 0.000000 0.000000 0.000000 -0.043174 0.000000 0.000000
# 5 0.000000 0.000000 0.000000 0.000000 0.042292 0.000000
# 6 0.000000 0.000000 0.000000 0.000000 0.000000 0.024696
#
#
# Mechanical properties :
#
#
# Convention : Reuss Voigt Hill
#
# Bulk Modulus (GPa) = 36.06522 78.05384 57.05953
# Shear Modulus (GPa) = 27.43889 16.47716 21.95803
#
# Velocity S-wave (km/s) = 3.96344 3.07135 3.54556
# Velocity P-wave (km/s) = 6.44923 7.56728 7.03051
#
# Compressibility (1/GPa) = 0.02772754
#
# Stress axis : x y z
#
# Youngs Moduli (GPa) = 42.27092 72.34125 19.62056
#
# Poissons Ratio (x) = 0.66839 0.20808
# Poissons Ratio (y) = 0.39056 0.20631
# Poissons Ratio (z) = 0.44830 0.76068
#
# Static dielectric constant tensor:
#      x y z
#    x 3.335710 0.000000 0.000000 
#    y 0.000000 3.474610 0.000000 
#    z 0.000000 0.000000 3.006120 
# 
# 
# High freq. dielectric constant tensor:
#      x y z
#    x 1.676920 0.000000 0.000000 
#    y 0.000000 1.688060 0.000000 
#    z 0.000000 0.000000 1.648900 
# 
# From -- ./inp_files/40446.got.cif
#   From: 2010.03.12/outbox.cif.g09.slc.cpg/sg63_21_cif.got.tgz:40446.got - 2010.04.10 19:34:48.
