data_PCOD8258672
_publ_section_title
;
Structure prediction by ZEFSAII (Michael W. Deem and Ramdas Pophale) SiO2 
 PCOD8258672
Probable space group: C M C M
;
_chemical_formula_sum "Si O2"
_cell_formula_units_Z 96
_cell_length_a 19.263248
_cell_length_b 9.583283
_cell_length_c 27.305620
_cell_angle_alpha 90.000000
_cell_angle_beta 90.000000
_cell_angle_gamma 90.000000
_cell_volume 5040.758269
_symmetry_space_group_name_H-M "C M C M"
_symmetry_group_IT_number 63
_symmetry_cell_setting 'orthorhombic'
loop_
_space_group_symop_operation_xyz
x,y,z
-x,-y,1/2+z
x,-y,-z
-x,y,1/2-z
-x,-y,-z
x,y,1/2-z
-x,y,z
x,-y,1/2+z
1/2+x,1/2+y,z
1/2-x,1/2-y,1/2+z
1/2+x,1/2-y,-z
1/2-x,1/2+y,1/2-z
1/2-x,1/2-y,-z
1/2+x,1/2+y,1/2-z
1/2-x,1/2+y,z
1/2+x,1/2-y,1/2+z
loop_
_atom_site_type_symbol
_atom_site_label
_atom_site_fract_x
_atom_site_fract_y
_atom_site_fract_z
Si Si1 0.081722 0.983827 0.145090
Si Si2 0.917869 0.639994 0.978366
Si Si3 0.418117 0.801754 0.130665
Si Si4 0.690892 0.303139 0.306729
Si Si5 0.581820 0.602382 0.960207
Si Si6 0.180411 0.514107 0.691396
O O1 0.120180 0.890133 0.185357
O O2 0.111659 0.927908 0.093366
O O3 0.000000 0.958462 0.151365
O O4 0.100365 0.147147 0.150434
O O5 0.888363 0.680712 0.924809
O O6 0.000000 0.628802 0.972730
O O7 0.884539 0.500000 0.000000
O O8 0.897924 0.745664 0.021442
O O9 0.500000 0.824416 0.130906
O O10 0.387146 0.917960 0.166640
O O11 0.703679 0.285520 0.250000
O O12 0.754573 0.394304 0.327954
O O13 0.687964 0.145476 0.328301
O O14 0.500000 0.574742 0.957443
O O15 0.615582 0.500000 0.000000
O O16 0.171641 0.518654 0.750000
#
# Coordination Sequence:
#
# PCOD8258672 Si02
#       6
#    16  16  16  16  16  16
#     4  10  20  33  55  85 114 145 180 223 269 315
#     4   9  17  28  46  75 110 146 180 217 260 313
#     4  10  20  34  54  84 116 145 180 222 270 317
#     4  10  22  40  60  80 104 140 183 224 273 331
#     4   9  15  28  48  73 108 146 180 213 257 312
#     4  10  22  40  60  79 104 141 182 225 273 329
#
# _framework density 19.044753
#
# number of rings (size 3 to 8) (size 9 to 14) (size 15 to 20)
#    0.000    2.333    1.667    1.000    2.333    3.333 
#    0.000    3.333    0.000    2.000    0.000    0.000 
#    0.000    0.000    0.000    0.000    0.000    0.000 
#
# Total GULP energy -594951.331521 kJ/mol
# GULP energy per Si atom -12394.819407 kJ/mol
# Density = 1.900141 g / cm^3
# Si number density = 19.044753 Si / 1000 Ang^3
#
#
#
# Elastic Constant Matrix: (Units=GPa)
#
#
# Indices 1 2 3 4 5 6 
#
# 1 48.7112 45.6334 17.9421 0.0000 0.0000 0.0000
# 2 45.6334 154.0985 25.6193 0.0000 0.0000 0.0000
# 3 17.9421 25.6193 30.2802 0.0000 0.0000 0.0000
# 4 0.0000 0.0000 0.0000 32.4574 0.0000 0.0000
# 5 0.0000 0.0000 0.0000 0.0000 7.5552 0.0000
# 6 0.0000 0.0000 0.0000 0.0000 0.0000 27.0790
#
#
#
# Elastic Compliance Matrix: (Units=1/GPa)
#
#
# Indices 1 2 3 4 5 6 
#
# 1 0.032179 -0.007400 -0.012806 0.000000 0.000000 0.000000
# 2 -0.007400 0.009253 -0.003444 0.000000 0.000000 0.000000
# 3 -0.012806 -0.003444 0.043527 0.000000 0.000000 0.000000
# 4 0.000000 0.000000 0.000000 0.030810 0.000000 0.000000
# 5 0.000000 0.000000 0.000000 0.000000 0.132359 0.000000
# 6 0.000000 0.000000 0.000000 0.000000 0.000000 0.036929
#
#
# Mechanical properties :
#
#
# Convention : Reuss Voigt Hill
#
# Bulk Modulus (GPa) = 26.55454 45.71995 36.13724
# Shear Modulus (GPa) = 14.49655 23.01134 18.75395
#
# Velocity S-wave (km/s) = 2.76195 3.47980 3.14145
# Velocity P-wave (km/s) = 4.91372 6.34067 5.67224
#
# Compressibility (1/GPa) = 0.03765834
#
# Stress axis : x y z
#
# Youngs Moduli (GPa) = 31.07661 108.06900 22.97430
#
# Poissons Ratio (x) = 0.79971 0.29421
# Poissons Ratio (y) = 0.22997 0.07913
# Poissons Ratio (z) = 0.39797 0.37221
#
# Static dielectric constant tensor:
#      x y z
#    x 3.048760 0.000000 0.000000 
#    y 0.000000 3.804680 0.000000 
#    z 0.000000 0.000000 3.477420 
# 
# 
# High freq. dielectric constant tensor:
#      x y z
#    x 1.694360 0.000000 0.000000 
#    y 0.000000 1.760230 0.000000 
#    z 0.000000 0.000000 1.735930 
# 
# From -- ./inp_files/70311.got.cif
#   From: 2010.03.12/outbox.cif.g09.slc.cpg/sg63_36_cif.got.tgz:70311.got - 2010.04.10 19:34:48.
