data_PCOD8258305
_publ_section_title
;
Structure prediction by ZEFSAII (Michael W. Deem and Ramdas Pophale) SiO2 
 PCOD8258305
Probable space group: C M C M
;
_chemical_formula_sum "Si O2"
_cell_formula_units_Z 80
_cell_length_a 26.939993
_cell_length_b 18.375471
_cell_length_c 9.260460
_cell_angle_alpha 90.000000
_cell_angle_beta 90.000000
_cell_angle_gamma 90.000000
_cell_volume 4584.252373
_symmetry_space_group_name_H-M "C M C M"
_symmetry_group_IT_number 63
_symmetry_cell_setting 'orthorhombic'
loop_
_space_group_symop_operation_xyz
x,y,z
-x,-y,1/2+z
x,-y,-z
-x,y,1/2-z
-x,-y,-z
x,y,1/2-z
-x,y,z
x,-y,1/2+z
1/2+x,1/2+y,z
1/2-x,1/2-y,1/2+z
1/2+x,1/2-y,-z
1/2-x,1/2+y,1/2-z
1/2-x,1/2-y,-z
1/2+x,1/2+y,1/2-z
1/2-x,1/2+y,z
1/2+x,1/2-y,1/2+z
loop_
_atom_site_type_symbol
_atom_site_label
_atom_site_fract_x
_atom_site_fract_y
_atom_site_fract_z
Si Si1 0.203893 0.280401 0.585461
Si Si2 0.557460 0.572980 0.418333
Si Si3 0.347240 0.072428 0.078738
Si Si4 0.554640 0.146489 0.421500
Si Si5 0.101042 0.795338 0.083901
O O1 0.220546 0.286004 0.750000
O O2 0.250000 0.250000 0.500000
O O3 0.188136 0.360906 0.531401
O O4 0.158536 0.224902 0.567710
O O5 0.573263 0.500000 0.500000
O O6 0.568940 0.563052 0.250000
O O7 0.500000 0.591293 0.446993
O O8 0.590784 0.637164 0.481034
O O9 0.345719 0.061092 0.250000
O O10 0.403510 0.090020 0.024310
O O11 0.328225 0.000000 0.000000
O O12 0.555807 0.146468 0.250000
O O13 0.500000 0.124438 0.481085
O O14 0.567577 0.228137 0.472004
O O15 0.088219 0.814901 0.250000
#
# Coordination Sequence:
#
# PCOD8258305 Si02
#       5
#    16  16  16  16  16
#     4   9  19  35  54  75  97 124 162 205 247 292
#     4  10  20  32  47  70 100 132 164 199 242 293
#     4   9  18  32  49  72 100 127 158 193 230 278
#     4   8  14  26  46  70  96 128 161 191 227 274
#     4   9  17  31  51  72  94 124 164 205 244 290
#
# _framework density 17.451046000000002
#
# number of rings (size 3 to 8) (size 9 to 14) (size 15 to 20)
#    0.000    3.000    0.000    3.600    0.000    4.000 
#    0.000    4.000    0.000    3.600    0.000    0.000 
#    0.000    0.000    0.000    0.000    0.000    0.000 
#
# Total GULP energy -495876.558368 kJ/mol
# GULP energy per Si atom -12396.913959 kJ/mol
# Density = 1.741133 g / cm^3
# Si number density = 17.451046 Si / 1000 Ang^3
#
#
#
# Elastic Constant Matrix: (Units=GPa)
#
#
# Indices 1 2 3 4 5 6 
#
# 1 93.5724 49.8132 35.8101 0.0000 0.0000 0.0000
# 2 49.8132 129.5226 54.6439 0.0000 0.0000 0.0000
# 3 35.8101 54.6439 64.7948 0.0000 0.0000 0.0000
# 4 0.0000 0.0000 0.0000 33.0321 0.0000 0.0000
# 5 0.0000 0.0000 0.0000 0.0000 27.1566 0.0000
# 6 0.0000 0.0000 0.0000 0.0000 0.0000 17.2828
#
#
#
# Elastic Compliance Matrix: (Units=1/GPa)
#
#
# Indices 1 2 3 4 5 6 
#
# 1 0.014457 -0.003398 -0.005124 0.000000 0.000000 0.000000
# 2 -0.003398 0.012784 -0.008903 0.000000 0.000000 0.000000
# 3 -0.005124 -0.008903 0.025773 0.000000 0.000000 0.000000
# 4 0.000000 0.000000 0.000000 0.030274 0.000000 0.000000
# 5 0.000000 0.000000 0.000000 0.000000 0.036823 0.000000
# 6 0.000000 0.000000 0.000000 0.000000 0.000000 0.057861
#
#
# Mechanical properties :
#
#
# Convention : Reuss Voigt Hill
#
# Bulk Modulus (GPa) = 55.05488 63.15826 59.10657
# Shear Modulus (GPa) = 22.84395 25.33581 24.08988
#
# Velocity S-wave (km/s) = 3.62198 3.81441 3.71944
# Velocity P-wave (km/s) = 7.00773 7.46123 7.23803
#
# Compressibility (1/GPa) = 0.01816369
#
# Stress axis : x y z
#
# Youngs Moduli (GPa) = 69.17103 78.22546 38.79985
#
# Poissons Ratio (x) = 0.26583 0.19881
# Poissons Ratio (y) = 0.23506 0.34543
# Poissons Ratio (z) = 0.35443 0.69642
#
# Static dielectric constant tensor:
#      x y z
#    x 3.231700 0.000000 0.000000 
#    y 0.000000 3.204070 0.000000 
#    z 0.000000 0.000000 2.936890 
# 
# 
# High freq. dielectric constant tensor:
#      x y z
#    x 1.664550 0.000000 0.000000 
#    y 0.000000 1.675750 0.000000 
#    z 0.000000 0.000000 1.653040 
# 
# From -- ./inp_files/11994.got.cif
#   From: 2010.03.12/outbox.cif.g09.slc.cpg/sg63_6_cif.got.tgz:11994.got - 2010.04.10 19:34:48.
