data_PCOD8258618
_publ_section_title
;
Structure prediction by ZEFSAII (Michael W. Deem and Ramdas Pophale) SiO2 
 PCOD8258618
Probable space group: C M C M
;
_chemical_formula_sum "Si O2"
_cell_formula_units_Z 96
_cell_length_a 9.325901
_cell_length_b 22.989916
_cell_length_c 23.141871
_cell_angle_alpha 90.000000
_cell_angle_beta 90.000000
_cell_angle_gamma 90.000000
_cell_volume 4961.656035
_symmetry_space_group_name_H-M "C M C M"
_symmetry_group_IT_number 63
_symmetry_cell_setting 'orthorhombic'
loop_
_space_group_symop_operation_xyz
x,y,z
-x,-y,1/2+z
x,-y,-z
-x,y,1/2-z
-x,-y,-z
x,y,1/2-z
-x,y,z
x,-y,1/2+z
1/2+x,1/2+y,z
1/2-x,1/2-y,1/2+z
1/2+x,1/2-y,-z
1/2-x,1/2+y,1/2-z
1/2-x,1/2-y,-z
1/2+x,1/2+y,1/2-z
1/2-x,1/2+y,z
1/2+x,1/2-y,1/2+z
loop_
_atom_site_type_symbol
_atom_site_label
_atom_site_fract_x
_atom_site_fract_y
_atom_site_fract_z
Si Si1 0.834714 0.942330 0.683202
Si Si2 0.333550 0.226675 0.597926
Si Si3 0.830189 0.448466 0.138084
Si Si4 0.661047 0.656123 0.684270
Si Si5 0.836509 0.383884 0.023123
Si Si6 0.164223 0.142530 0.417009
O O1 0.791644 0.931512 0.750000
O O2 0.810744 0.882980 0.647262
O O3 0.000000 0.963153 0.678947
O O4 0.731604 0.988941 0.653424
O O5 0.500000 0.225793 0.616903
O O6 0.236638 0.209022 0.651795
O O7 0.306475 0.181323 0.546191
O O8 0.282947 0.290902 0.580201
O O9 0.753659 0.402427 0.179614
O O10 0.794662 0.431377 0.071731
O O11 0.000000 0.446608 0.149436
O O12 0.653662 0.675512 0.750000
O O13 0.500000 0.645609 0.659896
O O14 0.000000 0.391875 0.005265
O O15 0.747065 0.395010 0.965153
O O16 0.000000 0.138610 0.434950
#
# Coordination Sequence:
#
# PCOD8258618 Si02
#       6
#    16  16  16  16  16  16
#     4  10  22  39  56  77 108 144 181 222 267 314
#     4   9  19  35  54  79 110 145 183 220 265 320
#     4  10  21  37  57  81 107 138 179 223 270 324
#     4  10  20  33  52  80 110 140 178 226 276 321
#     4   9  19  35  55  81 110 137 172 223 275 319
#     4  10  21  36  56  81 108 143 184 220 260 317
#
# _framework density 19.348379000000001
#
# number of rings (size 3 to 8) (size 9 to 14) (size 15 to 20)
#    0.000    2.333    0.000    3.000    0.000    9.667 
#    0.000    5.000    0.000    0.000    0.000    0.000 
#    0.000    0.000    0.000    0.000    0.000    0.000 
#
# Total GULP energy -595202.160115 kJ/mol
# GULP energy per Si atom -12400.045002 kJ/mol
# Density = 1.930434 g / cm^3
# Si number density = 19.348379 Si / 1000 Ang^3
#
#
#
# Elastic Constant Matrix: (Units=GPa)
#
#
# Indices 1 2 3 4 5 6 
#
# 1 81.4054 31.2321 46.0033 0.0000 0.0000 0.0000
# 2 31.2321 63.2777 40.5735 0.0000 0.0000 0.0000
# 3 46.0033 40.5735 109.3076 0.0000 0.0000 0.0000
# 4 0.0000 0.0000 0.0000 18.7242 0.0000 0.0000
# 5 0.0000 0.0000 0.0000 0.0000 30.9873 0.0000
# 6 0.0000 0.0000 0.0000 0.0000 0.0000 29.7175
#
#
#
# Elastic Compliance Matrix: (Units=1/GPa)
#
#
# Indices 1 2 3 4 5 6 
#
# 1 0.017275 -0.005072 -0.005388 0.000000 0.000000 0.000000
# 2 -0.005072 0.022228 -0.006116 0.000000 0.000000 0.000000
# 3 -0.005388 -0.006116 0.013686 0.000000 0.000000 0.000000
# 4 0.000000 0.000000 0.000000 0.053407 0.000000 0.000000
# 5 0.000000 0.000000 0.000000 0.000000 0.032271 0.000000
# 6 0.000000 0.000000 0.000000 0.000000 0.000000 0.033650
#
#
# Mechanical properties :
#
#
# Convention : Reuss Voigt Hill
#
# Bulk Modulus (GPa) = 49.90575 54.40096 52.15335
# Shear Modulus (GPa) = 23.54619 24.96459 24.25539
#
# Velocity S-wave (km/s) = 3.49228 3.59593 3.54448
# Velocity P-wave (km/s) = 6.48927 6.73932 6.61548
#
# Compressibility (1/GPa) = 0.02003777
#
# Stress axis : x y z
#
# Youngs Moduli (GPa) = 57.88823 44.98738 73.06588
#
# Poissons Ratio (x) = 0.22816 0.39365
# Poissons Ratio (y) = 0.29359 0.44690
# Poissons Ratio (z) = 0.31188 0.27516
#
# Static dielectric constant tensor:
#      x y z
#    x 3.580930 0.000000 0.000000 
#    y 0.000000 3.475730 0.000000 
#    z 0.000000 0.000000 3.451010 
# 
# 
# High freq. dielectric constant tensor:
#      x y z
#    x 1.755990 0.000000 0.000000 
#    y 0.000000 1.742730 0.000000 
#    z 0.000000 0.000000 1.752200 
# 
# From -- ./inp_files/59865.got.cif
#   From: 2010.03.12/outbox.cif.g09.slc.cpg/sg63_30_cif.got.tgz:59865.got - 2010.04.10 19:34:48.
