data_PCOD8258483
_publ_section_title
;
Structure prediction by ZEFSAII (Michael W. Deem and Ramdas Pophale) SiO2 
 PCOD8258483
Probable space group: C M C M
;
_chemical_formula_sum "Si O2"
_cell_formula_units_Z 120
_cell_length_a 26.880522
_cell_length_b 27.775468
_cell_length_c 9.006813
_cell_angle_alpha 90.000000
_cell_angle_beta 90.000000
_cell_angle_gamma 90.000000
_cell_volume 6724.658423
_symmetry_space_group_name_H-M "C M C M"
_symmetry_group_IT_number 63
_symmetry_cell_setting 'orthorhombic'
loop_
_space_group_symop_operation_xyz
x,y,z
-x,-y,1/2+z
x,-y,-z
-x,y,1/2-z
-x,-y,-z
x,y,1/2-z
-x,y,z
x,-y,1/2+z
1/2+x,1/2+y,z
1/2-x,1/2-y,1/2+z
1/2+x,1/2-y,-z
1/2-x,1/2+y,1/2-z
1/2-x,1/2-y,-z
1/2+x,1/2+y,1/2-z
1/2-x,1/2+y,z
1/2+x,1/2-y,1/2+z
loop_
_atom_site_type_symbol
_atom_site_label
_atom_site_fract_x
_atom_site_fract_y
_atom_site_fract_z
Si Si1 0.362280 0.690409 0.917371
Si Si2 0.444693 0.640401 0.074922
Si Si3 0.616463 0.451689 0.575383
Si Si4 0.799781 0.099409 0.920717
Si Si5 0.500000 0.950521 0.580346
Si Si6 0.794753 0.277764 0.922095
Si Si7 0.811252 0.378876 0.075486
Si Si8 0.891315 0.447481 0.925804
O O1 0.378708 0.679562 0.750000
O O2 0.318376 0.653184 0.963490
O O3 0.343314 0.744452 0.935593
O O4 0.411106 0.684388 0.017991
O O5 0.446350 0.642996 0.250000
O O6 0.500000 0.644473 0.007695
O O7 0.420558 0.590288 0.021720
O O8 0.596598 0.500000 0.500000
O O9 0.616632 0.458419 0.750000
O O10 0.672344 0.439789 0.521539
O O11 0.811606 0.087633 0.750000
O O12 0.741371 0.095185 0.953127
O O13 0.500000 0.964657 0.750000
O O14 0.552955 0.924796 0.543123
O O15 0.500000 0.000000 0.500000
O O16 0.780968 0.287439 0.750000
O O17 0.750000 0.250000 0.000000
O O18 0.809352 0.326381 0.004133
O O19 0.822315 0.373711 0.250000
O O20 0.853273 0.410425 0.998042
O O21 0.880830 0.452090 0.750000
O O22 0.885303 0.500000 0.000000
#
# Coordination Sequence:
#
# PCOD8258483 Si02
#       8
#    16  16  16  16   8  16  16  16
#     4   9  18  34  54  77 103 134 174 216 262 318
#     4   9  19  35  54  77 103 133 175 226 273 321
#     4  10  20  33  50  73 101 137 177 219 269 320
#     4   9  18  34  51  70 101 137 172 213 259 314
#     4   8  16  32  56  80 104 134 176 218 262 314
#     4  11  21  35  56  83 112 143 179 221 267 320
#     4  11  22  36  54  82 114 145 180 224 269 318
#     4  10  20  36  57  83 111 145 182 223 269 320
#
# _framework density 17.844773
#
# number of rings (size 3 to 8) (size 9 to 14) (size 15 to 20)
#    0.000    2.267    1.333    1.600    0.000    4.267 
#    0.000    0.000    1.467    0.000    0.000    0.000 
#    0.000    0.000    0.000    0.000    0.000    0.000 
#
# Total GULP energy -743793.670495 kJ/mol
# GULP energy per Si atom -12396.561175 kJ/mol
# Density = 1.780416 g / cm^3
# Si number density = 17.844773 Si / 1000 Ang^3
#
#
#
# Elastic Constant Matrix: (Units=GPa)
#
#
# Indices 1 2 3 4 5 6 
#
# 1 142.3101 50.3477 57.4482 0.0000 0.0000 0.0000
# 2 50.3477 80.0313 41.8232 0.0000 0.0000 0.0000
# 3 57.4482 41.8232 83.2752 0.0000 0.0000 0.0000
# 4 0.0000 0.0000 0.0000 33.7099 0.0000 0.0000
# 5 0.0000 0.0000 0.0000 0.0000 28.5581 0.0000
# 6 0.0000 0.0000 0.0000 0.0000 0.0000 18.4486
#
#
#
# Elastic Compliance Matrix: (Units=1/GPa)
#
#
# Indices 1 2 3 4 5 6 
#
# 1 0.010543 -0.003839 -0.005345 0.000000 0.000000 0.000000
# 2 -0.003839 0.018340 -0.006562 0.000000 0.000000 0.000000
# 3 -0.005345 -0.006562 0.018991 0.000000 0.000000 0.000000
# 4 0.000000 0.000000 0.000000 0.029665 0.000000 0.000000
# 5 0.000000 0.000000 0.000000 0.000000 0.035016 0.000000
# 6 0.000000 0.000000 0.000000 0.000000 0.000000 0.054205
#
#
# Mechanical properties :
#
#
# Convention : Reuss Voigt Hill
#
# Bulk Modulus (GPa) = 61.04569 67.20611 64.12590
# Shear Modulus (GPa) = 24.54437 26.54316 25.54377
#
# Velocity S-wave (km/s) = 3.71271 3.86093 3.78755
# Velocity P-wave (km/s) = 7.25690 7.59071 7.42568
#
# Compressibility (1/GPa) = 0.01638117
#
# Stress axis : x y z
#
# Youngs Moduli (GPa) = 94.85089 54.52647 52.65583
#
# Poissons Ratio (x) = 0.20935 0.28144
# Poissons Ratio (y) = 0.36417 0.34553
# Poissons Ratio (z) = 0.50696 0.35781
#
# Static dielectric constant tensor:
#      x y z
#    x 3.666720 0.000000 0.000000 
#    y 0.000000 3.474650 0.000000 
#    z 0.000000 0.000000 3.398710 
# 
# 
# High freq. dielectric constant tensor:
#      x y z
#    x 1.691830 0.000000 0.000000 
#    y 0.000000 1.671870 0.000000 
#    z 0.000000 0.000000 1.700180 
# 
# From -- ./inp_files/13166.got.cif
#   From: 2010.03.12/outbox.cif.g09.slc.cpg/sg63_7_cif.got.tgz:13166.got - 2010.04.10 19:34:48.
