data_PCOD8258147
_publ_section_title
;
Structure prediction by ZEFSAII (Michael W. Deem and Ramdas Pophale) SiO2 
 PCOD8258147
Probable space group: C M C M
;
_chemical_formula_sum "Si O2"
_cell_formula_units_Z 96
_cell_length_a 8.671814
_cell_length_b 23.678423
_cell_length_c 25.095293
_cell_angle_alpha 90.000000
_cell_angle_beta 90.000000
_cell_angle_gamma 90.000000
_cell_volume 5152.938978
_symmetry_space_group_name_H-M "C M C M"
_symmetry_group_IT_number 63
_symmetry_cell_setting 'orthorhombic'
loop_
_space_group_symop_operation_xyz
x,y,z
-x,-y,1/2+z
x,-y,-z
-x,y,1/2-z
-x,-y,-z
x,y,1/2-z
-x,y,z
x,-y,1/2+z
1/2+x,1/2+y,z
1/2-x,1/2-y,1/2+z
1/2+x,1/2-y,-z
1/2-x,1/2+y,1/2-z
1/2-x,1/2-y,-z
1/2+x,1/2+y,1/2-z
1/2-x,1/2+y,z
1/2+x,1/2-y,1/2+z
loop_
_atom_site_type_symbol
_atom_site_label
_atom_site_fract_x
_atom_site_fract_y
_atom_site_fract_z
Si Si1 0.317596 0.383398 0.903935
Si Si2 0.680687 0.304067 0.810584
Si Si3 0.320288 0.685159 0.811594
Si Si4 0.320230 0.880485 0.403381
Si Si5 0.819309 0.995264 0.437556
Si Si6 0.181746 0.811565 0.497874
O O1 0.500000 0.383537 0.909338
O O2 0.264776 0.355761 0.848059
O O3 0.260595 0.447888 0.908182
O O4 0.248813 0.347382 0.952927
O O5 0.721343 0.321034 0.750000
O O6 0.500000 0.291755 0.817677
O O7 0.770413 0.248124 0.828678
O O8 0.280053 0.675106 0.750000
O O9 0.500000 0.677784 0.823489
O O10 0.224850 0.638502 0.843936
O O11 0.500000 0.871460 0.413323
O O12 0.224718 0.841561 0.443238
O O13 0.277596 0.945601 0.411029
O O14 0.000000 0.983635 0.428492
O O15 0.782616 0.000000 0.500000
O O16 0.250000 0.750000 0.500000
O O17 0.000000 0.807055 0.502246
#
# Coordination Sequence:
#
# PCOD8258147 Si02
#       6
#    16  16  16  16  16  16
#     4   9  18  33  54  78 107 144 187 227 275 334
#     4   9  17  32  56  85 115 144 176 223 283 345
#     4  10  21  38  60  84 110 145 188 231 278 338
#     4  12  24  37  55  82 114 148 187 234 286 342
#     4  10  19  37  59  77 105 152 196 237 282 329
#     4  11  21  35  54  81 113 147 186 231 282 337
#
# _framework density 18.630144000000001
#
# number of rings (size 3 to 8) (size 9 to 14) (size 15 to 20)
#    0.000    1.833    1.667    3.500    0.000    2.667 
#    0.000    2.500    0.000    3.000    0.000    0.000 
#    0.000    0.000    0.000    0.000    0.000    0.000 
#
# Total GULP energy -595337.404395 kJ/mol
# GULP energy per Si atom -12402.862592 kJ/mol
# Density = 1.858774 g / cm^3
# Si number density = 18.630144 Si / 1000 Ang^3
#
#
#
# Elastic Constant Matrix: (Units=GPa)
#
#
# Indices 1 2 3 4 5 6 
#
# 1 49.6655 31.3859 23.5891 0.0000 0.0000 0.0000
# 2 31.3859 150.9931 64.5333 0.0000 0.0000 0.0000
# 3 23.5891 64.5333 98.1742 0.0000 0.0000 0.0000
# 4 0.0000 0.0000 0.0000 34.6943 0.0000 0.0000
# 5 0.0000 0.0000 0.0000 0.0000 21.0025 0.0000
# 6 0.0000 0.0000 0.0000 0.0000 0.0000 32.9606
#
#
#
# Elastic Compliance Matrix: (Units=1/GPa)
#
#
# Indices 1 2 3 4 5 6 
#
# 1 0.023995 -0.003510 -0.003459 0.000000 0.000000 0.000000
# 2 -0.003510 0.009724 -0.005548 0.000000 0.000000 0.000000
# 3 -0.003459 -0.005548 0.014664 0.000000 0.000000 0.000000
# 4 0.000000 0.000000 0.000000 0.028823 0.000000 0.000000
# 5 0.000000 0.000000 0.000000 0.000000 0.047613 0.000000
# 6 0.000000 0.000000 0.000000 0.000000 0.000000 0.030339
#
#
# Mechanical properties :
#
#
# Convention : Reuss Voigt Hill
#
# Bulk Modulus (GPa) = 42.82666 59.76104 51.29385
# Shear Modulus (GPa) = 26.59922 29.68645 28.14284
#
# Velocity S-wave (km/s) = 3.78266 3.99615 3.89087
# Velocity P-wave (km/s) = 6.48967 7.31024 6.91214
#
# Compressibility (1/GPa) = 0.02334994
#
# Stress axis : x y z
#
# Youngs Moduli (GPa) = 41.67494 102.84163 68.19340
#
# Poissons Ratio (x) = 0.36093 0.23585
# Poissons Ratio (y) = 0.14626 0.37837
# Poissons Ratio (z) = 0.14414 0.57061
#
# Static dielectric constant tensor:
#      x y z
#    x 3.259290 0.000000 0.000000 
#    y 0.000000 3.528960 0.000000 
#    z 0.000000 0.000000 3.464070 
# 
# 
# High freq. dielectric constant tensor:
#      x y z
#    x 1.708890 0.000000 0.000000 
#    y 0.000000 1.726810 0.000000 
#    z 0.000000 0.000000 1.724980 
# 
# From -- ./inp_files/59840.got.cif
#   From: 2010.03.12/outbox.cif.g09.slc.cpg/sg63_30_cif.got.tgz:59840.got - 2010.04.10 19:34:48.
