data_PCOD8258846
_publ_section_title
;
Structure prediction by ZEFSAII (Michael W. Deem and Ramdas Pophale) SiO2 
 PCOD8258846
Probable space group: C M C M
;
_chemical_formula_sum "Si O2"
_cell_formula_units_Z 96
_cell_length_a 9.591076
_cell_length_b 29.709717
_cell_length_c 18.978671
_cell_angle_alpha 90.000000
_cell_angle_beta 90.000000
_cell_angle_gamma 90.000000
_cell_volume 5407.937261
_symmetry_space_group_name_H-M "C M C M"
_symmetry_group_IT_number 63
_symmetry_cell_setting 'orthorhombic'
loop_
_space_group_symop_operation_xyz
x,y,z
-x,-y,1/2+z
x,-y,-z
-x,y,1/2-z
-x,-y,-z
x,y,1/2-z
-x,y,z
x,-y,1/2+z
1/2+x,1/2+y,z
1/2-x,1/2-y,1/2+z
1/2+x,1/2-y,-z
1/2-x,1/2+y,1/2-z
1/2-x,1/2-y,-z
1/2+x,1/2+y,1/2-z
1/2-x,1/2+y,z
1/2+x,1/2-y,1/2+z
loop_
_atom_site_type_symbol
_atom_site_label
_atom_site_fract_x
_atom_site_fract_y
_atom_site_fract_z
Si Si1 0.661664 0.868670 0.592054
Si Si2 0.338825 0.778471 0.668553
Si Si3 0.661361 0.193149 0.668724
Si Si4 0.661578 0.887280 0.068163
Si Si5 0.660486 0.524816 0.929590
Si Si6 0.839861 0.056843 0.330705
O O1 0.500000 0.877154 0.609146
O O2 0.710588 0.820958 0.622911
O O3 0.692498 0.868330 0.509302
O O4 0.747029 0.908066 0.627856
O O5 0.309840 0.789985 0.750000
O O6 0.500000 0.766982 0.655184
O O7 0.249375 0.735988 0.643332
O O8 0.692089 0.181772 0.750000
O O9 0.500000 0.204594 0.655678
O O10 0.709121 0.150494 0.623396
O O11 0.500000 0.899768 0.077587
O O12 0.749527 0.931323 0.084859
O O13 0.500000 0.539267 0.939494
O O14 0.681461 0.492517 0.862945
O O15 0.714476 0.500000 0.000000
O O16 0.791664 0.054916 0.250000
O O17 0.000000 0.072088 0.338000
#
# Coordination Sequence:
#
# PCOD8258846 Si02
#       6
#    16  16  16  16  16  16
#     4  10  20  34  53  78 108 138 172 214 260 311
#     4   9  18  33  52  74 102 136 172 212 260 311
#     4   9  19  36  54  74 104 139 175 217 262 308
#     4  10  21  35  54  79 105 137 176 216 260 311
#     4  10  20  36  55  75 103 138 173 211 260 311
#     4  10  21  36  54  78 106 136 174 217 259 309
#
# _framework density 17.751685999999999
#
# number of rings (size 3 to 8) (size 9 to 14) (size 15 to 20)
#    0.000    2.333    1.667    0.500    0.000    4.667 
#    0.000    1.667    0.000    0.000    0.000    0.000 
#    0.000    0.000    0.000    0.000    0.000    0.000 
#
# Total GULP energy -595401.099523 kJ/mol
# GULP energy per Si atom -12404.189573 kJ/mol
# Density = 1.771128 g / cm^3
# Si number density = 17.751686 Si / 1000 Ang^3
#
#
#
# Elastic Constant Matrix: (Units=GPa)
#
#
# Indices 1 2 3 4 5 6 
#
# 1 61.8932 68.0421 37.2499 0.0000 0.0000 0.0000
# 2 68.0421 144.0179 57.2095 0.0000 0.0000 0.0000
# 3 37.2499 57.2095 85.0221 0.0000 0.0000 0.0000
# 4 0.0000 0.0000 0.0000 35.7108 0.0000 0.0000
# 5 0.0000 0.0000 0.0000 0.0000 21.6189 0.0000
# 6 0.0000 0.0000 0.0000 0.0000 0.0000 34.3772
#
#
#
# Elastic Compliance Matrix: (Units=1/GPa)
#
#
# Indices 1 2 3 4 5 6 
#
# 1 0.035626 -0.014510 -0.005845 0.000000 0.000000 0.000000
# 2 -0.014510 0.015386 -0.003996 0.000000 0.000000 0.000000
# 3 -0.005845 -0.003996 0.017011 0.000000 0.000000 0.000000
# 4 0.000000 0.000000 0.000000 0.028003 0.000000 0.000000
# 5 0.000000 0.000000 0.000000 0.000000 0.046256 0.000000
# 6 0.000000 0.000000 0.000000 0.000000 0.000000 0.029089
#
#
# Mechanical properties :
#
#
# Convention : Reuss Voigt Hill
#
# Bulk Modulus (GPa) = 51.75540 68.43736 60.09638
# Shear Modulus (GPa) = 22.07372 26.90348 24.48860
#
# Velocity S-wave (km/s) = 3.53012 3.89722 3.71820
# Velocity P-wave (km/s) = 6.77009 7.67381 7.23607
#
# Compressibility (1/GPa) = 0.01932166
#
# Stress axis : x y z
#
# Youngs Moduli (GPa) = 28.06935 64.99332 58.78431
#
# Poissons Ratio (x) = 0.94304 0.34360
# Poissons Ratio (y) = 0.40728 0.23490
# Poissons Ratio (z) = 0.16407 0.25971
#
# Static dielectric constant tensor:
#      x y z
#    x 3.273700 0.000000 0.000000 
#    y 0.000000 3.266000 0.000000 
#    z 0.000000 0.000000 3.415040 
# 
# 
# High freq. dielectric constant tensor:
#      x y z
#    x 1.683670 0.000000 0.000000 
#    y 0.000000 1.688230 0.000000 
#    z 0.000000 0.000000 1.693360 
# 
# From -- ./inp_files/51319.got.cif
#   From: 2010.03.12/outbox.cif.g09.slc.cpg/sg63_26_cif.got.tgz:51319.got - 2010.04.10 19:34:48.
