data_PCOD8258762
_publ_section_title
;
Structure prediction by ZEFSAII (Michael W. Deem and Ramdas Pophale) SiO2 
 PCOD8258762
Probable space group: C M C M
;
_chemical_formula_sum "Si O2"
_cell_formula_units_Z 96
_cell_length_a 12.813317
_cell_length_b 16.537818
_cell_length_c 24.285315
_cell_angle_alpha 90.000000
_cell_angle_beta 90.000000
_cell_angle_gamma 90.000000
_cell_volume 5146.162785
_symmetry_space_group_name_H-M "C M C M"
_symmetry_group_IT_number 63
_symmetry_cell_setting 'orthorhombic'
loop_
_space_group_symop_operation_xyz
x,y,z
-x,-y,1/2+z
x,-y,-z
-x,y,1/2-z
-x,-y,-z
x,y,1/2-z
-x,y,z
x,-y,1/2+z
1/2+x,1/2+y,z
1/2-x,1/2-y,1/2+z
1/2+x,1/2-y,-z
1/2-x,1/2+y,1/2-z
1/2-x,1/2-y,-z
1/2+x,1/2+y,1/2-z
1/2-x,1/2+y,z
1/2+x,1/2-y,1/2+z
loop_
_atom_site_type_symbol
_atom_site_label
_atom_site_fract_x
_atom_site_fract_y
_atom_site_fract_z
Si Si1 0.623248 0.065995 0.093851
Si Si2 0.878660 0.956084 0.312445
Si Si3 0.736826 0.897328 0.094095
Si Si4 0.727734 0.660078 0.481992
Si Si5 0.379704 0.267487 0.613993
Si Si6 0.760822 0.120665 0.187566
O O1 0.500000 0.067648 0.088456
O O2 0.669673 0.119013 0.044190
O O3 0.656857 0.104415 0.152206
O O4 0.663555 0.974844 0.090902
O O5 0.856570 0.926314 0.250000
O O6 0.815952 0.899206 0.354614
O O7 0.000000 0.950333 0.326985
O O8 0.843276 0.048248 0.319583
O O9 0.661610 0.820620 0.098487
O O10 0.803258 0.890666 0.036807
O O11 0.750000 0.750000 0.500000
O O12 0.637617 0.666396 0.435400
O O13 0.500000 0.261166 0.628483
O O14 0.318331 0.298102 0.667781
O O15 0.724073 0.132021 0.250000
#
# Coordination Sequence:
#
# PCOD8258762 Si02
#       6
#    16  16  16  16  16  16
#     4  10  20  35  57  82 108 140 174 214 267 319
#     4   9  18  34  55  76 101 137 177 216 260 310
#     4  10  20  34  53  81 111 138 173 218 265 318
#     4   9  20  35  50  74 106 138 175 213 253 309
#     4  10  20  34  52  75 104 138 177 220 264 311
#     4   9  19  36  55  76 104 137 178 220 257 310
#
# _framework density 18.654677
#
# number of rings (size 3 to 8) (size 9 to 14) (size 15 to 20)
#    0.000    2.500    0.000    1.500    0.000    6.667 
#    0.000    6.667    0.000    9.000    0.000    0.000 
#    0.000    0.000    0.000    0.000    0.000    0.000 
#
# Total GULP energy -595030.624610 kJ/mol
# GULP energy per Si atom -12396.471346 kJ/mol
# Density = 1.861222 g / cm^3
# Si number density = 18.654677 Si / 1000 Ang^3
#
#
#
# Elastic Constant Matrix: (Units=GPa)
#
#
# Indices 1 2 3 4 5 6 
#
# 1 91.4323 45.3770 38.4421 0.0000 0.0000 0.0000
# 2 45.3770 82.1996 49.2358 0.0000 0.0000 0.0000
# 3 38.4421 49.2358 134.8882 0.0000 0.0000 0.0000
# 4 0.0000 0.0000 0.0000 32.5801 0.0000 0.0000
# 5 0.0000 0.0000 0.0000 0.0000 17.9084 0.0000
# 6 0.0000 0.0000 0.0000 0.0000 0.0000 21.0348
#
#
#
# Elastic Compliance Matrix: (Units=1/GPa)
#
#
# Indices 1 2 3 4 5 6 
#
# 1 0.015342 -0.007488 -0.001639 0.000000 0.000000 0.000000
# 2 -0.007488 0.019224 -0.004883 0.000000 0.000000 0.000000
# 3 -0.001639 -0.004883 0.009663 0.000000 0.000000 0.000000
# 4 0.000000 0.000000 0.000000 0.030694 0.000000 0.000000
# 5 0.000000 0.000000 0.000000 0.000000 0.055840 0.000000
# 6 0.000000 0.000000 0.000000 0.000000 0.000000 0.047540
#
#
# Mechanical properties :
#
#
# Convention : Reuss Voigt Hill
#
# Bulk Modulus (GPa) = 61.69304 63.84777 62.77040
# Shear Modulus (GPa) = 23.61545 26.00233 24.80889
#
# Velocity S-wave (km/s) = 3.56185 3.73752 3.65074
# Velocity P-wave (km/s) = 7.07521 7.27501 7.17581
#
# Compressibility (1/GPa) = 0.01620929
#
# Stress axis : x y z
#
# Youngs Moduli (GPa) = 65.17919 52.01922 103.48638
#
# Poissons Ratio (x) = 0.38949 0.16966
# Poissons Ratio (y) = 0.48803 0.50532
# Poissons Ratio (z) = 0.10686 0.25401
#
# Static dielectric constant tensor:
#      x y z
#    x 3.230780 0.000000 0.000000 
#    y 0.000000 3.465670 0.000000 
#    z 0.000000 0.000000 3.902290 
# 
# 
# High freq. dielectric constant tensor:
#      x y z
#    x 1.701200 0.000000 0.000000 
#    y 0.000000 1.724920 0.000000 
#    z 0.000000 0.000000 1.741540 
# 
# From -- ./inp_files/61490.got.cif
#   From: 2010.03.12/outbox.cif.g09.slc.cpg/sg63_31_cif.got.tgz:61490.got - 2010.04.10 19:34:48.
