data_PCOD8258488
_publ_section_title
;
Structure prediction by ZEFSAII (Michael W. Deem and Ramdas Pophale) SiO2 
 PCOD8258488
Probable space group: C M C M
;
_chemical_formula_sum "Si O2"
_cell_formula_units_Z 112
_cell_length_a 9.448870
_cell_length_b 28.940771
_cell_length_c 21.719331
_cell_angle_alpha 90.000000
_cell_angle_beta 90.000000
_cell_angle_gamma 90.000000
_cell_volume 5939.315757
_symmetry_space_group_name_H-M "C M C M"
_symmetry_group_IT_number 63
_symmetry_cell_setting 'orthorhombic'
loop_
_space_group_symop_operation_xyz
x,y,z
-x,-y,1/2+z
x,-y,-z
-x,y,1/2-z
-x,-y,-z
x,y,1/2-z
-x,y,z
x,-y,1/2+z
1/2+x,1/2+y,z
1/2-x,1/2-y,1/2+z
1/2+x,1/2-y,-z
1/2-x,1/2+y,1/2-z
1/2-x,1/2-y,-z
1/2+x,1/2+y,1/2-z
1/2-x,1/2+y,z
1/2+x,1/2-y,1/2+z
loop_
_atom_site_type_symbol
_atom_site_label
_atom_site_fract_x
_atom_site_fract_y
_atom_site_fract_z
Si Si1 0.167255 0.131968 0.067589
Si Si2 0.332436 0.525654 0.438562
Si Si3 0.151247 0.872422 0.319416
Si Si4 0.840699 0.704261 0.992429
Si Si5 0.168774 0.972066 0.180225
Si Si6 0.667434 0.310004 0.681979
Si Si7 0.656042 0.209520 0.648822
O O1 0.211787 0.079151 0.059068
O O2 0.256783 0.161030 0.019190
O O3 0.212937 0.149322 0.135717
O O4 0.000000 0.140082 0.056217
O O5 0.271757 0.500000 0.500000
O O6 0.500000 0.520120 0.438002
O O7 0.271314 0.505809 0.373581
O O8 0.116540 0.885485 0.250000
O O9 0.216319 0.920797 0.344269
O O10 0.251825 0.828718 0.318244
O O11 0.000000 0.860700 0.352653
O O12 0.000000 0.709429 0.020743
O O13 0.750000 0.750000 0.000000
O O14 0.854562 0.694468 0.921046
O O15 0.226690 0.984205 0.250000
O O16 0.000000 0.975009 0.181961
O O17 0.729333 0.320621 0.750000
O O18 0.500000 0.307353 0.684205
O O19 0.725273 0.260387 0.657784
O O20 0.500000 0.209235 0.679039
#
# Coordination Sequence:
#
# PCOD8258488 Si02
#       7
#    16  16  16  16  16  16  16
#     4  10  20  35  54  79 107 138 178 219 267 321
#     4   9  18  30  48  76 104 133 175 223 268 316
#     4   9  18  31  49  76 107 138 173 212 259 312
#     4  11  22  37  56  78 106 137 174 214 258 314
#     4   8  15  29  47  71 105 138 171 219 272 315
#     4   9  17  31  50  73 103 135 169 213 259 306
#     4  10  20  33  50  73 103 138 174 209 255 313
#
# _framework density 18.857391
#
# number of rings (size 3 to 8) (size 9 to 14) (size 15 to 20)
#    0.000    2.571    1.429    1.714    2.000    2.571 
#    0.000    2.857    0.000    1.714    0.000    0.000 
#    0.000    0.000    0.000    0.000    0.000    0.000 
#
# Total GULP energy -693753.188430 kJ/mol
# GULP energy per Si atom -12388.449793 kJ/mol
# Density = 1.881447 g / cm^3
# Si number density = 18.857391 Si / 1000 Ang^3
#
#
#
# Elastic Constant Matrix: (Units=GPa)
#
#
# Indices 1 2 3 4 5 6 
#
# 1 47.9913 40.2752 15.5772 0.0000 0.0000 0.0000
# 2 40.2752 160.6498 64.0093 0.0000 0.0000 0.0000
# 3 15.5772 64.0093 113.5118 0.0000 0.0000 0.0000
# 4 0.0000 0.0000 0.0000 35.6814 0.0000 0.0000
# 5 0.0000 0.0000 0.0000 0.0000 14.4623 0.0000
# 6 0.0000 0.0000 0.0000 0.0000 0.0000 22.6351
#
#
#
# Elastic Compliance Matrix: (Units=1/GPa)
#
#
# Indices 1 2 3 4 5 6 
#
# 1 0.026391 -0.006672 0.000141 0.000000 0.000000 0.000000
# 2 -0.006672 0.009716 -0.004563 0.000000 0.000000 0.000000
# 3 0.000141 -0.004563 0.011363 0.000000 0.000000 0.000000
# 4 0.000000 0.000000 0.000000 0.028026 0.000000 0.000000
# 5 0.000000 0.000000 0.000000 0.000000 0.069145 0.000000
# 6 0.000000 0.000000 0.000000 0.000000 0.000000 0.044179
#
#
# Mechanical properties :
#
#
# Convention : Reuss Voigt Hill
#
# Bulk Modulus (GPa) = 39.55530 62.43070 50.99300
# Shear Modulus (GPa) = 22.78566 28.04184 25.41375
#
# Velocity S-wave (km/s) = 3.47985 3.86041 3.67506
# Velocity P-wave (km/s) = 6.09651 7.28347 6.71626
#
# Compressibility (1/GPa) = 0.02528106
#
# Stress axis : x y z
#
# Youngs Moduli (GPa) = 37.89168 102.92751 88.00210
#
# Poissons Ratio (x) = 0.68678 -0.01240
# Poissons Ratio (y) = 0.25283 0.40155
# Poissons Ratio (z) = -0.00534 0.46965
#
# Static dielectric constant tensor:
#      x y z
#    x 3.091890 0.000000 0.000000 
#    y 0.000000 3.538360 0.000000 
#    z 0.000000 0.000000 3.661070 
# 
# 
# High freq. dielectric constant tensor:
#      x y z
#    x 1.675620 0.000000 0.000000 
#    y 0.000000 1.736670 0.000000 
#    z 0.000000 0.000000 1.740200 
# 
# From -- ./inp_files/53197.got.cif
#   From: 2010.03.12/outbox.cif.g09.slc.cpg/sg63_27_cif.got.tgz:53197.got - 2010.04.10 19:34:48.
