data_PCOD8258710
_publ_section_title
;
Structure prediction by ZEFSAII (Michael W. Deem and Ramdas Pophale) SiO2 
 PCOD8258710
Probable space group: C M C M
;
_chemical_formula_sum "Si O2"
_cell_formula_units_Z 72
_cell_length_a 19.419823
_cell_length_b 22.568041
_cell_length_c 9.439754
_cell_angle_alpha 90.000000
_cell_angle_beta 90.000000
_cell_angle_gamma 90.000000
_cell_volume 4137.136080
_symmetry_space_group_name_H-M "C M C M"
_symmetry_group_IT_number 63
_symmetry_cell_setting 'orthorhombic'
loop_
_space_group_symop_operation_xyz
x,y,z
-x,-y,1/2+z
x,-y,-z
-x,y,1/2-z
-x,-y,-z
x,y,1/2-z
-x,y,z
x,-y,1/2+z
1/2+x,1/2+y,z
1/2-x,1/2-y,1/2+z
1/2+x,1/2-y,-z
1/2-x,1/2+y,1/2-z
1/2-x,1/2-y,-z
1/2+x,1/2+y,1/2-z
1/2-x,1/2+y,z
1/2+x,1/2-y,1/2+z
loop_
_atom_site_type_symbol
_atom_site_label
_atom_site_fract_x
_atom_site_fract_y
_atom_site_fract_z
Si Si1 0.771744 0.942709 0.087888
Si Si2 0.115904 0.442018 0.084134
Si Si3 0.500000 0.559164 0.083835
Si Si4 0.500000 0.852041 0.084143
Si Si5 0.500000 0.734700 0.908193
Si Si6 0.100459 0.130780 0.589398
O O1 0.773914 0.963642 0.250000
O O2 0.694287 0.925107 0.043355
O O3 0.818123 0.882856 0.067393
O O4 0.798258 0.000000 0.000000
O O5 0.106829 0.455333 0.250000
O O6 0.067979 0.387670 0.036373
O O7 0.091821 0.500000 0.000000
O O8 0.500000 0.548643 0.250000
O O9 0.500000 0.500000 0.000000
O O10 0.432431 0.593184 0.035472
O O11 0.500000 0.841133 0.250000
O O12 0.500000 0.787994 0.015845
O O13 0.500000 0.760514 0.750000
O O14 0.428804 0.697292 0.931959
O O15 0.079279 0.110819 0.750000
#
# Coordination Sequence:
#
# PCOD8258710 Si02
#       6
#    16  16   8   8   8  16
#     4   9  17  30  49  72  99 127 156 193 240 289
#     4   9  18  32  51  76 101 125 153 191 240 292
#     4  11  20  28  42  66  94 125 161 199 239 284
#     4  10  20  34  51  71  98 128 159 197 242 286
#     4   9  19  34  50  67  90 125 168 204 237 278
#     4   9  18  33  49  66  92 126 162 201 240 280
#
# _framework density 17.403344000000001
#
# number of rings (size 3 to 8) (size 9 to 14) (size 15 to 20)
#    0.000    2.667    0.000    2.667    0.000    5.333 
#    0.000    1.111    0.000    0.000    0.000    0.000 
#    0.000    0.000    0.000    0.000    0.000    0.000 
#
# Total GULP energy -446001.170735 kJ/mol
# GULP energy per Si atom -12388.921409 kJ/mol
# Density = 1.736373 g / cm^3
# Si number density = 17.403344 Si / 1000 Ang^3
#
#
#
# Elastic Constant Matrix: (Units=GPa)
#
#
# Indices 1 2 3 4 5 6 
#
# 1 112.8529 67.0527 34.4563 0.0000 0.0000 0.0000
# 2 67.0527 115.8911 51.1119 0.0000 0.0000 0.0000
# 3 34.4563 51.1119 79.7214 0.0000 0.0000 0.0000
# 4 0.0000 0.0000 0.0000 34.0667 0.0000 0.0000
# 5 0.0000 0.0000 0.0000 0.0000 18.9312 0.0000
# 6 0.0000 0.0000 0.0000 0.0000 0.0000 19.1995
#
#
#
# Elastic Compliance Matrix: (Units=1/GPa)
#
#
# Indices 1 2 3 4 5 6 
#
# 1 0.013580 -0.007345 -0.001160 0.000000 0.000000 0.000000
# 2 -0.007345 0.016004 -0.007086 0.000000 0.000000 0.000000
# 3 -0.001160 -0.007086 0.017588 0.000000 0.000000 0.000000
# 4 0.000000 0.000000 0.000000 0.029354 0.000000 0.000000
# 5 0.000000 0.000000 0.000000 0.000000 0.052823 0.000000
# 6 0.000000 0.000000 0.000000 0.000000 0.000000 0.052085
#
#
# Mechanical properties :
#
#
# Convention : Reuss Voigt Hill
#
# Bulk Modulus (GPa) = 62.54224 68.18971 65.36597
# Shear Modulus (GPa) = 22.94160 24.82912 23.88536
#
# Velocity S-wave (km/s) = 3.63468 3.78125 3.70869
# Velocity P-wave (km/s) = 7.32321 7.63746 7.48199
#
# Compressibility (1/GPa) = 0.01598919
#
# Stress axis : x y z
#
# Youngs Moduli (GPa) = 73.64009 62.48523 56.85727
#
# Poissons Ratio (x) = 0.45898 0.06595
# Poissons Ratio (y) = 0.54091 0.40288
# Poissons Ratio (z) = 0.08541 0.44276
#
# Static dielectric constant tensor:
#      x y z
#    x 3.489880 0.000000 0.000000 
#    y 0.000000 2.652820 0.000000 
#    z 0.000000 0.000000 3.155320 
# 
# 
# High freq. dielectric constant tensor:
#      x y z
#    x 1.677530 0.000000 0.000000 
#    y 0.000000 1.644070 0.000000 
#    z 0.000000 0.000000 1.673540 
# 
# From -- ./inp_files/7901.got.cif
#   From: 2010.03.12/outbox.cif.g09.slc.cpg/sg63_4_cif.got.tgz:7901.got - 2010.04.10 19:34:48.
