data_PCOD8258607
_publ_section_title
;
Structure prediction by ZEFSAII (Michael W. Deem and Ramdas Pophale) SiO2 
 PCOD8258607
Probable space group: C M C M
;
_chemical_formula_sum "Si O2"
_cell_formula_units_Z 96
_cell_length_a 27.404531
_cell_length_b 18.923870
_cell_length_c 8.887806
_cell_angle_alpha 90.000000
_cell_angle_beta 90.000000
_cell_angle_gamma 90.000000
_cell_volume 4609.214255
_symmetry_space_group_name_H-M "C M C M"
_symmetry_group_IT_number 63
_symmetry_cell_setting 'orthorhombic'
loop_
_space_group_symop_operation_xyz
x,y,z
-x,-y,1/2+z
x,-y,-z
-x,y,1/2-z
-x,-y,-z
x,y,1/2-z
-x,y,z
x,-y,1/2+z
1/2+x,1/2+y,z
1/2-x,1/2-y,1/2+z
1/2+x,1/2-y,-z
1/2-x,1/2+y,1/2-z
1/2-x,1/2-y,-z
1/2+x,1/2+y,1/2-z
1/2-x,1/2+y,z
1/2+x,1/2-y,1/2+z
loop_
_atom_site_type_symbol
_atom_site_label
_atom_site_fract_x
_atom_site_fract_y
_atom_site_fract_z
Si Si1 0.346262 0.925169 0.571913
Si Si2 0.772094 0.318376 0.419398
Si Si3 0.694190 0.563448 0.917949
Si Si4 0.943216 0.216867 0.415280
Si Si5 0.554735 0.856353 0.574184
Si Si6 0.907291 0.070173 0.427262
O O1 0.337212 0.928602 0.750000
O O2 0.315343 0.858900 0.507385
O O3 0.403942 0.914043 0.533075
O O4 0.330374 0.000000 0.500000
O O5 0.790237 0.299596 0.250000
O O6 0.750000 0.250000 0.500000
O O7 0.725811 0.367901 0.408816
O O8 0.676777 0.541478 0.750000
O O9 0.724399 0.500000 0.000000
O O10 0.648834 0.575940 0.027404
O O11 0.918218 0.220718 0.250000
O O12 0.924196 0.281979 0.513716
O O13 0.931996 0.141387 0.492105
O O14 0.000000 0.225806 0.397884
O O15 0.550258 0.847207 0.750000
O O16 0.500000 0.876308 0.510298
O O17 0.914896 0.065612 0.250000
O O18 0.931536 0.000000 0.500000
#
# Coordination Sequence:
#
# PCOD8258607 Si02
#       6
#    16  16  16  16  16  16
#     4  11  24  42  65  94 127 163 204 252 305 364
#     4  11  25  42  62  90 122 159 200 247 300 357
#     4  10  21  37  57  80 109 147 189 235 285 341
#     4   9  19  35  54  79 112 149 192 243 299 358
#     4   9  20  39  62  89 121 158 201 249 303 363
#     4  10  20  33  52  79 109 148 192 240 292 348
#
# _framework density 20.827845
#
# number of rings (size 3 to 8) (size 9 to 14) (size 15 to 20)
#    0.000    2.000    0.000    3.500    2.333    7.333 
#    0.000    0.000    0.000    0.000    0.000    0.000 
#    0.000    0.000    0.000    0.000    0.000    0.000 
#
# Total GULP energy -594763.281842 kJ/mol
# GULP energy per Si atom -12390.901705 kJ/mol
# Density = 2.078044 g / cm^3
# Si number density = 20.827845 Si / 1000 Ang^3
#
#
#
# Elastic Constant Matrix: (Units=GPa)
#
#
# Indices 1 2 3 4 5 6 
#
# 1 55.2471 45.3403 37.7139 0.0000 0.0000 0.0000
# 2 45.3403 119.2308 51.6391 0.0000 0.0000 0.0000
# 3 37.7139 51.6391 93.6924 0.0000 0.0000 0.0000
# 4 0.0000 0.0000 0.0000 37.6560 0.0000 0.0000
# 5 0.0000 0.0000 0.0000 0.0000 22.1237 0.0000
# 6 0.0000 0.0000 0.0000 0.0000 0.0000 28.6490
#
#
#
# Elastic Compliance Matrix: (Units=1/GPa)
#
#
# Indices 1 2 3 4 5 6 
#
# 1 0.029919 -0.008093 -0.007582 0.000000 0.000000 0.000000
# 2 -0.008093 0.013206 -0.004021 0.000000 0.000000 0.000000
# 3 -0.007582 -0.004021 0.015942 0.000000 0.000000 0.000000
# 4 0.000000 0.000000 0.000000 0.026556 0.000000 0.000000
# 5 0.000000 0.000000 0.000000 0.000000 0.045200 0.000000
# 6 0.000000 0.000000 0.000000 0.000000 0.000000 0.034905
#
#
# Mechanical properties :
#
#
# Convention : Reuss Voigt Hill
#
# Bulk Modulus (GPa) = 50.83087 59.72854 55.27970
# Shear Modulus (GPa) = 23.62065 26.58419 25.10242
#
# Velocity S-wave (km/s) = 3.37128 3.57652 3.47541
# Velocity P-wave (km/s) = 6.29383 6.76719 6.53479
#
# Compressibility (1/GPa) = 0.01967309
#
# Stress axis : x y z
#
# Youngs Moduli (GPa) = 33.42405 75.72196 62.72926
#
# Poissons Ratio (x) = 0.61284 0.47564
# Poissons Ratio (y) = 0.27051 0.25223
# Poissons Ratio (z) = 0.25344 0.30447
#
# Static dielectric constant tensor:
#      x y z
#    x 3.797550 0.000000 0.000000 
#    y 0.000000 5.509190 0.000000 
#    z 0.000000 0.000000 4.390520 
# 
# 
# High freq. dielectric constant tensor:
#      x y z
#    x 1.807990 0.000000 0.000000 
#    y 0.000000 1.823500 0.000000 
#    z 0.000000 0.000000 1.817950 
# 
# From -- ./inp_files/12340.got.cif
#   From: 2010.03.12/outbox.cif.g09.slc.cpg/sg63_7_cif.got.tgz:12340.got - 2010.04.10 19:34:48.
