data_PCOD8258942
_publ_section_title
;
Structure prediction by ZEFSAII (Michael W. Deem and Ramdas Pophale) SiO2 
 PCOD8258942
Probable space group: C M C M
;
_chemical_formula_sum "Si O2"
_cell_formula_units_Z 96
_cell_length_a 9.161261
_cell_length_b 27.476672
_cell_length_c 18.187491
_cell_angle_alpha 90.000000
_cell_angle_beta 90.000000
_cell_angle_gamma 90.000000
_cell_volume 4578.172760
_symmetry_space_group_name_H-M "C M C M"
_symmetry_group_IT_number 63
_symmetry_cell_setting 'orthorhombic'
loop_
_space_group_symop_operation_xyz
x,y,z
-x,-y,1/2+z
x,-y,-z
-x,y,1/2-z
-x,-y,-z
x,y,1/2-z
-x,y,z
x,-y,1/2+z
1/2+x,1/2+y,z
1/2-x,1/2-y,1/2+z
1/2+x,1/2-y,-z
1/2-x,1/2+y,1/2-z
1/2-x,1/2-y,-z
1/2+x,1/2+y,1/2-z
1/2-x,1/2+y,z
1/2+x,1/2-y,1/2+z
loop_
_atom_site_type_symbol
_atom_site_label
_atom_site_fract_x
_atom_site_fract_y
_atom_site_fract_z
Si Si1 0.161355 0.895273 0.835527
Si Si2 0.833572 0.511810 0.336910
Si Si3 0.665470 0.140865 0.959083
Si Si4 0.170564 0.955053 0.447420
Si Si5 0.669108 0.786330 0.335060
Si Si6 0.331150 0.805969 0.605935
O O1 0.141869 0.904047 0.750000
O O2 0.253153 0.940099 0.868489
O O3 0.245522 0.845330 0.846386
O O4 0.000000 0.894401 0.872894
O O5 0.823216 0.507359 0.250000
O O6 0.754434 0.464647 0.370746
O O7 0.000000 0.514330 0.363599
O O8 0.500000 0.121320 0.963112
O O9 0.773001 0.096447 0.978640
O O10 0.697723 0.163378 0.878679
O O11 0.690596 0.183120 0.019543
O O12 0.000000 0.951274 0.432319
O O13 0.210348 0.000000 0.500000
O O14 0.713761 0.793802 0.250000
O O15 0.500000 0.770642 0.341887
O O16 0.768088 0.746245 0.373885
O O17 0.500000 0.807665 0.628758
#
# Coordination Sequence:
#
# PCOD8258942 Si02
#       6
#    16  16  16  16  16  16
#     4  10  20  34  54  82 117 155 195 242 294 347
#     4  10  21  37  58  84 115 153 197 245 297 353
#     4  10  23  41  60  85 117 153 194 241 292 346
#     4  11  24  40  60  88 120 156 198 244 295 351
#     4  10  22  41  63  86 115 152 193 237 287 345
#     4  11  22  36  58  87 118 152 191 239 292 347
#
# _framework density 20.969063999999999
#
# number of rings (size 3 to 8) (size 9 to 14) (size 15 to 20)
#    0.000    1.667    0.000    4.000    0.000   11.000 
#    0.000    1.667    0.000    0.000    0.000    0.000 
#    0.000    0.000    0.000    0.000    0.000    0.000 
#
# Total GULP energy -595356.352446 kJ/mol
# GULP energy per Si atom -12403.257343 kJ/mol
# Density = 2.092134 g / cm^3
# Si number density = 20.969064 Si / 1000 Ang^3
#
#
#
# Elastic Constant Matrix: (Units=GPa)
#
#
# Indices 1 2 3 4 5 6 
#
# 1 151.1258 64.8287 54.5248 0.0000 0.0000 0.0000
# 2 64.8287 96.6565 44.4742 0.0000 0.0000 0.0000
# 3 54.5248 44.4742 77.8870 0.0000 0.0000 0.0000
# 4 0.0000 0.0000 0.0000 35.0580 0.0000 0.0000
# 5 0.0000 0.0000 0.0000 0.0000 27.3152 0.0000
# 6 0.0000 0.0000 0.0000 0.0000 0.0000 37.5005
#
#
#
# Elastic Compliance Matrix: (Units=1/GPa)
#
#
# Indices 1 2 3 4 5 6 
#
# 1 0.010307 -0.004873 -0.004433 0.000000 0.000000 0.000000
# 2 -0.004873 0.016337 -0.005917 0.000000 0.000000 0.000000
# 3 -0.004433 -0.005917 0.019321 0.000000 0.000000 0.000000
# 4 0.000000 0.000000 0.000000 0.028524 0.000000 0.000000
# 5 0.000000 0.000000 0.000000 0.000000 0.036610 0.000000
# 6 0.000000 0.000000 0.000000 0.000000 0.000000 0.026666
#
#
# Mechanical properties :
#
#
# Convention : Reuss Voigt Hill
#
# Bulk Modulus (GPa) = 64.43787 72.59162 68.51474
# Shear Modulus (GPa) = 28.83780 30.76417 29.80098
#
# Velocity S-wave (km/s) = 3.71247 3.83446 3.77395
# Velocity P-wave (km/s) = 7.01236 7.36870 7.19274
#
# Compressibility (1/GPa) = 0.01551882
#
# Stress axis : x y z
#
# Youngs Moduli (GPa) = 97.02389 61.21028 51.75768
#
# Poissons Ratio (x) = 0.29830 0.22942
# Poissons Ratio (y) = 0.47283 0.30625
# Poissons Ratio (z) = 0.43006 0.36219
#
# Static dielectric constant tensor:
#      x y z
#    x 3.974160 0.000000 0.000000 
#    y 0.000000 3.663540 0.000000 
#    z 0.000000 0.000000 3.810440 
# 
# 
# High freq. dielectric constant tensor:
#      x y z
#    x 1.829870 0.000000 0.000000 
#    y 0.000000 1.812790 0.000000 
#    z 0.000000 0.000000 1.826170 
# 
# From -- ./inp_files/51417.got.cif
#   From: 2010.03.12/outbox.cif.g09.slc.cpg/sg63_26_cif.got.tgz:51417.got - 2010.04.10 19:34:48.
