data_PCOD8258571
_publ_section_title
;
Structure prediction by ZEFSAII (Michael W. Deem and Ramdas Pophale) SiO2 
 PCOD8258571
Probable space group: C M C M
;
_chemical_formula_sum "Si O2"
_cell_formula_units_Z 96
_cell_length_a 9.097352
_cell_length_b 25.332401
_cell_length_c 22.977227
_cell_angle_alpha 90.000000
_cell_angle_beta 90.000000
_cell_angle_gamma 90.000000
_cell_volume 5295.280470
_symmetry_space_group_name_H-M "C M C M"
_symmetry_group_IT_number 63
_symmetry_cell_setting 'orthorhombic'
loop_
_space_group_symop_operation_xyz
x,y,z
-x,-y,1/2+z
x,-y,-z
-x,y,1/2-z
-x,-y,-z
x,y,1/2-z
-x,y,z
x,-y,1/2+z
1/2+x,1/2+y,z
1/2-x,1/2-y,1/2+z
1/2+x,1/2-y,-z
1/2-x,1/2+y,1/2-z
1/2-x,1/2-y,-z
1/2+x,1/2+y,1/2-z
1/2-x,1/2+y,z
1/2+x,1/2-y,1/2+z
loop_
_atom_site_type_symbol
_atom_site_label
_atom_site_fract_x
_atom_site_fract_y
_atom_site_fract_z
Si Si1 0.329858 0.805539 0.317018
Si Si2 0.827869 0.301638 0.682691
Si Si3 0.668586 0.994741 0.683393
Si Si4 0.673786 0.094186 0.609410
Si Si5 0.171795 0.939908 0.501963
Si Si6 0.327630 0.600677 0.370480
O O1 0.304618 0.821283 0.250000
O O2 0.500000 0.792075 0.328650
O O3 0.233154 0.755442 0.334907
O O4 0.274474 0.854057 0.356052
O O5 0.792539 0.314132 0.750000
O O6 0.748507 0.343945 0.642285
O O7 0.000000 0.303110 0.670049
O O8 0.683508 0.012568 0.750000
O O9 0.500000 0.980910 0.668134
O O10 0.766421 0.943404 0.672979
O O11 0.728395 0.042629 0.644227
O O12 0.500000 0.093491 0.603028
O O13 0.746012 0.095019 0.546031
O O14 0.210808 0.915022 0.563821
O O15 0.000000 0.938310 0.488183
O O16 0.230241 0.000000 0.500000
O O17 0.500000 0.606143 0.359884
#
# Coordination Sequence:
#
# PCOD8258571 Si02
#       6
#    16  16  16  16  16  16
#     4   9  18  35  58  83 112 144 178 219 269 325
#     4  10  21  37  57  82 111 142 178 223 273 322
#     4  10  20  33  51  79 113 142 171 216 271 323
#     4  10  20  34  56  83 109 141 182 222 265 321
#     4  10  21  38  55  75 108 147 184 226 272 316
#     4  11  22  36  55  78 106 143 185 224 268 321
#
# _framework density 18.129352000000001
#
# number of rings (size 3 to 8) (size 9 to 14) (size 15 to 20)
#    0.000    2.000    1.667    2.000    0.000    7.667 
#    0.000    0.833    0.000    3.000    0.000    0.000 
#    0.000    0.000    0.000    0.000    0.000    0.000 
#
# Total GULP energy -595447.689045 kJ/mol
# GULP energy per Si atom -12405.160188 kJ/mol
# Density = 1.808809 g / cm^3
# Si number density = 18.129352 Si / 1000 Ang^3
#
#
#
# Elastic Constant Matrix: (Units=GPa)
#
#
# Indices 1 2 3 4 5 6 
#
# 1 60.8351 51.2279 40.1165 0.0000 0.0000 0.0000
# 2 51.2279 127.1179 57.2412 0.0000 0.0000 0.0000
# 3 40.1165 57.2412 86.8983 0.0000 0.0000 0.0000
# 4 0.0000 0.0000 0.0000 32.1137 0.0000 0.0000
# 5 0.0000 0.0000 0.0000 0.0000 28.5332 0.0000
# 6 0.0000 0.0000 0.0000 0.0000 0.0000 31.5904
#
#
#
# Elastic Compliance Matrix: (Units=1/GPa)
#
#
# Indices 1 2 3 4 5 6 
#
# 1 0.028220 -0.007828 -0.007871 0.000000 0.000000 0.000000
# 2 -0.007828 0.013356 -0.005184 0.000000 0.000000 0.000000
# 3 -0.007871 -0.005184 0.018556 0.000000 0.000000 0.000000
# 4 0.000000 0.000000 0.000000 0.031139 0.000000 0.000000
# 5 0.000000 0.000000 0.000000 0.000000 0.035047 0.000000
# 6 0.000000 0.000000 0.000000 0.000000 0.000000 0.031655
#
#
# Mechanical properties :
#
#
# Convention : Reuss Voigt Hill
#
# Bulk Modulus (GPa) = 54.44949 63.55807 59.00378
# Shear Modulus (GPa) = 24.28810 26.86518 25.57664
#
# Velocity S-wave (km/s) = 3.66418 3.85367 3.76012
# Velocity P-wave (km/s) = 6.92825 7.41183 7.17412
#
# Compressibility (1/GPa) = 0.01836565
#
# Stress axis : x y z
#
# Youngs Moduli (GPa) = 35.43524 74.87458 53.89069
#
# Poissons Ratio (x) = 0.58614 0.42419
# Poissons Ratio (y) = 0.27740 0.27935
# Poissons Ratio (z) = 0.27892 0.38813
#
# Static dielectric constant tensor:
#      x y z
#    x 3.296870 0.000000 0.000000 
#    y 0.000000 3.361020 0.000000 
#    z 0.000000 0.000000 3.300940 
# 
# 
# High freq. dielectric constant tensor:
#      x y z
#    x 1.700900 0.000000 0.000000 
#    y 0.000000 1.704630 0.000000 
#    z 0.000000 0.000000 1.700210 
# 
# From -- ./inp_files/51259.got.cif
#   From: 2010.03.12/outbox.cif.g09.slc.cpg/sg63_26_cif.got.tgz:51259.got - 2010.04.10 19:34:48.
