data_PCOD8258658
_publ_section_title
;
Structure prediction by ZEFSAII (Michael W. Deem and Ramdas Pophale) SiO2 
 PCOD8258658
Probable space group: C M C M
;
_chemical_formula_sum "Si O2"
_cell_formula_units_Z 80
_cell_length_a 19.320357
_cell_length_b 9.875224
_cell_length_c 23.990230
_cell_angle_alpha 90.000000
_cell_angle_beta 90.000000
_cell_angle_gamma 90.000000
_cell_volume 4577.164429
_symmetry_space_group_name_H-M "C M C M"
_symmetry_group_IT_number 63
_symmetry_cell_setting 'orthorhombic'
loop_
_space_group_symop_operation_xyz
x,y,z
-x,-y,1/2+z
x,-y,-z
-x,y,1/2-z
-x,-y,-z
x,y,1/2-z
-x,y,z
x,-y,1/2+z
1/2+x,1/2+y,z
1/2-x,1/2-y,1/2+z
1/2+x,1/2-y,-z
1/2-x,1/2+y,1/2-z
1/2-x,1/2-y,-z
1/2+x,1/2+y,1/2-z
1/2-x,1/2+y,z
1/2+x,1/2-y,1/2+z
loop_
_atom_site_type_symbol
_atom_site_label
_atom_site_fract_x
_atom_site_fract_y
_atom_site_fract_z
Si Si1 0.175096 0.286942 0.372845
Si Si2 0.920840 0.894096 0.453442
Si Si3 0.175865 0.310290 0.250000
Si Si4 0.079711 0.636632 0.973771
Si Si5 0.192288 0.022550 0.869412
Si Si6 0.713974 0.478817 0.750000
O O1 0.138237 0.297338 0.310721
O O2 0.117122 0.322902 0.417192
O O3 0.238078 0.392249 0.380298
O O4 0.203159 0.135361 0.385767
O O5 0.910680 0.745918 0.477940
O O6 0.871970 0.910090 0.400463
O O7 0.000000 0.921430 0.435017
O O8 0.897194 0.000000 0.500000
O O9 0.210588 0.456033 0.250000
O O10 0.228985 0.182496 0.250000
O O11 0.000000 0.617921 0.957216
O O12 0.111027 0.500000 0.000000
O O13 0.171977 0.028439 0.804123
#
# Coordination Sequence:
#
# PCOD8258658 Si02
#       6
#    16  16   8  16  16   8
#     4  10  20  34  54  79 105 133 170 212 252 302
#     4  10  20  36  54  72 101 138 169 205 255 305
#     4   8  16  32  51  73 102 134 164 203 256 299
#     4  10  22  38  54  73 103 139 172 210 257 306
#     4  10  20  33  54  79 104 134 170 211 254 301
#     4   8  16  32  49  73 104 132 164 205 254 301
#
# _framework density 17.478069999999999
#
# number of rings (size 3 to 8) (size 9 to 14) (size 15 to 20)
#    0.000    2.400    2.000    0.000    2.800    1.600 
#    0.000    1.000    0.000    3.600    0.000    4.200 
#    0.000    0.000    0.000    0.000    0.000    0.000 
#
# Total GULP energy -495557.651507 kJ/mol
# GULP energy per Si atom -12388.941288 kJ/mol
# Density = 1.743829 g / cm^3
# Si number density = 17.478070 Si / 1000 Ang^3
#
#
#
# Elastic Constant Matrix: (Units=GPa)
#
#
# Indices 1 2 3 4 5 6 
#
# 1 60.6510 25.8685 50.2820 0.0000 0.0000 0.0000
# 2 25.8685 102.4286 37.3878 0.0000 0.0000 0.0000
# 3 50.2820 37.3878 99.9719 0.0000 0.0000 0.0000
# 4 0.0000 0.0000 0.0000 24.0484 0.0000 0.0000
# 5 0.0000 0.0000 0.0000 0.0000 -1.8173 0.0000
# 6 0.0000 0.0000 0.0000 0.0000 0.0000 19.8475
#
#
#
# Elastic Compliance Matrix: (Units=1/GPa)
#
#
# Indices 1 2 3 4 5 6 
#
# 1 0.028738 -0.002295 -0.013596 0.000000 0.000000 0.000000
# 2 -0.002295 0.011490 -0.003143 0.000000 0.000000 0.000000
# 3 -0.013596 -0.003143 0.018016 0.000000 0.000000 0.000000
# 4 0.000000 0.000000 0.000000 0.041583 0.000000 0.000000
# 5 0.000000 0.000000 0.000000 0.000000 -0.550279 0.000000
# 6 0.000000 0.000000 0.000000 0.000000 0.000000 0.050384
#
#
# Mechanical properties :
#
#
# Convention : Reuss Voigt Hill
#
# Bulk Modulus (GPa) = 49.56161 54.45868 52.01015
# Shear Modulus (GPa) = -14.07359 18.38328 2.15484
#
# Velocity S-wave (km/s) = -2.84071 3.24665 1.11156
# Velocity P-wave (km/s) = 4.20220 6.72906 5.60976
#
# Compressibility (1/GPa) = 0.02017691
#
# Stress axis : x y z
#
# Youngs Moduli (GPa) = 34.79697 87.03511 55.50560
#
# Poissons Ratio (x) = 0.19977 0.75464
# Poissons Ratio (y) = 0.07987 0.17443
# Poissons Ratio (z) = 0.47309 0.27351
#
# Static dielectric constant tensor:
#      x y z
#    x 2.884990 0.000000 0.000000 
#    y 0.000000 3.599820 0.000000 
#    z 0.000000 0.000000 3.513220 
# 
# 
# High freq. dielectric constant tensor:
#      x y z
#    x 1.631010 0.000000 0.000000 
#    y 0.000000 1.698720 0.000000 
#    z 0.000000 0.000000 1.688380 
# 
# From -- ./inp_files/64301.got.cif
#   From: 2010.03.12/outbox.cif.g09.slc.cpg/sg63_33_cif.got.tgz:64301.got - 2010.04.10 19:34:48.
