data_PCOD8258667
_publ_section_title
;
Structure prediction by ZEFSAII (Michael W. Deem and Ramdas Pophale) SiO2 
 PCOD8258667
Probable space group: C M C M
;
_chemical_formula_sum "Si O2"
_cell_formula_units_Z 64
_cell_length_a 14.063473
_cell_length_b 16.563376
_cell_length_c 13.419271
_cell_angle_alpha 90.000000
_cell_angle_beta 90.000000
_cell_angle_gamma 90.000000
_cell_volume 3125.866081
_symmetry_space_group_name_H-M "C M C M"
_symmetry_group_IT_number 63
_symmetry_cell_setting 'orthorhombic'
loop_
_space_group_symop_operation_xyz
x,y,z
-x,-y,1/2+z
x,-y,-z
-x,y,1/2-z
-x,-y,-z
x,y,1/2-z
-x,y,z
x,-y,1/2+z
1/2+x,1/2+y,z
1/2-x,1/2-y,1/2+z
1/2+x,1/2-y,-z
1/2-x,1/2+y,1/2-z
1/2-x,1/2-y,-z
1/2+x,1/2+y,1/2-z
1/2-x,1/2+y,z
1/2+x,1/2-y,1/2+z
loop_
_atom_site_type_symbol
_atom_site_label
_atom_site_fract_x
_atom_site_fract_y
_atom_site_fract_z
Si Si1 0.608211 0.273672 0.860428
Si Si2 0.103237 0.094158 0.983222
Si Si3 0.807831 0.383360 0.444653
Si Si4 0.610779 0.959038 0.863254
O O1 0.653157 0.279123 0.750000
O O2 0.500000 0.245485 0.853293
O O3 0.661605 0.207774 0.926801
O O4 0.617421 0.360865 0.911305
O O5 0.195368 0.113448 0.916396
O O6 0.000000 0.120854 0.936000
O O7 0.100652 0.000000 0.000000
O O8 0.864264 0.446214 0.375250
O O9 0.826051 0.405711 0.561073
O O10 0.632787 0.932363 0.750000
O O11 0.500000 0.946489 0.888837
#
# Coordination Sequence:
#
# PCOD8258667 Si02
#       4
#    16  16  16  16
#     4  10  21  37  61  90 117 150 194 242 293 353
#     4  10  21  39  58  80 114 156 200 243 287 339
#     4  11  19  36  59  85 117 153 196 241 293 344
#     4  10  20  33  54  86 121 155 191 236 293 352
#
# _framework density 20.474326000000001
#
# number of rings (size 3 to 8) (size 9 to 14) (size 15 to 20)
#    0.000    1.750    2.500    4.500    0.000    3.000 
#    0.000    0.000    0.000    4.500    0.000   10.500 
#    0.000    0.000    0.000    0.000    0.000    0.000 
#
# Total GULP energy -396612.867405 kJ/mol
# GULP energy per Si atom -12394.152106 kJ/mol
# Density = 2.042773 g / cm^3
# Si number density = 20.474326 Si / 1000 Ang^3
#
#
#
# Elastic Constant Matrix: (Units=GPa)
#
#
# Indices 1 2 3 4 5 6 
#
# 1 126.7071 33.4116 25.5376 0.0000 0.0000 0.0000
# 2 33.4116 128.4925 46.0683 0.0000 0.0000 0.0000
# 3 25.5376 46.0683 82.7080 0.0000 0.0000 0.0000
# 4 0.0000 0.0000 0.0000 19.8204 0.0000 0.0000
# 5 0.0000 0.0000 0.0000 0.0000 15.9862 0.0000
# 6 0.0000 0.0000 0.0000 0.0000 0.0000 -27.0300
#
#
#
# Elastic Compliance Matrix: (Units=1/GPa)
#
#
# Indices 1 2 3 4 5 6 
#
# 1 0.008677 -0.001619 -0.001777 0.000000 0.000000 0.000000
# 2 -0.001619 0.010027 -0.005085 0.000000 0.000000 0.000000
# 3 -0.001777 -0.005085 0.015472 0.000000 0.000000 0.000000
# 4 0.000000 0.000000 0.000000 0.050453 0.000000 0.000000
# 5 0.000000 0.000000 0.000000 0.000000 0.062554 0.000000
# 6 0.000000 0.000000 0.000000 0.000000 0.000000 -0.036996
#
#
# Mechanical properties :
#
#
# Convention : Reuss Voigt Hill
#
# Bulk Modulus (GPa) = 58.09579 60.88251 59.48915
# Shear Modulus (GPa) = 37.62579 17.28133 27.45356
#
# Velocity S-wave (km/s) = 4.29150 2.90840 3.66577
# Velocity P-wave (km/s) = 7.27959 6.40929 6.85826
#
# Compressibility (1/GPa) = 0.01721295
#
# Stress axis : x y z
#
# Youngs Moduli (GPa) = 115.24186 99.73417 64.63350
#
# Poissons Ratio (x) = 0.16148 0.11488
# Poissons Ratio (y) = 0.18659 0.32866
# Poissons Ratio (z) = 0.20484 0.50714
#
# Static dielectric constant tensor:
#      x y z
#    x 4.366810 0.000000 0.000000 
#    y 0.000000 3.543170 0.000000 
#    z 0.000000 0.000000 3.533450 
# 
# 
# High freq. dielectric constant tensor:
#      x y z
#    x 1.819790 0.000000 0.000000 
#    y 0.000000 1.796420 0.000000 
#    z 0.000000 0.000000 1.769500 
# 
# From -- ./inp_files/31116.got.cif
#   From: 2010.03.12/outbox.cif.g09.slc.cpg/sg63_16_cif.got.tgz:31116.got - 2010.04.10 19:34:48.
