data_PCOD8258109
_publ_section_title
;
Structure prediction by ZEFSAII (Michael W. Deem and Ramdas Pophale) SiO2 
 PCOD8258109
Probable space group: C M C M
;
_chemical_formula_sum "Si O2"
_cell_formula_units_Z 104
_cell_length_a 18.231347
_cell_length_b 15.330344
_cell_length_c 18.959424
_cell_angle_alpha 90.000000
_cell_angle_beta 90.000000
_cell_angle_gamma 90.000000
_cell_volume 5299.022900
_symmetry_space_group_name_H-M "C M C M"
_symmetry_group_IT_number 63
_symmetry_cell_setting 'orthorhombic'
loop_
_space_group_symop_operation_xyz
x,y,z
-x,-y,1/2+z
x,-y,-z
-x,y,1/2-z
-x,-y,-z
x,y,1/2-z
-x,y,z
x,-y,1/2+z
1/2+x,1/2+y,z
1/2-x,1/2-y,1/2+z
1/2+x,1/2-y,-z
1/2-x,1/2+y,1/2-z
1/2-x,1/2-y,-z
1/2+x,1/2+y,1/2-z
1/2-x,1/2+y,z
1/2+x,1/2-y,1/2+z
loop_
_atom_site_type_symbol
_atom_site_label
_atom_site_fract_x
_atom_site_fract_y
_atom_site_fract_z
Si Si1 0.652832 0.048477 0.396989
Si Si2 0.582032 0.379886 0.104739
Si Si3 0.307777 0.490775 0.750000
Si Si4 0.918419 0.806481 0.960755
Si Si5 0.849852 0.175282 0.750000
Si Si6 0.085360 0.612350 0.961092
Si Si7 0.164315 0.622767 0.250000
Si Si8 0.328114 0.458119 0.601432
O O1 0.624985 0.102955 0.463620
O O2 0.625041 0.094661 0.323795
O O3 0.740558 0.039550 0.403275
O O4 0.619032 0.951445 0.401860
O O5 0.500000 0.418721 0.111127
O O6 0.602724 0.337239 0.179337
O O7 0.635254 0.454339 0.069800
O O8 0.585154 0.304007 0.046018
O O9 0.289794 0.596267 0.750000
O O10 0.235921 0.434492 0.750000
O O11 0.355515 0.464866 0.682498
O O12 0.901526 0.709703 0.932818
O O13 0.856904 0.868773 0.929682
O O14 0.000000 0.836341 0.936564
O O15 0.817627 0.273504 0.750000
O O16 0.000000 0.591318 0.971780
#
# Coordination Sequence:
#
# PCOD8258109 Si02
#       8
#    16  16   8  16   8  16   8  16
#     4  10  21  38  59  84 114 150 191 241 292 343
#     4  10  20  34  55  84 118 152 188 240 294 342
#     4   8  20  39  51  81 120 151 182 231 298 345
#     4  10  21  36  56  84 116 152 195 240 286 344
#     4  10  19  36  60  78 114 155 191 239 284 358
#     4  10  22  41  58  81 117 157 193 236 293 346
#     4  10  20  39  57  89 114 144 196 242 293 333
#     4  10  20  36  56  83 117 148 192 237 293 348
#
# _framework density 19.626259999999998
#
# number of rings (size 3 to 8) (size 9 to 14) (size 15 to 20)
#    0.000    2.154    0.000    3.000    4.308    1.846 
#   16.615    5.000    0.000    1.846    0.000    0.000 
#    0.000    0.000    0.000    0.000    0.000    0.000 
#
# Total GULP energy -644228.708792 kJ/mol
# GULP energy per Si atom -12389.013631 kJ/mol
# Density = 1.958159 g / cm^3
# Si number density = 19.626260 Si / 1000 Ang^3
#
#
#
# Elastic Constant Matrix: (Units=GPa)
#
#
# Indices 1 2 3 4 5 6 
#
# 1 103.0528 52.2621 25.6587 0.0000 0.0000 0.0000
# 2 52.2621 140.1680 58.0281 0.0000 0.0000 0.0000
# 3 25.6587 58.0281 84.8203 0.0000 0.0000 0.0000
# 4 0.0000 0.0000 0.0000 25.2321 0.0000 0.0000
# 5 0.0000 0.0000 0.0000 0.0000 7.3873 0.0000
# 6 0.0000 0.0000 0.0000 0.0000 0.0000 28.4577
#
#
#
# Elastic Compliance Matrix: (Units=1/GPa)
#
#
# Indices 1 2 3 4 5 6 
#
# 1 0.012005 -0.004147 -0.000794 0.000000 0.000000 0.000000
# 2 -0.004147 0.011386 -0.006535 0.000000 0.000000 0.000000
# 3 -0.000794 -0.006535 0.016501 0.000000 0.000000 0.000000
# 4 0.000000 0.000000 0.000000 0.039632 0.000000 0.000000
# 5 0.000000 0.000000 0.000000 0.000000 0.135368 0.000000
# 6 0.000000 0.000000 0.000000 0.000000 0.000000 0.035140
#
#
# Mechanical properties :
#
#
# Convention : Reuss Voigt Hill
#
# Bulk Modulus (GPa) = 59.03702 66.65990 62.84846
# Shear Modulus (GPa) = 17.94495 25.02157 21.48326
#
# Velocity S-wave (km/s) = 3.02708 3.57445 3.31209
# Velocity P-wave (km/s) = 6.50873 7.14661 6.83511
#
# Compressibility (1/GPa) = 0.01693853
#
# Stress axis : x y z
#
# Youngs Moduli (GPa) = 83.30052 87.82736 60.60365
#
# Poissons Ratio (x) = 0.36423 0.04814
# Poissons Ratio (y) = 0.34546 0.39604
# Poissons Ratio (z) = 0.06617 0.57395
#
# Static dielectric constant tensor:
#      x y z
#    x 3.451650 0.000000 0.000000 
#    y 0.000000 3.635210 0.000000 
#    z 0.000000 0.000000 4.278090 
# 
# 
# High freq. dielectric constant tensor:
#      x y z
#    x 1.750250 0.000000 0.000000 
#    y 0.000000 1.769630 0.000000 
#    z 0.000000 0.000000 1.770810 
# 
# From -- ./inp_files/55666.got.cif
#   From: 2010.03.12/outbox.cif.g09.slc.cpg/sg63_28_cif.got.tgz:55666.got - 2010.04.10 19:34:48.
