data_PCOD8258159
_publ_section_title
;
Structure prediction by ZEFSAII (Michael W. Deem and Ramdas Pophale) SiO2 
 PCOD8258159
Probable space group: C M C M
;
_chemical_formula_sum "Si O2"
_cell_formula_units_Z 88
_cell_length_a 12.127409
_cell_length_b 19.724280
_cell_length_c 19.078572
_cell_angle_alpha 90.000000
_cell_angle_beta 90.000000
_cell_angle_gamma 90.000000
_cell_volume 4563.678574
_symmetry_space_group_name_H-M "C M C M"
_symmetry_group_IT_number 63
_symmetry_cell_setting 'orthorhombic'
loop_
_space_group_symop_operation_xyz
x,y,z
-x,-y,1/2+z
x,-y,-z
-x,y,1/2-z
-x,-y,-z
x,y,1/2-z
-x,y,z
x,-y,1/2+z
1/2+x,1/2+y,z
1/2-x,1/2-y,1/2+z
1/2+x,1/2-y,-z
1/2-x,1/2+y,1/2-z
1/2-x,1/2-y,-z
1/2+x,1/2+y,1/2-z
1/2-x,1/2+y,z
1/2+x,1/2-y,1/2+z
loop_
_atom_site_type_symbol
_atom_site_label
_atom_site_fract_x
_atom_site_fract_y
_atom_site_fract_z
Si Si1 0.281520 0.934300 0.832818
Si Si2 0.259711 0.841536 0.440719
Si Si3 0.724380 0.694354 0.098704
Si Si4 0.500000 0.285874 0.830857
Si Si5 0.500000 0.855768 0.391752
Si Si6 0.870616 0.974763 0.421710
Si Si7 0.500000 0.998541 0.330761
O O1 0.268705 0.942393 0.750000
O O2 0.298547 0.855475 0.854145
O O3 0.389723 0.970644 0.864429
O O4 0.175066 0.968547 0.868681
O O5 0.234261 0.772397 0.396650
O O6 0.219891 0.831169 0.519390
O O7 0.391501 0.854882 0.440811
O O8 0.191970 0.903483 0.407035
O O9 0.603443 0.683376 0.129461
O O10 0.500000 0.308090 0.750000
O O11 0.500000 0.205005 0.836620
O O12 0.500000 0.919092 0.340981
O O13 0.000000 0.964273 0.407516
O O14 0.846818 0.000000 0.500000
O O15 0.500000 0.018087 0.250000
#
# Coordination Sequence:
#
# PCOD8258159 Si02
#       7
#    16  16  16   8   8  16   8
#     4  11  23  40  61  87 121 160 204 254 308 365
#     4  10  21  39  61  89 122 160 199 256 310 363
#     4  10  22  38  56  90 122 155 203 248 304 368
#     4  10  21  36  61  86 118 164 206 251 303 363
#     4  10  19  37  62  89 117 151 209 254 305 362
#     4  11  23  40  63  90 123 162 205 254 309 369
#     4  10  21  37  59  84 118 155 198 251 303 366
#
# _framework density 19.282689999999999
#
# number of rings (size 3 to 8) (size 9 to 14) (size 15 to 20)
#    0.000    1.636    3.636    0.818    2.545    1.091 
#    3.273    2.727    0.000    0.000    0.000    0.000 
#    0.000    0.000    0.000    0.000    0.000    0.000 
#
# Total GULP energy -545560.019493 kJ/mol
# GULP energy per Si atom -12399.091352 kJ/mol
# Density = 1.923880 g / cm^3
# Si number density = 19.282690 Si / 1000 Ang^3
#
#
#
# Elastic Constant Matrix: (Units=GPa)
#
#
# Indices 1 2 3 4 5 6 
#
# 1 113.5428 51.0969 43.2351 0.0000 0.0000 0.0000
# 2 51.0969 126.6580 25.3085 0.0000 0.0000 0.0000
# 3 43.2351 25.3085 84.8031 0.0000 0.0000 0.0000
# 4 0.0000 0.0000 0.0000 29.5224 0.0000 0.0000
# 5 0.0000 0.0000 0.0000 0.0000 15.9758 0.0000
# 6 0.0000 0.0000 0.0000 0.0000 0.0000 30.9754
#
#
#
# Elastic Compliance Matrix: (Units=1/GPa)
#
#
# Indices 1 2 3 4 5 6 
#
# 1 0.012618 -0.004046 -0.005225 0.000000 0.000000 0.000000
# 2 -0.004046 0.009693 -0.000830 0.000000 0.000000 0.000000
# 3 -0.005225 -0.000830 0.014704 0.000000 0.000000 0.000000
# 4 0.000000 0.000000 0.000000 0.033873 0.000000 0.000000
# 5 0.000000 0.000000 0.000000 0.000000 0.062595 0.000000
# 6 0.000000 0.000000 0.000000 0.000000 0.000000 0.032284
#
#
# Mechanical properties :
#
#
# Convention : Reuss Voigt Hill
#
# Bulk Modulus (GPa) = 59.48195 62.69836 61.09015
# Shear Modulus (GPa) = 26.09963 28.98560 27.54262
#
# Velocity S-wave (km/s) = 3.68302 3.88131 3.78346
# Velocity P-wave (km/s) = 7.00004 7.25755 7.12996
#
# Compressibility (1/GPa) = 0.01681182
#
# Stress axis : x y z
#
# Youngs Moduli (GPa) = 79.25248 103.16213 68.00964
#
# Poissons Ratio (x) = 0.41742 0.35538
# Poissons Ratio (y) = 0.32067 0.05645
# Poissons Ratio (z) = 0.41413 0.08563
#
# Static dielectric constant tensor:
#      x y z
#    x 3.668250 0.000000 0.000000 
#    y 0.000000 3.777040 0.000000 
#    z 0.000000 0.000000 3.265080 
# 
# 
# High freq. dielectric constant tensor:
#      x y z
#    x 1.750080 0.000000 0.000000 
#    y 0.000000 1.769680 0.000000 
#    z 0.000000 0.000000 1.733410 
# 
# From -- ./inp_files/42326.got.cif
#   From: 2010.03.12/outbox.cif.g09.slc.cpg/sg63_22_cif.got.tgz:42326.got - 2010.04.10 19:34:48.
