data_PCOD8258822
_publ_section_title
;
Structure prediction by ZEFSAII (Michael W. Deem and Ramdas Pophale) SiO2 
 PCOD8258822
Probable space group: C M C M
;
_chemical_formula_sum "Si O2"
_cell_formula_units_Z 80
_cell_length_a 8.978306
_cell_length_b 25.979482
_cell_length_c 18.407644
_cell_angle_alpha 90.000000
_cell_angle_beta 90.000000
_cell_angle_gamma 90.000000
_cell_volume 4293.614976
_symmetry_space_group_name_H-M "C M C M"
_symmetry_group_IT_number 63
_symmetry_cell_setting 'orthorhombic'
loop_
_space_group_symop_operation_xyz
x,y,z
-x,-y,1/2+z
x,-y,-z
-x,y,1/2-z
-x,-y,-z
x,y,1/2-z
-x,y,z
x,-y,1/2+z
1/2+x,1/2+y,z
1/2-x,1/2-y,1/2+z
1/2+x,1/2-y,-z
1/2-x,1/2+y,1/2-z
1/2-x,1/2-y,-z
1/2+x,1/2+y,1/2-z
1/2-x,1/2+y,z
1/2+x,1/2-y,1/2+z
loop_
_atom_site_type_symbol
_atom_site_label
_atom_site_fract_x
_atom_site_fract_y
_atom_site_fract_z
Si Si1 0.823071 0.246579 0.577914
Si Si2 0.834067 0.962617 0.163463
Si Si3 0.329165 0.336250 0.664082
Si Si4 0.322740 0.349938 0.330862
Si Si5 0.333588 0.938442 0.663583
O O1 0.750000 0.250000 0.500000
O O2 0.772350 0.293468 0.627594
O O3 0.765065 0.193758 0.614564
O O4 0.000000 0.247545 0.570694
O O5 0.840602 0.965072 0.250000
O O6 0.769849 0.906344 0.140804
O O7 0.000000 0.970813 0.131860
O O8 0.730083 0.007867 0.131919
O O9 0.312401 0.330319 0.750000
O O10 0.500000 0.330437 0.639126
O O11 0.270677 0.391735 0.637451
O O12 0.258579 0.338796 0.250000
O O13 0.500000 0.350081 0.326743
O O14 0.335367 0.940754 0.750000
O O15 0.500000 0.930388 0.633063
#
# Coordination Sequence:
#
# PCOD8258822 Si02
#       5
#    16  16  16  16  16
#     4  11  22  36  53  73 101 136 173 212 256 304
#     4   8  13  24  44  70  98 126 158 197 240 288
#     4  10  20  34  53  77 103 132 169 211 252 296
#     4   8  15  29  51  76  99 128 167 206 245 295
#     4   9  16  26  43  71 104 133 160 194 242 296
#
# _framework density 18.632318999999999
#
# number of rings (size 3 to 8) (size 9 to 14) (size 15 to 20)
#    0.000    2.800    0.000    3.600    0.000    4.400 
#    0.000    2.000    0.000    6.000    0.000    8.400 
#    0.000    0.000    0.000    0.000    0.000    0.000 
#
# Total GULP energy -495849.933777 kJ/mol
# GULP energy per Si atom -12396.248344 kJ/mol
# Density = 1.858991 g / cm^3
# Si number density = 18.632319 Si / 1000 Ang^3
#
#
#
# Elastic Constant Matrix: (Units=GPa)
#
#
# Indices 1 2 3 4 5 6 
#
# 1 85.9274 50.6282 27.2796 0.0000 0.0000 0.0000
# 2 50.6282 162.9868 38.0652 0.0000 0.0000 0.0000
# 3 27.2796 38.0652 35.0974 0.0000 0.0000 0.0000
# 4 0.0000 0.0000 0.0000 0.0544 0.0000 0.0000
# 5 0.0000 0.0000 0.0000 0.0000 21.1077 0.0000
# 6 0.0000 0.0000 0.0000 0.0000 0.0000 32.7555
#
#
#
# Elastic Compliance Matrix: (Units=1/GPa)
#
#
# Indices 1 2 3 4 5 6 
#
# 1 0.016370 -0.002830 -0.009654 0.000000 0.000000 0.000000
# 2 -0.002830 0.008706 -0.007242 0.000000 0.000000 0.000000
# 3 -0.009654 -0.007242 0.043851 0.000000 0.000000 0.000000
# 4 0.000000 0.000000 0.000000 18.384783 0.000000 0.000000
# 5 0.000000 0.000000 0.000000 0.000000 0.047376 0.000000
# 6 0.000000 0.000000 0.000000 0.000000 0.000000 0.030529
#
#
# Mechanical properties :
#
#
# Convention : Reuss Voigt Hill
#
# Bulk Modulus (GPa) = 33.92910 57.32860 45.62885
# Shear Modulus (GPa) = 0.26909 21.98610 11.12760
#
# Velocity S-wave (km/s) = 0.38044 3.43884 2.44646
# Velocity P-wave (km/s) = 4.29445 6.82661 5.70285
#
# Compressibility (1/GPa) = 0.02947322
#
# Stress axis : x y z
#
# Youngs Moduli (GPa) = 61.08624 114.86215 22.80471
#
# Poissons Ratio (x) = 0.32510 0.22016
# Poissons Ratio (y) = 0.17290 0.16516
# Poissons Ratio (z) = 0.58974 0.83187
#
# Static dielectric constant tensor:
#      x y z
#    x 3.398160 0.000000 0.000000 
#    y 0.000000 3.884530 0.000000 
#    z 0.000000 0.000000 2.914120 
# 
# 
# High freq. dielectric constant tensor:
#      x y z
#    x 1.711530 0.000000 0.000000 
#    y 0.000000 1.745310 0.000000 
#    z 0.000000 0.000000 1.668980 
# 
# From -- ./inp_files/40437.got.cif
#   From: 2010.03.12/outbox.cif.g09.slc.cpg/sg63_21_cif.got.tgz:40437.got - 2010.04.10 19:34:48.
