data_PCOD8258482
_publ_section_title
;
Structure prediction by ZEFSAII (Michael W. Deem and Ramdas Pophale) SiO2 
 PCOD8258482
Probable space group: C M C M
;
_chemical_formula_sum "Si O2"
_cell_formula_units_Z 96
_cell_length_a 24.716624
_cell_length_b 25.211242
_cell_length_c 8.832400
_cell_angle_alpha 90.000000
_cell_angle_beta 90.000000
_cell_angle_gamma 90.000000
_cell_volume 5503.793376
_symmetry_space_group_name_H-M "C M C M"
_symmetry_group_IT_number 63
_symmetry_cell_setting 'orthorhombic'
loop_
_space_group_symop_operation_xyz
x,y,z
-x,-y,1/2+z
x,-y,-z
-x,y,1/2-z
-x,-y,-z
x,y,1/2-z
-x,y,z
x,-y,1/2+z
1/2+x,1/2+y,z
1/2-x,1/2-y,1/2+z
1/2+x,1/2-y,-z
1/2-x,1/2+y,1/2-z
1/2-x,1/2-y,-z
1/2+x,1/2+y,1/2-z
1/2-x,1/2+y,z
1/2+x,1/2-y,1/2+z
loop_
_atom_site_type_symbol
_atom_site_label
_atom_site_fract_x
_atom_site_fract_y
_atom_site_fract_z
Si Si1 0.246163 0.443058 0.074068
Si Si2 0.936066 0.639986 0.575981
Si Si3 0.435693 0.246916 0.079510
Si Si4 0.063667 0.146150 0.074988
Si Si5 0.134450 0.942517 0.073710
Si Si6 0.359513 0.058154 0.070940
O O1 0.231520 0.448045 0.250000
O O2 0.305351 0.416876 0.050300
O O3 0.250410 0.500000 0.000000
O O4 0.196227 0.413758 0.989486
O O5 0.918626 0.634814 0.750000
O O6 0.914696 0.696417 0.514449
O O7 0.910155 0.593163 0.478891
O O8 0.000000 0.635016 0.555464
O O9 0.413054 0.243413 0.250000
O O10 0.500000 0.247709 0.078395
O O11 0.413693 0.300511 0.002870
O O12 0.078960 0.149141 0.250000
O O13 0.000000 0.140150 0.049367
O O14 0.091100 0.095483 0.001371
O O15 0.121284 0.948585 0.250000
O O16 0.129264 0.000000 0.000000
O O17 0.358209 0.053578 0.250000
O O18 0.366016 0.000000 0.000000
#
# Coordination Sequence:
#
# PCOD8258482 Si02
#       6
#    16  16  16  16  16  16
#     4   9  17  31  50  71  95 125 164 204 242 288
#     4  10  20  34  52  74 101 132 165 202 244 290
#     4   9  17  31  51  73  97 127 165 205 242 286
#     4  10  20  33  50  73 101 133 167 203 244 291
#     4  10  20  33  51  74 100 131 165 204 248 294
#     4  11  21  33  51  74 101 132 165 202 245 292
#
# _framework density 17.442515
#
# number of rings (size 3 to 8) (size 9 to 14) (size 15 to 20)
#    0.000    2.167    0.000    5.000    0.000    6.667 
#    0.000    0.000    0.000    1.000    0.000    0.000 
#    0.000    0.000    0.000    0.000    0.000    0.000 
#
# Total GULP energy -595055.871990 kJ/mol
# GULP energy per Si atom -12396.997333 kJ/mol
# Density = 1.740282 g / cm^3
# Si number density = 17.442515 Si / 1000 Ang^3
#
#
#
# Elastic Constant Matrix: (Units=GPa)
#
#
# Indices 1 2 3 4 5 6 
#
# 1 46.9883 40.0230 50.6166 0.0000 0.0000 0.0000
# 2 40.0230 99.4101 57.4571 0.0000 0.0000 0.0000
# 3 50.6166 57.4571 156.2080 0.0000 0.0000 0.0000
# 4 0.0000 0.0000 0.0000 34.1167 0.0000 0.0000
# 5 0.0000 0.0000 0.0000 0.0000 26.3228 0.0000
# 6 0.0000 0.0000 0.0000 0.0000 0.0000 1.8719
#
#
#
# Elastic Compliance Matrix: (Units=1/GPa)
#
#
# Indices 1 2 3 4 5 6 
#
# 1 0.040431 -0.011056 -0.009034 0.000000 0.000000 0.000000
# 2 -0.011056 0.015799 -0.002229 0.000000 0.000000 0.000000
# 3 -0.009034 -0.002229 0.010149 0.000000 0.000000 0.000000
# 4 0.000000 0.000000 0.000000 0.029311 0.000000 0.000000
# 5 0.000000 0.000000 0.000000 0.000000 0.037990 0.000000
# 6 0.000000 0.000000 0.000000 0.000000 0.000000 0.534218
#
#
# Mechanical properties :
#
#
# Convention : Reuss Voigt Hill
#
# Bulk Modulus (GPa) = 45.99696 66.53330 56.26513
# Shear Modulus (GPa) = 6.94655 22.76292 14.85474
#
# Velocity S-wave (km/s) = 1.99779 3.61643 2.92145
# Velocity P-wave (km/s) = 5.63466 7.46091 6.61115
#
# Compressibility (1/GPa) = 0.02174057
#
# Stress axis : x y z
#
# Youngs Moduli (GPa) = 24.73356 63.29655 98.53327
#
# Poissons Ratio (x) = 0.69981 0.89018
# Poissons Ratio (y) = 0.27346 0.21959
# Poissons Ratio (z) = 0.22345 0.14106
#
# Static dielectric constant tensor:
#      x y z
#    x 3.519470 0.000000 0.000000 
#    y 0.000000 3.118060 0.000000 
#    z 0.000000 0.000000 3.449010 
# 
# 
# High freq. dielectric constant tensor:
#      x y z
#    x 1.658130 0.000000 0.000000 
#    y 0.000000 1.654780 0.000000 
#    z 0.000000 0.000000 1.698360 
# 
# From -- ./inp_files/10408.got.cif
#   From: 2010.03.12/outbox.cif.g09.slc.cpg/sg63_6_cif.got.tgz:10408.got - 2010.04.10 19:34:48.
