data_PCOD8258877
_publ_section_title
;
Structure prediction by ZEFSAII (Michael W. Deem and Ramdas Pophale) SiO2 
 PCOD8258877
Probable space group: C M C M
;
_chemical_formula_sum "Si O2"
_cell_formula_units_Z 64
_cell_length_a 12.626368
_cell_length_b 20.942451
_cell_length_c 13.471967
_cell_angle_alpha 90.000000
_cell_angle_beta 90.000000
_cell_angle_gamma 90.000000
_cell_volume 3562.353073
_symmetry_space_group_name_H-M "C M C M"
_symmetry_group_IT_number 63
_symmetry_cell_setting 'orthorhombic'
loop_
_space_group_symop_operation_xyz
x,y,z
-x,-y,1/2+z
x,-y,-z
-x,y,1/2-z
-x,-y,-z
x,y,1/2-z
-x,y,z
x,-y,1/2+z
1/2+x,1/2+y,z
1/2-x,1/2-y,1/2+z
1/2+x,1/2-y,-z
1/2-x,1/2+y,1/2-z
1/2-x,1/2-y,-z
1/2+x,1/2+y,1/2-z
1/2-x,1/2+y,z
1/2+x,1/2-y,1/2+z
loop_
_atom_site_type_symbol
_atom_site_label
_atom_site_fract_x
_atom_site_fract_y
_atom_site_fract_z
Si Si1 0.122046 0.026524 0.861754
Si Si2 0.185098 0.225768 0.134159
Si Si3 0.799308 0.097139 0.457939
Si Si4 0.380206 0.185897 0.469485
O O1 0.148067 0.048320 0.750000
O O2 0.000000 0.006362 0.874061
O O3 0.147765 0.085153 0.934697
O O4 0.193418 0.965453 0.889639
O O5 0.165464 0.234164 0.250000
O O6 0.121866 0.281759 0.078329
O O7 0.141807 0.156559 0.096433
O O8 0.311209 0.230097 0.106633
O O9 0.675224 0.115822 0.474027
O O10 0.500000 0.178776 0.431086
#
# Coordination Sequence:
#
# PCOD8258877 Si02
#       4
#    16  16  16  16
#     4  10  20  34  54  77 105 142 177 217 267 311
#     4   9  19  36  56  78 106 140 176 214 257 314
#     4   9  18  35  53  76 108 133 177 222 258 309
#     4   9  20  36  54  78 107 137 173 217 263 312
#
# _framework density 17.965653
#
# number of rings (size 3 to 8) (size 9 to 14) (size 15 to 20)
#    1.500    1.250    0.000    2.250    0.000    4.000 
#    0.000    2.500    0.000    1.500    0.000    0.000 
#    0.000    0.000    0.000    0.000    0.000    0.000 
#
# Total GULP energy -396455.924360 kJ/mol
# GULP energy per Si atom -12389.247636 kJ/mol
# Density = 1.792476 g / cm^3
# Si number density = 17.965653 Si / 1000 Ang^3
#
#
#
# Elastic Constant Matrix: (Units=GPa)
#
#
# Indices 1 2 3 4 5 6 
#
# 1 78.8331 20.4188 1.6512 0.0000 0.0000 0.0000
# 2 20.4188 44.0674 10.6910 0.0000 0.0000 0.0000
# 3 1.6512 10.6910 101.9265 0.0000 0.0000 0.0000
# 4 0.0000 0.0000 0.0000 25.5955 0.0000 0.0000
# 5 0.0000 0.0000 0.0000 0.0000 12.8505 0.0000
# 6 0.0000 0.0000 0.0000 0.0000 0.0000 21.9987
#
#
#
# Elastic Compliance Matrix: (Units=1/GPa)
#
#
# Indices 1 2 3 4 5 6 
#
# 1 0.014438 -0.006806 0.000480 0.000000 0.000000 0.000000
# 2 -0.006806 0.026494 -0.002669 0.000000 0.000000 0.000000
# 3 0.000480 -0.002669 0.010083 0.000000 0.000000 0.000000
# 4 0.000000 0.000000 0.000000 0.039069 0.000000 0.000000
# 5 0.000000 0.000000 0.000000 0.000000 0.077818 0.000000
# 6 0.000000 0.000000 0.000000 0.000000 0.000000 0.045457
#
#
# Mechanical properties :
#
#
# Convention : Reuss Voigt Hill
#
# Bulk Modulus (GPa) = 30.28025 32.26099 31.27062
# Shear Modulus (GPa) = 20.63067 24.89334 22.76201
#
# Velocity S-wave (km/s) = 3.39239 3.72641 3.56332
# Velocity P-wave (km/s) = 5.67764 6.04242 5.86287
#
# Compressibility (1/GPa) = 0.03302483
#
# Stress axis : x y z
#
# Youngs Moduli (GPa) = 69.26220 37.74485 99.17556
#
# Poissons Ratio (x) = 0.25690 -0.04761
# Poissons Ratio (y) = 0.47142 0.26466
# Poissons Ratio (z) = -0.03325 0.10073
#
# Static dielectric constant tensor:
#      x y z
#    x 3.038340 0.000000 0.000000 
#    y 0.000000 3.119850 0.000000 
#    z 0.000000 0.000000 3.257420 
# 
# 
# High freq. dielectric constant tensor:
#      x y z
#    x 1.669580 0.000000 0.000000 
#    y 0.000000 1.679410 0.000000 
#    z 0.000000 0.000000 1.695970 
# 
# From -- ./inp_files/31331.got.cif
#   From: 2010.03.12/outbox.cif.g09.slc.cpg/sg63_16_cif.got.tgz:31331.got - 2010.04.10 19:34:48.
