data_PCOD8258578
_publ_section_title
;
Structure prediction by ZEFSAII (Michael W. Deem and Ramdas Pophale) SiO2 
 PCOD8258578
Probable space group: C M C M
;
_chemical_formula_sum "Si O2"
_cell_formula_units_Z 112
_cell_length_a 9.718451
_cell_length_b 20.742136
_cell_length_c 29.603147
_cell_angle_alpha 90.000000
_cell_angle_beta 90.000000
_cell_angle_gamma 90.000000
_cell_volume 5967.444774
_symmetry_space_group_name_H-M "C M C M"
_symmetry_group_IT_number 63
_symmetry_cell_setting 'orthorhombic'
loop_
_space_group_symop_operation_xyz
x,y,z
-x,-y,1/2+z
x,-y,-z
-x,y,1/2-z
-x,-y,-z
x,y,1/2-z
-x,y,z
x,-y,1/2+z
1/2+x,1/2+y,z
1/2-x,1/2-y,1/2+z
1/2+x,1/2-y,-z
1/2-x,1/2+y,1/2-z
1/2-x,1/2-y,-z
1/2+x,1/2+y,1/2-z
1/2-x,1/2+y,z
1/2+x,1/2-y,1/2+z
loop_
_atom_site_type_symbol
_atom_site_label
_atom_site_fract_x
_atom_site_fract_y
_atom_site_fract_z
Si Si1 0.335641 0.010285 0.355722
Si Si2 0.154009 0.335385 0.990092
Si Si3 0.161878 0.773985 0.334916
Si Si4 0.843360 0.528064 0.045288
Si Si5 0.656052 0.886069 0.301317
Si Si6 0.836639 0.633979 0.198818
Si Si7 0.841336 0.792342 0.061710
O O1 0.500000 0.015125 0.356632
O O2 0.275148 0.007539 0.407001
O O3 0.277149 0.073529 0.329796
O O4 0.286138 0.945210 0.331176
O O5 0.164499 0.395202 0.956576
O O6 0.199155 0.276553 0.958749
O O7 0.000000 0.326630 0.008882
O O8 0.250993 0.344435 0.034123
O O9 0.246716 0.823927 0.304762
O O10 0.210821 0.701456 0.323595
O O11 0.198873 0.791336 0.386213
O O12 0.000000 0.781976 0.324778
O O13 0.000000 0.502238 0.045204
O O14 0.769094 0.500000 0.000000
O O15 0.657834 0.910547 0.250000
O O16 0.500000 0.867965 0.315911
O O17 0.779474 0.630105 0.250000
O O18 0.000000 0.630669 0.199195
O O19 0.000000 0.809659 0.054673
#
# Coordination Sequence:
#
# PCOD8258578 Si02
#       7
#    16  16  16  16  16  16  16
#     4   9  17  30  49  73 102 131 164 211 258 297
#     4   9  17  30  49  71  98 129 167 209 248 289
#     4  10  20  33  52  76 104 135 170 209 253 304
#     4   9  17  27  43  69  97 125 161 201 239 285
#     4  10  21  35  52  77 107 135 165 207 259 310
#     4   9  16  28  49  73  94 123 166 211 253 295
#     4   9  18  31  47  70  99 132 165 201 246 297
#
# _framework density 18.768502000000002
#
# number of rings (size 3 to 8) (size 9 to 14) (size 15 to 20)
#    0.000    2.714    0.000    1.714    2.000    6.571 
#    0.000    0.000    0.000    2.143    0.000    0.000 
#    0.000    0.000    0.000    0.000    0.000    0.000 
#
# Total GULP energy -694176.809170 kJ/mol
# GULP energy per Si atom -12396.014449 kJ/mol
# Density = 1.872578 g / cm^3
# Si number density = 18.768502 Si / 1000 Ang^3
#
#
#
# Elastic Constant Matrix: (Units=GPa)
#
#
# Indices 1 2 3 4 5 6 
#
# 1 27.5667 20.5246 24.9487 0.0000 0.0000 0.0000
# 2 20.5246 97.0133 38.3816 0.0000 0.0000 0.0000
# 3 24.9487 38.3816 126.0350 0.0000 0.0000 0.0000
# 4 0.0000 0.0000 0.0000 30.1729 0.0000 0.0000
# 5 0.0000 0.0000 0.0000 0.0000 17.2992 0.0000
# 6 0.0000 0.0000 0.0000 0.0000 0.0000 18.1561
#
#
#
# Elastic Compliance Matrix: (Units=1/GPa)
#
#
# Indices 1 2 3 4 5 6 
#
# 1 0.048380 -0.007330 -0.007345 0.000000 0.000000 0.000000
# 2 -0.007330 0.012830 -0.002456 0.000000 0.000000 0.000000
# 3 -0.007345 -0.002456 0.010136 0.000000 0.000000 0.000000
# 4 0.000000 0.000000 0.000000 0.033142 0.000000 0.000000
# 5 0.000000 0.000000 0.000000 0.000000 0.057806 0.000000
# 6 0.000000 0.000000 0.000000 0.000000 0.000000 0.055078
#
#
# Mechanical properties :
#
#
# Convention : Reuss Voigt Hill
#
# Bulk Modulus (GPa) = 26.96493 46.48052 36.72273
# Shear Modulus (GPa) = 18.93966 24.24299 21.59132
#
# Velocity S-wave (km/s) = 3.18011 3.59790 3.39544
# Velocity P-wave (km/s) = 5.28038 6.48682 5.91444
#
# Compressibility (1/GPa) = 0.03708520
#
# Stress axis : x y z
#
# Youngs Moduli (GPa) = 20.66962 77.94006 98.65597
#
# Poissons Ratio (x) = 0.57128 0.72461
# Poissons Ratio (y) = 0.15150 0.24233
# Poissons Ratio (z) = 0.15181 0.19145
#
# Static dielectric constant tensor:
#      x y z
#    x 2.960200 0.000000 0.000000 
#    y 0.000000 3.450360 0.000000 
#    z 0.000000 0.000000 3.715320 
# 
# 
# High freq. dielectric constant tensor:
#      x y z
#    x 1.665060 0.000000 0.000000 
#    y 0.000000 1.732670 0.000000 
#    z 0.000000 0.000000 1.746700 
# 
# From -- ./inp_files/68628.got.cif
#   From: 2010.03.12/outbox.cif.g09.slc.cpg/sg63_35_cif.got.tgz:68628.got - 2010.04.10 19:34:48.
