data_PCOD8258002
_publ_section_title
;
Structure prediction by ZEFSAII (Michael W. Deem and Ramdas Pophale) SiO2 
 PCOD8258002
Probable space group: C M C M
;
_chemical_formula_sum "Si O2"
_cell_formula_units_Z 96
_cell_length_a 21.605152
_cell_length_b 17.501700
_cell_length_c 14.786510
_cell_angle_alpha 90.000000
_cell_angle_beta 90.000000
_cell_angle_gamma 90.000000
_cell_volume 5591.177022
_symmetry_space_group_name_H-M "C M C M"
_symmetry_group_IT_number 63
_symmetry_cell_setting 'orthorhombic'
loop_
_space_group_symop_operation_xyz
x,y,z
-x,-y,1/2+z
x,-y,-z
-x,y,1/2-z
-x,-y,-z
x,y,1/2-z
-x,y,z
x,-y,1/2+z
1/2+x,1/2+y,z
1/2-x,1/2-y,1/2+z
1/2+x,1/2-y,-z
1/2-x,1/2+y,1/2-z
1/2-x,1/2-y,-z
1/2+x,1/2+y,1/2-z
1/2-x,1/2+y,z
1/2+x,1/2-y,1/2+z
loop_
_atom_site_type_symbol
_atom_site_label
_atom_site_fract_x
_atom_site_fract_y
_atom_site_fract_z
Si Si1 0.239575 0.089385 0.988166
Si Si2 0.572473 0.203716 0.405685
Si Si3 0.169518 0.817486 0.353292
Si Si4 0.221034 0.798003 0.853810
Si Si5 0.926833 0.592505 0.250000
Si Si6 0.862195 0.334835 0.085242
Si Si7 0.574086 0.080963 0.750000
O O1 0.186235 0.110743 0.915922
O O2 0.306018 0.114422 0.951012
O O3 0.222912 0.127543 0.083934
O O4 0.239020 0.000000 0.000000
O O5 0.500000 0.215416 0.395458
O O6 0.602258 0.284740 0.377568
O O7 0.597257 0.137273 0.338568
O O8 0.588648 0.180202 0.506841
O O9 0.173676 0.844741 0.250000
O O10 0.217479 0.749790 0.375376
O O11 0.218232 0.824775 0.750000
O O12 0.161650 0.746006 0.876470
O O13 0.901525 0.506364 0.250000
O O14 0.000000 0.589641 0.250000
O O15 0.898724 0.379629 0.161829
O O16 0.500000 0.086899 0.750000
#
# Coordination Sequence:
#
# PCOD8258002 Si02
#       7
#    16  16  16  16   8  16   8
#     4  11  23  36  55  86 115 144 186 239 289 332
#     4  11  20  34  59  84 110 150 192 227 273 332
#     4  10  19  35  58  79 110 144 186 235 279 331
#     4  10  19  37  58  77 107 146 186 234 279 331
#     4   9  22  36  49  80 117 151 188 226 265 319
#     4  11  21  38  56  82 111 151 192 224 272 335
#     4  11  24  38  53  82 125 155 187 230 269 327
#
# _framework density 17.169909000000001
#
# number of rings (size 3 to 8) (size 9 to 14) (size 15 to 20)
#    0.000    1.500    5.000    1.500    3.500    0.667 
#    0.000    2.500    0.000    0.500    0.000    0.000 
#    0.000    0.000    0.000    0.000    0.000    0.000 
#
# Total GULP energy -595333.324394 kJ/mol
# GULP energy per Si atom -12402.777592 kJ/mol
# Density = 1.713083 g / cm^3
# Si number density = 17.169909 Si / 1000 Ang^3
#
#
#
# Elastic Constant Matrix: (Units=GPa)
#
#
# Indices 1 2 3 4 5 6 
#
# 1 77.8447 35.7347 36.1851 0.0000 0.0000 0.0000
# 2 35.7347 97.8133 50.6920 0.0000 0.0000 0.0000
# 3 36.1851 50.6920 122.4761 0.0000 0.0000 0.0000
# 4 0.0000 0.0000 0.0000 21.3108 0.0000 0.0000
# 5 0.0000 0.0000 0.0000 0.0000 30.0287 0.0000
# 6 0.0000 0.0000 0.0000 0.0000 0.0000 21.4858
#
#
#
# Elastic Compliance Matrix: (Units=1/GPa)
#
#
# Indices 1 2 3 4 5 6 
#
# 1 0.016248 -0.004390 -0.002984 0.000000 0.000000 0.000000
# 2 -0.004390 0.014201 -0.004581 0.000000 0.000000 0.000000
# 3 -0.002984 -0.004581 0.010942 0.000000 0.000000 0.000000
# 4 0.000000 0.000000 0.000000 0.046925 0.000000 0.000000
# 5 0.000000 0.000000 0.000000 0.000000 0.033302 0.000000
# 6 0.000000 0.000000 0.000000 0.000000 0.000000 0.046542
#
#
# Mechanical properties :
#
#
# Convention : Reuss Voigt Hill
#
# Bulk Modulus (GPa) = 57.19725 60.37305 58.78515
# Shear Modulus (GPa) = 25.26572 26.26652 25.76612
#
# Velocity S-wave (km/s) = 3.84019 3.91551 3.87803
# Velocity P-wave (km/s) = 7.28338 7.46191 7.37318
#
# Compressibility (1/GPa) = 0.01748336
#
# Stress axis : x y z
#
# Youngs Moduli (GPa) = 61.54570 70.41575 91.38814
#
# Poissons Ratio (x) = 0.30911 0.27266
# Poissons Ratio (y) = 0.27017 0.41864
# Poissons Ratio (z) = 0.18362 0.32257
#
# Static dielectric constant tensor:
#      x y z
#    x 3.156010 0.000000 0.000000 
#    y 0.000000 3.072440 0.000000 
#    z 0.000000 0.000000 3.443750 
# 
# 
# High freq. dielectric constant tensor:
#      x y z
#    x 1.651940 0.000000 0.000000 
#    y 0.000000 1.640310 0.000000 
#    z 0.000000 0.000000 1.686940 
# 
# From -- ./inp_files/35441.got.cif
#   From: 2010.03.12/outbox.cif.g09.slc.cpg/sg63_18_cif.got.tgz:35441.got - 2010.04.10 19:34:48.
