data_PCOD8258676
_publ_section_title
;
Structure prediction by ZEFSAII (Michael W. Deem and Ramdas Pophale) SiO2 
 PCOD8258676
Probable space group: C M C M
;
_chemical_formula_sum "Si O2"
_cell_formula_units_Z 96
_cell_length_a 21.925964
_cell_length_b 14.703658
_cell_length_c 14.843249
_cell_angle_alpha 90.000000
_cell_angle_beta 90.000000
_cell_angle_gamma 90.000000
_cell_volume 4785.342891
_symmetry_space_group_name_H-M "C M C M"
_symmetry_group_IT_number 63
_symmetry_cell_setting 'orthorhombic'
loop_
_space_group_symop_operation_xyz
x,y,z
-x,-y,1/2+z
x,-y,-z
-x,y,1/2-z
-x,-y,-z
x,y,1/2-z
-x,y,z
x,-y,1/2+z
1/2+x,1/2+y,z
1/2-x,1/2-y,1/2+z
1/2+x,1/2-y,-z
1/2-x,1/2+y,1/2-z
1/2-x,1/2-y,-z
1/2+x,1/2+y,1/2-z
1/2-x,1/2+y,z
1/2+x,1/2-y,1/2+z
loop_
_atom_site_type_symbol
_atom_site_label
_atom_site_fract_x
_atom_site_fract_y
_atom_site_fract_z
Si Si1 0.000000 0.423244 0.347696
Si Si2 0.667051 0.671353 0.851666
Si Si3 0.246434 0.516055 0.895269
Si Si4 0.124071 0.422964 0.432280
Si Si5 0.384537 0.283637 0.968660
Si Si6 0.268456 0.317780 0.650022
Si Si7 0.500000 0.292559 0.853074
O O1 0.938402 0.461015 0.391131
O O2 0.000000 0.466337 0.250000
O O3 0.000000 0.315187 0.344577
O O4 0.641044 0.687802 0.750000
O O5 0.697209 0.572008 0.854107
O O6 0.715722 0.748542 0.879673
O O7 0.614127 0.678193 0.928485
O O8 0.185061 0.576249 0.870247
O O9 0.240760 0.418871 0.847192
O O10 0.259909 0.500000 0.000000
O O11 0.145857 0.500000 0.500000
O O12 0.111685 0.325285 0.475108
O O13 0.322888 0.314518 0.920849
O O14 0.440645 0.323781 0.909811
O O15 0.292371 0.291970 0.750000
O O16 0.500000 0.332944 0.750000
#
# Coordination Sequence:
#
# PCOD8258676 Si02
#       7
#     8  16  16  16  16  16   8
#     4   9  19  33  51  78 114 153 194 239 282 334
#     4  11  22  36  56  84 120 158 190 235 297 353
#     4  11  20  35  57  83 116 154 191 242 296 348
#     4  10  20  33  56  79 113 154 198 234 291 342
#     4  11  20  39  59  81 119 153 192 250 290 337
#     4  11  22  35  57  86 117 154 198 240 293 350
#     4   9  20  37  62  89 109 149 202 243 289 337
#
# _framework density 20.061257999999999
#
# number of rings (size 3 to 8) (size 9 to 14) (size 15 to 20)
#    0.000    1.500    3.333    3.750    0.000    2.000 
#    0.000    1.250    0.000    2.000    0.000    2.333 
#    0.000    0.000    0.000    0.000    0.000    0.000 
#
# Total GULP energy -594892.519019 kJ/mol
# GULP energy per Si atom -12393.594146 kJ/mol
# Density = 2.001560 g / cm^3
# Si number density = 20.061258 Si / 1000 Ang^3
#
#
#
# Elastic Constant Matrix: (Units=GPa)
#
#
# Indices 1 2 3 4 5 6 
#
# 1 82.3680 8.9672 55.2613 0.0000 0.0000 0.0000
# 2 8.9672 65.4079 6.3561 0.0000 0.0000 0.0000
# 3 55.2613 6.3561 136.5318 0.0000 0.0000 0.0000
# 4 0.0000 0.0000 0.0000 21.8338 0.0000 0.0000
# 5 0.0000 0.0000 0.0000 0.0000 12.9175 0.0000
# 6 0.0000 0.0000 0.0000 0.0000 0.0000 25.4573
#
#
#
# Elastic Compliance Matrix: (Units=1/GPa)
#
#
# Indices 1 2 3 4 5 6 
#
# 1 0.016843 -0.001654 -0.006740 0.000000 0.000000 0.000000
# 2 -0.001654 0.015521 -0.000053 0.000000 0.000000 0.000000
# 3 -0.006740 -0.000053 0.010055 0.000000 0.000000 0.000000
# 4 0.000000 0.000000 0.000000 0.045800 0.000000 0.000000
# 5 0.000000 0.000000 0.000000 0.000000 0.077414 0.000000
# 6 0.000000 0.000000 0.000000 0.000000 0.000000 0.039281
#
#
# Mechanical properties :
#
#
# Convention : Reuss Voigt Hill
#
# Bulk Modulus (GPa) = 39.17933 47.27521 43.22727
# Shear Modulus (GPa) = 21.70926 26.28995 23.99960
#
# Velocity S-wave (km/s) = 3.29317 3.62399 3.46253
# Velocity P-wave (km/s) = 5.83371 6.41308 6.13025
#
# Compressibility (1/GPa) = 0.02552366
#
# Stress axis : x y z
#
# Youngs Moduli (GPa) = 59.37294 64.43048 99.45479
#
# Poissons Ratio (x) = 0.10657 0.67033
# Poissons Ratio (y) = 0.09821 0.00528
# Poissons Ratio (z) = 0.40018 0.00342
#
# Static dielectric constant tensor:
#      x y z
#    x 3.712860 0.000000 0.000000 
#    y 0.000000 3.460940 0.000000 
#    z 0.000000 0.000000 3.858630 
# 
# 
# High freq. dielectric constant tensor:
#      x y z
#    x 1.761680 0.000000 0.000000 
#    y 0.000000 1.766530 0.000000 
#    z 0.000000 0.000000 1.787280 
# 
# From -- ./inp_files/35443.got.cif
#   From: 2010.03.12/outbox.cif.g09.slc.cpg/sg63_18_cif.got.tgz:35443.got - 2010.04.10 19:34:48.
