data_PCOD8258053
_publ_section_title
;
Structure prediction by ZEFSAII (Michael W. Deem and Ramdas Pophale) SiO2 
 PCOD8258053
Probable space group: C M C M
;
_chemical_formula_sum "Si O2"
_cell_formula_units_Z 112
_cell_length_a 23.320465
_cell_length_b 13.532617
_cell_length_c 17.438325
_cell_angle_alpha 90.000000
_cell_angle_beta 90.000000
_cell_angle_gamma 90.000000
_cell_volume 5503.307296
_symmetry_space_group_name_H-M "C M C M"
_symmetry_group_IT_number 63
_symmetry_cell_setting 'orthorhombic'
loop_
_space_group_symop_operation_xyz
x,y,z
-x,-y,1/2+z
x,-y,-z
-x,y,1/2-z
-x,-y,-z
x,y,1/2-z
-x,y,z
x,-y,1/2+z
1/2+x,1/2+y,z
1/2-x,1/2-y,1/2+z
1/2+x,1/2-y,-z
1/2-x,1/2+y,1/2-z
1/2-x,1/2-y,-z
1/2+x,1/2+y,1/2-z
1/2-x,1/2+y,z
1/2+x,1/2-y,1/2+z
loop_
_atom_site_type_symbol
_atom_site_label
_atom_site_fract_x
_atom_site_fract_y
_atom_site_fract_z
Si Si1 0.565784 0.803425 0.890643
Si Si2 0.065394 0.036031 0.413859
Si Si3 0.865508 0.128563 0.662954
Si Si4 0.831181 0.419166 0.661069
Si Si5 0.234487 0.754849 0.088836
Si Si6 0.339026 0.856459 0.338509
Si Si7 0.565616 0.237970 0.932664
O O1 0.500000 0.830720 0.875419
O O2 0.582972 0.707733 0.841000
O O3 0.603747 0.897030 0.865646
O O4 0.578513 0.776196 0.978215
O O5 0.081438 0.150826 0.408362
O O6 0.000000 0.017398 0.386191
O O7 0.072448 0.000000 0.500000
O O8 0.110150 0.978058 0.360625
O O9 0.842260 0.122153 0.750000
O O10 0.814073 0.163187 0.607048
O O11 0.824487 0.391872 0.750000
O O12 0.786668 0.353352 0.613472
O O13 0.817088 0.532893 0.644302
O O14 0.291047 0.779254 0.136429
O O15 0.250000 0.750000 0.000000
O O16 0.353597 0.841878 0.250000
O O17 0.397038 0.838723 0.385002
O O18 0.500000 0.214048 0.913952
#
# Coordination Sequence:
#
# PCOD8258053 Si02
#       7
#    16  16  16  16  16  16  16
#     4  10  19  35  60  89 121 158 200 248 303 360
#     4  10  20  37  61  89 129 171 206 248 305 376
#     4  11  22  37  60  92 126 157 205 264 311 363
#     4  10  23  42  62  88 123 156 197 252 304 364
#     4  11  24  42  65  90 118 157 203 258 311 378
#     4  11  24  43  64  86 120 162 202 249 310 368
#     4  10  22  39  61  90 124 164 208 254 301 364
#
# _framework density 20.351398
#
# number of rings (size 3 to 8) (size 9 to 14) (size 15 to 20)
#    0.000    1.571    1.429    4.714    0.000    6.857 
#    0.000    4.286    0.000    0.000    0.000    0.000 
#    0.000    0.000    0.000    0.000    0.000    0.000 
#
# Total GULP energy -694611.336306 kJ/mol
# GULP energy per Si atom -12403.773863 kJ/mol
# Density = 2.030508 g / cm^3
# Si number density = 20.351398 Si / 1000 Ang^3
#
#
#
# Elastic Constant Matrix: (Units=GPa)
#
#
# Indices 1 2 3 4 5 6 
#
# 1 96.0283 44.1519 61.8721 0.0000 0.0000 0.0000
# 2 44.1519 79.3984 51.1050 0.0000 0.0000 0.0000
# 3 61.8721 51.1050 115.6246 0.0000 0.0000 0.0000
# 4 0.0000 0.0000 0.0000 32.7502 0.0000 0.0000
# 5 0.0000 0.0000 0.0000 0.0000 23.1166 0.0000
# 6 0.0000 0.0000 0.0000 0.0000 0.0000 32.9283
#
#
#
# Elastic Compliance Matrix: (Units=1/GPa)
#
#
# Indices 1 2 3 4 5 6 
#
# 1 0.017257 -0.005105 -0.006978 0.000000 0.000000 0.000000
# 2 -0.005105 0.019112 -0.005716 0.000000 0.000000 0.000000
# 3 -0.006978 -0.005716 0.014909 0.000000 0.000000 0.000000
# 4 0.000000 0.000000 0.000000 0.030534 0.000000 0.000000
# 5 0.000000 0.000000 0.000000 0.000000 0.043259 0.000000
# 6 0.000000 0.000000 0.000000 0.000000 0.000000 0.030369
#
#
# Mechanical properties :
#
#
# Convention : Reuss Voigt Hill
#
# Bulk Modulus (GPa) = 63.77188 67.25658 65.51423
# Shear Modulus (GPa) = 25.47583 26.68717 26.08150
#
# Velocity S-wave (km/s) = 3.54191 3.62514 3.58377
# Velocity P-wave (km/s) = 6.93760 7.11629 7.02751
#
# Compressibility (1/GPa) = 0.01568089
#
# Stress axis : x y z
#
# Youngs Moduli (GPa) = 57.94875 52.32207 67.07311
#
# Poissons Ratio (x) = 0.26709 0.46804
# Poissons Ratio (y) = 0.29581 0.38339
# Poissons Ratio (z) = 0.40437 0.29907
#
# Static dielectric constant tensor:
#      x y z
#    x 3.770930 0.000000 0.000000 
#    y 0.000000 3.873380 0.000000 
#    z 0.000000 0.000000 3.756760 
# 
# 
# High freq. dielectric constant tensor:
#      x y z
#    x 1.798630 0.000000 0.000000 
#    y 0.000000 1.791770 0.000000 
#    z 0.000000 0.000000 1.798370 
# 
# From -- ./inp_files/36883.got.cif
#   From: 2010.03.12/outbox.cif.g09.slc.cpg/sg63_19_cif.got.tgz:36883.got - 2010.04.10 19:34:48.
