data_PCOD8258266
_publ_section_title
;
Structure prediction by ZEFSAII (Michael W. Deem and Ramdas Pophale) SiO2 
 PCOD8258266
Probable space group: C M C M
;
_chemical_formula_sum "Si O2"
_cell_formula_units_Z 88
_cell_length_a 27.303463
_cell_length_b 18.864361
_cell_length_c 8.847168
_cell_angle_alpha 90.000000
_cell_angle_beta 90.000000
_cell_angle_gamma 90.000000
_cell_volume 4556.843429
_symmetry_space_group_name_H-M "C M C M"
_symmetry_group_IT_number 63
_symmetry_cell_setting 'orthorhombic'
loop_
_space_group_symop_operation_xyz
x,y,z
-x,-y,1/2+z
x,-y,-z
-x,y,1/2-z
-x,-y,-z
x,y,1/2-z
-x,y,z
x,-y,1/2+z
1/2+x,1/2+y,z
1/2-x,1/2-y,1/2+z
1/2+x,1/2-y,-z
1/2-x,1/2+y,1/2-z
1/2-x,1/2-y,-z
1/2+x,1/2+y,1/2-z
1/2-x,1/2+y,z
1/2+x,1/2-y,1/2+z
loop_
_atom_site_type_symbol
_atom_site_label
_atom_site_fract_x
_atom_site_fract_y
_atom_site_fract_z
Si Si1 0.444765 0.827544 0.577127
Si Si2 0.000000 0.925550 0.428405
Si Si3 0.258527 0.925246 0.569531
Si Si4 0.817490 0.192180 0.073448
Si Si5 0.086062 0.831204 0.077933
Si Si6 0.156017 0.348281 0.429689
O O1 0.437461 0.852445 0.750000
O O2 0.500000 0.849643 0.521805
O O3 0.440713 0.743594 0.564095
O O4 0.400905 0.860130 0.476224
O O5 0.951702 0.887425 0.486663
O O6 0.000000 0.926957 0.250000
O O7 0.000000 0.000000 0.500000
O O8 0.257554 0.931003 0.750000
O O9 0.225301 0.858954 0.509188
O O10 0.313202 0.910489 0.508891
O O11 0.240002 0.000000 0.500000
O O12 0.810998 0.196941 0.250000
O O13 0.820678 0.273200 0.009529
O O14 0.868322 0.156325 0.030789
O O15 0.102788 0.844919 0.250000
O O16 0.159748 0.353991 0.250000
#
# Coordination Sequence:
#
# PCOD8258266 Si02
#       6
#    16   8  16  16  16  16
#     4   9  16  30  54  80 106 137 174 217 264 315
#     4  10  20  32  44  64  96 138 181 220 263 314
#     4  11  23  39  57  78 108 145 183 224 272 327
#     4   9  20  36  55  80 108 138 178 226 272 319
#     4   9  17  31  50  71  99 134 176 221 263 311
#     4  10  20  35  56  84 113 141 178 224 272 323
#
# _framework density 19.311615
#
# number of rings (size 3 to 8) (size 9 to 14) (size 15 to 20)
#    0.000    2.364    0.909    1.636    0.000    4.000 
#    0.000    3.636    0.000    0.545    0.000    0.000 
#    0.000    0.000    0.000    0.000    0.000    0.000 
#
# Total GULP energy -545285.644405 kJ/mol
# GULP energy per Si atom -12392.855555 kJ/mol
# Density = 1.926766 g / cm^3
# Si number density = 19.311615 Si / 1000 Ang^3
#
#
#
# Elastic Constant Matrix: (Units=GPa)
#
#
# Indices 1 2 3 4 5 6 
#
# 1 104.6062 29.6638 23.0177 0.0000 0.0000 0.0000
# 2 29.6638 43.1287 17.3795 0.0000 0.0000 0.0000
# 3 23.0177 17.3795 37.2242 0.0000 0.0000 0.0000
# 4 0.0000 0.0000 0.0000 27.2652 0.0000 0.0000
# 5 0.0000 0.0000 0.0000 0.0000 34.5279 0.0000
# 6 0.0000 0.0000 0.0000 0.0000 0.0000 25.7757
#
#
#
# Elastic Compliance Matrix: (Units=1/GPa)
#
#
# Indices 1 2 3 4 5 6 
#
# 1 0.012476 -0.006740 -0.004568 0.000000 0.000000 0.000000
# 2 -0.006740 0.032201 -0.010866 0.000000 0.000000 0.000000
# 3 -0.004568 -0.010866 0.034762 0.000000 0.000000 0.000000
# 4 0.000000 0.000000 0.000000 0.036677 0.000000 0.000000
# 5 0.000000 0.000000 0.000000 0.000000 0.028962 0.000000
# 6 0.000000 0.000000 0.000000 0.000000 0.000000 0.038796
#
#
# Mechanical properties :
#
#
# Convention : Reuss Voigt Hill
#
# Bulk Modulus (GPa) = 28.49771 36.12010 32.30891
# Shear Modulus (GPa) = 20.84023 25.17362 23.00693
#
# Velocity S-wave (km/s) = 3.28861 3.61439 3.45534
# Velocity P-wave (km/s) = 5.40451 6.01355 5.71715
#
# Compressibility (1/GPa) = 0.03509054
#
# Stress axis : x y z
#
# Youngs Moduli (GPa) = 80.15285 31.05462 28.76700
#
# Poissons Ratio (x) = 0.20932 0.13140
# Poissons Ratio (y) = 0.54027 0.31259
# Poissons Ratio (z) = 0.36611 0.33745
#
# Static dielectric constant tensor:
#      x y z
#    x 3.726130 0.000000 0.000000 
#    y 0.000000 3.403950 0.000000 
#    z 0.000000 0.000000 3.440680 
# 
# 
# High freq. dielectric constant tensor:
#      x y z
#    x 1.761930 0.000000 0.000000 
#    y 0.000000 1.727020 0.000000 
#    z 0.000000 0.000000 1.740230 
# 
# From -- ./inp_files/14191.got.cif
#   From: 2010.03.12/outbox.cif.g09.slc.cpg/sg63_8_cif.got.tgz:14191.got - 2010.04.10 19:34:48.
