data_PCOD8258574
_publ_section_title
;
Structure prediction by ZEFSAII (Michael W. Deem and Ramdas Pophale) SiO2 
 PCOD8258574
Probable space group: C M C M
;
_chemical_formula_sum "Si O2"
_cell_formula_units_Z 112
_cell_length_a 31.235059
_cell_length_b 13.326635
_cell_length_c 13.903476
_cell_angle_alpha 90.000000
_cell_angle_beta 90.000000
_cell_angle_gamma 90.000000
_cell_volume 5787.436318
_symmetry_space_group_name_H-M "C M C M"
_symmetry_group_IT_number 63
_symmetry_cell_setting 'orthorhombic'
loop_
_space_group_symop_operation_xyz
x,y,z
-x,-y,1/2+z
x,-y,-z
-x,y,1/2-z
-x,-y,-z
x,y,1/2-z
-x,y,z
x,-y,1/2+z
1/2+x,1/2+y,z
1/2-x,1/2-y,1/2+z
1/2+x,1/2-y,-z
1/2-x,1/2+y,1/2-z
1/2-x,1/2-y,-z
1/2+x,1/2+y,1/2-z
1/2-x,1/2+y,z
1/2+x,1/2-y,1/2+z
loop_
_atom_site_type_symbol
_atom_site_label
_atom_site_fract_x
_atom_site_fract_y
_atom_site_fract_z
Si Si1 0.698142 0.579474 0.861255
Si Si2 0.867888 0.615868 0.988017
Si Si3 0.411508 0.266736 0.635352
Si Si4 0.777961 0.309190 0.424690
Si Si5 0.327342 0.369486 0.857281
Si Si6 0.451533 0.385779 0.478849
Si Si7 0.378640 0.716595 0.635535
O O1 0.687461 0.570838 0.750000
O O2 0.747197 0.611860 0.872438
O O3 0.691868 0.468522 0.909617
O O4 0.664025 0.658888 0.904570
O O5 0.878986 0.674067 0.086678
O O6 0.879138 0.500000 0.000000
O O7 0.898753 0.655269 0.901142
O O8 0.817536 0.628198 0.966537
O O9 0.419939 0.266282 0.750000
O O10 0.371822 0.334522 0.595854
O O11 0.450298 0.316954 0.576418
O O12 0.750000 0.250000 0.500000
O O13 0.794221 0.222608 0.353270
O O14 0.339304 0.399475 0.750000
O O15 0.438272 0.500000 0.500000
O O16 0.500000 0.380943 0.439848
O O17 0.420833 0.344485 0.394983
O O18 0.378116 0.730731 0.750000
#
# Coordination Sequence:
#
# PCOD8258574 Si02
#       7
#    16  16  16  16  16  16  16
#     4  10  20  33  52  74 101 142 189 231 273 329
#     4  10  22  38  55  83 112 146 195 246 292 332
#     4   9  19  38  60  81 113 152 189 229 278 338
#     4  11  21  32  47  73 108 142 182 230 284 326
#     4   9  19  34  50  71 101 140 183 224 268 324
#     4  10  21  36  58  93 127 150 177 220 275 340
#     4  10  21  39  58  81 113 152 191 231 279 338
#
# _framework density 19.352264999999999
#
# number of rings (size 3 to 8) (size 9 to 14) (size 15 to 20)
#    0.000    2.143    1.429    1.286    2.000    3.429 
#    0.000    1.429    0.000    6.857    0.000    8.000 
#    0.000    0.000    0.000    0.000    0.000    0.000 
#
# Total GULP energy -694055.594822 kJ/mol
# GULP energy per Si atom -12393.849908 kJ/mol
# Density = 1.930822 g / cm^3
# Si number density = 19.352265 Si / 1000 Ang^3
#
#
#
# Elastic Constant Matrix: (Units=GPa)
#
#
# Indices 1 2 3 4 5 6 
#
# 1 80.0150 37.4668 15.5947 0.0000 0.0000 0.0000
# 2 37.4668 144.9441 24.6183 0.0000 0.0000 0.0000
# 3 15.5947 24.6183 62.1594 0.0000 0.0000 0.0000
# 4 0.0000 0.0000 0.0000 21.3099 0.0000 0.0000
# 5 0.0000 0.0000 0.0000 0.0000 23.1798 0.0000
# 6 0.0000 0.0000 0.0000 0.0000 0.0000 16.8325
#
#
#
# Elastic Compliance Matrix: (Units=1/GPa)
#
#
# Indices 1 2 3 4 5 6 
#
# 1 0.014522 -0.003361 -0.002312 0.000000 0.000000 0.000000
# 2 -0.003361 0.008175 -0.002394 0.000000 0.000000 0.000000
# 3 -0.002312 -0.002394 0.017616 0.000000 0.000000 0.000000
# 4 0.000000 0.000000 0.000000 0.046927 0.000000 0.000000
# 5 0.000000 0.000000 0.000000 0.000000 0.043141 0.000000
# 6 0.000000 0.000000 0.000000 0.000000 0.000000 0.059409
#
#
# Mechanical properties :
#
#
# Convention : Reuss Voigt Hill
#
# Bulk Modulus (GPa) = 41.36065 49.16424 45.26245
# Shear Modulus (GPa) = 23.36622 26.22699 24.79661
#
# Velocity S-wave (km/s) = 3.47856 3.68535 3.58345
# Velocity P-wave (km/s) = 6.12803 6.60069 6.36875
#
# Compressibility (1/GPa) = 0.02417757
#
# Stress axis : x y z
#
# Youngs Moduli (GPa) = 68.86042 122.32848 56.76642
#
# Poissons Ratio (x) = 0.41116 0.13125
# Poissons Ratio (y) = 0.23145 0.13592
# Poissons Ratio (z) = 0.15922 0.29290
#
# Static dielectric constant tensor:
#      x y z
#    x 3.874370 0.000000 0.000000 
#    y 0.000000 2.274130 0.000000 
#    z 0.000000 0.000000 3.406050 
# 
# 
# High freq. dielectric constant tensor:
#      x y z
#    x 1.738770 0.000000 0.000000 
#    y 0.000000 1.751700 0.000000 
#    z 0.000000 0.000000 1.754100 
# 
# From -- ./inp_files/38510.got.cif
#   From: 2010.03.12/outbox.cif.g09.slc.cpg/sg63_20_cif.got.tgz:38510.got - 2010.04.10 19:34:48.
