data_PCOD8258289
_publ_section_title
;
Structure prediction by ZEFSAII (Michael W. Deem and Ramdas Pophale) SiO2 
 PCOD8258289
Probable space group: C M C M
;
_chemical_formula_sum "Si O2"
_cell_formula_units_Z 88
_cell_length_a 22.673169
_cell_length_b 24.271472
_cell_length_c 8.801160
_cell_angle_alpha 90.000000
_cell_angle_beta 90.000000
_cell_angle_gamma 90.000000
_cell_volume 4843.376802
_symmetry_space_group_name_H-M "C M C M"
_symmetry_group_IT_number 63
_symmetry_cell_setting 'orthorhombic'
loop_
_space_group_symop_operation_xyz
x,y,z
-x,-y,1/2+z
x,-y,-z
-x,y,1/2-z
-x,-y,-z
x,y,1/2-z
-x,y,z
x,-y,1/2+z
1/2+x,1/2+y,z
1/2-x,1/2-y,1/2+z
1/2+x,1/2-y,-z
1/2-x,1/2+y,1/2-z
1/2-x,1/2-y,-z
1/2+x,1/2+y,1/2-z
1/2-x,1/2+y,z
1/2+x,1/2-y,1/2+z
loop_
_atom_site_type_symbol
_atom_site_label
_atom_site_fract_x
_atom_site_fract_y
_atom_site_fract_z
Si Si1 0.223150 0.941319 0.069589
Si Si2 0.066096 0.766478 0.928428
Si Si3 0.888020 0.128932 0.928784
Si Si4 0.000000 0.939906 0.069623
Si Si5 0.569236 0.857825 0.075905
Si Si6 0.654108 0.941615 0.928901
O O1 0.228137 0.946924 0.250000
O O2 0.173179 0.898291 0.019510
O O3 0.284906 0.920211 0.001820
O O4 0.205773 0.000000 0.000000
O O5 0.066221 0.775633 0.750000
O O6 0.087063 0.704635 0.967079
O O7 0.000000 0.776002 0.992562
O O8 0.110430 0.809604 0.004408
O O9 0.892184 0.133591 0.750000
O O10 0.942448 0.092485 0.990407
O O11 0.000000 0.945360 0.250000
O O12 0.000000 0.000000 0.000000
O O13 0.586611 0.870700 0.250000
O O14 0.500000 0.866724 0.051833
O O15 0.603203 0.898029 0.963063
O O16 0.662169 0.948722 0.750000
O O17 0.635740 0.000000 0.000000
#
# Coordination Sequence:
#
# PCOD8258289 Si02
#       6
#    16  16  16   8  16  16
#     4  10  20  35  54  76 104 142 182 221 268 317
#     4   9  18  33  54  79 106 140 178 216 264 316
#     4  10  20  33  51  75 106 141 179 223 269 315
#     4  10  20  32  46  72 106 138 175 224 271 310
#     4   9  19  37  59  83 111 139 171 215 263 314
#     4  11  22  37  58  82 108 140 175 214 263 317
#
# _framework density 18.169141
#
# number of rings (size 3 to 8) (size 9 to 14) (size 15 to 20)
#    0.000    2.182    0.909    4.909    0.000    3.636 
#    0.000    2.727    0.000    0.000    0.000    0.000 
#    0.000    0.000    0.000    0.000    0.000    0.000 
#
# Total GULP energy -545678.370117 kJ/mol
# GULP energy per Si atom -12401.781139 kJ/mol
# Density = 1.812779 g / cm^3
# Si number density = 18.169141 Si / 1000 Ang^3
#
#
#
# Elastic Constant Matrix: (Units=GPa)
#
#
# Indices 1 2 3 4 5 6 
#
# 1 93.1211 72.7247 40.0062 0.0000 0.0000 0.0000
# 2 72.7247 118.8086 39.9200 0.0000 0.0000 0.0000
# 3 40.0062 39.9200 66.5164 0.0000 0.0000 0.0000
# 4 0.0000 0.0000 0.0000 34.0929 0.0000 0.0000
# 5 0.0000 0.0000 0.0000 0.0000 24.8866 0.0000
# 6 0.0000 0.0000 0.0000 0.0000 0.0000 32.6367
#
#
#
# Elastic Compliance Matrix: (Units=1/GPa)
#
#
# Indices 1 2 3 4 5 6 
#
# 1 0.022707 -0.011662 -0.006658 0.000000 0.000000 0.000000
# 2 -0.011662 0.016533 -0.002908 0.000000 0.000000 0.000000
# 3 -0.006658 -0.002908 0.020783 0.000000 0.000000 0.000000
# 4 0.000000 0.000000 0.000000 0.029332 0.000000 0.000000
# 5 0.000000 0.000000 0.000000 0.000000 0.040182 0.000000
# 6 0.000000 0.000000 0.000000 0.000000 0.000000 0.030640
#
#
# Mechanical properties :
#
#
# Convention : Reuss Voigt Hill
#
# Bulk Modulus (GPa) = 56.92509 64.86089 60.89299
# Shear Modulus (GPa) = 23.98213 26.70958 25.34585
#
# Velocity S-wave (km/s) = 3.63704 3.83828 3.73901
# Velocity P-wave (km/s) = 7.00257 7.44440 7.22686
#
# Compressibility (1/GPa) = 0.01756695
#
# Stress axis : x y z
#
# Youngs Moduli (GPa) = 44.03965 60.48679 48.11518
#
# Poissons Ratio (x) = 0.70541 0.32035
# Poissons Ratio (y) = 0.51360 0.13991
# Poissons Ratio (z) = 0.29321 0.17589
#
# Static dielectric constant tensor:
#      x y z
#    x 3.385250 0.000000 0.000000 
#    y 0.000000 3.315700 0.000000 
#    z 0.000000 0.000000 3.266370 
# 
# 
# High freq. dielectric constant tensor:
#      x y z
#    x 1.697230 0.000000 0.000000 
#    y 0.000000 1.706250 0.000000 
#    z 0.000000 0.000000 1.702210 
# 
# From -- ./inp_files/8188.got.cif
#   From: 2010.03.12/outbox.cif.g09.slc.cpg/sg63_5_cif.got.tgz:8188.got - 2010.04.10 19:34:48.
