data_PCOD8258699
_publ_section_title
;
Structure prediction by ZEFSAII (Michael W. Deem and Ramdas Pophale) SiO2 
 PCOD8258699
Probable space group: C M C M
;
_chemical_formula_sum "Si O2"
_cell_formula_units_Z 80
_cell_length_a 18.398550
_cell_length_b 29.225193
_cell_length_c 9.449067
_cell_angle_alpha 90.000000
_cell_angle_beta 90.000000
_cell_angle_gamma 90.000000
_cell_volume 5080.774425
_symmetry_space_group_name_H-M "C M C M"
_symmetry_group_IT_number 63
_symmetry_cell_setting 'orthorhombic'
loop_
_space_group_symop_operation_xyz
x,y,z
-x,-y,1/2+z
x,-y,-z
-x,y,1/2-z
-x,-y,-z
x,y,1/2-z
-x,y,z
x,-y,1/2+z
1/2+x,1/2+y,z
1/2-x,1/2-y,1/2+z
1/2+x,1/2-y,-z
1/2-x,1/2+y,1/2-z
1/2-x,1/2-y,-z
1/2+x,1/2+y,1/2-z
1/2-x,1/2+y,z
1/2+x,1/2-y,1/2+z
loop_
_atom_site_type_symbol
_atom_site_label
_atom_site_fract_x
_atom_site_fract_y
_atom_site_fract_z
Si Si1 0.000000 0.257544 0.079390
Si Si2 0.086898 0.034556 0.750000
Si Si3 0.265627 0.684507 0.909483
Si Si4 0.000000 0.829023 0.402086
Si Si5 0.869195 0.106885 0.539617
Si Si6 0.357637 0.227256 0.415186
Si Si7 0.913771 0.928841 0.750000
O O1 0.000000 0.262632 0.250000
O O2 0.070472 0.280907 0.008954
O O3 0.000000 0.204126 0.036745
O O4 0.123884 0.057544 0.886386
O O5 0.000000 0.040703 0.750000
O O6 0.108520 0.981678 0.750000
O O7 0.235144 0.690950 0.750000
O O8 0.293212 0.632515 0.930565
O O9 0.331617 0.720284 0.935071
O O10 0.202864 0.692984 0.023693
O O11 0.069324 0.860906 0.398796
O O12 0.000000 0.801556 0.250000
O O13 0.877839 0.098549 0.375859
O O14 0.371432 0.215798 0.250000
O O15 0.000000 0.923209 0.750000
#
# Coordination Sequence:
#
# PCOD8258699 Si02
#       7
#     8   8  16   8  16  16   8
#     4  12  24  34  52  73 103 131 166 210 248 292
#     4  11  20  36  50  67  96 137 173 216 263 299
#     4  10  20  34  50  70  97 130 169 208 250 296
#     4  12  20  32  47  70  93 133 180 209 249 294
#     4  12  20  33  51  68  96 134 173 217 255 295
#     4  10  21  35  52  73  99 128 163 207 252 293
#     4  11  24  32  46  73 100 127 177 224 257 295
#
# _framework density 15.745632000000001
#
# number of rings (size 3 to 8) (size 9 to 14) (size 15 to 20)
#    0.000    1.000    6.000    2.100    2.800    2.400 
#    0.000    0.000    0.000    0.000    0.000    0.000 
#    0.000    0.000    0.000    5.400    0.000    0.100 
#
# Total GULP energy -495941.584285 kJ/mol
# GULP energy per Si atom -12398.539607 kJ/mol
# Density = 1.570979 g / cm^3
# Si number density = 15.745632 Si / 1000 Ang^3
#
#
#
# Elastic Constant Matrix: (Units=GPa)
#
#
# Indices 1 2 3 4 5 6 
#
# 1 72.4564 26.6400 45.8947 0.0000 0.0000 0.0000
# 2 26.6400 55.0314 25.1764 0.0000 0.0000 0.0000
# 3 45.8947 25.1764 145.3354 0.0000 0.0000 0.0000
# 4 0.0000 0.0000 0.0000 29.4697 0.0000 0.0000
# 5 0.0000 0.0000 0.0000 0.0000 24.8746 0.0000
# 6 0.0000 0.0000 0.0000 0.0000 0.0000 22.8338
#
#
#
# Elastic Compliance Matrix: (Units=1/GPa)
#
#
# Indices 1 2 3 4 5 6 
#
# 1 0.019581 -0.007222 -0.004932 0.000000 0.000000 0.000000
# 2 -0.007222 0.022399 -0.001600 0.000000 0.000000 0.000000
# 3 -0.004932 -0.001600 0.008715 0.000000 0.000000 0.000000
# 4 0.000000 0.000000 0.000000 0.033933 0.000000 0.000000
# 5 0.000000 0.000000 0.000000 0.000000 0.040202 0.000000
# 6 0.000000 0.000000 0.000000 0.000000 0.000000 0.043795
#
#
# Mechanical properties :
#
#
# Convention : Reuss Voigt Hill
#
# Bulk Modulus (GPa) = 43.12701 52.02728 47.57715
# Shear Modulus (GPa) = 24.52629 27.10976 25.81802
#
# Velocity S-wave (km/s) = 3.95100 4.15388 4.05371
# Velocity P-wave (km/s) = 6.94717 7.49135 7.22439
#
# Compressibility (1/GPa) = 0.02318732
#
# Stress axis : x y z
#
# Youngs Moduli (GPa) = 51.06990 44.64388 114.74141
#
# Poissons Ratio (x) = 0.32244 0.56593
# Poissons Ratio (y) = 0.36885 0.18353
# Poissons Ratio (z) = 0.25189 0.07141
#
# Static dielectric constant tensor:
#      x y z
#    x 3.143870 0.000000 0.000000 
#    y 0.000000 2.831780 0.000000 
#    z 0.000000 0.000000 3.168740 
# 
# 
# High freq. dielectric constant tensor:
#      x y z
#    x 1.576350 0.000000 0.000000 
#    y 0.000000 1.574640 0.000000 
#    z 0.000000 0.000000 1.628570 
# 
# From -- ./inp_files/6756.got.cif
#   From: 2010.03.12/outbox.cif.g09.slc.cpg/sg63_4_cif.got.tgz:6756.got - 2010.04.10 19:34:48.
