data_PCOD8258388
_publ_section_title
;
Structure prediction by ZEFSAII (Michael W. Deem and Ramdas Pophale) SiO2 
 PCOD8258388
Probable space group: C M C M
;
_chemical_formula_sum "Si O2"
_cell_formula_units_Z 96
_cell_length_a 9.321641
_cell_length_b 24.962140
_cell_length_c 23.313738
_cell_angle_alpha 90.000000
_cell_angle_beta 90.000000
_cell_angle_gamma 90.000000
_cell_volume 5424.829578
_symmetry_space_group_name_H-M "C M C M"
_symmetry_group_IT_number 63
_symmetry_cell_setting 'orthorhombic'
loop_
_space_group_symop_operation_xyz
x,y,z
-x,-y,1/2+z
x,-y,-z
-x,y,1/2-z
-x,-y,-z
x,y,1/2-z
-x,y,z
x,-y,1/2+z
1/2+x,1/2+y,z
1/2-x,1/2-y,1/2+z
1/2+x,1/2-y,-z
1/2-x,1/2+y,1/2-z
1/2-x,1/2-y,-z
1/2+x,1/2+y,1/2-z
1/2-x,1/2+y,z
1/2+x,1/2-y,1/2+z
loop_
_atom_site_type_symbol
_atom_site_label
_atom_site_fract_x
_atom_site_fract_y
_atom_site_fract_z
Si Si1 0.834187 0.412496 0.626368
Si Si2 0.331501 0.555685 0.750000
Si Si3 0.665353 0.390077 0.132292
Si Si4 0.836776 0.554166 0.250000
Si Si5 0.667021 0.807744 0.939775
Si Si6 0.332606 0.201045 0.928342
Si Si7 0.165463 0.003680 0.935559
O O1 0.807372 0.408594 0.694632
O O2 0.777269 0.358877 0.595830
O O3 0.751884 0.464200 0.604648
O O4 0.000000 0.420491 0.610948
O O5 0.500000 0.544784 0.750000
O O6 0.284423 0.589106 0.694347
O O7 0.261182 0.497797 0.750000
O O8 0.500000 0.371469 0.133490
O O9 0.764431 0.340455 0.115937
O O10 0.688842 0.436147 0.085534
O O11 0.000000 0.533302 0.250000
O O12 0.500000 0.795526 0.928227
O O13 0.759240 0.758077 0.917649
O O14 0.695711 0.818809 0.006838
O O15 0.500000 0.206526 0.915078
O O16 0.000000 0.986456 0.932459
O O17 0.224905 0.000000 0.000000
#
# Coordination Sequence:
#
# PCOD8258388 Si02
#       7
#    16   8  16   8  16  16  16
#     4  10  20  34  53  77 105 138 175 215 263 315
#     4  10  20  36  55  74 101 145 186 212 258 319
#     4  10  20  34  52  75 105 139 176 215 260 317
#     4  10  20  34  53  78 105 137 178 220 260 305
#     4   9  19  36  55  76 106 142 176 214 265 323
#     4  10  20  34  55  80 104 136 177 220 268 315
#     4  10  20  32  50  78 108 137 171 215 264 314
#
# _framework density 17.696408999999999
#
# number of rings (size 3 to 8) (size 9 to 14) (size 15 to 20)
#    0.000    2.167    1.667    1.500    0.000    3.000 
#    0.000    0.833    0.000    3.000    0.000    0.000 
#    0.000    0.000    0.000    0.000    0.000    0.000 
#
# Total GULP energy -595356.804182 kJ/mol
# GULP energy per Si atom -12403.266754 kJ/mol
# Density = 1.765613 g / cm^3
# Si number density = 17.696409 Si / 1000 Ang^3
#
#
#
# Elastic Constant Matrix: (Units=GPa)
#
#
# Indices 1 2 3 4 5 6 
#
# 1 52.7771 36.7235 18.7056 0.0000 0.0000 0.0000
# 2 36.7235 80.6795 23.8042 0.0000 0.0000 0.0000
# 3 18.7056 23.8042 82.9810 0.0000 0.0000 0.0000
# 4 0.0000 0.0000 0.0000 27.9185 0.0000 0.0000
# 5 0.0000 0.0000 0.0000 0.0000 22.3602 0.0000
# 6 0.0000 0.0000 0.0000 0.0000 0.0000 32.1863
#
#
#
# Elastic Compliance Matrix: (Units=1/GPa)
#
#
# Indices 1 2 3 4 5 6 
#
# 1 0.028372 -0.012047 -0.002940 0.000000 0.000000 0.000000
# 2 -0.012047 0.018656 -0.002636 0.000000 0.000000 0.000000
# 3 -0.002940 -0.002636 0.013470 0.000000 0.000000 0.000000
# 4 0.000000 0.000000 0.000000 0.035819 0.000000 0.000000
# 5 0.000000 0.000000 0.000000 0.000000 0.044722 0.000000
# 6 0.000000 0.000000 0.000000 0.000000 0.000000 0.031069
#
#
# Mechanical properties :
#
#
# Convention : Reuss Voigt Hill
#
# Bulk Modulus (GPa) = 39.60048 41.65600 40.62824
# Shear Modulus (GPa) = 23.17272 25.63997 24.40635
#
# Velocity S-wave (km/s) = 3.62257 3.81054 3.71775
# Velocity P-wave (km/s) = 6.31851 6.55368 6.43717
#
# Compressibility (1/GPa) = 0.02525222
#
# Stress axis : x y z
#
# Youngs Moduli (GPa) = 35.24591 53.60207 74.23990
#
# Poissons Ratio (x) = 0.64574 0.21825
# Poissons Ratio (y) = 0.42461 0.19570
# Poissons Ratio (z) = 0.10362 0.14130
#
# Static dielectric constant tensor:
#      x y z
#    x 3.261770 0.000000 0.000000 
#    y 0.000000 3.154800 0.000000 
#    z 0.000000 0.000000 3.513480 
# 
# 
# High freq. dielectric constant tensor:
#      x y z
#    x 1.682960 0.000000 0.000000 
#    y 0.000000 1.678370 0.000000 
#    z 0.000000 0.000000 1.688910 
# 
# From -- ./inp_files/60102.got.cif
#   From: 2010.03.12/outbox.cif.g09.slc.cpg/sg63_31_cif.got.tgz:60102.got - 2010.04.10 19:34:48.
