data_PCOD8258748
_publ_section_title
;
Structure prediction by ZEFSAII (Michael W. Deem and Ramdas Pophale) SiO2 
 PCOD8258748
Probable space group: C M C M
;
_chemical_formula_sum "Si O2"
_cell_formula_units_Z 72
_cell_length_a 13.182255
_cell_length_b 32.115163
_cell_length_c 9.547489
_cell_angle_alpha 90.000000
_cell_angle_beta 90.000000
_cell_angle_gamma 90.000000
_cell_volume 4041.932027
_symmetry_space_group_name_H-M "C M C M"
_symmetry_group_IT_number 63
_symmetry_cell_setting 'orthorhombic'
loop_
_space_group_symop_operation_xyz
x,y,z
-x,-y,1/2+z
x,-y,-z
-x,y,1/2-z
-x,-y,-z
x,y,1/2-z
-x,y,z
x,-y,1/2+z
1/2+x,1/2+y,z
1/2-x,1/2-y,1/2+z
1/2+x,1/2-y,-z
1/2-x,1/2+y,1/2-z
1/2-x,1/2-y,-z
1/2+x,1/2+y,1/2-z
1/2-x,1/2+y,z
1/2+x,1/2-y,1/2+z
loop_
_atom_site_type_symbol
_atom_site_label
_atom_site_fract_x
_atom_site_fract_y
_atom_site_fract_z
Si Si1 0.382874 0.768976 0.408721
Si Si2 0.000000 0.042928 0.417753
Si Si3 0.385609 0.958633 0.912955
Si Si4 0.725886 0.313849 0.586360
Si Si5 0.805103 0.905731 0.915270
O O1 0.347845 0.777675 0.250000
O O2 0.500000 0.776442 0.430108
O O3 0.358177 0.721049 0.448048
O O4 0.329227 0.801728 0.509287
O O5 0.900762 0.067985 0.470478
O O6 0.000000 0.035544 0.250000
O O7 0.000000 0.000000 0.500000
O O8 0.370278 0.969521 0.750000
O O9 0.500000 0.941446 0.940115
O O10 0.302613 0.925064 0.964223
O O11 0.365838 0.000000 0.000000
O O12 0.750826 0.316831 0.750000
O O13 0.687270 0.358359 0.528406
O O14 0.811319 0.905176 0.750000
#
# Coordination Sequence:
#
# PCOD8258748 Si02
#       5
#    16   8  16  16  16
#     4   9  18  32  50  71  99 131 160 199 250 300
#     4  10  20  34  52  74 102 132 168 206 248 296
#     4   9  17  30  47  67  92 121 154 192 236 283
#     4   9  18  32  50  73  96 125 167 204 242 290
#     4   9  18  31  50  74  96 124 162 204 239 283
#
# _framework density 17.813265000000001
#
# number of rings (size 3 to 8) (size 9 to 14) (size 15 to 20)
#    0.000    2.889    0.000    0.667    1.556    1.333 
#    0.000    4.444    0.000    2.667    0.000    0.000 
#    0.000    0.000    0.000    0.000    0.000    0.000 
#
# Total GULP energy -446288.534237 kJ/mol
# GULP energy per Si atom -12396.903729 kJ/mol
# Density = 1.777272 g / cm^3
# Si number density = 17.813265 Si / 1000 Ang^3
#
#
#
# Elastic Constant Matrix: (Units=GPa)
#
#
# Indices 1 2 3 4 5 6 
#
# 1 104.6174 65.2793 26.8985 0.0000 0.0000 0.0000
# 2 65.2793 142.9297 35.6533 0.0000 0.0000 0.0000
# 3 26.8985 35.6533 35.1021 0.0000 0.0000 0.0000
# 4 0.0000 0.0000 0.0000 25.7706 0.0000 0.0000
# 5 0.0000 0.0000 0.0000 0.0000 20.5548 0.0000
# 6 0.0000 0.0000 0.0000 0.0000 0.0000 22.1497
#
#
#
# Elastic Compliance Matrix: (Units=1/GPa)
#
#
# Indices 1 2 3 4 5 6 
#
# 1 0.014184 -0.005045 -0.005745 0.000000 0.000000 0.000000
# 2 -0.005045 0.011165 -0.007474 0.000000 0.000000 0.000000
# 3 -0.005745 -0.007474 0.040482 0.000000 0.000000 0.000000
# 4 0.000000 0.000000 0.000000 0.038804 0.000000 0.000000
# 5 0.000000 0.000000 0.000000 0.000000 0.048650 0.000000
# 6 0.000000 0.000000 0.000000 0.000000 0.000000 0.045147
#
#
# Mechanical properties :
#
#
# Convention : Reuss Voigt Hill
#
# Bulk Modulus (GPa) = 34.12639 59.81237 46.96938
# Shear Modulus (GPa) = 20.43082 24.01625 22.22353
#
# Velocity S-wave (km/s) = 3.39033 3.67580 3.53595
# Velocity P-wave (km/s) = 5.87582 7.18788 6.56471
#
# Compressibility (1/GPa) = 0.02930284
#
# Stress axis : x y z
#
# Youngs Moduli (GPa) = 70.50373 89.56478 24.70221
#
# Poissons Ratio (x) = 0.45186 0.14190
# Poissons Ratio (y) = 0.35569 0.18464
# Poissons Ratio (z) = 0.40501 0.66945
#
# Static dielectric constant tensor:
#      x y z
#    x 3.526590 0.000000 0.000000 
#    y 0.000000 3.457050 0.000000 
#    z 0.000000 0.000000 3.102040 
# 
# 
# High freq. dielectric constant tensor:
#      x y z
#    x 1.697220 0.000000 0.000000 
#    y 0.000000 1.689970 0.000000 
#    z 0.000000 0.000000 1.661590 
# 
# From -- ./inp_files/17569.got.cif
#   From: 2010.03.12/outbox.cif.g09.slc.cpg/sg63_9_cif.got.tgz:17569.got - 2010.04.10 19:34:48.
