data_PCOD8258063
_publ_section_title
;
Structure prediction by ZEFSAII (Michael W. Deem and Ramdas Pophale) SiO2 
 PCOD8258063
Probable space group: C M C M
;
_chemical_formula_sum "Si O2"
_cell_formula_units_Z 88
_cell_length_a 16.816512
_cell_length_b 10.210488
_cell_length_c 23.913106
_cell_angle_alpha 90.000000
_cell_angle_beta 90.000000
_cell_angle_gamma 90.000000
_cell_volume 4105.994939
_symmetry_space_group_name_H-M "C M C M"
_symmetry_group_IT_number 63
_symmetry_cell_setting 'orthorhombic'
loop_
_space_group_symop_operation_xyz
x,y,z
-x,-y,1/2+z
x,-y,-z
-x,y,1/2-z
-x,-y,-z
x,y,1/2-z
-x,y,z
x,-y,1/2+z
1/2+x,1/2+y,z
1/2-x,1/2-y,1/2+z
1/2+x,1/2-y,-z
1/2-x,1/2+y,1/2-z
1/2-x,1/2-y,-z
1/2+x,1/2+y,1/2-z
1/2-x,1/2+y,z
1/2+x,1/2-y,1/2+z
loop_
_atom_site_type_symbol
_atom_site_label
_atom_site_fract_x
_atom_site_fract_y
_atom_site_fract_z
Si Si1 0.407929 0.765760 0.364718
Si Si2 0.168990 1.000000 0.250000
Si Si3 0.688321 0.500000 0.870681
Si Si4 0.844676 0.725783 0.250000
Si Si5 0.407929 0.765760 0.864718
Si Si6 0.655324 0.774217 0.250000
Si Si7 0.650384 0.000000 0.434019
O O1 0.500000 0.733455 0.358549
O O2 0.363170 0.631031 0.379631
O O3 0.375071 0.837515 0.307720
O O4 0.394239 0.869678 0.413695
O O5 0.223313 0.000000 0.193387
O O6 0.114009 0.871329 0.250000
O O7 0.114008 0.128671 0.250000
O O8 0.636830 0.631031 0.879631
O O9 0.758592 0.500000 0.914619
O O10 0.875071 0.662485 0.192280
O O11 0.750000 0.750000 0.250000
O O12 0.500000 0.733455 0.858549
O O13 0.394238 0.869678 0.913695
O O14 0.648339 0.000000 0.500000
#
# Coordination Sequence:
#
# PCOD8258063 Si02
#       7
#    16   8  16   8  16   8  16
#     4  11  23  40  65  97 130 162 201 255 316 372
#     4   8  16  32  57  90 123 148 182 242 308 354
#     4  10  21  41  68  95 122 161 209 252 302 379
#     4  10  19  35  61  94 129 163 200 242 300 376
#     4  11  23  40  65  97 130 162 201 255 316 372
#     4  10  19  35  61  94 129 163 200 242 300 376
#     4  12  27  45  62  85 123 171 217 263 315 363
#
# _framework density 21.432077
#
# number of rings (size 3 to 8) (size 9 to 14) (size 15 to 20)
#    0.000    1.455    0.000    7.091    0.000    5.091 
#    0.000    7.273    0.000    3.273    0.000    0.000 
#    0.000    0.000    0.000    0.000    0.000    0.000 
#
# Total GULP energy -545197.462027 kJ/mol
# GULP energy per Si atom -12390.851410 kJ/mol
# Density = 2.138330 g / cm^3
# Si number density = 21.432077 Si / 1000 Ang^3
#
#
#
# Elastic Constant Matrix: (Units=GPa)
#
#
# Indices 1 2 3 4 5 6 
#
# 1 129.5797 21.6431 31.1921 0.0000 0.0000 0.0000
# 2 21.6431 113.5644 38.8424 0.0000 0.0000 0.0000
# 3 31.1921 38.8424 161.9924 0.0000 0.0000 0.0000
# 4 0.0000 0.0000 0.0000 23.7207 0.0000 0.0000
# 5 0.0000 0.0000 0.0000 0.0000 4.2803 0.0000
# 6 0.0000 0.0000 0.0000 0.0000 0.0000 32.8726
#
#
#
# Elastic Compliance Matrix: (Units=1/GPa)
#
#
# Indices 1 2 3 4 5 6 
#
# 1 0.008220 -0.001117 -0.001315 0.000000 0.000000 0.000000
# 2 -0.001117 0.009744 -0.002121 0.000000 0.000000 0.000000
# 3 -0.001315 -0.002121 0.006935 0.000000 0.000000 0.000000
# 4 0.000000 0.000000 0.000000 0.042157 0.000000 0.000000
# 5 0.000000 0.000000 0.000000 0.000000 0.233627 0.000000
# 6 0.000000 0.000000 0.000000 0.000000 0.000000 0.030420
#
#
# Mechanical properties :
#
#
# Convention : Reuss Voigt Hill
#
# Bulk Modulus (GPa) = 63.31984 65.38796 64.35390
# Shear Modulus (GPa) = 14.47282 33.07198 23.77240
#
# Velocity S-wave (km/s) = 2.60145 3.93250 3.33407
# Velocity P-wave (km/s) = 6.21546 7.15507 6.70175
#
# Compressibility (1/GPa) = 0.01579284
#
# Stress axis : x y z
#
# Youngs Moduli (GPa) = 121.64924 102.62738 144.19602
#
# Poissons Ratio (x) = 0.11462 0.18963
# Poissons Ratio (y) = 0.13586 0.30589
# Poissons Ratio (z) = 0.15998 0.21771
#
# Static dielectric constant tensor:
#      x y z
#    x 3.660390 0.000000 0.000000 
#    y 0.000000 4.381690 0.000000 
#    z 0.000000 0.000000 3.882830 
# 
# 
# High freq. dielectric constant tensor:
#      x y z
#    x 1.830460 0.000000 0.000000 
#    y 0.000000 1.858280 0.000000 
#    z 0.000000 0.000000 1.830520 
# 
# From -- ./inp_files/62718.got.cif
#   From: 2010.03.12/outbox.cif.g09.slc.cpg/sg63_32_cif.got.tgz:62718.got - 2010.04.10 19:34:48.
