data_PCOD8258318
_publ_section_title
;
Structure prediction by ZEFSAII (Michael W. Deem and Ramdas Pophale) SiO2 
 PCOD8258318
Probable space group: C M C M
;
_chemical_formula_sum "Si O2"
_cell_formula_units_Z 88
_cell_length_a 27.848833
_cell_length_b 18.974386
_cell_length_c 9.554082
_cell_angle_alpha 90.000000
_cell_angle_beta 90.000000
_cell_angle_gamma 90.000000
_cell_volume 5048.515530
_symmetry_space_group_name_H-M "C M C M"
_symmetry_group_IT_number 63
_symmetry_cell_setting 'orthorhombic'
loop_
_space_group_symop_operation_xyz
x,y,z
-x,-y,1/2+z
x,-y,-z
-x,y,1/2-z
-x,-y,-z
x,y,1/2-z
-x,y,z
x,-y,1/2+z
1/2+x,1/2+y,z
1/2-x,1/2-y,1/2+z
1/2+x,1/2-y,-z
1/2-x,1/2+y,1/2-z
1/2-x,1/2-y,-z
1/2+x,1/2+y,1/2-z
1/2-x,1/2+y,z
1/2+x,1/2-y,1/2+z
loop_
_atom_site_type_symbol
_atom_site_label
_atom_site_fract_x
_atom_site_fract_y
_atom_site_fract_z
Si Si1 0.000000 0.929636 0.087836
Si Si2 0.718349 0.932395 0.092107
Si Si3 0.055520 0.294760 0.085794
Si Si4 0.589881 0.666385 0.913627
Si Si5 0.322325 0.571509 0.912588
Si Si6 0.114010 0.429098 0.088016
O O1 0.953483 0.885074 0.046823
O O2 0.000000 0.950522 0.250000
O O3 0.000000 0.000000 0.000000
O O4 0.718760 0.959649 0.250000
O O5 0.769151 0.892546 0.063133
O O6 0.667399 0.893508 0.062856
O O7 0.718723 0.000000 0.000000
O O8 0.063074 0.281081 0.250000
O O9 0.075039 0.371533 0.042013
O O10 0.000000 0.290818 0.042561
O O11 0.085674 0.237556 0.001078
O O12 0.589386 0.685604 0.750000
O O13 0.639119 0.629095 0.960974
O O14 0.330783 0.552190 0.750000
O O15 0.328854 0.500000 0.000000
O O16 0.107194 0.449570 0.250000
O O17 0.106136 0.500000 0.000000
#
# Coordination Sequence:
#
# PCOD8258318 Si02
#       6
#     8  16  16  16  16  16
#     4  10  20  32  48  70  95 124 161 202 239 276
#     4   8  14  27  47  70  97 126 154 191 239 285
#     4  10  21  36  52  70  95 129 165 201 244 291
#     4  10  20  34  49  69  98 130 164 200 240 286
#     4   9  17  29  48  73  99 128 162 199 238 283
#     4   9  18  33  53  76  99 123 157 199 242 292
#
# _framework density 17.430866999999999
#
# number of rings (size 3 to 8) (size 9 to 14) (size 15 to 20)
#    0.000    2.727    0.909    0.545    0.000    2.545 
#    0.000    0.909    0.000    0.000    0.000    0.000 
#    0.000    0.000    0.000    0.000    0.000    0.000 
#
# Total GULP energy -545172.177534 kJ/mol
# GULP energy per Si atom -12390.276762 kJ/mol
# Density = 1.739119 g / cm^3
# Si number density = 17.430867 Si / 1000 Ang^3
#
#
#
# Elastic Constant Matrix: (Units=GPa)
#
#
# Indices 1 2 3 4 5 6 
#
# 1 91.6805 48.2732 31.3258 0.0000 0.0000 0.0000
# 2 48.2732 101.2522 45.7320 0.0000 0.0000 0.0000
# 3 31.3258 45.7320 46.9245 0.0000 0.0000 0.0000
# 4 0.0000 0.0000 0.0000 30.6391 0.0000 0.0000
# 5 0.0000 0.0000 0.0000 0.0000 18.5360 0.0000
# 6 0.0000 0.0000 0.0000 0.0000 0.0000 10.8679
#
#
#
# Elastic Compliance Matrix: (Units=1/GPa)
#
#
# Indices 1 2 3 4 5 6 
#
# 1 0.015334 -0.004800 -0.005559 0.000000 0.000000 0.000000
# 2 -0.004800 0.019145 -0.015454 0.000000 0.000000 0.000000
# 3 -0.005559 -0.015454 0.040083 0.000000 0.000000 0.000000
# 4 0.000000 0.000000 0.000000 0.032638 0.000000 0.000000
# 5 0.000000 0.000000 0.000000 0.000000 0.053949 0.000000
# 6 0.000000 0.000000 0.000000 0.000000 0.000000 0.092014
#
#
# Mechanical properties :
#
#
# Convention : Reuss Voigt Hill
#
# Bulk Modulus (GPa) = 43.59848 54.50214 49.05031
# Shear Modulus (GPa) = 16.00341 19.64368 17.82355
#
# Velocity S-wave (km/s) = 3.03332 3.36065 3.20117
# Velocity P-wave (km/s) = 6.11020 6.81132 6.47026
#
# Compressibility (1/GPa) = 0.02293658
#
# Stress axis : x y z
#
# Youngs Moduli (GPa) = 65.21380 52.23358 24.94840
#
# Poissons Ratio (x) = 0.25073 0.13868
# Poissons Ratio (y) = 0.31303 0.38555
# Poissons Ratio (z) = 0.36250 0.80721
#
# Static dielectric constant tensor:
#      x y z
#    x 4.126750 0.000000 0.000000 
#    y 0.000000 2.673240 0.000000 
#    z 0.000000 0.000000 3.243820 
# 
# 
# High freq. dielectric constant tensor:
#      x y z
#    x 1.698260 0.000000 0.000000 
#    y 0.000000 1.637240 0.000000 
#    z 0.000000 0.000000 1.673640 
# 
# From -- ./inp_files/24907.got.cif
#   From: 2010.03.12/outbox.cif.g09.slc.cpg/sg63_13_cif.got.tgz:24907.got - 2010.04.10 19:34:48.
