data_PCOD8258369
_publ_section_title
;
Structure prediction by ZEFSAII (Michael W. Deem and Ramdas Pophale) SiO2 
 PCOD8258369
Probable space group: C M C M
;
_chemical_formula_sum "Si O2"
_cell_formula_units_Z 80
_cell_length_a 28.899732
_cell_length_b 9.058842
_cell_length_c 15.501141
_cell_angle_alpha 90.000000
_cell_angle_beta 90.000000
_cell_angle_gamma 90.000000
_cell_volume 4058.169355
_symmetry_space_group_name_H-M "C M C M"
_symmetry_group_IT_number 63
_symmetry_cell_setting 'orthorhombic'
loop_
_space_group_symop_operation_xyz
x,y,z
-x,-y,1/2+z
x,-y,-z
-x,y,1/2-z
-x,-y,-z
x,y,1/2-z
-x,y,z
x,-y,1/2+z
1/2+x,1/2+y,z
1/2-x,1/2-y,1/2+z
1/2+x,1/2-y,-z
1/2-x,1/2+y,1/2-z
1/2-x,1/2-y,-z
1/2+x,1/2+y,1/2-z
1/2-x,1/2+y,z
1/2+x,1/2-y,1/2+z
loop_
_atom_site_type_symbol
_atom_site_label
_atom_site_fract_x
_atom_site_fract_y
_atom_site_fract_z
Si Si1 0.449774 0.923836 0.092050
Si Si2 0.307931 0.661169 0.353714
Si Si3 0.722113 0.979275 0.348704
Si Si4 0.133439 0.597487 0.084579
Si Si5 0.396046 0.654953 0.031992
O O1 0.500000 0.928793 0.140021
O O2 0.434903 0.752819 0.080338
O O3 0.409114 0.019475 0.138956
O O4 0.455403 0.000000 0.000000
O O5 0.314662 0.659550 0.250000
O O6 0.269180 0.546319 0.387998
O O7 0.355465 0.620059 0.400120
O O8 0.291858 0.821935 0.388816
O O9 0.732828 0.953903 0.250000
O O10 0.679941 0.095943 0.359032
O O11 0.142679 0.500000 0.000000
O O12 0.121999 0.763041 0.054737
O O13 0.417660 0.500000 0.000000
#
# Coordination Sequence:
#
# PCOD8258369 Si02
#       5
#    16  16  16  16  16
#     4   8  15  31  53  73  98 128 160 205 252 292
#     4  10  21  35  49  69 100 136 169 200 243 297
#     4  10  20  34  50  69  98 136 169 201 246 296
#     4   9  17  33  49  72  99 126 165 207 246 282
#     4  10  20  32  49  76 102 128 165 205 245 290
#
# _framework density 19.713322999999999
#
# number of rings (size 3 to 8) (size 9 to 14) (size 15 to 20)
#    0.000    3.000    4.000    0.000    2.800    2.000 
#    0.000    0.000    0.000    2.400    0.000    0.000 
#    0.000   11.200    0.000    0.000    0.000    0.000 
#
# Total GULP energy -495527.478911 kJ/mol
# GULP energy per Si atom -12388.186973 kJ/mol
# Density = 1.966845 g / cm^3
# Si number density = 19.713323 Si / 1000 Ang^3
#
#
#
# Elastic Constant Matrix: (Units=GPa)
#
#
# Indices 1 2 3 4 5 6 
#
# 1 127.5769 14.7187 16.5682 0.0000 0.0000 0.0000
# 2 14.7187 93.5886 14.3067 0.0000 0.0000 0.0000
# 3 16.5682 14.3067 14.5277 0.0000 0.0000 0.0000
# 4 0.0000 0.0000 0.0000 14.3304 0.0000 0.0000
# 5 0.0000 0.0000 0.0000 0.0000 -10.8223 0.0000
# 6 0.0000 0.0000 0.0000 0.0000 0.0000 10.4660
#
#
#
# Elastic Compliance Matrix: (Units=1/GPa)
#
#
# Indices 1 2 3 4 5 6 
#
# 1 0.009204 0.000185 -0.010679 0.000000 0.000000 0.000000
# 2 0.000185 0.012582 -0.012602 0.000000 0.000000 0.000000
# 3 -0.010679 -0.012602 0.093423 0.000000 0.000000 0.000000
# 4 0.000000 0.000000 0.000000 0.069781 0.000000 0.000000
# 5 0.000000 0.000000 0.000000 0.000000 -0.092402 0.000000
# 6 0.000000 0.000000 0.000000 0.000000 0.000000 0.095548
#
#
# Mechanical properties :
#
#
# Convention : Reuss Voigt Hill
#
# Bulk Modulus (GPa) = 14.48904 36.32004 25.40454
# Shear Modulus (GPa) = 19.43005 15.46814 17.44910
#
# Velocity S-wave (km/s) = 3.14288 2.80421 2.97836
# Velocity P-wave (km/s) = 4.53168 5.38042 4.97418
#
# Compressibility (1/GPa) = 0.06901768
#
# Stress axis : x y z
#
# Youngs Moduli (GPa) = 108.64959 79.47611 10.70403
#
# Poissons Ratio (x) = -0.01470 0.11431
# Poissons Ratio (y) = -0.02009 0.13489
# Poissons Ratio (z) = 1.16024 1.00155
#
# Static dielectric constant tensor:
#      x y z
#    x 4.406950 0.000000 0.000000 
#    y 0.000000 3.785770 0.000000 
#    z 0.000000 0.000000 3.071850 
# 
# 
# High freq. dielectric constant tensor:
#      x y z
#    x 1.771130 0.000000 0.000000 
#    y 0.000000 1.765110 0.000000 
#    z 0.000000 0.000000 1.717170 
# 
# From -- ./inp_files/49405.got.cif
#   From: 2010.03.12/outbox.cif.g09.slc.cpg/sg63_25_cif.got.tgz:49405.got - 2010.04.10 19:34:48.
