data_PCOD8258150
_publ_section_title
;
Structure prediction by ZEFSAII (Michael W. Deem and Ramdas Pophale) SiO2 
 PCOD8258150
Probable space group: C M C M
;
_chemical_formula_sum "Si O2"
_cell_formula_units_Z 112
_cell_length_a 11.805980
_cell_length_b 18.447286
_cell_length_c 25.875279
_cell_angle_alpha 90.000000
_cell_angle_beta 90.000000
_cell_angle_gamma 90.000000
_cell_volume 5635.332756
_symmetry_space_group_name_H-M "C M C M"
_symmetry_group_IT_number 63
_symmetry_cell_setting 'orthorhombic'
loop_
_space_group_symop_operation_xyz
x,y,z
-x,-y,1/2+z
x,-y,-z
-x,y,1/2-z
-x,-y,-z
x,y,1/2-z
-x,y,z
x,-y,1/2+z
1/2+x,1/2+y,z
1/2-x,1/2-y,1/2+z
1/2+x,1/2-y,-z
1/2-x,1/2+y,1/2-z
1/2-x,1/2-y,-z
1/2+x,1/2+y,1/2-z
1/2-x,1/2+y,z
1/2+x,1/2-y,1/2+z
loop_
_atom_site_type_symbol
_atom_site_label
_atom_site_fract_x
_atom_site_fract_y
_atom_site_fract_z
Si Si1 0.874137 0.613626 0.391815
Si Si2 0.630814 0.968037 0.052762
Si Si3 0.124577 0.729710 0.806877
Si Si4 0.696618 0.616368 0.192562
Si Si5 0.267514 0.351873 0.389659
Si Si6 0.633087 0.756802 0.534581
Si Si7 0.128410 0.958212 0.192925
O O1 0.852371 0.529252 0.403891
O O2 0.797574 0.638008 0.344947
O O3 0.854222 0.662819 0.442332
O O4 0.000000 0.625096 0.371314
O O5 0.500000 0.948450 0.043677
O O6 0.690630 0.893489 0.068604
O O7 0.683978 0.000000 0.000000
O O8 0.176183 0.709008 0.750000
O O9 0.110225 0.816682 0.810369
O O10 0.196830 0.702485 0.854557
O O11 0.000000 0.695181 0.811633
O O12 0.747336 0.607814 0.250000
O O13 0.635097 0.542331 0.176052
O O14 0.360016 0.304976 0.420949
O O15 0.318728 0.410824 0.351744
O O16 0.500000 0.749593 0.511254
O O17 0.750000 0.750000 0.500000
O O18 0.185155 0.946132 0.250000
O O19 0.000000 0.934506 0.197205
#
# Coordination Sequence:
#
# PCOD8258150 Si02
#       7
#    16  16  16  16  16  16  16
#     4  10  20  39  60  84 118 155 201 248 293 364
#     4  10  21  37  60  85 114 156 201 245 302 365
#     4  10  21  36  57  89 124 159 203 252 303 365
#     4  10  19  37  60  83 116 159 201 241 292 360
#     4  12  21  37  64  87 122 153 198 254 312 358
#     4  11  25  44  66  91 122 160 205 260 316 373
#     4  10  21  37  59  87 119 157 196 238 298 368
#
# _framework density 19.874603
#
# number of rings (size 3 to 8) (size 9 to 14) (size 15 to 20)
#    0.000    1.571    2.857    2.571    0.000    4.286 
#    0.000    0.000    0.000    1.714    0.000    0.000 
#    0.000    0.000    0.000    0.000    0.000    0.000 
#
# Total GULP energy -693745.469371 kJ/mol
# GULP energy per Si atom -12388.311953 kJ/mol
# Density = 1.982937 g / cm^3
# Si number density = 19.874603 Si / 1000 Ang^3
#
#
#
# Elastic Constant Matrix: (Units=GPa)
#
#
# Indices 1 2 3 4 5 6 
#
# 1 93.5800 15.6361 37.6019 0.0000 0.0000 0.0000
# 2 15.6361 80.7090 13.8130 0.0000 0.0000 0.0000
# 3 37.6019 13.8130 77.1713 0.0000 0.0000 0.0000
# 4 0.0000 0.0000 0.0000 32.2335 0.0000 0.0000
# 5 0.0000 0.0000 0.0000 0.0000 33.8460 0.0000
# 6 0.0000 0.0000 0.0000 0.0000 0.0000 10.5343
#
#
#
# Elastic Compliance Matrix: (Units=1/GPa)
#
#
# Indices 1 2 3 4 5 6 
#
# 1 0.013469 -0.001533 -0.006288 0.000000 0.000000 0.000000
# 2 -0.001533 0.012956 -0.001572 0.000000 0.000000 0.000000
# 3 -0.006288 -0.001572 0.016304 0.000000 0.000000 0.000000
# 4 0.000000 0.000000 0.000000 0.031024 0.000000 0.000000
# 5 0.000000 0.000000 0.000000 0.000000 0.029546 0.000000
# 6 0.000000 0.000000 0.000000 0.000000 0.000000 0.094928
#
#
# Mechanical properties :
#
#
# Convention : Reuss Voigt Hill
#
# Bulk Modulus (GPa) = 41.76811 42.84026 42.30418
# Shear Modulus (GPa) = 22.22285 27.61671 24.91978
#
# Velocity S-wave (km/s) = 3.34751 3.73171 3.54482
# Velocity P-wave (km/s) = 6.00021 6.33795 6.17139
#
# Compressibility (1/GPa) = 0.02394171
#
# Stress axis : x y z
#
# Youngs Moduli (GPa) = 74.24463 77.18271 61.33623
#
# Poissons Ratio (x) = 0.11834 0.38570
# Poissons Ratio (y) = 0.11383 0.09642
# Poissons Ratio (z) = 0.46688 0.12133
#
# Static dielectric constant tensor:
#      x y z
#    x 3.654400 0.000000 0.000000 
#    y 0.000000 3.719240 0.000000 
#    z 0.000000 0.000000 3.716390 
# 
# 
# High freq. dielectric constant tensor:
#      x y z
#    x 1.760720 0.000000 0.000000 
#    y 0.000000 1.787920 0.000000 
#    z 0.000000 0.000000 1.774520 
# 
# From -- ./inp_files/61807.got.cif
#   From: 2010.03.12/outbox.cif.g09.slc.cpg/sg63_31_cif.got.tgz:61807.got - 2010.04.10 19:34:48.
