data_PCOD8258387
_publ_section_title
;
Structure prediction by ZEFSAII (Michael W. Deem and Ramdas Pophale) SiO2 
 PCOD8258387
Probable space group: C M C M
;
_chemical_formula_sum "Si O2"
_cell_formula_units_Z 88
_cell_length_a 18.958549
_cell_length_b 27.589440
_cell_length_c 9.244344
_cell_angle_alpha 90.000000
_cell_angle_beta 90.000000
_cell_angle_gamma 90.000000
_cell_volume 4835.307285
_symmetry_space_group_name_H-M "C M C M"
_symmetry_group_IT_number 63
_symmetry_cell_setting 'orthorhombic'
loop_
_space_group_symop_operation_xyz
x,y,z
-x,-y,1/2+z
x,-y,-z
-x,y,1/2-z
-x,-y,-z
x,y,1/2-z
-x,y,z
x,-y,1/2+z
1/2+x,1/2+y,z
1/2-x,1/2-y,1/2+z
1/2+x,1/2-y,-z
1/2-x,1/2+y,1/2-z
1/2-x,1/2-y,-z
1/2+x,1/2+y,1/2-z
1/2-x,1/2+y,z
1/2+x,1/2-y,1/2+z
loop_
_atom_site_type_symbol
_atom_site_label
_atom_site_fract_x
_atom_site_fract_y
_atom_site_fract_z
Si Si1 0.580808 0.776670 0.421855
Si Si2 0.181350 0.806586 0.912255
Si Si3 0.173768 0.652635 0.423176
Si Si4 0.000000 0.049976 0.919202
Si Si5 0.277523 0.047910 0.417615
Si Si6 0.874167 0.087175 0.088924
O O1 0.587449 0.782433 0.250000
O O2 0.500000 0.765275 0.464881
O O3 0.631903 0.734263 0.486314
O O4 0.604311 0.826448 0.499842
O O5 0.194835 0.788891 0.750000
O O6 0.258422 0.816259 0.983169
O O7 0.138924 0.856124 0.913098
O O8 0.169607 0.656547 0.250000
O O9 0.180532 0.596118 0.468354
O O10 0.000000 0.041828 0.750000
O O11 0.930768 0.078711 0.965091
O O12 0.000000 0.000000 0.000000
O O13 0.291258 0.038666 0.250000
O O14 0.195113 0.056422 0.449308
O O15 0.304505 0.000000 0.500000
O O16 0.901095 0.072267 0.250000
#
# Coordination Sequence:
#
# PCOD8258387 Si02
#       6
#    16  16  16   8  16  16
#     4  10  20  32  50  78 106 135 173 209 245 298
#     4   8  16  32  54  76  99 133 173 207 244 299
#     4   9  18  34  53  75 103 134 169 207 251 303
#     4  12  24  34  44  64  96 134 174 214 255 300
#     4   9  18  32  52  77  99 124 164 209 254 307
#     4   9  18  33  52  71  95 130 169 208 252 300
#
# _framework density 18.199463999999999
#
# number of rings (size 3 to 8) (size 9 to 14) (size 15 to 20)
#    0.000    2.727    0.000    4.091    1.273    3.273 
#    0.000    3.636    0.000    0.545    0.000    0.000 
#    0.000    0.000    0.000    0.000    0.000    0.000 
#
# Total GULP energy -545308.113668 kJ/mol
# GULP energy per Si atom -12393.366220 kJ/mol
# Density = 1.815804 g / cm^3
# Si number density = 18.199464 Si / 1000 Ang^3
#
#
#
# Elastic Constant Matrix: (Units=GPa)
#
#
# Indices 1 2 3 4 5 6 
#
# 1 67.6166 47.7293 26.3059 0.0000 0.0000 0.0000
# 2 47.7293 106.1446 28.6945 0.0000 0.0000 0.0000
# 3 26.3059 28.6945 50.8548 0.0000 0.0000 0.0000
# 4 0.0000 0.0000 0.0000 27.5544 0.0000 0.0000
# 5 0.0000 0.0000 0.0000 0.0000 24.9233 0.0000
# 6 0.0000 0.0000 0.0000 0.0000 0.0000 14.2906
#
#
#
# Elastic Compliance Matrix: (Units=1/GPa)
#
#
# Indices 1 2 3 4 5 6 
#
# 1 0.023817 -0.008707 -0.007407 0.000000 0.000000 0.000000
# 2 -0.008707 0.014300 -0.003565 0.000000 0.000000 0.000000
# 3 -0.007407 -0.003565 0.025507 0.000000 0.000000 0.000000
# 4 0.000000 0.000000 0.000000 0.036292 0.000000 0.000000
# 5 0.000000 0.000000 0.000000 0.000000 0.040123 0.000000
# 6 0.000000 0.000000 0.000000 0.000000 0.000000 0.069976
#
#
# Mechanical properties :
#
#
# Convention : Reuss Voigt Hill
#
# Bulk Modulus (GPa) = 41.20998 47.78617 44.49807
# Shear Modulus (GPa) = 19.42035 21.47942 20.44988
#
# Velocity S-wave (km/s) = 3.27017 3.43916 3.35573
# Velocity P-wave (km/s) = 6.07876 6.48725 6.28632
#
# Compressibility (1/GPa) = 0.02426597
#
# Stress axis : x y z
#
# Youngs Moduli (GPa) = 41.98628 69.92938 39.20554
#
# Poissons Ratio (x) = 0.60890 0.29040
# Poissons Ratio (y) = 0.36559 0.13975
# Poissons Ratio (z) = 0.31099 0.24927
#
# Static dielectric constant tensor:
#      x y z
#    x 3.247190 0.000000 0.000000 
#    y 0.000000 3.406320 0.000000 
#    z 0.000000 0.000000 3.201360 
# 
# 
# High freq. dielectric constant tensor:
#      x y z
#    x 1.687570 0.000000 0.000000 
#    y 0.000000 1.711670 0.000000 
#    z 0.000000 0.000000 1.678970 
# 
# From -- ./inp_files/6775.got.cif
#   From: 2010.03.12/outbox.cif.g09.slc.cpg/sg63_4_cif.got.tgz:6775.got - 2010.04.10 19:34:48.
