data_PCOD8258317
_publ_section_title
;
Structure prediction by ZEFSAII (Michael W. Deem and Ramdas Pophale) SiO2 
 PCOD8258317
Probable space group: C M C M
;
_chemical_formula_sum "Si O2"
_cell_formula_units_Z 96
_cell_length_a 13.862289
_cell_length_b 37.255988
_cell_length_c 11.433439
_cell_angle_alpha 90.000000
_cell_angle_beta 90.000000
_cell_angle_gamma 90.000000
_cell_volume 5904.836989
_symmetry_space_group_name_H-M "C M C M"
_symmetry_group_IT_number 63
_symmetry_cell_setting 'orthorhombic'
loop_
_space_group_symop_operation_xyz
x,y,z
-x,-y,1/2+z
x,-y,-z
-x,y,1/2-z
-x,-y,-z
x,y,1/2-z
-x,y,z
x,-y,1/2+z
1/2+x,1/2+y,z
1/2-x,1/2-y,1/2+z
1/2+x,1/2-y,-z
1/2-x,1/2+y,1/2-z
1/2-x,1/2-y,-z
1/2+x,1/2+y,1/2-z
1/2-x,1/2+y,z
1/2+x,1/2-y,1/2+z
loop_
_atom_site_type_symbol
_atom_site_label
_atom_site_fract_x
_atom_site_fract_y
_atom_site_fract_z
Si Si1 0.610261 0.297745 0.013313
Si Si2 0.110961 0.725820 0.879931
Si Si3 0.107772 0.602011 0.884521
Si Si4 0.885747 0.239223 0.750000
Si Si5 0.292430 0.836810 0.517677
Si Si6 0.614260 0.020090 0.617481
Si Si7 0.384945 0.179215 0.250000
O O1 0.500000 0.311262 0.023323
O O2 0.649671 0.281934 0.135919
O O3 0.620665 0.267007 0.916766
O O4 0.676407 0.331639 0.976543
O O5 0.154449 0.722301 0.750000
O O6 0.000000 0.713671 0.883303
O O7 0.166719 0.700057 0.966211
O O8 0.104115 0.612911 0.750000
O O9 0.143921 0.561389 0.900339
O O10 0.000000 0.606919 0.938140
O O11 0.184775 0.627933 0.944025
O O12 0.845960 0.279847 0.750000
O O13 0.000000 0.242122 0.750000
O O14 0.341340 0.842523 0.642095
O O15 0.650953 0.007423 0.750000
O O16 0.500000 0.015784 0.619070
O O17 0.656171 0.000000 0.500000
O O18 0.500000 0.177031 0.250000
#
# Coordination Sequence:
#
# PCOD8258317 Si02
#       7
#    16  16  16   8  16  16   8
#     4  10  22  35  47  64  85 115 157 201 240 279
#     4  10  20  32  48  67  84 109 153 200 236 283
#     4   9  18  32  48  68  95 123 152 186 222 269
#     4   9  18  34  48  61  85 112 147 198 246 279
#     4  12  22  31  49  64  90 122 153 187 240 285
#     4   8  14  27  47  69  94 123 152 180 215 261
#     4  11  22  34  47  65  91 118 148 194 245 285
#
# _framework density 16.257857000000001
#
# number of rings (size 3 to 8) (size 9 to 14) (size 15 to 20)
#    0.000    2.167    1.667    3.500    3.500    1.333 
#    1.500    0.000    0.000    0.000    0.000    0.000 
#    0.000    0.667    0.000    0.500    0.000    0.667 
#
# Total GULP energy -594969.458166 kJ/mol
# GULP energy per Si atom -12395.197045 kJ/mol
# Density = 1.622085 g / cm^3
# Si number density = 16.257857 Si / 1000 Ang^3
#
#
#
# Elastic Constant Matrix: (Units=GPa)
#
#
# Indices 1 2 3 4 5 6 
#
# 1 48.6632 30.9990 30.9314 0.0000 0.0000 0.0000
# 2 30.9990 64.2958 32.7946 0.0000 0.0000 0.0000
# 3 30.9314 32.7946 97.4650 0.0000 0.0000 0.0000
# 4 0.0000 0.0000 0.0000 18.5849 0.0000 0.0000
# 5 0.0000 0.0000 0.0000 0.0000 18.4680 0.0000
# 6 0.0000 0.0000 0.0000 0.0000 0.0000 14.9375
#
#
#
# Elastic Compliance Matrix: (Units=1/GPa)
#
#
# Indices 1 2 3 4 5 6 
#
# 1 0.032377 -0.012517 -0.006063 0.000000 0.000000 0.000000
# 2 -0.012517 0.023615 -0.003973 0.000000 0.000000 0.000000
# 3 -0.006063 -0.003973 0.013521 0.000000 0.000000 0.000000
# 4 0.000000 0.000000 0.000000 0.053807 0.000000 0.000000
# 5 0.000000 0.000000 0.000000 0.000000 0.054148 0.000000
# 6 0.000000 0.000000 0.000000 0.000000 0.000000 0.066946
#
#
# Mechanical properties :
#
#
# Convention : Reuss Voigt Hill
#
# Bulk Modulus (GPa) = 40.97505 44.43045 42.70275
# Shear Modulus (GPa) = 16.79788 18.11135 17.45461
#
# Velocity S-wave (km/s) = 3.21786 3.34129 3.28015
# Velocity P-wave (km/s) = 6.25013 6.50181 6.37721
#
# Compressibility (1/GPa) = 0.02440510
#
# Stress axis : x y z
#
# Youngs Moduli (GPa) = 30.88599 42.34653 73.95745
#
# Poissons Ratio (x) = 0.53006 0.44844
# Poissons Ratio (y) = 0.38661 0.29385
# Poissons Ratio (z) = 0.18727 0.16825
#
# Static dielectric constant tensor:
#      x y z
#    x 2.982160 0.000000 0.000000 
#    y 0.000000 2.787330 0.000000 
#    z 0.000000 0.000000 3.487320 
# 
# 
# High freq. dielectric constant tensor:
#      x y z
#    x 1.597840 0.000000 0.000000 
#    y 0.000000 1.582400 0.000000 
#    z 0.000000 0.000000 1.643330 
# 
# From -- ./inp_files/19997.got.cif
#   From: 2010.03.12/outbox.cif.g09.slc.cpg/sg63_10_cif.got.tgz:19997.got - 2010.04.10 19:34:48.
