data_PCOD8258894
_publ_section_title
;
Structure prediction by ZEFSAII (Michael W. Deem and Ramdas Pophale) SiO2 
 PCOD8258894
Probable space group: C M C M
;
_chemical_formula_sum "Si O2"
_cell_formula_units_Z 80
_cell_length_a 8.945996
_cell_length_b 27.446023
_cell_length_c 17.718082
_cell_angle_alpha 90.000000
_cell_angle_beta 90.000000
_cell_angle_gamma 90.000000
_cell_volume 4350.356322
_symmetry_space_group_name_H-M "C M C M"
_symmetry_group_IT_number 63
_symmetry_cell_setting 'orthorhombic'
loop_
_space_group_symop_operation_xyz
x,y,z
-x,-y,1/2+z
x,-y,-z
-x,y,1/2-z
-x,-y,-z
x,y,1/2-z
-x,y,z
x,-y,1/2+z
1/2+x,1/2+y,z
1/2-x,1/2-y,1/2+z
1/2+x,1/2-y,-z
1/2-x,1/2+y,1/2-z
1/2-x,1/2-y,-z
1/2+x,1/2+y,1/2-z
1/2-x,1/2+y,z
1/2+x,1/2-y,1/2+z
loop_
_atom_site_type_symbol
_atom_site_label
_atom_site_fract_x
_atom_site_fract_y
_atom_site_fract_z
Si Si1 0.827136 0.961395 0.837685
Si Si2 0.828767 0.151970 0.664261
Si Si3 0.828855 0.602693 0.450710
Si Si4 0.324706 0.798186 0.030586
Si Si5 0.673393 0.941530 0.389894
O O1 0.795670 0.952335 0.750000
O O2 0.778343 0.912807 0.882238
O O3 0.000000 0.972979 0.853065
O O4 0.727273 0.005152 0.868384
O O5 0.814660 0.170142 0.750000
O O6 0.738118 0.189873 0.613268
O O7 0.764564 0.097525 0.658653
O O8 0.000000 0.151033 0.637366
O O9 0.787239 0.657707 0.473788
O O10 0.800813 0.566915 0.521339
O O11 0.000000 0.599334 0.423801
O O12 0.500000 0.790179 0.038340
O O13 0.250000 0.750000 0.000000
O O14 0.500000 0.935556 0.369194
#
# Coordination Sequence:
#
# PCOD8258894 Si02
#       5
#    16  16  16  16  16
#     4  11  23  35  49  75 109 143 180 218 257 307
#     4  10  20  34  54  82 113 141 174 219 267 315
#     4   9  20  37  55  77 103 134 175 218 260 312
#     4  10  21  38  60  83 107 137 176 221 269 323
#     4  10  20  34  54  79 107 140 178 218 262 315
#
# _framework density 18.389298
#
# number of rings (size 3 to 8) (size 9 to 14) (size 15 to 20)
#    0.000    2.000    0.000    4.800    0.000   12.800 
#    0.000    1.000    0.000    1.200    0.000    0.000 
#    0.000    0.000    0.000    0.000    0.000    0.000 
#
# Total GULP energy -496170.295045 kJ/mol
# GULP energy per Si atom -12404.257376 kJ/mol
# Density = 1.834744 g / cm^3
# Si number density = 18.389298 Si / 1000 Ang^3
#
#
#
# Elastic Constant Matrix: (Units=GPa)
#
#
# Indices 1 2 3 4 5 6 
#
# 1 115.6214 59.6492 62.2512 0.0000 0.0000 0.0000
# 2 59.6492 106.3709 64.2669 0.0000 0.0000 0.0000
# 3 62.2512 64.2669 99.2999 0.0000 0.0000 0.0000
# 4 0.0000 0.0000 0.0000 19.2733 0.0000 0.0000
# 5 0.0000 0.0000 0.0000 0.0000 32.3856 0.0000
# 6 0.0000 0.0000 0.0000 0.0000 0.0000 36.2584
#
#
#
# Elastic Compliance Matrix: (Units=1/GPa)
#
#
# Indices 1 2 3 4 5 6 
#
# 1 0.014122 -0.004221 -0.006122 0.000000 0.000000 0.000000
# 2 -0.004221 0.016699 -0.008162 0.000000 0.000000 0.000000
# 3 -0.006122 -0.008162 0.019190 0.000000 0.000000 0.000000
# 4 0.000000 0.000000 0.000000 0.051885 0.000000 0.000000
# 5 0.000000 0.000000 0.000000 0.000000 0.030878 0.000000
# 6 0.000000 0.000000 0.000000 0.000000 0.000000 0.027580
#
#
# Mechanical properties :
#
#
# Convention : Reuss Voigt Hill
#
# Bulk Modulus (GPa) = 76.90119 77.06964 76.98541
# Shear Modulus (GPa) = 24.78963 26.59177 25.69070
#
# Velocity S-wave (km/s) = 3.67556 3.80682 3.74176
# Velocity P-wave (km/s) = 7.74094 7.83093 7.78607
#
# Compressibility (1/GPa) = 0.01300370
#
# Stress axis : x y z
#
# Youngs Moduli (GPa) = 70.80981 59.88391 52.10956
#
# Poissons Ratio (x) = 0.25276 0.31900
# Poissons Ratio (y) = 0.29887 0.42530
# Poissons Ratio (z) = 0.43347 0.48875
#
# Static dielectric constant tensor:
#      x y z
#    x 3.537730 0.000000 0.000000 
#    y 0.000000 3.295760 0.000000 
#    z 0.000000 0.000000 3.384590 
# 
# 
# High freq. dielectric constant tensor:
#      x y z
#    x 1.728980 0.000000 0.000000 
#    y 0.000000 1.700570 0.000000 
#    z 0.000000 0.000000 1.711070 
# 
# From -- ./inp_files/40438.got.cif
#   From: 2010.03.12/outbox.cif.g09.slc.cpg/sg63_21_cif.got.tgz:40438.got - 2010.04.10 19:34:48.
