data_PCOD8258137
_publ_section_title
;
Structure prediction by ZEFSAII (Michael W. Deem and Ramdas Pophale) SiO2 
 PCOD8258137
Probable space group: C M C M
;
_chemical_formula_sum "Si O2"
_cell_formula_units_Z 64
_cell_length_a 10.157862
_cell_length_b 18.919677
_cell_length_c 17.898946
_cell_angle_alpha 90.000000
_cell_angle_beta 90.000000
_cell_angle_gamma 90.000000
_cell_volume 3439.881517
_symmetry_space_group_name_H-M "C M C M"
_symmetry_group_IT_number 63
_symmetry_cell_setting 'orthorhombic'
loop_
_space_group_symop_operation_xyz
x,y,z
-x,-y,1/2+z
x,-y,-z
-x,y,1/2-z
-x,-y,-z
x,y,1/2-z
-x,y,z
x,-y,1/2+z
1/2+x,1/2+y,z
1/2-x,1/2-y,1/2+z
1/2+x,1/2-y,-z
1/2-x,1/2+y,1/2-z
1/2-x,1/2-y,-z
1/2+x,1/2+y,1/2-z
1/2-x,1/2+y,z
1/2+x,1/2-y,1/2+z
loop_
_atom_site_type_symbol
_atom_site_label
_atom_site_fract_x
_atom_site_fract_y
_atom_site_fract_z
Si Si1 0.280202 0.399075 0.750000
Si Si2 0.250284 0.847806 0.374262
Si Si3 0.500000 0.223476 0.569449
Si Si4 0.000000 0.850241 0.471536
Si Si5 0.500000 0.632239 0.135841
Si Si6 0.847178 0.747633 0.250000
Si Si7 0.155298 0.450102 0.250000
O O1 0.370445 0.396718 0.676383
O O2 0.176815 0.335519 0.750000
O O3 0.192274 0.468416 0.750000
O O4 0.372328 0.826290 0.426636
O O5 0.215884 0.780517 0.323933
O O6 0.285028 0.914912 0.323851
O O7 0.128938 0.870991 0.425578
O O8 0.500000 0.265682 0.490403
O O9 0.500000 0.281371 0.637265
O O10 0.000000 0.894120 0.549627
O O11 0.000000 0.765588 0.250000
O O12 0.000000 0.438972 0.250000
#
# Coordination Sequence:
#
# PCOD8258137 Si02
#       7
#     8  16   8   8   8   8   8
#     4  11  21  40  58  86 115 161 212 236 294 356
#     4  11  21  37  62  92 123 151 199 248 303 351
#     4  10  19  36  63  87 119 153 192 240 294 356
#     4  10  21  37  61  98 122 152 193 246 315 344
#     4   9  22  36  64  86 114 158 193 252 295 351
#     4  11  19  32  58  87 118 154 194 259 285 352
#     4  11  25  40  62  85 122 162 198 251 297 352
#
# _framework density 18.605291999999999
#
# number of rings (size 3 to 8) (size 9 to 14) (size 15 to 20)
#    0.750    0.750    5.000    1.125    0.000    2.000 
#    0.000    2.500    2.750    1.500    0.000    0.000 
#    0.000    0.000    0.000    0.000    0.000    0.000 
#
# Total GULP energy -396818.482486 kJ/mol
# GULP energy per Si atom -12400.577578 kJ/mol
# Density = 1.856295 g / cm^3
# Si number density = 18.605292 Si / 1000 Ang^3
#
#
#
# Elastic Constant Matrix: (Units=GPa)
#
#
# Indices 1 2 3 4 5 6 
#
# 1 139.4442 26.0126 54.8504 0.0000 0.0000 0.0000
# 2 26.0126 88.3567 26.3360 0.0000 0.0000 0.0000
# 3 54.8504 26.3360 113.6594 0.0000 0.0000 0.0000
# 4 0.0000 0.0000 0.0000 20.2791 0.0000 0.0000
# 5 0.0000 0.0000 0.0000 0.0000 26.7495 0.0000
# 6 0.0000 0.0000 0.0000 0.0000 0.0000 24.9162
#
#
#
# Elastic Compliance Matrix: (Units=1/GPa)
#
#
# Indices 1 2 3 4 5 6 
#
# 1 0.009023 -0.001459 -0.004016 0.000000 0.000000 0.000000
# 2 -0.001459 0.012393 -0.002167 0.000000 0.000000 0.000000
# 3 -0.004016 -0.002167 0.011239 0.000000 0.000000 0.000000
# 4 0.000000 0.000000 0.000000 0.049312 0.000000 0.000000
# 5 0.000000 0.000000 0.000000 0.000000 0.037384 0.000000
# 6 0.000000 0.000000 0.000000 0.000000 0.000000 0.040135
#
#
# Mechanical properties :
#
#
# Convention : Reuss Voigt Hill
#
# Bulk Modulus (GPa) = 57.57338 61.76203 59.66770
# Shear Modulus (GPa) = 27.69130 30.00636 28.84883
#
# Velocity S-wave (km/s) = 3.86211 4.02031 3.94200
# Velocity P-wave (km/s) = 7.13440 7.40395 7.27042
#
# Compressibility (1/GPa) = 0.01736914
#
# Stress axis : x y z
#
# Youngs Moduli (GPa) = 110.82266 80.68782 88.97825
#
# Poissons Ratio (x) = 0.11775 0.35737
# Poissons Ratio (y) = 0.16173 0.19285
# Poissons Ratio (z) = 0.44511 0.17488
#
# Static dielectric constant tensor:
#      x y z
#    x 3.402990 0.000000 0.000000 
#    y 0.000000 3.097260 0.000000 
#    z 0.000000 0.000000 3.325350 
# 
# 
# High freq. dielectric constant tensor:
#      x y z
#    x 1.736860 0.000000 0.000000 
#    y 0.000000 1.697210 0.000000 
#    z 0.000000 0.000000 1.716720 
# 
# From -- ./inp_files/50663.got.cif
#   From: 2010.03.12/outbox.cif.g09.slc.cpg/sg63_26_cif.got.tgz:50663.got - 2010.04.10 19:34:48.
