data_PCOD8258295
_publ_section_title
;
Structure prediction by ZEFSAII (Michael W. Deem and Ramdas Pophale) SiO2 
 PCOD8258295
Probable space group: C M C M
;
_chemical_formula_sum "Si O2"
_cell_formula_units_Z 80
_cell_length_a 9.091096
_cell_length_b 28.019853
_cell_length_c 20.217485
_cell_angle_alpha 90.000000
_cell_angle_beta 90.000000
_cell_angle_gamma 90.000000
_cell_volume 5150.023680
_symmetry_space_group_name_H-M "C M C M"
_symmetry_group_IT_number 63
_symmetry_cell_setting 'orthorhombic'
loop_
_space_group_symop_operation_xyz
x,y,z
-x,-y,1/2+z
x,-y,-z
-x,y,1/2-z
-x,-y,-z
x,y,1/2-z
-x,y,z
x,-y,1/2+z
1/2+x,1/2+y,z
1/2-x,1/2-y,1/2+z
1/2+x,1/2-y,-z
1/2-x,1/2+y,1/2-z
1/2-x,1/2-y,-z
1/2+x,1/2+y,1/2-z
1/2-x,1/2+y,z
1/2+x,1/2-y,1/2+z
loop_
_atom_site_type_symbol
_atom_site_label
_atom_site_fract_x
_atom_site_fract_y
_atom_site_fract_z
Si Si1 0.328072 0.195333 0.173689
Si Si2 0.666547 0.640944 0.064784
Si Si3 0.670199 0.208197 0.674701
Si Si4 0.166598 0.052291 0.987210
Si Si5 0.672746 0.864033 0.062026
O O1 0.291666 0.184950 0.250000
O O2 0.500000 0.194705 0.159194
O O3 0.250420 0.153992 0.131749
O O4 0.265567 0.246608 0.152198
O O5 0.500000 0.660715 0.067173
O O6 0.667890 0.583107 0.055718
O O7 0.750148 0.663061 0.000334
O O8 0.706239 0.193525 0.750000
O O9 0.500000 0.222129 0.666064
O O10 0.713171 0.163478 0.629139
O O11 0.000000 0.047105 0.960105
O O12 0.263213 0.081662 0.933086
O O13 0.235448 0.000000 0.000000
O O14 0.500000 0.865997 0.049342
#
# Coordination Sequence:
#
# PCOD8258295 Si02
#       5
#    16  16  16  16  16
#     4  10  20  32  47  68  94 123 156 193 228 265
#     4   9  18  31  48  69  92 123 154 187 231 275
#     4   9  18  32  48  66  93 128 159 185 222 275
#     4   8  16  31  49  69  92 118 150 189 233 279
#     4   9  17  29  47  72  94 118 153 194 232 268
#
# _framework density 15.533909
#
# number of rings (size 3 to 8) (size 9 to 14) (size 15 to 20)
#    1.200    1.800    0.000    1.200    0.000    4.000 
#    0.000    0.000    0.000    1.200    0.000    5.600 
#    0.000    0.000    0.000    0.000    0.000    0.000 
#
# Total GULP energy -495620.351601 kJ/mol
# GULP energy per Si atom -12390.508790 kJ/mol
# Density = 1.549855 g / cm^3
# Si number density = 15.533909 Si / 1000 Ang^3
#
#
#
# Elastic Constant Matrix: (Units=GPa)
#
#
# Indices 1 2 3 4 5 6 
#
# 1 85.4531 45.6204 44.3549 0.0000 0.0000 0.0000
# 2 45.6204 94.4111 51.9776 0.0000 0.0000 0.0000
# 3 44.3549 51.9776 77.0781 0.0000 0.0000 0.0000
# 4 0.0000 0.0000 0.0000 13.0985 0.0000 0.0000
# 5 0.0000 0.0000 0.0000 0.0000 22.5635 0.0000
# 6 0.0000 0.0000 0.0000 0.0000 0.0000 25.7594
#
#
#
# Elastic Compliance Matrix: (Units=1/GPa)
#
#
# Indices 1 2 3 4 5 6 
#
# 1 0.017930 -0.004745 -0.007118 0.000000 0.000000 0.000000
# 2 -0.004745 0.018102 -0.009477 0.000000 0.000000 0.000000
# 3 -0.007118 -0.009477 0.023460 0.000000 0.000000 0.000000
# 4 0.000000 0.000000 0.000000 0.076345 0.000000 0.000000
# 5 0.000000 0.000000 0.000000 0.000000 0.044319 0.000000
# 6 0.000000 0.000000 0.000000 0.000000 0.000000 0.038821
#
#
# Mechanical properties :
#
#
# Convention : Reuss Voigt Hill
#
# Bulk Modulus (GPa) = 59.47703 60.09422 59.78563
# Shear Modulus (GPa) = 18.70822 19.95024 19.32923
#
# Velocity S-wave (km/s) = 3.47414 3.58760 3.53133
# Velocity P-wave (km/s) = 7.38000 7.47870 7.42952
#
# Compressibility (1/GPa) = 0.01681321
#
# Stress axis : x y z
#
# Youngs Moduli (GPa) = 55.77128 55.24193 42.62485
#
# Poissons Ratio (x) = 0.26214 0.30341
# Poissons Ratio (y) = 0.26465 0.40393
# Poissons Ratio (z) = 0.39699 0.52350
#
# Static dielectric constant tensor:
#      x y z
#    x 3.041570 0.000000 0.000000 
#    y 0.000000 2.825560 0.000000 
#    z 0.000000 0.000000 2.815480 
# 
# 
# High freq. dielectric constant tensor:
#      x y z
#    x 1.608920 0.000000 0.000000 
#    y 0.000000 1.575510 0.000000 
#    z 0.000000 0.000000 1.575680 
# 
# From -- ./inp_files/51570.got.cif
#   From: 2010.03.12/outbox.cif.g09.slc.cpg/sg63_26_cif.got.tgz:51570.got - 2010.04.10 19:34:48.
