data_PCOD8258832
_publ_section_title
;
Structure prediction by ZEFSAII (Michael W. Deem and Ramdas Pophale) SiO2 
 PCOD8258832
Probable space group: C M C M
;
_chemical_formula_sum "Si O2"
_cell_formula_units_Z 80
_cell_length_a 8.692979
_cell_length_b 27.641243
_cell_length_c 18.166185
_cell_angle_alpha 90.000000
_cell_angle_beta 90.000000
_cell_angle_gamma 90.000000
_cell_volume 4365.057129
_symmetry_space_group_name_H-M "C M C M"
_symmetry_group_IT_number 63
_symmetry_cell_setting 'orthorhombic'
loop_
_space_group_symop_operation_xyz
x,y,z
-x,-y,1/2+z
x,-y,-z
-x,y,1/2-z
-x,-y,-z
x,y,1/2-z
-x,y,z
x,-y,1/2+z
1/2+x,1/2+y,z
1/2-x,1/2-y,1/2+z
1/2+x,1/2-y,-z
1/2-x,1/2+y,1/2-z
1/2-x,1/2-y,-z
1/2+x,1/2+y,1/2-z
1/2-x,1/2+y,z
1/2+x,1/2-y,1/2+z
loop_
_atom_site_type_symbol
_atom_site_label
_atom_site_fract_x
_atom_site_fract_y
_atom_site_fract_z
Si Si1 0.317505 0.300677 0.976632
Si Si2 0.181100 0.944193 0.907645
Si Si3 0.181655 0.152461 0.330009
Si Si4 0.319088 0.894857 0.043575
Si Si5 0.818380 0.955741 0.334868
O O1 0.500000 0.299499 0.981271
O O2 0.259440 0.310940 0.893038
O O3 0.250000 0.250000 0.000000
O O4 0.258782 0.343070 0.029564
O O5 0.228729 0.902065 0.851021
O O6 0.000000 0.943620 0.924003
O O7 0.235451 0.994059 0.871655
O O8 0.265071 0.935452 0.985221
O O9 0.254519 0.165339 0.250000
O O10 0.000000 0.156062 0.324764
O O11 0.500000 0.888093 0.039642
O O12 0.268247 0.912020 0.124545
O O13 0.767672 0.955502 0.250000
O O14 0.000000 0.948891 0.342992
#
# Coordination Sequence:
#
# PCOD8258832 Si02
#       5
#    16  16  16  16  16
#     4  10  20  36  58  79 101 132 171 217 267 319
#     4   9  17  31  53  78 104 136 173 213 258 309
#     4   8  14  27  50  79 104 126 160 208 258 306
#     4  11  22  35  52  75 105 140 176 214 257 311
#     4  10  20  34  53  77 106 141 180 220 260 303
#
# _framework density 18.327366000000001
#
# number of rings (size 3 to 8) (size 9 to 14) (size 15 to 20)
#    0.000    2.400    0.000    4.800    0.000    6.000 
#    0.000    1.000    0.000   23.400    0.000    0.000 
#    0.000    0.000    0.000    0.000    0.000    0.000 
#
# Total GULP energy -495951.578342 kJ/mol
# GULP energy per Si atom -12398.789459 kJ/mol
# Density = 1.828565 g / cm^3
# Si number density = 18.327366 Si / 1000 Ang^3
#
#
#
# Elastic Constant Matrix: (Units=GPa)
#
#
# Indices 1 2 3 4 5 6 
#
# 1 66.6344 42.6458 37.3770 0.0000 0.0000 0.0000
# 2 42.6458 133.1461 85.1058 0.0000 0.0000 0.0000
# 3 37.3770 85.1058 128.2423 0.0000 0.0000 0.0000
# 4 0.0000 0.0000 0.0000 21.0344 0.0000 0.0000
# 5 0.0000 0.0000 0.0000 0.0000 13.4338 0.0000
# 6 0.0000 0.0000 0.0000 0.0000 0.0000 28.5068
#
#
#
# Elastic Compliance Matrix: (Units=1/GPa)
#
#
# Indices 1 2 3 4 5 6 
#
# 1 0.019384 -0.004511 -0.002656 0.000000 0.000000 0.000000
# 2 -0.004511 0.014093 -0.008038 0.000000 0.000000 0.000000
# 3 -0.002656 -0.008038 0.013906 0.000000 0.000000 0.000000
# 4 0.000000 0.000000 0.000000 0.047541 0.000000 0.000000
# 5 0.000000 0.000000 0.000000 0.000000 0.074439 0.000000
# 6 0.000000 0.000000 0.000000 0.000000 0.000000 0.035079
#
#
# Mechanical properties :
#
#
# Convention : Reuss Voigt Hill
#
# Bulk Modulus (GPa) = 58.91511 73.14224 66.02868
# Shear Modulus (GPa) = 20.78911 23.45462 22.12186
#
# Velocity S-wave (km/s) = 3.37162 3.58125 3.47802
# Velocity P-wave (km/s) = 6.88280 7.55618 7.22734
#
# Compressibility (1/GPa) = 0.01697357
#
# Stress axis : x y z
#
# Youngs Moduli (GPa) = 51.58886 70.95660 71.91094
#
# Poissons Ratio (x) = 0.32008 0.19100
# Poissons Ratio (y) = 0.23271 0.57802
# Poissons Ratio (z) = 0.13702 0.57034
#
# Static dielectric constant tensor:
#      x y z
#    x 3.130040 0.000000 0.000000 
#    y 0.000000 3.223640 0.000000 
#    z 0.000000 0.000000 3.672930 
# 
# 
# High freq. dielectric constant tensor:
#      x y z
#    x 1.688440 0.000000 0.000000 
#    y 0.000000 1.701070 0.000000 
#    z 0.000000 0.000000 1.717290 
# 
# From -- ./inp_files/40459.got.cif
#   From: 2010.03.12/outbox.cif.g09.slc.cpg/sg63_21_cif.got.tgz:40459.got - 2010.04.10 19:34:48.
