data_PCOD8258141
_publ_section_title
;
Structure prediction by ZEFSAII (Michael W. Deem and Ramdas Pophale) SiO2 
 PCOD8258141
Probable space group: C M C M
;
_chemical_formula_sum "Si O2"
_cell_formula_units_Z 64
_cell_length_a 14.197304
_cell_length_b 8.602360
_cell_length_c 27.913521
_cell_angle_alpha 90.000000
_cell_angle_beta 90.000000
_cell_angle_gamma 90.000000
_cell_volume 3409.087253
_symmetry_space_group_name_H-M "C M C M"
_symmetry_group_IT_number 63
_symmetry_cell_setting 'orthorhombic'
loop_
_space_group_symop_operation_xyz
x,y,z
-x,-y,1/2+z
x,-y,-z
-x,y,1/2-z
-x,-y,-z
x,y,1/2-z
-x,y,z
x,-y,1/2+z
1/2+x,1/2+y,z
1/2-x,1/2-y,1/2+z
1/2+x,1/2-y,-z
1/2-x,1/2+y,1/2-z
1/2-x,1/2-y,-z
1/2+x,1/2+y,1/2-z
1/2-x,1/2+y,z
1/2+x,1/2-y,1/2+z
loop_
_atom_site_type_symbol
_atom_site_label
_atom_site_fract_x
_atom_site_fract_y
_atom_site_fract_z
Si Si1 0.000000 0.654366 0.029848
Si Si2 0.000000 0.829805 0.563852
Si Si3 0.000000 0.864228 0.804724
Si Si4 0.147925 0.986463 0.877481
Si Si5 0.351623 0.844303 0.887951
Si Si6 0.000000 0.432914 0.145019
O O1 0.095478 0.658712 0.060928
O O2 0.000000 0.500000 0.000000
O O3 0.000000 0.796772 0.992557
O O4 0.000000 0.671864 0.596213
O O5 0.089397 0.937622 0.575696
O O6 0.000000 0.676608 0.808443
O O7 0.000000 0.918406 0.750000
O O8 0.095584 0.922858 0.830114
O O9 0.154184 0.169680 0.868927
O O10 0.248175 0.913205 0.888766
O O11 0.409479 0.955447 0.852318
#
# Coordination Sequence:
#
# PCOD8258141 Si02
#       6
#     8   8   8  16  16   8
#     4  11  22  36  58  84 120 158 210 244 274 333
#     4  10  19  37  54  83 117 156 196 247 281 334
#     4  10  21  41  67  91 113 142 188 243 296 364
#     4  10  22  38  61  84 119 159 191 239 304 343
#     4  11  21  38  59  84 119 164 193 236 288 345
#     4   9  18  37  60  81 121 150 184 232 303 337
#
# _framework density 18.773354999999999
#
# number of rings (size 3 to 8) (size 9 to 14) (size 15 to 20)
#    0.000    2.000    2.500    6.000    0.000    3.000 
#    0.000    7.500    0.000    0.000    0.000    0.000 
#    0.000    0.000    0.000    0.000    0.000    0.000 
#
# Total GULP energy -396583.320883 kJ/mol
# GULP energy per Si atom -12393.228778 kJ/mol
# Density = 1.873063 g / cm^3
# Si number density = 18.773355 Si / 1000 Ang^3
#
#
#
# Elastic Constant Matrix: (Units=GPa)
#
#
# Indices 1 2 3 4 5 6 
#
# 1 177.5388 58.2379 39.6206 0.0000 0.0000 0.0000
# 2 58.2379 147.1650 18.9950 0.0000 0.0000 0.0000
# 3 39.6206 18.9950 94.0012 0.0000 0.0000 0.0000
# 4 0.0000 0.0000 0.0000 19.7632 0.0000 0.0000
# 5 0.0000 0.0000 0.0000 0.0000 4.8727 0.0000
# 6 0.0000 0.0000 0.0000 0.0000 0.0000 19.4147
#
#
#
# Elastic Compliance Matrix: (Units=1/GPa)
#
#
# Indices 1 2 3 4 5 6 
#
# 1 0.006982 -0.002447 -0.002448 0.000000 0.000000 0.000000
# 2 -0.002447 0.007835 -0.000552 0.000000 0.000000 0.000000
# 3 -0.002448 -0.000552 0.011782 0.000000 0.000000 0.000000
# 4 0.000000 0.000000 0.000000 0.050599 0.000000 0.000000
# 5 0.000000 0.000000 0.000000 0.000000 0.205226 0.000000
# 6 0.000000 0.000000 0.000000 0.000000 0.000000 0.051507
#
#
# Mechanical properties :
#
#
# Convention : Reuss Voigt Hill
#
# Bulk Modulus (GPa) = 63.67821 72.49024 68.08422
# Shear Modulus (GPa) = 14.28331 28.93354 21.60843
#
# Velocity S-wave (km/s) = 2.76131 3.93007 3.39634
# Velocity P-wave (km/s) = 6.64526 7.70008 7.19203
#
# Compressibility (1/GPa) = 0.01570396
#
# Stress axis : x y z
#
# Youngs Moduli (GPa) = 143.23442 127.63884 84.87827
#
# Poissons Ratio (x) = 0.31231 0.20780
# Poissons Ratio (y) = 0.35047 0.04684
# Poissons Ratio (z) = 0.35067 0.07044
#
# Static dielectric constant tensor:
#      x y z
#    x 3.532330 0.000000 0.000000 
#    y 0.000000 3.798980 0.000000 
#    z 0.000000 0.000000 3.215360 
# 
# 
# High freq. dielectric constant tensor:
#      x y z
#    x 1.736550 0.000000 0.000000 
#    y 0.000000 1.757000 0.000000 
#    z 0.000000 0.000000 1.689540 
# 
# From -- ./inp_files/73212.got.cif
#   From: 2010.03.12/outbox.cif.g09.slc.cpg/sg63_37_cif.got.tgz:73212.got - 2010.04.10 19:34:48.
