data_PCOD8258068
_publ_section_title
;
Structure prediction by ZEFSAII (Michael W. Deem and Ramdas Pophale) SiO2 
 PCOD8258068
Probable space group: C M C M
;
_chemical_formula_sum "Si O2"
_cell_formula_units_Z 48
_cell_length_a 24.990541
_cell_length_b 5.132206
_cell_length_c 19.075588
_cell_angle_alpha 90.000000
_cell_angle_beta 90.000000
_cell_angle_gamma 90.000000
_cell_volume 2446.570145
_symmetry_space_group_name_H-M "C M C M"
_symmetry_group_IT_number 63
_symmetry_cell_setting 'orthorhombic'
loop_
_space_group_symop_operation_xyz
x,y,z
-x,-y,1/2+z
x,-y,-z
-x,y,1/2-z
-x,-y,-z
x,y,1/2-z
-x,y,z
x,-y,1/2+z
1/2+x,1/2+y,z
1/2-x,1/2-y,1/2+z
1/2+x,1/2-y,-z
1/2-x,1/2+y,1/2-z
1/2-x,1/2-y,-z
1/2+x,1/2+y,1/2-z
1/2-x,1/2+y,z
1/2+x,1/2-y,1/2+z
loop_
_atom_site_type_symbol
_atom_site_label
_atom_site_fract_x
_atom_site_fract_y
_atom_site_fract_z
Si Si1 0.438792 0.740767 0.372381
Si Si2 0.102406 0.500000 0.000000
Si Si3 0.215018 0.696873 0.250000
Si Si4 0.874572 0.279573 0.861222
O O1 0.500000 0.709961 0.349293
O O2 0.434867 0.798143 0.456268
O O3 0.407371 0.483417 0.350841
O O4 0.411294 0.983727 0.331472
O O5 0.138305 0.336342 0.943977
O O6 0.262599 0.904787 0.250000
O O7 0.180594 0.739785 0.319915
#
# Coordination Sequence:
#
# PCOD8258068 Si02
#       4
#    16   8   8  16
#     4  10  19  35  62  94 129 162 185 226 296 366
#     4   8  21  34  64  90 134 148 202 232 295 356
#     4  12  26  48  67  78 111 166 212 260 322 352
#     4  10  22  38  60  92 120 158 204 250 287 362
#
# _framework density 19.619304
#
# number of rings (size 3 to 8) (size 9 to 14) (size 15 to 20)
#    2.000    0.000    0.000    4.500    0.000    1.333 
#    0.000    6.667    0.000    0.000    0.000    0.000 
#    0.000    0.000    0.000    0.000    0.000    0.000 
#
# Total GULP energy -297328.148952 kJ/mol
# GULP energy per Si atom -12388.672873 kJ/mol
# Density = 1.957465 g / cm^3
# Si number density = 19.619304 Si / 1000 Ang^3
#
#
#
# Elastic Constant Matrix: (Units=GPa)
#
#
# Indices 1 2 3 4 5 6 
#
# 1 104.5426 43.7366 39.9985 0.0000 0.0000 0.0000
# 2 43.7366 151.3882 18.4346 0.0000 0.0000 0.0000
# 3 39.9985 18.4346 50.5605 0.0000 0.0000 0.0000
# 4 0.0000 0.0000 0.0000 7.8852 0.0000 0.0000
# 5 0.0000 0.0000 0.0000 0.0000 36.6457 0.0000
# 6 0.0000 0.0000 0.0000 0.0000 0.0000 41.8053
#
#
#
# Elastic Compliance Matrix: (Units=1/GPa)
#
#
# Indices 1 2 3 4 5 6 
#
# 1 0.014920 -0.003007 -0.010707 0.000000 0.000000 0.000000
# 2 -0.003007 0.007518 -0.000363 0.000000 0.000000 0.000000
# 3 -0.010707 -0.000363 0.028381 0.000000 0.000000 0.000000
# 4 0.000000 0.000000 0.000000 0.126821 0.000000 0.000000
# 5 0.000000 0.000000 0.000000 0.000000 0.027288 0.000000
# 6 0.000000 0.000000 0.000000 0.000000 0.000000 0.023920
#
#
# Mechanical properties :
#
#
# Convention : Reuss Voigt Hill
#
# Bulk Modulus (GPa) = 44.11784 56.75896 50.43840
# Shear Modulus (GPa) = 18.89958 30.88867 24.89412
#
# Velocity S-wave (km/s) = 3.10710 3.97218 3.56597
# Velocity P-wave (km/s) = 5.95045 7.07323 6.53599
#
# Compressibility (1/GPa) = 0.02266657
#
# Stress axis : x y z
#
# Youngs Moduli (GPa) = 67.02479 133.00846 35.23508
#
# Poissons Ratio (x) = 0.39990 0.37726
# Poissons Ratio (y) = 0.20152 0.01278
# Poissons Ratio (z) = 0.71763 0.04824
#
# Static dielectric constant tensor:
#      x y z
#    x 3.197390 0.000000 0.000000 
#    y 0.000000 3.620860 0.000000 
#    z 0.000000 0.000000 3.400820 
# 
# 
# High freq. dielectric constant tensor:
#      x y z
#    x 1.732650 0.000000 0.000000 
#    y 0.000000 1.782150 0.000000 
#    z 0.000000 0.000000 1.755560 
# 
# From -- ./inp_files/49227.got.cif
#   From: 2010.03.12/outbox.cif.g09.slc.cpg/sg63_25_cif.got.tgz:49227.got - 2010.04.10 19:34:48.
