data_PCOD8258913
_publ_section_title
;
Structure prediction by ZEFSAII (Michael W. Deem and Ramdas Pophale) SiO2 
 PCOD8258913
Probable space group: C M C M
;
_chemical_formula_sum "Si O2"
_cell_formula_units_Z 80
_cell_length_a 9.352660
_cell_length_b 19.807684
_cell_length_c 22.596666
_cell_angle_alpha 90.000000
_cell_angle_beta 90.000000
_cell_angle_gamma 90.000000
_cell_volume 4186.134826
_symmetry_space_group_name_H-M "C M C M"
_symmetry_group_IT_number 63
_symmetry_cell_setting 'orthorhombic'
loop_
_space_group_symop_operation_xyz
x,y,z
-x,-y,1/2+z
x,-y,-z
-x,y,1/2-z
-x,-y,-z
x,y,1/2-z
-x,y,z
x,-y,1/2+z
1/2+x,1/2+y,z
1/2-x,1/2-y,1/2+z
1/2+x,1/2-y,-z
1/2-x,1/2+y,1/2-z
1/2-x,1/2-y,-z
1/2+x,1/2+y,1/2-z
1/2-x,1/2+y,z
1/2+x,1/2-y,1/2+z
loop_
_atom_site_type_symbol
_atom_site_label
_atom_site_fract_x
_atom_site_fract_y
_atom_site_fract_z
Si Si1 0.665792 0.865622 0.873003
Si Si2 0.664543 0.524642 0.437177
Si Si3 0.330705 0.078554 0.250000
Si Si4 0.334709 0.607601 0.636168
Si Si5 0.170364 0.423065 0.250000
Si Si6 0.835040 0.766965 0.059072
O O1 0.500000 0.885362 0.875850
O O2 0.728152 0.881976 0.807674
O O3 0.692284 0.787883 0.889317
O O4 0.746352 0.909754 0.921352
O O5 0.722918 0.500000 0.500000
O O6 0.500000 0.546347 0.442383
O O7 0.687975 0.466991 0.388835
O O8 0.500000 0.080528 0.250000
O O9 0.277955 0.001070 0.250000
O O10 0.500000 0.620309 0.653933
O O11 0.234294 0.615085 0.693160
O O12 0.286463 0.661522 0.586462
O O13 0.000000 0.416469 0.250000
O O14 0.000000 0.768971 0.040449
O O15 0.750000 0.750000 0.000000
#
# Coordination Sequence:
#
# PCOD8258913 Si02
#       6
#    16  16   8  16   8  16
#     4  10  20  36  58  83 109 144 186 230 280 330
#     4  10  20  34  54  80 111 147 186 229 276 329
#     4   9  18  34  55  81 113 140 178 233 281 325
#     4  10  21  37  57  83 115 151 189 230 283 342
#     4  11  21  36  59  85 115 148 186 239 287 329
#     4  10  22  39  60  84 115 153 190 233 284 338
#
# _framework density 19.110707000000001
#
# number of rings (size 3 to 8) (size 9 to 14) (size 15 to 20)
#    0.000    2.000    2.000    1.500    0.000    4.400 
#    0.000    3.500    0.000    0.000    0.000    0.000 
#    0.000    0.000    0.000    0.000    0.000    0.000 
#
# Total GULP energy -496105.469855 kJ/mol
# GULP energy per Si atom -12402.636746 kJ/mol
# Density = 1.906721 g / cm^3
# Si number density = 19.110707 Si / 1000 Ang^3
#
#
#
# Elastic Constant Matrix: (Units=GPa)
#
#
# Indices 1 2 3 4 5 6 
#
# 1 53.5093 21.4669 36.3177 0.0000 0.0000 0.0000
# 2 21.4669 59.4983 5.1948 0.0000 0.0000 0.0000
# 3 36.3177 5.1948 104.4476 0.0000 0.0000 0.0000
# 4 0.0000 0.0000 0.0000 33.3622 0.0000 0.0000
# 5 0.0000 0.0000 0.0000 0.0000 32.9689 0.0000
# 6 0.0000 0.0000 0.0000 0.0000 0.0000 26.1603
#
#
#
# Elastic Compliance Matrix: (Units=1/GPa)
#
#
# Indices 1 2 3 4 5 6 
#
# 1 0.029107 -0.009660 -0.009640 0.000000 0.000000 0.000000
# 2 -0.009660 0.020086 0.002360 0.000000 0.000000 0.000000
# 3 -0.009640 0.002360 0.012809 0.000000 0.000000 0.000000
# 4 0.000000 0.000000 0.000000 0.029974 0.000000 0.000000
# 5 0.000000 0.000000 0.000000 0.000000 0.030332 0.000000
# 6 0.000000 0.000000 0.000000 0.000000 0.000000 0.038226
#
#
# Mechanical properties :
#
#
# Convention : Reuss Voigt Hill
#
# Bulk Modulus (GPa) = 35.56030 38.15710 36.85870
# Shear Modulus (GPa) = 24.53527 28.79666 26.66597
#
# Velocity S-wave (km/s) = 3.58697 3.88601 3.73948
# Velocity P-wave (km/s) = 5.98357 6.33596 6.16228
#
# Compressibility (1/GPa) = 0.02812125
#
# Stress axis : x y z
#
# Youngs Moduli (GPa) = 34.35626 49.78473 78.07090
#
# Poissons Ratio (x) = 0.48092 0.75263
# Poissons Ratio (y) = 0.33188 -0.18424
# Poissons Ratio (z) = 0.33121 -0.11749
#
# Static dielectric constant tensor:
#      x y z
#    x 3.307800 0.000000 0.000000 
#    y 0.000000 3.529300 0.000000 
#    z 0.000000 0.000000 3.645890 
# 
# 
# High freq. dielectric constant tensor:
#      x y z
#    x 1.723910 0.000000 0.000000 
#    y 0.000000 1.744170 0.000000 
#    z 0.000000 0.000000 1.754550 
# 
# From -- ./inp_files/59540.got.cif
#   From: 2010.03.12/outbox.cif.g09.slc.cpg/sg63_30_cif.got.tgz:59540.got - 2010.04.10 19:34:48.
