data_PCOD8258490
_publ_section_title
;
Structure prediction by ZEFSAII (Michael W. Deem and Ramdas Pophale) SiO2 
 PCOD8258490
Probable space group: C M C M
;
_chemical_formula_sum "Si O2"
_cell_formula_units_Z 96
_cell_length_a 20.648677
_cell_length_b 9.927224
_cell_length_c 25.599507
_cell_angle_alpha 90.000000
_cell_angle_beta 90.000000
_cell_angle_gamma 90.000000
_cell_volume 5247.490415
_symmetry_space_group_name_H-M "C M C M"
_symmetry_group_IT_number 63
_symmetry_cell_setting 'orthorhombic'
loop_
_space_group_symop_operation_xyz
x,y,z
-x,-y,1/2+z
x,-y,-z
-x,y,1/2-z
-x,-y,-z
x,y,1/2-z
-x,y,z
x,-y,1/2+z
1/2+x,1/2+y,z
1/2-x,1/2-y,1/2+z
1/2+x,1/2-y,-z
1/2-x,1/2+y,1/2-z
1/2-x,1/2-y,-z
1/2+x,1/2+y,1/2-z
1/2-x,1/2+y,z
1/2+x,1/2-y,1/2+z
loop_
_atom_site_type_symbol
_atom_site_label
_atom_site_fract_x
_atom_site_fract_y
_atom_site_fract_z
Si Si1 0.798323 0.651203 0.310101
Si Si2 0.748403 0.591539 0.629931
Si Si3 0.884169 0.922241 0.423770
Si Si4 0.927530 0.180617 0.028434
Si Si5 0.368683 0.047653 0.942976
Si Si6 0.926634 0.332093 0.867696
O O1 0.787504 0.687136 0.250000
O O2 0.763457 0.510505 0.322875
O O3 0.764026 0.761720 0.346316
O O4 0.875510 0.641290 0.321159
O O5 0.686844 0.544437 0.597123
O O6 0.807383 0.594611 0.589931
O O7 0.878890 0.850819 0.480640
O O8 0.922369 0.823882 0.384572
O O9 0.920941 0.064866 0.427526
O O10 0.915590 0.324592 0.054069
O O11 0.000000 0.177592 0.005416
O O12 0.408291 0.926433 0.916614
O O13 0.345619 0.000000 0.000000
O O14 0.000000 0.362786 0.848695
#
# Coordination Sequence:
#
# PCOD8258490 Si02
#       6
#    16  16  16  16  16  16
#     4  10  21  39  60  79 102 135 174 228 282 318
#     4  10  22  37  54  82 105 136 178 220 268 319
#     4  10  20  33  50  73 105 142 177 215 250 299
#     4  11  21  32  49  73 106 152 183 203 245 300
#     4  11  22  33  52  77 112 150 177 211 255 311
#     4  10  20  36  54  79 109 138 178 218 258 315
#
# _framework density 18.294460999999998
#
# number of rings (size 3 to 8) (size 9 to 14) (size 15 to 20)
#    0.000    1.667    1.667    4.000    2.333    1.667 
#    0.000    0.000    0.000    0.000    0.000    0.000 
#    0.000   26.667    0.000    0.000    0.000    0.000 
#
# Total GULP energy -595240.672723 kJ/mol
# GULP energy per Si atom -12400.847348 kJ/mol
# Density = 1.825282 g / cm^3
# Si number density = 18.294461 Si / 1000 Ang^3
#
#
#
# Elastic Constant Matrix: (Units=GPa)
#
#
# Indices 1 2 3 4 5 6 
#
# 1 118.9098 25.9719 36.3797 0.0000 0.0000 0.0000
# 2 25.9719 82.2352 24.0537 0.0000 0.0000 0.0000
# 3 36.3797 24.0537 76.6956 0.0000 0.0000 0.0000
# 4 0.0000 0.0000 0.0000 17.4479 0.0000 0.0000
# 5 0.0000 0.0000 0.0000 0.0000 14.4176 0.0000
# 6 0.0000 0.0000 0.0000 0.0000 0.0000 17.2008
#
#
#
# Elastic Compliance Matrix: (Units=1/GPa)
#
#
# Indices 1 2 3 4 5 6 
#
# 1 0.010120 -0.001973 -0.004182 0.000000 0.000000 0.000000
# 2 -0.001973 0.013773 -0.003384 0.000000 0.000000 0.000000
# 3 -0.004182 -0.003384 0.016083 0.000000 0.000000 0.000000
# 4 0.000000 0.000000 0.000000 0.057313 0.000000 0.000000
# 5 0.000000 0.000000 0.000000 0.000000 0.069360 0.000000
# 6 0.000000 0.000000 0.000000 0.000000 0.000000 0.058137
#
#
# Mechanical properties :
#
#
# Convention : Reuss Voigt Hill
#
# Bulk Modulus (GPa) = 47.84733 50.07234 48.95984
# Shear Modulus (GPa) = 19.93387 22.57562 21.25475
#
# Velocity S-wave (km/s) = 3.30451 3.51666 3.41224
# Velocity P-wave (km/s) = 6.38518 6.62713 6.50728
#
# Compressibility (1/GPa) = 0.02089981
#
# Stress axis : x y z
#
# Youngs Moduli (GPa) = 98.81431 72.60522 62.17663
#
# Poissons Ratio (x) = 0.14325 0.25999
# Poissons Ratio (y) = 0.19497 0.21039
# Poissons Ratio (z) = 0.41319 0.24567
#
# Static dielectric constant tensor:
#      x y z
#    x 3.383160 0.000000 0.000000 
#    y 0.000000 3.532100 0.000000 
#    z 0.000000 0.000000 3.113320 
# 
# 
# High freq. dielectric constant tensor:
#      x y z
#    x 1.710240 0.000000 0.000000 
#    y 0.000000 1.725370 0.000000 
#    z 0.000000 0.000000 1.682990 
# 
# From -- ./inp_files/64568.got.cif
#   From: 2010.03.12/outbox.cif.g09.slc.cpg/sg63_33_cif.got.tgz:64568.got - 2010.04.10 19:34:48.
