data_PCOD8258198
_publ_section_title
;
Structure prediction by ZEFSAII (Michael W. Deem and Ramdas Pophale) SiO2 
 PCOD8258198
Probable space group: C M C M
;
_chemical_formula_sum "Si O2"
_cell_formula_units_Z 80
_cell_length_a 18.895560
_cell_length_b 32.894284
_cell_length_c 8.816068
_cell_angle_alpha 90.000000
_cell_angle_beta 90.000000
_cell_angle_gamma 90.000000
_cell_volume 5479.679230
_symmetry_space_group_name_H-M "C M C M"
_symmetry_group_IT_number 63
_symmetry_cell_setting 'orthorhombic'
loop_
_space_group_symop_operation_xyz
x,y,z
-x,-y,1/2+z
x,-y,-z
-x,y,1/2-z
-x,-y,-z
x,y,1/2-z
-x,y,z
x,-y,1/2+z
1/2+x,1/2+y,z
1/2-x,1/2-y,1/2+z
1/2+x,1/2-y,-z
1/2-x,1/2+y,1/2-z
1/2-x,1/2-y,-z
1/2+x,1/2+y,1/2-z
1/2-x,1/2+y,z
1/2+x,1/2-y,1/2+z
loop_
_atom_site_type_symbol
_atom_site_label
_atom_site_fract_x
_atom_site_fract_y
_atom_site_fract_z
Si Si1 0.861572 0.879449 0.426949
Si Si2 0.142746 0.735036 0.427060
Si Si3 0.716861 0.689448 0.072511
Si Si4 0.000000 0.258101 0.427893
Si Si5 0.000000 0.827933 0.424145
Si Si6 0.081256 0.042437 0.071112
O O1 0.847278 0.885186 0.250000
O O2 0.796333 0.854948 0.501679
O O3 0.867398 0.923328 0.503893
O O4 0.932536 0.854936 0.462088
O O5 0.131010 0.741821 0.250000
O O6 0.201847 0.701125 0.461275
O O7 0.164673 0.778404 0.494878
O O8 0.069624 0.720421 0.502596
O O9 0.700248 0.689423 0.250000
O O10 0.000000 0.264765 0.250000
O O11 0.000000 0.210542 0.466708
O O12 0.000000 0.813018 0.250000
O O13 0.090506 0.040375 0.250000
O O14 0.000000 0.051640 0.024769
O O15 0.105993 0.000000 0.000000
#
# Coordination Sequence:
#
# PCOD8258198 Si02
#       6
#    16  16  16   8   8  16
#     4  11  20  31  47  63  86 116 147 185 225 264
#     4  10  20  33  46  61  86 115 144 182 226 266
#     4  10  20  32  46  64  85 112 147 184 222 264
#     4  12  22  30  46  65  85 112 149 189 223 265
#     4  10  20  30  41  61  86 114 149 185 223 261
#     4  10  20  32  46  63  86 113 146 185 223 264
#
# _framework density 14.599394999999999
#
# number of rings (size 3 to 8) (size 9 to 14) (size 15 to 20)
#    0.000    1.600    3.000    3.300    0.000    4.000 
#    0.000    0.000    0.000    0.000    0.000    0.000 
#    0.000    0.000    0.000    0.900    0.000   11.800 
#
# Total GULP energy -496147.970978 kJ/mol
# GULP energy per Si atom -12403.699274 kJ/mol
# Density = 1.456617 g / cm^3
# Si number density = 14.599395 Si / 1000 Ang^3
#
#
#
# Elastic Constant Matrix: (Units=GPa)
#
#
# Indices 1 2 3 4 5 6 
#
# 1 87.4685 42.6424 47.4630 0.0000 0.0000 0.0000
# 2 42.6424 98.5004 47.1543 0.0000 0.0000 0.0000
# 3 47.4630 47.1543 98.7853 0.0000 0.0000 0.0000
# 4 0.0000 0.0000 0.0000 26.2624 0.0000 0.0000
# 5 0.0000 0.0000 0.0000 0.0000 22.0941 0.0000
# 6 0.0000 0.0000 0.0000 0.0000 0.0000 23.0491
#
#
#
# Elastic Compliance Matrix: (Units=1/GPa)
#
#
# Indices 1 2 3 4 5 6 
#
# 1 0.016833 -0.004427 -0.005974 0.000000 0.000000 0.000000
# 2 -0.004427 0.014324 -0.004710 0.000000 0.000000 0.000000
# 3 -0.005974 -0.004710 0.015242 0.000000 0.000000 0.000000
# 4 0.000000 0.000000 0.000000 0.038077 0.000000 0.000000
# 5 0.000000 0.000000 0.000000 0.000000 0.045261 0.000000
# 6 0.000000 0.000000 0.000000 0.000000 0.000000 0.043386
#
#
# Mechanical properties :
#
#
# Convention : Reuss Voigt Hill
#
# Bulk Modulus (GPa) = 61.82397 62.14151 61.98274
# Shear Modulus (GPa) = 23.95353 24.11407 24.03380
#
# Velocity S-wave (km/s) = 4.05498 4.06854 4.06176
# Velocity P-wave (km/s) = 8.02263 8.04534 8.03400
#
# Compressibility (1/GPa) = 0.01617496
#
# Stress axis : x y z
#
# Youngs Moduli (GPa) = 59.40757 69.81432 65.60901
#
# Poissons Ratio (x) = 0.30908 0.39197
# Poissons Ratio (y) = 0.26301 0.30903
# Poissons Ratio (z) = 0.35492 0.32884
#
# Static dielectric constant tensor:
#      x y z
#    x 2.854200 0.000000 0.000000 
#    y 0.000000 2.696980 0.000000 
#    z 0.000000 0.000000 2.938970 
# 
# 
# High freq. dielectric constant tensor:
#      x y z
#    x 1.535370 0.000000 0.000000 
#    y 0.000000 1.531150 0.000000 
#    z 0.000000 0.000000 1.579210 
# 
# From -- ./inp_files/8440.got.cif
#   From: 2010.03.12/outbox.cif.g09.slc.cpg/sg63_5_cif.got.tgz:8440.got - 2010.04.10 19:34:48.
