data_PCOD8258419
_publ_section_title
;
Structure prediction by ZEFSAII (Michael W. Deem and Ramdas Pophale) SiO2 
 PCOD8258419
Probable space group: C M C M
;
_chemical_formula_sum "Si O2"
_cell_formula_units_Z 96
_cell_length_a 19.044327
_cell_length_b 32.231955
_cell_length_c 9.151046
_cell_angle_alpha 90.000000
_cell_angle_beta 90.000000
_cell_angle_gamma 90.000000
_cell_volume 5617.240474
_symmetry_space_group_name_H-M "C M C M"
_symmetry_group_IT_number 63
_symmetry_cell_setting 'orthorhombic'
loop_
_space_group_symop_operation_xyz
x,y,z
-x,-y,1/2+z
x,-y,-z
-x,y,1/2-z
-x,-y,-z
x,y,1/2-z
-x,y,z
x,-y,1/2+z
1/2+x,1/2+y,z
1/2-x,1/2-y,1/2+z
1/2+x,1/2-y,-z
1/2-x,1/2+y,1/2-z
1/2-x,1/2-y,-z
1/2+x,1/2+y,1/2-z
1/2-x,1/2+y,z
1/2+x,1/2-y,1/2+z
loop_
_atom_site_type_symbol
_atom_site_label
_atom_site_fract_x
_atom_site_fract_y
_atom_site_fract_z
Si Si1 0.163127 0.167564 0.580300
Si Si2 0.798056 0.958375 0.922381
Si Si3 0.782779 0.376896 0.921652
Si Si4 0.078071 0.244686 0.576386
Si Si5 0.080731 0.914770 0.418796
Si Si6 0.422640 0.162733 0.423393
O O1 0.181961 0.171263 0.750000
O O2 0.234339 0.157584 0.495912
O O3 0.132566 0.210614 0.515148
O O4 0.104903 0.132233 0.553127
O O5 0.802809 0.965247 0.750000
O O6 0.741453 0.923062 0.965377
O O7 0.874753 0.946195 0.981923
O O8 0.771304 0.000000 0.000000
O O9 0.775991 0.369900 0.750000
O O10 0.863031 0.369694 0.976049
O O11 0.078249 0.241773 0.750000
O O12 0.098843 0.290959 0.523614
O O13 0.000000 0.234212 0.518464
O O14 0.091817 0.927165 0.250000
O O15 0.000000 0.918843 0.465843
O O16 0.427236 0.162876 0.250000
O O17 0.500000 0.150297 0.485967
#
# Coordination Sequence:
#
# PCOD8258419 Si02
#       6
#    16  16  16  16  16  16
#     4   9  16  26  42  65  92 122 153 181 210 245
#     4  10  20  33  48  65  86 112 142 178 220 266
#     4   9  18  31  46  66  89 112 142 180 220 261
#     4   8  13  22  39  64  91 119 153 187 211 237
#     4   9  17  29  45  65  90 120 152 183 212 244
#     4   8  14  26  45  67  89 114 145 180 216 254
#
# _framework density 17.090243000000001
#
# number of rings (size 3 to 8) (size 9 to 14) (size 15 to 20)
#    0.000    3.167    0.000    2.000    0.000    4.000 
#    0.000    0.000    0.000    2.500    0.000    2.333 
#    0.000    0.000    0.000    0.000    0.000    0.500 
#
# Total GULP energy -594958.322873 kJ/mol
# GULP energy per Si atom -12394.965060 kJ/mol
# Density = 1.705134 g / cm^3
# Si number density = 17.090243 Si / 1000 Ang^3
#
#
#
# Elastic Constant Matrix: (Units=GPa)
#
#
# Indices 1 2 3 4 5 6 
#
# 1 142.4884 80.6701 33.3461 0.0000 0.0000 0.0000
# 2 80.6701 100.2217 29.9316 0.0000 0.0000 0.0000
# 3 33.3461 29.9316 32.1070 0.0000 0.0000 0.0000
# 4 0.0000 0.0000 0.0000 14.5822 0.0000 0.0000
# 5 0.0000 0.0000 0.0000 0.0000 17.3560 0.0000
# 6 0.0000 0.0000 0.0000 0.0000 0.0000 17.9696
#
#
#
# Elastic Compliance Matrix: (Units=1/GPa)
#
#
# Indices 1 2 3 4 5 6 
#
# 1 0.013539 -0.009283 -0.005408 0.000000 0.000000 0.000000
# 2 -0.009283 0.020192 -0.009183 0.000000 0.000000 0.000000
# 3 -0.005408 -0.009183 0.045323 0.000000 0.000000 0.000000
# 4 0.000000 0.000000 0.000000 0.068577 0.000000 0.000000
# 5 0.000000 0.000000 0.000000 0.000000 0.057617 0.000000
# 6 0.000000 0.000000 0.000000 0.000000 0.000000 0.055650
#
#
# Mechanical properties :
#
#
# Convention : Reuss Voigt Hill
#
# Bulk Modulus (GPa) = 31.94148 62.52363 47.23256
# Shear Modulus (GPa) = 15.66999 18.70619 17.18809
#
# Velocity S-wave (km/s) = 3.03132 3.31199 3.17476
# Velocity P-wave (km/s) = 5.56617 7.16167 6.41373
#
# Compressibility (1/GPa) = 0.03130726
#
# Stress axis : x y z
#
# Youngs Moduli (GPa) = 73.85959 49.52361 22.06371
#
# Poissons Ratio (x) = 0.45972 0.11932
# Poissons Ratio (y) = 0.68563 0.20261
# Poissons Ratio (z) = 0.39942 0.45478
#
# Static dielectric constant tensor:
#      x y z
#    x 3.392660 0.000000 0.000000 
#    y 0.000000 3.279940 0.000000 
#    z 0.000000 0.000000 2.868650 
# 
# 
# High freq. dielectric constant tensor:
#      x y z
#    x 1.654380 0.000000 0.000000 
#    y 0.000000 1.653690 0.000000 
#    z 0.000000 0.000000 1.624050 
# 
# From -- ./inp_files/8662.got.cif
#   From: 2010.03.12/outbox.cif.g09.slc.cpg/sg63_5_cif.got.tgz:8662.got - 2010.04.10 19:34:48.
