data_PCOD8258095
_publ_section_title
;
Structure prediction by ZEFSAII (Michael W. Deem and Ramdas Pophale) SiO2 
 PCOD8258095
Probable space group: C M C M
;
_chemical_formula_sum "Si O2"
_cell_formula_units_Z 112
_cell_length_a 12.269771
_cell_length_b 17.151967
_cell_length_c 29.032946
_cell_angle_alpha 90.000000
_cell_angle_beta 90.000000
_cell_angle_gamma 90.000000
_cell_volume 6110.004020
_symmetry_space_group_name_H-M "C M C M"
_symmetry_group_IT_number 63
_symmetry_cell_setting 'orthorhombic'
loop_
_space_group_symop_operation_xyz
x,y,z
-x,-y,1/2+z
x,-y,-z
-x,y,1/2-z
-x,-y,-z
x,y,1/2-z
-x,y,z
x,-y,1/2+z
1/2+x,1/2+y,z
1/2-x,1/2-y,1/2+z
1/2+x,1/2-y,-z
1/2-x,1/2+y,1/2-z
1/2-x,1/2-y,-z
1/2+x,1/2+y,1/2-z
1/2-x,1/2+y,z
1/2+x,1/2-y,1/2+z
loop_
_atom_site_type_symbol
_atom_site_label
_atom_site_fract_x
_atom_site_fract_y
_atom_site_fract_z
Si Si1 0.629466 0.331997 0.466024
Si Si2 0.208932 0.673189 0.303900
Si Si3 0.231062 0.669058 0.051630
Si Si4 0.627279 0.942657 0.620306
Si Si5 0.257904 0.106281 0.619411
Si Si6 0.376720 0.662445 0.800966
Si Si7 0.626087 0.737406 0.369262
O O1 0.500000 0.346529 0.472414
O O2 0.700550 0.365363 0.508659
O O3 0.652289 0.239733 0.463052
O O4 0.671578 0.376192 0.420895
O O5 0.213342 0.650472 0.250000
O O6 0.167295 0.599635 0.333055
O O7 0.128379 0.745878 0.314522
O O8 0.326962 0.702962 0.321341
O O9 0.151701 0.605326 0.073924
O O10 0.320750 0.692519 0.088602
O O11 0.500000 0.958469 0.624613
O O12 0.688314 0.023439 0.613209
O O13 0.190786 0.105852 0.666575
O O14 0.352127 0.171013 0.623498
O O15 0.327581 0.652202 0.750000
O O16 0.500000 0.634419 0.803403
O O17 0.500000 0.720080 0.369276
#
# Coordination Sequence:
#
# PCOD8258095 Si02
#       7
#    16  16  16  16  16  16  16
#     4  10  19  36  59  79 104 137 176 220 262 303
#     4   9  19  34  55  81 102 129 178 225 258 306
#     4   9  20  35  56  83 102 129 178 223 258 306
#     4  11  22  37  54  75 108 139 168 213 266 312
#     4  10  21  33  50  79 109 139 176 209 250 315
#     4   9  17  33  56  78 102 134 173 217 260 302
#     4   9  17  33  54  75 105 139 170 210 260 309
#
# _framework density 18.330594000000001
#
# number of rings (size 3 to 8) (size 9 to 14) (size 15 to 20)
#    0.000    2.429    0.000    3.000    0.000    2.286 
#    0.000   10.714    0.000    2.571    0.000    0.000 
#    0.000    0.000    0.000    0.000    0.000    0.000 
#
# Total GULP energy -694295.913158 kJ/mol
# GULP energy per Si atom -12398.141306 kJ/mol
# Density = 1.828887 g / cm^3
# Si number density = 18.330594 Si / 1000 Ang^3
#
#
#
# Elastic Constant Matrix: (Units=GPa)
#
#
# Indices 1 2 3 4 5 6 
#
# 1 76.1097 11.4058 17.2675 0.0000 0.0000 0.0000
# 2 11.4058 67.2537 16.3767 0.0000 0.0000 0.0000
# 3 17.2675 16.3767 88.9391 0.0000 0.0000 0.0000
# 4 0.0000 0.0000 0.0000 16.1595 0.0000 0.0000
# 5 0.0000 0.0000 0.0000 0.0000 22.2005 0.0000
# 6 0.0000 0.0000 0.0000 0.0000 0.0000 17.2383
#
#
#
# Elastic Compliance Matrix: (Units=1/GPa)
#
#
# Indices 1 2 3 4 5 6 
#
# 1 0.013946 -0.001786 -0.002379 0.000000 0.000000 0.000000
# 2 -0.001786 0.015796 -0.002562 0.000000 0.000000 0.000000
# 3 -0.002379 -0.002562 0.012177 0.000000 0.000000 0.000000
# 4 0.000000 0.000000 0.000000 0.061883 0.000000 0.000000
# 5 0.000000 0.000000 0.000000 0.000000 0.045044 0.000000
# 6 0.000000 0.000000 0.000000 0.000000 0.000000 0.058010
#
#
# Mechanical properties :
#
#
# Convention : Reuss Voigt Hill
#
# Bulk Modulus (GPa) = 35.12947 35.82253 35.47600
# Shear Modulus (GPa) = 21.75817 23.60315 22.68066
#
# Velocity S-wave (km/s) = 3.44901 3.59226 3.52136
# Velocity P-wave (km/s) = 5.92173 6.06553 5.99406
#
# Compressibility (1/GPa) = 0.02846613
#
# Stress axis : x y z
#
# Youngs Moduli (GPa) = 71.70378 63.30805 82.12065
#
# Poissons Ratio (x) = 0.11306 0.19535
# Poissons Ratio (y) = 0.12806 0.21038
# Poissons Ratio (z) = 0.17057 0.16218
#
# Static dielectric constant tensor:
#      x y z
#    x 3.280480 0.000000 0.000000 
#    y 0.000000 3.162000 0.000000 
#    z 0.000000 0.000000 3.631870 
# 
# 
# High freq. dielectric constant tensor:
#      x y z
#    x 1.709440 0.000000 0.000000 
#    y 0.000000 1.688370 0.000000 
#    z 0.000000 0.000000 1.723620 
# 
# From -- ./inp_files/72863.got.cif
#   From: 2010.03.12/outbox.cif.g09.slc.cpg/sg63_37_cif.got.tgz:72863.got - 2010.04.10 19:34:48.
