data_PCOD8258542
_publ_section_title
;
Structure prediction by ZEFSAII (Michael W. Deem and Ramdas Pophale) SiO2 
 PCOD8258542
Probable space group: C M C M
;
_chemical_formula_sum "Si O2"
_cell_formula_units_Z 64
_cell_length_a 9.347453
_cell_length_b 40.973107
_cell_length_c 9.246660
_cell_angle_alpha 90.000000
_cell_angle_beta 90.000000
_cell_angle_gamma 90.000000
_cell_volume 3541.417075
_symmetry_space_group_name_H-M "C M C M"
_symmetry_group_IT_number 63
_symmetry_cell_setting 'orthorhombic'
loop_
_space_group_symop_operation_xyz
x,y,z
-x,-y,1/2+z
x,-y,-z
-x,y,1/2-z
-x,-y,-z
x,y,1/2-z
-x,y,z
x,-y,1/2+z
1/2+x,1/2+y,z
1/2-x,1/2-y,1/2+z
1/2+x,1/2-y,-z
1/2-x,1/2+y,1/2-z
1/2-x,1/2-y,-z
1/2+x,1/2+y,1/2-z
1/2-x,1/2+y,z
1/2+x,1/2-y,1/2+z
loop_
_atom_site_type_symbol
_atom_site_label
_atom_site_fract_x
_atom_site_fract_y
_atom_site_fract_z
Si Si1 0.166937 0.587075 0.082413
Si Si2 0.169602 0.340061 0.590365
Si Si3 0.332794 0.532148 0.917706
Si Si4 0.831443 0.721855 0.583005
O O1 0.199371 0.579262 0.250000
O O2 0.220015 0.623766 0.044086
O O3 0.000000 0.582828 0.049183
O O4 0.253236 0.563416 0.979077
O O5 0.230300 0.331376 0.750000
O O6 0.223381 0.313036 0.477006
O O7 0.000000 0.340465 0.597911
O O8 0.295362 0.527955 0.750000
O O9 0.500000 0.537365 0.944444
O O10 0.277476 0.500000 0.000000
O O11 0.789839 0.723567 0.750000
O O12 0.750000 0.750000 0.500000
O O13 0.000000 0.726209 0.557646
#
# Coordination Sequence:
#
# PCOD8258542 Si02
#       4
#    16  16  16  16
#     4   9  18  33  54  79 103 128 162 203 247 296
#     4   8  15  30  51  73  99 131 164 200 245 295
#     4  10  21  36  53  73  99 133 170 205 245 294
#     4  10  20  33  51  75 101 131 168 207 248 295
#
# _framework density 18.071860999999998
#
# number of rings (size 3 to 8) (size 9 to 14) (size 15 to 20)
#    0.000    2.750    0.000    3.000    0.000    5.000 
#    0.000    3.750    0.000    1.500    0.000    0.000 
#    0.000    0.000    0.000    0.000    0.000    0.000 
#
# Total GULP energy -396754.444914 kJ/mol
# GULP energy per Si atom -12398.576404 kJ/mol
# Density = 1.803073 g / cm^3
# Si number density = 18.071861 Si / 1000 Ang^3
#
#
#
# Elastic Constant Matrix: (Units=GPa)
#
#
# Indices 1 2 3 4 5 6 
#
# 1 33.4169 47.1571 48.3141 0.0000 0.0000 0.0000
# 2 47.1571 166.0827 103.1107 0.0000 0.0000 0.0000
# 3 48.3141 103.1107 144.1658 0.0000 0.0000 0.0000
# 4 0.0000 0.0000 0.0000 41.9405 0.0000 0.0000
# 5 0.0000 0.0000 0.0000 0.0000 28.1435 0.0000
# 6 0.0000 0.0000 0.0000 0.0000 0.0000 30.7646
#
#
#
# Elastic Compliance Matrix: (Units=1/GPa)
#
#
# Indices 1 2 3 4 5 6 
#
# 1 0.064493 -0.008802 -0.015318 0.000000 0.000000 0.000000
# 2 -0.008802 0.012031 -0.005655 0.000000 0.000000 0.000000
# 3 -0.015318 -0.005655 0.016115 0.000000 0.000000 0.000000
# 4 0.000000 0.000000 0.000000 0.023843 0.000000 0.000000
# 5 0.000000 0.000000 0.000000 0.000000 0.035532 0.000000
# 6 0.000000 0.000000 0.000000 0.000000 0.000000 0.032505
#
#
# Mechanical properties :
#
#
# Convention : Reuss Voigt Hill
#
# Bulk Modulus (GPa) = 30.22207 82.31435 56.26821
# Shear Modulus (GPa) = 19.60019 29.84195 24.72107
#
# Velocity S-wave (km/s) = 3.29685 4.06802 3.70257
# Velocity P-wave (km/s) = 5.59034 8.22875 7.03435
#
# Compressibility (1/GPa) = 0.03308840
#
# Stress axis : x y z
#
# Youngs Moduli (GPa) = 15.50559 83.11641 62.05457
#
# Poissons Ratio (x) = 0.73158 0.95056
# Poissons Ratio (y) = 0.13648 0.35094
# Poissons Ratio (z) = 0.23752 0.47005
#
# Static dielectric constant tensor:
#      x y z
#    x 3.006560 0.000000 0.000000 
#    y 0.000000 3.624920 0.000000 
#    z 0.000000 0.000000 4.451370 
# 
# 
# High freq. dielectric constant tensor:
#      x y z
#    x 1.665480 0.000000 0.000000 
#    y 0.000000 1.715280 0.000000 
#    z 0.000000 0.000000 1.706000 
# 
# From -- ./inp_files/3114.got.cif
#   From: 2010.03.12/outbox.cif.g09.slc.cpg/sg63_2_cif.got.tgz:3114.got - 2010.04.10 19:34:48.
