data_PCOD8258649
_publ_section_title
;
Structure prediction by ZEFSAII (Michael W. Deem and Ramdas Pophale) SiO2 
 PCOD8258649
Probable space group: C M C M
;
_chemical_formula_sum "Si O2"
_cell_formula_units_Z 112
_cell_length_a 13.361800
_cell_length_b 22.881103
_cell_length_c 18.856324
_cell_angle_alpha 90.000000
_cell_angle_beta 90.000000
_cell_angle_gamma 90.000000
_cell_volume 5764.995265
_symmetry_space_group_name_H-M "C M C M"
_symmetry_group_IT_number 63
_symmetry_cell_setting 'orthorhombic'
loop_
_space_group_symop_operation_xyz
x,y,z
-x,-y,1/2+z
x,-y,-z
-x,y,1/2-z
-x,-y,-z
x,y,1/2-z
-x,y,z
x,-y,1/2+z
1/2+x,1/2+y,z
1/2-x,1/2-y,1/2+z
1/2+x,1/2-y,-z
1/2-x,1/2+y,1/2-z
1/2-x,1/2-y,-z
1/2+x,1/2+y,1/2-z
1/2-x,1/2+y,z
1/2+x,1/2-y,1/2+z
loop_
_atom_site_type_symbol
_atom_site_label
_atom_site_fract_x
_atom_site_fract_y
_atom_site_fract_z
Si Si1 0.295987 0.940793 0.029746
Si Si2 0.618300 0.183335 0.491951
Si Si3 0.890313 0.841678 0.170445
Si Si4 0.612144 0.672862 0.172922
Si Si5 0.615150 0.434090 0.924958
Si Si6 0.196717 0.035611 0.668868
Si Si7 0.749578 0.753264 0.396741
O O1 0.287431 0.946661 0.115362
O O2 0.360644 0.884390 0.009885
O O3 0.184337 0.938668 0.994680
O O4 0.349211 0.000000 0.000000
O O5 0.500000 0.192667 0.487325
O O6 0.665291 0.229510 0.546582
O O7 0.671512 0.202554 0.418958
O O8 0.878055 0.817341 0.250000
O O9 0.880815 0.911261 0.169921
O O10 0.807004 0.812659 0.121468
O O11 0.000000 0.825590 0.140759
O O12 0.626005 0.642666 0.250000
O O13 0.500000 0.697399 0.165454
O O14 0.634973 0.628762 0.109292
O O15 0.688557 0.727083 0.169150
O O16 0.500000 0.441605 0.949128
O O17 0.640856 0.479749 0.862978
O O18 0.235285 0.023482 0.750000
#
# Coordination Sequence:
#
# PCOD8258649 Si02
#       7
#    16  16  16  16  16  16  16
#     4  10  21  39  59  84 110 148 190 235 284 334
#     4  11  23  39  59  83 109 147 195 239 289 339
#     4  10  20  33  53  81 112 149 187 224 275 339
#     4  10  20  34  56  85 116 152 189 228 280 339
#     4  10  20  35  56  85 119 150 185 230 282 339
#     4  10  20  35  56  83 118 150 182 228 282 338
#     4  11  21  38  55  80 114 151 185 240 282 337
#
# _framework density 19.427596999999999
#
# number of rings (size 3 to 8) (size 9 to 14) (size 15 to 20)
#    0.000    1.714    2.857    2.143    0.000    4.857 
#    0.000    0.000    0.000    1.286    0.000    0.000 
#    0.000    0.000    0.000    0.000    0.000    0.000 
#
# Total GULP energy -694091.145701 kJ/mol
# GULP energy per Si atom -12394.484745 kJ/mol
# Density = 1.938338 g / cm^3
# Si number density = 19.427597 Si / 1000 Ang^3
#
#
#
# Elastic Constant Matrix: (Units=GPa)
#
#
# Indices 1 2 3 4 5 6 
#
# 1 101.8557 40.5020 33.7141 0.0000 0.0000 0.0000
# 2 40.5020 81.8901 16.2610 0.0000 0.0000 0.0000
# 3 33.7141 16.2610 95.5997 0.0000 0.0000 0.0000
# 4 0.0000 0.0000 0.0000 27.4000 0.0000 0.0000
# 5 0.0000 0.0000 0.0000 0.0000 19.7559 0.0000
# 6 0.0000 0.0000 0.0000 0.0000 0.0000 27.6820
#
#
#
# Elastic Compliance Matrix: (Units=1/GPa)
#
#
# Indices 1 2 3 4 5 6 
#
# 1 0.013389 -0.005883 -0.003721 0.000000 0.000000 0.000000
# 2 -0.005883 0.015223 -0.000515 0.000000 0.000000 0.000000
# 3 -0.003721 -0.000515 0.011860 0.000000 0.000000 0.000000
# 4 0.000000 0.000000 0.000000 0.036496 0.000000 0.000000
# 5 0.000000 0.000000 0.000000 0.000000 0.050618 0.000000
# 6 0.000000 0.000000 0.000000 0.000000 0.000000 0.036125
#
#
# Mechanical properties :
#
#
# Convention : Reuss Voigt Hill
#
# Bulk Modulus (GPa) = 49.41999 51.14440 50.28220
# Shear Modulus (GPa) = 26.22009 27.55880 26.88944
#
# Velocity S-wave (km/s) = 3.67772 3.77044 3.72437
# Velocity P-wave (km/s) = 6.59753 6.73333 6.66578
#
# Compressibility (1/GPa) = 0.02023473
#
# Stress axis : x y z
#
# Youngs Moduli (GPa) = 74.68921 65.68830 84.31647
#
# Poissons Ratio (x) = 0.38645 0.31374
# Poissons Ratio (y) = 0.43940 0.04340
# Poissons Ratio (z) = 0.27792 0.03381
#
# Static dielectric constant tensor:
#      x y z
#    x 3.290680 0.000000 0.000000 
#    y 0.000000 3.539170 0.000000 
#    z 0.000000 0.000000 3.606810 
# 
# 
# High freq. dielectric constant tensor:
#      x y z
#    x 1.730560 0.000000 0.000000 
#    y 0.000000 1.764370 0.000000 
#    z 0.000000 0.000000 1.757420 
# 
# From -- ./inp_files/53128.got.cif
#   From: 2010.03.12/outbox.cif.g09.slc.cpg/sg63_27_cif.got.tgz:53128.got - 2010.04.10 19:34:48.
