data_PCOD8258579
_publ_section_title
;
Structure prediction by ZEFSAII (Michael W. Deem and Ramdas Pophale) SiO2 
 PCOD8258579
Probable space group: C M C M
;
_chemical_formula_sum "Si O2"
_cell_formula_units_Z 80
_cell_length_a 9.513285
_cell_length_b 18.324747
_cell_length_c 25.242644
_cell_angle_alpha 90.000000
_cell_angle_beta 90.000000
_cell_angle_gamma 90.000000
_cell_volume 4400.513294
_symmetry_space_group_name_H-M "C M C M"
_symmetry_group_IT_number 63
_symmetry_cell_setting 'orthorhombic'
loop_
_space_group_symop_operation_xyz
x,y,z
-x,-y,1/2+z
x,-y,-z
-x,y,1/2-z
-x,-y,-z
x,y,1/2-z
-x,y,z
x,-y,1/2+z
1/2+x,1/2+y,z
1/2-x,1/2-y,1/2+z
1/2+x,1/2-y,-z
1/2-x,1/2+y,1/2-z
1/2-x,1/2-y,-z
1/2+x,1/2+y,1/2-z
1/2-x,1/2+y,z
1/2+x,1/2-y,1/2+z
loop_
_atom_site_type_symbol
_atom_site_label
_atom_site_fract_x
_atom_site_fract_y
_atom_site_fract_z
Si Si1 0.165628 0.663314 0.591644
Si Si2 0.163185 0.170040 0.104371
Si Si3 0.666886 0.925793 0.308178
Si Si4 0.162937 0.084913 0.500921
Si Si5 0.839013 0.410459 0.811414
O O1 0.206019 0.747900 0.589371
O O2 0.220658 0.630301 0.647418
O O3 0.243254 0.623209 0.544521
O O4 0.000000 0.650434 0.584726
O O5 0.247757 0.146619 0.155967
O O6 0.000000 0.165242 0.118846
O O7 0.203193 0.117834 0.055849
O O8 0.725281 0.902302 0.250000
O O9 0.500000 0.926840 0.305526
O O10 0.718312 0.007619 0.322021
O O11 0.000000 0.099008 0.514374
O O12 0.199760 0.000000 0.500000
O O13 0.823410 0.390205 0.750000
O O14 0.000000 0.403710 0.829873
#
# Coordination Sequence:
#
# PCOD8258579 Si02
#       5
#    16  16  16  16  16
#     4  10  20  33  52  77 100 127 167 209 249 295
#     4  10  21  34  49  74 104 132 165 204 250 301
#     4   8  15  30  51  73  97 125 160 203 246 289
#     4  10  21  36  52  71 100 136 169 205 252 302
#     4   9  18  33  53  75  98 128 166 203 241 290
#
# _framework density 18.179697000000001
#
# number of rings (size 3 to 8) (size 9 to 14) (size 15 to 20)
#    0.000    2.600    0.000    3.000    0.000    3.200 
#    0.000    2.000    0.000    1.800    0.000    0.000 
#    0.000    0.000    0.000    0.000    0.000    0.000 
#
# Total GULP energy -496031.038660 kJ/mol
# GULP energy per Si atom -12400.775967 kJ/mol
# Density = 1.813832 g / cm^3
# Si number density = 18.179697 Si / 1000 Ang^3
#
#
#
# Elastic Constant Matrix: (Units=GPa)
#
#
# Indices 1 2 3 4 5 6 
#
# 1 45.5524 49.6292 50.5414 0.0000 0.0000 0.0000
# 2 49.6292 131.9165 75.1820 0.0000 0.0000 0.0000
# 3 50.5414 75.1820 106.9235 0.0000 0.0000 0.0000
# 4 0.0000 0.0000 0.0000 11.6666 0.0000 0.0000
# 5 0.0000 0.0000 0.0000 0.0000 29.8277 0.0000
# 6 0.0000 0.0000 0.0000 0.0000 0.0000 11.8881
#
#
#
# Elastic Compliance Matrix: (Units=1/GPa)
#
#
# Indices 1 2 3 4 5 6 
#
# 1 0.052219 -0.009308 -0.018138 0.000000 0.000000 0.000000
# 2 -0.009308 0.014309 -0.005661 0.000000 0.000000 0.000000
# 3 -0.018138 -0.005661 0.021907 0.000000 0.000000 0.000000
# 4 0.000000 0.000000 0.000000 0.085714 0.000000 0.000000
# 5 0.000000 0.000000 0.000000 0.000000 0.033526 0.000000
# 6 0.000000 0.000000 0.000000 0.000000 0.000000 0.084118
#
#
# Mechanical properties :
#
#
# Convention : Reuss Voigt Hill
#
# Bulk Modulus (GPa) = 45.00622 70.56641 57.78631
# Shear Modulus (GPa) = 13.68308 17.94581 15.81444
#
# Velocity S-wave (km/s) = 2.74644 3.14528 2.95260
# Velocity P-wave (km/s) = 5.90485 7.21739 6.59386
#
# Compressibility (1/GPa) = 0.02221915
#
# Stress axis : x y z
#
# Youngs Moduli (GPa) = 19.15018 69.88631 45.64782
#
# Poissons Ratio (x) = 0.65052 0.82797
# Poissons Ratio (y) = 0.17825 0.25842
# Poissons Ratio (z) = 0.34735 0.39565
#
# Static dielectric constant tensor:
#      x y z
#    x 3.085330 0.000000 0.000000 
#    y 0.000000 3.482690 0.000000 
#    z 0.000000 0.000000 3.624970 
# 
# 
# High freq. dielectric constant tensor:
#      x y z
#    x 1.677750 0.000000 0.000000 
#    y 0.000000 1.711800 0.000000 
#    z 0.000000 0.000000 1.714720 
# 
# From -- ./inp_files/61140.got.cif
#   From: 2010.03.12/outbox.cif.g09.slc.cpg/sg63_31_cif.got.tgz:61140.got - 2010.04.10 19:34:48.
