data_PCOD8258837
_publ_section_title
;
Structure prediction by ZEFSAII (Michael W. Deem and Ramdas Pophale) SiO2 
 PCOD8258837
Probable space group: C M C M
;
_chemical_formula_sum "Si O2"
_cell_formula_units_Z 80
_cell_length_a 9.002998
_cell_length_b 18.663355
_cell_length_c 25.667260
_cell_angle_alpha 90.000000
_cell_angle_beta 90.000000
_cell_angle_gamma 90.000000
_cell_volume 4312.770821
_symmetry_space_group_name_H-M "C M C M"
_symmetry_group_IT_number 63
_symmetry_cell_setting 'orthorhombic'
loop_
_space_group_symop_operation_xyz
x,y,z
-x,-y,1/2+z
x,-y,-z
-x,y,1/2-z
-x,-y,-z
x,y,1/2-z
-x,y,z
x,-y,1/2+z
1/2+x,1/2+y,z
1/2-x,1/2-y,1/2+z
1/2+x,1/2-y,-z
1/2-x,1/2+y,1/2-z
1/2-x,1/2-y,-z
1/2+x,1/2+y,1/2-z
1/2-x,1/2+y,z
1/2+x,1/2-y,1/2+z
loop_
_atom_site_type_symbol
_atom_site_label
_atom_site_fract_x
_atom_site_fract_y
_atom_site_fract_z
Si Si1 0.676028 0.298285 0.750000
Si Si2 0.323501 0.537921 0.250000
Si Si3 0.173462 0.543336 0.843997
Si Si4 0.671043 0.289971 0.046421
Si Si5 0.328703 0.456772 0.050265
Si Si6 0.173692 0.290602 0.152052
O O1 0.500000 0.292751 0.750000
O O2 0.730764 0.379870 0.750000
O O3 0.736704 0.257707 0.801045
O O4 0.500000 0.532115 0.250000
O O5 0.261445 0.500912 0.198723
O O6 0.230101 0.519035 0.900728
O O7 0.207704 0.626873 0.834559
O O8 0.000000 0.526438 0.839103
O O9 0.500000 0.268218 0.046867
O O10 0.695155 0.373892 0.037786
O O11 0.741535 0.264901 0.100702
O O12 0.750000 0.250000 0.000000
O O13 0.500000 0.474240 0.063079
O O14 0.272803 0.500000 0.000000
O O15 0.000000 0.278552 0.142331
#
# Coordination Sequence:
#
# PCOD8258837 Si02
#       6
#     8   8  16  16  16  16
#     4   9  19  35  55  77 100 133 174 210 250 303
#     4  11  22  35  53  77 106 137 170 210 256 309
#     4  10  20  35  56  79 104 135 172 216 262 306
#     4  10  20  34  53  78 106 136 172 213 257 304
#     4   9  19  36  56  77 103 138 178 214 251 304
#     4   9  18  36  58  76  99 135 177 214 251 302
#
# _framework density 18.54956
#
# number of rings (size 3 to 8) (size 9 to 14) (size 15 to 20)
#    0.000    2.400    0.000    2.100    0.000    5.200 
#    0.000   10.500    0.000    0.000    0.000    0.000 
#    0.000    0.000    0.000    0.000    0.000    0.000 
#
# Total GULP energy -496135.563054 kJ/mol
# GULP energy per Si atom -12403.389076 kJ/mol
# Density = 1.850734 g / cm^3
# Si number density = 18.549560 Si / 1000 Ang^3
#
#
#
# Elastic Constant Matrix: (Units=GPa)
#
#
# Indices 1 2 3 4 5 6 
#
# 1 85.9623 52.8794 78.3626 0.0000 0.0000 0.0000
# 2 52.8794 88.9496 93.3749 0.0000 0.0000 0.0000
# 3 78.3626 93.3749 191.4066 0.0000 0.0000 0.0000
# 4 0.0000 0.0000 0.0000 39.1265 0.0000 0.0000
# 5 0.0000 0.0000 0.0000 0.0000 37.1889 0.0000
# 6 0.0000 0.0000 0.0000 0.0000 0.0000 26.1554
#
#
#
# Elastic Compliance Matrix: (Units=1/GPa)
#
#
# Indices 1 2 3 4 5 6 
#
# 1 0.020436 -0.006899 -0.005001 0.000000 0.000000 0.000000
# 2 -0.006899 0.025372 -0.009553 0.000000 0.000000 0.000000
# 3 -0.005001 -0.009553 0.011932 0.000000 0.000000 0.000000
# 4 0.000000 0.000000 0.000000 0.025558 0.000000 0.000000
# 5 0.000000 0.000000 0.000000 0.000000 0.026890 0.000000
# 6 0.000000 0.000000 0.000000 0.000000 0.000000 0.038233
#
#
# Mechanical properties :
#
#
# Convention : Reuss Voigt Hill
#
# Bulk Modulus (GPa) = 67.41231 90.61692 79.01461
# Shear Modulus (GPa) = 25.47509 29.94093 27.70801
#
# Velocity S-wave (km/s) = 3.70990 4.02195 3.86907
# Velocity P-wave (km/s) = 7.40079 8.39794 7.91509
#
# Compressibility (1/GPa) = 0.01483409
#
# Stress axis : x y z
#
# Youngs Moduli (GPa) = 48.93404 39.41396 83.80863
#
# Poissons Ratio (x) = 0.27192 0.41911
# Poissons Ratio (y) = 0.33760 0.80060
# Poissons Ratio (z) = 0.24471 0.37651
#
# Static dielectric constant tensor:
#      x y z
#    x 3.386310 0.000000 0.000000 
#    y 0.000000 3.447360 0.000000 
#    z 0.000000 0.000000 3.599490 
# 
# 
# High freq. dielectric constant tensor:
#      x y z
#    x 1.715440 0.000000 0.000000 
#    y 0.000000 1.713990 0.000000 
#    z 0.000000 0.000000 1.734660 
# 
# From -- ./inp_files/66649.got.cif
#   From: 2010.03.12/outbox.cif.g09.slc.cpg/sg63_34_cif.got.tgz:66649.got - 2010.04.10 19:34:48.
