data_PCOD8258319
_publ_section_title
;
Structure prediction by ZEFSAII (Michael W. Deem and Ramdas Pophale) SiO2 
 PCOD8258319
Probable space group: C M C M
;
_chemical_formula_sum "Si O2"
_cell_formula_units_Z 80
_cell_length_a 8.998409
_cell_length_b 20.683618
_cell_length_c 27.266286
_cell_angle_alpha 90.000000
_cell_angle_beta 90.000000
_cell_angle_gamma 90.000000
_cell_volume 5074.791726
_symmetry_space_group_name_H-M "C M C M"
_symmetry_group_IT_number 63
_symmetry_cell_setting 'orthorhombic'
loop_
_space_group_symop_operation_xyz
x,y,z
-x,-y,1/2+z
x,-y,-z
-x,y,1/2-z
-x,-y,-z
x,y,1/2-z
-x,y,z
x,-y,1/2+z
1/2+x,1/2+y,z
1/2-x,1/2-y,1/2+z
1/2+x,1/2-y,-z
1/2-x,1/2+y,1/2-z
1/2-x,1/2-y,-z
1/2+x,1/2+y,1/2-z
1/2-x,1/2+y,z
1/2+x,1/2-y,1/2+z
loop_
_atom_site_type_symbol
_atom_site_label
_atom_site_fract_x
_atom_site_fract_y
_atom_site_fract_z
Si Si1 0.174019 0.420126 0.306571
Si Si2 0.167694 0.802116 0.144728
Si Si3 0.828011 0.948527 0.806432
Si Si4 0.176024 0.177376 0.134683
Si Si5 0.167854 0.733891 0.049711
O O1 0.215179 0.406877 0.250000
O O2 0.250592 0.366905 0.340034
O O3 0.233064 0.489904 0.323136
O O4 0.000000 0.417631 0.315813
O O5 0.255237 0.738503 0.164920
O O6 0.166480 0.797408 0.085051
O O7 0.000000 0.802045 0.165680
O O8 0.797606 0.930853 0.750000
O O9 0.775056 0.888163 0.838754
O O10 0.000000 0.964764 0.815444
O O11 0.244184 0.177161 0.079337
O O12 0.000000 0.185155 0.132652
O O13 0.000000 0.710836 0.038382
O O14 0.250000 0.750000 0.000000
#
# Coordination Sequence:
#
# PCOD8258319 Si02
#       5
#    16  16  16  16  16
#     4  10  20  32  48  70  97 131 166 199 237 281
#     4   9  19  32  48  72  97 126 161 198 240 285
#     4   9  18  32  49  69  97 133 165 194 234 283
#     4   9  17  30  49  73  99 127 160 199 239 282
#     4   9  18  31  50  73  96 124 157 197 245 290
#
# _framework density 15.764193000000001
#
# number of rings (size 3 to 8) (size 9 to 14) (size 15 to 20)
#    1.200    1.600    0.000    1.800    0.000    3.600 
#    0.000    2.000    0.000    1.200    0.000    8.400 
#    0.000    0.000    0.000    0.000    0.000    0.000 
#
# Total GULP energy -495681.895949 kJ/mol
# GULP energy per Si atom -12392.047399 kJ/mol
# Density = 1.572831 g / cm^3
# Si number density = 15.764193 Si / 1000 Ang^3
#
#
#
# Elastic Constant Matrix: (Units=GPa)
#
#
# Indices 1 2 3 4 5 6 
#
# 1 106.9931 65.6048 42.2648 0.0000 0.0000 0.0000
# 2 65.6048 114.4782 52.8657 0.0000 0.0000 0.0000
# 3 42.2648 52.8657 65.6459 0.0000 0.0000 0.0000
# 4 0.0000 0.0000 0.0000 4.6144 0.0000 0.0000
# 5 0.0000 0.0000 0.0000 0.0000 26.2801 0.0000
# 6 0.0000 0.0000 0.0000 0.0000 0.0000 31.2793
#
#
#
# Elastic Compliance Matrix: (Units=1/GPa)
#
#
# Indices 1 2 3 4 5 6 
#
# 1 0.015169 -0.006660 -0.004403 0.000000 0.000000 0.000000
# 2 -0.006660 0.016831 -0.009267 0.000000 0.000000 0.000000
# 3 -0.004403 -0.009267 0.025531 0.000000 0.000000 0.000000
# 4 0.000000 0.000000 0.000000 0.216713 0.000000 0.000000
# 5 0.000000 0.000000 0.000000 0.000000 0.038052 0.000000
# 6 0.000000 0.000000 0.000000 0.000000 0.000000 0.031970
#
#
# Mechanical properties :
#
#
# Convention : Reuss Voigt Hill
#
# Bulk Modulus (GPa) = 59.27006 67.62086 63.44546
# Shear Modulus (GPa) = 12.80246 20.86020 16.83133
#
# Velocity S-wave (km/s) = 2.85287 3.64162 3.27110
# Velocity P-wave (km/s) = 6.96644 7.78911 7.38923
#
# Compressibility (1/GPa) = 0.01687192
#
# Stress axis : x y z
#
# Youngs Moduli (GPa) = 65.92226 59.41357 39.16847
#
# Poissons Ratio (x) = 0.39568 0.17247
# Poissons Ratio (y) = 0.43903 0.36296
# Poissons Ratio (z) = 0.29027 0.55056
#
# Static dielectric constant tensor:
#      x y z
#    x 3.106440 0.000000 0.000000 
#    y 0.000000 2.866670 0.000000 
#    z 0.000000 0.000000 2.812320 
# 
# 
# High freq. dielectric constant tensor:
#      x y z
#    x 1.624530 0.000000 0.000000 
#    y 0.000000 1.590390 0.000000 
#    z 0.000000 0.000000 1.581770 
# 
# From -- ./inp_files/71560.got.cif
#   From: 2010.03.12/outbox.cif.g09.slc.cpg/sg63_36_cif.got.tgz:71560.got - 2010.04.10 19:34:48.
