data_PCOD8258643
_publ_section_title
;
Structure prediction by ZEFSAII (Michael W. Deem and Ramdas Pophale) SiO2 
 PCOD8258643
Probable space group: C M C M
;
_chemical_formula_sum "Si O2"
_cell_formula_units_Z 112
_cell_length_a 8.662127
_cell_length_b 21.404829
_cell_length_c 29.795261
_cell_angle_alpha 90.000000
_cell_angle_beta 90.000000
_cell_angle_gamma 90.000000
_cell_volume 5524.379483
_symmetry_space_group_name_H-M "C M C M"
_symmetry_group_IT_number 63
_symmetry_cell_setting 'orthorhombic'
loop_
_space_group_symop_operation_xyz
x,y,z
-x,-y,1/2+z
x,-y,-z
-x,y,1/2-z
-x,-y,-z
x,y,1/2-z
-x,y,z
x,-y,1/2+z
1/2+x,1/2+y,z
1/2-x,1/2-y,1/2+z
1/2+x,1/2-y,-z
1/2-x,1/2+y,1/2-z
1/2-x,1/2-y,-z
1/2+x,1/2+y,1/2-z
1/2-x,1/2+y,z
1/2+x,1/2-y,1/2+z
loop_
_atom_site_type_symbol
_atom_site_label
_atom_site_fract_x
_atom_site_fract_y
_atom_site_fract_z
Si Si1 0.683014 0.882860 0.801804
Si Si2 0.681318 0.587296 0.483931
Si Si3 0.318774 0.471286 0.071417
Si Si4 0.318055 0.148475 0.800011
Si Si5 0.682591 0.718215 0.456405
Si Si6 0.819438 0.482005 0.333784
Si Si7 0.183891 0.765558 0.855862
O O1 0.731698 0.872026 0.750000
O O2 0.500000 0.881269 0.807347
O O3 0.749669 0.951204 0.817333
O O4 0.752514 0.828388 0.832771
O O5 0.500000 0.581689 0.478737
O O6 0.717926 0.586448 0.537588
O O7 0.748011 0.529961 0.456008
O O8 0.746756 0.648230 0.460268
O O9 0.500000 0.475272 0.084313
O O10 0.214843 0.466931 0.114871
O O11 0.274707 0.169264 0.750000
O O12 0.500000 0.145006 0.807833
O O13 0.250209 0.203064 0.831922
O O14 0.248879 0.078808 0.808243
O O15 0.500000 0.722302 0.459791
O O16 0.750000 0.750000 0.500000
O O17 0.739277 0.741834 0.407677
O O18 0.000000 0.485192 0.324632
O O19 0.000000 0.770012 0.852729
#
# Coordination Sequence:
#
# PCOD8258643 Si02
#       7
#    16  16  16  16  16  16  16
#     4  10  21  37  57  82 112 145 180 221 275 335
#     4   8  16  32  51  71 101 139 177 212 261 320
#     4   9  17  32  54  75  98 137 180 217 258 316
#     4   9  18  34  55  78 107 143 179 217 268 326
#     4  10  21  35  52  77 109 142 178 223 270 321
#     4  10  20  33  53  80 110 139 174 219 270 323
#     4  10  21  37  59  84 108 141 188 234 271 317
#
# _framework density 20.273769999999999
#
# number of rings (size 3 to 8) (size 9 to 14) (size 15 to 20)
#    0.000    2.571    0.000    2.571    2.000    4.857 
#    0.000    2.857    0.000    2.143    0.000    0.000 
#    0.000    0.000    0.000    0.000    0.000    0.000 
#
# Total GULP energy -693776.394138 kJ/mol
# GULP energy per Si atom -12388.864181 kJ/mol
# Density = 2.022763 g / cm^3
# Si number density = 20.273770 Si / 1000 Ang^3
#
#
#
# Elastic Constant Matrix: (Units=GPa)
#
#
# Indices 1 2 3 4 5 6 
#
# 1 12.6915 17.3733 13.5514 0.0000 0.0000 0.0000
# 2 17.3733 144.6079 75.3595 0.0000 0.0000 0.0000
# 3 13.5514 75.3595 159.1056 0.0000 0.0000 0.0000
# 4 0.0000 0.0000 0.0000 36.4112 0.0000 0.0000
# 5 0.0000 0.0000 0.0000 0.0000 28.9348 0.0000
# 6 0.0000 0.0000 0.0000 0.0000 0.0000 20.6058
#
#
#
# Elastic Compliance Matrix: (Units=1/GPa)
#
#
# Indices 1 2 3 4 5 6 
#
# 1 0.095827 -0.009638 -0.003597 0.000000 0.000000 0.000000
# 2 -0.009638 0.010151 -0.003987 0.000000 0.000000 0.000000
# 3 -0.003597 -0.003987 0.008480 0.000000 0.000000 0.000000
# 4 0.000000 0.000000 0.000000 0.027464 0.000000 0.000000
# 5 0.000000 0.000000 0.000000 0.000000 0.034560 0.000000
# 6 0.000000 0.000000 0.000000 0.000000 0.000000 0.048530
#
#
# Mechanical properties :
#
#
# Convention : Reuss Voigt Hill
#
# Bulk Modulus (GPa) = 12.49786 58.77480 35.63633
# Shear Modulus (GPa) = 17.47472 31.19842 24.33657
#
# Velocity S-wave (km/s) = 2.93906 3.92708 3.46843
# Velocity P-wave (km/s) = 4.20659 7.04387 5.80136
#
# Compressibility (1/GPa) = 0.08001369
#
# Stress axis : x y z
#
# Youngs Moduli (GPa) = 10.43548 98.51280 117.92588
#
# Poissons Ratio (x) = 0.94950 0.42414
# Poissons Ratio (y) = 0.10058 0.47017
# Poissons Ratio (z) = 0.03753 0.39277
#
# Static dielectric constant tensor:
#      x y z
#    x 3.172910 0.000000 0.000000 
#    y 0.000000 3.836660 0.000000 
#    z 0.000000 0.000000 3.865220 
# 
# 
# High freq. dielectric constant tensor:
#      x y z
#    x 1.739270 0.000000 0.000000 
#    y 0.000000 1.804950 0.000000 
#    z 0.000000 0.000000 1.808390 
# 
# From -- ./inp_files/61797.got.cif
#   From: 2010.03.12/outbox.cif.g09.slc.cpg/sg63_31_cif.got.tgz:61797.got - 2010.04.10 19:34:48.
