data_PCOD8258706
_publ_section_title
;
Structure prediction by ZEFSAII (Michael W. Deem and Ramdas Pophale) SiO2 
 PCOD8258706
Probable space group: C M C M
;
_chemical_formula_sum "Si O2"
_cell_formula_units_Z 72
_cell_length_a 29.136723
_cell_length_b 15.264775
_cell_length_c 9.022513
_cell_angle_alpha 90.000000
_cell_angle_beta 90.000000
_cell_angle_gamma 90.000000
_cell_volume 4012.902694
_symmetry_space_group_name_H-M "C M C M"
_symmetry_group_IT_number 63
_symmetry_cell_setting 'orthorhombic'
loop_
_space_group_symop_operation_xyz
x,y,z
-x,-y,1/2+z
x,-y,-z
-x,y,1/2-z
-x,-y,-z
x,y,1/2-z
-x,y,z
x,-y,1/2+z
1/2+x,1/2+y,z
1/2-x,1/2-y,1/2+z
1/2+x,1/2-y,-z
1/2-x,1/2+y,1/2-z
1/2-x,1/2-y,-z
1/2+x,1/2+y,1/2-z
1/2-x,1/2+y,z
1/2+x,1/2-y,1/2+z
loop_
_atom_site_type_symbol
_atom_site_label
_atom_site_fract_x
_atom_site_fract_y
_atom_site_fract_z
Si Si1 0.549972 0.755308 0.920406
Si Si2 0.858791 0.733016 0.922627
Si Si3 0.000000 0.089496 0.916782
Si Si4 0.188801 0.089048 0.073228
Si Si5 0.213736 0.589589 0.572096
O O1 0.561144 0.773818 0.750000
O O2 0.500000 0.798931 0.961309
O O3 0.544914 0.650031 0.949275
O O4 0.591710 0.793851 0.013650
O O5 0.863187 0.722291 0.750000
O O6 0.845495 0.832000 0.966761
O O7 0.820405 0.666044 0.980459
O O8 0.000000 0.058615 0.750000
O O9 0.000000 0.000000 0.000000
O O10 0.194897 0.077676 0.250000
O O11 0.237232 0.112017 0.998546
O O12 0.168952 0.000000 0.000000
O O13 0.194928 0.500000 0.500000
O O14 0.217831 0.581564 0.750000
#
# Coordination Sequence:
#
# PCOD8258706 Si02
#       5
#    16  16   8  16  16
#     4   8  18  34  49  70  98 129 167 207 249 296
#     4  10  21  34  52  77 103 134 172 211 254 304
#     4   8  16  30  46  68  95 126 163 202 243 292
#     4  10  20  34  50  74 106 138 171 207 250 300
#     4  10  20  35  53  76 103 132 170 212 256 306
#
# _framework density 17.942125000000001
#
# number of rings (size 3 to 8) (size 9 to 14) (size 15 to 20)
#    0.667    2.000    0.000    3.333    0.000    5.778 
#    0.000    4.444    0.000    0.667    0.000    0.000 
#    0.000    0.000    0.000    0.000    0.000    0.000 
#
# Total GULP energy -446002.889296 kJ/mol
# GULP energy per Si atom -12388.969147 kJ/mol
# Density = 1.790129 g / cm^3
# Si number density = 17.942125 Si / 1000 Ang^3
#
#
#
# Elastic Constant Matrix: (Units=GPa)
#
#
# Indices 1 2 3 4 5 6 
#
# 1 89.5455 32.1981 30.6736 0.0000 0.0000 0.0000
# 2 32.1981 51.2106 27.9286 0.0000 0.0000 0.0000
# 3 30.6736 27.9286 58.5333 0.0000 0.0000 0.0000
# 4 0.0000 0.0000 0.0000 25.9752 0.0000 0.0000
# 5 0.0000 0.0000 0.0000 0.0000 33.4668 0.0000
# 6 0.0000 0.0000 0.0000 0.0000 0.0000 -13.6338
#
#
#
# Elastic Compliance Matrix: (Units=1/GPa)
#
#
# Indices 1 2 3 4 5 6 
#
# 1 0.015307 -0.007096 -0.004636 0.000000 0.000000 0.000000
# 2 -0.007096 0.029685 -0.010446 0.000000 0.000000 0.000000
# 3 -0.004636 -0.010446 0.024498 0.000000 0.000000 0.000000
# 4 0.000000 0.000000 0.000000 0.038498 0.000000 0.000000
# 5 0.000000 0.000000 0.000000 0.000000 0.029880 0.000000
# 6 0.000000 0.000000 0.000000 0.000000 0.000000 -0.073347
#
#
# Mechanical properties :
#
#
# Convention : Reuss Voigt Hill
#
# Bulk Modulus (GPa) = 39.78422 42.32109 41.05266
# Shear Modulus (GPa) = 42.64238 16.39423 29.51831
#
# Velocity S-wave (km/s) = 4.88039 3.02607 4.06050
# Velocity P-wave (km/s) = 7.34707 5.98734 6.70178
#
# Compressibility (1/GPa) = 0.02513559
#
# Stress axis : x y z
#
# Youngs Moduli (GPa) = 65.32983 33.68660 40.82041
#
# Poissons Ratio (x) = 0.23904 0.18923
# Poissons Ratio (y) = 0.46358 0.42639
# Poissons Ratio (z) = 0.30285 0.35188
#
# Static dielectric constant tensor:
#      x y z
#    x 3.159700 0.000000 0.000000 
#    y 0.000000 3.294070 0.000000 
#    z 0.000000 0.000000 3.969530 
# 
# 
# High freq. dielectric constant tensor:
#      x y z
#    x 1.687050 0.000000 0.000000 
#    y 0.000000 1.676890 0.000000 
#    z 0.000000 0.000000 1.698390 
# 
# From -- ./inp_files/13919.got.cif
#   From: 2010.03.12/outbox.cif.g09.slc.cpg/sg63_7_cif.got.tgz:13919.got - 2010.04.10 19:34:48.
