data_PCOD8258904
_publ_section_title
;
Structure prediction by ZEFSAII (Michael W. Deem and Ramdas Pophale) SiO2 
 PCOD8258904
Probable space group: C M C M
;
_chemical_formula_sum "Si O2"
_cell_formula_units_Z 80
_cell_length_a 9.170880
_cell_length_b 27.606691
_cell_length_c 16.205570
_cell_angle_alpha 90.000000
_cell_angle_beta 90.000000
_cell_angle_gamma 90.000000
_cell_volume 4102.888135
_symmetry_space_group_name_H-M "C M C M"
_symmetry_group_IT_number 63
_symmetry_cell_setting 'orthorhombic'
loop_
_space_group_symop_operation_xyz
x,y,z
-x,-y,1/2+z
x,-y,-z
-x,y,1/2-z
-x,-y,-z
x,y,1/2-z
-x,y,z
x,-y,1/2+z
1/2+x,1/2+y,z
1/2-x,1/2-y,1/2+z
1/2+x,1/2-y,-z
1/2-x,1/2+y,1/2-z
1/2-x,1/2-y,-z
1/2+x,1/2+y,1/2-z
1/2-x,1/2+y,z
1/2+x,1/2-y,1/2+z
loop_
_atom_site_type_symbol
_atom_site_label
_atom_site_fract_x
_atom_site_fract_y
_atom_site_fract_z
Si Si1 0.669997 0.111603 0.750000
Si Si2 0.668300 0.771569 0.921884
Si Si3 0.664685 0.638247 0.440096
Si Si4 0.172601 0.537321 0.426280
Si Si5 0.827251 0.495242 0.250000
Si Si6 0.342021 0.670227 0.873041
O O1 0.500000 0.105682 0.750000
O O2 0.714868 0.140376 0.830983
O O3 0.741098 0.058447 0.750000
O O4 0.500000 0.783641 0.943708
O O5 0.746454 0.820753 0.888014
O O6 0.677435 0.727868 0.855272
O O7 0.750000 0.750000 0.000000
O O8 0.500000 0.632406 0.405379
O O9 0.745717 0.587325 0.440878
O O10 0.663293 0.659025 0.531239
O O11 0.216509 0.500000 0.500000
O O12 0.225358 0.520063 0.335291
O O13 0.000000 0.546109 0.428389
O O14 0.000000 0.493644 0.250000
O O15 0.500000 0.654313 0.837534
#
# Coordination Sequence:
#
# PCOD8258904 Si02
#       6
#     8  16  16  16   8  16
#     4  11  21  33  54  79 104 137 178 225 268 317
#     4   9  17  31  52  77 105 138 175 217 267 323
#     4  10  20  34  54  80 108 140 180 224 271 325
#     4  10  20  36  58  80 107 146 188 230 277 330
#     4   9  20  37  54  79 110 139 180 229 278 329
#     4   9  19  34  51  75 108 141 172 213 268 326
#
# _framework density 19.498460999999999
#
# number of rings (size 3 to 8) (size 9 to 14) (size 15 to 20)
#    0.000    2.400    0.000    3.900    0.000    6.800 
#    0.000    3.500    0.000    2.400    0.000    0.000 
#    0.000    0.000    0.000    0.000    0.000    0.000 
#
# Total GULP energy -495580.297179 kJ/mol
# GULP energy per Si atom -12389.507429 kJ/mol
# Density = 1.945408 g / cm^3
# Si number density = 19.498461 Si / 1000 Ang^3
#
#
#
# Elastic Constant Matrix: (Units=GPa)
#
#
# Indices 1 2 3 4 5 6 
#
# 1 92.8527 70.2161 17.2796 0.0000 0.0000 0.0000
# 2 70.2161 178.3360 33.8372 0.0000 0.0000 0.0000
# 3 17.2796 33.8372 71.0692 0.0000 0.0000 0.0000
# 4 0.0000 0.0000 0.0000 11.9244 0.0000 0.0000
# 5 0.0000 0.0000 0.0000 0.0000 18.9345 0.0000
# 6 0.0000 0.0000 0.0000 0.0000 0.0000 35.0586
#
#
#
# Elastic Compliance Matrix: (Units=1/GPa)
#
#
# Indices 1 2 3 4 5 6 
#
# 1 0.015393 -0.005882 -0.000942 0.000000 0.000000 0.000000
# 2 -0.005882 0.008412 -0.002575 0.000000 0.000000 0.000000
# 3 -0.000942 -0.002575 0.015526 0.000000 0.000000 0.000000
# 4 0.000000 0.000000 0.000000 0.083862 0.000000 0.000000
# 5 0.000000 0.000000 0.000000 0.000000 0.052814 0.000000
# 6 0.000000 0.000000 0.000000 0.000000 0.000000 0.028524
#
#
# Mechanical properties :
#
#
# Convention : Reuss Voigt Hill
#
# Bulk Modulus (GPa) = 48.70266 64.99153 56.84709
# Shear Modulus (GPa) = 21.72287 27.91182 24.81734
#
# Velocity S-wave (km/s) = 3.34141 3.78761 3.57148
# Velocity P-wave (km/s) = 6.31812 7.24789 6.79892
#
# Compressibility (1/GPa) = 0.02053276
#
# Stress axis : x y z
#
# Youngs Moduli (GPa) = 64.96433 118.88003 64.40892
#
# Poissons Ratio (x) = 0.69925 0.06068
# Poissons Ratio (y) = 0.38212 0.16585
# Poissons Ratio (z) = 0.06121 0.30610
#
# Static dielectric constant tensor:
#      x y z
#    x 3.876800 0.000000 0.000000 
#    y 0.000000 4.017310 0.000000 
#    z 0.000000 0.000000 3.426590 
# 
# 
# High freq. dielectric constant tensor:
#      x y z
#    x 1.756800 0.000000 0.000000 
#    y 0.000000 1.777860 0.000000 
#    z 0.000000 0.000000 1.729420 
# 
# From -- ./inp_files/40588.got.cif
#   From: 2010.03.12/outbox.cif.g09.slc.cpg/sg63_21_cif.got.tgz:40588.got - 2010.04.10 19:34:48.
