data_PCOD8258013
_publ_section_title
;
Structure prediction by ZEFSAII (Michael W. Deem and Ramdas Pophale) SiO2 
 PCOD8258013
Probable space group: C M C M
;
_chemical_formula_sum "Si O2"
_cell_formula_units_Z 72
_cell_length_a 17.799497
_cell_length_b 23.871477
_cell_length_c 8.787891
_cell_angle_alpha 90.000000
_cell_angle_beta 90.000000
_cell_angle_gamma 90.000000
_cell_volume 3733.977375
_symmetry_space_group_name_H-M "C M C M"
_symmetry_group_IT_number 63
_symmetry_cell_setting 'orthorhombic'
loop_
_space_group_symop_operation_xyz
x,y,z
-x,-y,1/2+z
x,-y,-z
-x,y,1/2-z
-x,-y,-z
x,y,1/2-z
-x,y,z
x,-y,1/2+z
1/2+x,1/2+y,z
1/2-x,1/2-y,1/2+z
1/2+x,1/2-y,-z
1/2-x,1/2+y,1/2-z
1/2-x,1/2-y,-z
1/2+x,1/2+y,1/2-z
1/2-x,1/2+y,z
1/2+x,1/2-y,1/2+z
loop_
_atom_site_type_symbol
_atom_site_label
_atom_site_fract_x
_atom_site_fract_y
_atom_site_fract_z
Si Si1 0.706053 0.938528 0.430893
Si Si2 0.355002 0.623872 0.569880
Si Si3 0.500000 0.560409 0.931385
Si Si4 0.913216 0.358670 0.929634
Si Si5 0.668965 0.747217 0.570592
O O1 0.705246 0.942966 0.250000
O O2 0.777657 0.903152 0.492355
O O3 0.630600 0.908120 0.485992
O O4 0.710080 0.000000 0.500000
O O5 0.353680 0.619703 0.750000
O O6 0.426237 0.591003 0.503803
O O7 0.365887 0.688086 0.517461
O O8 0.500000 0.558508 0.750000
O O9 0.500000 0.500000 0.000000
O O10 0.902002 0.365563 0.750000
O O11 0.882993 0.298217 0.986444
O O12 0.000000 0.363231 0.976224
O O13 0.677665 0.749415 0.750000
O O14 0.750000 0.750000 0.500000
#
# Coordination Sequence:
#
# PCOD8258013 Si02
#       5
#    16  16   8  16  16
#     4  11  22  38  59  83 111 148 191 236 284 339
#     4   9  19  34  56  84 113 147 185 226 279 334
#     4  10  20  36  56  80 114 152 187 228 273 326
#     4  10  22  38  58  86 116 148 187 233 283 337
#     4  10  19  35  58  84 112 143 182 227 276 332
#
# _framework density 19.282387
#
# number of rings (size 3 to 8) (size 9 to 14) (size 15 to 20)
#    0.000    2.000    2.222    1.333    1.556    0.889 
#    0.000    2.222    0.000    0.000    0.000    0.000 
#    0.000    0.000    0.000    0.000    0.000    0.000 
#
# Total GULP energy -446407.587729 kJ/mol
# GULP energy per Si atom -12400.210770 kJ/mol
# Density = 1.923850 g / cm^3
# Si number density = 19.282387 Si / 1000 Ang^3
#
#
#
# Elastic Constant Matrix: (Units=GPa)
#
#
# Indices 1 2 3 4 5 6 
#
# 1 140.6324 48.1451 24.1057 0.0000 0.0000 0.0000
# 2 48.1451 130.2839 23.1587 0.0000 0.0000 0.0000
# 3 24.1057 23.1587 28.4950 0.0000 0.0000 0.0000
# 4 0.0000 0.0000 0.0000 20.2299 0.0000 0.0000
# 5 0.0000 0.0000 0.0000 0.0000 25.1586 0.0000
# 6 0.0000 0.0000 0.0000 0.0000 0.0000 39.9105
#
#
#
# Elastic Compliance Matrix: (Units=1/GPa)
#
#
# Indices 1 2 3 4 5 6 
#
# 1 0.008855 -0.002269 -0.005648 0.000000 0.000000 0.000000
# 2 -0.002269 0.009553 -0.005845 0.000000 0.000000 0.000000
# 3 -0.005648 -0.005845 0.044622 0.000000 0.000000 0.000000
# 4 0.000000 0.000000 0.000000 0.049432 0.000000 0.000000
# 5 0.000000 0.000000 0.000000 0.000000 0.039748 0.000000
# 6 0.000000 0.000000 0.000000 0.000000 0.000000 0.025056
#
#
# Mechanical properties :
#
#
# Convention : Reuss Voigt Hill
#
# Bulk Modulus (GPa) = 28.16256 54.47001 41.31628
# Shear Modulus (GPa) = 23.08152 30.65991 26.87072
#
# Velocity S-wave (km/s) = 3.46356 3.99187 3.73706
# Velocity P-wave (km/s) = 5.53462 7.03964 6.33201
#
# Compressibility (1/GPa) = 0.03550813
#
# Stress axis : x y z
#
# Youngs Moduli (GPa) = 112.92516 104.68143 22.41062
#
# Poissons Ratio (x) = 0.23747 0.12657
# Poissons Ratio (y) = 0.25617 0.13098
# Poissons Ratio (z) = 0.63776 0.61183
#
# Static dielectric constant tensor:
#      x y z
#    x 3.490780 0.000000 0.000000 
#    y 0.000000 4.144070 0.000000 
#    z 0.000000 0.000000 3.106990 
# 
# 
# High freq. dielectric constant tensor:
#      x y z
#    x 1.759460 0.000000 0.000000 
#    y 0.000000 1.769350 0.000000 
#    z 0.000000 0.000000 1.721630 
# 
# From -- ./inp_files/4665.got.cif
#   From: 2010.03.12/outbox.cif.g09.slc.cpg/sg63_3_cif.got.tgz:4665.got - 2010.04.10 19:34:48.
