data_PCOD8258559
_publ_section_title
;
Structure prediction by ZEFSAII (Michael W. Deem and Ramdas Pophale) SiO2 
 PCOD8258559
Probable space group: C M C M
;
_chemical_formula_sum "Si O2"
_cell_formula_units_Z 80
_cell_length_a 27.543542
_cell_length_b 17.606599
_cell_length_c 9.351832
_cell_angle_alpha 90.000000
_cell_angle_beta 90.000000
_cell_angle_gamma 90.000000
_cell_volume 4535.153151
_symmetry_space_group_name_H-M "C M C M"
_symmetry_group_IT_number 63
_symmetry_cell_setting 'orthorhombic'
loop_
_space_group_symop_operation_xyz
x,y,z
-x,-y,1/2+z
x,-y,-z
-x,y,1/2-z
-x,-y,-z
x,y,1/2-z
-x,y,z
x,-y,1/2+z
1/2+x,1/2+y,z
1/2-x,1/2-y,1/2+z
1/2+x,1/2-y,-z
1/2-x,1/2+y,1/2-z
1/2-x,1/2-y,-z
1/2+x,1/2+y,1/2-z
1/2-x,1/2+y,z
1/2+x,1/2-y,1/2+z
loop_
_atom_site_type_symbol
_atom_site_label
_atom_site_fract_x
_atom_site_fract_y
_atom_site_fract_z
Si Si1 0.408088 0.427271 0.587652
Si Si2 0.143709 0.284424 0.915687
Si Si3 0.210306 0.424678 0.585830
Si Si4 0.054983 0.765994 0.916497
Si Si5 0.309023 0.348790 0.915594
O O1 0.425175 0.500000 0.500000
O O2 0.419946 0.446917 0.750000
O O3 0.438718 0.353867 0.538083
O O4 0.351140 0.410976 0.564227
O O5 0.138493 0.261616 0.750000
O O6 0.165257 0.368179 0.933521
O O7 0.090825 0.285576 0.989644
O O8 0.179866 0.225237 0.990814
O O9 0.197792 0.500000 0.500000
O O10 0.218138 0.447362 0.750000
O O11 0.259329 0.385386 0.527265
O O12 0.069285 0.756946 0.750000
O O13 0.000000 0.739721 0.945755
O O14 0.304747 0.323456 0.750000
#
# Coordination Sequence:
#
# PCOD8258559 Si02
#       5
#    16  16  16  16  16
#     4   9  17  28  44  68  98 129 161 197 234 277
#     4  10  20  33  51  77 103 127 162 207 249 291
#     4  10  21  34  50  75 105 134 165 202 244 291
#     4   9  19  36  54  70  92 127 168 207 251 302
#     4   9  18  33  50  70 100 138 173 199 230 281
#
# _framework density 17.639977999999999
#
# number of rings (size 3 to 8) (size 9 to 14) (size 15 to 20)
#    0.000    2.600    0.000    3.000    0.000    6.400 
#    0.000    0.000    0.000    0.600    0.000    0.000 
#    0.000    0.000    0.000    0.000    0.000    0.000 
#
# Total GULP energy -496061.642979 kJ/mol
# GULP energy per Si atom -12401.541074 kJ/mol
# Density = 1.759983 g / cm^3
# Si number density = 17.639978 Si / 1000 Ang^3
#
#
#
# Elastic Constant Matrix: (Units=GPa)
#
#
# Indices 1 2 3 4 5 6 
#
# 1 96.1763 39.6889 42.6980 0.0000 0.0000 0.0000
# 2 39.6889 79.5920 50.6340 0.0000 0.0000 0.0000
# 3 42.6980 50.6340 79.9185 0.0000 0.0000 0.0000
# 4 0.0000 0.0000 0.0000 32.6726 0.0000 0.0000
# 5 0.0000 0.0000 0.0000 0.0000 25.7734 0.0000
# 6 0.0000 0.0000 0.0000 0.0000 0.0000 12.2885
#
#
#
# Elastic Compliance Matrix: (Units=1/GPa)
#
#
# Indices 1 2 3 4 5 6 
#
# 1 0.014285 -0.003799 -0.005225 0.000000 0.000000 0.000000
# 2 -0.003799 0.022058 -0.011945 0.000000 0.000000 0.000000
# 3 -0.005225 -0.011945 0.022872 0.000000 0.000000 0.000000
# 4 0.000000 0.000000 0.000000 0.030607 0.000000 0.000000
# 5 0.000000 0.000000 0.000000 0.000000 0.038800 0.000000
# 6 0.000000 0.000000 0.000000 0.000000 0.000000 0.081377
#
#
# Mechanical properties :
#
#
# Convention : Reuss Voigt Hill
#
# Bulk Modulus (GPa) = 57.88309 57.96982 57.92645
# Shear Modulus (GPa) = 19.40264 22.32461 20.86363
#
# Velocity S-wave (km/s) = 3.32011 3.56134 3.44284
# Velocity P-wave (km/s) = 6.89799 7.06010 6.97952
#
# Compressibility (1/GPa) = 0.01727620
#
# Stress axis : x y z
#
# Youngs Moduli (GPa) = 70.00307 45.33516 43.72074
#
# Poissons Ratio (x) = 0.17225 0.22844
# Poissons Ratio (y) = 0.26597 0.52226
# Poissons Ratio (z) = 0.36576 0.54154
#
# Static dielectric constant tensor:
#      x y z
#    x 3.295150 0.000000 0.000000 
#    y 0.000000 2.994650 0.000000 
#    z 0.000000 0.000000 3.259170 
# 
# 
# High freq. dielectric constant tensor:
#      x y z
#    x 1.680060 0.000000 0.000000 
#    y 0.000000 1.659580 0.000000 
#    z 0.000000 0.000000 1.681490 
# 
# From -- ./inp_files/11968.got.cif
#   From: 2010.03.12/outbox.cif.g09.slc.cpg/sg63_6_cif.got.tgz:11968.got - 2010.04.10 19:34:48.
