data_PCOD8258176
_publ_section_title
;
Structure prediction by ZEFSAII (Michael W. Deem and Ramdas Pophale) SiO2 
 PCOD8258176
Probable space group: C M C M
;
_chemical_formula_sum "Si O2"
_cell_formula_units_Z 64
_cell_length_a 23.878954
_cell_length_b 14.311288
_cell_length_c 9.286648
_cell_angle_alpha 90.000000
_cell_angle_beta 90.000000
_cell_angle_gamma 90.000000
_cell_volume 3173.605973
_symmetry_space_group_name_H-M "C M C M"
_symmetry_group_IT_number 63
_symmetry_cell_setting 'orthorhombic'
loop_
_space_group_symop_operation_xyz
x,y,z
-x,-y,1/2+z
x,-y,-z
-x,y,1/2-z
-x,-y,-z
x,y,1/2-z
-x,y,z
x,-y,1/2+z
1/2+x,1/2+y,z
1/2-x,1/2-y,1/2+z
1/2+x,1/2-y,-z
1/2-x,1/2+y,1/2-z
1/2-x,1/2-y,-z
1/2+x,1/2+y,1/2-z
1/2-x,1/2+y,z
1/2+x,1/2-y,1/2+z
loop_
_atom_site_type_symbol
_atom_site_label
_atom_site_fract_x
_atom_site_fract_y
_atom_site_fract_z
Si Si1 0.500000 0.799908 0.413883
Si Si2 0.377334 0.594020 0.591291
Si Si3 0.107410 0.405414 0.084683
Si Si4 0.192002 0.755012 0.917571
Si Si5 0.000000 0.892687 0.458130
O O1 0.500000 0.828358 0.250000
O O2 0.444455 0.846361 0.483463
O O3 0.500000 0.686889 0.418544
O O4 0.373034 0.500000 0.500000
O O5 0.348934 0.583305 0.750000
O O6 0.347524 0.671271 0.495903
O O7 0.441861 0.622722 0.625470
O O8 0.095671 0.430537 0.250000
O O9 0.164003 0.346206 0.070151
O O10 0.116532 0.500000 0.000000
O O11 0.200078 0.783623 0.750000
O O12 0.250000 0.750000 0.000000
O O13 0.000000 0.000000 0.500000
#
# Coordination Sequence:
#
# PCOD8258176 Si02
#       5
#     8  16  16  16   8
#     4  10  19  38  64  91 128 165 200 252 313 377
#     4  11  23  40  63  94 128 164 206 254 313 379
#     4  10  22  40  64  92 123 163 204 253 312 369
#     4  11  24  43  65  90 123 165 212 263 317 371
#     4  10  21  36  61  97 131 164 204 251 315 382
#
# _framework density 20.166333000000002
#
# number of rings (size 3 to 8) (size 9 to 14) (size 15 to 20)
#    0.000    1.500    2.500    2.250    0.000    7.000 
#    0.000    2.500    0.000    0.000    0.000    0.000 
#    0.000    0.000    0.000    0.000    0.000    0.000 
#
# Total GULP energy -396475.847094 kJ/mol
# GULP energy per Si atom -12389.870222 kJ/mol
# Density = 2.012043 g / cm^3
# Si number density = 20.166333 Si / 1000 Ang^3
#
#
#
# Elastic Constant Matrix: (Units=GPa)
#
#
# Indices 1 2 3 4 5 6 
#
# 1 119.5959 56.3338 58.6010 0.0000 0.0000 0.0000
# 2 56.3338 145.3259 73.5141 0.0000 0.0000 0.0000
# 3 58.6010 73.5141 146.3917 0.0000 0.0000 0.0000
# 4 0.0000 0.0000 0.0000 32.2381 0.0000 0.0000
# 5 0.0000 0.0000 0.0000 0.0000 8.9746 0.0000
# 6 0.0000 0.0000 0.0000 0.0000 0.0000 20.2562
#
#
#
# Elastic Compliance Matrix: (Units=1/GPa)
#
#
# Indices 1 2 3 4 5 6 
#
# 1 0.011178 -0.002774 -0.003081 0.000000 0.000000 0.000000
# 2 -0.002774 0.009913 -0.003867 0.000000 0.000000 0.000000
# 3 -0.003081 -0.003867 0.010007 0.000000 0.000000 0.000000
# 4 0.000000 0.000000 0.000000 0.031019 0.000000 0.000000
# 5 0.000000 0.000000 0.000000 0.000000 0.111425 0.000000
# 6 0.000000 0.000000 0.000000 0.000000 0.000000 0.049368
#
#
# Mechanical properties :
#
#
# Convention : Reuss Voigt Hill
#
# Bulk Modulus (GPa) = 85.82747 87.57903 86.70325
# Shear Modulus (GPa) = 20.30541 27.15143 23.72842
#
# Velocity S-wave (km/s) = 3.17661 3.67328 3.43393
# Velocity P-wave (km/s) = 7.49043 7.84304 7.66876
#
# Compressibility (1/GPa) = 0.01165128
#
# Stress axis : x y z
#
# Youngs Moduli (GPa) = 89.46003 100.87896 99.93375
#
# Poissons Ratio (x) = 0.27987 0.30794
# Poissons Ratio (y) = 0.24819 0.38649
# Poissons Ratio (z) = 0.27567 0.39014
#
# Static dielectric constant tensor:
#      x y z
#    x 4.232170 0.000000 0.000000 
#    y 0.000000 3.932360 0.000000 
#    z 0.000000 0.000000 3.575940 
# 
# 
# High freq. dielectric constant tensor:
#      x y z
#    x 1.793410 0.000000 0.000000 
#    y 0.000000 1.791740 0.000000 
#    z 0.000000 0.000000 1.781920 
# 
# From -- ./inp_files/9659.got.cif
#   From: 2010.03.12/outbox.cif.g09.slc.cpg/sg63_5_cif.got.tgz:9659.got - 2010.04.10 19:34:48.
