data_PCOD8258463
_publ_section_title
;
Structure prediction by ZEFSAII (Michael W. Deem and Ramdas Pophale) SiO2 
 PCOD8258463
Probable space group: C M C M
;
_chemical_formula_sum "Si O2"
_cell_formula_units_Z 112
_cell_length_a 12.682617
_cell_length_b 28.780274
_cell_length_c 17.801207
_cell_angle_alpha 90.000000
_cell_angle_beta 90.000000
_cell_angle_gamma 90.000000
_cell_volume 6497.604189
_symmetry_space_group_name_H-M "C M C M"
_symmetry_group_IT_number 63
_symmetry_cell_setting 'orthorhombic'
loop_
_space_group_symop_operation_xyz
x,y,z
-x,-y,1/2+z
x,-y,-z
-x,y,1/2-z
-x,-y,-z
x,y,1/2-z
-x,y,z
x,-y,1/2+z
1/2+x,1/2+y,z
1/2-x,1/2-y,1/2+z
1/2+x,1/2-y,-z
1/2-x,1/2+y,1/2-z
1/2-x,1/2-y,-z
1/2+x,1/2+y,1/2-z
1/2-x,1/2+y,z
1/2+x,1/2-y,1/2+z
loop_
_atom_site_type_symbol
_atom_site_label
_atom_site_fract_x
_atom_site_fract_y
_atom_site_fract_z
Si Si1 0.620880 0.706960 0.950670
Si Si2 0.773363 0.302022 0.585178
Si Si3 0.386153 0.756093 0.163376
Si Si4 0.876357 0.483335 0.580376
Si Si5 0.625611 0.890925 0.837457
Si Si6 0.250808 0.340647 0.161200
Si Si7 0.116809 0.574725 0.838351
O O1 0.500000 0.701713 0.975965
O O2 0.642968 0.761201 0.932793
O O3 0.639516 0.673618 0.878256
O O4 0.701505 0.687245 0.012871
O O5 0.691522 0.286550 0.649378
O O6 0.833286 0.346464 0.617124
O O7 0.405748 0.761906 0.250000
O O8 0.500000 0.748752 0.123182
O O9 0.335224 0.803312 0.132323
O O10 0.827475 0.500000 0.500000
O O11 0.830220 0.435727 0.616126
O O12 0.848351 0.523180 0.640021
O O13 0.000000 0.476045 0.569763
O O14 0.664541 0.891807 0.750000
O O15 0.500000 0.890129 0.837975
O O16 0.269924 0.339497 0.250000
O O17 0.205283 0.389704 0.131939
O O18 0.109745 0.579157 0.750000
O O19 0.000000 0.585913 0.872399
#
# Coordination Sequence:
#
# PCOD8258463 Si02
#       7
#    16  16  16  16  16  16  16
#     4  10  21  35  49  70 100 132 168 211 255 297
#     4  10  20  33  50  71  98 134 171 206 246 300
#     4   9  16  28  46  69  98 128 161 202 243 287
#     4   9  18  30  46  72 104 135 166 201 246 299
#     4  10  20  34  52  76 107 140 172 206 247 300
#     4   9  18  30  47  72  97 128 168 203 244 298
#     4   9  16  28  47  71 101 133 162 197 242 293
#
# _framework density 17.237121999999999
#
# number of rings (size 3 to 8) (size 9 to 14) (size 15 to 20)
#    0.000    2.571    0.000    2.143    2.000    4.286 
#    0.000    1.429    0.000    0.000    0.000    3.000 
#    0.000    4.571    0.000    0.000    0.000    0.000 
#
# Total GULP energy -693882.515824 kJ/mol
# GULP energy per Si atom -12390.759211 kJ/mol
# Density = 1.719789 g / cm^3
# Si number density = 17.237122 Si / 1000 Ang^3
#
#
#
# Elastic Constant Matrix: (Units=GPa)
#
#
# Indices 1 2 3 4 5 6 
#
# 1 56.7952 21.7972 23.0945 0.0000 0.0000 0.0000
# 2 21.7972 110.4943 43.5105 0.0000 0.0000 0.0000
# 3 23.0945 43.5105 69.9862 0.0000 0.0000 0.0000
# 4 0.0000 0.0000 0.0000 30.4689 0.0000 0.0000
# 5 0.0000 0.0000 0.0000 0.0000 16.9607 0.0000
# 6 0.0000 0.0000 0.0000 0.0000 0.0000 18.9542
#
#
#
# Elastic Compliance Matrix: (Units=1/GPa)
#
#
# Indices 1 2 3 4 5 6 
#
# 1 0.020614 -0.001838 -0.005660 0.000000 0.000000 0.000000
# 2 -0.001838 0.012148 -0.006946 0.000000 0.000000 0.000000
# 3 -0.005660 -0.006946 0.020474 0.000000 0.000000 0.000000
# 4 0.000000 0.000000 0.000000 0.032820 0.000000 0.000000
# 5 0.000000 0.000000 0.000000 0.000000 0.058960 0.000000
# 6 0.000000 0.000000 0.000000 0.000000 0.000000 0.052759
#
#
# Mechanical properties :
#
#
# Convention : Reuss Voigt Hill
#
# Bulk Modulus (GPa) = 41.06891 46.00889 43.53890
# Shear Modulus (GPa) = 21.29667 23.20168 22.24917
#
# Velocity S-wave (km/s) = 3.51880 3.67281 3.59663
# Velocity P-wave (km/s) = 6.35506 6.68848 6.52390
#
# Compressibility (1/GPa) = 0.02434932
#
# Stress axis : x y z
#
# Youngs Moduli (GPa) = 48.51107 82.31827 48.84126
#
# Poissons Ratio (x) = 0.15128 0.27643
# Poissons Ratio (y) = 0.08915 0.33925
# Poissons Ratio (z) = 0.27456 0.57178
#
# Static dielectric constant tensor:
#      x y z
#    x 3.240310 0.000000 0.000000 
#    y 0.000000 3.257760 0.000000 
#    z 0.000000 0.000000 3.407050 
# 
# 
# High freq. dielectric constant tensor:
#      x y z
#    x 1.628540 0.000000 0.000000 
#    y 0.000000 1.658400 0.000000 
#    z 0.000000 0.000000 1.675370 
# 
# From -- ./inp_files/53154.got.cif
#   From: 2010.03.12/outbox.cif.g09.slc.cpg/sg63_27_cif.got.tgz:53154.got - 2010.04.10 19:34:48.
