data_PCOD8258315
_publ_section_title
;
Structure prediction by ZEFSAII (Michael W. Deem and Ramdas Pophale) SiO2 
 PCOD8258315
Probable space group: C M C M
;
_chemical_formula_sum "Si O2"
_cell_formula_units_Z 96
_cell_length_a 18.615812
_cell_length_b 32.505101
_cell_length_c 9.074997
_cell_angle_alpha 90.000000
_cell_angle_beta 90.000000
_cell_angle_gamma 90.000000
_cell_volume 5491.360992
_symmetry_space_group_name_H-M "C M C M"
_symmetry_group_IT_number 63
_symmetry_cell_setting 'orthorhombic'
loop_
_space_group_symop_operation_xyz
x,y,z
-x,-y,1/2+z
x,-y,-z
-x,y,1/2-z
-x,-y,-z
x,y,1/2-z
-x,y,z
x,-y,1/2+z
1/2+x,1/2+y,z
1/2-x,1/2-y,1/2+z
1/2+x,1/2-y,-z
1/2-x,1/2+y,1/2-z
1/2-x,1/2-y,-z
1/2+x,1/2+y,1/2-z
1/2-x,1/2+y,z
1/2+x,1/2-y,1/2+z
loop_
_atom_site_type_symbol
_atom_site_label
_atom_site_fract_x
_atom_site_fract_y
_atom_site_fract_z
Si Si1 0.650694 0.664853 0.076018
Si Si2 0.918484 0.662051 0.576324
Si Si3 0.079726 0.246922 0.075366
Si Si4 0.793319 0.620841 0.419234
Si Si5 0.202987 0.041615 0.076936
Si Si6 0.583006 0.409602 0.420503
O O1 0.637272 0.658419 0.250000
O O2 0.635012 0.711579 0.023447
O O3 0.732594 0.654043 0.034868
O O4 0.596516 0.635087 0.990470
O O5 0.911466 0.659708 0.750000
O O6 0.896662 0.707868 0.518372
O O7 0.865536 0.628265 0.509723
O O8 0.000000 0.652001 0.527390
O O9 0.076713 0.248443 0.250000
O O10 0.000000 0.236413 0.015081
O O11 0.813489 0.625857 0.250000
O O12 0.764397 0.575322 0.453715
O O13 0.190788 0.034871 0.250000
O O14 0.127985 0.055805 0.006128
O O15 0.229518 0.000000 0.000000
O O16 0.606402 0.408862 0.250000
O O17 0.500000 0.421221 0.438348
#
# Coordination Sequence:
#
# PCOD8258315 Si02
#       6
#    16  16  16  16  16  16
#     4   9  17  30  48  69  96 133 174 209 242 283
#     4   9  18  32  50  72  96 126 165 202 239 290
#     4   8  14  26  45  68  95 130 171 209 241 276
#     4   9  19  33  49  73 100 124 154 195 244 294
#     4  10  21  37  56  76  98 125 159 197 240 293
#     4  10  20  32  47  71 103 136 170 206 241 278
#
# _framework density 17.482005000000001
#
# number of rings (size 3 to 8) (size 9 to 14) (size 15 to 20)
#    0.000    2.833    0.000    3.500    0.000    6.667 
#    0.000    0.833    0.000    1.500    0.000    0.000 
#    0.000    0.000    0.000    0.000    0.000    0.000 
#
# Total GULP energy -595075.915598 kJ/mol
# GULP energy per Si atom -12397.414908 kJ/mol
# Density = 1.744222 g / cm^3
# Si number density = 17.482005 Si / 1000 Ang^3
#
#
#
# Elastic Constant Matrix: (Units=GPa)
#
#
# Indices 1 2 3 4 5 6 
#
# 1 104.3587 65.5876 48.0972 0.0000 0.0000 0.0000
# 2 65.5876 100.6711 45.1465 0.0000 0.0000 0.0000
# 3 48.0972 45.1465 66.3977 0.0000 0.0000 0.0000
# 4 0.0000 0.0000 0.0000 24.3359 0.0000 0.0000
# 5 0.0000 0.0000 0.0000 0.0000 29.1670 0.0000
# 6 0.0000 0.0000 0.0000 0.0000 0.0000 17.1505
#
#
#
# Elastic Compliance Matrix: (Units=1/GPa)
#
#
# Indices 1 2 3 4 5 6 
#
# 1 0.018497 -0.008692 -0.007488 0.000000 0.000000 0.000000
# 2 -0.008692 0.018376 -0.006198 0.000000 0.000000 0.000000
# 3 -0.007488 -0.006198 0.024699 0.000000 0.000000 0.000000
# 4 0.000000 0.000000 0.000000 0.041092 0.000000 0.000000
# 5 0.000000 0.000000 0.000000 0.000000 0.034285 0.000000
# 6 0.000000 0.000000 0.000000 0.000000 0.000000 0.058307
#
#
# Mechanical properties :
#
#
# Convention : Reuss Voigt Hill
#
# Bulk Modulus (GPa) = 59.47187 65.45447 62.46317
# Shear Modulus (GPa) = 20.35680 21.63710 20.99695
#
# Velocity S-wave (km/s) = 3.41610 3.52188 3.46939
# Velocity P-wave (km/s) = 7.04644 7.35259 7.20114
#
# Compressibility (1/GPa) = 0.01681467
#
# Stress axis : x y z
#
# Youngs Moduli (GPa) = 54.06404 54.41880 40.48689
#
# Poissons Ratio (x) = 0.47303 0.30317
# Poissons Ratio (y) = 0.46995 0.25094
# Poissons Ratio (z) = 0.40484 0.33729
#
# Static dielectric constant tensor:
#      x y z
#    x 3.113420 0.000000 0.000000 
#    y 0.000000 3.356340 0.000000 
#    z 0.000000 0.000000 3.098700 
# 
# 
# High freq. dielectric constant tensor:
#      x y z
#    x 1.662770 0.000000 0.000000 
#    y 0.000000 1.670390 0.000000 
#    z 0.000000 0.000000 1.662900 
# 
# From -- ./inp_files/8569.got.cif
#   From: 2010.03.12/outbox.cif.g09.slc.cpg/sg63_5_cif.got.tgz:8569.got - 2010.04.10 19:34:48.
