data_PCOD8258202
_publ_section_title
;
Structure prediction by ZEFSAII (Michael W. Deem and Ramdas Pophale) SiO2 
 PCOD8258202
Probable space group: C M C M
;
_chemical_formula_sum "Si O2"
_cell_formula_units_Z 88
_cell_length_a 19.349803
_cell_length_b 27.490315
_cell_length_c 8.588234
_cell_angle_alpha 90.000000
_cell_angle_beta 90.000000
_cell_angle_gamma 90.000000
_cell_volume 4568.358031
_symmetry_space_group_name_H-M "C M C M"
_symmetry_group_IT_number 63
_symmetry_cell_setting 'orthorhombic'
loop_
_space_group_symop_operation_xyz
x,y,z
-x,-y,1/2+z
x,-y,-z
-x,y,1/2-z
-x,-y,-z
x,y,1/2-z
-x,y,z
x,-y,1/2+z
1/2+x,1/2+y,z
1/2-x,1/2-y,1/2+z
1/2+x,1/2-y,-z
1/2-x,1/2+y,1/2-z
1/2-x,1/2-y,-z
1/2+x,1/2+y,1/2-z
1/2-x,1/2+y,z
1/2+x,1/2-y,1/2+z
loop_
_atom_site_type_symbol
_atom_site_label
_atom_site_fract_x
_atom_site_fract_y
_atom_site_fract_z
Si Si1 0.673693 0.347533 0.935732
Si Si2 0.855940 0.413845 0.573816
Si Si3 0.421556 0.272307 0.435658
Si Si4 0.686063 0.805069 0.924293
Si Si5 0.500000 0.947517 0.565624
Si Si6 0.780352 0.948258 0.432154
O O1 0.676819 0.348517 0.750000
O O2 0.737730 0.313490 0.001360
O O3 0.602708 0.324810 0.999886
O O4 0.678191 0.403227 0.992074
O O5 0.847266 0.434230 0.750000
O O6 0.850403 0.356525 0.573777
O O7 0.931217 0.422308 0.501198
O O8 0.800738 0.441401 0.466862
O O9 0.420846 0.272040 0.250000
O O10 0.500000 0.262172 0.494559
O O11 0.367124 0.232610 0.506993
O O12 0.697476 0.785808 0.750000
O O13 0.500000 0.945861 0.750000
O O14 0.500000 0.000000 0.500000
O O15 0.794309 0.947956 0.250000
O O16 0.806431 0.000000 0.500000
#
# Coordination Sequence:
#
# PCOD8258202 Si02
#       6
#    16  16  16  16   8  16
#     4  10  20  36  56  79 109 143 181 224 268 319
#     4   9  18  32  49  73 103 139 182 225 268 316
#     4  10  20  33  53  81 111 144 182 223 268 322
#     4   8  16  31  52  77 104 139 182 224 265 313
#     4  10  20  30  44  64  96 140 182 224 269 316
#     4  11  21  35  56  80 105 134 173 221 271 323
#
# _framework density 19.262937999999998
#
# number of rings (size 3 to 8) (size 9 to 14) (size 15 to 20)
#    0.000    2.364    0.000    4.364    1.273    2.545 
#    0.000    3.636    0.000    0.545    0.000    0.000 
#    0.000    0.000    0.000    0.000    0.000    0.000 
#
# Total GULP energy -545250.081580 kJ/mol
# GULP energy per Si atom -12392.047309 kJ/mol
# Density = 1.921909 g / cm^3
# Si number density = 19.262938 Si / 1000 Ang^3
#
#
#
# Elastic Constant Matrix: (Units=GPa)
#
#
# Indices 1 2 3 4 5 6 
#
# 1 80.1035 52.5278 21.1435 0.0000 0.0000 0.0000
# 2 52.5278 95.4025 24.4093 0.0000 0.0000 0.0000
# 3 21.1435 24.4093 50.1885 0.0000 0.0000 0.0000
# 4 0.0000 0.0000 0.0000 26.7897 0.0000 0.0000
# 5 0.0000 0.0000 0.0000 0.0000 21.0703 0.0000
# 6 0.0000 0.0000 0.0000 0.0000 0.0000 13.7861
#
#
#
# Elastic Compliance Matrix: (Units=1/GPa)
#
#
# Indices 1 2 3 4 5 6 
#
# 1 0.020068 -0.010149 -0.003518 0.000000 0.000000 0.000000
# 2 -0.010149 0.017104 -0.004043 0.000000 0.000000 0.000000
# 3 -0.003518 -0.004043 0.023373 0.000000 0.000000 0.000000
# 4 0.000000 0.000000 0.000000 0.037328 0.000000 0.000000
# 5 0.000000 0.000000 0.000000 0.000000 0.047460 0.000000
# 6 0.000000 0.000000 0.000000 0.000000 0.000000 0.072537
#
#
# Mechanical properties :
#
#
# Convention : Reuss Voigt Hill
#
# Bulk Modulus (GPa) = 39.80127 46.87287 43.33707
# Shear Modulus (GPa) = 19.10834 20.83680 19.97257
#
# Velocity S-wave (km/s) = 3.15298 3.29250 3.22349
# Velocity P-wave (km/s) = 5.82769 6.23218 6.03333
#
# Compressibility (1/GPa) = 0.02512483
#
# Stress axis : x y z
#
# Youngs Moduli (GPa) = 49.83143 58.46491 42.78364
#
# Poissons Ratio (x) = 0.59336 0.15052
# Poissons Ratio (y) = 0.50574 0.17298
# Poissons Ratio (z) = 0.17532 0.23638
#
# Static dielectric constant tensor:
#      x y z
#    x 3.633320 0.000000 0.000000 
#    y 0.000000 3.597580 0.000000 
#    z 0.000000 0.000000 3.228700 
# 
# 
# High freq. dielectric constant tensor:
#      x y z
#    x 1.735660 0.000000 0.000000 
#    y 0.000000 1.755820 0.000000 
#    z 0.000000 0.000000 1.724990 
# 
# From -- ./inp_files/6790.got.cif
#   From: 2010.03.12/outbox.cif.g09.slc.cpg/sg63_4_cif.got.tgz:6790.got - 2010.04.10 19:34:48.
